data_functionalizedCrystal
_audit_creation_method	'MofGen! by Chris Wilmer'
_symmetry_space_group_name_H-M	'P1'
_symmetry_Int_Tables_number	1
_symmetry_cell_setting	triclinic
loop_
_symmetry_equiv_pos_as_xyz
  x,y,z
_cell_length_a	10.654556
_cell_length_b	10.654550
_cell_length_c	14.472311
_cell_angle_alpha	90.007666
_cell_angle_beta	90.006520
_cell_angle_gamma	95.513767
loop_
_atom_site_label
_atom_site_type_symbol
_atom_site_fract_x
_atom_site_fract_y
_atom_site_fract_z
O1	O	-1.667818	0.176450	0.076799
O2	O	-1.302341	0.193247	0.076808
O3	O	-1.493483	0.002109	0.076804
O4	O	-1.476677	0.367587	0.076803
O5	O	-1.493502	0.002078	-0.076878
O6	O	-1.302361	0.193216	-0.076874
O7	O	-1.667838	0.176419	-0.076883
Cu8	Cu	-1.485101	0.184815	-0.090910
Cu9	Cu	-1.485078	0.184851	0.090836
O10	O	-1.476696	0.367557	-0.076879
C11	C	-1.255553	0.191997	-0.000031
C12	C	-1.116110	0.188302	-0.000028
C13	C	-1.714626	0.177669	-0.000041
C14	C	-1.854069	0.181364	-0.000038
C15	C	-1.492259	-0.044704	-0.000034
C16	C	-1.488567	-0.184147	-0.000028
C17	C	-0.919554	0.183116	0.083737
C18	C	-1.050576	0.186580	0.083743
C19	C	-1.050616	0.186546	-0.083810
C20	C	-0.919598	0.183073	-0.083814
C21	C	-1.483339	-0.380671	0.083737
C22	C	-1.486821	-0.249651	0.083743
C23	C	-1.486843	-0.249673	-0.083810
C24	C	-1.483371	-0.380692	-0.083814
C25	C	-1.477920	0.414370	-0.000038
C26	C	-1.481612	0.553813	-0.000038
N27	N	-1.485127	0.184788	-0.218741
N28	N	-1.485062	0.184868	0.218667
C29	C	-1.485084	0.184841	0.407167
C30	C	-1.382611	0.286897	0.446400
C31	C	-1.382891	0.287251	0.553488
C32	C	-1.485104	0.184815	0.592758
C33	C	-1.616446	0.214388	0.553871
C34	C	-1.615834	0.215138	0.446750
C35	C	-1.457396	0.052907	0.446622
C36	C	-1.454437	0.053741	0.553750
C37	C	-1.485124	0.184798	0.697647
C38	C	-1.485074	0.184861	0.302279
H39	H	-0.866204	0.181723	0.151953
H40	H	-1.694545	0.143790	0.420794
N41	N	-1.121295	0.188415	-0.174163
H42	H	-1.059926	0.186777	-0.227235
H43	H	-1.185164	0.112140	-0.177814
N44	N	-1.488719	-0.179036	-0.174168
H45	H	-1.565836	-0.211343	-0.210796
H46	H	-1.491127	-0.086109	-0.161383
N47	N	-1.556335	-0.047728	0.413001
H48	H	-1.601862	-0.089598	0.467723
H49	H	-1.618727	-0.008039	0.372398
H50	H	-1.284693	0.269425	0.420651
N51	N	-1.121209	0.188458	0.174100
H52	H	-1.059812	0.186845	0.227167
H53	H	-1.166073	0.267613	0.177755
N54	N	-1.481503	-0.451369	-0.174175
H55	H	-1.557782	-0.515229	-0.177909
H56	H	-1.483089	-0.389916	-0.227194
H57	H	-1.285305	0.269490	0.579782
H58	H	-0.866278	0.181645	-0.152039
H59	H	-1.481906	-0.433993	0.151953
H60	H	-1.400192	0.384230	0.419504
N61	N	-1.488689	-0.178987	0.174100
H62	H	-1.487049	-0.240363	0.227167
H63	H	-1.412414	-0.115118	0.177754
H64	H	-1.400729	0.385125	0.579135
N65	N	-1.647887	0.342622	0.413670
H66	H	-1.662278	0.397805	0.468674
H67	H	-1.575906	0.383381	0.375379
N68	N	-1.719975	0.118587	0.587549
H69	H	-1.682643	0.054943	0.628438
H70	H	-1.783670	0.162785	0.623867
H71	H	-1.363610	0.024719	0.419589
N72	N	-1.649249	0.340416	0.589432
H73	H	-1.582734	0.408669	0.568940
H74	H	-1.733943	0.358488	0.564015
H75	H	-1.357813	0.031321	0.579170
H76	H	-1.524142	-0.025847	0.580477
