data_functionalizedCrystal
_audit_creation_method	'MofGen! by Chris Wilmer'
_symmetry_space_group_name_H-M	'P1'
_symmetry_Int_Tables_number	1
_symmetry_cell_setting	triclinic
loop_
_symmetry_equiv_pos_as_xyz
  x,y,z
_cell_length_a	18.760492
_cell_length_b	15.698487
_cell_length_c	18.760492
_cell_angle_alpha	59.998294
_cell_angle_beta	89.998987
_cell_angle_gamma	60.001818
loop_
_atom_site_label
_atom_site_type_symbol
_atom_site_fract_x
_atom_site_fract_y
_atom_site_fract_z
Zr1	Zr	0.686709	0.932389	-0.093521
O2	O	0.572901	1.110100	-0.207341
O3	O	0.721594	0.754678	-0.058630
O4	O	0.721605	0.932388	-0.207337
O5	O	0.572885	0.932390	0.058669
O6	O	0.838908	0.932387	-0.207333
O7	O	0.572891	0.932390	-0.058634
O8	O	0.838890	0.614497	0.058676
O9	O	0.572904	1.250281	-0.207340
O10	O	0.824018	0.827772	-0.043746
O11	O	0.736472	0.827773	0.043793
O12	O	0.736484	1.037004	-0.131290
O13	O	0.648938	1.037005	-0.043751
Zr14	Zr	0.873786	0.932388	0.093568
Zr15	Zr	0.873794	0.932387	-0.093516
Zr16	Zr	0.686701	0.932389	0.093563
Zr17	Zr	0.686714	1.155961	-0.093521
Zr18	Zr	0.873781	0.708815	0.093568
O19	O	0.838900	1.110098	0.058677
O20	O	0.838912	1.110098	-0.207333
O21	O	0.572889	1.110100	0.058669
O22	O	0.987594	0.754676	0.207388
O23	O	0.987605	0.754676	-0.058622
O24	O	0.721583	0.754679	0.207380
O25	O	0.987609	0.932386	-0.058622
O26	O	0.838890	0.932388	0.207384
O27	O	0.721587	0.932389	0.207380
O28	O	0.987604	0.932386	0.058681
O29	O	0.721611	1.250279	-0.207336
O30	O	0.838883	0.614497	0.207383
O31	O	0.987591	0.614496	0.207387
O32	O	0.987597	0.614495	0.058680
O33	O	0.572897	1.250281	-0.058633
O34	O	0.721605	1.250280	-0.058629
O35	O	0.824010	0.827773	0.131337
O36	O	0.911556	0.827772	0.043798
O37	O	0.824022	1.037003	-0.043746
O38	O	0.736477	1.037004	0.043793
C39	C	0.780241	0.652733	0.000023
C40	C	0.780239	0.557821	0.000023
C41	C	0.546232	0.932390	0.000017
C42	C	0.466810	0.932391	0.000015
C43	C	0.383803	1.041612	-0.045686
C44	C	0.475188	0.823170	0.045719
C45	C	0.400568	0.823167	0.045723
C46	C	0.317561	0.932388	0.000022
C47	C	0.309175	1.041612	-0.045682
C48	C	0.408948	0.713945	0.091433
C49	C	0.334325	0.713938	0.091439
C50	C	0.251317	0.823160	0.045732
C51	C	0.242933	0.932388	0.000025
C52	C	0.159927	1.041609	-0.045675
C53	C	0.151541	1.150839	-0.091388
C54	C	0.226167	1.150834	-0.091389
C55	C	0.176691	0.823165	0.045733
C56	C	0.085298	1.041609	-0.045672
C57	C	0.780239	0.480740	0.000025
C58	C	0.780246	0.384034	0.000026
C59	C	1.014262	0.932386	0.000030
C60	C	1.093685	0.932385	0.000033
C61	C	0.780257	0.932388	-0.233990
C62	C	0.780261	0.932388	-0.313413
C63	C	0.780253	1.212043	0.000024
C64	C	0.780255	1.306955	0.000024
C65	C	0.825930	0.823167	-0.603529
C66	C	0.734543	1.041609	-0.694922
C67	C	0.734549	1.041610	-0.620302
C68	C	0.780245	0.932389	-0.537291
C69	C	0.825935	0.823166	-0.528901
C70	C	0.688852	1.150832	-0.628686
C71	C	0.688855	1.150838	-0.554062
C72	C	0.734557	1.041615	-0.471050
C73	C	0.780250	0.932387	-0.462662
C74	C	0.825946	0.823166	-0.379651
C75	C	0.871644	0.713937	-0.371262
C76	C	0.871637	0.713943	-0.445888
C77	C	0.734565	1.041609	-0.396423
C78	C	0.825951	0.823164	-0.305022
C79	C	0.780237	0.932389	0.234037
C80	C	0.780234	0.932389	0.313460
C81	C	1.014256	0.652731	0.000030
C82	C	1.093677	0.557818	0.000032
C83	C	0.780231	0.652734	0.234037
C84	C	0.780226	0.557821	0.313459
C85	C	1.014246	0.652732	0.234044
C86	C	1.093663	0.557819	0.313468
C87	C	0.546248	1.212045	-0.233997
C88	C	0.466831	1.306958	-0.313421
C89	C	0.546238	1.212045	0.000017
C90	C	0.466818	1.306958	0.000015
C91	C	0.780263	1.212043	-0.233990
C92	C	0.780269	1.306955	-0.313412
C93	C	1.085279	0.513246	-0.045672
C94	C	1.159896	0.424078	-0.045687
C95	C	1.242910	0.379477	0.000007
C96	C	1.251305	0.424057	0.045712
C97	C	1.176689	0.513230	0.045722
C98	C	0.825917	0.513249	0.396462
C99	C	0.825909	0.424082	0.471094
C100	C	0.780213	0.379482	0.462722
C101	C	0.734516	0.424063	0.379711
C102	C	0.734520	0.513235	0.305080
C103	C	1.176664	0.513246	0.305072
C104	C	1.251292	0.424078	0.379692
C105	C	1.242917	0.379478	0.462708
C106	C	1.159907	0.424059	0.471102
C107	C	1.085281	0.513232	0.396483
C108	C	0.383830	1.351541	-0.305025
C109	C	0.309203	1.440737	-0.379645
C110	C	0.317577	1.485342	-0.462661
C111	C	0.400587	1.440755	-0.471055
C112	C	0.475213	1.351567	-0.396436
C113	C	0.475215	1.351539	0.045711
C114	C	0.400598	1.440733	0.045706
C115	C	0.317585	1.485337	0.000009
C116	C	0.309189	1.440752	-0.045692
C117	C	0.383805	1.351567	-0.045692
C118	C	0.825973	1.351527	-0.305012
C119	C	0.825995	1.440695	-0.379631
C120	C	0.780308	1.485296	-0.462648
C121	C	0.734602	1.440715	-0.471046
C122	C	0.734585	1.351543	-0.396428
H123	H	0.017714	1.130552	-0.082892
N124	N	0.875265	1.303413	-0.215476
H125	H	0.833360	1.318932	-0.182472
H126	H	0.904223	1.345201	-0.221559
H127	H	0.863128	0.549553	0.403295
N128	N	0.685245	0.375939	0.370687
H129	H	0.621317	0.443960	0.337723
H130	H	0.692256	0.312664	0.430594
H131	H	0.697364	1.315262	-0.403280
H132	H	0.863213	1.476983	-0.372776
H133	H	0.241620	1.477025	-0.372793
H134	H	1.303660	0.306865	-0.000008
N135	N	1.340841	0.375937	0.095008
H136	H	1.347852	0.443959	0.071050
H137	H	1.386777	0.312661	0.088053
H138	H	0.863124	0.387795	0.538678
H139	H	1.303690	0.306867	0.523461
H140	H	1.183500	0.549546	0.237483
N141	N	0.062007	1.268633	-0.140669
H142	H	0.029007	1.273491	-0.186645
H143	H	0.068083	1.337766	-0.169573
N144	N	0.217124	1.268637	-0.140690
H145	H	0.276995	1.252061	-0.133754
H146	H	0.184125	1.316339	-0.116701
N147	N	1.185753	0.561296	0.095023
H148	H	1.249665	0.519501	0.123967
H149	H	1.156788	0.545764	0.140970
H150	H	0.376980	1.130544	-0.082907
H151	H	0.780328	1.557906	-0.523399
H152	H	0.183521	0.734231	0.082956
H153	H	0.542774	0.734248	0.082932
H154	H	0.542802	1.315229	0.082929
H155	H	0.780217	0.306872	0.523499
N156	N	0.685184	0.561367	0.215557
H157	H	0.656222	0.519596	0.221587
H158	H	0.727098	0.545883	0.182558
H159	H	0.376995	1.315229	-0.237436
H160	H	0.241590	1.477083	-0.082897
H161	H	0.341162	0.624996	0.128660
N162	N	1.340816	0.376003	0.370627
H163	H	1.334791	0.417783	0.306713
H164	H	1.373771	0.286479	0.399602
N165	N	0.685326	1.488826	-0.560588
H166	H	0.692274	1.552083	-0.606576
H167	H	0.621420	1.525774	-0.567508
N168	N	0.409617	1.488862	-0.560594
H169	H	0.380693	1.578382	-0.593591
H170	H	0.380693	1.473261	-0.593515
H171	H	0.542794	1.315268	-0.403282
H172	H	0.376956	1.315271	-0.082901
N173	N	0.995751	0.561336	-0.094960
H174	H	0.949747	0.624589	-0.088022
H175	H	0.988846	0.493220	-0.070966
N176	N	0.498471	0.596150	0.140725
H177	H	0.544471	0.612726	0.133781
H178	H	0.505379	0.548449	0.116738
N179	N	0.875246	0.705356	-0.215492
H180	H	0.851278	0.657601	-0.208496
H181	H	0.868302	0.722023	-0.169543
N182	N	0.920931	0.596136	-0.281727
H183	H	0.913995	0.612717	-0.235730
H184	H	0.984834	0.548447	-0.274817
H185	H	0.908842	0.625014	-0.439066
N186	N	1.150881	0.375948	0.560643
H187	H	1.210756	0.312691	0.606633
H188	H	1.117890	0.339001	0.567560
H189	H	0.863139	0.734236	-0.596703
H190	H	1.017701	0.549511	0.403331
H191	H	0.697335	1.130532	-0.762512
H192	H	0.651647	1.239754	-0.696276
N193	N	0.639583	1.268641	-0.563109
H194	H	0.593599	1.273519	-0.534181
H195	H	0.610692	1.337761	-0.627036
H196	H	0.407451	1.477018	0.082925
H197	H	0.256835	1.557957	0.000016
N198	N	0.237088	1.581532	-0.543143
H199	H	0.201174	1.655526	-0.543170
H200	H	0.201240	1.550382	-0.543121
N201	N	0.685283	1.159399	-0.405458
H202	H	0.621357	1.207145	-0.438416
H203	H	0.709317	1.207060	-0.438405
N204	N	1.150830	0.376007	-0.094987
H205	H	1.086917	0.417790	-0.123923
H206	H	1.179799	0.286484	-0.053034
