data_functionalizedCrystal
_audit_creation_method	'MofGen! by Chris Wilmer'
_symmetry_space_group_name_H-M	'P1'
_symmetry_Int_Tables_number	1
_symmetry_cell_setting	triclinic
loop_
_symmetry_equiv_pos_as_xyz
  x,y,z
_cell_length_a	14.044220
_cell_length_b	14.044220
_cell_length_c	13.101039
_cell_angle_alpha	93.669626
_cell_angle_beta	93.659868
_cell_angle_gamma	86.811122
loop_
_atom_site_label
_atom_site_type_symbol
_atom_site_fract_x
_atom_site_fract_y
_atom_site_fract_z
O1	O	-1.281968	0.225349	-0.085100
O2	O	-1.005298	0.217042	-0.085126
O3	O	-1.139480	0.082860	-0.085109
O4	O	-1.147786	0.359531	-0.085117
O5	O	-1.129854	0.092504	0.085320
O6	O	-0.995672	0.226686	0.085302
O7	O	-1.272342	0.234994	0.085329
Zn8	Zn	-1.132479	0.232371	0.112375
Zn9	Zn	-1.145161	0.219664	-0.112172
O10	O	-1.138160	0.369176	0.085311
C11	C	-0.964863	0.218228	0.000085
C12	C	-0.858721	0.207383	0.000075
C13	C	-1.131031	0.052060	0.000104
C14	C	-1.120187	-0.054083	0.000100
C15	C	-1.312777	0.233807	0.000115
C16	C	-1.418919	0.244652	0.000119
C17	C	-1.146609	0.399975	0.000096
C18	C	-1.157454	0.506117	0.000093
C19	C	-0.664382	0.187558	0.000096
C20	C	-0.613252	0.264472	0.000098
C21	C	-0.505115	0.253442	0.000109
C22	C	-0.772529	0.198587	0.000084
N23	N	-1.123830	0.241044	0.265622
C24	C	-1.177279	0.700456	0.000100
C25	C	-1.100365	0.751585	0.000094
C26	C	-1.111397	0.859721	0.000097
C27	C	-1.166249	0.592309	0.000096
N28	N	-1.153817	0.210984	-0.265420
C29	C	-1.112064	0.252852	0.474663
C30	C	-1.165580	0.199179	0.525546
C31	C	-1.159033	0.205749	0.641863
C32	C	-1.118610	0.246283	0.358335
H33	H	-0.650692	0.338606	0.000091
C34	C	-1.043510	0.321569	0.533815
H35	H	-1.010780	0.354373	0.486596
H36	H	-1.078944	0.366504	0.575682
H37	H	-0.998492	0.286209	0.575656
C38	C	-0.613812	0.087417	0.000092
H39	H	-0.546714	0.093047	0.000088
H40	H	-0.628404	0.057067	0.059518
H41	H	-0.635103	0.050359	-0.059353
C42	C	-1.234148	0.130470	0.466389
H43	H	-1.229629	0.135028	0.394838
H44	H	-1.217349	0.066854	0.483895
H45	H	-1.297785	0.147165	0.483925
C46	C	-1.000215	0.701019	0.000092
H47	H	-0.953408	0.747321	0.000084
H48	H	-0.989373	0.665634	0.059523
H49	H	-0.996077	0.658913	-0.059349
C50	C	-1.277419	0.751027	0.000124
H51	H	-1.271788	0.818127	0.000135
H52	H	-1.314489	0.729729	-0.059300
H53	H	-1.307754	0.736445	0.059572
