data_functionalizedCrystal
_audit_creation_method	'MofGen! by Chris Wilmer'
_symmetry_space_group_name_H-M	'P1'
_symmetry_Int_Tables_number	1
_symmetry_cell_setting	triclinic
loop_
_symmetry_equiv_pos_as_xyz
  x,y,z
_cell_length_a	17.019282
_cell_length_b	17.038272
_cell_length_c	9.130313
_cell_angle_alpha	89.995195
_cell_angle_beta	93.877700
_cell_angle_gamma	87.241387
loop_
_atom_site_label
_atom_site_type_symbol
_atom_site_fract_x
_atom_site_fract_y
_atom_site_fract_z
O1	O	1.053361	0.099546	0.011106
O2	O	0.824549	0.112259	-0.017767
O3	O	0.937595	-0.007912	-0.003491
O4	O	0.940315	0.219716	-0.003171
O5	O	0.937587	-0.007915	0.240107
O6	O	0.824540	0.112255	0.225830
O7	O	1.053353	0.099542	0.254704
Cu8	Cu	0.938946	0.105898	0.262510
Cu9	Cu	0.938956	0.105902	-0.025573
O10	O	0.940307	0.219713	0.240427
C11	C	0.795123	0.111777	0.100319
C12	C	0.707456	0.110337	0.089257
C13	C	0.935117	-0.037040	0.117996
C14	C	0.927737	-0.123826	0.117064
C15	C	0.666270	0.109657	0.216848
C16	C	0.583898	0.108291	0.206458
C17	C	0.542714	0.107612	0.068476
C18	C	0.583906	0.108290	-0.059126
C19	C	0.666276	0.109650	-0.048734
C20	C	0.294008	0.103502	0.030457
C21	C	0.211632	0.102144	0.020075
C22	C	0.211630	0.102144	0.285661
C23	C	0.294002	0.103509	0.296040
C24	C	0.335187	0.104182	0.168439
C25	C	0.458517	0.106219	0.057852
C26	C	0.419383	0.105570	0.179064
C27	C	0.995497	-0.174002	0.125616
C28	C	0.988558	-0.255546	0.124727
C29	C	0.913858	-0.286913	0.115295
C30	C	0.846093	-0.236730	0.106738
C31	C	0.853033	-0.155188	0.107618
C32	C	0.889340	-0.532648	0.112182
C33	C	0.882405	-0.614197	0.111307
C34	C	1.024871	-0.633007	0.129293
C35	C	1.031804	-0.551462	0.130180
C36	C	0.964039	-0.501287	0.121615
C37	C	0.906763	-0.370264	0.114391
C38	C	0.971135	-0.417938	0.122510
C39	C	1.082778	0.100024	0.136614
C40	C	1.170446	0.101464	0.147667
C41	C	0.942784	0.248841	0.118937
C42	C	0.950165	0.335627	0.119859
N43	N	0.938944	0.105895	0.465132
N44	N	0.938963	0.105900	-0.228195
C45	C	0.989021	0.052706	0.548108
C46	C	0.989028	0.052706	0.701446
C47	C	0.888881	0.159091	0.688818
C48	C	0.888870	0.159087	0.535482
H49	H	0.699796	0.110217	0.329209
H50	H	0.845941	-0.395812	0.106715
H51	H	0.848088	0.202401	0.467918
H52	H	0.821572	-0.639732	0.103651
Cl53	Cl	1.051968	-0.014167	0.459673
Cl54	Cl	0.159858	0.101292	-0.153402
Cl55	Cl	0.532124	0.107451	0.366867
Cl56	Cl	0.532133	0.107407	-0.232591
Cl57	Cl	1.051982	-0.014165	0.805754
Cl58	Cl	0.718054	0.110501	-0.209142
Cl59	Cl	0.159850	0.101293	0.446062
H60	H	0.848113	0.202400	0.746113
H61	H	0.327529	0.104058	0.408400
H62	H	0.327531	0.104048	-0.073445
Cl63	Cl	0.767845	-0.092109	0.096860
Cl64	Cl	0.406737	0.105330	-0.115607
Cl65	Cl	0.471159	0.106422	0.352522
Cl66	Cl	1.089410	-0.134578	0.137488
H67	H	1.043735	-0.296397	0.131694
Cl68	Cl	1.065040	-0.378504	0.134358
H69	H	1.092633	-0.525930	0.137860
H70	H	1.080041	-0.673868	0.136263
H71	H	0.834160	-0.491805	0.105208
H72	H	0.785270	-0.262276	0.099050
