data_functionalizedCrystal
_audit_creation_method	'MofGen! by Chris Wilmer'
_symmetry_space_group_name_H-M	'P1'
_symmetry_Int_Tables_number	1
_symmetry_cell_setting	triclinic
loop_
_symmetry_equiv_pos_as_xyz
  x,y,z
_cell_length_a	10.540539
_cell_length_b	11.792241
_cell_length_c	10.868271
_cell_angle_alpha	90.005281
_cell_angle_beta	89.997750
_cell_angle_gamma	95.640546
loop_
_atom_site_label
_atom_site_type_symbol
_atom_site_fract_x
_atom_site_fract_y
_atom_site_fract_z
O1	O	1.685366	-0.159957	-0.102265
O2	O	1.315904	-0.175028	-0.102280
O3	O	1.509601	-0.002345	-0.102263
O4	O	1.491669	-0.332639	-0.102281
O5	O	1.509585	-0.002338	0.102381
O6	O	1.315888	-0.175021	0.102365
O7	O	1.685350	-0.159950	0.102380
Zn8	Zn	1.500616	-0.167484	0.134864
Zn9	Zn	1.500637	-0.167493	-0.134764
O10	O	1.491653	-0.332632	0.102363
C11	C	1.268596	-0.173894	0.000040
C12	C	1.127659	-0.170513	0.000035
C13	C	0.944655	-0.040941	0.000520
C14	C	1.091262	-0.044369	0.000045
C15	C	1.065798	-0.231222	-0.116826
C16	C	0.919268	-0.226917	-0.116911
C17	C	0.918753	-0.229475	0.115808
C18	C	1.065731	-0.230637	0.117340
C19	C	1.508466	0.039952	0.000058
C20	C	1.505095	0.165975	0.000057
C21	C	1.732657	-0.161083	0.000057
C22	C	1.873594	-0.164465	0.000054
C23	C	1.492787	-0.374930	0.000039
C24	C	1.496159	-0.500952	0.000032
N25	N	1.500611	-0.167477	0.318878
C26	C	1.498896	0.396703	0.000036
C27	C	1.502340	0.268309	0.000048
N28	N	1.500653	-0.167491	-0.318778
C29	C	1.500631	-0.167491	0.569884
C30	C	1.500616	-0.167487	0.430207
H31	H	0.887333	-0.188649	0.204388
H32	H	0.914616	0.008679	-0.082816
H33	H	1.089657	-0.322604	0.124391
C34	C	1.147884	0.020603	-0.113317
C35	C	1.246194	0.124975	-0.096477
C36	C	1.302814	0.189950	-0.209847
C37	C	1.261124	0.150552	-0.340056
C38	C	1.162808	0.046174	-0.356901
C39	C	1.106189	-0.018801	-0.243532
H40	H	1.277061	0.154145	-0.000084
H41	H	1.375594	0.267218	-0.197376
H42	H	1.303037	0.198650	-0.423979
H43	H	1.131942	0.017005	-0.453295
H44	H	1.033409	-0.096068	-0.256002
H45	H	0.891210	-0.182053	-0.204261
C46	C	0.854553	-0.352561	0.116878
C47	C	0.761612	-0.393933	0.013284
C48	C	0.697406	-0.517013	0.014342
C49	C	0.726142	-0.598722	0.118994
C50	C	0.819088	-0.557353	0.222596
C51	C	0.883294	-0.434272	0.221538
H52	H	0.740336	-0.333446	-0.064193
H53	H	0.628602	-0.547638	-0.062352
H54	H	0.678614	-0.689834	0.119777
H55	H	0.840364	-0.617840	0.300073
H56	H	0.952098	-0.403648	0.298232
C57	C	1.095588	-0.356368	-0.122719
C58	C	1.234892	-0.384923	-0.129087
C59	C	1.264683	-0.510069	-0.134976
C60	C	1.155170	-0.606659	-0.134496
C61	C	1.015856	-0.578105	-0.128127
C62	C	0.986065	-0.452960	-0.122239
H63	H	1.315968	-0.313419	-0.129443
H64	H	1.367813	-0.531205	-0.139690
H65	H	1.177223	-0.699299	-0.138855
H66	H	0.934780	-0.649609	-0.127772
H67	H	0.882936	-0.431824	-0.117524
C68	C	1.149037	0.020175	0.113207
C69	C	1.224608	-0.042312	0.208753
C70	C	1.282374	0.022242	0.321916
C71	C	1.264568	0.149283	0.339532
C72	C	1.188993	0.211777	0.243983
C73	C	1.131228	0.147223	0.130820
H74	H	1.237792	-0.136362	0.195715
H75	H	1.338319	-0.024021	0.392648
H76	H	1.307329	0.197070	0.423302
H77	H	1.175809	0.305826	0.257021
H78	H	1.075282	0.193486	0.060088
C79	C	0.906227	0.026390	0.113730
C80	C	0.931058	-0.017485	0.244127
C81	C	0.892614	0.049846	0.357340
C82	C	0.829338	0.161052	0.340156
C83	C	0.804504	0.204933	0.209754
C84	C	0.842948	0.137602	0.096541
H85	H	0.977902	-0.099812	0.256852
H86	H	0.910998	0.017362	0.453872
H87	H	0.800879	0.210895	0.423963
H88	H	0.757661	0.287260	0.197028
H89	H	0.824564	0.170086	0.000009
H90	H	0.871004	-0.317637	-0.122220
C91	C	1.121821	-0.170841	0.233973
C92	C	1.192928	-0.238187	0.328782
C93	C	1.249311	-0.178448	0.445333
C94	C	1.234587	-0.051364	0.467076
C95	C	1.163477	0.015988	0.372264
C96	C	1.107095	-0.043750	0.255713
H97	H	1.203830	-0.332268	0.312690
H98	H	1.301951	-0.228308	0.515519
H99	H	1.276325	-0.007142	0.553354
H100	H	1.152575	0.110070	0.388357
H101	H	1.054454	0.006110	0.185527
H102	H	1.108531	-0.189055	-0.203792
