data_functionalizedCrystal
_audit_creation_method	'MofGen! by Chris Wilmer'
_symmetry_space_group_name_H-M	'P1'
_symmetry_Int_Tables_number	1
_symmetry_cell_setting	triclinic
loop_
_symmetry_equiv_pos_as_xyz
  x,y,z
_cell_length_a	10.654549
_cell_length_b	10.540558
_cell_length_c	9.130307
_cell_angle_alpha	89.996505
_cell_angle_beta	89.997449
_cell_angle_gamma	95.489984
loop_
_atom_site_label
_atom_site_type_symbol
_atom_site_fract_x
_atom_site_fract_y
_atom_site_fract_z
O1	O	1.667908	-0.178327	-0.121811
O2	O	1.302437	-0.195307	-0.121804
O3	O	1.493498	-0.002109	-0.121823
O4	O	1.476847	-0.371525	-0.121792
O5	O	1.493492	-0.002107	0.121776
O6	O	1.302431	-0.195306	0.121795
O7	O	1.667902	-0.178325	0.121788
Cu8	Cu	1.485166	-0.186815	0.144034
Cu9	Cu	1.485173	-0.186817	-0.144050
O10	O	1.476840	-0.371523	0.121807
C11	C	1.255636	-0.194058	-0.000004
C12	C	1.116191	-0.190324	-0.000002
C13	C	0.826300	-0.414335	-0.000024
C14	C	0.877886	-0.531603	-0.000008
C15	C	1.008906	-0.535116	0.000011
C16	C	1.088343	-0.421348	0.000010
C17	C	1.036757	-0.304080	-0.000006
C18	C	0.905733	-0.300579	-0.000021
C19	C	1.064605	-0.073056	-0.000018
C20	C	0.933586	-0.069540	-0.000027
C21	C	1.144043	0.040712	-0.000019
C22	C	1.092457	0.157984	-0.000024
C23	C	0.961429	0.161492	-0.000042
C24	C	0.882000	0.047728	-0.000043
C25	C	1.492241	0.045194	-0.000031
C26	C	1.488491	0.186140	-0.000052
C27	C	1.345107	0.369516	-0.000613
C28	C	1.348910	0.222900	-0.000051
C29	C	1.555654	0.247821	0.139049
C30	C	1.550881	0.394362	0.139152
C31	C	1.553727	0.394879	-0.137866
C32	C	1.555022	0.247899	-0.139691
C33	C	1.714703	-0.179574	-0.000015
C34	C	1.854148	-0.183308	-0.000026
N35	N	1.485170	-0.186813	0.346657
C36	C	1.478081	0.581172	-0.000012
C37	C	1.481782	0.440220	-0.000071
N38	N	1.485179	-0.186810	-0.346673
C39	C	1.654424	-0.015786	0.346630
C40	C	1.739060	0.069724	0.423283
C41	C	1.739072	0.069725	0.576617
C42	C	1.654437	-0.015791	0.653300
C43	C	1.569802	-0.101301	0.576647
C44	C	1.569801	-0.101295	0.423310
C45	C	1.400543	-0.272319	0.576674
C46	C	1.400535	-0.272328	0.423341
C47	C	1.315909	-0.357835	0.653358
C48	C	1.231277	-0.443353	0.576705
C49	C	1.231269	-0.443351	0.423362
C50	C	1.315899	-0.357838	0.346688
H51	H	1.250725	0.037844	-0.000010
C52	C	1.065660	-0.664104	0.000025
H53	H	1.155067	-0.649895	0.000026
H54	H	1.038457	-0.711000	0.084969
H55	H	1.038483	-0.710986	-0.084938
C56	C	1.832154	0.163785	0.338937
H57	H	1.882552	0.214717	0.406551
H58	H	1.884833	0.117623	0.279115
H59	H	1.786498	0.217067	0.279127
H60	H	1.654540	0.442139	-0.138807
H61	H	1.508553	0.426416	-0.243302
C62	C	1.138170	-0.537416	0.339055
H63	H	1.087779	-0.588345	0.406690
H64	H	1.085485	-0.491256	0.279237
H65	H	1.183820	-0.590700	0.279244
H66	H	1.295686	0.181127	0.099837
H67	H	0.719616	-0.411486	-0.000015
H68	H	1.654433	-0.015788	0.221778
H69	H	1.807985	0.139358	0.639028
H70	H	1.654443	-0.015774	0.778153
H71	H	1.162368	-0.512968	0.639150
H72	H	0.775315	0.050574	-0.000045
C73	C	1.277500	0.165313	-0.134737
H74	H	1.245896	0.231519	-0.190287
H75	H	1.333229	0.121932	-0.193594
H76	H	1.209292	0.106975	-0.103414
C77	C	1.692511	0.215269	-0.151027
H78	H	1.730344	0.253801	-0.236324
H79	H	1.738001	0.246434	-0.066903
H80	H	1.694012	0.125440	-0.156861
H81	H	1.289971	0.398096	-0.100371
H82	H	1.157145	0.250604	-0.000035
H83	H	1.315917	-0.357825	0.778210
H84	H	0.813194	-0.624231	-0.000012
H85	H	1.315905	-0.357833	0.221835
C86	C	1.686473	0.459222	0.147708
H87	H	1.684477	0.549138	0.147825
H88	H	1.725385	0.433715	0.235114
H89	H	1.733203	0.434838	0.065450
H90	H	1.195025	-0.424219	0.000009
H91	H	1.290190	0.399705	0.098582
C92	C	0.904694	0.290490	-0.000060
H93	H	0.970772	0.357734	-0.000048
H94	H	0.854170	0.296664	-0.085012
H95	H	0.854157	0.296662	0.084896
H96	H	1.501234	0.422546	0.243135
C97	C	1.694124	0.217666	0.146053
H98	H	1.712246	0.167065	0.064014
H99	H	1.747878	0.294943	0.144757
H100	H	1.707665	0.172360	0.233706
H101	H	1.508994	0.205206	0.242572
H102	H	1.505879	0.207024	-0.242594
