data_functionalizedCrystal
_audit_creation_method	'MofGen! by Chris Wilmer'
_symmetry_space_group_name_H-M	'P1'
_symmetry_Int_Tables_number	1
_symmetry_cell_setting	triclinic
loop_
_symmetry_equiv_pos_as_xyz
  x,y,z
_cell_length_a	14.971491
_cell_length_b	13.448316
_cell_length_c	14.971506
_cell_angle_alpha	90.007960
_cell_angle_beta	96.380688
_cell_angle_gamma	90.000269
loop_
_atom_site_label
_atom_site_type_symbol
_atom_site_fract_x
_atom_site_fract_y
_atom_site_fract_z
O1	O	-1.186941	0.082733	0.116590
O2	O	-0.853608	0.416066	0.449923
O3	O	-0.520274	0.749399	0.783256
O4	O	-0.926543	0.082725	0.130544
O5	O	-0.593209	0.416058	0.463877
O6	O	-0.259876	0.749392	0.797210
O7	O	-1.063712	0.082725	-0.006632
O8	O	-0.730378	0.416058	0.326701
O9	O	-0.397045	0.749391	0.660035
O10	O	-1.049772	0.082733	0.253765
O11	O	-0.716438	0.416066	0.587099
O12	O	-0.383105	0.749400	0.920432
O13	O	-1.063718	-0.082659	-0.006649
O14	O	-0.730385	0.250674	0.326685
O15	O	-0.397052	0.584007	0.660018
O16	O	-0.926549	-0.082659	0.130527
O17	O	-0.593216	0.250675	0.463860
O18	O	-0.259883	0.584008	0.797194
O19	O	-1.186948	-0.082651	0.116573
O20	O	-0.853614	0.250682	0.449906
O21	O	-0.520281	0.584015	0.783240
Cu22	Cu	-1.056749	-0.097756	0.123548
Cu23	Cu	-0.723416	0.235577	0.456882
Cu24	Cu	-0.390082	0.568911	0.790215
Cu25	Cu	-1.056741	0.097830	0.123568
Cu26	Cu	-0.723408	0.431163	0.456902
Cu27	Cu	-0.390074	0.764496	0.790235
O28	O	-1.049779	-0.082651	0.253749
O29	O	-0.716445	0.250683	0.587082
O30	O	-0.383112	0.584016	0.920415
C31	C	-0.893221	0.000032	0.129910
C32	C	-0.559888	0.333365	0.463244
C33	C	-0.226555	0.666699	0.796577
C34	C	-0.793924	0.000029	0.128038
C35	C	-0.460591	0.333363	0.461371
C36	C	-0.127258	0.666696	0.794705
C37	C	-1.063088	0.000034	-0.039965
C38	C	-0.729755	0.333367	0.293369
C39	C	-0.396422	0.666700	0.626702
C40	C	-1.061210	0.000036	-0.139261
C41	C	-0.727877	0.333370	0.194072
C42	C	-0.394544	0.666703	0.527406
C43	C	-1.220269	0.000044	0.117206
C44	C	-0.886936	0.333377	0.450540
C45	C	-0.553602	0.666710	0.783873
C46	C	-1.319566	0.000053	0.119079
C47	C	-0.986233	0.333387	0.452412
C48	C	-0.652899	0.666720	0.785745
C49	C	-0.366214	0.090203	0.119967
C50	C	-0.032881	0.423536	0.453300
C51	C	0.300452	0.756869	0.786634
C52	C	-0.459515	0.090199	0.121724
C53	C	-0.126181	0.423532	0.455057
C54	C	0.207152	0.756866	0.788390
C55	C	-0.506164	0.000045	0.122599
C56	C	-0.172831	0.333378	0.455932
C57	C	0.160502	0.666711	0.789265
C58	C	-0.459510	-0.090112	0.121708
C59	C	-0.126176	0.243222	0.455041
C60	C	0.207157	0.576555	0.788374
C61	C	-0.366212	-0.090107	0.119945
C62	C	-0.032879	0.243227	0.453278
C63	C	0.300455	0.576560	0.786611
C64	C	-0.653972	-0.090115	0.125385
C65	C	-0.320638	0.243218	0.458718
C66	C	0.012695	0.576552	0.792052
C67	C	-0.747276	-0.090120	0.127150
C68	C	-0.413942	0.243213	0.460483
C69	C	-0.080609	0.576546	0.793816
C70	C	-0.747275	0.090191	0.127164
C71	C	-0.413941	0.423524	0.460497
C72	C	-0.080608	0.756857	0.793830
C73	C	-0.653977	0.090195	0.125401
C74	C	-0.320643	0.423529	0.458734
C75	C	0.012690	0.756862	0.792067
C76	C	-0.607328	0.000039	0.124512
C77	C	-0.273995	0.333372	0.457845
C78	C	0.059338	0.666705	0.791178
N79	N	-1.056761	-0.235320	0.123534
N80	N	-0.723428	0.098013	0.456867
N81	N	-0.390094	0.431346	0.790201
N82	N	-1.056736	0.235394	0.123576
N83	N	-0.723403	0.568727	0.456909
N84	N	-0.390069	0.902061	0.790242
C85	C	-1.110951	0.712643	0.177991
C86	C	-0.777617	1.045977	0.511324
C87	C	-0.444284	1.379310	0.844657
C88	C	-1.110950	0.608540	0.177995
C89	C	-0.777617	0.941873	0.511329
C90	C	-0.444284	1.275207	0.844662
C91	C	-1.056755	0.556475	0.123548
C92	C	-0.723422	0.889809	0.456881
C93	C	-0.390089	1.223142	0.790214
C94	C	-1.002564	0.608519	0.069085
C95	C	-0.669230	0.941852	0.402418
C96	C	-0.335897	1.275186	0.735751
C97	C	-1.002569	0.712620	0.069076
C98	C	-0.669236	1.045954	0.402409
C99	C	-0.335903	1.379287	0.735742
C100	C	-1.002554	0.391539	0.069109
C101	C	-0.669221	0.724872	0.402442
C102	C	-0.335887	1.058206	0.735776
C103	C	-1.002547	0.287430	0.069119
C104	C	-0.669213	0.620764	0.402452
C105	C	-0.335880	0.954097	0.735786
C106	C	-1.110935	0.287459	0.178029
C107	C	-0.777602	0.620792	0.511362
C108	C	-0.444268	0.954125	0.844695
C109	C	-1.110941	0.391560	0.178020
C110	C	-0.777607	0.724893	0.511353
C111	C	-0.444274	1.058227	0.844686
C112	C	-1.056748	0.443597	0.123558
C113	C	-0.723414	0.776930	0.456891
C114	C	-0.390081	1.110263	0.790224
C115	C	-1.050402	0.000042	0.287081
C116	C	-0.717068	0.333376	0.620415
C117	C	-0.383735	0.666709	0.953748
C118	C	-1.052280	0.000046	0.386378
C119	C	-0.718946	0.333379	0.719711
C120	C	-0.385613	0.666713	1.053044
C121	C	-0.978862	0.000033	0.824659
C122	C	-0.645528	0.333366	1.157992
C123	C	-0.312195	0.666699	1.491325
C124	C	-0.977104	0.000029	0.731359
C125	C	-0.643771	0.333362	1.064692
C126	C	-0.310438	0.666695	1.398025
C127	C	-1.057696	0.000035	0.674140
C128	C	-0.724363	0.333369	1.007473
C129	C	-0.391030	0.666702	1.340807
C130	C	-1.140052	0.000036	0.710226
C131	C	-0.806718	0.333369	1.043559
C132	C	-0.473385	0.666703	1.376893
C133	C	-1.141808	0.000033	0.803525
C134	C	-0.808475	0.333366	1.136858
C135	C	-0.475141	0.666700	1.470191
C136	C	-1.136385	0.000045	0.515763
C137	C	-0.803051	0.333378	0.849096
C138	C	-0.469718	0.666711	1.182430
C139	C	-1.134628	0.000050	0.422458
C140	C	-0.801295	0.333383	0.755791
C141	C	-0.467962	0.666716	1.089125
C142	C	-0.971681	0.000040	0.443597
C143	C	-0.638348	0.333374	0.776930
C144	C	-0.305014	0.666707	1.110263
C145	C	-0.973437	0.000037	0.536895
C146	C	-0.640104	0.333371	0.870229
C147	C	-0.306771	0.666704	1.203562
C148	C	-1.055793	0.000040	0.572975
C149	C	-0.722459	0.333373	0.906308
C150	C	-0.389126	0.666707	1.239642
H151	H	-0.328238	0.163617	0.119261
H152	H	0.005095	0.496950	0.452594
H153	H	0.338428	0.830283	0.785927
F154	F	-1.168603	0.446969	0.235986
F155	F	-0.835270	0.780303	0.569320
F156	F	-0.501937	1.113636	0.902653
F157	F	-0.509158	0.186148	0.122665
F158	F	-0.175825	0.519482	0.455998
F159	F	0.157509	0.852815	0.789331
H160	H	-0.958425	0.433904	0.024759
H161	H	-0.625092	0.767237	0.358092
H162	H	-0.291759	1.100571	0.691426
F163	F	-1.220403	0.000059	0.361563
F164	F	-0.887070	0.333392	0.694897
F165	F	-0.553737	0.666725	1.028230
F166	F	-0.893083	0.000032	0.885547
F167	F	-0.559750	0.333365	1.218881
F168	F	-0.226416	0.666699	1.552214
H169	H	-0.907812	0.000040	0.583481
H170	H	-0.574479	0.333373	0.916814
H171	H	-0.241145	0.666706	1.250148
H172	H	-0.910048	0.000033	0.701987
H173	H	-0.576715	0.333366	1.035320
H174	H	-0.243381	0.666700	1.368654
H175	H	-0.958441	0.566120	0.024748
H176	H	-0.625108	0.899453	0.358081
H177	H	-0.291775	1.232786	0.691415
H178	H	-0.958442	0.754987	0.024732
H179	H	-0.625109	1.088321	0.358065
H180	H	-0.291776	1.421654	0.691398
F181	F	-0.884032	0.000033	0.405198
F182	F	-0.550698	0.333366	0.738531
F183	F	-0.217365	0.666699	1.071864
H184	H	-1.155078	0.566176	0.222338
H185	H	-0.821745	0.899510	0.555671
H186	H	-0.488412	1.232843	0.889005
F187	F	-0.604330	0.186147	0.124477
F188	F	-0.270996	0.519481	0.457810
F189	F	0.062337	0.852814	0.791144
H190	H	-1.203447	0.000042	0.545135
H191	H	-0.870114	0.333375	0.878468
H192	H	-0.536780	0.666709	1.211802
F193	F	-1.225824	0.000032	0.649328
F194	F	-0.892491	0.333366	0.982661
F195	F	-0.559157	0.666699	1.315994
H196	H	-0.785260	0.163600	0.127889
H197	H	-0.451927	0.496933	0.461222
H198	H	-0.118593	0.830266	0.794556
F199	F	-1.229455	0.000029	0.841923
F200	F	-0.896121	0.333362	1.175256
F201	F	-0.562788	0.666695	1.508590
F202	F	-0.604328	-0.186071	0.124429
F203	F	-0.270995	0.147263	0.457762
F204	F	0.062338	0.480596	0.791096
F205	F	-0.796923	-0.186072	0.128076
F206	F	-0.463589	0.147261	0.461409
F207	F	-0.130256	0.480595	0.794743
F208	F	-0.944870	0.232021	0.011166
F209	F	-0.611537	0.565355	0.344499
F210	F	-0.278204	0.898688	0.677832
H211	H	-0.497500	-0.163517	0.122415
H212	H	-0.164167	0.169817	0.455748
H213	H	0.169167	0.503150	0.789081
H214	H	-0.328231	-0.163516	0.119231
H215	H	0.005103	0.169818	0.452564
H216	H	0.338436	0.503151	0.785898
F217	F	-1.168632	0.768045	0.235944
F218	F	-0.835298	1.101379	0.569278
F219	F	-0.501965	1.434712	0.902611
H220	H	-1.155057	0.245085	0.222377
H221	H	-0.821724	0.578419	0.555710
H222	H	-0.488391	0.911752	0.889044
