data_functionalizedCrystal
_audit_creation_method	'MofGen! by Chris Wilmer'
_symmetry_space_group_name_H-M	'P1'
_symmetry_Int_Tables_number	1
_symmetry_cell_setting	triclinic
loop_
_symmetry_equiv_pos_as_xyz
  x,y,z
_cell_length_a	23.532407
_cell_length_b	10.654550
_cell_length_c	9.130313
_cell_angle_alpha	89.998585
_cell_angle_beta	89.996922
_cell_angle_gamma	96.333176
loop_
_atom_site_label
_atom_site_type_symbol
_atom_site_fract_x
_atom_site_fract_y
_atom_site_fract_z
O1	O	0.756249	-0.152437	0.121704
O2	O	0.590529	-0.174493	0.121726
O3	O	0.677199	0.019395	0.121709
O4	O	0.669579	-0.346325	0.121721
O5	O	0.677199	0.019395	-0.121890
O6	O	0.590529	-0.174493	-0.121873
O7	O	0.756249	-0.152437	-0.121895
Cu8	Cu	0.673389	-0.163465	-0.144126
Cu9	Cu	0.673389	-0.163465	0.143957
O10	O	0.669579	-0.346325	-0.121878
C11	C	0.569309	-0.173931	-0.000070
C12	C	0.506081	-0.172243	-0.000062
C13	C	0.239121	-0.050540	-0.000105
C14	C	0.298532	-0.052108	-0.000105
O15	O	0.334647	0.044437	-0.000159
N16	N	0.321909	-0.167375	-0.000091
C17	C	0.285872	-0.281080	-0.000093
O18	O	0.311211	-0.379267	-0.000083
C19	C	0.226463	-0.279510	-0.000104
C20	C	0.203089	-0.164236	-0.000103
C21	C	0.215747	0.064725	-0.000106
C22	C	0.156340	0.066293	-0.000104
C23	C	0.120308	-0.047403	-0.000101
C24	C	0.143683	-0.162668	-0.000100
C25	C	0.190427	-0.393214	-0.000116
C26	C	0.131014	-0.391634	-0.000128
C27	C	0.107641	-0.276360	-0.000127
C28	C	0.048244	-0.274796	-0.000095
N29	N	0.024867	-0.159530	-0.000109
C30	C	0.060899	-0.045833	-0.000112
C31	C	0.410636	-0.284368	-0.000073
C32	C	0.470044	-0.285940	-0.000051
C33	C	0.482700	-0.056967	-0.000066
C34	C	0.423290	-0.055397	-0.000077
C35	C	0.387259	-0.169102	-0.000086
C36	C	-0.063859	-0.042549	-0.000106
C37	C	-0.123271	-0.040991	-0.000097
C38	C	-0.135922	-0.269962	-0.000090
C39	C	-0.076515	-0.271521	-0.000091
C40	C	-0.040484	-0.157804	-0.000104
O41	O	0.012094	-0.371291	-0.000047
O42	O	0.035551	0.052338	-0.000141
C43	C	0.676640	0.066175	-0.000089
C44	C	0.674966	0.205566	-0.000083
C45	C	0.777469	-0.152998	-0.000095
C46	C	0.840697	-0.154687	-0.000095
N47	N	0.673393	-0.163464	-0.346749
C48	C	0.670138	-0.393105	-0.000077
C49	C	0.671812	-0.532495	-0.000073
C50	C	0.725996	0.286668	-0.000095
C51	C	0.724419	0.417639	-0.000084
C52	C	0.620779	0.386392	-0.000057
C53	C	0.622355	0.255424	-0.000057
C54	C	0.785832	0.304709	-0.000117
C55	C	0.784255	0.435680	-0.000106
C56	C	0.708227	-0.239232	-0.576767
C57	C	0.708228	-0.239240	-0.423430
C58	C	0.638552	-0.087685	-0.423413
C59	C	0.638548	-0.087684	-0.576747
C60	C	0.748456	-0.326727	-0.576776
C61	C	0.748457	-0.326736	-0.423439
N62	N	0.673389	-0.163455	0.346580
H63	H	0.209447	-0.487082	-0.000110
H64	H	0.489069	-0.379807	-0.000032
H65	H	0.791341	-0.285892	-0.624349
O66	O	0.567313	0.167957	-0.000035
H67	H	0.565552	0.107548	0.099260
H68	H	-0.034530	0.050051	-0.000115
H69	H	0.137315	0.160161	-0.000109
O70	O	-0.051303	-0.395852	-0.000090
H71	H	-0.024540	-0.402056	0.099195
H72	H	0.512048	0.035610	-0.000068
O73	O	0.254604	0.187368	-0.000116
H74	H	0.281971	0.192138	0.099171
H75	H	0.610185	-0.025996	-0.360967
O76	O	0.092150	-0.514274	-0.000130
H77	H	0.118389	-0.594685	-0.000118
H78	H	0.734432	-0.426211	-0.618381
O79	O	0.564037	0.440169	-0.000034
H80	H	0.539489	0.407535	-0.099312
H81	H	0.404264	0.038469	-0.000077
O82	O	-0.148478	0.083350	-0.000102
H83	H	-0.195843	0.065349	-0.000087
H84	H	0.730541	-0.421877	-0.375877
O85	O	0.807941	-0.283882	-0.368323
H86	H	0.807903	-0.283903	-0.246756
O87	O	0.816824	0.266781	0.134911
H88	H	0.830742	0.352078	0.201027
O89	O	0.811079	0.258300	-0.139425
H90	H	0.823191	0.339612	-0.213281
H91	H	0.802339	0.481896	0.105071
H92	H	0.381302	-0.376966	-0.000069
H93	H	-0.165269	-0.362531	-0.000081
O94	O	0.600991	-0.005916	-0.659430
H95	H	0.576778	0.046796	-0.580350
O96	O	0.814114	0.491974	-0.135134
H97	H	0.792141	0.450605	-0.234346
