data_functionalizedCrystal
_audit_creation_method	'MofGen! by Chris Wilmer'
_symmetry_space_group_name_H-M	'P1'
_symmetry_Int_Tables_number	1
_symmetry_cell_setting	triclinic
loop_
_symmetry_equiv_pos_as_xyz
  x,y,z
_cell_length_a	11.169417
_cell_length_b	10.686203
_cell_length_c	11.169409
_cell_angle_alpha	85.602654
_cell_angle_beta	90.019824
_cell_angle_gamma	94.364530
loop_
_atom_site_label
_atom_site_type_symbol
_atom_site_fract_x
_atom_site_fract_y
_atom_site_fract_z
Zn1	Zn	1.871610	0.502220	0.641984
Zn2	Zn	1.886899	0.713272	0.425938
Zn3	Zn	1.670901	0.502297	0.441313
Zn4	Zn	1.686296	0.713169	0.626590
O5	O	1.778927	0.607740	0.533956
O6	O	2.041588	0.530227	0.613333
O7	O	1.858203	0.685361	0.260022
O8	O	1.684684	0.325709	0.480810
O9	O	2.052822	0.685286	0.454605
O10	O	1.832143	0.325653	0.628242
O11	O	1.699510	0.530358	0.271318
O12	O	1.504993	0.530259	0.465883
O13	O	1.710922	0.685111	0.796588
O14	O	1.516303	0.685186	0.602005
O15	O	1.847071	0.530128	0.807898
O16	O	1.873131	0.889836	0.439678
O17	O	1.725748	0.889760	0.587096
C18	C	1.467100	0.607720	0.533942
C19	C	1.333702	0.607743	0.533963
C20	C	1.802802	0.935582	0.510074
C21	C	1.813126	1.075835	0.499898
C22	C	2.091970	0.607760	0.533971
C23	C	2.225371	0.607768	0.533977
C24	C	1.779008	0.607599	0.847009
C25	C	1.779043	0.607540	0.980414
C26	C	1.754979	1.278617	0.557971
C27	C	1.744744	1.138364	0.568236
C28	C	1.778907	0.607788	0.222128
C29	C	1.779079	0.607492	0.088750
H30	H	1.678303	1.084602	0.634531
H31	H	1.879563	1.129605	0.433591
