data_functionalizedCrystal
_audit_creation_method	'MofGen! by Chris Wilmer'
_symmetry_space_group_name_H-M	'P1'
_symmetry_Int_Tables_number	1
_symmetry_cell_setting	triclinic
loop_
_symmetry_equiv_pos_as_xyz
  x,y,z
_cell_length_a	19.805407
_cell_length_b	12.645330
_cell_length_c	19.805399
_cell_angle_alpha	90.023856
_cell_angle_beta	90.019573
_cell_angle_gamma	90.012646
loop_
_atom_site_label
_atom_site_type_symbol
_atom_site_fract_x
_atom_site_fract_y
_atom_site_fract_z
Zn1	Zn	1.034800	-0.422064	0.382737
Zn2	Zn	1.034742	-0.599342	0.269556
Zn3	Zn	0.921615	-0.422093	0.269562
Zn4	Zn	0.921606	-0.599286	0.382703
O5	O	0.978191	-0.510696	0.326140
O6	O	1.129509	-0.445592	0.367735
O7	O	1.019715	-0.575865	0.174840
O8	O	0.936657	-0.273742	0.284591
O9	O	1.129467	-0.575837	0.284582
O10	O	1.019814	-0.273721	0.367741
O11	O	0.936601	-0.445641	0.174844
O12	O	0.826897	-0.445587	0.284558
O13	O	0.936642	-0.575741	0.477424
O14	O	0.826890	-0.575769	0.367683
O15	O	1.019805	-0.445537	0.477449
O16	O	1.019706	-0.747682	0.284549
O17	O	0.936585	-0.747640	0.367677
C18	C	0.802335	-0.510676	0.326118
C19	C	0.727103	-0.510693	0.326124
C20	C	0.691773	-0.578581	0.369337
C21	C	0.621084	-0.578583	0.369347
C22	C	0.585727	-0.510701	0.326140
C23	C	0.621062	-0.442805	0.282925
C24	C	0.691749	-0.442799	0.282919
C25	C	0.335989	-0.442829	0.282947
C26	C	0.265297	-0.442843	0.282955
C27	C	0.265324	-0.578613	0.369375
C28	C	0.336011	-0.578606	0.369369
C29	C	0.371340	-0.510707	0.326157
C30	C	0.447988	-0.510705	0.326148
C31	C	0.509080	-0.510708	0.326145
C32	C	0.978157	-0.786126	0.326124
C33	C	0.978204	-0.903956	0.326139
C34	C	1.030412	-1.071502	0.273737
C35	C	1.030582	-0.948942	0.273865
C36	C	0.997546	-0.948344	0.397486
C37	C	0.997960	-1.070942	0.397208
C38	C	0.906635	-1.071282	0.307898
C39	C	0.906978	-0.948677	0.306298
C40	C	1.154734	-0.510717	0.326162
C41	C	1.229966	-0.510726	0.326171
C42	C	0.978229	-0.510629	0.502682
C43	C	0.978245	-0.510601	0.577914
C44	C	0.978243	-0.234191	0.326170
C45	C	0.978266	-0.116361	0.326184
C46	C	0.978192	-0.510686	0.150284
C47	C	0.978307	-0.510416	0.075052
C48	C	1.021549	-0.442800	0.613273
C49	C	1.021556	-0.442770	0.683961
C50	C	0.978262	-0.510546	0.719290
C51	C	0.934953	-0.578349	0.683927
C52	C	0.934943	-0.578374	0.613240
C53	C	0.934991	-0.578250	0.969000
C54	C	0.935006	-0.578223	1.039692
C55	C	1.021604	-0.442646	1.039722
C56	C	1.021594	-0.442671	0.969035
C57	C	0.978283	-0.510470	0.933678
C58	C	0.978275	-0.510501	0.857029
C59	C	0.978273	-0.510521	0.795937
H60	H	0.236511	-0.387559	0.247770
Cl61	Cl	0.576673	-0.663932	0.423674
H62	H	0.720556	-0.633862	0.404519
Cl63	Cl	0.846648	-1.116075	0.366871
H64	H	0.364796	-0.633886	0.404551
Cl65	Cl	1.075983	-0.357596	0.568866
H66	H	0.961642	-1.100613	0.437631
Cl67	Cl	0.220906	-0.663972	0.423700
Cl68	Cl	0.843754	-0.901420	0.360950
Cl69	Cl	0.380393	-0.357467	0.228625
Cl70	Cl	0.880573	-0.663433	1.084105
H71	H	1.056868	-0.387437	1.068518
H72	H	0.720514	-0.387512	0.247734
H73	H	0.899734	-0.633472	0.940221
H74	H	0.899699	-0.633530	0.712697
H75	H	1.083182	-1.102233	0.285697
Cl76	Cl	0.576613	-0.357461	0.228611
Cl77	Cl	1.011856	-0.902607	0.192198
Cl78	Cl	0.884456	-0.903895	0.225236
H79	H	0.899673	-0.633573	0.584452
Cl80	Cl	1.011970	-1.117128	0.191818
Cl81	Cl	1.112493	-0.903532	0.292544
Cl82	Cl	1.078797	-1.114970	0.421120
Cl83	Cl	0.940688	-0.903366	0.459436
H84	H	1.049313	-0.917557	0.413233
H85	H	1.056821	-0.387562	0.712747
Cl86	Cl	0.879478	-1.119150	0.228972
Cl87	Cl	1.076026	-0.357466	0.924625
