data_functionalizedCrystal
_audit_creation_method	'MofGen! by Chris Wilmer'
_symmetry_space_group_name_H-M	'P1'
_symmetry_Int_Tables_number	1
_symmetry_cell_setting	triclinic
loop_
_symmetry_equiv_pos_as_xyz
  x,y,z
_cell_length_a	16.625548
_cell_length_b	16.120484
_cell_length_c	16.625539
_cell_angle_alpha	92.868615
_cell_angle_beta	89.979432
_cell_angle_gamma	92.926626
loop_
_atom_site_label
_atom_site_type_symbol
_atom_site_fract_x
_atom_site_fract_y
_atom_site_fract_z
Zn1	Zn	1.216388	-0.331882	-0.472167
Zn2	Zn	1.716388	0.168118	0.027833
Zn3	Zn	1.209447	-0.471307	-0.344164
Zn4	Zn	1.709447	0.028693	0.155836
Zn5	Zn	1.081548	-0.331914	-0.337349
Zn6	Zn	1.581548	0.168086	0.162651
Zn7	Zn	1.074678	-0.471259	-0.478951
Zn8	Zn	1.574678	0.028741	0.021049
O9	O	1.145515	-0.401591	-0.408158
O10	O	1.645515	0.098409	0.091842
O11	O	1.328299	-0.350384	-0.455200
O12	O	1.828299	0.149616	0.044800
O13	O	1.192451	-0.452849	-0.230429
O14	O	1.692451	0.047151	0.269571
O15	O	1.105215	-0.215244	-0.349541
O16	O	1.605215	0.284756	0.150459
O17	O	1.323200	-0.452819	-0.361156
O18	O	1.823200	0.047181	0.138844
O19	O	1.204281	-0.215221	-0.448592
O20	O	1.704281	0.284779	0.051408
O21	O	1.098484	-0.350438	-0.225422
O22	O	1.598484	0.149562	0.274578
O23	O	0.967805	-0.350392	-0.356120
O24	O	1.467805	0.149608	0.143880
O25	O	1.093506	-0.452737	-0.590882
O26	O	1.593506	0.047263	-0.090882
O27	O	0.962757	-0.452768	-0.460155
O28	O	1.462757	0.047232	0.039845
O29	O	1.197620	-0.350338	-0.585898
O30	O	1.697620	0.149662	-0.085898
O31	O	1.185789	-0.587966	-0.367735
O32	O	1.685789	-0.087966	0.132265
O33	O	1.086775	-0.587931	-0.466763
O34	O	1.586775	-0.087931	0.033237
C35	C	0.936025	-0.401579	-0.408135
C36	C	1.436025	0.098421	0.091865
C37	C	0.846403	-0.401594	-0.408145
C38	C	1.346403	0.098406	0.091855
C39	C	1.134805	-0.618199	-0.418742
C40	C	1.634805	-0.118199	0.081258
C41	C	1.130297	-0.710865	-0.423297
C42	C	1.630297	-0.210865	0.076703
C43	C	0.518227	-0.401599	-0.408180
C44	C	1.018227	0.098401	0.091820
C45	C	0.609536	-0.401595	-0.408167
C46	C	1.109536	0.098405	0.091833
C47	C	0.682312	-0.401597	-0.408162
C48	C	1.182312	0.098403	0.091838
C49	C	0.773627	-0.401592	-0.408150
C50	C	1.273627	0.098408	0.091850
C51	C	1.122072	-0.880527	-0.431630
C52	C	1.622072	-0.380527	0.068370
C53	C	1.169103	-0.921814	-0.384698
C54	C	1.669103	-0.421814	0.115302
C55	C	1.164526	-1.016220	-0.389335
C56	C	1.664526	-0.516220	0.110665
C57	C	1.126648	-0.786113	-0.426995
C58	C	1.626648	-0.286113	0.073005
C59	C	1.355823	-0.401603	-0.408181
C60	C	1.855823	0.098397	0.091819
C61	C	1.445444	-0.401609	-0.408192
C62	C	1.945444	0.098391	0.091808
C63	C	1.145571	-0.401529	-0.618464
C64	C	1.645571	0.098471	-0.118464
C65	C	1.145594	-0.401502	-0.708084
C66	C	1.645594	0.098498	-0.208084
C67	C	1.156289	-0.184136	-0.397549
C68	C	1.656289	0.315864	0.102451
C69	C	1.160880	-0.091470	-0.393029
C70	C	1.660880	0.408530	0.106971
C71	C	1.145636	-0.401409	-1.036255
C72	C	1.645636	0.098591	-0.536255
C73	C	1.145622	-0.401437	-0.944948
C74	C	1.645622	0.098563	-0.444948
C75	C	1.145616	-0.401456	-0.872172
C76	C	1.645616	0.098544	-0.372172
C77	C	1.145601	-0.401483	-0.780859
C78	C	1.645601	0.098517	-0.280859
C79	C	1.145509	-0.401592	-0.198667
C80	C	1.645509	0.098408	0.301333
C81	C	1.145653	-0.401384	-0.109036
C82	C	1.645653	0.098616	0.390964
H83	H	1.212805	-0.886260	-0.341036
H84	H	1.712805	-0.386260	0.158964
F85	F	1.064952	-0.926995	-0.488695
F86	F	1.564952	-0.426995	0.011305
