data_functionalizedCrystal
_audit_creation_method	'MofGen! by Chris Wilmer'
_symmetry_space_group_name_H-M	'P1'
_symmetry_Int_Tables_number	1
_symmetry_cell_setting	triclinic
loop_
_symmetry_equiv_pos_as_xyz
  x,y,z
_cell_length_a	10.723024
_cell_length_b	10.967961
_cell_length_c	9.798715
_cell_angle_alpha	77.870321
_cell_angle_beta	89.996609
_cell_angle_gamma	84.592105
loop_
_atom_site_label
_atom_site_type_symbol
_atom_site_fract_x
_atom_site_fract_y
_atom_site_fract_z
O1	O	1.657191	0.175023	-0.154637
O2	O	1.294039	0.191776	-0.158581
O3	O	1.483988	0.001825	-0.113905
O4	O	1.467242	0.364974	-0.199313
O5	O	1.483974	0.001824	0.113078
O6	O	1.294024	0.191776	0.068401
O7	O	1.657176	0.175022	0.072345
Zn8	Zn	1.475598	0.183399	0.106412
Zn9	Zn	1.475617	0.183400	-0.192647
O10	O	1.467227	0.364974	0.027669
C11	C	1.247532	0.190557	-0.044804
C12	C	1.108978	0.186909	-0.043948
C13	C	1.482761	-0.044675	0.010520
C14	C	1.479110	-0.183228	0.043097
C15	C	1.033997	0.293196	-0.068946
C16	C	0.890794	0.289428	-0.068062
C17	C	1.473723	-0.388200	-0.026291
C18	C	1.477492	-0.244998	-0.059971
C19	C	1.703683	0.176242	-0.041435
C20	C	1.842238	0.179890	-0.042300
C21	C	1.468454	0.411473	-0.096758
C22	C	1.472105	0.550026	-0.129345
N23	N	1.475594	0.183398	0.310512
N24	N	1.475630	0.183391	-0.396745
C25	C	1.555349	0.103291	0.397130
C26	C	1.555369	0.103287	0.554293
H27	H	0.826363	0.380418	-0.089468
O28	O	1.083735	0.405162	-0.095460
C29	C	1.043590	0.473439	-0.229092
H30	H	0.952965	0.438788	-0.260139
H31	H	1.118784	0.459528	-0.308134
C32	C	1.131886	0.656181	-0.188221
C33	C	1.020574	0.613629	-0.226348
H34	H	1.117694	0.742658	-0.186531
H35	H	1.158938	0.610181	-0.098192
H36	H	1.194538	0.644578	-0.254095
H37	H	0.957930	0.625219	-0.160465
H38	H	0.993511	0.659635	-0.316366
O39	O	1.473720	-0.386788	-0.264429
C40	C	1.471518	-0.472033	-0.353709
H41	H	1.429635	-0.560048	-0.296867
H42	H	1.571098	-0.498064	-0.385648
C43	C	1.442615	-0.302989	-0.554686
C44	C	1.391164	-0.411087	-0.484876
H45	H	1.393054	-0.265395	-0.635600
H46	H	1.444104	-0.245557	-0.494539
H47	H	1.525597	-0.324697	-0.581289
H48	H	1.308190	-0.389376	-0.458259
H49	H	1.389660	-0.468514	-0.545022
O50	O	1.636648	0.021468	0.346626
C51	C	1.568891	-0.055875	0.282161
H52	H	1.471733	-0.006834	0.249411
H53	H	1.559481	-0.148219	0.358815
C54	C	1.758162	-0.142100	0.192659
C55	C	1.638835	-0.081862	0.152425
H56	H	1.801308	-0.158135	0.112635
H57	H	1.803813	-0.089996	0.236094
H58	H	1.750303	-0.219046	0.256539
H59	H	1.646695	-0.004911	0.088560
H60	H	1.593187	-0.133953	0.108976
O61	O	1.636775	0.021290	0.642954
C62	C	1.615083	-0.102364	0.637251
H63	H	1.567050	-0.102602	0.533535
H64	H	1.552450	-0.141265	0.726802
C65	C	1.799878	-0.184277	0.777542
C66	C	1.740892	-0.184570	0.650151
H67	H	1.877480	-0.234988	0.785506
H68	H	1.814490	-0.100969	0.781390
H69	H	1.747670	-0.216691	0.852154
H70	H	1.793092	-0.152142	0.575542
H71	H	1.726291	-0.267875	0.646291
H72	H	1.407350	0.251982	0.528846
O73	O	0.919213	0.071411	-0.016970
C74	C	0.995328	0.066680	-0.133431
H75	H	1.002638	0.165808	-0.195938
H76	H	0.952097	0.009259	-0.202243
C77	C	1.118020	-0.116578	-0.006486
C78	C	1.127006	0.005174	-0.083252
H79	H	1.199243	-0.154523	0.024464
H80	H	1.066737	-0.113394	0.071975
H81	H	1.081989	-0.164413	-0.063841
H82	H	1.163022	0.053011	-0.025892
H83	H	1.178298	0.001997	-0.161702
O84	O	1.059154	0.074987	-0.017386
C85	C	1.099356	0.006681	0.116215
H86	H	1.127098	0.074018	0.182546
H87	H	1.183511	-0.062236	0.105844
C88	C	0.958042	-0.148503	0.105094
C89	C	0.992105	-0.065797	0.186566
H90	H	0.891888	-0.193217	0.148488
H91	H	0.930960	-0.102488	0.015082
H92	H	1.028180	-0.205922	0.096457
H93	H	0.921972	-0.008371	0.195187
H94	H	1.019173	-0.111806	0.276582
H95	H	1.472312	-0.441330	0.086871
O96	O	1.394027	0.265261	0.360615
C97	C	1.319889	0.339768	0.249558
H98	H	1.317801	0.288704	0.159673
H99	H	1.361453	0.432716	0.212548
C100	C	1.188145	0.427290	0.410059
C101	C	1.185572	0.364569	0.299665
H102	H	1.105293	0.442595	0.440966
H103	H	1.238095	0.377098	0.484880
H104	H	1.222787	0.504740	0.379201
H105	H	1.150945	0.287114	0.330528
H106	H	1.135612	0.414749	0.224849
O107	O	1.478932	-0.181676	-0.195021
C108	C	1.370223	-0.200247	-0.265965
H109	H	1.293877	-0.226880	-0.187336
H110	H	1.392632	-0.278723	-0.324746
C111	C	1.418104	-0.045833	-0.466844
C112	C	1.324331	-0.078534	-0.370272
H113	H	1.389798	0.029242	-0.531191
H114	H	1.491346	-0.033324	-0.419051
H115	H	1.436770	-0.111240	-0.515814
H116	H	1.305678	-0.013135	-0.321292
H117	H	1.251084	-0.091030	-0.418060
H118	H	1.477697	-0.236350	0.156267
