data_functionalizedCrystal
_audit_creation_method	'MofGen! by Chris Wilmer'
_symmetry_space_group_name_H-M	'P1'
_symmetry_Int_Tables_number	1
_symmetry_cell_setting	triclinic
loop_
_symmetry_equiv_pos_as_xyz
  x,y,z
_cell_length_a	16.992694
_cell_length_b	13.339070
_cell_length_c	16.053802
_cell_angle_alpha	93.267614
_cell_angle_beta	87.249047
_cell_angle_gamma	103.148759
loop_
_atom_site_label
_atom_site_type_symbol
_atom_site_fract_x
_atom_site_fract_y
_atom_site_fract_z
O1	O	1.090314	0.214289	-0.069315
O2	O	0.861508	0.211892	-0.069340
O3	O	0.949651	0.063704	-0.069328
O4	O	1.002170	0.362477	-0.069327
O5	O	0.944792	0.071825	0.069530
O6	O	0.856649	0.220013	0.069518
O7	O	1.085454	0.222410	0.069543
Zn8	Zn	0.970280	0.222501	0.091577
Zn9	Zn	0.976682	0.211801	-0.091374
O10	O	0.997311	0.370598	0.069531
C11	C	0.829196	0.212871	0.000086
C12	C	0.740151	0.203676	0.000076
C13	C	0.709211	0.292389	0.000077
C14	C	0.625543	0.283745	0.000089
C15	C	0.572817	0.186385	0.000093
C16	C	0.603763	0.097665	0.000095
C17	C	0.687429	0.106311	0.000090
C18	C	0.321423	0.150552	0.000116
C19	C	0.237752	0.141912	0.000119
C20	C	0.259538	0.327993	0.000114
C21	C	0.343205	0.336630	0.000103
C22	C	0.374143	0.247910	0.000109
N23	N	0.487295	0.177547	0.000103
N24	N	0.459663	0.256750	0.000106
C25	C	0.938350	0.029358	0.000099
C26	C	0.911906	-0.085082	0.000093
C27	C	1.117519	-0.433251	0.000116
C28	C	1.142367	-0.325729	0.000126
C29	C	1.084754	-0.265562	0.000118
C30	C	1.002289	-0.312928	0.000099
C31	C	0.977439	-0.420460	0.000095
C32	C	0.944673	-0.252771	0.000097
C33	C	0.862209	-0.300136	0.000078
C34	C	0.837363	-0.407658	0.000074
C35	C	0.894976	-0.467825	0.000082
C36	C	0.969524	-0.145239	0.000101
C37	C	0.829443	-0.132447	0.000080
C38	C	0.804596	-0.239970	0.000070
C39	C	1.117767	0.221431	0.000115
C40	C	1.206811	0.230626	0.000120
C41	C	1.008612	0.404944	0.000102
C42	C	1.035056	0.519384	0.000103
N43	N	0.965916	0.229803	0.216437
N44	N	0.981051	0.204492	-0.216234
C45	C	1.003445	0.166774	0.260136
C46	C	1.000402	0.171892	0.347543
C47	C	0.959834	0.240045	0.391248
C48	C	0.922300	0.303076	0.347543
C49	C	0.925339	0.297952	0.260138
C50	C	0.946555	0.262399	0.652656
C51	C	0.943522	0.267520	0.740067
C52	C	1.021623	0.136334	0.740060
C53	C	1.024662	0.131221	0.652654
C54	C	0.987124	0.194248	0.608956
N55	N	0.956725	0.245281	0.480592
N56	N	0.990229	0.189006	0.519615
H57	H	0.752136	0.371670	0.000073
H58	H	1.104990	-0.178013	0.000126
N59	N	1.231303	-0.274642	0.000150
H60	H	1.264030	-0.329071	0.000154
H61	H	1.246470	-0.233313	-0.051322
N62	N	1.179652	-0.498140	0.000140
H63	H	1.151394	-0.573443	0.000139
H64	H	1.216388	-0.485157	-0.051329
N65	N	0.767292	-0.067573	0.000065
H66	H	0.730546	-0.080480	0.051536
H67	H	0.795603	0.007706	0.000036
N68	N	0.720797	0.010622	0.000086
H69	H	0.756820	0.007048	-0.051389
H70	H	0.753189	0.013132	0.051595
H71	H	1.036484	0.111281	0.224557
N72	N	1.040915	0.103949	0.394676
H73	H	1.067092	0.060015	0.353726
H74	H	1.083512	0.148418	0.430917
N75	N	0.878548	0.376584	0.394686
H76	H	0.904166	0.449526	0.379465
H77	H	0.819850	0.359122	0.379470
N78	N	0.592168	0.379434	0.000184
H79	H	0.638264	0.442423	0.000206
H80	H	0.559691	0.376963	-0.051258
H81	H	0.346602	0.078309	0.000121
N82	N	0.748423	-0.458758	0.000057
H83	H	0.733191	-0.500077	0.051530
H84	H	0.715749	-0.404279	0.000019
N85	N	1.068418	0.057714	0.605516
H86	H	1.091731	0.018560	0.646463
H87	H	1.029217	0.007572	0.569258
H88	H	1.052183	0.085019	0.775647
N89	N	0.715654	-0.291064	0.000066
H90	H	0.682923	-0.236640	0.000062
H91	H	0.704097	-0.338408	-0.051412
H92	H	0.386130	0.415909	0.000090
N93	N	1.058462	-0.094161	0.000123
H94	H	1.086562	-0.118679	-0.051348
H95	H	1.065396	-0.016926	0.000158
N96	N	0.884856	0.365927	0.213001
H97	H	0.858695	0.409880	0.253950
H98	H	0.926575	0.411819	0.176725
H99	H	0.910485	0.323023	0.775648
H100	H	0.234339	0.400223	0.000111
N101	N	0.906065	0.330369	0.605531
H102	H	0.879906	0.374320	0.646484
H103	H	0.947780	0.376263	0.569253
N104	N	0.180871	0.036904	0.000127
H105	H	0.192460	-0.005287	-0.051345
H106	H	0.188893	0.000831	0.051639
N107	N	0.546898	-0.007345	0.000113
H108	H	0.489200	0.000637	0.000117
H109	H	0.558558	-0.049480	-0.051360
N110	N	0.868173	-0.583799	0.000069
H111	H	0.917186	-0.614722	0.000073
H112	H	0.832871	-0.604098	0.051542
