data_functionalizedCrystal
_audit_creation_method	'MofGen! by Chris Wilmer'
_symmetry_space_group_name_H-M	'P1'
_symmetry_Int_Tables_number	1
_symmetry_cell_setting	triclinic
loop_
_symmetry_equiv_pos_as_xyz
  x,y,z
_cell_length_a	15.698487
_cell_length_b	12.970454
_cell_length_c	15.698487
_cell_angle_alpha	60.000258
_cell_angle_beta	90.002598
_cell_angle_gamma	60.000052
loop_
_atom_site_label
_atom_site_type_symbol
_atom_site_fract_x
_atom_site_fract_y
_atom_site_fract_z
Zr1	Zr	0.820630	1.128491	-0.111751
O2	O	0.684608	1.343588	-0.247773
O3	O	0.862327	0.913399	-0.070054
O4	O	0.862322	1.128493	-0.247768
O5	O	0.684618	1.128489	0.070125
O6	O	1.002507	1.128489	-0.247762
O7	O	0.684613	1.128493	-0.070059
O8	O	1.002516	0.743725	0.070134
O9	O	0.684608	1.513254	-0.247771
O10	O	0.984729	1.001864	-0.052266
O11	O	0.880115	1.001864	0.052348
O12	O	0.880109	1.255110	-0.156886
O13	O	0.775494	1.255110	-0.052272
Zr14	Zr	1.044215	1.128478	0.111835
Zr15	Zr	1.044208	1.128484	-0.111743
Zr16	Zr	0.820637	1.128484	0.111827
Zr17	Zr	0.820631	1.399088	-0.111749
Zr18	Zr	1.044214	0.857880	0.111833
O19	O	1.002518	1.343569	0.070138
O20	O	1.002507	1.343578	-0.247761
O21	O	0.684618	1.343578	0.070127
O22	O	1.180237	0.913381	0.247857
O23	O	1.180226	0.913390	-0.070043
O24	O	0.862338	0.913390	0.247845
O25	O	1.180227	1.128479	-0.070041
O26	O	1.002523	1.128475	0.247852
O27	O	0.862338	1.128479	0.247846
O28	O	1.180232	1.128475	0.070143
O29	O	0.862323	1.513248	-0.247765
O30	O	1.002522	0.743720	0.247849
O31	O	1.180236	0.743715	0.247855
O32	O	1.180231	0.743720	0.070141
O33	O	0.684614	1.513248	-0.070057
O34	O	0.862329	1.513243	-0.070050
O35	O	0.984736	1.001858	0.156970
O36	O	1.089351	1.001858	0.052356
O37	O	0.984730	1.255104	-0.052264
O38	O	0.880115	1.255104	0.052350
C39	C	0.932421	0.790008	0.000040
C40	C	0.932421	0.675132	0.000039
C41	C	0.652760	1.128492	0.000032
C42	C	0.557846	1.128495	0.000028
C43	C	0.480764	1.128499	0.000030
C44	C	0.384066	1.128491	0.000042
C45	C	1.212085	1.128476	0.000052
C46	C	1.306999	1.128473	0.000056
C47	C	0.932413	1.128492	-0.279620
C48	C	0.932410	1.128495	-0.374535
C49	C	0.932423	1.466961	0.000044
C50	C	0.932424	1.581836	0.000045
C51	C	0.932434	1.128470	-0.548299
C52	C	0.932423	1.128478	-0.451602
C53	C	0.932432	1.128476	0.279704
C54	C	0.932435	1.128473	0.374619
C55	C	1.212084	0.790000	0.000050
C56	C	1.306998	0.675121	0.000052
C57	C	0.932431	0.790000	0.279702
C58	C	0.932433	0.675121	0.374616
C59	C	1.212093	0.789992	0.279712
C60	C	1.307010	0.675110	0.374629
C61	C	0.652752	1.466977	-0.279628
C62	C	0.557835	1.581858	-0.374545
C63	C	0.652761	1.466969	0.000034
C64	C	0.557847	1.581847	0.000032
C65	C	0.932414	1.466969	-0.279618
C66	C	0.932411	1.581847	-0.374532
C67	C	1.296959	0.621176	-0.054567
C68	C	1.386133	0.513251	-0.054586
C69	C	1.485344	0.459264	0.000022
C70	C	1.495381	0.513220	0.054644
C71	C	1.406208	0.621151	0.054655
C72	C	0.987046	0.621170	0.473809
C73	C	0.987045	0.513244	0.562999
C74	C	0.932436	0.459265	0.552994
C75	C	0.877817	0.513227	0.453790
C76	C	0.877813	0.621158	0.364602
C77	C	1.406202	0.621161	0.364596
C78	C	1.495395	0.513233	0.453772
C79	C	1.485395	0.459249	0.552981
C80	C	1.386193	0.513209	0.563013
C81	C	1.297002	0.621142	0.473837
C82	C	0.458643	1.635821	-0.364512
C83	C	0.369450	1.743782	-0.453688
C84	C	0.379450	1.797772	-0.552897
C85	C	0.478652	1.743805	-0.562929
C86	C	0.567843	1.635853	-0.473753
C87	C	0.567886	1.635804	0.054642
C88	C	0.478712	1.743759	0.054636
C89	C	0.379501	1.797749	0.000025
C90	C	0.369464	1.743788	-0.054593
C91	C	0.458637	1.635842	-0.054592
C92	C	0.987031	1.635793	-0.364493
C93	C	0.987048	1.743719	-0.453666
C94	C	0.932440	1.797705	-0.552877
C95	C	0.877819	1.743749	-0.562914
C96	C	0.877808	1.635818	-0.473742
H97	H	1.216185	0.665131	-0.099048
H98	H	1.414396	0.665059	0.099139
H99	H	0.833359	1.787722	-0.643704
C100	C	0.932462	0.340523	0.651114
N101	N	0.932491	0.251080	0.725023
H102	H	1.576162	0.469309	0.445586
H103	H	0.833326	1.591907	-0.481930
C104	C	1.417227	0.680531	0.255474
N105	N	1.425541	0.725250	0.173286
C106	C	1.047132	1.803057	-0.442602
N107	N	1.092386	1.847749	-0.434265
C108	C	1.375069	0.453906	-0.114665
N109	N	1.366733	0.409208	-0.159914
C110	C	1.583427	0.340527	0.000007
N111	N	1.657300	0.251088	-0.000004
H112	H	0.450481	1.591868	-0.283739
H113	H	0.306899	1.885645	0.000032
C114	C	0.932461	1.916436	-0.650960
N115	N	0.932478	2.005867	-0.724832
C116	C	0.817757	0.453825	0.442801
N117	N	0.772526	0.409074	0.434528
H118	H	1.558029	0.371362	0.625585
C119	C	1.375211	0.453799	0.672152
N120	N	1.366942	0.409039	0.754359
C121	C	0.676952	1.576489	-0.484808
N122	N	0.759132	1.531778	-0.493142
C123	C	0.817744	0.680477	0.255491
N124	N	0.772498	0.725148	0.173309
C125	C	1.187893	0.680472	0.484892
N126	N	1.105713	0.725156	0.493226
H127	H	1.576170	0.469249	0.099103
C128	C	0.281326	1.916512	-0.650983
N129	N	0.207415	2.005941	-0.724858
C130	C	0.260338	1.803124	-0.442630
N131	N	0.178157	1.847817	-0.434299
H132	H	0.648660	1.591853	0.099120
H133	H	0.486781	1.787778	-0.643715
H134	H	0.486904	1.787676	0.099115
H135	H	1.031515	0.665108	0.481976
H136	H	0.288675	1.787763	-0.099055
C137	C	0.447577	1.576485	-0.114658
N138	N	0.439238	1.531781	-0.159900
C139	C	1.047115	1.576420	-0.255368
N140	N	1.092380	1.531700	-0.173178
C141	C	1.047144	0.453892	0.672114
N142	N	1.092415	0.409188	0.754296
