data_functionalizedCrystal
_audit_creation_method	'MofGen! by Chris Wilmer'
_symmetry_space_group_name_H-M	'P1'
_symmetry_Int_Tables_number	1
_symmetry_cell_setting	triclinic
loop_
_symmetry_equiv_pos_as_xyz
  x,y,z
_cell_length_a	21.395362
_cell_length_b	25.639239
_cell_length_c	21.395356
_cell_angle_alpha	89.971496
_cell_angle_beta	89.957023
_cell_angle_gamma	90.054564
loop_
_atom_site_label
_atom_site_type_symbol
_atom_site_fract_x
_atom_site_fract_y
_atom_site_fract_z
Zn1	Zn	0.957819	-0.207942	-0.354582
Zn2	Zn	1.291152	0.125391	-0.021249
Zn3	Zn	1.624486	0.458724	0.312085
Zn4	Zn	0.957709	-0.295376	-0.249803
Zn5	Zn	1.291042	0.037957	0.083530
Zn6	Zn	1.624375	0.371291	0.416864
Zn7	Zn	0.853036	-0.207981	-0.249783
Zn8	Zn	1.186369	0.125353	0.083550
Zn9	Zn	1.519702	0.458686	0.416883
Zn10	Zn	0.852988	-0.295373	-0.354508
Zn11	Zn	1.186322	0.037960	-0.021174
Zn12	Zn	1.519655	0.371294	0.312159
O13	O	0.905388	-0.251668	-0.302169
O14	O	1.238721	0.081665	0.031164
O15	O	1.572055	0.414999	0.364498
O16	O	1.045482	-0.219526	-0.340722
O17	O	1.378815	0.113807	-0.007389
O18	O	1.712149	0.447141	0.325944
O19	O	0.943797	-0.283800	-0.162122
O20	O	1.277130	0.049533	0.171211
O21	O	1.610464	0.382866	0.504544
O22	O	0.867001	-0.134810	-0.263708
O23	O	1.200335	0.198523	0.069625
O24	O	1.533668	0.531856	0.402959
O25	O	1.045401	-0.283763	-0.263742
O26	O	1.378734	0.049570	0.069592
O27	O	1.712068	0.382903	0.402925
O28	O	0.943985	-0.134782	-0.340703
O29	O	1.277318	0.198551	-0.007370
O30	O	1.610652	0.531884	0.325964
O31	O	0.866894	-0.219591	-0.162108
O32	O	1.200228	0.113742	0.171225
O33	O	1.533561	0.447075	0.504559
O34	O	0.765351	-0.219588	-0.263636
O35	O	1.098685	0.113745	0.069697
O36	O	1.432018	0.447078	0.403031
O37	O	0.866921	-0.283758	-0.442196
O38	O	1.200254	0.049576	-0.108862
O39	O	1.533588	0.382909	0.224471
O40	O	0.765317	-0.283795	-0.340576
O41	O	1.098650	0.049538	-0.007243
O42	O	1.431983	0.382872	0.326090
O43	O	0.943939	-0.219523	-0.442250
O44	O	1.277273	0.113810	-0.108917
O45	O	1.610606	0.447144	0.224417
O46	O	0.943751	-0.368541	-0.263669
O47	O	1.277085	-0.035208	0.069664
O48	O	1.610418	0.298126	0.402997
O49	O	0.866814	-0.368539	-0.340596
O50	O	1.200147	-0.035205	-0.007262
O51	O	1.533481	0.298128	0.326071
C52	C	0.742600	-0.251696	-0.302096
C53	C	1.075933	0.081638	0.031237
C54	C	1.409267	0.414971	0.364570
C55	C	0.672959	-0.251720	-0.302080
C56	C	1.006292	0.081613	0.031253
C57	C	1.339626	0.414947	0.364587
C58	C	0.640244	-0.285197	-0.342083
C59	C	0.973577	0.048136	-0.008750
C60	C	1.306911	0.381470	0.324584
C61	C	0.574809	-0.285184	-0.342111
C62	C	0.908142	0.048149	-0.008778
C63	C	1.241475	0.381483	0.324556
C64	C	0.542091	-0.251700	-0.302125
C65	C	0.875424	0.081633	0.031209
C66	C	1.208757	0.414967	0.364542
C67	C	0.574813	-0.218217	-0.262119
C68	C	0.908147	0.115117	0.071214
C69	C	1.241480	0.448450	0.404548
C70	C	0.640247	-0.218227	-0.262097
C71	C	0.973581	0.115106	0.071237
C72	C	1.306914	0.448440	0.404570
C73	C	0.438368	-0.247496	-0.245720
C74	C	0.771701	0.085838	0.087614
C75	C	1.105034	0.419171	0.420947
C76	C	0.372935	-0.247489	-0.245741
C77	C	0.706268	0.085844	0.087593
C78	C	1.039601	0.419178	0.420926
C79	C	0.340270	-0.251666	-0.302194
C80	C	0.673603	0.081667	0.031139
C81	C	1.006937	0.415001	0.364473
C82	C	0.373046	-0.255860	-0.358627
C83	C	0.706380	0.077473	-0.025294
C84	C	1.039713	0.410807	0.308039
C85	C	0.438480	-0.255870	-0.358605
C86	C	0.771814	0.077463	-0.025272
C87	C	1.105147	0.410797	0.308062
C88	C	0.471138	-0.251685	-0.302145
C89	C	0.804472	0.081648	0.031189
C90	C	1.137805	0.414982	0.364522
C91	C	0.236603	-0.285130	-0.342231
C92	C	0.569936	0.048203	-0.008897
C93	C	0.903269	0.381536	0.324436
C94	C	0.171166	-0.285114	-0.342260
C95	C	0.504499	0.048219	-0.008926
C96	C	0.837833	0.381553	0.324407
C97	C	0.171172	-0.218149	-0.262262
C98	C	0.504505	0.115184	0.071071
C99	C	0.837839	0.448517	0.404405
C100	C	0.236607	-0.218163	-0.262239
C101	C	0.569941	0.115170	0.071095
C102	C	0.903274	0.448503	0.404428
C103	C	0.269319	-0.251657	-0.302222
C104	C	0.602652	0.081677	0.031111
C105	C	0.935985	0.415010	0.364445
C106	C	0.905282	-0.387511	-0.302140
C107	C	1.238616	-0.054177	0.031193
C108	C	1.571949	0.279156	0.364526
C109	C	0.905295	-0.445625	-0.302149
C110	C	1.238628	-0.112291	0.031184
C111	C	1.571961	0.221042	0.364518
C112	C	0.945554	-0.805976	-0.262182
C113	C	1.278887	-0.472643	0.071151
C114	C	1.612220	-0.139310	0.404485
C115	C	0.945578	-0.860581	-0.262190
C116	C	1.278911	-0.527247	0.071143
C117	C	1.612245	-0.193914	0.404476
O118	O	0.979698	-0.888808	-0.228177
O119	O	1.313032	-0.555474	0.105156
O120	O	1.646365	-0.222141	0.438489
N121	N	0.905498	-0.887907	-0.302211
N122	N	1.238831	-0.554574	0.031123
N123	N	1.572165	-0.221240	0.364456
C124	C	0.865396	-0.860626	-0.342230
C125	C	1.198729	-0.527293	-0.008896
C126	C	1.532062	-0.193960	0.324437
O127	O	0.831307	-0.888884	-0.376271
O128	O	1.164640	-0.555550	-0.042938
O129	O	1.497974	-0.222217	0.290396
C130	C	0.865375	-0.806023	-0.342224
C131	C	1.198708	-0.472690	-0.008891
C132	C	1.532042	-0.139356	0.324443
C133	C	0.905453	-0.778699	-0.302196
C134	C	1.238786	-0.445366	0.031137
C135	C	1.572120	-0.112033	0.364470
C136	C	0.985629	-0.778653	-0.222158
C137	C	1.318962	-0.445319	0.111175
C138	C	1.652296	-0.111986	0.444508
C139	C	0.985604	-0.724052	-0.222149
C140	C	1.318937	-0.390719	0.111184
C141	C	1.652270	-0.057385	0.444517
C142	C	0.945503	-0.696775	-0.262164
C143	C	1.278837	-0.363442	0.071170
C144	C	1.612170	-0.030109	0.404503
C145	C	0.905428	-0.724099	-0.302187
C146	C	1.238761	-0.390766	0.031146
C147	C	1.572094	-0.057432	0.364479
C148	C	0.825276	-0.778743	-0.382246
C149	C	1.158609	-0.445410	-0.048912
C150	C	1.491943	-0.112077	0.284421
C151	C	0.825259	-0.724136	-0.382237
C152	C	1.158593	-0.390803	-0.048903
C153	C	1.491926	-0.057470	0.284430
C154	C	0.865337	-0.696813	-0.342209
C155	C	1.198671	-0.363479	-0.008876
C156	C	1.532004	-0.030146	0.324457
C157	C	0.865302	-0.642222	-0.342193
C158	C	1.198635	-0.308888	-0.008860
C159	C	1.531969	0.024445	0.324474
N160	N	0.905382	-0.614895	-0.302173
N161	N	1.238715	-0.281562	0.031161
N162	N	1.572049	0.051772	0.364494
C163	C	0.945483	-0.642172	-0.262158
C164	C	1.278816	-0.308839	0.071175
C165	C	1.612149	0.024495	0.404509
C166	C	0.865443	-0.975297	-0.342239
C167	C	1.198776	-0.641964	-0.008906
C168	C	1.532109	-0.308630	0.324427
C169	C	0.865460	-1.029899	-0.342242
C170	C	1.198793	-0.696566	-0.008909
C171	C	1.532126	-0.363233	0.324424
C172	C	0.945643	-1.029850	-0.262204
C173	C	1.278977	-0.696516	0.071130
C174	C	1.612310	-0.363183	0.404463
C175	C	0.945623	-0.975246	-0.262198
C176	C	1.278956	-0.641913	0.071135
C177	C	1.612289	-0.308580	0.404469
C178	C	0.905523	-0.947971	-0.302219
C179	C	1.238856	-0.614637	0.031114
C180	C	1.572189	-0.281304	0.364448
C181	C	0.945426	-0.527507	-0.262142
C182	C	1.278759	-0.194174	0.071192
C183	C	1.612093	0.139160	0.404525
C184	C	0.945395	-0.472902	-0.262134
C185	C	1.278729	-0.139568	0.071199
C186	C	1.612062	0.193765	0.404532
C187	C	0.865215	-0.472956	-0.342175
C188	C	1.198548	-0.139623	-0.008842
C189	C	1.531881	0.193711	0.324492
C190	C	0.865243	-0.527556	-0.342180
C191	C	1.198576	-0.194223	-0.008847
C192	C	1.531909	0.139110	0.324486
C193	C	0.905353	-0.554831	-0.302162
C194	C	1.238687	-0.221497	0.031172
C195	C	1.572020	0.111836	0.364505
O196	O	0.831201	-0.613960	-0.376190
O197	O	1.164534	-0.280626	-0.042857
O198	O	1.497867	0.052707	0.290476
O199	O	0.979571	-0.613908	-0.228128
O200	O	1.312904	-0.280575	0.105205
O201	O	1.646238	0.052759	0.438539
C202	C	1.068811	-0.251641	-0.302242
C203	C	1.402145	0.081693	0.031091
C204	C	1.735478	0.415026	0.364424
C205	C	1.138452	-0.251629	-0.302274
C206	C	1.471786	0.081704	0.031060
C207	C	1.805119	0.415038	0.364393
C208	C	0.905437	-0.251636	-0.465592
C209	C	1.238770	0.081698	-0.132259
C210	C	1.572104	0.415031	0.201074
C211	C	0.905458	-0.251622	-0.535234
C212	C	1.238791	0.081712	-0.201900
C213	C	1.572125	0.415045	0.131433
C214	C	0.905511	-0.115295	-0.302212
C215	C	1.238844	0.218038	0.031122
C216	C	1.572177	0.551372	0.364455
C217	C	0.905563	-0.057181	-0.302230
C218	C	1.238896	0.276152	0.031104
C219	C	1.572230	0.609486	0.364437
C220	C	0.865426	-0.218184	-0.567929
C221	C	1.198759	0.115149	-0.234596
C222	C	1.532092	0.448482	0.098737
C223	C	0.865423	-0.218175	-0.633365
C224	C	1.198757	0.115159	-0.300032
C225	C	1.532090	0.448492	0.033302
C226	C	0.905465	-0.251597	-0.666102
C227	C	1.238798	0.081736	-0.332769
C228	C	1.572132	0.415070	0.000565
C229	C	0.945500	-0.285041	-0.633398
C230	C	1.278834	0.048292	-0.300065
C231	C	1.612167	0.381626	0.033268
C232	C	0.945497	-0.285053	-0.567964
C233	C	1.278830	0.048280	-0.234631
C234	C	1.612164	0.381613	0.098702
C235	C	0.961916	-0.255694	-0.769807
C236	C	1.295250	0.077639	-0.436474
C237	C	1.628583	0.410972	-0.103141
C238	C	0.961921	-0.255678	-0.835240
C239	C	1.295254	0.077655	-0.501907
C240	C	1.628588	0.410988	-0.168574
C241	C	0.905475	-0.251562	-0.867923
C242	C	1.238809	0.081772	-0.534590
C243	C	1.572142	0.415105	-0.201256
C244	C	0.849024	-0.247450	-0.835164
C245	C	1.182357	0.085883	-0.501831
C246	C	1.515690	0.419217	-0.168498
C247	C	0.849020	-0.247462	-0.769730
C248	C	1.182354	0.085871	-0.436397
C249	C	1.515687	0.419204	-0.103064
C250	C	0.905473	-0.251587	-0.737054
C251	C	1.238806	0.081746	-0.403721
C252	C	1.572140	0.415079	-0.070388
C253	C	0.865437	-0.218112	-0.971571
C254	C	1.198770	0.115221	-0.638238
C255	C	1.532104	0.448555	-0.304905
C256	C	0.865434	-0.218106	-1.037008
C257	C	1.198767	0.115227	-0.703675
C258	C	1.532101	0.448561	-0.370341
C259	C	0.945517	-0.284969	-1.037040
C260	C	1.278850	0.048364	-0.703707
C261	C	1.612183	0.381697	-0.370374
C262	C	0.945514	-0.284978	-0.971605
C263	C	1.278847	0.048355	-0.638271
C264	C	1.612181	0.381689	-0.304938
C265	C	0.905475	-0.251547	-0.938874
C266	C	1.238809	0.081787	-0.605541
C267	C	1.572142	0.415120	-0.272208
C268	C	0.905375	-0.251663	-0.139381
C269	C	1.238708	0.081671	0.193952
C270	C	1.572041	0.415004	0.527285
C271	C	0.905475	-0.251529	-0.069741
C272	C	1.238809	0.081804	0.263593
C273	C	1.572142	0.415138	0.596926
H274	H	0.464958	-0.244092	-0.199746
H275	H	0.798291	0.089241	0.133588
H276	H	1.131624	0.422575	0.466921
H277	H	0.832783	-0.953092	-0.374827
H278	H	1.166117	-0.619758	-0.041494
H279	H	1.499450	-0.286425	0.291839
H280	H	0.832820	-0.190964	-0.541284
H281	H	1.166154	0.142369	-0.207951
H282	H	1.499487	0.475703	0.125382
H283	H	0.832818	-1.052142	-0.374831
H284	H	1.166152	-0.718808	-0.041497
H285	H	1.499485	-0.385475	0.291836
H286	H	0.548170	-0.190953	-0.229563
H287	H	0.881503	0.142380	0.103770
H288	H	1.214837	0.475714	0.437104
H289	H	0.792637	-0.800981	-0.414837
H290	H	1.125970	-0.467648	-0.081504
H291	H	1.459304	-0.134314	0.251829
C292	C	0.821157	-0.557614	-0.386208
C293	C	1.154491	-0.224280	-0.052875
C294	C	1.487824	0.109053	0.280459
H295	H	0.797274	-0.533546	-0.410040
H296	H	1.130607	-0.200213	-0.076706
H297	H	1.463941	0.133121	0.256627
H298	H	0.793880	-0.578962	-0.362216
H299	H	1.127213	-0.245629	-0.028882
H300	H	1.460546	0.087705	0.304451
H301	H	0.845129	-0.578868	-0.413545
H302	H	1.178462	-0.245535	-0.080212
H303	H	1.511796	0.087799	0.253122
C304	C	0.989475	-0.442846	-0.218097
C305	C	1.322808	-0.109513	0.115237
C306	C	1.656142	0.223821	0.448570
H307	H	0.983713	-0.406419	-0.223813
H308	H	1.317046	-0.073086	0.109520
H309	H	1.650380	0.260248	0.442854
H310	H	1.031574	-0.451740	-0.227313
H311	H	1.364908	-0.118407	0.106021
H312	H	1.698241	0.214926	0.439354
H313	H	0.980318	-0.451833	-0.175990
H314	H	1.313652	-0.118499	0.157343
H315	H	1.646985	0.214834	0.490676
C316	C	0.989560	-0.321736	-1.073040
C317	C	1.322894	0.011597	-0.739707
C318	C	1.656227	0.344930	-0.406374
H319	H	1.013401	-0.341654	-1.044193
H320	H	1.346734	-0.008321	-0.710860
H321	H	1.680068	0.325012	-0.377526
H322	H	1.016879	-0.301729	-1.098595
H323	H	1.350213	0.031604	-0.765261
H324	H	1.683546	0.364937	-0.431928
H325	H	0.965567	-0.344519	-1.098539
H326	H	1.298900	-0.011185	-0.765205
H327	H	1.632234	0.322148	-0.431872
C328	C	0.676238	-0.181404	-0.218091
C329	C	1.009571	0.151930	0.115243
C330	C	1.342905	0.485263	0.448576
H331	H	0.719893	-0.186204	-0.223806
H332	H	1.053227	0.147129	0.109527
H333	H	1.386560	0.480463	0.442860
H334	H	0.665457	-0.189005	-0.175980
H335	H	0.998791	0.144329	0.157353
H336	H	1.332124	0.477662	0.490687
H337	H	0.665575	-0.146281	-0.227347
H338	H	0.998908	0.187053	0.105987
H339	H	1.332241	0.520386	0.439320
C340	C	1.024008	-0.260228	-0.733860
C341	C	1.357342	0.073105	-0.400527
C342	C	1.690675	0.406439	-0.067193
H343	H	1.015922	-0.259653	-0.690199
H344	H	1.349255	0.073680	-0.356865
H345	H	1.682588	0.407013	-0.023532
H346	H	1.050393	-0.231782	-0.744609
H347	H	1.383727	0.101552	-0.411275
H348	H	1.717060	0.434885	-0.077942
H349	H	1.044010	-0.292057	-0.744589
H350	H	1.377343	0.041276	-0.411256
H351	H	1.710676	0.374610	-0.077923
H352	H	0.978258	-0.953003	-0.229605
H353	H	1.311591	-0.619669	0.103729
H354	H	1.644925	-0.286336	0.437062
C355	C	0.989752	-1.059861	-0.218186
C356	C	1.323085	-0.726528	0.115147
C357	C	1.656419	-0.393195	0.448481
H358	H	0.984024	-1.096294	-0.223928
H359	H	1.317357	-0.762960	0.109405
H360	H	1.650691	-0.429627	0.442738
H361	H	0.980600	-1.050945	-0.176076
H362	H	1.313933	-0.717612	0.157258
H363	H	1.647266	-0.384278	0.490591
H364	H	1.031846	-1.050867	-0.227408
H365	H	1.365179	-0.717533	0.105925
H366	H	1.698512	-0.384200	0.439259
C367	C	0.989542	-0.557501	-0.218118
C368	C	1.322875	-0.224168	0.115216
C369	C	1.656209	0.109166	0.448549
H370	H	1.013398	-0.533401	-0.194278
H371	H	1.346732	-0.200068	0.139055
H372	H	1.680065	0.133265	0.472388
H373	H	1.016844	-0.578761	-0.242115
H374	H	1.350177	-0.245427	0.091219
H375	H	1.683510	0.087906	0.424552
H376	H	0.965593	-0.578840	-0.190787
H377	H	1.298926	-0.245506	0.142546
H378	H	1.632260	0.087827	0.475880
H379	H	0.792606	-0.701931	-0.414829
H380	H	1.125939	-0.368598	-0.081495
H381	H	1.459272	-0.035264	0.251838
H382	H	0.832563	-0.450739	-0.374753
H383	H	1.165896	-0.117405	-0.041419
H384	H	1.499230	0.215928	0.291914
C385	C	0.272591	-0.321963	-0.386216
C386	C	0.605924	0.011370	-0.052883
C387	C	0.939257	0.344704	0.280451
H388	H	0.316247	-0.317179	-0.380468
H389	H	0.649580	0.016154	-0.047135
H390	H	0.982914	0.349487	0.286198
H391	H	0.261925	-0.314354	-0.428333
H392	H	0.595258	0.018980	-0.095000
H393	H	0.928591	0.352313	0.238333
H394	H	0.261808	-0.357083	-0.376973
H395	H	0.595141	-0.023750	-0.043640
H396	H	0.928475	0.309583	0.289693
H397	H	1.018241	-0.701808	-0.189557
H398	H	1.351574	-0.368475	0.143776
H399	H	1.684907	-0.035142	0.477109
H400	H	0.832825	-0.190943	-0.659991
H401	H	1.166159	0.142390	-0.326658
H402	H	1.499492	0.475723	0.006676
C403	C	0.786928	-0.242949	-0.733698
C404	C	1.120262	0.090384	-0.400365
C405	C	1.453595	0.423718	-0.067031
H406	H	0.753309	-0.240499	-0.762529
H407	H	1.086642	0.092834	-0.429196
H408	H	1.419976	0.426167	-0.095863
H409	H	0.787765	-0.212649	-0.708179
H410	H	1.121099	0.120685	-0.374846
H411	H	1.454432	0.454018	-0.041512
H412	H	0.781399	-0.272925	-0.708162
H413	H	1.114733	0.060408	-0.374829
H414	H	1.448066	0.393741	-0.041495
H415	H	1.007887	-0.259024	-0.861907
H416	H	1.341221	0.074310	-0.528574
H417	H	1.674554	0.407643	-0.195241
H418	H	0.144531	-0.312374	-0.374839
H419	H	0.477864	0.020960	-0.041505
H420	H	0.811197	0.354293	0.291828
H421	H	0.978099	-0.312281	-0.541344
H422	H	1.311432	0.021052	-0.208010
H423	H	1.644766	0.354385	0.125323
H424	H	0.803061	-0.244094	-0.861773
H425	H	1.136394	0.089239	-0.528440
H426	H	1.469727	0.422572	-0.195106
H427	H	0.832835	-0.190890	-0.944921
H428	H	1.166168	0.142443	-0.611587
H429	H	1.499501	0.475776	-0.278254
H430	H	0.832830	-0.190879	-1.063628
H431	H	1.166163	0.142455	-0.730294
H432	H	1.499497	0.475788	-0.396961
H433	H	0.144533	-0.190884	-0.229707
H434	H	0.477867	0.142450	0.103626
H435	H	0.811200	0.475783	0.436959
H436	H	1.018287	-0.800856	-0.189573
H437	H	1.351621	-0.467522	0.143760
H438	H	1.684954	-0.134189	0.477093
H439	H	0.263244	-0.190905	-0.229661
H440	H	0.596577	0.142428	0.103673
H441	H	0.929911	0.475761	0.437006
C442	C	0.989558	-0.321753	-0.935638
C443	C	1.322892	0.011580	-0.602304
C444	C	1.656225	0.344913	-0.268971
H445	H	1.013410	-0.341654	-0.964505
H446	H	1.346743	-0.008321	-0.631171
H447	H	1.680077	0.325012	-0.297838
H448	H	0.965572	-0.344543	-0.910085
H449	H	1.298905	-0.011210	-0.576752
H450	H	1.632239	0.322124	-0.243419
H451	H	1.016876	-0.301747	-0.910140
H452	H	1.350210	0.031586	-0.576807
H453	H	1.683543	0.364919	-0.243473
C454	C	0.989547	-0.321802	-0.669406
C455	C	1.322880	0.011531	-0.336073
C456	C	1.656214	0.344864	-0.002740
H457	H	0.983821	-0.317002	-0.713060
H458	H	1.317154	0.016331	-0.379727
H459	H	1.650487	0.349664	-0.046393
H460	H	0.980347	-0.356936	-0.658667
H461	H	1.313680	-0.023603	-0.325334
H462	H	1.647013	0.309731	0.007999
H463	H	1.031653	-0.314142	-0.658713
H464	H	1.364986	0.019192	-0.325379
H465	H	1.698319	0.352525	0.007954
H466	H	0.666874	-0.312469	-0.374642
H467	H	1.000207	0.020864	-0.041308
H468	H	1.333540	0.354198	0.292025
H469	H	0.548167	-0.312445	-0.374689
H470	H	0.881500	0.020889	-0.041355
H471	H	1.214834	0.354222	0.291978
H472	H	0.465164	-0.259284	-0.404555
H473	H	0.798498	0.074050	-0.071222
H474	H	1.131831	0.407383	0.262111
H475	H	0.346452	-0.259260	-0.404597
H476	H	0.679786	0.074073	-0.071264
H477	H	1.013119	0.407406	0.262070
H478	H	0.346253	-0.244077	-0.199789
H479	H	0.679586	0.089256	0.133544
H480	H	1.012920	0.422589	0.466878
