data_functionalizedCrystal
_audit_creation_method	'MofGen! by Chris Wilmer'
_symmetry_space_group_name_H-M	'P1'
_symmetry_Int_Tables_number	1
_symmetry_cell_setting	triclinic
loop_
_symmetry_equiv_pos_as_xyz
  x,y,z
_cell_length_a	19.077312
_cell_length_b	29.839131
_cell_length_c	19.076919
_cell_angle_alpha	87.739939
_cell_angle_beta	85.331053
_cell_angle_gamma	87.741726
loop_
_atom_site_label
_atom_site_type_symbol
_atom_site_fract_x
_atom_site_fract_y
_atom_site_fract_z
Zn1	Zn	1.061590	-0.215151	0.355208
Zn2	Zn	1.561590	0.284849	0.855208
Zn3	Zn	1.066224	-0.287374	0.237306
Zn4	Zn	1.566224	0.212626	0.737306
Zn5	Zn	0.948449	-0.209366	0.242077
Zn6	Zn	1.448449	0.290634	0.742077
Zn7	Zn	0.943656	-0.287355	0.359889
Zn8	Zn	1.443656	0.212645	0.859889
O9	O	1.004980	-0.249811	0.298620
O10	O	1.504980	0.250189	0.798620
O11	O	1.160850	-0.227160	0.335612
O12	O	1.660850	0.272840	0.835612
O13	O	1.054546	-0.274612	0.139292
O14	O	1.554546	0.225388	0.639292
O15	O	0.963524	-0.147268	0.257122
O16	O	1.463524	0.352732	0.757122
O17	O	1.164254	-0.280222	0.248990
O18	O	1.664254	0.219778	0.748990
O19	O	1.046648	-0.151519	0.340238
O20	O	1.546648	0.348481	0.840238
O21	O	0.968018	-0.217300	0.142797
O22	O	1.468018	0.282700	0.642797
O23	O	0.849168	-0.217282	0.261661
O24	O	1.349168	0.282718	0.761661
O25	O	0.955354	-0.280190	0.457915
O26	O	1.455354	0.219810	0.957915
O27	O	0.845646	-0.274581	0.348217
O28	O	1.345646	0.225419	0.848217
O29	O	1.042000	-0.227142	0.454476
O30	O	1.542000	0.272858	0.954476
O31	O	1.049898	-0.350236	0.253529
O32	O	1.549898	0.149764	0.753529
O33	O	0.959848	-0.350222	0.343591
O34	O	1.459848	0.149778	0.843591
C35	C	0.821829	-0.245302	0.305965
C36	C	1.321829	0.254698	0.805965
C37	C	0.743476	-0.243384	0.309124
C38	C	1.243476	0.256616	0.809124
C39	C	1.004874	-0.366530	0.298565
C40	C	1.504874	0.133470	0.798565
C41	C	1.004893	-0.416465	0.298562
C42	C	1.504893	0.083535	0.798562
C43	C	0.302240	-0.229593	0.331787
C44	C	0.802240	0.270407	0.831787
C45	C	0.375861	-0.231403	0.328815
C46	C	0.875861	0.268597	0.828815
C47	C	0.414439	-0.259886	0.282157
C48	C	0.914439	0.240114	0.782157
C49	C	0.379391	-0.286563	0.238473
C50	C	0.879391	0.213437	0.738473
C51	C	0.305771	-0.284755	0.241449
C52	C	0.805771	0.215245	0.741449
C53	C	0.634808	-0.268253	0.268416
C54	C	1.134808	0.231747	0.768416
C55	C	0.708434	-0.270059	0.265441
C56	C	1.208434	0.229941	0.765441
C57	C	0.704899	-0.214899	0.355785
C58	C	1.204899	0.285101	0.855785
C59	C	0.631278	-0.213091	0.358754
C60	C	1.131278	0.286909	0.858754
C61	C	0.596236	-0.239770	0.315073
C62	C	1.096236	0.260230	0.815073
N63	N	0.489691	-0.261736	0.279116
N64	N	0.989691	0.238264	0.779116
N65	N	0.520985	-0.237922	0.318117
N66	N	1.020985	0.262078	0.818117
C67	C	1.048250	-0.728291	0.341963
C68	C	1.548250	-0.228291	0.841963
C69	C	1.048325	-0.915967	0.342003
C70	C	1.548325	-0.415967	0.842003
O71	O	1.085085	-0.942085	0.378864
O72	O	1.585085	-0.442085	0.878864
N73	N	1.005096	-0.937258	0.298693
N74	N	1.505096	-0.437258	0.798693
C75	C	0.961842	-0.911627	0.255375
C76	C	1.461842	-0.411627	0.755375
O77	O	0.925070	-0.934043	0.218543
O78	O	1.425070	-0.434043	0.718543
C79	C	0.961764	-0.723952	0.255339
C80	C	1.461764	-0.223952	0.755339
C81	C	1.005001	-0.702664	0.298646
C82	C	1.505001	-0.202664	0.798646
C83	C	1.091482	-0.707003	0.385267
C84	C	1.591482	-0.207003	0.885267
C85	C	1.091466	-0.660086	0.385254
C86	C	1.591466	-0.160086	0.885254
C87	C	1.048217	-0.634459	0.341937
C88	C	1.548217	-0.134459	0.841937
C89	C	1.004985	-0.655747	0.298633
C90	C	1.504985	-0.155747	0.798633
C91	C	0.918508	-0.698322	0.212025
C92	C	1.418508	-0.198322	0.712025
C93	C	0.918491	-0.651400	0.212021
C94	C	1.418491	-0.151400	0.712021
C95	C	0.961727	-0.630112	0.255328
C96	C	1.461727	-0.130112	0.755328
C97	C	0.961720	-0.583204	0.255303
C98	C	1.461720	-0.083204	0.755303
N99	N	1.004948	-0.561913	0.298613
N100	N	1.504948	-0.061913	0.798613
C101	C	1.048197	-0.587540	0.341930
C102	C	1.548197	-0.087540	0.841930
C103	C	0.961887	-1.010159	0.255395
C104	C	1.461887	-0.510159	0.755395
C105	C	0.961908	-1.057078	0.255403
C106	C	1.461908	-0.557078	0.755403
C107	C	1.048389	-1.061415	0.342032
C108	C	1.548389	-0.561415	0.842032
C109	C	1.048372	-1.014495	0.342020
C110	C	1.548372	-0.514495	0.842020
C111	C	1.005116	-0.988868	0.298704
C112	C	1.505116	-0.488868	0.798704
C113	C	1.048160	-0.489013	0.341898
C114	C	1.548160	0.010987	0.841898
C115	C	1.048142	-0.442092	0.341879
C116	C	1.548142	0.057908	0.841879
C117	C	0.961658	-0.437759	0.255253
C118	C	1.461658	0.062241	0.755253
C119	C	0.961678	-0.484676	0.255269
C120	C	1.461678	0.015324	0.755269
C121	C	1.004931	-0.510302	0.298597
C122	C	1.504931	-0.010302	0.798597
O123	O	0.924973	-0.557058	0.218467
O124	O	1.424973	-0.057058	0.718467
O125	O	1.084952	-0.565116	0.378767
O126	O	1.584952	-0.065116	0.878767
C127	C	1.048266	-0.775207	0.341977
C128	C	1.548266	-0.275207	0.841977
C129	C	1.005034	-0.796496	0.298673
C130	C	1.505034	-0.296496	0.798673
C131	C	0.961785	-0.770868	0.255355
C132	C	1.461785	-0.270868	0.755355
C133	C	1.005054	-0.843415	0.298680
C134	C	1.505054	-0.343415	0.798680
C135	C	1.048303	-0.869042	0.341997
C136	C	1.548303	-0.369042	0.841997
C137	C	1.091531	-0.847751	0.385307
C138	C	1.591531	-0.347751	0.885307
C139	C	1.091515	-0.800835	0.385294
C140	C	1.591515	-0.300835	0.885294
C141	C	0.918556	-0.792159	0.212046
C142	C	1.418556	-0.292159	0.712046
C143	C	0.918577	-0.839076	0.212062
C144	C	1.418577	-0.339076	0.712062
C145	C	0.961826	-0.864703	0.255379
C146	C	1.461826	-0.364703	0.755379
C147	C	1.188845	-0.254338	0.291247
C148	C	1.688845	0.245662	0.791247
C149	C	1.267197	-0.256268	0.288105
C150	C	1.767197	0.243732	0.788105
C151	C	0.997625	-0.254309	0.482489
C152	C	1.497625	0.245691	0.982489
C153	C	0.994492	-0.256226	0.560842
C154	C	1.494492	0.243774	1.060842
C155	C	1.005104	-0.132638	0.298690
C156	C	1.505104	0.367362	0.798690
C157	C	1.005157	-0.082705	0.298720
C158	C	1.505157	0.417295	0.798720
C159	C	1.012346	-0.245299	0.115465
C160	C	1.512346	0.254701	0.615465
C161	C	1.015616	-0.243259	0.037106
C162	C	1.515616	0.256741	0.537106
C163	C	1.038129	-0.229509	0.595864
C164	C	1.538129	0.270491	1.095864
C165	C	1.035176	-0.231308	0.669486
C166	C	1.535176	0.268692	1.169486
C167	C	0.988588	-0.259827	0.708085
C168	C	1.488588	0.240173	1.208085
C169	C	0.944946	-0.286546	0.673059
C170	C	1.444946	0.213454	1.173059
C171	C	0.947896	-0.284744	0.599438
C172	C	1.447896	0.215256	1.099438
C173	C	0.974924	-0.268176	0.928459
C174	C	1.474924	0.231824	1.428459
C175	C	0.971979	-0.269977	1.002085
C176	C	1.471979	0.230023	1.502085
C177	C	1.062208	-0.214738	0.998507
C178	C	1.562208	0.285262	1.498507
C179	C	1.065157	-0.212940	0.924885
C180	C	1.565157	0.287060	1.424885
C181	C	1.021512	-0.239657	0.889865
C182	C	1.521512	0.260343	1.389865
N183	N	0.985570	-0.261668	0.783339
N184	N	1.485570	0.238332	1.283339
N185	N	1.024527	-0.237814	0.814613
N186	N	1.524527	0.262186	1.314613
H187	H	0.404390	-0.209684	0.364388
H188	H	0.904390	0.290316	0.864388
H189	H	0.277240	-0.306477	0.205879
H190	H	0.777240	0.193523	0.705879
O191	O	1.110428	-0.185196	0.887500
O192	O	1.610428	0.314804	1.387500
C193	C	1.148324	-0.162007	0.934198
C194	C	1.648324	0.337993	1.434198
H195	H	1.117350	-0.161024	0.987835
H196	H	1.617350	0.338976	1.487835
H197	H	1.156734	-0.126278	0.912646
H198	H	1.656734	0.373722	1.412646
H199	H	1.201530	-0.179969	0.939875
H200	H	1.701530	0.320031	1.439875
H201	H	1.083353	-0.424761	0.377145
H202	H	1.583353	0.075239	0.877145
H203	H	1.083605	-1.082289	0.377302
H204	H	1.583605	-0.582289	0.877302
O205	O	0.919969	-0.985220	0.213273
O206	O	1.419969	-0.485220	0.713273
C207	C	0.961948	-0.957956	0.166146
C208	C	1.461948	-0.457956	0.666146
H209	H	1.014347	-0.952804	0.188911
H210	H	1.514347	-0.452804	0.688911
H211	H	0.933603	-0.924047	0.157813
H212	H	1.433603	-0.424047	0.657813
H213	H	0.971839	-0.974968	0.113606
H214	H	1.471839	-0.474968	0.613606
H215	H	1.097740	-0.192986	1.027028
H216	H	1.597740	0.307014	1.527028
H217	H	1.126749	-0.868625	0.420574
H218	H	1.626749	-0.368625	0.920574
H219	H	0.926708	-1.074407	0.220130
H220	H	1.426708	-0.574407	0.720130
O221	O	0.593913	-0.185413	0.404141
O222	O	1.093913	0.314587	0.904141
C223	C	0.640630	-0.162248	0.442046
C224	C	1.140630	0.337752	0.942046
H225	H	0.692997	-0.181999	0.442313
H226	H	1.192997	0.318001	0.942313
H227	H	0.617157	-0.158347	0.498460
H228	H	1.117157	0.341653	0.998460
H229	H	0.649515	-0.127667	0.416018
H230	H	1.149515	0.372333	0.916018
H231	H	0.934040	-0.293202	1.033511
H232	H	1.434040	0.206798	1.533511
O233	O	1.133482	-0.639482	0.427393
O234	O	1.633482	-0.139482	0.927393
C235	C	1.171665	-0.672170	0.465610
C236	C	1.671665	-0.172170	0.965610
H237	H	1.142701	-0.704978	0.469184
H238	H	1.642701	-0.204978	0.969184
H239	H	1.176913	-0.660138	0.520858
H240	H	1.676913	-0.160138	1.020858
H241	H	1.226257	-0.677826	0.437693
H242	H	1.726257	-0.177826	0.937693
H243	H	1.076067	-0.206287	0.564441
H244	H	1.576067	0.293713	1.064441
O245	O	0.876570	-0.626460	0.169903
O246	O	1.376570	-0.126460	0.669903
C247	C	0.918546	-0.599197	0.122770
C248	C	1.418546	-0.099197	0.622770
H249	H	0.970949	-0.594048	0.145528
H250	H	1.470949	-0.094048	0.645528
H251	H	0.890202	-0.565288	0.114441
H252	H	1.390202	-0.065288	0.614441
H253	H	0.928428	-0.616210	0.070230
H254	H	1.428428	-0.116210	0.570230
H255	H	0.883370	-0.856404	0.176790
H256	H	1.383370	-0.356404	0.676790
H257	H	0.907011	-0.309765	0.704492
H258	H	1.407011	0.190235	1.204492
O259	O	1.077638	-0.205341	0.703394
O260	O	1.577638	0.294659	1.203394
C261	C	1.119381	-0.179777	0.653539
C262	C	1.619381	0.320223	1.153539
H263	H	1.123903	-0.196955	0.600951
H264	H	1.623903	0.303045	1.100951
H265	H	1.174075	-0.176876	0.672590
H266	H	1.674075	0.323124	1.172590
H267	H	1.093922	-0.144830	0.646761
H268	H	1.593922	0.355170	1.146761
H269	H	0.939396	-0.289937	0.899955
H270	H	1.439396	0.210063	1.399955
O271	O	1.133396	-0.731912	0.427426
O272	O	1.633396	-0.231912	0.927426
C273	C	1.091432	-0.759196	0.474537
C274	C	1.591432	-0.259196	0.974537
H275	H	1.035726	-0.743835	0.481073
H276	H	1.535726	-0.243835	0.981073
H277	H	1.114719	-0.761641	0.527785
H278	H	1.614719	-0.261641	1.027785
H279	H	1.089917	-0.794173	0.452848
H280	H	1.589917	-0.294173	0.952848
H281	H	0.926447	-0.416886	0.219982
H282	H	1.426447	0.083114	0.719982
O283	O	1.090238	-0.513834	0.384009
O284	O	1.590238	-0.013834	0.884009
C285	C	1.128372	-0.484975	0.422238
C286	C	1.628372	0.015025	0.922238
H287	H	1.131977	-0.450896	0.393250
H288	H	1.631977	0.049104	0.893250
H289	H	1.183610	-0.500044	0.427587
H290	H	1.683610	-0.000044	0.927587
H291	H	1.100368	-0.480649	0.476788
H292	H	1.600368	0.019351	0.976788
O293	O	1.090386	-0.993889	0.384159
O294	O	1.590386	-0.493889	0.884159
C295	C	1.128573	-1.026576	0.422376
C296	C	1.628573	-0.526576	0.922376
H297	H	1.099614	-1.059385	0.425948
H298	H	1.599614	-0.559385	0.925948
H299	H	1.133818	-1.014544	0.477625
H300	H	1.633818	-0.514544	0.977625
H301	H	1.183166	-1.032228	0.394459
H302	H	1.683166	-0.532228	0.894459
O303	O	0.905489	-0.310748	0.565525
O304	O	1.405489	0.189252	1.065525
C305	C	0.863729	-0.336302	0.615379
C306	C	1.363729	0.163698	1.115379
H307	H	0.890495	-0.339847	0.666704
H308	H	1.390495	0.160153	1.166704
H309	H	0.857035	-0.370993	0.594389
H310	H	1.357035	0.129007	1.094389
H311	H	0.809891	-0.318729	0.625357
H312	H	1.309891	0.181271	1.125357
O313	O	0.876446	-0.767317	0.170000
O314	O	1.376446	-0.267317	0.670000
C315	C	0.805565	-0.777457	0.188177
C316	C	1.305565	-0.277457	0.688177
H317	H	0.803011	-0.812137	0.215352
H318	H	1.303011	-0.312137	0.715352
H319	H	0.776040	-0.777085	0.138538
H320	H	1.276040	-0.277085	0.638538
H321	H	0.780327	-0.751349	0.225337
H322	H	1.280327	-0.251349	0.725337
O323	O	0.264876	-0.201915	0.377175
O324	O	0.764876	0.298085	0.877175
C325	C	0.311597	-0.178753	0.415081
C326	C	0.811597	0.321247	0.915081
H327	H	0.363963	-0.198504	0.415340
H328	H	0.863963	0.301496	0.915340
H329	H	0.288127	-0.174856	0.471497
H330	H	0.788127	0.325144	0.971497
H331	H	0.320478	-0.144170	0.389059
H332	H	0.820478	0.355830	0.889059
H333	H	0.733438	-0.193179	0.391349
H334	H	1.233438	0.306821	0.891349
O335	O	1.133590	-0.780138	0.427263
O336	O	1.633590	-0.280138	0.927263
C337	C	1.180740	-0.753117	0.385342
C338	C	1.680740	-0.253117	0.885342
H339	H	1.187366	-0.766019	0.329649
H340	H	1.687366	-0.266019	0.829649
H341	H	1.233946	-0.754509	0.408710
H342	H	1.733946	-0.254509	0.908710
H343	H	1.159036	-0.716974	0.383769
H344	H	1.659036	-0.216974	0.883769
O345	O	0.745801	-0.297771	0.220103
O346	O	1.245801	0.202229	0.720103
C347	C	0.699087	-0.320925	0.182176
C348	C	1.199087	0.179075	0.682176
H349	H	0.645459	-0.321927	0.213163
H350	H	1.145459	0.178073	0.713163
H351	H	0.720630	-0.356649	0.173697
H352	H	1.220630	0.143351	0.673697
H353	H	0.693397	-0.302924	0.129001
H354	H	1.193397	0.197076	0.629001
H355	H	0.926478	-0.502010	0.219999
H356	H	1.426478	-0.002010	0.719999
O357	O	0.600743	-0.294217	0.226083
O358	O	1.100743	0.205783	0.726083
C359	C	0.556533	-0.323204	0.267846
C360	C	1.056533	0.176796	0.767846
H361	H	0.576511	-0.327936	0.322462
H362	H	1.076511	0.172064	0.822462
H363	H	0.556690	-0.357104	0.242277
H364	H	1.056690	0.142896	0.742277
H365	H	0.500649	-0.308012	0.272568
H366	H	1.000649	0.191988	0.772568
H367	H	0.410806	-0.309756	0.200485
H368	H	0.910806	0.190244	0.700485
O369	O	0.876438	-0.718922	0.169939
O370	O	1.376438	-0.218922	0.669939
C371	C	0.838277	-0.686233	0.131702
C372	C	1.338277	-0.186233	0.631702
H373	H	0.834658	-0.653427	0.160672
H374	H	1.334658	-0.153427	0.660672
H375	H	0.783045	-0.698266	0.126373
H376	H	1.283045	-0.198266	0.626373
H377	H	0.866267	-0.680573	0.077144
H378	H	1.366267	-0.180573	0.577144
