data_functionalizedCrystal
_audit_creation_method	'MofGen! by Chris Wilmer'
_symmetry_space_group_name_H-M	'P1'
_symmetry_Int_Tables_number	1
_symmetry_cell_setting	triclinic
loop_
_symmetry_equiv_pos_as_xyz
  x,y,z
_cell_length_a	8.559649
_cell_length_b	9.798715
_cell_length_c	8.559649
_cell_angle_alpha	89.998585
_cell_angle_beta	110.221336
_cell_angle_gamma	90.003279
loop_
_atom_site_label
_atom_site_type_symbol
_atom_site_fract_x
_atom_site_fract_y
_atom_site_fract_z
O1	O	2.126880	0.113470	0.055038
O2	O	2.626880	0.613470	0.555038
O3	O	1.651396	0.113475	-0.028743
O4	O	2.151396	0.613475	0.471257
O5	O	1.931029	0.113470	0.250890
O6	O	2.431029	0.613470	0.750890
O7	O	1.847247	0.113474	-0.224595
O8	O	2.347247	0.613474	0.275405
O9	O	1.931010	-0.113512	0.250889
O10	O	2.431010	0.386488	0.750889
O11	O	1.651377	-0.113507	-0.028745
O12	O	2.151377	0.386493	0.471255
O13	O	2.126862	-0.113513	0.055037
O14	O	2.626862	0.386487	0.555037
Zn15	Zn	1.889117	-0.149548	0.013146
Zn16	Zn	2.389117	0.350452	0.513146
Zn17	Zn	1.889141	0.149511	0.013148
Zn18	Zn	2.389141	0.649511	0.513148
O19	O	1.847229	-0.113508	-0.224596
O20	O	2.347229	0.386492	0.275404
C21	C	1.591077	-0.000015	-0.035093
C22	C	2.091077	0.499985	0.464907
C23	C	1.411378	-0.000013	-0.053992
C24	C	1.911378	0.499987	0.446008
N25	N	1.889112	-0.353648	0.013147
N26	N	2.389112	0.146352	0.513147
C27	C	2.006582	-0.421427	0.131014
C28	C	2.506582	0.078573	0.631014
C29	C	2.006609	-0.578589	0.131023
C30	C	2.506609	-0.078589	0.631023
C31	C	2.187180	-0.000019	0.061387
C32	C	2.687180	0.499981	0.561387
C33	C	2.366879	-0.000012	0.080286
C34	C	2.866879	0.499988	0.580286
C35	C	1.937369	-0.000018	0.311198
C36	C	2.437369	0.499982	0.811198
C37	C	1.956268	-0.000011	0.490898
C38	C	2.456268	0.499989	0.990898
N39	N	1.889160	0.353610	0.013162
N40	N	2.389160	0.853610	0.513162
C41	C	1.840889	-0.000016	-0.284904
C42	C	2.340889	0.499984	0.215096
C43	C	1.821990	-0.000015	-0.464604
C44	C	2.321990	0.499985	0.035396
H45	H	1.466258	-0.000007	0.209705
H46	H	1.966258	0.499993	0.709705
C47	C	2.142403	-0.342640	0.267360
C48	C	2.642403	0.157360	0.767360
N49	N	2.244700	-0.283299	0.370067
N50	N	2.744700	0.216701	0.870067
C51	C	2.142480	-0.657330	0.267355
C52	C	2.642480	-0.157330	0.767355
N53	N	2.244821	-0.716641	0.370047
N54	N	2.744821	-0.216641	0.870047
C55	C	1.753282	-0.567658	-0.123175
C56	C	2.253282	-0.067658	0.376825
N57	N	1.650938	-0.508347	-0.225862
N58	N	2.150938	-0.008347	0.274138
H59	H	1.311990	-0.000005	-0.183420
H60	H	1.811990	0.499995	0.316580
H61	H	1.788555	-0.411971	-0.087753
H62	H	2.288555	0.088029	0.412247
H63	H	1.692570	-0.000018	0.436018
H64	H	2.192570	0.499982	0.936018
H65	H	2.085696	-0.000023	0.590286
H66	H	2.585696	0.499977	1.090286
