data_functionalizedCrystal
_audit_creation_method	'MofGen! by Chris Wilmer'
_symmetry_space_group_name_H-M	'P1'
_symmetry_Int_Tables_number	1
_symmetry_cell_setting	triclinic
loop_
_symmetry_equiv_pos_as_xyz
  x,y,z
_cell_length_a	18.215407
_cell_length_b	17.637651
_cell_length_c	18.215399
_cell_angle_alpha	78.756317
_cell_angle_beta	89.982632
_cell_angle_gamma	101.216706
loop_
_atom_site_label
_atom_site_type_symbol
_atom_site_fract_x
_atom_site_fract_y
_atom_site_fract_z
Zn1	Zn	1.065871	-0.314821	-0.356755
Zn2	Zn	1.565871	0.185179	0.143245
Zn3	Zn	1.040917	-0.447039	-0.208779
Zn4	Zn	1.540917	0.052961	0.291221
Zn5	Zn	0.942800	-0.314840	-0.233704
Zn6	Zn	1.442800	0.185160	0.266296
Zn7	Zn	0.917917	-0.446988	-0.331819
Zn8	Zn	1.417917	0.053012	0.168181
O9	O	0.991876	-0.380922	-0.282764
O10	O	1.491876	0.119078	0.217236
O11	O	1.165543	-0.332373	-0.337130
O12	O	1.665543	0.167627	0.162870
O13	O	1.027872	-0.429532	-0.109095
O14	O	1.527872	0.070468	0.390905
O15	O	0.979984	-0.204199	-0.270894
O16	O	1.479984	0.295801	0.229106
O17	O	1.147209	-0.429513	-0.228413
O18	O	1.647209	0.070487	0.271587
O19	O	1.070403	-0.204185	-0.361299
O20	O	1.570403	0.295815	0.138701
O21	O	0.955786	-0.332406	-0.127408
O22	O	1.455786	0.167594	0.372592
O23	O	0.836518	-0.332356	-0.246714
O24	O	1.336518	0.167644	0.253286
O25	O	0.937573	-0.429426	-0.438116
O26	O	1.437573	0.070574	0.061884
O27	O	0.818236	-0.429445	-0.318799
O28	O	1.318236	0.070555	0.181201
O29	O	1.046274	-0.332324	-0.456437
O30	O	1.546274	0.167676	0.043563
O31	O	1.003743	-0.557670	-0.204233
O32	O	1.503743	-0.057670	0.295767
O33	O	0.913375	-0.557633	-0.294630
O34	O	1.413375	-0.057633	0.205370
C35	C	0.800675	-0.380898	-0.282756
C36	C	1.300675	0.119102	0.217244
C37	C	0.718874	-0.380906	-0.282766
C38	C	1.218874	0.119094	0.217234
C39	C	0.540206	-0.330430	-0.339430
C40	C	1.040206	0.169570	0.160570
C41	C	0.463346	-0.330436	-0.339431
C42	C	0.963346	0.169564	0.160569
C43	C	0.444294	-0.431436	-0.226107
C44	C	0.944294	0.068564	0.273893
C45	C	0.521154	-0.431425	-0.226103
C46	C	1.021154	0.068575	0.273897
C47	C	0.569108	-0.380923	-0.282769
C48	C	1.069108	0.119077	0.217231
C49	C	0.415388	-0.380941	-0.282774
C50	C	0.915388	0.119059	0.217226
C51	C	0.332053	-0.380949	-0.282774
C52	C	0.832053	0.119051	0.217226
C53	C	0.652448	-0.380914	-0.282767
C54	C	1.152448	0.119086	0.217233
C55	C	0.953171	-0.586339	-0.244037
C56	C	1.453171	-0.086339	0.255963
C57	C	0.936680	-0.674217	-0.227494
C58	C	1.436680	-0.174217	0.272506
C59	C	1.117635	-0.962906	-0.408672
C60	C	1.617635	-0.462906	0.091328
C61	C	1.102115	-1.045481	-0.393115
C62	C	1.602115	-0.545481	0.106885
C63	C	1.008024	-1.045603	-0.298885
C64	C	1.508024	-0.545603	0.201115
C65	C	1.023538	-0.963026	-0.314432
C66	C	1.523538	-0.463026	0.185568
C67	C	1.078343	-0.921685	-0.369327
C68	C	1.578343	-0.421685	0.130673
C69	C	0.984247	-0.921805	-0.275087
C70	C	1.484247	-0.421805	0.224913
C71	C	0.999757	-0.839235	-0.290636
C72	C	1.499757	-0.339235	0.209364
C73	C	1.054558	-0.797888	-0.345530
C74	C	1.554558	-0.297888	0.154470
C75	C	1.093853	-0.839115	-0.384876
C76	C	1.593853	-0.339115	0.115124
C77	C	0.929438	-0.963148	-0.220196
C78	C	1.429438	-0.463148	0.279804
C79	C	0.890146	-0.921926	-0.180851
C80	C	1.390146	-0.421926	0.319149
C81	C	0.905660	-0.839355	-0.196396
C82	C	1.405660	-0.339355	0.303604
C83	C	0.960461	-0.798008	-0.251290
C84	C	1.460461	-0.298008	0.248710
C85	C	0.866365	-0.798128	-0.157050
C86	C	1.366365	-0.298128	0.342950
C87	C	0.881875	-0.715559	-0.172599
C88	C	1.381875	-0.215559	0.327401
C89	C	0.975971	-0.715438	-0.266839
C90	C	1.475971	-0.215438	0.233161
C91	C	1.183825	-0.380947	-0.282773
C92	C	1.683825	0.119053	0.217227
C93	C	1.265621	-0.380957	-0.282776
C94	C	1.765621	0.119043	0.217224
C95	C	0.991931	-0.380867	-0.474727
C96	C	1.491931	0.119133	0.025273
C97	C	0.991955	-0.380844	-0.556531
C98	C	1.491955	0.119156	-0.056531
C99	C	1.030753	-0.174703	-0.321659
C100	C	1.530753	0.325297	0.178341
C101	C	1.047320	-0.086825	-0.338233
C102	C	1.547320	0.413175	0.161767
C103	C	1.048582	-0.330236	-0.754274
C104	C	1.548582	0.169764	-0.254274
C105	C	1.048595	-0.330213	-0.831137
C106	C	1.548595	0.169787	-0.331137
C107	C	0.935403	-0.431330	-0.812048
C108	C	1.435403	0.068670	-0.312048
C109	C	0.935388	-0.431349	-0.735187
C110	C	1.435388	0.068651	-0.235187
C111	C	0.991981	-0.380803	-0.706302
C112	C	1.491981	0.119197	-0.206302
C113	C	0.992009	-0.380761	-0.860026
C114	C	1.492009	0.119239	-0.360026
C115	C	0.992023	-0.380737	-0.943364
C116	C	1.492023	0.119263	-0.443364
C117	C	0.991967	-0.380826	-0.622959
C118	C	1.491967	0.119174	-0.122959
C119	C	0.991875	-0.380919	-0.091558
C120	C	1.491875	0.119081	0.408442
C121	C	0.992036	-0.380720	-0.009797
C122	C	1.492036	0.119280	0.490203
H123	H	0.405241	-0.472554	-0.179972
H124	H	0.905241	0.027446	0.320028
H125	H	1.162268	-0.929244	-0.453368
H126	H	1.662268	-0.429244	0.046632
H127	H	0.579249	-0.289305	-0.385569
H128	H	1.079249	0.210695	0.114431
H129	H	0.439819	-0.289318	-0.385569
H130	H	0.939819	0.210682	0.114431
O131	O	0.549105	-0.480553	-0.171022
O132	O	1.049105	0.019447	0.328978
C133	C	0.490302	-0.525120	-0.121002
C134	C	0.990302	-0.025120	0.378998
H135	H	0.435001	-0.527911	-0.150617
H136	H	0.935001	-0.027911	0.349383
H137	H	0.487573	-0.496093	-0.070626
H138	H	0.987573	0.003907	0.429374
C139	C	0.572382	-0.605819	-0.058032
C140	C	1.072382	-0.105819	0.441968
C141	C	0.504461	-0.609251	-0.094409
C142	C	1.004461	-0.109251	0.405591
H143	H	0.581116	-0.657714	-0.041625
H144	H	1.081116	-0.157714	0.458375
H145	H	0.612000	-0.575791	-0.091730
H146	H	1.112000	-0.075791	0.408270
H147	H	0.570099	-0.581626	-0.016057
H148	H	1.070099	-0.081626	0.483943
H149	H	0.506748	-0.633435	-0.136388
H150	H	1.006748	-0.133435	0.363612
H151	H	0.464843	-0.639285	-0.060717
H152	H	0.964843	-0.139285	0.439283
H153	H	1.020605	-0.681776	-0.311534
H154	H	1.520605	-0.181776	0.188466
O155	O	1.069563	-0.717679	-0.360757
O156	O	1.569563	-0.217679	0.139243
C157	C	1.055830	-0.690065	-0.436479
C158	C	1.555830	-0.190065	0.063521
H159	H	1.014786	-0.737650	-0.457910
H160	H	1.514786	-0.237650	0.042090
H161	H	1.110675	-0.675367	-0.471177
H162	H	1.610675	-0.175367	0.028823
C163	C	1.072594	-0.557033	-0.417049
C164	C	1.572594	-0.057033	0.082951
C165	C	1.022178	-0.615474	-0.443369
C166	C	1.522178	-0.115474	0.056631
H167	H	1.051839	-0.511020	-0.421301
H168	H	1.551839	-0.011020	0.078699
H169	H	1.081849	-0.575636	-0.366034
H170	H	1.581849	-0.075636	0.133966
H171	H	1.118294	-0.544794	-0.445967
H172	H	1.618294	-0.044794	0.054033
H173	H	0.976483	-0.627719	-0.414445
H174	H	1.476483	-0.127719	0.085555
H175	H	1.012914	-0.596871	-0.494380
H176	H	1.512914	-0.096871	0.005620
H177	H	1.138487	-0.805453	-0.429572
H178	H	1.638487	-0.305453	0.070428
H179	H	0.889328	-0.472485	-0.835575
H180	H	1.389328	0.027515	-0.335575
H181	H	1.094662	-0.289075	-0.730759
H182	H	1.594662	0.210925	-0.230759
H183	H	1.134105	-1.079041	-0.425169
H184	H	1.634105	-0.579041	0.074831
H185	H	0.963400	-1.079275	-0.254191
H186	H	1.463400	-0.579275	0.245809
H187	H	0.916804	-1.030381	-0.207545
H188	H	1.416804	-0.530381	0.292455
H189	H	0.845522	-0.955598	-0.136157
H190	H	1.345522	-0.455598	0.363843
O191	O	1.103652	-0.281068	-0.877628
O192	O	1.603652	0.218932	-0.377628
C193	C	1.153585	-0.236447	-0.835651
C194	C	1.653585	0.263553	-0.335651
H195	H	1.150017	-0.268847	-0.774754
H196	H	1.650017	0.231153	-0.274754
H197	H	1.137954	-0.176400	-0.838797
H198	H	1.637954	0.323600	-0.338797
C199	C	1.238444	-0.185259	-0.942603
C200	C	1.738444	0.314741	-0.442603
C201	C	1.234067	-0.225056	-0.867809
C202	C	1.734067	0.274944	-0.367809
H203	H	1.288089	-0.178228	-0.962441
H204	H	1.788089	0.321772	-0.462441
H205	H	1.204803	-0.215318	-0.970885
H206	H	1.704803	0.284682	-0.470885
H207	H	1.225414	-0.135223	-0.945215
H208	H	1.725414	0.364777	-0.445215
H209	H	1.247087	-0.275094	-0.865199
H210	H	1.747087	0.224906	-0.365199
H211	H	1.267712	-0.195005	-0.839527
H212	H	1.767712	0.304995	-0.339527
H213	H	0.821737	-0.831801	-0.112359
H214	H	1.321737	-0.331801	0.387641
H215	H	0.849879	-0.681996	-0.140560
H216	H	1.349879	-0.181996	0.359440
O217	O	0.880346	-0.480361	-0.688570
O218	O	1.380346	0.019639	-0.188570
C219	C	0.841304	-0.435353	-0.652583
C220	C	1.341304	0.064647	-0.152583
H221	H	0.848498	-0.373079	-0.687494
H222	H	1.348498	0.126921	-0.187494
H223	H	0.864561	-0.432643	-0.594849
H224	H	1.364561	0.067357	-0.094849
C225	C	0.748682	-0.550459	-0.601223
C226	C	1.248682	-0.050459	-0.101223
C227	C	0.757514	-0.473974	-0.644105
C228	C	1.257514	0.026026	-0.144105
H229	H	0.696998	-0.574283	-0.595989
H230	H	1.196998	-0.074283	-0.095989
H231	H	0.774987	-0.580783	-0.625465
H232	H	1.274987	-0.080783	-0.125465
H233	H	0.768069	-0.548190	-0.553116
H234	H	1.268069	-0.048190	-0.053116
H235	H	0.738137	-0.476245	-0.692213
H236	H	1.238137	0.023755	-0.192213
H237	H	0.731204	-0.443652	-0.619870
H238	H	1.231204	0.056348	-0.119870
