data_functionalizedCrystal
_audit_creation_method	'MofGen! by Chris Wilmer'
_symmetry_space_group_name_H-M	'P1'
_symmetry_Int_Tables_number	1
_symmetry_cell_setting	triclinic
loop_
_symmetry_equiv_pos_as_xyz
  x,y,z
_cell_length_a	14.044220
_cell_length_b	10.540535
_cell_length_c	13.101039
_cell_angle_alpha	93.394726
_cell_angle_beta	86.340132
_cell_angle_gamma	88.856260
loop_
_atom_site_label
_atom_site_type_symbol
_atom_site_fract_x
_atom_site_fract_y
_atom_site_fract_z
O1	O	1.264941	0.299849	-0.085111
O2	O	1.764941	0.799849	0.414889
O3	O	0.988899	0.288795	-0.085137
O4	O	1.488899	0.788795	0.414863
O5	O	1.133219	0.110253	-0.085113
O6	O	1.633219	0.610253	0.414887
O7	O	1.120620	0.478391	-0.085135
O8	O	1.620620	0.978391	0.414865
O9	O	1.122864	0.123086	0.085315
O10	O	1.622864	0.623086	0.585315
O11	O	0.978544	0.301629	0.085291
O12	O	1.478544	0.801629	0.585291
O13	O	1.254586	0.312682	0.085317
O14	O	1.754586	0.812682	0.585317
Zn15	Zn	1.114921	0.309193	0.112363
Zn16	Zn	1.614921	0.809193	0.612363
Zn17	Zn	1.128564	0.292285	-0.112183
Zn18	Zn	1.628564	0.792285	0.387817
O19	O	1.110266	0.491225	0.085293
O20	O	1.610266	0.991225	0.585293
C21	C	0.948374	0.290374	0.000074
C22	C	1.448374	0.790374	0.500074
C23	C	0.843052	0.275944	0.000065
C24	C	1.343052	0.775944	0.500065
C25	C	1.127098	0.069271	0.000101
C26	C	1.627098	0.569271	0.500101
C27	C	1.124273	-0.071963	0.000103
C28	C	1.624273	0.428037	0.500103
C29	C	0.650211	0.249565	0.000087
C30	C	1.150211	0.749565	0.500087
C31	C	0.593269	0.351907	0.000085
C32	C	1.093269	0.851907	0.500085
C33	C	0.485966	0.337229	0.000097
C34	C	0.985966	0.837229	0.500097
C35	C	0.757524	0.264240	0.000074
C36	C	1.257524	0.764240	0.500074
C37	C	1.018902	-0.119287	0.000085
C38	C	1.518902	0.380713	0.500085
C39	C	1.015954	-0.266219	-0.000320
C40	C	1.515954	0.233781	0.499680
C41	C	1.178277	-0.283740	-0.097050
C42	C	1.678277	0.216260	0.402950
C43	C	1.180523	-0.136753	-0.097113
C44	C	1.680523	0.363247	0.402887
C45	C	1.170280	-0.122142	0.096703
C46	C	1.670280	0.377858	0.596703
C47	C	1.165330	-0.268886	0.097961
C48	C	1.665330	0.231114	0.597961
C49	C	1.295111	0.311103	0.000104
C50	C	1.795111	0.811103	0.500104
C51	C	1.400434	0.325533	0.000107
C52	C	1.900434	0.825533	0.500107
C53	C	1.116387	0.532206	0.000077
C54	C	1.616387	1.032206	0.500077
C55	C	1.119212	0.673440	0.000069
C56	C	1.619212	1.173440	0.500069
N57	N	1.105617	0.320733	0.265610
N58	N	1.605617	0.820733	0.765610
N59	N	1.137875	0.280736	-0.265430
N60	N	1.637875	0.780736	0.234570
C61	C	1.092959	0.336444	0.474651
C62	C	1.592959	0.836444	0.974651
C63	C	1.150530	0.265028	0.525536
C64	C	1.650530	0.765028	1.025536
C65	C	1.143487	0.273770	0.641853
C66	C	1.643487	0.773770	1.141853
C67	C	1.100001	0.327704	0.358323
C68	C	1.600001	0.827704	0.858323
H69	H	0.625107	0.450548	0.000074
H70	H	1.125107	0.950548	0.500074
Br71	Br	1.001997	0.449291	0.547636
Br72	Br	1.501997	0.949291	1.047636
H73	H	0.618374	0.150931	0.000098
H74	H	1.118374	0.650931	0.500098
H75	H	0.983341	-0.085082	-0.069465
H76	H	1.483341	0.414918	0.430535
Br77	Br	0.939603	-0.313408	0.115689
Br78	Br	1.439603	0.186592	0.615689
H79	H	1.146210	-0.323784	-0.169615
H80	H	1.646210	0.176216	0.330385
Br81	Br	0.944397	-0.047423	0.116153
Br82	Br	1.444397	0.452577	0.616153
H83	H	0.978840	-0.304121	-0.070364
H84	H	1.478840	0.195879	0.429636
Br85	Br	1.128064	-0.084974	-0.218590
Br86	Br	1.628064	0.415026	0.281410
H87	H	1.258021	-0.106223	-0.101242
H88	H	1.758021	0.393777	0.398758
H89	H	1.254524	-0.323659	-0.100382
H90	H	1.754524	0.176341	0.399618
H91	H	1.247748	-0.092037	0.097657
H92	H	1.747748	0.407963	0.597657
H93	H	1.132925	-0.077470	0.170346
H94	H	1.632925	0.422530	0.670346
Br95	Br	1.241902	0.152759	0.452552
Br96	Br	1.741902	0.652759	0.952552
H97	H	1.240338	-0.309836	0.104125
H98	H	1.740338	0.190164	0.604125
Br99	Br	1.093572	-0.314069	0.217720
Br100	Br	1.593572	0.185931	0.717720
