data_functionalizedCrystal
_audit_creation_method	'MofGen! by Chris Wilmer'
_symmetry_space_group_name_H-M	'P1'
_symmetry_Int_Tables_number	1
_symmetry_cell_setting	triclinic
loop_
_symmetry_equiv_pos_as_xyz
  x,y,z
_cell_length_a	21.395364
_cell_length_b	29.839131
_cell_length_c	21.395355
_cell_angle_alpha	89.979828
_cell_angle_beta	89.975448
_cell_angle_gamma	90.056371
loop_
_atom_site_label
_atom_site_type_symbol
_atom_site_fract_x
_atom_site_fract_y
_atom_site_fract_z
Zn1	Zn	0.957813	-0.178726	-0.354254
Zn2	Zn	1.457813	0.321274	0.145746
Zn3	Zn	0.957696	-0.253841	-0.249474
Zn4	Zn	1.457696	0.246159	0.250526
Zn5	Zn	0.853028	-0.178746	-0.249491
Zn6	Zn	1.353028	0.321254	0.250509
Zn7	Zn	0.852977	-0.253849	-0.354214
Zn8	Zn	1.352977	0.246151	0.145786
O9	O	0.905378	-0.216291	-0.301858
O10	O	1.405378	0.283709	0.198142
O11	O	1.045475	-0.188679	-0.340365
O12	O	1.545475	0.311321	0.159635
O13	O	0.943783	-0.243885	-0.161798
O14	O	1.443783	0.256115	0.338202
O15	O	0.866998	-0.115876	-0.263412
O16	O	1.366998	0.384124	0.236588
O17	O	1.045389	-0.243866	-0.263383
O18	O	1.545389	0.256134	0.236617
O19	O	0.943983	-0.115862	-0.340381
O20	O	1.443983	0.384138	0.159619
O21	O	0.866884	-0.188712	-0.161811
O22	O	1.366884	0.311288	0.338189
O23	O	0.765343	-0.188720	-0.263373
O24	O	1.265343	0.311280	0.236627
O25	O	0.866912	-0.243879	-0.441897
O26	O	1.366912	0.256121	0.058103
O27	O	0.765306	-0.243898	-0.340313
O28	O	1.265306	0.256102	0.159687
O29	O	0.943934	-0.188687	-0.441927
O30	O	1.443934	0.311313	0.058073
O31	O	0.943734	-0.316710	-0.263344
O32	O	1.443734	0.183290	0.236656
O33	O	0.866798	-0.316716	-0.340296
O34	O	1.366798	0.183284	0.159704
C35	C	0.742591	-0.216313	-0.301841
C36	C	1.242591	0.283687	0.198159
C37	C	0.672949	-0.216333	-0.301848
C38	C	1.172949	0.283667	0.198152
C39	C	0.640303	-0.187644	-0.341994
C40	C	1.140303	0.312356	0.158006
C41	C	0.574868	-0.187632	-0.341997
C42	C	1.074868	0.312368	0.158003
C43	C	0.542081	-0.216317	-0.301859
C44	C	1.042081	0.283683	0.198141
C45	C	0.574735	-0.245008	-0.261705
C46	C	1.074735	0.254992	0.238295
C47	C	0.640169	-0.245016	-0.261699
C48	C	1.140169	0.254984	0.238301
C49	C	0.438346	-0.256775	-0.296820
C50	C	0.938346	0.243225	0.203180
C51	C	0.372913	-0.256768	-0.296830
C52	C	0.872913	0.243232	0.203170
C53	C	0.340260	-0.216292	-0.301873
C54	C	0.840260	0.283708	0.198127
C55	C	0.373048	-0.175823	-0.306919
C56	C	0.873048	0.324177	0.193081
C57	C	0.438483	-0.175831	-0.306914
C58	C	0.938483	0.324169	0.193086
C59	C	0.471129	-0.216311	-0.301861
C60	C	0.971129	0.283689	0.198139
C61	C	0.236662	-0.187588	-0.342024
C62	C	0.736662	0.312412	0.157976
C63	C	0.171225	-0.187575	-0.342022
C64	C	0.671225	0.312425	0.157978
C65	C	0.171093	-0.244955	-0.261734
C66	C	0.671093	0.255045	0.238266
C67	C	0.236529	-0.244964	-0.261733
C68	C	0.736529	0.255036	0.238267
C69	C	0.269309	-0.216281	-0.301881
C70	C	0.769309	0.283719	0.198119
C71	C	0.905265	-0.333013	-0.301827
C72	C	1.405265	0.166987	0.198173
C73	C	0.905274	-0.382948	-0.301835
C74	C	1.405274	0.117052	0.198165
C75	C	0.945512	-0.692575	-0.261848
C76	C	1.445512	-0.192575	0.238152
C77	C	0.945589	-0.880248	-0.261872
C78	C	1.445589	-0.380248	0.238128
O79	O	0.979711	-0.904500	-0.227850
O80	O	1.479711	-0.404500	0.272150
N81	N	0.905508	-0.903733	-0.301905
N82	N	1.405508	-0.403733	0.198095
C83	C	0.865408	-0.880296	-0.341939
C84	C	1.365408	-0.380296	0.158061
O85	O	0.831323	-0.904577	-0.375994
O86	O	1.331323	-0.404577	0.124006
C87	C	0.865334	-0.692624	-0.341917
C88	C	1.365334	-0.192624	0.158083
C89	C	0.905413	-0.669142	-0.301876
C90	C	1.405413	-0.169142	0.198124
C91	C	0.985588	-0.669093	-0.221811
C92	C	1.485588	-0.169093	0.278189
C93	C	0.985566	-0.622178	-0.221803
C94	C	1.485566	-0.122178	0.278197
C95	C	0.945467	-0.598744	-0.261832
C96	C	1.445467	-0.098744	0.238168
C97	C	0.905391	-0.622226	-0.301868
C98	C	1.405391	-0.122226	0.198132
C99	C	0.825238	-0.669188	-0.381953
C100	C	1.325238	-0.169188	0.118047
C101	C	0.825224	-0.622267	-0.381945
C102	C	1.325224	-0.122267	0.118055
C103	C	0.865303	-0.598785	-0.341904
C104	C	1.365303	-0.098785	0.158096
C105	C	0.865271	-0.551878	-0.341889
C106	C	1.365271	-0.051878	0.158111
N107	N	0.905351	-0.528393	-0.301856
N108	N	1.405351	-0.028393	0.198144
C109	C	0.945450	-0.551827	-0.261827
C110	C	1.445450	-0.051827	0.238173
C111	C	0.865449	-0.978827	-0.341946
C112	C	1.365449	-0.478827	0.158054
C113	C	0.865466	-1.025744	-0.341951
C114	C	1.365466	-0.525744	0.158049
C115	C	0.945648	-1.025694	-0.261885
C116	C	1.445648	-0.525694	0.238115
C117	C	0.945627	-0.978775	-0.261878
C118	C	1.445627	-0.478775	0.238122
C119	C	0.905530	-0.955342	-0.301913
C120	C	1.405530	-0.455342	0.198087
C121	C	0.945400	-0.453301	-0.261813
C122	C	1.445400	0.046699	0.238187
C123	C	0.945372	-0.406381	-0.261806
C124	C	1.445372	0.093619	0.238194
C125	C	0.865193	-0.406436	-0.341874
C126	C	1.365193	0.093564	0.158126
C127	C	0.865218	-0.453352	-0.341878
C128	C	1.365218	0.046648	0.158122
C129	C	0.905326	-0.476783	-0.301845
C130	C	1.405326	0.023217	0.198155
O131	O	0.831172	-0.527597	-0.375898
O132	O	1.331172	-0.027597	0.124102
O133	O	0.979540	-0.527537	-0.227786
O134	O	1.479540	-0.027537	0.272214
C135	C	0.945534	-0.739491	-0.261856
C136	C	1.445534	-0.239491	0.238144
C137	C	0.905458	-0.762973	-0.301893
C138	C	1.405458	-0.262973	0.198107
C139	C	0.865359	-0.739539	-0.341921
C140	C	1.365359	-0.239539	0.158079
C141	C	0.905475	-0.809891	-0.301897
C142	C	1.405475	-0.309891	0.198103
C143	C	0.945574	-0.833324	-0.261869
C144	C	1.445574	-0.333324	0.238131
C145	C	0.985654	-0.809840	-0.221835
C146	C	1.485654	-0.309840	0.278165
C147	C	0.985632	-0.762924	-0.221827
C148	C	1.485632	-0.262924	0.278173
C149	C	0.825278	-0.763024	-0.381955
C150	C	1.325278	-0.263024	0.118045
C151	C	0.825303	-0.809939	-0.381959
C152	C	1.325303	-0.309939	0.118041
C153	C	0.865402	-0.833373	-0.341930
C154	C	1.365402	-0.333373	0.158070
C155	C	1.068802	-0.216269	-0.301876
C156	C	1.568802	0.283731	0.198124
C157	C	1.138443	-0.216260	-0.301884
C158	C	1.638443	0.283740	0.198116
C159	C	0.905430	-0.216282	-0.465282
C160	C	1.405430	0.283718	0.034718
C161	C	0.905452	-0.216278	-0.534923
C162	C	1.405452	0.283722	-0.034923
C163	C	0.905509	-0.099112	-0.301903
C164	C	1.405509	0.400888	0.198097
C165	C	0.905565	-0.049178	-0.301922
C166	C	1.405565	0.450822	0.198078
C167	C	0.945556	-0.187538	-0.567652
C168	C	1.445556	0.312462	-0.067652
C169	C	0.945555	-0.187518	-0.633088
C170	C	1.445555	0.312482	-0.133088
C171	C	0.905457	-0.216247	-0.665791
C172	C	1.405457	0.283753	-0.165791
C173	C	0.865346	-0.244989	-0.633054
C174	C	1.365346	0.255011	-0.133054
C175	C	0.865343	-0.245005	-0.567620
C176	C	1.365343	0.254995	-0.067620
C177	C	0.900471	-0.256699	-0.769455
C178	C	1.400471	0.243301	-0.269455
C179	C	0.900478	-0.256685	-0.834888
C180	C	1.400478	0.243315	-0.334888
C181	C	0.905461	-0.216200	-0.867612
C182	C	1.405461	0.283800	-0.367612
C183	C	0.910451	-0.175728	-0.834895
C184	C	1.410451	0.324272	-0.334895
C185	C	0.910449	-0.175743	-0.769461
C186	C	1.410449	0.324257	-0.269461
C187	C	0.905455	-0.216234	-0.736744
C188	C	1.405455	0.283766	-0.236744
C189	C	0.945566	-0.187436	-0.971294
C190	C	1.445566	0.312564	-0.471294
C191	C	0.945561	-0.187416	-1.036731
C192	C	1.445561	0.312584	-0.536731
C193	C	0.865355	-0.244891	-1.036696
C194	C	1.365355	0.255109	-0.536696
C195	C	0.865357	-0.244907	-0.971260
C196	C	1.365357	0.255093	-0.471260
C197	C	0.905466	-0.216180	-0.938563
C198	C	1.405466	0.283820	-0.438563
C199	C	0.905362	-0.216267	-0.139071
C200	C	1.405362	0.283733	0.360929
C201	C	0.905462	-0.216145	-0.069430
C202	C	1.405462	0.283855	0.430570
H203	H	0.978009	-0.387264	-0.229198
H204	H	1.478009	0.112736	0.270802
H205	H	0.792572	-0.603190	-0.414548
H206	H	1.292572	-0.103190	0.085452
H207	H	0.896245	-0.289659	-0.742817
H208	H	1.396245	0.210341	-0.242817
H209	H	0.896418	-0.289639	-0.861521
H210	H	1.396418	0.210361	-0.361521
N211	N	0.539648	-0.156692	-0.385306
N212	N	1.039648	0.343308	0.114694
H213	H	0.493222	-0.161041	-0.379218
H214	H	0.993222	0.338959	0.120782
H215	H	0.551129	-0.124596	-0.375642
H216	H	1.051129	0.375404	0.124358
N217	N	0.822087	-0.275969	-0.668322
N218	N	1.322087	0.224031	-0.168322
H219	H	0.828172	-0.271597	-0.714741
H220	H	1.328172	0.228403	-0.214741
H221	H	0.831792	-0.308057	-0.656890
H222	H	1.331792	0.191943	-0.156890
H223	H	0.978211	-0.164112	-0.659741
H224	H	1.478211	0.335888	-0.159741
N225	N	0.337554	-0.300414	-0.291384
N226	N	0.837554	0.199586	0.208616
H227	H	0.291147	-0.294269	-0.292156
H228	H	0.791147	0.205731	0.207844
H229	H	0.348979	-0.320542	-0.327561
H230	H	0.848979	0.179458	0.172439
N231	N	0.135742	-0.275895	-0.218442
N232	N	0.635742	0.224105	0.281558
H233	H	0.147119	-0.268871	-0.173693
H234	H	0.647119	0.231129	0.326307
H235	H	0.089346	-0.271523	-0.224588
H236	H	0.589346	0.228477	0.275412
H237	H	0.792598	-0.688299	-0.414555
H238	H	1.292598	-0.188299	0.085445
N239	N	0.821985	-0.478682	-0.385056
N240	N	1.321985	0.021318	0.114944
H241	H	0.796578	-0.456716	-0.410411
H242	H	1.296578	0.043284	0.089589
H243	H	0.847485	-0.498112	-0.414081
H244	H	1.347485	0.001888	0.085919
N245	N	0.272028	-0.156656	-0.385324
N246	N	0.772028	0.343344	0.114676
H247	H	0.260697	-0.124543	-0.375679
H248	H	0.760697	0.375457	0.124321
H249	H	0.318421	-0.161059	-0.379208
H250	H	0.818421	0.338941	0.120792
H251	H	0.464927	-0.289737	-0.292713
H252	H	0.964927	0.210263	0.207287
N253	N	0.821941	-0.381157	-0.385042
N254	N	1.321941	0.118843	0.114958
H255	H	0.828014	-0.347872	-0.378959
H256	H	1.328014	0.152128	0.121041
H257	H	0.831675	-0.389332	-0.429801
H258	H	1.331675	0.110668	0.070199
N259	N	1.028841	-0.694364	-0.178634
N260	N	1.528841	-0.194364	0.321366
H261	H	1.054223	-0.672362	-0.153275
H262	H	1.554223	-0.172362	0.346725
H263	H	1.003359	-0.713860	-0.149615
H264	H	1.503359	-0.213860	0.350385
H265	H	0.144646	-0.164211	-0.374713
H266	H	0.644646	0.335789	0.125287
H267	H	0.832795	-0.959751	-0.374548
H268	H	1.332795	-0.459751	0.125452
H269	H	0.792660	-0.829054	-0.414564
H270	H	1.292660	-0.329054	0.085436
H271	H	1.018302	-0.828928	-0.189241
H272	H	1.518302	-0.328928	0.310759
H273	H	1.018268	-0.743809	-0.189223
H274	H	1.518268	-0.243809	0.310777
H275	H	0.465176	-0.142879	-0.311020
H276	H	0.965176	0.357121	0.188980
N277	N	0.988834	-0.156461	-0.936025
N278	N	1.488834	0.343539	-0.436025
H279	H	0.982757	-0.160838	-0.889606
H280	H	1.482757	0.339162	-0.389606
H281	H	1.033567	-0.163457	-0.947493
H282	H	1.533567	0.336543	-0.447493
N283	N	0.782025	-0.737753	-0.425129
N284	N	1.282025	-0.237753	0.074871
H285	H	0.756640	-0.759753	-0.450487
H286	H	1.256640	-0.259753	0.049513
H287	H	0.753033	-0.718324	-0.399592
H288	H	1.253033	-0.218324	0.100408
N289	N	0.915832	-0.132096	-0.734172
N290	N	1.415832	0.367904	-0.234172
H291	H	0.918991	-0.106445	-0.764827
H292	H	1.418991	0.393555	-0.264827
H293	H	0.877661	-0.127936	-0.707007
H294	H	1.377661	0.372064	-0.207007
H295	H	0.263109	-0.268327	-0.229044
H296	H	0.763109	0.231673	0.270956
N297	N	0.539374	-0.275949	-0.218419
N298	N	1.039374	0.224051	0.281581
H299	H	0.569987	-0.294126	-0.192984
H300	H	1.069987	0.205874	0.307016
H301	H	0.512238	-0.257629	-0.189474
H302	H	1.012238	0.242371	0.310526
N303	N	0.988813	-0.156554	-0.532387
N304	N	1.488813	0.343446	-0.032387
H305	H	1.014219	-0.138344	-0.563054
H306	H	1.514219	0.361656	-0.063054
H307	H	0.963333	-0.135772	-0.505229
H308	H	1.463333	0.364228	-0.005229
H309	H	0.666749	-0.268378	-0.229007
H310	H	1.166749	0.231622	0.270993
N311	N	0.988653	-0.478573	-0.218635
N312	N	1.488653	0.021427	0.281365
H313	H	1.033412	-0.470361	-0.228402
H314	H	1.533412	0.029639	0.271598
H315	H	0.978882	-0.470419	-0.173877
H316	H	1.478882	0.029581	0.326123
H317	H	0.914510	-0.142761	-0.861537
H318	H	1.414510	0.357239	-0.361537
N319	N	0.988813	-0.156408	-1.072027
N320	N	1.488813	0.343592	-0.572027
H321	H	1.033572	-0.163382	-1.060660
H322	H	1.533572	0.336618	-0.560660
H323	H	0.982676	-0.160764	-1.118431
H324	H	1.482676	0.339236	-0.618431
N325	N	0.822100	-0.275874	-1.071959
N326	N	1.322100	0.224126	-0.571959
H327	H	0.828184	-0.271503	-1.118378
H328	H	1.328184	0.228497	-0.618378
H329	H	0.831814	-0.307961	-1.060526
H330	H	1.331814	0.192039	-0.560526
H331	H	0.832704	-0.268313	-0.944611
H332	H	1.332704	0.231687	-0.444611
N333	N	0.822078	-0.276003	-0.532323
N334	N	1.322078	0.223997	-0.032323
H335	H	0.831767	-0.308098	-0.543714
H336	H	1.331767	0.191902	-0.043714
H337	H	0.828175	-0.271618	-0.485919
H338	H	1.328175	0.228382	0.014081
N339	N	0.675659	-0.156708	-0.385294
N340	N	1.175659	0.343292	0.114706
H341	H	0.645045	-0.138532	-0.410727
H342	H	1.145045	0.361468	0.089273
H343	H	0.702828	-0.135893	-0.359842
H344	H	1.202828	0.364107	0.140158
H345	H	1.018203	-0.603062	-0.189201
H346	H	1.518203	-0.103062	0.310799
N347	N	0.988856	-0.953450	-0.218694
N348	N	1.488856	-0.453450	0.281306
H349	H	1.014259	-0.975418	-0.193339
H350	H	1.514259	-0.475418	0.306661
H351	H	1.017835	-0.933951	-0.244223
H352	H	1.517835	-0.433951	0.255777
N353	N	0.988896	-1.050972	-0.218709
N354	N	1.488896	-0.550972	0.281291
H355	H	0.982822	-1.084257	-0.224791
H356	H	1.482822	-0.584257	0.275209
H357	H	1.033636	-1.042730	-0.228504
H358	H	1.533636	-0.542730	0.271496
H359	H	0.832824	-1.044859	-0.374550
H360	H	1.332824	-0.544859	0.125450
H361	H	0.346464	-0.142864	-0.311026
H362	H	0.846464	0.357136	0.188974
