data_functionalizedCrystal
_audit_creation_method	'MofGen! by Chris Wilmer'
_symmetry_space_group_name_H-M	'P1'
_symmetry_Int_Tables_number	1
_symmetry_cell_setting	triclinic
loop_
_symmetry_equiv_pos_as_xyz
  x,y,z
_cell_length_a	23.532356
_cell_length_b	11.792254
_cell_length_c	10.268362
_cell_angle_alpha	89.995475
_cell_angle_beta	89.997129
_cell_angle_gamma	96.486822
loop_
_atom_site_label
_atom_site_type_symbol
_atom_site_fract_x
_atom_site_fract_y
_atom_site_fract_z
O1	O	-0.078091	1.505034	-0.108274
O2	O	-0.086128	1.174502	-0.108274
O3	O	0.000765	1.349765	-0.108292
O4	O	-0.164984	1.329770	-0.108255
O5	O	0.000768	1.349750	0.108308
O6	O	-0.086124	1.174487	0.108327
O7	O	-0.078087	1.505018	0.108327
Cu8	Cu	-0.082106	1.339751	0.128104
Cu9	Cu	-0.082110	1.339769	-0.128051
O10	O	-0.164980	1.329755	0.108345
C11	C	-0.085620	1.132216	0.000026
C12	C	-0.084105	1.006239	0.000025
C13	C	-0.082873	0.903932	0.000019
C14	C	-0.081334	0.775582	0.000018
C15	C	-0.186202	1.330263	0.000050
C16	C	-0.249429	1.331766	0.000064
C17	C	-0.641501	1.341215	-0.118069
C18	C	-0.700909	1.342645	-0.118075
O19	O	-0.731634	1.343430	-0.218487
N20	N	-0.730620	1.343345	-0.000007
C21	C	-0.700919	1.342628	0.118075
O22	O	-0.731645	1.343356	0.218500
C23	C	-0.641512	1.341206	0.118080
C24	C	-0.611805	1.340494	0.000004
C25	C	-0.611794	1.340504	-0.236135
C26	C	-0.552390	1.339073	-0.236128
C27	C	-0.522694	1.338352	-0.118055
C28	C	-0.552401	1.339063	0.000011
C29	C	-0.611811	1.340497	0.236161
C30	C	-0.552400	1.339077	0.236155
C31	C	-0.522693	1.338364	0.118080
C32	C	-0.463301	1.336910	0.118091
N33	N	-0.433590	1.336210	0.000023
C34	C	-0.463286	1.336930	-0.118050
C35	C	-0.825678	1.345615	0.118056
C36	C	-0.885085	1.347028	0.118052
C37	C	-0.885071	1.347047	-0.118098
C38	C	-0.825664	1.345626	-0.118094
C39	C	-0.795967	1.344914	-0.000012
C40	C	-0.338534	1.333923	-0.118027
C41	C	-0.279126	1.332486	-0.118009
C42	C	-0.279145	1.332474	0.118140
C43	C	-0.338548	1.333904	0.118124
C44	C	-0.368242	1.334632	0.000030
O45	O	-0.432538	1.336129	0.218452
O46	O	-0.432552	1.336217	-0.218458
C47	C	0.021986	1.349258	0.000001
C48	C	0.085214	1.347755	-0.000022
C49	C	-0.078596	1.547305	0.000024
C50	C	-0.080111	1.673281	0.000017
N51	N	-0.082102	1.339747	0.308270
N52	N	-0.082109	1.339783	-0.308217
C53	C	-0.082109	1.339764	0.573941
C54	C	-0.082107	1.339751	0.426103
H55	H	-0.254941	1.331902	-0.214165
H56	H	-0.528224	1.338498	0.332314
O57	O	-0.370596	1.334668	0.245471
H58	H	-0.339962	1.333932	0.327575
H59	H	-0.801480	1.345043	-0.214241
H60	H	-0.635967	1.341095	-0.332289
O61	O	-0.247102	1.331722	0.245480
H62	H	-0.224867	1.253720	0.251137
H63	H	-0.362704	1.334517	-0.214190
H64	H	-0.528208	1.338501	-0.332277
H65	H	-0.909261	1.347630	-0.214240
O66	O	-0.643836	1.341280	0.363524
H67	H	-0.675740	1.264564	0.369211
H68	H	-0.909269	1.347586	0.214201
H69	H	-0.801504	1.345026	0.214217
