data_functionalizedCrystal
_audit_creation_method	'MofGen! by Chris Wilmer'
_symmetry_space_group_name_H-M	'P1'
_symmetry_Int_Tables_number	1
_symmetry_cell_setting	triclinic
loop_
_symmetry_equiv_pos_as_xyz
  x,y,z
_cell_length_a	27.732048
_cell_length_b	27.732046
_cell_length_c	26.809956
_cell_angle_alpha	89.963902
_cell_angle_beta	89.998605
_cell_angle_gamma	97.357683
loop_
_atom_site_label
_atom_site_type_symbol
_atom_site_fract_x
_atom_site_fract_y
_atom_site_fract_z
O1	O	0.640924	-0.057535	0.041422
O2	O	0.974258	0.275798	0.374755
O3	O	1.307591	0.609132	0.708089
O4	O	0.500131	-0.066280	0.041438
O5	O	0.833464	0.267053	0.374771
O6	O	1.166797	0.600386	0.708105
O7	O	0.574901	0.008489	0.041418
O8	O	0.908234	0.341823	0.374752
O9	O	1.241567	0.675156	0.708085
O10	O	0.566154	-0.132304	0.041442
O11	O	0.899488	0.201029	0.374775
O12	O	1.232821	0.534362	0.708108
O13	O	0.574899	0.008527	-0.041541
O14	O	0.908233	0.341860	0.291792
O15	O	1.241566	0.675194	0.625126
O16	O	0.500129	-0.066242	-0.041521
O17	O	0.833463	0.267091	0.291812
O18	O	1.166796	0.600424	0.625146
O19	O	0.640923	-0.057497	-0.041537
O20	O	0.974256	0.275836	0.291796
O21	O	1.307590	0.609170	0.625129
Zn22	Zn	0.570526	-0.061864	-0.054701
Zn23	Zn	0.903859	0.271470	0.278633
Zn24	Zn	1.237193	0.604803	0.611966
Zn25	Zn	0.570528	-0.061914	0.054602
Zn26	Zn	0.903861	0.271420	0.387935
Zn27	Zn	1.237194	0.604753	0.721268
O28	O	0.566153	-0.132266	-0.041517
O29	O	0.899486	0.201067	0.291816
O30	O	1.232820	0.534400	0.625149
C31	C	0.482123	-0.066078	-0.000040
C32	C	0.815456	0.267256	0.333294
C33	C	1.148790	0.600589	0.666627
C34	C	0.428468	-0.065525	-0.000034
C35	C	0.761802	0.267808	0.333299
C36	C	1.095135	0.601142	0.666633
C37	C	0.089653	-0.106229	-0.000049
C38	C	0.422986	0.227105	0.333284
C39	C	0.756320	0.560438	0.666618
C40	C	-0.112007	-0.104178	-0.000054
C41	C	0.221327	0.229156	0.333280
C42	C	0.554660	0.562489	0.666613
O43	O	-0.143262	-0.141399	-0.000069
O44	O	0.190071	0.191935	0.333264
O45	O	0.523404	0.525268	0.666598
N46	N	-0.131130	-0.059843	-0.000060
N47	N	0.202203	0.273491	0.333273
N48	N	0.535537	0.606824	0.666607
C49	C	-0.099835	-0.016017	-0.000069
C50	C	0.233498	0.317316	0.333265
C51	C	0.566831	0.650650	0.666598
O52	O	-0.120728	0.021740	-0.000079
O53	O	0.212605	0.355073	0.333254
O54	O	0.545939	0.688407	0.666587
C55	C	0.101823	-0.018068	-0.000067
C56	C	0.435157	0.315265	0.333266
C57	C	0.768490	0.648598	0.666599
C58	C	0.120944	-0.062407	-0.000056
C59	C	0.454277	0.270927	0.333277
C60	C	0.787611	0.604260	0.666611
C61	C	0.108774	-0.150563	-0.000038
C62	C	0.442107	0.182770	0.333295
C63	C	0.775441	0.516103	0.666629
C64	C	0.159186	-0.151076	-0.000034
C65	C	0.492519	0.182258	0.333299
C66	C	0.825853	0.515591	0.666633
C67	C	0.190477	-0.107253	-0.000041
C68	C	0.523810	0.226080	0.333292
C69	C	0.857144	0.559413	0.666626
C70	C	0.171356	-0.062919	-0.000052
C71	C	0.504689	0.270414	0.333281
C72	C	0.838023	0.603748	0.666615
C73	C	0.133117	0.025757	-0.000080
C74	C	0.466451	0.359090	0.333254
C75	C	0.799784	0.692423	0.666587
C76	C	0.183535	0.025240	-0.000081
C77	C	0.516868	0.358573	0.333253
C78	C	0.850201	0.691906	0.666586
C79	C	0.202655	-0.019098	-0.000069
C80	C	0.535988	0.314235	0.333264
C81	C	0.869322	0.647568	0.666598
C82	C	0.253059	-0.019609	-0.000055
C83	C	0.586392	0.313724	0.333278
C84	C	0.919725	0.647058	0.666612
N85	N	0.272182	-0.063944	-0.000049
N86	N	0.605516	0.269389	0.333285
N87	N	0.938849	0.602723	0.666618
C88	C	0.240891	-0.107766	-0.000042
C89	C	0.574225	0.225567	0.333292
C90	C	0.907558	0.558900	0.666625
C91	C	-0.205709	-0.014943	-0.000068
C92	C	0.127624	0.318390	0.333265
C93	C	0.460957	0.651724	0.666598
C94	C	-0.256124	-0.014430	-0.000068
C95	C	0.077210	0.318903	0.333266
C96	C	0.410543	0.652237	0.666599
C97	C	-0.268292	-0.102591	-0.000054
C98	C	0.065042	0.230742	0.333280
C99	C	0.398375	0.564076	0.666613
C100	C	-0.217876	-0.103104	-0.000051
C101	C	0.115457	0.230230	0.333283
C102	C	0.448790	0.563563	0.666616
C103	C	-0.186586	-0.059278	-0.000062
C104	C	0.146748	0.274055	0.333271
C105	C	0.480081	0.607388	0.666605
C106	C	0.346760	-0.108839	-0.000033
C107	C	0.680094	0.224494	0.333300
C108	C	1.013427	0.557828	0.666634
C109	C	0.397177	-0.109347	-0.000027
C110	C	0.730511	0.223986	0.333306
C111	C	1.063844	0.557319	0.666640
C112	C	0.409341	-0.021186	-0.000044
C113	C	0.742674	0.312147	0.333290
C114	C	1.076008	0.645480	0.666623
C115	C	0.358928	-0.020678	-0.000047
C116	C	0.692262	0.312656	0.333286
C117	C	1.025595	0.645989	0.666620
C118	C	0.327639	-0.064508	-0.000043
C119	C	0.660972	0.268825	0.333290
C120	C	0.994306	0.602159	0.666623
O121	O	0.284343	0.017592	-0.000045
O122	O	0.617676	0.350925	0.333288
O123	O	0.951010	0.684259	0.666621
O124	O	0.261794	-0.145518	-0.000042
O125	O	0.595127	0.187816	0.333291
O126	O	0.928460	0.521149	0.666625
C127	C	0.039241	-0.105717	-0.000053
C128	C	0.372574	0.227617	0.333281
C129	C	0.705908	0.560950	0.666614
C130	C	0.020120	-0.061382	-0.000064
C131	C	0.353453	0.271951	0.333270
C132	C	0.686787	0.605285	0.666603
C133	C	0.051411	-0.017560	-0.000071
C134	C	0.384744	0.315774	0.333262
C135	C	0.718078	0.649107	0.666596
C136	C	-0.030294	-0.060869	-0.000063
C137	C	0.303039	0.272464	0.333270
C138	C	0.636372	0.605798	0.666603
C139	C	-0.061585	-0.104691	-0.000056
C140	C	0.271748	0.228642	0.333277
C141	C	0.605081	0.561975	0.666611
C142	C	-0.042462	-0.149026	-0.000050
C143	C	0.290871	0.184307	0.333284
C144	C	0.624205	0.517640	0.666617
C145	C	0.007950	-0.149539	-0.000046
C146	C	0.341283	0.183795	0.333288
C147	C	0.674617	0.517128	0.666621
C148	C	0.032287	0.026775	-0.000077
C149	C	0.365621	0.360109	0.333256
C150	C	0.698954	0.693442	0.666589
C151	C	-0.018125	0.027284	-0.000081
C152	C	0.315208	0.360617	0.333253
C153	C	0.648542	0.693951	0.666586
C154	C	-0.049416	-0.016538	-0.000074
C155	C	0.283917	0.316795	0.333260
C156	C	0.617251	0.650129	0.666593
C157	C	0.574717	0.026515	-0.000063
C158	C	0.908050	0.359848	0.333270
C159	C	1.241383	0.693182	0.666604
C160	C	0.574164	0.080170	-0.000068
C161	C	0.907497	0.413503	0.333265
C162	C	1.240831	0.746837	0.666598
C163	C	0.614870	0.418985	-0.000056
C164	C	0.948203	0.752319	0.333278
C165	C	1.281537	1.085652	0.666611
C166	C	0.612820	0.620645	-0.000053
C167	C	0.946153	0.953978	0.333280
C168	C	1.279487	1.287312	0.666613
O169	O	0.650041	0.651901	-0.000037
O170	O	0.983374	0.985234	0.333297
O171	O	1.316708	1.318567	0.666630
N172	N	0.568485	0.639769	-0.000049
N173	N	0.901818	0.973102	0.333284
N174	N	1.235152	1.306436	0.666617
C175	C	0.524659	0.608474	-0.000043
C176	C	0.857993	0.941808	0.333291
C177	C	1.191326	1.275141	0.666624
O178	O	0.486902	0.629367	-0.000034
O179	O	0.820236	0.962701	0.333299
O180	O	1.153569	1.296034	0.666633
C181	C	0.526710	0.406815	-0.000041
C182	C	0.860043	0.740149	0.333292
C183	C	1.193376	1.073482	0.666625
C184	C	0.571047	0.387695	-0.000050
C185	C	0.904381	0.721028	0.333283
C186	C	1.237714	1.054361	0.666616
C187	C	0.659204	0.399864	-0.000064
C188	C	0.992538	0.733197	0.333269
C189	C	1.325871	1.066531	0.666602
C190	C	0.659716	0.349452	-0.000067
C191	C	0.993050	0.682785	0.333266
C192	C	1.326383	1.016119	0.666599
C193	C	0.615894	0.318161	-0.000062
C194	C	0.949227	0.651495	0.333271
C195	C	1.282560	0.984828	0.666604
C196	C	0.571559	0.337283	-0.000054
C197	C	0.904893	0.670616	0.333280
C198	C	1.238226	1.003949	0.666613
C199	C	0.482884	0.375522	-0.000031
C200	C	0.816218	0.708855	0.333302
C201	C	1.149551	1.042188	0.666636
C202	C	0.483401	0.325104	-0.000029
C203	C	0.816734	0.658438	0.333304
C204	C	1.150067	0.991771	0.666637
C205	C	0.527739	0.305984	-0.000038
C206	C	0.861072	0.639317	0.333295
C207	C	1.194405	0.972650	0.666628
C208	C	0.528249	0.255580	-0.000052
C209	C	0.861582	0.588913	0.333282
C210	C	1.194916	0.922247	0.666615
N211	N	0.572584	0.236456	-0.000056
N212	N	0.905917	0.569790	0.333278
N213	N	1.239251	0.903123	0.666611
C214	C	0.616407	0.267747	-0.000061
C215	C	0.949740	0.601080	0.333272
C216	C	1.283073	0.934414	0.666606
C217	C	0.523586	0.714348	-0.000044
C218	C	0.856919	1.047682	0.333289
C219	C	1.190253	1.381015	0.666622
C220	C	0.523073	0.764763	-0.000045
C221	C	0.856407	1.098096	0.333288
C222	C	1.189740	1.431430	0.666621
C223	C	0.611234	0.776930	-0.000055
C224	C	0.944568	1.110264	0.333278
C225	C	1.277901	1.443597	0.666611
C226	C	0.611746	0.726515	-0.000058
C227	C	0.945080	1.059848	0.333276
C228	C	1.278413	1.393182	0.666609
C229	C	0.567921	0.695225	-0.000048
C230	C	0.901254	1.028558	0.333285
C231	C	1.234588	1.361891	0.666618
C232	C	0.617478	0.161878	-0.000068
C233	C	0.950812	0.495211	0.333265
C234	C	1.284145	0.828544	0.666598
C235	C	0.617986	0.111461	-0.000074
C236	C	0.951320	0.444794	0.333260
C237	C	1.284653	0.778127	0.666593
C238	C	0.529826	0.099298	-0.000061
C239	C	0.863159	0.432631	0.333272
C240	C	1.196492	0.765964	0.666606
C241	C	0.529317	0.149710	-0.000058
C242	C	0.862651	0.483044	0.333275
C243	C	1.195984	0.816377	0.666608
C244	C	0.573148	0.181000	-0.000060
C245	C	0.906481	0.514333	0.333273
C246	C	1.239814	0.847666	0.666606
O247	O	0.491048	0.224296	-0.000063
O248	O	0.824381	0.557629	0.333270
O249	O	1.157715	0.890963	0.666604
O250	O	0.654158	0.246844	-0.000059
O251	O	0.987491	0.580178	0.333275
O252	O	1.320824	0.913511	0.666608
C253	C	0.614358	0.469397	-0.000052
C254	C	0.947691	0.802731	0.333281
C255	C	1.281025	1.136064	0.666614
C256	C	0.570024	0.488519	-0.000044
C257	C	0.903357	0.821852	0.333290
C258	C	1.236690	1.155185	0.666623
C259	C	0.526201	0.457228	-0.000039
C260	C	0.859534	0.790561	0.333295
C261	C	1.192868	1.123895	0.666628
C262	C	0.569511	0.538933	-0.000045
C263	C	0.902844	0.872266	0.333288
C264	C	1.236177	1.205600	0.666622
C265	C	0.613333	0.570224	-0.000050
C266	C	0.946667	0.903557	0.333283
C267	C	1.280000	1.236890	0.666616
C268	C	0.657668	0.551100	-0.000054
C269	C	0.991002	0.884433	0.333279
C270	C	1.324335	1.217767	0.666612
C271	C	0.658180	0.500688	-0.000058
C272	C	0.991514	0.834021	0.333276
C273	C	1.324847	1.167355	0.666609
C274	C	0.481866	0.476352	-0.000034
C275	C	0.815199	0.809685	0.333299
C276	C	1.148533	1.143018	0.666632
C277	C	0.481358	0.526764	-0.000032
C278	C	0.814691	0.860098	0.333302
C279	C	1.148024	1.193431	0.666635
C280	C	0.525180	0.558055	-0.000037
C281	C	0.858513	0.891388	0.333296
C282	C	1.191847	1.224722	0.666630
C283	C	0.658931	-0.057699	-0.000058
C284	C	0.992264	0.275634	0.333275
C285	C	1.325597	0.608967	0.666608
C286	C	0.712585	-0.058252	-0.000061
C287	C	1.045919	0.275081	0.333273
C288	C	1.379252	0.608414	0.666606
N289	N	0.570528	-0.061829	-0.129297
N290	N	0.903862	0.271504	0.204037
N291	N	1.237195	0.604838	0.537370
C292	C	0.566339	0.849708	-0.000041
C293	C	0.899672	1.183041	0.333292
C294	C	1.233005	1.516375	0.666626
C295	C	0.566896	0.796054	-0.000051
C296	C	0.900229	1.129387	0.333283
C297	C	1.233562	1.462720	0.666616
N298	N	0.570529	-0.061944	0.129198
N299	N	0.903862	0.271389	0.462531
N300	N	1.237196	0.604722	0.795864
C301	C	0.599571	-0.091059	0.526088
C302	C	0.932904	0.242275	0.859422
C303	C	1.266238	0.575608	1.192755
C304	C	0.599568	-0.091092	0.317211
C305	C	0.932901	0.242242	0.650544
C306	C	1.266235	0.575575	0.983877
O307	O	0.624272	-0.115896	0.290216
O308	O	0.957606	0.217438	0.623549
O309	O	1.290939	0.550771	0.956883
N310	N	0.570535	-0.061917	0.291076
N311	N	0.903868	0.271416	0.624410
N312	N	1.237201	0.604750	0.957743
C313	C	0.541502	-0.032730	0.317164
C314	C	0.874836	0.300604	0.650498
C315	C	1.208169	0.633937	0.983831
O316	O	0.516811	-0.007912	0.290143
O317	O	0.850145	0.325421	0.623476
O318	O	1.183478	0.658755	0.956809
C319	C	0.541509	-0.032695	0.526041
C320	C	0.874842	0.300639	0.859375
C321	C	1.208175	0.633972	1.192708
C322	C	0.570540	-0.061875	0.552173
C323	C	0.903873	0.271459	0.885506
C324	C	1.237207	0.604792	1.218839
C325	C	0.628601	-0.120236	0.552220
C326	C	0.961934	0.213097	0.885553
C327	C	1.295267	0.546431	1.218887
C328	C	0.628599	-0.120229	0.604436
C329	C	0.961933	0.213104	0.937769
C330	C	1.295266	0.546437	1.271103
C331	C	0.599568	-0.091046	0.630521
C332	C	0.932902	0.242288	0.963854
C333	C	1.266235	0.575621	1.297187
C334	C	0.570539	-0.061868	0.604389
C335	C	0.903872	0.271465	0.937722
C336	C	1.237205	0.604798	1.271056
C337	C	0.512479	-0.003505	0.552129
C338	C	0.845813	0.329828	0.885462
C339	C	1.179146	0.663161	1.218795
C340	C	0.512485	-0.003498	0.604351
C341	C	0.845818	0.329835	0.937684
C342	C	1.179151	0.663169	1.271018
C343	C	0.541516	-0.032678	0.630483
C344	C	0.874849	0.300655	0.963816
C345	C	1.208183	0.633989	1.297149
C346	C	0.541506	-0.032678	0.682690
C347	C	0.874840	0.300655	1.016023
C348	C	1.208173	0.633989	1.349357
N349	N	0.570540	-0.061852	0.708824
N350	N	0.903873	0.271481	1.042158
N351	N	1.237206	0.604814	1.375491
C352	C	0.599571	-0.091036	0.682740
C353	C	0.932904	0.242297	1.016073
C354	C	1.266237	0.575630	1.349406
C355	C	0.541500	-0.032751	0.207501
C356	C	0.874834	0.300582	0.540835
C357	C	1.208167	0.633916	0.874168
C358	C	0.541498	-0.032760	0.155282
C359	C	0.874831	0.300573	0.488616
C360	C	1.208165	0.633906	0.821949
C361	C	0.599564	-0.091122	0.155332
C362	C	0.932898	0.242212	0.488665
C363	C	1.266231	0.575545	0.821999
C364	C	0.599564	-0.091114	0.207552
C365	C	0.932897	0.242219	0.540885
C366	C	1.266230	0.575552	0.874218
C367	C	0.570534	-0.061926	0.233636
C368	C	0.903867	0.271408	0.566969
C369	C	1.237200	0.604741	0.900302
C370	C	0.599565	-0.091021	0.792398
C371	C	0.932898	0.242313	1.125731
C372	C	1.266232	0.575646	1.459064
C373	C	0.599559	-0.091013	0.844619
C374	C	0.932893	0.242320	1.177952
C375	C	1.266226	0.575654	1.511285
C376	C	0.541495	-0.032650	0.844564
C377	C	0.874829	0.300683	1.177898
C378	C	1.208162	0.634017	1.511231
C379	C	0.541499	-0.032659	0.792348
C380	C	0.874832	0.300674	1.125681
C381	C	1.208165	0.634007	1.459015
C382	C	0.570537	-0.061846	0.766266
C383	C	0.903871	0.271487	1.099599
C384	C	1.237204	0.604821	1.432933
O385	O	0.516819	-0.007883	0.709717
O386	O	0.850152	0.325451	1.043050
O387	O	1.183485	0.658784	1.376383
O388	O	0.624266	-0.115842	0.709770
O389	O	0.957599	0.217491	1.043104
O390	O	1.290933	0.550825	1.376437
C391	C	0.599573	-0.091065	0.473872
C392	C	0.932906	0.242268	0.807205
C393	C	1.266239	0.575602	1.140539
C394	C	0.570543	-0.061888	0.447740
C395	C	0.903876	0.271446	0.781074
C396	C	1.237210	0.604779	1.114407
C397	C	0.541512	-0.032704	0.473825
C398	C	0.874845	0.300629	0.807158
C399	C	1.208179	0.633963	1.140492
C400	C	0.570541	-0.061897	0.395521
C401	C	0.903874	0.271436	0.728855
C402	C	1.237207	0.604769	1.062188
C403	C	0.599572	-0.091081	0.369437
C404	C	0.932905	0.242252	0.702770
C405	C	1.266238	0.575586	1.036103
C406	C	0.628605	-0.120256	0.395571
C407	C	0.961938	0.213078	0.728904
C408	C	1.295272	0.546411	1.062238
C409	C	0.628604	-0.120249	0.447787
C410	C	0.961937	0.213084	0.781121
C411	C	1.295270	0.546418	1.114454
C412	C	0.512479	-0.003529	0.447691
C413	C	0.845812	0.329804	0.781024
C414	C	1.179145	0.663137	1.114357
C415	C	0.512482	-0.003539	0.395474
C416	C	0.845816	0.329795	0.728808
C417	C	1.179149	0.663128	1.062141
C418	C	0.541513	-0.032723	0.369390
C419	C	0.874847	0.300611	0.702723
C420	C	1.208180	0.633944	1.036056
H421	H	0.057760	0.062462	-0.000084
H422	H	0.391094	0.395795	0.333249
H423	H	0.724427	0.729128	0.666582
Br424	Br	-0.282066	0.045745	-0.000068
Br425	Br	0.051267	0.379079	0.333265
Br426	Br	0.384600	0.712412	0.666598
Br427	Br	0.473075	0.036063	0.360016
Br428	Br	0.806408	0.369396	0.693350
Br429	Br	1.139741	0.702730	1.026683
Br430	Br	0.422386	0.433893	-0.000025
Br431	Br	0.755720	0.767226	0.333309
Br432	Br	1.089053	1.100559	0.666642
H433	H	0.494147	0.073812	-0.000059
H434	H	0.827480	0.407145	0.333275
H435	H	1.160813	0.740479	0.666608
H436	H	0.652241	-0.144021	0.374324
H437	H	0.985574	0.189313	0.707657
H438	H	1.318907	0.522646	1.040990
Br439	Br	-0.310767	-0.162064	-0.000045
Br440	Br	0.022566	0.171269	0.333289
Br441	Br	0.355899	0.504603	0.666622
H442	H	0.694285	0.485125	-0.000065
H443	H	1.027618	0.818458	0.333268
H444	H	1.360951	1.151792	0.666602
Br445	Br	0.668006	-0.159848	0.516829
Br446	Br	1.001339	0.173486	0.850163
Br447	Br	1.334672	0.506819	1.183496
Br448	Br	0.033891	-0.209715	-0.000029
Br449	Br	0.367224	0.123618	0.333304
Br450	Br	0.700558	0.456952	0.666638
H451	H	0.653169	0.187348	-0.000068
H452	H	0.986503	0.520681	0.333265
H453	H	1.319836	0.854015	0.666599
Br454	Br	0.638975	-0.130631	0.757009
Br455	Br	0.972309	0.202702	1.090342
Br456	Br	1.305642	0.536036	1.423675
Br457	Br	0.423920	0.282641	-0.000014
Br458	Br	0.757253	0.615975	0.333319
Br459	Br	1.090586	0.949308	0.666652
H460	H	0.647850	0.710951	-0.000065
H461	H	0.981184	1.044284	0.333269
H462	H	1.314517	1.377617	0.666602
Br463	Br	0.638964	-0.130727	0.119921
Br464	Br	0.972298	0.202606	0.453255
Br465	Br	1.305631	0.535940	0.786588
Br466	Br	-0.084938	-0.208499	-0.000036
Br467	Br	0.248395	0.124834	0.333297
Br468	Br	0.581729	0.458168	0.666630
Br469	Br	-0.191933	-0.163279	-0.000035
Br470	Br	0.141401	0.170055	0.333298
Br471	Br	0.474734	0.503388	0.666631
H472	H	-0.033688	0.063392	-0.000086
H473	H	0.299646	0.396726	0.333247
H474	H	0.632979	0.730059	0.666581
H475	H	0.488845	0.020272	0.625586
H476	H	0.822178	0.353605	0.958919
H477	H	1.155511	0.686939	1.292252
H478	H	0.517859	-0.008981	0.228734
H479	H	0.851193	0.324353	0.562067
H480	H	1.184526	0.657686	0.895400
H481	H	0.693350	0.576586	-0.000061
H482	H	1.026683	0.909919	0.333273
H483	H	1.360017	1.243253	0.666606
H484	H	0.517853	-0.008905	0.771071
H485	H	0.851186	0.324429	1.104404
H486	H	1.184519	0.657762	1.437737
H487	H	0.654093	0.095896	-0.000082
H488	H	0.987427	0.429229	0.333251
H489	H	1.320760	0.762562	0.666584
H490	H	0.517858	-0.008891	0.865812
H491	H	0.851191	0.324443	1.199145
H492	H	1.184524	0.657776	1.532479
H493	H	0.623200	-0.114777	0.865893
H494	H	0.956533	0.218556	1.199226
H495	H	1.289867	0.551889	1.532559
Br496	Br	0.469144	0.175661	-0.000058
Br497	Br	0.802477	0.508994	0.333276
Br498	Br	1.135811	0.842328	0.666609
Br499	Br	0.421179	0.552707	-0.000023
Br500	Br	0.754512	0.886040	0.333310
Br501	Br	1.087845	1.219373	0.666643
H502	H	0.695821	0.333889	-0.000073
H503	H	1.029154	0.667222	0.333260
H504	H	1.362487	1.000556	0.666594
H505	H	0.209010	0.060929	-0.000090
H506	H	0.542343	0.394262	0.333243
H507	H	0.875676	0.727595	0.666577
Br508	Br	0.718686	0.442322	-0.000071
Br509	Br	1.052019	0.775655	0.333262
Br510	Br	1.385353	1.108988	0.666596
Br511	Br	0.473067	0.036074	0.483083
Br512	Br	0.806401	0.369407	0.816416
Br513	Br	1.139734	0.702740	1.149750
Br514	Br	0.462898	0.790706	-0.000045
Br515	Br	0.796231	1.124039	0.333288
Br516	Br	1.129565	1.457373	0.666622
Br517	Br	0.667992	-0.159843	0.639892
Br518	Br	1.001325	0.173491	0.973226
Br519	Br	1.334658	0.506824	1.306559
H520	H	0.623203	-0.114876	0.228825
H521	H	0.956537	0.218458	0.562158
H522	H	1.289870	0.551791	0.895491
Br523	Br	0.502087	0.006833	0.119824
Br524	Br	0.835421	0.340167	0.453158
Br525	Br	1.168754	0.673500	0.786491
H526	H	0.646916	0.802416	-0.000060
H527	H	0.980249	1.135749	0.333273
H528	H	1.313583	1.469083	0.666607
Br529	Br	0.107182	0.085934	-0.000084
Br530	Br	0.440515	0.419267	0.333249
Br531	Br	0.773848	0.752600	0.666582
H532	H	0.487896	0.688875	-0.000037
H533	H	0.821229	1.022209	0.333297
H534	H	1.154562	1.355542	0.666630
H535	H	0.652244	-0.144011	0.469059
H536	H	0.985577	0.189323	0.802392
H537	H	1.318911	0.522656	1.135726
Br538	Br	0.423123	-0.169524	-0.000008
Br539	Br	0.756456	0.163809	0.333325
Br540	Br	1.089790	0.497142	0.666659
Br541	Br	0.304304	-0.168323	-0.000029
Br542	Br	0.637637	0.165010	0.333305
Br543	Br	0.970970	0.498344	0.666638
H544	H	0.488840	0.020257	0.530861
H545	H	0.822173	0.353590	0.864194
H546	H	1.155506	0.686924	1.197528
Br547	Br	0.185127	-0.211252	-0.000021
Br548	Br	0.518460	0.122081	0.333313
Br549	Br	0.851794	0.455415	0.666646
H550	H	0.343360	0.015426	-0.000049
H551	H	0.676693	0.348759	0.333284
H552	H	1.010027	0.682093	0.666618
Br553	Br	-0.163250	0.044540	-0.000084
Br554	Br	0.170083	0.377874	0.333250
Br555	Br	0.503417	0.711207	0.666583
H556	H	0.446780	0.391081	-0.000020
H557	H	0.780113	0.724414	0.333313
H558	H	1.113446	1.057747	0.666646
Br559	Br	0.451816	0.038284	-0.000054
Br560	Br	0.785150	0.371617	0.333279
Br561	Br	1.118483	0.704950	0.666612
H562	H	0.083301	-0.186251	-0.000034
H563	H	0.416635	0.147083	0.333299
H564	H	0.749968	0.480416	0.666633
