data_functionalizedCrystal
_audit_creation_method	'MofGen! by Chris Wilmer'
_symmetry_space_group_name_H-M	'P1'
_symmetry_Int_Tables_number	1
_symmetry_cell_setting	triclinic
loop_
_symmetry_equiv_pos_as_xyz
  x,y,z
_cell_length_a	6.817900
_cell_length_b	16.256208
_cell_length_c	17.110486
_cell_angle_alpha	96.310115
_cell_angle_beta	99.060439
_cell_angle_gamma	103.499088
loop_
_atom_site_label
_atom_site_type_symbol
_atom_site_fract_x
_atom_site_fract_y
_atom_site_fract_z
V1	V	-3.976946	-0.116841	-0.247001
O2	O	-3.965371	0.005874	-0.242009
O3	O	-3.928839	-0.231926	-0.245591
O4	O	-3.906803	-0.114930	-0.354600
O5	O	-3.987559	-0.111932	-0.132246
V6	V	-4.463353	-0.102177	-0.233242
O7	O	-4.231877	-0.149010	-0.277184
O8	O	-4.658619	-0.070008	-0.203059
O9	O	-4.288254	0.012908	-0.234652
O10	O	-4.592325	-0.224892	-0.238234
O11	O	-4.570137	-0.107086	-0.347997
O12	O	-4.310290	-0.104088	-0.125643
C13	C	-3.774614	-0.259985	-0.241766
C14	C	-3.816423	-0.354068	-0.241330
C15	C	-4.131749	-0.642162	-0.244128
C16	C	-3.988935	-0.572745	-0.176751
C17	C	-3.966770	-0.692707	-0.239728
C18	C	-4.035208	-0.594485	-0.307870
C19	C	-3.892911	-0.526322	-0.240517
C20	C	-3.824486	-0.624520	-0.172291
C21	C	-3.870809	-0.646276	-0.303469
C22	C	-3.727862	-0.576879	-0.236073
C23	C	-4.009325	-0.788556	-0.239273
C24	C	-3.850341	-0.430474	-0.240966
C25	C	-3.746505	-0.110744	-0.380817
C26	C	-3.770441	-0.109943	-0.468781
C27	C	-3.962983	-0.113791	-0.514148
C28	C	-3.985461	-0.113037	-0.596800
C29	C	-3.815398	-0.108443	-0.634084
C30	C	-3.622838	-0.104592	-0.588710
C31	C	-3.600359	-0.105339	-0.506059
C32	C	-3.874196	-0.105970	-0.883432
C33	C	-3.896691	-0.105226	-0.966090
C34	C	-4.259313	-0.113669	-0.974174
C35	C	-4.236820	-0.114421	-0.891522
C36	C	-4.044261	-0.110566	-0.846155
C37	C	-3.838371	-0.107675	-0.718567
C38	C	-4.021288	-0.111328	-0.761672
C39	C	-4.105821	0.040963	-0.238475
C40	C	-4.043249	0.135044	-0.238916
C41	C	-4.133931	-0.108277	-0.099422
C42	C	-4.089234	-0.109073	-0.011457
H43	H	-4.101475	-0.117538	-0.483799
H44	H	-3.443562	-0.102186	-0.469119
H45	H	-4.038429	-0.540729	-0.123179
H46	H	-4.159750	-0.115066	-0.731312
H47	H	-4.375308	-0.118162	-0.861171
H48	H	-3.758192	-0.101482	-0.996443
H49	H	-3.717421	-0.102861	-0.846509
H50	H	-4.302836	-0.670665	-0.247445
H51	H	-4.142245	-0.116166	-0.633734
H52	H	-4.416087	-0.116807	-1.011120
H53	H	-3.484368	-0.100846	-0.619072
H54	H	-3.699910	-0.103938	-0.748933
H55	H	-3.821393	-0.678312	-0.357046
H56	H	-3.735812	-0.638038	-0.114933
H57	H	-3.556676	-0.548512	-0.232651
H58	H	-4.123903	-0.580859	-0.365171
