data_functionalizedCrystal
_audit_creation_method	'MofGen! by Chris Wilmer'
_symmetry_space_group_name_H-M	'P1'
_symmetry_Int_Tables_number	1
_symmetry_cell_setting	triclinic
loop_
_symmetry_equiv_pos_as_xyz
  x,y,z
_cell_length_a	15.944551
_cell_length_b	11.026607
_cell_length_c	10.065875
_cell_angle_alpha	100.697662
_cell_angle_beta	98.788968
_cell_angle_gamma	83.957623
loop_
_atom_site_label
_atom_site_type_symbol
_atom_site_fract_x
_atom_site_fract_y
_atom_site_fract_z
O1	O	0.342077	-1.627949	-0.113512
O2	O	0.302024	-1.274640	-0.113511
O3	O	0.201235	-1.460941	-0.113499
O4	O	0.442866	-1.441648	-0.113524
O5	O	0.220553	-1.425416	0.113487
O6	O	0.321342	-1.239115	0.113475
O7	O	0.361394	-1.592424	0.113475
Zn8	Zn	0.344435	-1.410129	0.149514
Zn9	Zn	0.318983	-1.456935	-0.149550
O10	O	0.462183	-1.406123	0.113463
C11	C	0.304294	-1.211666	-0.000018
C12	C	0.282267	-1.076950	-0.000017
C13	C	0.179479	-1.442377	-0.000006
C14	C	0.085870	-1.439975	-0.000005
N15	N	0.361806	-1.378194	0.353617
C16	C	-0.147313	-1.318759	-0.000024
C17	C	-0.190296	-1.357533	0.111894
C18	C	-0.085514	-1.435632	-0.000015
C19	C	-0.209321	-1.392586	-0.111896
C20	C	-0.251063	-1.431429	-0.000031
C21	C	-0.127256	-1.474424	0.111995
C22	C	-0.146286	-1.509476	-0.111896
C23	C	-0.189236	-1.548331	0.000049
C24	C	0.009855	-1.438050	-0.000005
C25	C	-0.346429	-1.429019	-0.000032
C26	C	0.483939	-1.424687	-0.000034
C27	C	0.577548	-1.427090	-0.000043
C28	C	0.359124	-1.655399	-0.000022
C29	C	0.381150	-1.790116	-0.000031
C30	C	0.343086	-1.003150	-0.000024
C31	C	0.320322	-0.863914	-0.000024
N32	N	0.301607	-1.488879	-0.353654
C33	C	0.325021	-1.445816	0.421401
C34	C	0.338398	-1.421248	0.578566
H35	H	-0.128661	-1.221730	0.000088
O36	O	0.425361	-1.050525	0.000027
C37	C	0.570686	-1.008779	-0.000078
C38	C	0.477546	-0.954966	-0.000103
H39	H	0.612902	-0.931550	-0.000211
H40	H	0.592180	-1.052418	0.094938
H41	H	0.575917	-1.082241	-0.095049
H42	H	0.472244	-0.881459	0.094804
H43	H	0.456094	-0.911407	-0.095181
H44	H	-0.244926	-1.357946	-0.206521
O45	O	0.238053	-0.816527	0.000042
C46	C	0.092713	-0.858301	-0.000034
C47	C	0.185846	-0.912125	-0.000075
H48	H	0.050475	-0.935570	-0.000157
H49	H	0.087391	-0.784920	0.094983
H50	H	0.071317	-0.814567	-0.095004
H51	H	0.207303	-0.955924	0.094831
H52	H	0.191116	-0.985445	-0.095154
O53	O	0.200049	-1.029385	0.000230
C54	C	0.076633	-0.996783	0.117789
C55	C	0.169750	-1.050673	0.117697
H56	H	0.052102	-1.013997	0.212736
H57	H	0.072880	-0.892948	0.117876
H58	H	0.035958	-1.043586	0.022754
H59	H	0.210481	-1.003966	0.212716
H60	H	0.173436	-1.154513	0.117538
O61	O	0.463398	-0.837571	-0.000226
C62	C	0.586772	-0.870280	-0.117891
C63	C	0.493638	-0.816464	-0.117820
H64	H	0.611243	-0.853258	-0.212969
H65	H	0.627524	-0.823431	-0.022969
H66	H	0.590476	-0.974084	-0.117824
H67	H	0.489852	-0.712666	-0.117934
H68	H	0.452928	-0.863408	-0.212733
O69	O	-0.123048	-1.586225	-0.224736
C70	C	-0.119051	-1.793550	-0.353601
C71	C	-0.145430	-1.706775	-0.225759
H72	H	-0.137120	-1.891038	-0.354456
H73	H	-0.153151	-1.758613	-0.448992
H74	H	-0.047289	-1.795248	-0.351949
H75	H	-0.217180	-1.705037	-0.227279
H76	H	-0.111270	-1.741743	-0.130424
H77	H	0.283620	-1.521895	0.363081
H78	H	0.403200	-1.302107	0.411939
O79	O	0.387674	-1.330315	0.648066
C80	C	0.409072	-1.112614	0.692035
C81	C	0.353185	-1.215467	0.613265
H82	H	0.381219	-1.019740	0.663906
H83	H	0.411046	-1.108863	0.806411
H84	H	0.476369	-1.133121	0.664031
H85	H	0.285861	-1.195033	0.641155
H86	H	0.351282	-1.219194	0.498909
O87	O	0.251987	-1.579375	0.576779
C88	C	0.127124	-1.629370	0.415809
C89	C	0.183357	-1.526860	0.494391
H90	H	0.071615	-1.586947	0.349201
H91	H	0.166542	-1.700761	0.348658
H92	H	0.101556	-1.676291	0.491479
H93	H	0.208938	-1.479843	0.418820
H94	H	0.143902	-1.455550	0.561562
O95	O	-0.213720	-1.280806	0.224628
C96	C	-0.299550	-1.098985	0.312354
C97	C	-0.273117	-1.185804	0.184578
H98	H	-0.347563	-1.022141	0.280019
H99	H	-0.329628	-1.153911	0.375601
H100	H	-0.240973	-1.056584	0.376049
H101	H	-0.331651	-1.228227	0.120778
H102	H	-0.243008	-1.130818	0.121433
O103	O	-0.085023	-1.515734	0.225044
C104	C	-0.096301	-1.589044	0.432237
C105	C	-0.144237	-1.542314	0.304254
H106	H	-0.144154	-1.610523	0.496328
H107	H	-0.054192	-1.676536	0.400221
H108	H	-0.055058	-1.514575	0.494960
H109	H	-0.185525	-1.616695	0.241474
H110	H	-0.186292	-1.454791	0.336364
H111	H	-0.207712	-1.645418	0.000112
