data_functionalizedCrystal
_audit_creation_method	'MofGen! by Chris Wilmer'
_symmetry_space_group_name_H-M	'P1'
_symmetry_Int_Tables_number	1
_symmetry_cell_setting	triclinic
loop_
_symmetry_equiv_pos_as_xyz
  x,y,z
_cell_length_a	14.519709
_cell_length_b	14.048226
_cell_length_c	14.971494
_cell_angle_alpha	89.995286
_cell_angle_beta	83.648851
_cell_angle_gamma	89.999158
loop_
_atom_site_label
_atom_site_type_symbol
_atom_site_fract_x
_atom_site_fract_y
_atom_site_fract_z
O1	O	1.223803	-0.079033	0.117252
O2	O	1.723803	0.420967	0.617252
O3	O	0.955319	-0.079062	0.131060
O4	O	1.455319	0.420938	0.631060
O5	O	1.096753	-0.079044	-0.006039
O6	O	1.596753	0.420956	0.493961
O7	O	1.082369	-0.079050	0.254352
O8	O	1.582369	0.420950	0.754352
O9	O	1.096736	0.079277	-0.006048
O10	O	1.596736	0.579277	0.493952
O11	O	0.955302	0.079260	0.131052
O12	O	1.455302	0.579260	0.631052
O13	O	1.223786	0.079288	0.117244
O14	O	1.723786	0.579288	0.617244
Zn15	Zn	1.089541	0.104411	0.124147
Zn16	Zn	1.589541	0.604411	0.624147
Zn17	Zn	1.089564	-0.104184	0.124157
Zn18	Zn	1.589564	0.395816	0.624157
O19	O	1.082352	0.079271	0.254343
O20	O	1.582352	0.579271	0.754343
C21	C	0.920951	0.000095	0.130412
C22	C	1.420951	0.500095	0.630412
C23	C	0.818571	0.000084	0.128484
C24	C	1.318571	0.500084	0.628484
N25	N	1.089533	0.246772	0.124139
N26	N	1.589533	0.746772	0.624139
N27	N	1.089580	-0.246545	0.124158
N28	N	1.589580	0.253455	0.624158
C29	C	0.443679	0.000128	0.121385
C30	C	0.943679	0.500128	0.621385
C31	C	0.547986	0.000115	0.123356
C32	C	1.047986	0.500115	0.623356
C33	C	0.631121	0.000105	0.124934
C34	C	1.131121	0.500105	0.624934
C35	C	0.735435	0.000095	0.126906
C36	C	1.235435	0.500095	0.626906
C37	C	1.258154	0.000129	0.117892
C38	C	1.758154	0.500129	0.617892
C39	C	1.360535	0.000134	0.119820
C40	C	1.860535	0.500134	0.619820
C41	C	1.096100	0.000115	-0.039368
C42	C	1.596100	0.500115	0.460632
C43	C	1.094168	0.000110	-0.138666
C44	C	1.594168	0.500110	0.361334
C45	C	1.152180	0.296597	0.063456
C46	C	1.652180	0.796597	0.563456
C47	C	1.152186	0.396255	0.063456
C48	C	1.652186	0.896255	0.563456
C49	C	1.089549	0.446085	0.124143
C50	C	1.589549	0.946085	0.624143
C51	C	1.026895	0.396252	0.184828
C52	C	1.526895	0.896252	0.684828
C53	C	1.026885	0.296597	0.184824
C54	C	1.526885	0.796597	0.684824
C55	C	1.026922	0.603967	0.184835
C56	C	1.526922	1.103967	0.684835
C57	C	1.026933	0.703629	0.184841
C58	C	1.526933	1.203629	0.684841
C59	C	1.152222	0.703625	0.063467
C60	C	1.652222	1.203625	0.563467
C61	C	1.152212	0.603969	0.063462
C62	C	1.652212	1.103969	0.563462
C63	C	1.089560	0.554143	0.124149
C64	C	1.589560	1.054143	0.624149
C65	C	1.093272	-0.086192	-0.185307
C66	C	1.593272	0.413808	0.314693
C67	C	1.091451	-0.086193	-0.278607
C68	C	1.591451	0.413807	0.221393
C69	C	1.090532	0.000108	-0.325265
C70	C	1.590532	0.500108	0.174735
C71	C	1.091426	0.086417	-0.278618
C72	C	1.591426	0.586417	0.221382
C73	C	1.093240	0.086418	-0.185319
C74	C	1.593240	0.586418	0.314681
C75	C	1.087646	0.086410	-0.473083
C76	C	1.587646	0.586410	0.026917
C77	C	1.085833	0.086410	-0.566389
C78	C	1.585833	0.586410	-0.066389
C79	C	1.085856	-0.086201	-0.566372
C80	C	1.585856	0.413799	-0.066372
C81	C	1.087671	-0.086200	-0.473072
C82	C	1.587671	0.413800	0.026928
C83	C	1.088566	0.000109	-0.426431
C84	C	1.588566	0.500109	0.073569
C85	C	1.083005	0.000110	0.287672
C86	C	1.583005	0.500110	0.787672
C87	C	1.084937	0.000108	0.386970
C88	C	1.584937	0.500108	0.886970
H89	H	1.203190	0.256032	0.014042
H90	H	1.703190	0.756032	0.514042
C91	C	1.094282	-0.181132	-0.133991
C92	C	1.594282	0.318868	0.366009
N93	N	1.095038	-0.252645	-0.095342
N94	N	1.595038	0.247355	0.404658
H95	H	1.090725	-0.156469	-0.316578
H96	H	1.590725	0.343531	0.183422
C97	C	1.088685	-0.181136	-0.421750
C98	C	1.588685	0.318864	0.078250
N99	N	1.089446	-0.252644	-0.383094
N100	N	1.589446	0.247356	0.116906
H101	H	1.203197	0.436823	0.014043
H102	H	1.703197	0.936823	0.514043
C103	C	0.957976	0.241789	0.251586
C104	C	1.457976	0.741789	0.751586
N105	N	0.906072	0.200509	0.301875
N106	N	1.406072	0.700509	0.801875
C107	C	1.221138	0.758435	-0.003293
C108	C	1.721138	1.258435	0.496707
N109	N	1.273044	0.799723	-0.053572
N110	N	1.773044	1.299723	0.446428
C111	C	0.958024	0.758441	0.251594
C112	C	1.458024	1.258441	0.751594
N113	N	0.906119	0.799725	0.301873
N114	N	1.406119	1.299725	0.801873
C115	C	1.084866	-0.181142	-0.617678
C116	C	1.584866	0.318858	-0.117678
N117	N	1.084122	-0.252649	-0.656326
N118	N	1.584122	0.247351	-0.156326
C119	C	1.221116	0.549158	-0.003296
C120	C	1.721116	1.049158	0.496704
N121	N	1.273013	0.507874	-0.053583
N122	N	1.773013	1.007874	0.446417
H123	H	1.085078	0.156685	-0.604375
H124	H	1.585078	0.656685	-0.104375
C125	C	0.957985	0.451069	0.251576
C126	C	1.457985	0.951069	0.751576
N127	N	0.906080	0.492356	0.301852
N128	N	1.406080	0.992356	0.801852
C129	C	1.088634	0.181356	-0.421781
C130	C	1.588634	0.681356	0.078219
N131	N	1.089385	0.252867	-0.383140
N132	N	1.589385	0.752867	0.116860
C133	C	1.094229	0.181357	-0.134015
C134	C	1.594229	0.681357	0.365985
N135	N	1.094971	0.252868	-0.095373
N136	N	1.594971	0.752868	0.404627
H137	H	1.090673	0.156686	-0.316614
H138	H	1.590673	0.656686	0.183386
H139	H	0.975900	0.563402	0.234250
H140	H	1.475900	1.063402	0.734250
