data_functionalizedCrystal
_audit_creation_method	'MofGen! by Chris Wilmer'
_symmetry_space_group_name_H-M	'P1'
_symmetry_Int_Tables_number	1
_symmetry_cell_setting	triclinic
loop_
_symmetry_equiv_pos_as_xyz
  x,y,z
_cell_length_a	6.817900
_cell_length_b	11.102188
_cell_length_c	12.908943
_cell_angle_alpha	94.412855
_cell_angle_beta	100.860631
_cell_angle_gamma	108.603875
loop_
_atom_site_label
_atom_site_type_symbol
_atom_site_fract_x
_atom_site_fract_y
_atom_site_fract_z
V1	V	-4.022079	-0.174252	-0.328682
O2	O	-3.982824	0.010006	-0.322425
O3	O	-3.999459	-0.347083	-0.326434
O4	O	-3.959852	-0.170856	-0.472032
O5	O	-4.022705	-0.167442	-0.175820
V6	V	-4.504159	-0.152298	-0.310398
O7	O	-4.286505	-0.222412	-0.368789
O8	O	-4.689930	-0.104138	-0.270292
O9	O	-4.303573	0.020533	-0.312646
O10	O	-4.660810	-0.336556	-0.316655
O11	O	-4.620929	-0.159109	-0.463261
O12	O	-4.343179	-0.155694	-0.167049
C13	C	-3.851178	-0.389238	-0.321249
C14	C	-3.913878	-0.530525	-0.320367
C15	C	-3.800655	-0.164441	-0.506972
C16	C	-3.831231	-0.162807	-0.624161
C17	C	-3.909436	-0.579219	-0.223415
C18	C	-3.968371	-0.711974	-0.222590
C19	C	-4.036181	-0.747332	-0.415677
C20	C	-3.977261	-0.614579	-0.416501
C21	C	-4.125514	-0.876300	-0.108860
C22	C	-4.121037	-0.924996	-0.011902
C23	C	-3.954612	-0.862161	0.076448
C24	C	-3.792614	-0.750629	0.067846
C25	C	-3.797077	-0.701940	-0.029113
C26	C	-3.963547	-0.764774	-0.117461
C27	C	-3.820097	-0.450249	-0.530225
C28	C	-3.824545	-0.401557	-0.627184
C29	C	-3.990960	-0.464390	-0.715543
C30	C	-4.152933	-0.575927	-0.706950
C31	C	-4.148486	-0.624619	-0.609990
C32	C	-3.982070	-0.561776	-0.521632
C33	C	-4.253820	-0.172350	-0.855107
C34	C	-4.282559	-0.170816	-0.965217
C35	C	-3.917446	-0.158196	-0.954491
C36	C	-3.888707	-0.159730	-0.844381
C37	C	-4.056903	-0.166809	-0.794694
C38	C	-4.028166	-0.168352	-0.684583
C39	C	-3.663052	-0.155723	-0.673858
C40	C	-3.691791	-0.154189	-0.783968
C41	C	-4.115196	0.062681	-0.317829
C42	C	-4.031734	0.203967	-0.318718
C43	C	-4.165720	-0.162113	-0.132103
C44	C	-4.114381	-0.163741	-0.014913
H45	H	-3.857827	-0.510784	-0.145136
C46	C	-4.308531	-0.945477	-0.206065
N47	N	-4.446351	-0.997608	-0.279289
H48	H	-3.502707	-0.151217	-0.624657
C49	C	-3.618901	-0.579258	-0.038577
N50	N	-3.484701	-0.486846	-0.045700
C51	C	-4.213181	-0.176134	-0.629928
N52	N	-4.352539	-0.181989	-0.588764
C53	C	-4.336003	-0.645049	-0.804148
N54	N	-4.473889	-0.697109	-0.877362
H55	H	-3.780515	-0.152423	-0.994965
C56	C	-4.105863	-0.839801	-0.521418
N57	N	-4.158331	-0.909448	-0.601064
H58	H	-4.252952	-1.015807	-0.004905
C59	C	-4.499180	-0.176912	-1.031669
N60	N	-4.662347	-0.181503	-1.081720
C61	C	-3.609527	-0.681524	0.165038
N62	N	-3.471625	-0.629469	0.238247
H63	H	-3.950972	-0.901819	0.155393
C64	C	-4.326675	-0.747309	-0.600539
N65	N	-4.460888	-0.839717	-0.593419
H66	H	-3.994554	-0.424740	-0.794494
H67	H	-3.692632	-0.310745	-0.634179
C68	C	-3.637024	-0.381118	-0.433026
N69	N	-3.499126	-0.329048	-0.359819
H70	H	-4.390778	-0.178127	-0.814653
H71	H	-3.554856	-0.148421	-0.824438
