data_functionalizedCrystal
_audit_creation_method	'MofGen! by Chris Wilmer'
_symmetry_space_group_name_H-M	'P1'
_symmetry_Int_Tables_number	1
_symmetry_cell_setting	triclinic
loop_
_symmetry_equiv_pos_as_xyz
  x,y,z
_cell_length_a	16.120530
_cell_length_b	15.297510
_cell_length_c	15.298431
_cell_angle_alpha	91.662882
_cell_angle_beta	96.298350
_cell_angle_gamma	82.668652
loop_
_atom_site_label
_atom_site_type_symbol
_atom_site_fract_x
_atom_site_fract_y
_atom_site_fract_z
Zn1	Zn	1.124458	0.312606	-0.625760
Zn2	Zn	1.624458	0.812606	-0.125760
Zn3	Zn	1.116344	0.484099	-0.504100
Zn4	Zn	1.616344	0.984099	-0.004100
Zn5	Zn	1.006400	0.332784	-0.471934
Zn6	Zn	1.506400	0.832784	0.028066
Zn7	Zn	0.960315	0.451807	-0.640778
Zn8	Zn	1.460315	0.951807	-0.140778
O9	O	1.051879	0.395324	-0.560643
O10	O	1.551879	0.895324	-0.060643
O11	O	1.238089	0.340425	-0.616798
O12	O	1.738089	0.840425	-0.116798
O13	O	1.117651	0.485985	-0.378256
O14	O	1.617651	0.985985	0.121744
O15	O	1.044743	0.208525	-0.472592
O16	O	1.544743	0.708525	0.027408
O17	O	1.232127	0.466419	-0.527415
O18	O	1.732127	0.966419	-0.027415
O19	O	1.131480	0.193701	-0.585608
O20	O	1.631480	0.693701	-0.085608
O21	O	1.036875	0.374815	-0.354623
O22	O	1.536875	0.874815	0.145377
O23	O	0.885580	0.343503	-0.487155
O24	O	1.385580	0.843503	0.012845
O25	O	0.966198	0.411383	-0.760363
O26	O	1.466198	0.911383	-0.260363
O27	O	0.851721	0.430949	-0.611204
O28	O	1.351721	0.930949	-0.111204
O29	O	1.086793	0.309113	-0.749330
O30	O	1.586793	0.809113	-0.249330
O31	O	1.072964	0.601397	-0.541977
O32	O	1.572964	1.101397	-0.041977
O33	O	0.958330	0.577672	-0.642394
O34	O	1.458330	1.077672	-0.142394
C35	C	0.838908	0.385912	-0.547319
C36	C	1.338908	0.885912	-0.047319
C37	C	0.747792	0.381902	-0.541643
C38	C	1.247792	0.881902	-0.041643
C39	C	1.009786	0.621057	-0.597326
C40	C	1.509786	1.121057	-0.097326
C41	C	0.991849	0.717625	-0.613053
C42	C	1.491849	1.217625	-0.113053
C43	C	0.923700	0.750673	-0.672689
C44	C	1.423700	1.250673	-0.172689
C45	C	0.906850	0.841402	-0.687474
C46	C	1.406850	1.341402	-0.187474
C47	C	0.958152	0.899091	-0.642629
C48	C	1.458152	1.399091	-0.142629
C49	C	1.026306	0.866042	-0.582997
C50	C	1.526306	1.366042	-0.082997
C51	C	1.043153	0.775305	-0.568206
C52	C	1.543153	1.275305	-0.068206
C53	C	1.077605	0.923723	-0.538146
C54	C	1.577605	1.423723	-0.038146
C55	C	1.145759	0.890675	-0.478513
C56	C	1.645759	1.390675	0.021487
C57	C	1.162604	0.799946	-0.463725
C58	C	1.662604	1.299946	0.036275
C59	C	1.111302	0.742257	-0.508570
C60	C	1.611302	1.242257	-0.008570
C61	C	1.060758	1.014460	-0.552937
C62	C	1.560758	1.514460	-0.052937
C63	C	1.180212	1.039093	-0.448454
C64	C	1.680212	1.539093	0.051546
C65	C	1.197061	0.948364	-0.433669
C66	C	1.697061	1.448364	0.066331
C67	C	0.580962	0.374561	-0.531284
C68	C	1.080962	0.874561	-0.031284
C69	C	0.523617	0.416140	-0.590076
C70	C	1.023617	0.916140	-0.090076
C71	C	0.430787	0.412055	-0.584312
C72	C	0.930787	0.912055	-0.084312
C73	C	0.673801	0.378645	-0.537047
C74	C	1.173801	0.878645	-0.037047
C75	C	1.265682	0.404773	-0.574020
C76	C	1.765682	0.904773	-0.074020
C77	C	1.356792	0.408800	-0.579720
C78	C	1.856792	0.908800	-0.079720
C79	C	1.094129	1.168708	-0.523821
C80	C	1.594129	1.668708	-0.023821
C81	C	1.112063	1.072141	-0.508089
C82	C	1.612063	1.572141	-0.008089
C83	C	1.022260	0.354395	-0.787252
C84	C	1.522260	0.854395	-0.287252
C85	C	1.009638	0.336954	-0.883819
C86	C	1.509638	0.836954	-0.383819
C87	C	0.961652	0.270876	-0.916874
C88	C	1.461652	0.770876	-0.416874
C89	C	0.949782	0.254490	-1.007603
C90	C	1.449782	0.754490	-0.507603
C91	C	0.985903	0.304175	-1.065285
C92	C	1.485903	0.804175	-0.565285
C93	C	1.033895	0.370249	-1.032229
C94	C	1.533895	0.870249	-0.532229
C95	C	1.045761	0.386642	-0.941492
C96	C	1.545761	0.886642	-0.441492
C97	C	1.070012	0.419941	-1.089902
C98	C	1.570012	0.919941	-0.589902
C99	C	1.118004	0.486015	-1.056846
C100	C	1.618004	0.986015	-0.556846
C101	C	1.129868	0.502405	-0.966117
C102	C	1.629868	1.002405	-0.466117
C103	C	1.093747	0.452720	-0.908436
C104	C	1.593747	0.952720	-0.408436
C105	C	1.058146	0.403548	-1.180640
C106	C	1.558146	0.903548	-0.680640
C107	C	1.142255	0.519314	-1.205257
C108	C	1.642255	1.019314	-0.705257
C109	C	1.154125	0.535700	-1.114528
C110	C	1.654125	1.035700	-0.614528
C111	C	1.081442	0.436033	-0.334909
C112	C	1.581442	0.936033	0.165091
C113	C	1.094269	0.453236	-0.238313
C114	C	1.594269	0.953236	0.261687
H115	H	1.005269	1.041358	-0.601494
H116	H	1.505269	1.541358	-0.101494
H117	H	0.881932	0.703698	-0.709191
H118	H	1.381932	1.203698	-0.209191
C119	C	1.005362	0.330861	-1.216990
C120	C	1.505362	0.830861	-0.716990
N121	N	0.965605	0.276107	-1.244367
N122	N	1.465605	0.776107	-0.744367
H123	H	1.221986	1.086064	-0.411937
H124	H	1.721986	1.586064	0.088063
H125	H	1.125020	0.668377	-0.496538
H126	H	1.625020	1.168377	0.003462
H127	H	1.252553	0.921444	-0.385115
H128	H	1.752553	1.421444	0.114885
H129	H	0.560339	0.335900	-0.476627
H130	H	1.060339	0.835900	0.023373
C131	C	0.939618	0.998894	-0.658899
C132	C	1.439618	1.498894	-0.158899
N133	N	0.925657	1.074069	-0.671159
N134	N	1.425657	1.574069	-0.171159
C135	C	1.106801	0.470742	-0.808627
C136	C	1.606801	0.970742	-0.308627
N137	N	1.116631	0.484315	-0.733449
N138	N	1.616631	0.984315	-0.233449
C139	C	0.551477	0.468382	-0.663916
C140	C	1.051477	0.968382	-0.163916
N141	N	0.572465	0.507733	-0.719528
N142	N	1.072465	1.007733	-0.219528
C143	C	0.897002	0.181801	-1.043958
C144	C	1.397002	0.681801	-0.543958
N145	N	0.857249	0.127045	-1.071339
N146	N	1.357249	0.627045	-0.571339
C147	C	1.237559	0.763599	-0.398107
C148	C	1.737559	1.263599	0.101893
N149	N	1.294013	0.736224	-0.348678
N150	N	1.794013	1.236224	0.151322
H151	H	0.976236	0.290828	-1.139160
H152	H	1.476236	0.790828	-0.639160
C153	C	1.182686	0.575067	-0.929756
C154	C	1.682686	1.075067	-0.429756
N155	N	1.222482	0.629787	-0.902370
N156	N	1.722482	1.129787	-0.402370
C157	C	0.831883	0.877748	-0.753068
C158	C	1.331883	1.377748	-0.253068
N159	N	0.775415	0.905124	-0.802477
N160	N	1.275415	1.405124	-0.302477
C161	C	1.181972	0.573987	-1.268705
C162	C	1.681972	1.073987	-0.768705
N163	N	1.211875	0.615171	-1.316500
N164	N	1.711875	1.115171	-0.816500
H165	H	0.932242	0.230435	-0.869904
H166	H	1.432242	0.730435	-0.369904
C167	C	1.206910	0.608386	-1.078154
C168	C	1.706910	1.108386	-0.578154
N169	N	1.246666	0.663134	-1.050756
N170	N	1.746666	1.163134	-0.550756
