data_functionalizedCrystal
_audit_creation_method	'MofGen! by Chris Wilmer'
_symmetry_space_group_name_H-M	'P1'
_symmetry_Int_Tables_number	1
_symmetry_cell_setting	triclinic
loop_
_symmetry_equiv_pos_as_xyz
  x,y,z
_cell_length_a	17.699104
_cell_length_b	19.188930
_cell_length_c	16.176319
_cell_angle_alpha	89.988074
_cell_angle_beta	89.991696
_cell_angle_gamma	83.218149
loop_
_atom_site_label
_atom_site_type_symbol
_atom_site_fract_x
_atom_site_fract_y
_atom_site_fract_z
O1	O	1.003952	0.088364	-0.068773
O2	O	0.783561	0.099836	-0.068772
O3	O	0.900117	-0.007548	-0.068756
O4	O	0.887397	0.195748	-0.068788
O5	O	0.900101	-0.007555	0.068737
O6	O	0.783545	0.099829	0.068721
O7	O	1.003936	0.088357	0.068721
Cu8	Cu	0.893739	0.094092	0.081275
Cu9	Cu	0.893758	0.094100	-0.081326
O10	O	0.887381	0.195741	0.068705
C11	C	0.755357	0.099419	-0.000025
C12	C	0.671341	0.098178	-0.000024
C13	C	0.146397	0.154214	-0.000041
C14	C	0.225339	0.155375	-0.000044
C15	C	0.274039	0.092337	-0.000034
C16	C	0.243794	0.028132	-0.000029
C17	C	0.164853	0.026972	-0.000033
C18	C	0.562154	0.032812	-0.000017
C19	C	0.641100	0.033978	-0.000011
C20	C	0.622640	0.161216	-0.000028
C21	C	0.543699	0.160055	-0.000032
C22	C	0.513460	0.095851	-0.000032
C23	C	0.427862	0.094593	-0.000030
C24	C	0.359636	0.093595	-0.000029
C25	C	0.899697	-0.033563	-0.000007
C26	C	0.898460	-0.111069	0.000000
C27	C	0.966851	-0.155912	0.000004
C28	C	0.965690	-0.228737	-0.000010
C29	C	0.896133	-0.256716	-0.000010
C30	C	0.827733	-0.211864	-0.000018
C31	C	0.828897	-0.139040	-0.000013
N32	N	0.842960	-0.364787	0.046782
N33	N	0.841859	-0.433967	0.046779
C34	C	0.892623	-0.476129	-0.000027
N35	N	0.944541	-0.446500	-0.046819
N36	N	0.945644	-0.377314	-0.046812
C37	C	0.894864	-0.335680	-0.000016
C38	C	0.959759	-0.599938	-0.000038
C39	C	0.958595	-0.672764	-0.000057
C40	C	0.820636	-0.655889	-0.000057
C41	C	0.821802	-0.583065	-0.000047
C42	C	0.891366	-0.555094	-0.000034
C43	C	1.032141	0.088774	-0.000028
C44	C	1.116156	0.090014	-0.000035
C45	C	0.887801	0.221756	-0.000046
C46	C	0.889037	0.299262	-0.000058
N47	N	0.893732	0.094086	0.195640
N48	N	0.893772	0.094101	-0.195692
C49	C	0.945358	0.046556	0.238912
C50	C	0.945362	0.046555	0.325459
C51	C	0.893742	0.094089	0.368733
C52	C	0.842111	0.141621	0.325456
C53	C	0.842104	0.141618	0.238910
C54	C	0.842136	0.141634	0.674484
C55	C	0.842149	0.141635	0.761036
C56	C	0.945394	0.046571	0.761032
C57	C	0.945388	0.046568	0.674487
C58	C	0.893754	0.094098	0.631217
C59	C	0.893749	0.094097	0.537373
C60	C	0.893750	0.094093	0.462576
H61	H	0.537544	-0.019466	-0.000015
C62	C	1.001299	-0.005129	0.372477
C63	C	0.961142	-0.047846	0.422168
C64	C	1.012648	-0.095474	0.465482
H65	H	1.032740	0.019873	0.406291
H66	H	1.032030	-0.033473	0.334331
H67	H	0.930423	-0.019505	0.460310
H68	H	0.929703	-0.072863	0.388375
H69	H	1.043380	-0.123818	0.427336
H70	H	1.044087	-0.070466	0.499292
H71	H	0.985409	-0.124467	0.499197
H72	H	0.800096	0.180336	0.639261
C73	C	0.745092	-0.686217	-0.000230
C74	C	0.703779	-0.663409	-0.070977
C75	C	0.634187	-0.691343	-0.071173
H76	H	0.716844	-0.670845	0.047662
H77	H	0.754159	-0.736013	-0.000279
H78	H	0.694709	-0.613623	-0.070920
H79	H	0.732004	-0.678780	-0.118879
H80	H	0.643254	-0.741140	-0.071222
H81	H	0.605945	-0.675969	-0.023279
H82	H	0.606151	-0.675877	-0.119177
H83	H	0.800063	0.180321	0.203680
H84	H	0.800111	0.180344	0.796268
C85	C	0.296576	-0.040365	0.000107
C86	C	0.282914	-0.079044	0.070836
C87	C	0.331512	-0.142154	0.070986
H88	H	0.347949	-0.030582	0.000152
H89	H	0.287426	-0.066730	-0.047813
H90	H	0.292070	-0.052686	0.118744
H91	H	0.231551	-0.088847	0.070806
H92	H	0.322363	-0.168518	0.023066
H93	H	0.382882	-0.132363	0.071029
H94	H	0.322245	-0.168408	0.118971
H95	H	0.987436	0.007868	0.796272
H96	H	0.987423	0.007864	0.639256
C97	C	0.752136	-0.242102	-0.000061
C98	C	0.692488	-0.187240	-0.000084
C99	C	0.622835	-0.215067	-0.000140
H100	H	0.748698	-0.270159	0.047872
H101	H	0.748782	-0.270131	-0.048028
H102	H	0.695840	-0.159223	0.047879
H103	H	0.695900	-0.159179	-0.048013
H104	H	0.619481	-0.243095	-0.048107
H105	H	0.619405	-0.243123	0.047793
H106	H	0.582356	-0.177847	-0.000163
C107	C	1.001317	-0.005182	0.191998
C108	C	0.989242	-0.073768	0.213085
C109	C	1.040769	-0.121457	0.169889
H110	H	1.051836	0.002246	0.206138
H111	H	0.993931	0.001558	0.134244
H112	H	0.996633	-0.080505	0.270826
H113	H	0.938733	-0.081218	0.198943
H114	H	1.033384	-0.114717	0.112136
H115	H	1.091285	-0.114023	0.184033
H116	H	1.032579	-0.167998	0.184185
H117	H	1.014289	-0.709275	-0.000058
H118	H	0.800077	0.180321	0.360695
C119	C	0.093651	0.222733	-0.000096
C120	C	0.137035	0.279204	-0.000126
C121	C	0.088474	0.342336	-0.000191
H122	H	0.062446	0.225025	0.047836
H123	H	0.062492	0.224965	-0.048064
H124	H	0.168181	0.276974	0.047837
H125	H	0.168238	0.276935	-0.048054
H126	H	0.057315	0.344568	-0.048160
H127	H	0.057272	0.344621	0.047741
H128	H	0.117903	0.380659	-0.000219
C129	C	0.258318	0.225007	-0.000120
C130	C	0.337874	0.212535	-0.000155
C131	C	0.368279	0.276666	-0.000252
H132	H	0.241675	0.251023	0.047802
H133	H	0.241629	0.250951	-0.048098
H134	H	0.354556	0.186602	0.047818
H135	H	0.354538	0.186530	-0.048074
H136	H	0.351590	0.302610	-0.048229
H137	H	0.351631	0.302677	0.047672
H138	H	0.422261	0.268212	-0.000283
C139	C	0.490950	0.228573	-0.000086
C140	C	0.534330	0.285047	-0.000116
C141	C	0.485766	0.348177	-0.000180
H142	H	0.459745	0.230863	0.047845
H143	H	0.459792	0.230803	-0.048055
H144	H	0.565476	0.282818	0.047848
H145	H	0.565534	0.282780	-0.048043
H146	H	0.454607	0.350407	-0.048149
H147	H	0.454563	0.350460	0.047752
H148	H	0.515192	0.386501	-0.000208
H149	H	0.140234	-0.025306	-0.000029
C150	C	0.747570	-0.534341	-0.000212
C151	C	0.744207	-0.492037	-0.070957
C152	C	0.675827	-0.447151	-0.071146
H153	H	0.745077	-0.505525	0.047680
H154	H	0.705956	-0.561408	-0.000259
H155	H	0.785809	-0.464972	-0.070903
H156	H	0.746687	-0.520834	-0.118861
H157	H	0.634213	-0.474219	-0.071193
H158	H	0.673340	-0.418341	-0.023251
H159	H	0.673533	-0.418448	-0.119149
C160	C	1.040004	-0.277354	-0.000130
C161	C	1.081928	-0.264709	-0.070849
C162	C	1.150393	-0.309473	-0.070981
H163	H	1.029453	-0.324754	-0.000175
H164	H	1.068567	-0.268886	0.047797
H165	H	1.053371	-0.273183	-0.118764
H166	H	1.092500	-0.217317	-0.070819
H167	H	1.178957	-0.301005	-0.023055
H168	H	1.139835	-0.356870	-0.071025
H169	H	1.178851	-0.300895	-0.118960
C170	C	1.035204	-0.569427	0.000007
C171	C	1.021587	-0.496053	0.000039
C172	C	1.091068	-0.467925	0.000092
H173	H	1.063418	-0.584738	-0.047929
H174	H	1.063358	-0.584802	0.047971
H175	H	0.993445	-0.480685	-0.047920
H176	H	0.993385	-0.480723	0.047972
H177	H	1.119221	-0.483300	0.048056
H178	H	1.119276	-0.483241	-0.047845
H179	H	1.081838	-0.418139	0.000121
H180	H	0.647269	0.213494	-0.000032
H181	H	0.680751	-0.017359	-0.000005
H182	H	0.773203	-0.102529	-0.000016
H183	H	1.023496	-0.133143	0.000012
