data_functionalizedCrystal
_audit_creation_method	'MofGen! by Chris Wilmer'
_symmetry_space_group_name_H-M	'P1'
_symmetry_Int_Tables_number	1
_symmetry_cell_setting	triclinic
loop_
_symmetry_equiv_pos_as_xyz
  x,y,z
_cell_length_a	6.817900
_cell_length_b	11.102285
_cell_length_c	11.102228
_cell_angle_alpha	91.949783
_cell_angle_beta	108.604565
_cell_angle_gamma	108.605686
loop_
_atom_site_label
_atom_site_type_symbol
_atom_site_fract_x
_atom_site_fract_y
_atom_site_fract_z
V1	V	-4.111520	-0.175843	-0.396263
O2	O	-4.070549	0.008447	-0.388713
O3	O	-4.088301	-0.348664	-0.393559
O4	O	-4.088296	-0.173139	-0.569084
O5	O	-4.070555	-0.168293	-0.211973
V6	V	-4.588623	-0.153799	-0.374219
O7	O	-4.386862	-0.224197	-0.444616
O8	O	-4.763479	-0.105446	-0.325866
O9	O	-4.388636	0.019022	-0.376923
O10	O	-4.746991	-0.338089	-0.381769
O11	O	-4.746986	-0.161349	-0.558509
O12	O	-4.388642	-0.156503	-0.201398
C13	C	-3.938613	-0.390794	-0.387309
C14	C	-4.001083	-0.532078	-0.386250
C15	C	-4.090598	-0.616607	-0.502135
C16	C	-4.149268	-0.749355	-0.501128
C17	C	-4.028906	-0.713033	-0.268343
C18	C	-3.970224	-0.580286	-0.269350
C19	C	-4.183491	-0.948428	-0.635507
C20	C	-4.273046	-1.032963	-0.751398
C21	C	-4.425423	-1.010077	-0.858562
C22	C	-4.488298	-0.902659	-0.849841
C23	C	-4.398764	-0.818130	-0.733948
C24	C	-4.246341	-0.841014	-0.626787
C25	C	-3.936021	-0.381213	-0.134981
C26	C	-3.846499	-0.296683	-0.019087
C27	C	-3.694127	-0.319565	0.088088
C28	C	-3.631278	-0.426986	0.079378
C29	C	-3.720800	-0.511517	-0.036516
C30	C	-3.873164	-0.488625	-0.143690
C31	C	-3.938605	-0.166893	-0.611207
C32	C	-4.001066	-0.165826	-0.752489
C33	C	-4.090577	-0.281710	-0.837018
C34	C	-4.149278	-0.280705	-0.969767
C35	C	-4.028937	-0.047921	-0.933446
C36	C	-3.970252	-0.048928	-0.800700
C37	C	-4.420040	-0.423237	-1.177161
C38	C	-4.509522	-0.539127	-1.261694
C39	C	-4.425308	-0.638136	-1.230484
C40	C	-4.251567	-0.621259	-1.114741
C41	C	-4.162069	-0.505367	-1.030214
C42	C	-4.246332	-0.406364	-1.061425
C43	C	-3.699476	0.093597	-0.593304
C44	C	-3.609962	0.209491	-0.508774
C45	C	-3.694157	0.308511	-0.539980
C46	C	-3.867863	0.291648	-0.655723
C47	C	-3.957377	0.175754	-0.740253
C48	C	-3.873182	0.076733	-0.709038
C49	C	-4.201667	0.061145	-0.383169
C50	C	-4.118436	0.202428	-0.384236
C51	C	-4.201675	-0.162753	-0.159268
C52	C	-4.118451	-0.163814	-0.017985
H53	H	-4.221835	-1.120421	-0.758490
H54	H	-4.612404	-0.884045	-0.937105
H55	H	-3.630907	0.012969	-0.567883
C56	C	-3.463657	-0.452160	0.197275
N57	N	-3.337404	-0.471117	0.286080
H58	H	-4.059391	-0.967064	-0.548256
C59	C	-3.651647	-0.629679	-0.046095
N60	N	-3.599558	-0.718677	-0.053312
C61	C	-4.467905	-0.699972	-0.724354
N62	N	-4.519975	-0.610967	-0.717134
C63	C	-4.124521	-0.563582	-0.630727
N64	N	-4.150065	-0.523647	-0.727586
C65	C	-4.523916	-1.103065	-0.986046
N66	N	-4.598084	-1.173105	-1.082066
C67	C	-4.148474	0.157203	-0.867571
N68	N	-4.292409	0.143229	-0.963464
H69	H	-4.003795	-0.752301	-0.173167
C70	C	-4.103646	-0.356034	-0.252876
N71	N	-4.229910	-0.337070	-0.341670
H72	H	-3.621202	0.402894	-0.471162
C73	C	-3.595664	-0.226577	0.215576
N74	N	-3.521496	-0.156541	0.311597
C75	C	-3.915654	-0.178521	-0.009508
N76	N	-3.967739	-0.089522	-0.002293
H77	H	-4.115672	-0.376897	-0.797770
H78	H	-4.020605	-0.491623	-0.935983
C79	C	-4.158919	-0.730176	-1.080426
N80	N	-4.089140	-0.812217	-1.054576
H81	H	-4.488648	-0.342630	-1.202577
C82	C	-3.418878	0.228037	-0.381451
N83	N	-3.274960	0.242004	-0.285551
H84	H	-3.936419	0.372279	-0.681133
H85	H	-4.498171	-0.732495	-1.299321
C86	C	-4.700645	-0.557689	-1.389004
N87	N	-4.844591	-0.571673	-1.484894
H88	H	-4.003854	0.047254	-0.972716
