data_functionalizedCrystal
_audit_creation_method	'MofGen! by Chris Wilmer'
_symmetry_space_group_name_H-M	'P1'
_symmetry_Int_Tables_number	1
_symmetry_cell_setting	triclinic
loop_
_symmetry_equiv_pos_as_xyz
  x,y,z
_cell_length_a	18.101398
_cell_length_b	18.101395
_cell_length_c	18.101389
_cell_angle_alpha	89.983159
_cell_angle_beta	89.985654
_cell_angle_gamma	90.029256
loop_
_atom_site_label
_atom_site_type_symbol
_atom_site_fract_x
_atom_site_fract_y
_atom_site_fract_z
Zn1	Zn	1.132121	-0.294944	-0.418650
Zn2	Zn	1.132017	-0.418770	-0.294812
Zn3	Zn	1.008280	-0.294942	-0.294832
Zn4	Zn	1.008231	-0.418744	-0.418622
O5	O	1.070162	-0.356850	-0.356729
O6	O	1.235740	-0.311381	-0.402225
O7	O	1.115580	-0.402354	-0.191181
O8	O	1.024772	-0.191310	-0.311277
O9	O	1.235663	-0.402355	-0.311242
O10	O	1.115757	-0.191311	-0.402245
O11	O	1.024671	-0.311378	-0.191197
O12	O	0.904640	-0.311354	-0.311250
O13	O	1.024688	-0.402312	-0.522258
O14	O	0.904604	-0.402310	-0.402198
O15	O	1.115710	-0.311356	-0.522279
O16	O	1.115532	-0.522399	-0.311215
O17	O	1.024587	-0.522380	-0.402178
C18	C	0.877752	-0.356830	-0.356724
C19	C	0.795437	-0.356839	-0.356739
C20	C	0.644729	-0.356852	-0.356738
C21	C	0.613377	-0.414168	-0.413871
C22	C	0.527759	-0.414400	-0.413702
C23	C	0.496346	-0.356866	-0.356738
C24	C	0.527399	-0.377679	-0.278597
C25	C	0.613044	-0.378087	-0.278927
C26	C	0.613208	-0.278582	-0.377064
C27	C	0.527558	-0.279011	-0.378785
C28	C	0.412487	-0.356873	-0.356733
C29	C	0.728588	-0.356848	-0.356737
C30	C	1.070063	-0.549261	-0.356707
C31	C	1.070088	-0.631575	-0.356722
C32	C	1.070251	-0.930665	-0.356762
C33	C	1.013163	-0.899359	-0.414136
C34	C	1.012892	-0.813741	-0.413956
C35	C	1.070170	-0.782283	-0.356743
C36	C	1.049041	-0.813419	-0.278695
C37	C	1.048673	-0.899065	-0.279039
C38	C	1.148593	-0.899015	-0.376750
C39	C	1.148132	-0.813365	-0.378461
C40	C	1.070126	-0.698424	-0.356728
C41	C	1.070293	-1.014525	-0.356773
C42	C	1.263324	-0.356871	-0.356734
C43	C	1.345638	-0.356880	-0.356737
C44	C	1.070205	-0.356831	-0.549891
C45	C	1.070223	-0.356823	-0.632205
C46	C	1.070282	-0.163688	-0.356767
C47	C	1.070333	-0.081374	-0.356783
C48	C	1.070266	-0.356684	-0.931296
C49	C	1.012801	-0.413729	-0.899958
C50	C	1.012956	-0.413994	-0.814340
C51	C	1.070244	-0.356753	-0.782913
C52	C	1.148270	-0.377940	-0.814006
C53	C	1.147949	-0.378314	-0.899651
C54	C	1.050385	-0.278326	-0.899722
C55	C	1.048649	-0.278779	-0.814071
C56	C	1.070237	-0.356791	-0.699054
C57	C	1.070279	-0.356649	-1.015156
C58	C	1.070162	-0.356815	-0.164318
C59	C	1.070287	-0.356615	-0.082005
H60	H	0.507237	-0.472403	-0.400217
H61	H	1.167856	-0.920574	-0.432692
H62	H	1.026082	-0.472075	-0.793856
H63	H	1.191125	-0.919259	-0.334963
H64	H	1.192236	-0.337697	-0.793651
N65	N	0.940749	-0.926409	-0.397742
N66	N	0.887213	-0.907805	-0.437169
H67	H	0.836070	-0.926907	-0.425589
H68	H	0.991229	-0.262802	-0.793749
H69	H	1.088449	-0.919775	-0.234834
N70	N	0.501887	-0.326924	-0.223714
N71	N	0.547284	-0.289783	-0.187269
H72	H	0.529267	-0.253936	-0.148508
H73	H	1.192915	-0.791947	-0.339719
N74	N	1.169100	-0.450172	-0.924712
N75	N	1.183992	-0.499698	-0.878950
H76	H	1.198931	-0.550449	-0.896645
N77	N	0.939994	-0.397260	-0.925780
N78	N	0.911158	-0.336265	-0.911136
H79	H	0.859737	-0.324632	-0.929378
H80	H	0.954823	-0.793314	-0.400717
H81	H	0.634865	-0.471838	-0.400549
N82	N	1.169790	-0.449038	-0.787126
N83	N	1.230588	-0.475983	-0.805692
H84	H	1.245785	-0.526198	-0.786711
N85	N	1.097326	-0.222634	-0.787230
N86	N	1.148960	-0.239251	-0.744512
H87	H	1.183345	-0.199600	-0.725555
N88	N	1.203482	-0.328453	-0.925653
N89	N	1.242355	-0.293493	-0.880544
H90	H	1.281576	-0.258279	-0.898904
H91	H	1.089313	-0.793042	-0.234783
H92	H	0.506177	-0.234054	-0.340239
N93	N	0.638068	-0.449844	-0.257366
N94	N	0.620897	-0.475273	-0.195488
H95	H	0.638568	-0.525954	-0.180259
N96	N	0.639073	-0.327961	-0.223694
N97	N	0.622289	-0.261072	-0.227102
H98	H	0.640671	-0.225672	-0.188094
N99	N	1.029559	-0.925151	-0.486976
N100	N	0.989931	-0.905936	-0.540152
H101	H	1.001509	-0.924156	-0.591598
N102	N	0.502114	-0.259328	-0.450936
N103	N	0.461144	-0.302438	-0.486031
H104	H	0.443175	-0.288543	-0.536991
H105	H	0.991406	-0.919103	-0.262107
H106	H	0.955097	-0.400735	-0.793317
N107	N	1.029103	-0.486143	-0.926970
N108	N	1.082860	-0.495922	-0.969200
H109	H	1.094376	-0.547063	-0.988280
H110	H	0.634834	-0.259564	-0.433084
N111	N	0.980251	-0.254117	-0.926818
N112	N	0.944065	-0.294328	-0.969735
H113	H	0.894530	-0.277238	-0.988874
N114	N	0.500444	-0.448655	-0.256680
N115	N	0.458372	-0.484032	-0.298474
H116	H	0.439334	-0.534161	-0.283000
N117	N	0.638647	-0.225022	-0.324862
N118	N	0.679811	-0.244311	-0.272895
H119	H	0.697781	-0.206490	-0.236024
N120	N	1.102896	-0.225015	-0.925148
N121	N	1.154758	-0.244545	-0.966343
H122	H	1.191848	-0.206900	-0.984304
H123	H	0.633998	-0.401337	-0.471982
N124	N	0.501427	-0.398108	-0.486376
N125	N	0.546304	-0.386487	-0.537577
H126	H	0.527712	-0.374982	-0.588908
N127	N	1.029477	-0.787337	-0.486558
N128	N	1.041332	-0.832162	-0.537715
H129	H	1.053043	-0.813517	-0.588994
H130	H	0.992380	-0.792030	-0.261460
H131	H	1.164065	-0.793013	-0.435900
