data_functionalizedCrystal
_audit_creation_method	'MofGen! by Chris Wilmer'
_symmetry_space_group_name_H-M	'P1'
_symmetry_Int_Tables_number	1
_symmetry_cell_setting	triclinic
loop_
_symmetry_equiv_pos_as_xyz
  x,y,z
_cell_length_a	10.489741
_cell_length_b	10.489741
_cell_length_c	9.565339
_cell_angle_alpha	89.999484
_cell_angle_beta	89.999100
_cell_angle_gamma	95.460826
loop_
_atom_site_label
_atom_site_type_symbol
_atom_site_fract_x
_atom_site_fract_y
_atom_site_fract_z
O1	O	1.694053	-0.179959	-0.116173
O2	O	1.322857	-0.196852	-0.116194
O3	O	1.516901	-0.002807	-0.116175
O4	O	1.500009	-0.374003	-0.116192
O5	O	1.516886	-0.002819	0.116345
O6	O	1.322842	-0.196864	0.116326
O7	O	1.694038	-0.179971	0.116347
Zn8	Zn	1.508437	-0.188419	0.153254
Zn9	Zn	1.508458	-0.188403	-0.153101
O10	O	1.499993	-0.374015	0.116328
C11	C	1.275318	-0.195582	0.000063
C12	C	1.133688	-0.191765	0.000055
C13	C	1.065548	-0.068300	0.000074
C14	C	0.973429	-0.126617	-0.114571
C15	C	0.973448	-0.126659	0.114676
C16	C	1.043435	-0.250133	-0.114684
C17	C	1.043463	-0.250157	0.114665
C18	C	0.951371	-0.308564	-0.000007
C19	C	1.515618	0.044718	0.000084
C20	C	1.511801	0.186348	0.000082
C21	C	1.741577	-0.181241	0.000087
C22	C	1.883206	-0.185058	0.000086
C23	C	1.501277	-0.421541	0.000066
C24	C	1.505094	-0.563170	0.000059
N25	N	1.508433	-0.188429	0.362334
C26	C	1.388336	0.254488	0.000064
C27	C	1.446652	0.346604	0.114712
C28	C	1.446696	0.346591	-0.114534
C29	C	1.570168	0.276599	0.114824
C30	C	1.570195	0.276576	-0.114525
C31	C	1.628600	0.368665	0.000150
N32	N	1.508472	-0.188383	-0.362180
C33	C	1.418666	-0.278138	0.453528
C34	C	1.534163	-0.303949	0.546712
C35	C	1.392986	-0.162629	0.546704
C36	C	1.623988	-0.214298	0.453466
C37	C	1.482735	-0.072928	0.453451
C38	C	1.598314	-0.098690	0.546593
H39	H	0.942463	-0.074401	0.211599
O40	O	1.559947	-0.420445	0.595764
C41	C	1.456926	-0.472706	0.678899
H42	H	1.401248	-0.392270	0.719756
H43	H	1.495421	-0.526617	0.770832
H44	H	1.390808	-0.541489	0.613336
H45	H	1.622398	0.245536	-0.211451
O46	O	1.456888	0.043642	0.404694
C47	C	1.550437	0.138341	0.454141
H48	H	1.596214	0.102602	0.552999
H49	H	1.503607	0.229465	0.478713
H50	H	1.627134	0.159532	0.370697
H51	H	1.115238	0.033196	-0.000065
H52	H	1.674328	-0.022802	0.587199
H53	H	1.721659	-0.236217	0.412683
O54	O	1.267215	0.195302	0.000434
C55	C	1.202580	0.230809	0.121518
H56	H	1.275495	0.263532	0.205588
H57	H	1.137750	0.145170	0.161525
H58	H	1.142228	0.312433	0.095355
H59	H	1.394447	0.377560	-0.211470
H60	H	1.394405	0.377611	0.211633
H61	H	1.295338	-0.140828	0.587664
O62	O	0.936509	-0.064090	-0.230090
C63	C	0.995212	0.062539	-0.229700
H64	H	1.022650	0.091884	-0.118136
H65	H	0.925583	0.129723	-0.272997
H66	H	1.084867	0.068408	-0.297652
O67	O	1.080345	-0.312518	-0.230306
C68	C	1.142122	-0.420189	-0.189407
H69	H	1.181094	-0.405208	-0.078770
H70	H	1.224481	-0.433240	-0.264213
H71	H	1.070748	-0.509184	-0.192166
O72	O	0.892251	-0.429710	-0.000266
C73	C	0.814405	-0.447698	-0.120142
H74	H	0.788679	-0.350852	-0.159612
H75	H	0.723078	-0.510376	-0.092586
H76	H	0.868507	-0.496410	-0.205160
O77	O	1.080473	-0.312247	0.230434
C78	C	1.045168	-0.246848	0.351082
H79	H	1.033943	-0.142756	0.323619
H80	H	1.122534	-0.250674	0.434270
H81	H	0.950481	-0.294229	0.392915
O82	O	1.632550	0.239684	0.230445
C83	C	1.740221	0.177908	0.189545
H84	H	1.725242	0.138939	0.078906
H85	H	1.753269	0.095546	0.264348
H86	H	1.829217	0.249280	0.192309
O87	O	1.328208	-0.368622	0.404526
C88	C	1.328664	-0.366681	0.257141
H89	H	1.371384	-0.268839	0.219024
H90	H	1.226342	-0.385813	0.216886
H91	H	1.388632	-0.443821	0.216334
H92	H	1.730204	0.418089	0.000220
