data_functionalizedCrystal
_audit_creation_method	'MofGen! by Chris Wilmer'
_symmetry_space_group_name_H-M	'P1'
_symmetry_Int_Tables_number	1
_symmetry_cell_setting	triclinic
loop_
_symmetry_equiv_pos_as_xyz
  x,y,z
_cell_length_a	19.377372
_cell_length_b	16.704494
_cell_length_c	16.704494
_cell_angle_alpha	60.174809
_cell_angle_beta	88.959198
_cell_angle_gamma	75.130201
loop_
_atom_site_label
_atom_site_type_symbol
_atom_site_fract_x
_atom_site_fract_y
_atom_site_fract_z
Zr1	Zr	0.634271	1.110952	-0.278703
O2	O	0.546963	1.231072	-0.389382
O3	O	0.656239	0.956725	-0.238090
O4	O	0.668779	1.111908	-0.407394
O5	O	0.529988	1.087027	-0.094131
O6	O	0.770325	1.151461	-0.429207
O7	O	0.534423	1.075888	-0.220077
O8	O	0.747894	0.873866	-0.126352
O9	O	0.552419	1.364622	-0.396986
O10	O	0.747186	1.062311	-0.245123
O11	O	0.668093	1.041106	-0.134853
O12	O	0.682857	1.223815	-0.334187
O13	O	0.603763	1.202610	-0.223916
Zr14	Zr	0.789151	1.191799	-0.112622
Zr15	Zr	0.796226	1.174034	-0.313492
Zr16	Zr	0.627196	1.128717	-0.077834
Zr17	Zr	0.642972	1.323950	-0.290831
Zr18	Zr	0.780450	0.978801	-0.100495
O19	O	0.767183	1.346026	-0.153236
O20	O	0.777242	1.320766	-0.438847
O21	O	0.536904	1.256332	-0.103771
O22	O	0.876459	1.071680	-0.001944
O23	O	0.886518	1.046419	-0.287555
O24	O	0.646180	0.981985	0.047521
O25	O	0.893434	1.215724	-0.297195
O26	O	0.754643	1.190843	0.016068
O27	O	0.653097	1.151290	0.037881
O28	O	0.888999	1.226863	-0.171249
O29	O	0.681151	1.414764	-0.424638
O30	O	0.742271	0.887987	0.033313
O31	O	0.871003	0.938129	0.005660
O32	O	0.876627	0.924008	-0.154004
O33	O	0.546796	1.378743	-0.237321
O34	O	0.675528	1.428885	-0.264974
O35	O	0.740565	1.078936	-0.057139
O36	O	0.819659	1.100141	-0.167410
O37	O	0.755329	1.261645	-0.256473
O38	O	0.676236	1.240441	-0.146202
C39	C	0.700827	0.884948	-0.180493
C40	C	0.697133	0.794524	-0.175344
C41	C	0.772783	0.646739	-0.280790
C42	C	0.769314	0.561778	-0.275955
C43	C	0.686732	0.539639	-0.160836
C44	C	0.690200	0.624599	-0.165671
C45	C	0.733226	0.678147	-0.225651
C46	C	0.736691	0.763112	-0.230490
C47	C	0.654113	0.740968	-0.115366
C48	C	0.650644	0.656008	-0.110531
C49	C	0.509130	1.072469	-0.152147
C50	C	0.440376	1.045689	-0.137379
C51	C	0.046361	1.379120	-0.321258
C52	C	-0.018235	1.353934	-0.307367
C53	C	0.048929	1.185336	-0.214392
C54	C	0.113532	1.210509	-0.228271
C55	C	0.112242	1.307402	-0.281706
C56	C	0.179413	1.138790	-0.188719
C57	C	0.244010	1.163961	-0.202601
C58	C	0.242727	1.260849	-0.256036
C59	C	0.176839	1.332572	-0.295588
C60	C	0.180702	1.041897	-0.135290
C61	C	0.246583	0.970179	-0.095738
C62	C	0.311182	0.995349	-0.109614
C63	C	0.309898	1.092237	-0.163049
C64	C	0.377070	0.923626	-0.070062
C65	C	0.441667	0.948796	-0.083944
C66	C	0.374496	1.117408	-0.176931
C67	C	0.914292	1.230282	-0.239178
C68	C	0.983046	1.257062	-0.253947
C69	C	0.720560	1.129154	-0.446920
C70	C	0.723563	1.121612	-0.532195
C71	C	0.722595	1.417804	-0.210833
C72	C	0.726289	1.508227	-0.215982
C73	C	0.662053	1.276069	-0.785429
C74	C	0.664873	1.268987	-0.865554
C75	C	0.732028	1.100368	-0.772574
C76	C	0.729208	1.107450	-0.692448
C77	C	0.694218	1.195303	-0.698880
C78	C	0.691394	1.202383	-0.618752
C79	C	0.758553	1.033766	-0.525774
C80	C	0.761374	1.026684	-0.605900
C81	C	0.702862	1.173598	0.055594
C82	C	0.699859	1.181140	0.140869
C83	C	0.903408	0.963854	-0.224008
C84	C	0.968468	0.900210	-0.233628
C85	C	0.691978	0.907170	0.070765
C86	C	0.685281	0.824288	0.161188
C87	C	0.894559	0.986076	0.027249
C88	C	0.956615	0.929974	0.102903
C89	C	0.528864	1.316675	-0.418575
C90	C	0.466807	1.372777	-0.494229
C91	C	0.520014	1.338897	-0.167318
C92	C	0.454954	1.402541	-0.157697
C93	C	0.731444	1.395582	-0.462090
C94	C	0.738141	1.478463	-0.552513
C95	C	0.961191	0.850575	-0.278720
C96	C	1.022317	0.790783	-0.287778
C97	C	1.090718	0.780623	-0.251736
C98	C	1.097994	0.830266	-0.206643
C99	C	1.036869	0.890062	-0.197592
C100	C	0.719965	0.805114	0.244225
C101	C	0.713670	0.727250	0.329195
C102	C	0.672694	0.668557	0.331124
C103	C	0.638005	0.687736	0.248078
C104	C	0.644296	0.765604	0.163111
C105	C	1.027050	0.914700	0.080870
C106	C	1.085366	0.862000	0.151945
C107	C	1.073245	0.824570	0.245054
C108	C	1.002803	0.839850	0.267087
C109	C	0.944489	0.892554	0.196012
C110	C	0.396372	1.388061	-0.472196
C111	C	0.338057	1.440787	-0.543273
C112	C	0.350179	1.478222	-0.636382
C113	C	0.420621	1.462937	-0.658415
C114	C	0.478934	1.410218	-0.587339
C115	C	0.462232	1.452184	-0.112614
C116	C	0.401108	1.511998	-0.103581
C117	C	0.332707	1.522161	-0.139625
C118	C	0.325431	1.472514	-0.184714
C119	C	0.386554	1.412707	-0.193753
C120	C	0.779123	1.537135	-0.554413
C121	C	0.785430	1.615006	-0.639370
C122	C	0.750750	1.634207	-0.722425
C123	C	0.709767	1.575526	-0.720524
C124	C	0.703465	1.497653	-0.635568
H125	H	0.807811	0.690343	-0.329635
F126	F	0.378798	1.359871	-0.241732
H127	H	0.992944	0.809367	0.342905
F128	F	0.816038	1.516716	-0.466028
F129	F	0.624814	1.369567	-0.792272
H130	H	0.760524	1.028847	-0.767356
F131	F	0.267659	1.585816	-0.129996
F132	F	0.535024	1.441384	-0.074249
F133	F	0.630640	1.354950	-0.957666
F134	F	1.170797	0.819441	-0.168287
H135	H	1.140484	0.731929	-0.259112
F136	F	0.378433	0.820508	-0.013204
H137	H	0.681533	1.591173	-0.788159
F138	F	1.135316	0.768478	0.320690
H139	H	0.373442	1.196311	-0.220416
H140	H	0.175786	1.411475	-0.339073
H141	H	1.042804	0.930469	-0.160869
F142	F	0.829047	1.677450	-0.641373
H143	H	0.615616	0.612395	-0.061695
F144	F	0.252627	1.483337	-0.223068
H145	H	0.905501	0.858846	-0.308083
H146	H	1.036933	0.945169	0.005061
F147	F	0.044989	1.482247	-0.378120
H148	H	0.667576	0.605155	0.400316
F149	F	0.433510	1.502782	-0.757514
H150	H	1.142719	0.849566	0.133989
F151	F	0.763582	0.867567	0.242193
H152	H	0.662900	1.273916	-0.623992
F153	F	0.659839	1.435221	-0.633560
H154	H	0.536284	1.397773	-0.605290
F155	F	0.869527	0.908798	0.219477
F156	F	0.383455	1.348227	-0.373107
H157	H	0.755888	1.697620	-0.791595
F158	F	0.750595	0.706852	0.417568
H159	H	0.616054	0.781203	0.095501
F160	F	0.782480	0.820103	-0.294327
F161	F	0.408866	1.564824	-0.055587
H162	H	0.604642	0.639937	0.249663
H163	H	0.801525	0.536208	-0.320854
F164	F	0.263094	1.457041	-0.519805
H165	H	0.302689	1.521147	-0.694248
F166	F	0.798610	0.933191	-0.599066
H167	H	0.651711	0.496018	-0.111993
H168	H	0.295328	1.281340	-0.267339
F169	F	0.612006	0.774405	-0.056685
H170	H	-0.071879	1.412343	-0.339582
H171	H	0.049970	1.106446	-0.170888
F172	F	0.111951	1.015110	-0.120524
H173	H	0.247624	0.891288	-0.052233
F174	F	0.511786	0.872465	-0.041851
H175	H	0.784741	0.967999	-0.455293
F176	F	1.014558	0.737954	-0.335768
