data_functionalizedCrystal
_audit_creation_method	'MofGen! by Chris Wilmer'
_symmetry_space_group_name_H-M	'P1'
_symmetry_Int_Tables_number	1
_symmetry_cell_setting	triclinic
loop_
_symmetry_equiv_pos_as_xyz
  x,y,z
_cell_length_a	18.050590
_cell_length_b	18.050589
_cell_length_c	18.050583
_cell_angle_alpha	89.968090
_cell_angle_beta	89.999666
_cell_angle_gamma	90.017386
loop_
_atom_site_label
_atom_site_type_symbol
_atom_site_fract_x
_atom_site_fract_y
_atom_site_fract_z
Zn1	Zn	1.135301	-0.295821	-0.419624
Zn2	Zn	1.135209	-0.420034	-0.295444
Zn3	Zn	1.011117	-0.295839	-0.295482
Zn4	Zn	1.011068	-0.419950	-0.419626
O5	O	1.073174	-0.357911	-0.357544
O6	O	1.239213	-0.312326	-0.403134
O7	O	1.118730	-0.403602	-0.191524
O8	O	1.027650	-0.191912	-0.311965
O9	O	1.239146	-0.403585	-0.311899
O10	O	1.118886	-0.191899	-0.403172
O11	O	1.027561	-0.312356	-0.191553
O12	O	0.907186	-0.312275	-0.311967
O13	O	1.027565	-0.403442	-0.523551
O14	O	0.907150	-0.403459	-0.403175
O15	O	1.118838	-0.312245	-0.523549
O16	O	1.118682	-0.523948	-0.311901
O17	O	1.027476	-0.523886	-0.403138
C18	C	0.880221	-0.357860	-0.357576
C19	C	0.797676	-0.357857	-0.357607
C20	C	0.598227	-0.407584	-0.407088
C21	C	0.548834	-0.339865	-0.425358
C22	C	0.646545	-0.357898	-0.357571
C23	C	0.548856	-0.425656	-0.339300
C24	C	0.500560	-0.357944	-0.357537
C25	C	0.598240	-0.290143	-0.375876
C26	C	0.598267	-0.375979	-0.289787
C27	C	0.548896	-0.308213	-0.308031
C28	C	0.730644	-0.357872	-0.357592
C29	C	0.416464	-0.357962	-0.357516
C30	C	1.073084	-0.550863	-0.357532
C31	C	1.073114	-0.633409	-0.357551
C32	C	1.023565	-0.832853	-0.407148
C33	C	1.005465	-0.882300	-0.339386
C34	C	1.073186	-0.784539	-0.357561
C35	C	1.091322	-0.882174	-0.425331
C36	C	1.073256	-0.930524	-0.357576
C37	C	1.055052	-0.832899	-0.289763
C38	C	1.140940	-0.832769	-0.375754
C39	C	1.122867	-0.882193	-0.307945
C40	C	1.073145	-0.700441	-0.357553
C41	C	1.073297	-1.014621	-0.357576
C42	C	1.266879	-0.357963	-0.357512
C43	C	1.349425	-0.357984	-0.357499
C44	C	1.073206	-0.357832	-0.551250
C45	C	1.073220	-0.357798	-0.633796
C46	C	1.073284	-0.164205	-0.357573
C47	C	1.073331	-0.081660	-0.357585
C48	C	1.122905	-0.308181	-0.833246
C49	C	1.055171	-0.289992	-0.882658
C50	C	1.073250	-0.357785	-0.784926
C51	C	1.141011	-0.375927	-0.882596
C52	C	1.073285	-0.357772	-0.930911
C53	C	1.005481	-0.339561	-0.833251
C54	C	1.091366	-0.425528	-0.833185
C55	C	1.023586	-0.407365	-0.882574
C56	C	1.073231	-0.357791	-0.700828
C57	C	1.073296	-0.357766	-1.015008
C58	C	1.073184	-0.357936	-0.164592
C59	C	1.073314	-0.357761	-0.082047
H60	H	0.981539	-0.811188	-0.449023
H61	H	0.619841	-0.232843	-0.391380
H62	H	0.981562	-0.449308	-0.904097
H63	H	0.527121	-0.324587	-0.482668
H64	H	0.527372	-0.266166	-0.266142
O65	O	1.109786	-0.493837	-0.807269
C66	C	1.181276	-0.512767	-0.832381
H67	H	1.213350	-0.460148	-0.846271
H68	H	1.211708	-0.544670	-0.787151
H69	H	1.176581	-0.548790	-0.884027
H70	H	0.619996	-0.391278	-0.232494
H71	H	1.164860	-0.903721	-0.265968
O72	O	1.209205	-0.806666	-0.394083
C73	C	1.208363	-0.728567	-0.393166
H74	H	1.161421	-0.708492	-0.356009
H75	H	1.263463	-0.707173	-0.370912
H76	H	1.199526	-0.706881	-0.451834
O77	O	0.522935	-0.494010	-0.321004
C78	C	0.478851	-0.521578	-0.379287
H79	H	0.494924	-0.492882	-0.433220
H80	H	0.488010	-0.583801	-0.384977
H81	H	0.417973	-0.510344	-0.366793
O82	O	1.036787	-0.221693	-0.908638
C83	C	0.971770	-0.226807	-0.951624
H84	H	0.939373	-0.278342	-0.934737
H85	H	0.936172	-0.175523	-0.942147
H86	H	0.987189	-0.230691	-1.012745
H87	H	1.198301	-0.391276	-0.904274
H88	H	0.948201	-0.904073	-0.324012
H89	H	0.619889	-0.449529	-0.449011
O90	O	1.036682	-0.807066	-0.221429
C91	C	1.036855	-0.728959	-0.222250
H92	H	1.028548	-0.708482	-0.281423
H93	H	0.990021	-0.707452	-0.185764
H94	H	1.092133	-0.707785	-0.200225
H95	H	1.106634	-0.903819	-0.482637
H96	H	1.164827	-0.266206	-0.811584
H97	H	0.948174	-0.324144	-0.811666
