data_functionalizedCrystal
_audit_creation_method	'MofGen! by Chris Wilmer'
_symmetry_space_group_name_H-M	'P1'
_symmetry_Int_Tables_number	1
_symmetry_cell_setting	triclinic
loop_
_symmetry_equiv_pos_as_xyz
  x,y,z
_cell_length_a	11.792254
_cell_length_b	10.268362
_cell_length_c	14.971486
_cell_angle_alpha	90.005493
_cell_angle_beta	96.093637
_cell_angle_gamma	89.994222
loop_
_atom_site_label
_atom_site_type_symbol
_atom_site_fract_x
_atom_site_fract_y
_atom_site_fract_z
O1	O	-1.506109	0.108338	0.122652
O2	O	-1.006109	0.608338	0.622652
O3	O	-1.175688	0.108332	0.135275
O4	O	-0.675688	0.608332	0.635275
O5	O	-1.349755	0.108326	-0.001201
O6	O	-0.849755	0.608326	0.498799
O7	O	-1.332043	0.108344	0.259128
O8	O	-0.832043	0.608344	0.759128
O9	O	-1.349740	-0.108275	-0.001207
O10	O	-0.849740	0.391725	0.498793
O11	O	-1.175673	-0.108268	0.135269
O12	O	-0.675673	0.391732	0.635269
O13	O	-1.506094	-0.108263	0.122646
O14	O	-1.006094	0.391737	0.622646
Cu15	Cu	-1.340882	-0.128043	0.128957
Cu16	Cu	-0.840882	0.371957	0.628957
Cu17	Cu	-1.340900	0.128112	0.128964
Cu18	Cu	-0.840900	0.628112	0.628964
O19	O	-1.332027	-0.108257	0.259122
O20	O	-0.832027	0.391743	0.759122
C21	C	-1.133395	0.000031	0.134477
C22	C	-0.633395	0.500031	0.634477
C23	C	-1.007398	0.000029	0.132097
C24	C	-0.507398	0.500029	0.632097
N25	N	-1.340878	-0.308209	0.128952
N26	N	-0.840878	0.191791	0.628952
C27	C	-0.905073	0.000032	0.130163
C28	C	-0.405073	0.500032	0.630163
C29	C	-0.776702	0.000029	0.127745
C30	C	-0.276702	0.500029	0.627745
C31	C	-1.340894	-0.573879	0.128962
C32	C	-0.840894	-0.073879	0.628962
C33	C	-1.340881	-0.426042	0.128959
C34	C	-0.840881	0.073958	0.628959
C35	C	-0.548387	0.000035	0.123444
C36	C	-0.048387	0.500035	0.623444
C37	C	-0.674385	0.000027	0.125824
C38	C	-0.174385	0.500027	0.625824
C39	C	-1.348955	0.000026	-0.034532
C40	C	-0.848955	0.500026	0.465468
C41	C	-1.346581	0.000027	-0.133838
C42	C	-0.846581	0.500027	0.366162
N43	N	-1.340913	0.308278	0.128962
N44	N	-0.840913	0.808278	0.628962
C45	C	-1.448841	0.000028	-0.190650
C46	C	-0.948841	0.500028	0.309350
C47	C	-1.446603	0.000041	-0.283959
C48	C	-0.946603	0.500041	0.216041
C49	C	-1.342106	0.000044	-0.320454
C50	C	-0.842106	0.500044	0.179546
C51	C	-1.239839	0.000047	-0.263634
C52	C	-0.739839	0.500047	0.236366
C53	C	-1.242077	0.000043	-0.170328
C54	C	-0.742077	0.500043	0.329672
C55	C	-1.235180	0.000052	-0.458116
C56	C	-0.735180	0.500052	0.041884
C57	C	-1.232942	0.000053	-0.551429
C58	C	-0.732942	0.500053	-0.051429
C59	C	-1.439707	0.000049	-0.571747
C60	C	-0.939707	0.500049	-0.071747
C61	C	-1.441945	0.000045	-0.478440
C62	C	-0.941945	0.500045	0.021560
C63	C	-1.339678	0.000046	-0.421627
C64	C	-0.839678	0.500046	0.078373
C65	C	-1.332827	0.000046	0.292453
C66	C	-0.832827	0.500046	0.792453
C67	C	-1.335201	0.000054	0.391759
C68	C	-0.835201	0.500054	0.891759
H69	H	-1.529874	0.000039	-0.330212
H70	H	-1.029874	0.500039	0.169788
C71	C	-1.556889	0.000045	-0.438297
C72	C	-1.056889	0.500045	0.061703
H73	H	-1.617476	0.000058	-0.485494
H74	H	-1.117476	0.500058	0.014506
H75	H	-1.562054	-0.075487	-0.402324
H76	H	-1.062054	0.424513	0.097676
H77	H	-1.562058	0.075589	-0.402317
H78	H	-1.062058	0.575589	0.097683
C79	C	-1.124891	0.000060	-0.303772
C80	C	-0.624891	0.500060	0.196228
H81	H	-1.064309	0.000074	-0.256570
H82	H	-0.564309	0.500074	0.243430
H83	H	-1.119707	-0.075469	-0.339755
H84	H	-0.619707	0.424531	0.160245
H85	H	-1.119732	0.075607	-0.339740
H86	H	-0.619732	0.575607	0.160260
H87	H	-1.522977	0.000053	-0.618009
H88	H	-1.022977	0.500053	-0.118009
C89	C	-1.117997	0.000086	-0.591572
C90	C	-0.617997	0.500086	-0.091572
H91	H	-1.057411	0.000111	-0.544375
H92	H	-0.557411	0.500111	-0.044375
H93	H	-1.112805	-0.075440	-0.627558
H94	H	-0.612805	0.424560	-0.127558
H95	H	-1.112857	0.075637	-0.627540
H96	H	-0.612857	0.575637	-0.127540
H97	H	-1.151903	0.000056	-0.411860
H98	H	-0.651903	0.500056	0.088140
H99	H	-1.158807	0.000043	-0.124072
H100	H	-0.658807	0.500043	0.375928
C101	C	-1.563790	0.000025	-0.150514
C102	C	-1.063790	0.500025	0.349486
H103	H	-1.624370	0.000039	-0.197717
H104	H	-1.124370	0.500039	0.302283
H105	H	-1.568959	-0.075509	-0.114543
H106	H	-1.068959	0.424491	0.385457
H107	H	-1.568965	0.075567	-0.114534
H108	H	-1.068965	0.575567	0.385466
