data_functionalizedCrystal
_audit_creation_method	'MofGen! by Chris Wilmer'
_symmetry_space_group_name_H-M	'P1'
_symmetry_Int_Tables_number	1
_symmetry_cell_setting	triclinic
loop_
_symmetry_equiv_pos_as_xyz
  x,y,z
_cell_length_a	8.559649
_cell_length_b	9.065218
_cell_length_c	7.540329
_cell_angle_alpha	89.998243
_cell_angle_beta	89.997379
_cell_angle_gamma	77.397275
loop_
_atom_site_label
_atom_site_type_symbol
_atom_site_fract_x
_atom_site_fract_y
_atom_site_fract_z
O1	O	2.119402	-0.049968	-0.147454
O2	O	2.619402	0.450032	0.352546
O3	O	1.655298	0.026097	-0.147462
O4	O	2.155298	0.526097	0.352538
O5	O	1.896943	-0.227784	-0.147454
O6	O	2.396943	0.272216	0.352546
O7	O	1.877757	0.203912	-0.147462
O8	O	2.377757	0.703912	0.352538
O9	O	1.896928	-0.227785	0.147511
O10	O	2.396928	0.272215	0.647511
O11	O	1.655284	0.026096	0.147503
O12	O	2.155284	0.526096	0.647503
O13	O	2.119387	-0.049969	0.147511
O14	O	2.619387	0.450031	0.647511
Cu15	Cu	1.887334	-0.011937	0.174440
Cu16	Cu	2.387334	0.488063	0.674440
Cu17	Cu	1.887351	-0.011936	-0.174391
Cu18	Cu	2.387351	0.488064	0.325609
O19	O	1.877742	0.203911	0.147503
O20	O	2.377742	0.703911	0.647503
C21	C	1.895092	-0.282539	0.000025
C22	C	2.395092	0.217461	0.500025
C23	C	1.889578	-0.445689	0.000017
C24	C	2.389578	0.054311	0.500017
C25	C	1.595845	0.031861	0.000020
C26	C	2.095845	0.531861	0.500020
C27	C	1.418713	0.049020	0.000017
C28	C	1.918713	0.549020	0.500017
C29	C	2.178841	-0.055733	0.000025
C30	C	2.678841	0.444267	0.500025
C31	C	2.355972	-0.072892	0.000017
C32	C	2.855972	0.427108	0.500017
C33	C	1.879594	0.258667	0.000020
C34	C	2.379594	0.758667	0.500020
C35	C	1.885107	0.421817	0.000017
C36	C	2.385107	0.921817	0.500017
N37	N	1.887334	-0.011940	0.419788
N38	N	2.387334	0.488060	0.919788
N39	N	1.887364	-0.011946	-0.419739
N40	N	2.387364	0.488054	0.080261
H41	H	1.437769	-0.190393	0.000010
H42	H	1.937769	0.309607	0.500010
Br43	Br	1.282379	0.244880	-0.000012
Br44	Br	1.782379	0.744880	0.499988
