data_functionalizedCrystal
_audit_creation_method	'MofGen! by Chris Wilmer'
_symmetry_space_group_name_H-M	'P1'
_symmetry_Int_Tables_number	1
_symmetry_cell_setting	triclinic
loop_
_symmetry_equiv_pos_as_xyz
  x,y,z
_cell_length_a	16.625547
_cell_length_b	16.625539
_cell_length_c	16.959454
_cell_angle_alpha	89.976948
_cell_angle_beta	90.020013
_cell_angle_gamma	89.978691
loop_
_atom_site_label
_atom_site_type_symbol
_atom_site_fract_x
_atom_site_fract_y
_atom_site_fract_z
Zn1	Zn	1.232666	-0.456020	-0.314696
Zn2	Zn	1.732666	0.043980	0.185304
Zn3	Zn	1.232583	-0.321195	-0.446880
Zn4	Zn	1.732583	0.178805	0.053120
Zn5	Zn	1.097836	-0.321190	-0.314719
Zn6	Zn	1.597836	0.178810	0.185281
Zn7	Zn	1.097804	-0.455975	-0.446836
Zn8	Zn	1.597804	0.044025	0.053164
O9	O	1.165222	-0.388595	-0.380783
O10	O	1.665222	0.111405	0.119217
O11	O	1.345487	-0.438156	-0.332239
O12	O	1.845487	0.061844	0.167761
O13	O	1.214687	-0.208362	-0.429376
O14	O	1.714687	0.291638	0.070624
O15	O	1.115770	-0.339093	-0.204105
O16	O	1.615770	0.160907	0.295895
O17	O	1.345426	-0.339101	-0.429354
O18	O	1.845426	0.160899	0.070646
O19	O	1.214829	-0.438151	-0.204088
O20	O	1.714829	0.061849	0.295912
O21	O	1.115689	-0.208359	-0.332279
O22	O	1.615689	0.291641	0.167721
O23	O	0.984999	-0.339049	-0.332236
O24	O	1.484999	0.160951	0.167764
O25	O	1.115715	-0.568813	-0.429280
O26	O	1.615715	-0.068813	0.070720
O27	O	0.984976	-0.438075	-0.429302
O28	O	1.484976	0.061925	0.070698
O29	O	1.214797	-0.568846	-0.332197
O30	O	1.714797	-0.068846	0.167803
O31	O	1.214656	-0.339057	-0.557485
O32	O	1.714656	0.160943	-0.057485
O33	O	1.115634	-0.438079	-0.557453
O34	O	1.615634	0.061921	-0.057453
C35	C	0.955731	-0.388557	-0.380767
C36	C	1.455731	0.111443	0.119233
C37	C	0.866110	-0.388560	-0.380780
C38	C	1.366110	0.111440	0.119220
C39	C	0.793328	-0.388570	-0.380781
C40	C	1.293328	0.111430	0.119219
C41	C	0.702019	-0.388590	-0.380786
C42	C	1.202019	0.111410	0.119214
C43	C	0.629243	-0.388610	-0.380793
C44	C	1.129243	0.111390	0.119207
C45	C	0.537929	-0.388630	-0.380798
C46	C	1.037929	0.111370	0.119202
C47	C	1.165262	-0.598904	-0.380731
C48	C	1.665262	-0.098904	0.119269
C49	C	1.165279	-0.688525	-0.380708
C50	C	1.665279	-0.188525	0.119292
C51	C	1.165292	-0.761308	-0.380691
C52	C	1.665292	-0.261308	0.119309
C53	C	1.165311	-0.852616	-0.380661
C54	C	1.665311	-0.352616	0.119339
C55	C	1.165330	-0.925393	-0.380634
C56	C	1.665330	-0.425393	0.119366
C57	C	1.165350	-1.016707	-0.380605
C58	C	1.665350	-0.516707	0.119395
C59	C	1.375531	-0.388634	-0.380799
C60	C	1.875531	0.111366	0.119201
C61	C	1.465152	-0.388650	-0.380806
C62	C	1.965152	0.111350	0.119194
C63	C	1.165155	-0.388581	-0.586149
C64	C	1.665155	0.111419	-0.086149
C65	C	1.165200	-0.388602	-0.674006
C66	C	1.665200	0.111398	-0.174006
C67	C	1.165229	-0.179104	-0.380778
C68	C	1.665229	0.320896	0.119222
C69	C	1.165369	-0.089484	-0.380577
C70	C	1.665369	0.410516	0.119423
C71	C	1.113736	-0.440150	-1.045494
C72	C	1.613736	0.059850	-0.545494
C73	C	1.216933	-0.337122	-1.045468
C74	C	1.716933	0.162878	-0.545468
C75	C	1.216904	-0.337114	-0.962922
C76	C	1.716904	0.162886	-0.462922
C77	C	1.165291	-0.388625	-0.921659
C78	C	1.665291	0.111375	-0.421659
C79	C	1.113705	-0.440143	-0.962941
C80	C	1.613705	0.059857	-0.462941
C81	C	1.268483	-0.285592	-0.921634
C82	C	1.768483	0.214408	-0.421634
C83	C	1.268457	-0.285582	-0.839083
C84	C	1.768457	0.214418	-0.339083
C85	C	1.216846	-0.337097	-0.797818
C86	C	1.716846	0.162903	-0.297818
C87	C	1.165259	-0.388617	-0.839105
C88	C	1.665259	0.111383	-0.339105
C89	C	1.113645	-0.440128	-0.797842
C90	C	1.613645	0.059872	-0.297842
C91	C	1.062062	-0.491653	-0.839127
C92	C	1.562062	0.008347	-0.339127
C93	C	1.062095	-0.491658	-0.921676
C94	C	1.562095	0.008342	-0.421676
C95	C	1.216813	-0.337092	-0.715269
C96	C	1.716813	0.162908	-0.215269
C97	C	1.113614	-0.440120	-0.715288
C98	C	1.613614	0.059880	-0.215288
C99	C	1.165312	-0.388626	-0.174615
C100	C	1.665312	0.111374	0.325385
C101	C	1.165350	-0.388640	-0.086758
C102	C	1.665350	0.111360	0.413242
H103	H	1.071586	-0.482070	-0.681696
H104	H	1.571586	0.017930	-0.181696
Br105	Br	1.286802	-0.267160	-0.659241
Br106	Br	1.786802	0.232840	-0.159241
H107	H	1.310499	-0.243649	-0.955236
H108	H	1.810499	0.256351	-0.455236
H109	H	1.310459	-0.243628	-0.805473
H110	H	1.810459	0.256372	-0.305473
Br111	Br	0.992095	-0.561578	-0.977711
Br112	Br	1.492095	-0.061578	-0.477711
H113	H	1.020034	-0.533590	-0.805521
H114	H	1.520034	-0.033590	-0.305521
Br115	Br	1.043739	-0.510080	-1.101521
Br116	Br	1.543739	-0.010080	-0.601521
H117	H	1.258949	-0.295180	-1.079070
H118	H	1.758949	0.204820	-0.579070
