data_functionalizedCrystal
_audit_creation_method	'MofGen! by Chris Wilmer'
_symmetry_space_group_name_H-M	'P1'
_symmetry_Int_Tables_number	1
_symmetry_cell_setting	triclinic
loop_
_symmetry_equiv_pos_as_xyz
  x,y,z
_cell_length_a	15.995292
_cell_length_b	15.995300
_cell_length_c	9.730217
_cell_angle_alpha	90.001297
_cell_angle_beta	89.997417
_cell_angle_gamma	83.470212
loop_
_atom_site_label
_atom_site_type_symbol
_atom_site_fract_x
_atom_site_fract_y
_atom_site_fract_z
O1	O	1.110993	0.107696	-0.114313
O2	O	0.867208	0.121075	-0.114306
O3	O	0.995787	-0.007507	-0.114317
O4	O	0.982415	0.236277	-0.114303
O5	O	0.995783	-0.007508	0.114264
O6	O	0.867205	0.121073	0.114274
O7	O	1.110989	0.107695	0.114267
Zn8	Zn	0.989096	0.114384	0.150563
Zn9	Zn	0.989101	0.114385	-0.150602
O10	O	0.982411	0.236276	0.114278
C11	C	0.836011	0.120530	-0.000015
C12	C	0.743058	0.118897	-0.000013
C13	C	0.405321	0.112896	-0.000029
C14	C	0.428617	0.205702	-0.000534
C15	C	0.525292	0.207466	-0.000013
C16	C	0.572876	0.115874	-0.000022
C17	C	0.543781	0.069474	0.130501
C18	C	0.446990	0.068357	0.130605
C19	C	0.447140	0.066463	-0.129334
C20	C	0.543632	0.069902	-0.131053
C21	C	0.667572	0.117552	-0.000013
C22	C	0.310626	0.111215	-0.000028
C23	C	0.995239	-0.038703	-0.000031
C24	C	0.993604	-0.131655	-0.000045
C25	C	0.990585	-0.301837	-0.000031
C26	C	1.082135	-0.349322	-0.000037
C27	C	1.080465	-0.446010	0.000487
C28	C	0.987613	-0.469393	-0.000020
C29	C	0.942189	-0.428250	0.130254
C30	C	0.944506	-0.331617	0.130358
C31	C	0.943155	-0.331340	-0.129589
C32	C	0.943163	-0.428284	-0.131296
C33	C	0.985928	-0.564088	-0.000008
C34	C	0.992266	-0.207142	-0.000033
C35	C	1.142186	0.108240	-0.000027
C36	C	1.235139	0.109872	-0.000038
C37	C	0.982958	0.267472	-0.000011
C38	C	0.984593	0.360424	-0.000006
N39	N	0.989099	0.114382	0.356099
N40	N	0.989105	0.114380	-0.356138
C41	C	1.103001	0.000556	0.356080
C42	C	1.159957	-0.056354	0.428011
C43	C	1.159966	-0.056355	0.571891
C44	C	1.103010	0.000560	0.643843
C45	C	1.046053	0.057470	0.571913
C46	C	1.046053	0.057466	0.428030
C47	C	0.932149	0.171291	0.571931
C48	C	0.932143	0.171297	0.428052
C49	C	0.875193	0.228205	0.643884
C50	C	0.818239	0.285121	0.571953
C51	C	0.818233	0.285120	0.428065
C52	C	0.875186	0.228207	0.356121
H53	H	0.433159	-0.001849	-0.130223
N54	N	1.218124	-0.114488	0.354492
N55	N	1.218111	-0.114484	0.226029
H56	H	1.259189	-0.155542	0.174107
H57	H	1.118923	-0.330851	-0.093456
H58	H	0.563832	0.101695	0.227643
H59	H	0.576614	0.003049	-0.138943
H60	H	0.973296	-0.310845	-0.228362
N61	N	1.125234	-0.481719	-0.116649
N62	N	1.157935	-0.435239	-0.199358
H63	H	1.189557	-0.460455	-0.282089
H64	H	0.875652	-0.299555	-0.130829
H65	H	0.420166	0.100490	0.228180
H66	H	0.400616	0.241474	-0.094139
N67	N	0.428742	-0.017000	0.138073
N68	N	0.387061	-0.040512	0.236624
H69	H	0.374174	-0.100794	0.241908
H70	H	1.118402	-0.329662	0.093173
N71	N	0.875178	0.228190	0.209152
N72	N	0.810500	0.214296	0.144935
H73	H	0.810497	0.214278	0.041136
H74	H	0.543687	0.244023	0.093715
N75	N	0.583798	-0.015068	0.136613
N76	N	0.629192	-0.038643	0.237059
H77	H	0.657461	-0.098349	0.241376
N78	N	1.103034	0.000575	0.209112
N79	N	1.153905	-0.050224	0.144886
H80	H	1.153939	-0.050205	0.041087
H81	H	1.206342	-0.102699	0.630457
H82	H	0.873964	-0.442335	0.134735
H83	H	0.977238	-0.313304	0.228108
H84	H	1.103014	0.000549	0.760998
N85	N	1.125051	-0.480948	0.118317
N86	N	1.157494	-0.433913	0.200428
H87	H	1.188985	-0.458587	0.283651
H88	H	0.875199	0.228199	0.761038
N89	N	0.760065	0.343239	0.645470
N90	N	0.760073	0.343223	0.773933
H91	H	0.718987	0.384269	0.825861
H92	H	0.877279	-0.299330	0.135920
N93	N	0.411708	0.102928	-0.253462
N94	N	0.437264	0.074140	-0.367265
H95	H	0.412240	0.099900	-0.454927
H96	H	0.771849	0.331461	0.369507
H97	H	0.976334	-0.455632	-0.227674
N98	N	0.549147	0.253050	-0.117393
N99	N	0.494344	0.283782	-0.200271
H100	H	0.511186	0.315980	-0.283174
H101	H	0.875470	-0.443615	-0.139552
N102	N	0.392202	0.250322	0.116241
N103	N	0.349169	0.214068	0.199835
H104	H	0.323450	0.245577	0.282312
N105	N	0.981280	-0.463843	0.252326
N106	N	1.042582	-0.519499	0.243719
H107	H	1.070194	-0.544638	0.329929
H108	H	0.562197	0.103686	-0.227613
