data_functionalizedCrystal
_audit_creation_method	'MofGen! by Chris Wilmer'
_symmetry_space_group_name_H-M	'P1'
_symmetry_Int_Tables_number	1
_symmetry_cell_setting	triclinic
loop_
_symmetry_equiv_pos_as_xyz
  x,y,z
_cell_length_a	14.853554
_cell_length_b	14.853566
_cell_length_c	12.376457
_cell_angle_alpha	78.693687
_cell_angle_beta	78.707605
_cell_angle_gamma	96.368068
loop_
_atom_site_label
_atom_site_type_symbol
_atom_site_fract_x
_atom_site_fract_y
_atom_site_fract_z
O1	O	-0.100455	1.213614	-0.093928
O2	O	-0.114474	0.951157	-0.093946
O3	O	0.023765	1.089402	-0.093931
O4	O	-0.238694	1.075370	-0.093943
O5	O	-0.010748	1.054853	0.094077
O6	O	-0.148987	0.916608	0.094062
O7	O	-0.134968	1.179065	0.094080
Zn8	Zn	-0.147457	1.042352	0.123922
Zn9	Zn	-0.101985	1.087871	-0.123787
O10	O	-0.273207	1.040821	0.094065
C11	C	-0.131095	0.900295	0.000055
C12	C	-0.129190	0.800212	0.000049
C13	C	-0.102331	0.395857	-0.102415
C14	C	-0.139958	0.358212	0.102559
C15	C	-0.141745	0.452246	0.102556
C16	C	-0.123826	0.518090	0.000065
C17	C	-0.104120	0.489900	-0.102421
C18	C	-0.161460	0.480443	0.205041
C19	C	-0.163248	0.574482	0.205041
C20	C	-0.145323	0.640329	0.102550
C21	C	-0.125615	0.612134	0.000059
C22	C	-0.107695	0.677978	-0.102432
C23	C	-0.087981	0.649786	-0.204924
C24	C	-0.086194	0.555747	-0.204913
C25	C	-0.147110	0.734368	0.102539
C26	C	-0.109484	0.772022	-0.102438
C27	C	-0.289539	1.058729	0.000059
C28	C	-0.389623	1.060629	0.000055
C29	C	-0.793990	1.087533	-0.102420
C30	C	-0.831602	1.049866	0.102554
C31	C	-0.737569	1.048071	0.102553
C32	C	-0.671742	1.066008	0.000064
C33	C	-0.699947	1.085741	-0.102424
C34	C	-0.709355	1.028348	0.205039
C35	C	-0.615317	1.026553	0.205042
C36	C	-0.549488	1.044484	0.102552
C37	C	-0.577699	1.064216	0.000060
C38	C	-0.511871	1.082154	-0.102429
C39	C	-0.540081	1.101880	-0.204922
C40	C	-0.634118	1.103672	-0.204914
C41	C	-0.455450	1.042692	0.102544
C42	C	-0.417828	1.080362	-0.102433
C43	C	0.040098	1.071494	0.000072
C44	C	0.140182	1.069595	0.000069
C45	C	-0.118346	1.229929	0.000076
C46	C	-0.120250	1.330012	0.000076
N47	N	-0.178490	1.011292	0.292976
N48	N	-0.070945	1.118938	-0.292842
C49	C	0.001110	1.191036	0.647982
C50	C	0.022830	1.212770	0.529644
C51	C	-0.027498	1.162402	0.470471
C52	C	-0.099550	1.090297	0.529648
C53	C	-0.121277	1.068567	0.647997
C54	C	-0.149885	1.039932	0.470487
C55	C	-0.221937	0.967828	0.529663
C56	C	-0.243660	0.946100	0.648000
C57	C	-0.193332	0.996468	0.707173
C58	C	-0.128158	1.061663	0.352138
C59	C	-0.250545	0.939194	0.352153
C60	C	-0.272265	0.917460	0.470490
H61	H	-0.070142	0.532784	-0.288356
C62	C	-0.825021	1.109237	-0.215157
N63	N	-0.848394	1.125588	-0.300072
H64	H	-0.302335	0.887396	0.696182
C65	C	-0.665156	1.125385	-0.317647
N66	N	-0.688536	1.141746	-0.402556
C67	C	-0.904015	1.030132	0.215286
N68	N	-0.958562	1.015263	0.300199
C69	C	-0.217203	0.972547	0.837352
N70	N	-0.235175	0.954525	0.935405
H71	H	-0.330931	0.858751	0.518686
H72	H	0.042076	1.232044	0.696168
H73	H	-0.762957	1.013751	0.288480
H74	H	-0.592357	1.010490	0.288499
C75	C	-0.305908	0.883783	0.287068
N76	N	-0.347604	0.842053	0.238038
H77	H	-0.086276	0.372898	-0.185861
C78	C	-0.089768	0.844446	-0.215188
N79	N	-0.074917	0.898995	-0.300112
C80	C	-0.159671	0.285780	0.215292
N81	N	-0.174518	0.231221	0.300207
C82	C	-0.424423	1.020996	0.215279
N83	N	-0.401055	1.004650	0.300198
C84	C	-0.068271	0.722226	-0.317659
N85	N	-0.053424	0.776792	-0.402569
C86	C	-0.048897	1.140971	0.287057
N87	N	0.010808	1.200708	0.238040
H88	H	-0.364236	1.094962	-0.185893
H89	H	-0.009810	1.180100	0.374116
C90	C	-0.168795	0.765376	0.215273
N91	N	-0.185127	0.788730	0.300191
H92	H	0.081493	1.271477	0.481467
H93	H	-0.176055	0.426825	0.288483
H94	H	-0.179299	0.597428	0.288496
C95	C	-0.467659	1.121611	-0.317657
N96	N	-0.413107	1.136471	-0.402566
