data_functionalizedCrystal
_audit_creation_method	'MofGen! by Chris Wilmer'
_symmetry_space_group_name_H-M	'P1'
_symmetry_Int_Tables_number	1
_symmetry_cell_setting	triclinic
loop_
_symmetry_equiv_pos_as_xyz
  x,y,z
_cell_length_a	11.792241
_cell_length_b	10.723024
_cell_length_c	9.798715
_cell_angle_alpha	90.001978
_cell_angle_beta	89.999488
_cell_angle_gamma	84.330643
loop_
_atom_site_label
_atom_site_type_symbol
_atom_site_fract_x
_atom_site_fract_y
_atom_site_fract_z
O1	O	-1.507282	-0.171036	-0.113355
O2	O	-1.176980	-0.188663	-0.113386
O3	O	-1.349750	0.001747	-0.113365
O4	O	-1.334512	-0.361446	-0.113376
O5	O	-1.349737	0.001747	0.113618
O6	O	-1.176967	-0.188663	0.113596
O7	O	-1.507269	-0.171035	0.113627
Zn8	Zn	-1.342116	-0.179849	0.149650
Zn9	Zn	-1.342133	-0.179850	-0.149409
O10	O	-1.334499	-0.361445	0.113606
C11	C	-1.348634	0.048244	0.000125
C12	C	-1.345317	0.186789	0.000120
C13	C	-1.134680	-0.187556	0.000101
C14	C	-1.008659	-0.184242	0.000089
C15	C	-1.549569	-0.172143	0.000137
C16	C	-1.675590	-0.175457	0.000140
C17	C	-0.777933	-0.178147	0.000128
C18	C	-0.906326	-0.181533	0.000107
C19	C	-1.335614	-0.407942	0.000114
C20	C	-1.338932	-0.546488	0.000110
N21	N	-1.342112	-0.179848	0.353750
C22	C	-1.441990	0.262028	0.000127
C23	C	-1.438563	0.405222	0.000122
N24	N	-1.342145	-0.179841	-0.353508
C25	C	-1.414654	-0.099549	0.421536
C26	C	-1.414672	-0.099544	0.578698
H27	H	-1.527292	0.220431	0.000143
H28	H	-1.521323	0.469873	0.000134
H29	H	-1.260014	0.228386	0.000103
O30	O	-1.259883	-0.270935	0.430990
H31	H	-1.206745	-0.329761	0.357428
O32	O	-1.229291	0.367898	0.000110
H33	H	-1.225835	0.307913	-0.092406
H34	H	-1.476743	-0.030799	0.363221
H35	H	-1.476782	-0.030801	0.636991
O36	O	-1.259859	-0.270895	0.569286
H37	H	-1.308309	-0.331674	0.504159
