data_functionalizedCrystal
_audit_creation_method	'MofGen! by Chris Wilmer'
_symmetry_space_group_name_H-M	'P1'
_symmetry_Int_Tables_number	1
_symmetry_cell_setting	triclinic
loop_
_symmetry_equiv_pos_as_xyz
  x,y,z
_cell_length_a	13.032831
_cell_length_b	18.215405
_cell_length_c	18.215399
_cell_angle_alpha	90.030970
_cell_angle_beta	97.190377
_cell_angle_gamma	82.829003
loop_
_atom_site_label
_atom_site_type_symbol
_atom_site_fract_x
_atom_site_fract_y
_atom_site_fract_z
Zn1	Zn	1.597604	-0.436090	0.558718
Zn2	Zn	1.597476	-0.559150	0.435635
Zn3	Zn	1.422849	-0.420461	0.420066
Zn4	Zn	1.422799	-0.543461	0.543067
O5	O	1.510182	-0.489791	0.489371
O6	O	1.743826	-0.465521	0.555457
O7	O	1.574278	-0.540778	0.330582
O8	O	1.446106	-0.319556	0.438492
O9	O	1.743731	-0.555933	0.465028
O10	O	1.574497	-0.331039	0.540360
O11	O	1.445981	-0.438883	0.319144
O12	O	1.276604	-0.423670	0.423316
O13	O	1.446021	-0.529193	0.648130
O14	O	1.276568	-0.514038	0.513684
O15	O	1.574449	-0.450308	0.659629
O16	O	1.574230	-0.660047	0.449852
O17	O	1.445896	-0.648520	0.528781
C18	C	1.510072	-0.680987	0.489326
C19	C	1.510120	-0.762790	0.489340
C20	C	1.238668	-0.465456	0.465113
C21	C	1.122513	-0.455064	0.454752
C22	C	1.577101	-0.956976	0.448342
C23	C	1.577147	-1.033838	0.448364
C24	C	1.443397	-1.021865	0.530466
C25	C	1.443357	-0.945004	0.530447
C26	C	1.510207	-0.912561	0.489381
C27	C	1.510294	-1.066285	0.489421
C28	C	1.510344	-1.149623	0.489446
C29	C	1.510158	-0.829218	0.489358
C30	C	1.070737	-0.495215	0.494779
C31	C	0.950685	-0.484474	0.484071
C32	C	1.782756	-0.514220	0.513725
C33	C	1.898911	-0.524631	0.524103
C34	C	1.510244	-0.489744	0.681330
C35	C	1.510270	-0.489724	0.763131
C36	C	1.510321	-0.297850	0.489435
C37	C	1.510381	-0.216056	0.489463
C38	C	1.510181	-0.489789	0.298165
C39	C	1.510358	-0.489620	0.216382
C40	C	1.577181	-0.448588	1.034181
C41	C	1.577169	-0.448607	0.957321
C42	C	1.443443	-0.530761	0.945337
C43	C	1.443462	-0.530746	1.022197
C44	C	1.510329	-0.489655	1.066616
C45	C	1.510298	-0.489689	0.912897
C46	C	1.510284	-0.489710	0.829562
C47	C	1.510345	-0.489635	1.149957
H48	H	1.631536	-0.930563	0.414904
H49	H	1.389001	-0.564214	0.909162
N50	N	1.649275	-0.404312	0.922342
H51	H	1.606824	-0.366413	0.886666
H52	H	1.697667	-0.438615	0.894816
N53	N	1.063512	-0.399002	0.398852
H54	H	1.082475	-0.348117	0.412053
H55	H	0.986133	-0.399345	0.399152
N56	N	1.649296	-0.404270	1.082092
H57	H	1.691644	-0.378257	1.049879
H58	H	1.697647	-0.438548	1.118295
H59	H	1.389022	-0.564191	1.048605
H60	H	1.388969	-1.048290	0.563899
H61	H	1.388884	-0.908840	0.563870
N62	N	1.649299	-1.081743	0.404102
H63	H	1.691639	-1.049525	0.378086
H64	H	1.606808	-1.109877	0.366230
H65	H	0.943457	-0.566956	0.566306
N66	N	1.129736	-0.551283	0.550672
H67	H	1.207134	-0.551009	0.550397
H68	H	1.110681	-0.602134	0.537430
H69	H	0.906138	-0.442143	0.441877
