data_functionalizedCrystal
_audit_creation_method	'MofGen! by Chris Wilmer'
_symmetry_space_group_name_H-M	'P1'
_symmetry_Int_Tables_number	1
_symmetry_cell_setting	triclinic
loop_
_symmetry_equiv_pos_as_xyz
  x,y,z
_cell_length_a	7.088929
_cell_length_b	8.559649
_cell_length_c	8.597304
_cell_angle_alpha	77.624661
_cell_angle_beta	76.027438
_cell_angle_gamma	95.324765
loop_
_atom_site_label
_atom_site_type_symbol
_atom_site_fract_x
_atom_site_fract_y
_atom_site_fract_z
O1	O	-0.153082	2.103776	-0.035738
O2	O	-0.166668	1.638459	0.046707
O3	O	-0.121334	1.884154	-0.228465
O4	O	-0.198416	1.858080	0.239435
O5	O	0.202711	1.916989	-0.265313
O6	O	0.157378	1.671294	0.009859
O7	O	0.170963	2.136611	-0.072586
Cu8	Cu	0.193758	1.906950	-0.034728
Cu9	Cu	-0.189463	1.868119	0.008849
O10	O	0.125630	1.890915	0.202587
C11	C	-0.005675	1.595338	0.034531
C12	C	-0.008741	1.417932	0.053129
C13	C	0.050461	1.899601	-0.306235
C14	C	0.079580	1.896690	-0.483066
N15	N	0.463296	1.934274	-0.065380
N16	N	-0.458999	1.840809	0.039487
C17	C	0.009966	2.179731	-0.060409
C18	C	0.013019	2.357136	-0.079005
C19	C	-0.046170	1.875468	0.280357
C20	C	-0.075302	1.878378	0.457190
H21	H	0.562855	2.031157	-0.174051
C22	C	0.286281	1.914562	-0.594959
C23	C	0.423318	1.932001	-0.504397
C24	C	0.613744	1.948446	-0.607411
H25	H	0.308370	2.007378	-0.684233
H26	H	0.300417	1.821046	-0.636975
H27	H	0.409190	2.025507	-0.462407
H28	H	0.401293	1.839199	-0.415129
H29	H	0.627879	1.854930	-0.649427
H30	H	0.635813	2.041261	-0.696680
H31	H	0.706746	1.960266	-0.545977
C32	C	0.408596	1.711601	0.184539
C33	C	0.523775	1.629817	0.276358
C34	C	0.401856	1.510795	0.410006
H35	H	0.337103	1.636907	0.144527
H36	H	0.319269	1.761047	0.252950
H37	H	0.613067	1.580373	0.207960
H38	H	0.595264	1.704468	0.316411
H39	H	0.312530	1.560240	0.478416
H40	H	0.330370	1.436112	0.369978
H41	H	0.479985	1.455300	0.472330
H42	H	-0.029736	2.334259	0.180486
C43	C	-0.281755	1.860163	-0.430402
C44	C	-0.313327	1.723280	-0.299047
C45	C	-0.503489	1.706436	-0.195447
H46	H	-0.375187	1.848174	-0.491389
H47	H	-0.295888	1.953580	-0.388214
H48	H	-0.299212	1.629885	-0.341234
H49	H	-0.219942	1.735236	-0.238019
H50	H	-0.517622	1.799853	-0.153260
H51	H	-0.596905	1.694452	-0.256449
H52	H	-0.524929	1.613569	-0.106304
C53	C	0.040608	2.468582	-0.248832
C54	C	-0.112141	2.422902	-0.314816
C55	C	-0.086808	2.525542	-0.471244
H56	H	0.163046	2.460779	-0.319763
H57	H	0.038934	2.577006	-0.239245
H58	H	-0.110448	2.314506	-0.324413
H59	H	-0.234597	2.430714	-0.243933
H60	H	-0.088482	2.633966	-0.461657
H61	H	0.035634	2.517730	-0.542159
H62	H	-0.190452	2.494571	-0.516027
