data_functionalizedCrystal
_audit_creation_method	'MofGen! by Chris Wilmer'
_symmetry_space_group_name_H-M	'P1'
_symmetry_Int_Tables_number	1
_symmetry_cell_setting	triclinic
loop_
_symmetry_equiv_pos_as_xyz
  x,y,z
_cell_length_a	10.654542
_cell_length_b	14.586319
_cell_length_c	16.109301
_cell_angle_alpha	90.005214
_cell_angle_beta	83.972841
_cell_angle_gamma	90.004568
loop_
_atom_site_label
_atom_site_type_symbol
_atom_site_fract_x
_atom_site_fract_y
_atom_site_fract_z
O1	O	-1.666258	-0.076267	-0.116766
O2	O	-1.300628	-0.076264	-0.127893
O3	O	-1.493487	-0.076256	-0.001358
O4	O	-1.473399	-0.076274	-0.243301
O5	O	-1.493474	0.076225	-0.001356
O6	O	-1.300614	0.076217	-0.127891
O7	O	-1.666244	0.076214	-0.116764
Cu8	Cu	-1.483428	0.090138	-0.122327
Cu9	Cu	-1.483444	-0.090188	-0.122330
O10	O	-1.473385	0.076206	-0.243299
C11	C	-1.253834	-0.000023	-0.127075
C12	C	-1.114424	-0.000021	-0.124632
C13	C	-1.492667	-0.000015	0.029622
C14	C	-1.490227	-0.000014	0.121932
N15	N	-1.483426	0.216970	-0.122325
C16	C	-0.852481	-0.166271	-0.120028
C17	C	-0.917991	-0.249389	-0.121178
C18	C	-1.048977	-0.249387	-0.123481
C19	C	-1.114457	-0.166259	-0.124630
C20	C	-1.048947	-0.083141	-0.123480
C21	C	-0.917957	-0.083152	-0.121180
C22	C	-1.048914	0.083096	-0.123482
C23	C	-0.917926	0.083097	-0.121185
C24	C	-1.114394	0.166225	-0.124631
C25	C	-1.048883	0.249345	-0.123487
C26	C	-0.917888	0.249340	-0.121186
C27	C	-0.852416	0.166215	-0.120035
C28	C	-0.713037	-0.000028	-0.117584
C29	C	-0.852446	-0.000032	-0.120036
N30	N	-1.483456	-0.217020	-0.122325
C31	C	-1.568852	0.451980	-0.066315
C32	C	-1.568856	0.547961	-0.066313
C33	C	-1.398021	0.547964	-0.178338
C34	C	-1.398012	0.451984	-0.178336
C35	C	-1.483435	0.403995	-0.122325
C36	C	-1.483447	0.595956	-0.122326
C37	C	-1.483450	0.700023	-0.122324
C38	C	-1.483430	0.299921	-0.122325
C39	C	-1.474206	-0.000036	-0.274280
C40	C	-1.476645	-0.000044	-0.366589
C41	C	-1.598993	-0.000029	0.343558
C42	C	-1.596691	-0.000037	0.430293
C43	C	-1.367870	-0.000031	0.411778
C44	C	-1.370174	-0.000030	0.325045
C45	C	-1.485739	-0.000025	0.290938
C46	C	-1.481133	-0.000033	0.464405
C47	C	-1.478636	-0.000041	0.558446
C48	C	-1.488236	-0.000018	0.196891
H49	H	-0.745822	-0.166281	-0.118165
H50	H	-1.102208	0.317021	-0.124418
C51	C	-1.305142	0.599903	-0.239186
C52	C	-1.230309	0.537333	-0.288220
C53	C	-1.144722	0.585143	-0.344275
H54	H	-1.350151	0.637339	-0.274154
H55	H	-1.252817	0.637334	-0.208976
H56	H	-1.282626	0.499918	-0.318428
H57	H	-1.185271	0.499895	-0.253275
H58	H	-1.092397	0.622574	-0.314065
H59	H	-1.189742	0.622578	-0.379237
H60	H	-1.093930	0.542697	-0.377546
H61	H	-1.328449	0.412912	-0.223946
H62	H	-1.693094	-0.000026	0.315792
C63	C	-1.719791	0.000008	0.487284
C64	C	-1.821483	0.000036	0.438846
C65	C	-1.934906	0.000088	0.491318
H66	H	-1.723835	-0.053152	0.521515
H67	H	-1.723713	0.053201	0.521497
H68	H	-1.817563	-0.053152	0.404648
H69	H	-1.817481	0.053193	0.404618
H70	H	-1.938829	0.053281	0.525531
H71	H	-1.938937	-0.053074	0.525546
H72	H	-2.003918	0.000115	0.458461
C73	C	-0.846793	-0.339610	-0.120104
C74	C	-0.757455	-0.344483	-0.190197
C75	C	-0.691860	-0.427585	-0.189240
H76	H	-0.805180	-0.343153	-0.070865
H77	H	-0.904518	-0.389139	-0.121163
H78	H	-0.699738	-0.294968	-0.189131
H79	H	-0.799034	-0.340957	-0.239447
H80	H	-0.749585	-0.477114	-0.190299
H81	H	-0.650255	-0.431120	-0.139998
H82	H	-0.631245	-0.430907	-0.236801
C83	C	-1.247068	0.000022	0.268047
C84	C	-1.145368	0.000048	0.316478
C85	C	-1.031951	0.000104	0.264000
H86	H	-1.243037	-0.053138	0.233806
H87	H	-1.243141	0.053216	0.233843
H88	H	-1.149292	-0.053141	0.350666
H89	H	-1.149357	0.053204	0.350716
H90	H	-1.028024	0.053299	0.229797
H91	H	-1.027933	-0.053056	0.229762
H92	H	-0.962934	0.000131	0.296852
C93	C	-1.242496	-0.000170	0.448926
C94	C	-1.234506	-0.078605	0.498191
C95	C	-1.119035	-0.078755	0.532433
H96	H	-1.175265	-0.000216	0.405251
H97	H	-1.236831	0.052977	0.482426
H98	H	-1.240159	-0.131738	0.464693
H99	H	-1.301710	-0.078576	0.541879
H100	H	-1.113370	-0.025607	0.565933
H101	H	-1.051813	-0.078798	0.488752
H102	H	-1.113603	-0.131967	0.565869
C103	C	-1.119874	-0.339723	-0.124772
C104	C	-1.034499	-0.412525	-0.123293
C105	C	-1.099761	-0.495754	-0.124496
H106	H	-1.180581	-0.343302	-0.077289
H107	H	-1.161337	-0.343225	-0.174089
H108	H	-0.993057	-0.409024	-0.073982
H109	H	-0.973791	-0.408976	-0.170773
H110	H	-1.141223	-0.499256	-0.173812
H111	H	-1.160465	-0.499323	-0.077011
H112	H	-1.041843	-0.545160	-0.123500
C113	C	-1.661641	0.400042	-0.005406
C114	C	-1.736422	0.462614	0.043661
C115	C	-1.821901	0.414805	0.099790
H116	H	-1.714022	0.362587	-0.035534
H117	H	-1.616509	0.362630	0.029526
H118	H	-1.781551	0.500010	0.008733
H119	H	-1.684076	0.500071	0.073807
H120	H	-1.776769	0.377393	0.134722
H121	H	-1.874272	0.377352	0.069655
H122	H	-1.872642	0.457253	0.133093
C123	C	-1.661398	0.600108	-0.005406
C124	C	-1.594535	0.655202	0.045917
C125	C	-1.679744	0.703242	0.102045
H126	H	-1.713693	0.637617	-0.035537
H127	H	-1.712249	0.557807	0.027999
H128	H	-1.543706	0.697498	0.012516
H129	H	-1.542245	0.617716	0.076066
H130	H	-1.730595	0.660941	0.135449
H131	H	-1.732035	0.740747	0.071907
H132	H	-1.634390	0.740623	0.136879
H133	H	-1.221115	-0.166265	-0.126494
H134	H	-1.221051	0.166220	-0.126500
H135	H	-0.864557	0.317025	-0.120252
H136	H	-0.745759	0.166202	-0.118166
