data_functionalizedCrystal
_audit_creation_method	'MofGen! by Chris Wilmer'
_symmetry_space_group_name_H-M	'P1'
_symmetry_Int_Tables_number	1
_symmetry_cell_setting	triclinic
loop_
_symmetry_equiv_pos_as_xyz
  x,y,z
_cell_length_a	16.625539
_cell_length_b	13.032951
_cell_length_c	13.031981
_cell_angle_alpha	90.900548
_cell_angle_beta	82.787859
_cell_angle_gamma	97.193383
loop_
_atom_site_label
_atom_site_type_symbol
_atom_site_fract_x
_atom_site_fract_y
_atom_site_fract_z
Zn1	Zn	-0.544874	-1.520332	-0.609588
Zn2	Zn	-0.044874	-1.020332	-0.109588
Zn3	Zn	-0.391027	-1.498390	-0.781592
Zn4	Zn	0.108973	-0.998390	-0.281592
Zn5	Zn	-0.395370	-1.348343	-0.587737
Zn6	Zn	0.104630	-0.848343	-0.087737
Zn7	Zn	-0.511151	-1.326499	-0.759654
Zn8	Zn	-0.011151	-0.826499	-0.259654
O9	O	-0.460606	-1.423391	-0.684643
O10	O	0.039394	-0.923391	-0.184643
O11	O	-0.536761	-1.661337	-0.650731
O12	O	-0.036761	-1.161337	-0.150731
O13	O	-0.278763	-1.478445	-0.755913
O14	O	0.221237	-0.978445	-0.255913
O15	O	-0.431133	-1.389482	-0.446704
O16	O	0.068867	-0.889482	0.053296
O17	O	-0.423730	-1.645216	-0.777101
O18	O	0.076270	-1.145216	-0.277101
O19	O	-0.540972	-1.515842	-0.462758
O20	O	-0.040972	-1.015842	0.037242
O21	O	-0.281954	-1.368206	-0.613489
O22	O	0.218046	-0.868206	-0.113489
O23	O	-0.398434	-1.201530	-0.592216
O24	O	0.101566	-0.701530	-0.092216
O25	O	-0.628465	-1.352253	-0.739711
O26	O	-0.128465	-0.852253	-0.239711
O27	O	-0.483498	-1.185482	-0.718523
O28	O	0.016502	-0.685482	-0.218523
O29	O	-0.653240	-1.494661	-0.629458
O30	O	-0.153240	-0.994661	-0.129458
O31	O	-0.391031	-1.457264	-0.922614
O32	O	0.108969	-0.957264	-0.422614
O33	O	-0.479286	-1.330977	-0.906496
O34	O	0.020714	-0.830977	-0.406496
C35	C	-0.437778	-1.156190	-0.650619
C36	C	0.062222	-0.656190	-0.150619
C37	C	-0.428029	-1.041877	-0.636088
C38	C	0.071971	-0.541877	-0.136088
C39	C	-0.465686	-0.982987	-0.692204
C40	C	0.034314	-0.482987	-0.192204
C41	C	-0.455610	-0.864839	-0.677187
C42	C	0.044390	-0.364839	-0.177187
C43	C	-0.670929	-1.423468	-0.684575
C44	C	-0.170929	-0.923468	-0.184575
C45	C	-0.760556	-1.423500	-0.684546
C46	C	-0.260556	-0.923500	-0.184546
C47	C	-1.088749	-1.423562	-0.684436
C48	C	-0.588749	-0.923562	-0.184436
C49	C	-0.997435	-1.423542	-0.684470
C50	C	-0.497435	-0.923542	-0.184470
C51	C	-0.924655	-1.423532	-0.684492
C52	C	-0.424655	-0.923532	-0.184492
C53	C	-0.833336	-1.423510	-0.684523
C54	C	-0.333336	-0.923510	-0.184523
C55	C	-0.251114	-1.423383	-0.684644
C56	C	0.248886	-0.923383	-0.184644
C57	C	-0.161536	-1.423587	-0.684409
C58	C	0.338464	-0.923587	-0.184409
C59	C	-0.431048	-1.389397	-0.951878
C60	C	0.068952	-0.889397	-0.451878
C61	C	-0.418438	-1.374949	-1.066215
C62	C	0.081562	-0.874949	-0.566215
C63	C	-0.483519	-0.691637	-0.718789
C64	C	0.016481	-0.191637	-0.218789
C65	C	-0.493272	-0.805951	-0.733310
C66	C	0.006728	-0.305951	-0.233310
C67	C	-0.467208	-1.430987	-1.125044
C68	C	0.032792	-0.930987	-0.625044
C69	C	-0.454176	-1.416055	-1.243217
C70	C	0.045824	-0.916055	-0.743217
C71	C	-0.490299	-1.457546	-0.416367
C72	C	0.009701	-0.957546	0.083633
C73	C	-0.502952	-1.472100	-0.302044
C74	C	-0.002952	-0.972100	0.197956
H75	H	-0.415912	-0.827793	-0.618018
H76	H	0.084088	-0.327793	-0.118018
H77	H	-0.532979	-0.842997	-0.792469
H78	H	-0.032979	-0.342997	-0.292469
Cl79	Cl	-0.366740	-0.984683	-0.544740
Cl80	Cl	0.133260	-0.484683	-0.044740
H81	H	-0.402775	-1.357015	-1.280332
H82	H	0.097225	-0.857015	-0.780332
Cl83	Cl	-0.546577	-1.522118	-1.067740
Cl84	Cl	-0.046577	-1.022118	-0.567740
Cl85	Cl	-0.339081	-1.283801	-1.123516
Cl86	Cl	0.160919	-0.783801	-0.623516
H87	H	-0.554359	-1.531132	-1.264929
H88	H	-0.054359	-1.031132	-0.764929
Cl89	Cl	-0.526975	-1.040181	-0.783551
Cl90	Cl	-0.026975	-0.540181	-0.283551
