data_functionalizedCrystal
_audit_creation_method	'MofGen! by Chris Wilmer'
_symmetry_space_group_name_H-M	'P1'
_symmetry_Int_Tables_number	1
_symmetry_cell_setting	triclinic
loop_
_symmetry_equiv_pos_as_xyz
  x,y,z
_cell_length_a	12.759401
_cell_length_b	25.639240
_cell_length_c	12.759393
_cell_angle_alpha	90.043413
_cell_angle_beta	90.018802
_cell_angle_gamma	90.032402
loop_
_atom_site_label
_atom_site_type_symbol
_atom_site_fract_x
_atom_site_fract_y
_atom_site_fract_z
Zn1	Zn	1.606120	-0.208129	0.593906
Zn2	Zn	1.605960	-0.295575	0.418188
Zn3	Zn	1.430423	-0.208155	0.418244
Zn4	Zn	1.430355	-0.295535	0.593827
O5	O	1.518215	-0.251848	0.506041
O6	O	1.753120	-0.219735	0.570607
O7	O	1.582636	-0.284005	0.271174
O8	O	1.453825	-0.134986	0.441603
O9	O	1.753002	-0.283981	0.441507
O10	O	1.582909	-0.134967	0.570661
O11	O	1.453670	-0.219778	0.271215
O12	O	1.283393	-0.219740	0.441526
O13	O	1.453710	-0.283913	0.740859
O14	O	1.283343	-0.283938	0.570526
O15	O	1.582843	-0.219696	0.740917
O16	O	1.582570	-0.368735	0.441430
O17	O	1.453554	-0.368705	0.570472
C18	C	1.245247	-0.251837	0.506024
C19	C	1.128471	-0.251845	0.506042
C20	C	0.963879	-0.218385	0.439000
C21	C	1.073603	-0.218374	0.438989
C22	C	1.073609	-0.285326	0.573116
C23	C	0.963887	-0.285334	0.573131
C24	C	0.909017	-0.184915	0.371936
C25	C	0.963871	-0.151433	0.304862
C26	C	1.073595	-0.151422	0.304852
C27	C	1.128465	-0.184893	0.371915
C28	C	1.518066	-0.387691	0.505959
C29	C	1.518099	-0.445805	0.505959
C30	C	1.585462	-0.806120	0.573363
C31	C	1.585493	-0.860724	0.573385
O32	O	1.642591	-0.888920	0.630610
N33	N	1.518361	-0.888087	0.506143
C34	C	1.451185	-0.860843	0.438883
O35	O	1.394086	-0.889132	0.381691
C36	C	1.451150	-0.806240	0.438868
C37	C	1.518294	-0.778880	0.506106
C38	C	1.652600	-0.778759	0.640597
C39	C	1.652570	-0.724159	0.640574
C40	C	1.585402	-0.696919	0.573317
C41	C	1.518264	-0.724279	0.506083
C42	C	1.383970	-0.778997	0.371614
C43	C	1.383939	-0.724390	0.371605
C44	C	1.451084	-0.697030	0.438843
C45	C	1.451066	-0.642439	0.438803
N46	N	1.518199	-0.615075	0.506045
C47	C	1.585367	-0.642315	0.573302
C48	C	1.451263	-0.975514	0.438921
C49	C	1.451303	-1.030116	0.438931
C50	C	1.585610	-1.029993	0.573434
C51	C	1.585575	-0.975390	0.573419
C52	C	1.518396	-0.948151	0.506163
C53	C	1.585300	-0.527650	0.573248
C54	C	1.585267	-0.473045	0.573216
C55	C	1.450957	-0.473173	0.438717
C56	C	1.450993	-0.527773	0.438745
C57	C	1.518168	-0.555011	0.506019
O58	O	1.393994	-0.614208	0.381610
O59	O	1.642447	-0.614020	0.630494
C60	C	1.792248	-0.251860	0.506059
C61	C	1.909025	-0.251864	0.506067
C62	C	1.518287	-0.251798	0.780075
C63	C	1.518317	-0.251776	0.896852
C64	C	1.518392	-0.115475	0.506147
C65	C	1.518468	-0.057361	0.506192
C66	C	1.518203	-0.251861	0.233074
C67	C	1.518376	-0.251736	0.116298
C68	C	1.451132	-0.285180	1.061410
C69	C	1.451099	-0.285200	0.951686
C70	C	1.585565	-0.218327	0.951747
C71	C	1.585591	-0.218306	1.061469
C72	C	1.383917	-0.318610	1.116239
C73	C	1.316667	-0.352058	1.061351
C74	C	1.316635	-0.352077	0.951626
C75	C	1.383852	-0.318648	0.896790
H76	H	1.639948	-0.450770	0.627970
F77	F	1.379544	-0.556893	0.367169
F78	F	1.656796	-0.556631	0.644847
H79	H	1.261934	-0.379271	1.106005
F80	F	1.383809	-0.318668	0.780011
F81	F	1.312436	-0.695404	0.300020
H82	H	1.640290	-0.191111	0.907091
H83	H	1.118255	-0.124156	0.250246
F84	F	0.905474	-0.115809	0.233503
H85	H	1.707296	-0.800932	0.695372
F86	F	1.245055	-0.387670	0.893213
H87	H	0.819674	-0.184921	0.371935
F88	F	1.657138	-0.182699	1.119888
F89	F	0.905503	-0.320966	0.644514
H90	H	1.396639	-1.052389	0.384167
F91	F	1.245244	-0.184877	0.371905
H92	H	1.640301	-1.052182	0.628200
F93	F	1.132008	-0.320948	0.644479
F94	F	1.657037	-0.946276	0.644984
H95	H	1.707242	-0.701885	0.695329
F96	F	1.312501	-0.808105	0.300050
F97	F	1.379764	-0.946529	0.367328
H98	H	1.396272	-0.450986	0.383954
F99	F	1.383949	-0.318594	1.233016
