data_functionalizedCrystal
_audit_creation_method	'MofGen! by Chris Wilmer'
_symmetry_space_group_name_H-M	'P1'
_symmetry_Int_Tables_number	1
_symmetry_cell_setting	triclinic
loop_
_symmetry_equiv_pos_as_xyz
  x,y,z
_cell_length_a	15.944545
_cell_length_b	15.021413
_cell_length_c	16.992695
_cell_angle_alpha	90.000470
_cell_angle_beta	92.917802
_cell_angle_gamma	89.990408
loop_
_atom_site_label
_atom_site_type_symbol
_atom_site_fract_x
_atom_site_fract_y
_atom_site_fract_z
O1	O	1.121295	0.073975	-0.101098
O2	O	0.877581	0.073990	-0.113571
O3	O	0.998461	0.073975	0.006808
O4	O	1.000415	0.073989	-0.221477
O5	O	0.998476	-0.074089	0.006801
O6	O	0.877596	-0.074075	-0.113579
O7	O	1.121310	-0.074089	-0.101106
Zn8	Zn	0.999456	-0.097590	-0.107343
Zn9	Zn	0.999435	0.097491	-0.107333
O10	O	1.000430	-0.074075	-0.221485
C11	C	0.846260	-0.000041	-0.113058
C12	C	0.752910	-0.000035	-0.111508
N13	N	0.999476	-0.230728	-0.107349
C14	C	0.476962	-0.000050	-0.032261
C15	C	0.530114	-0.073053	-0.070471
C16	C	0.416895	-0.000051	-0.105981
C17	C	0.530080	0.072927	-0.070483
C18	C	0.581990	-0.000042	-0.108693
C19	C	0.468817	-0.073114	-0.144172
C20	C	0.468780	0.072931	-0.144174
C21	C	0.521902	-0.000090	-0.182438
C22	C	0.321788	-0.000057	-0.104417
C23	C	0.677095	-0.000042	-0.110263
C24	C	1.055382	-0.470394	-0.051673
C25	C	0.978460	-0.529719	-0.036443
C26	C	0.999456	-0.412335	-0.107340
C27	C	1.076355	-0.529751	-0.122524
C28	C	0.999443	-0.587759	-0.107328
C29	C	0.922494	-0.470354	-0.092074
C30	C	1.020441	-0.470380	-0.178186
C31	C	0.943466	-0.529679	-0.162985
C32	C	0.999464	-0.311277	-0.107344
C33	C	0.999426	-0.688814	-0.107324
C34	C	1.152631	-0.000057	-0.101619
C35	C	1.245981	-0.000056	-0.103168
C36	C	0.995955	-0.000057	0.036017
C37	C	0.988455	-0.000056	0.123061
N38	N	0.999421	0.230628	-0.107321
C39	C	1.002936	-0.000041	-0.250694
C40	C	1.010436	-0.000036	-0.337738
C41	C	1.060820	-0.000061	0.173300
C42	C	1.053768	-0.000052	0.255086
C43	C	0.974350	-0.000044	0.286633
C44	C	0.901979	-0.000037	0.236389
C45	C	0.909032	-0.000039	0.154604
C46	C	0.945119	-0.000030	0.530232
C47	C	0.938071	-0.000031	0.612024
C48	C	1.089860	-0.000045	0.630716
C49	C	1.096906	-0.000052	0.548928
C50	C	1.024536	-0.000040	0.498691
N51	N	0.967140	-0.000038	0.370233
N52	N	1.031747	-0.000040	0.415093
H53	H	0.457051	-0.000124	0.031228
C54	C	1.044462	-0.435130	-0.259104
C55	C	0.982415	-0.376480	-0.308378
C56	C	1.006448	-0.341227	-0.389295
C57	C	1.092527	-0.364625	-0.420938
C58	C	1.154580	-0.423279	-0.371663
C59	C	1.130547	-0.458531	-0.290746
H60	H	0.918688	-0.359156	-0.284955
H61	H	0.960511	-0.297808	-0.425772
H62	H	1.110318	-0.338530	-0.480838
H63	H	1.218307	-0.440602	-0.395087
H64	H	1.176484	-0.501951	-0.254270
C65	C	1.164215	-0.564997	-0.139888
C66	C	1.240308	-0.541598	-0.084296
C67	C	1.328169	-0.576841	-0.101652
C68	C	1.339938	-0.635483	-0.174601
C69	C	1.263843	-0.658885	-0.230198
C70	C	1.175982	-0.623642	-0.212842
H71	H	1.231598	-0.498185	-0.030290
H72	H	1.384499	-0.559517	-0.060495
H73	H	1.404978	-0.661572	-0.187449
H74	H	1.272553	-0.702298	-0.284204
H75	H	1.119652	-0.640966	-0.253999
C76	C	1.148182	-0.000070	0.138601
C77	C	1.209832	-0.076958	0.157563
C78	C	1.297196	-0.076964	0.122868
C79	C	1.322910	-0.000082	0.069210
C80	C	1.261258	0.076811	0.050246
C81	C	1.173894	0.076817	0.084942
H82	H	1.190798	-0.133875	0.197286
H83	H	1.342835	-0.133886	0.136907
H84	H	1.387582	-0.000087	0.043527
H85	H	1.280292	0.133728	0.010523
H86	H	1.128256	0.133739	0.070903
H87	H	0.541655	-0.000129	-0.245976
H88	H	1.112695	-0.000058	0.295988
H89	H	1.161576	-0.000059	0.523249
C90	C	0.879500	-0.564635	-0.226579
C91	C	0.868097	-0.665571	-0.238815
C92	C	0.804129	-0.700530	-0.302405
C93	C	0.751564	-0.634553	-0.353757
C94	C	0.762966	-0.533611	-0.341522
C95	C	0.826934	-0.498652	-0.277933
H96	H	0.907009	-0.714416	-0.200800
H97	H	0.795689	-0.775254	-0.311462
H98	H	0.704211	-0.660432	-0.400830
H99	H	0.724053	-0.484765	-0.379537
H100	H	0.835374	-0.423928	-0.268875
H101	H	0.442101	-0.134899	-0.175286
C102	C	0.814618	-0.000020	0.271088
C103	C	0.806855	-0.000017	0.361048
C104	C	0.719491	0.000000	0.395744
C105	C	0.639891	0.000014	0.340481
C106	C	0.647651	0.000011	0.250515
C107	C	0.735014	-0.000006	0.215819
H108	H	0.865783	-0.000027	0.401962
H109	H	0.713747	0.000002	0.462343
H110	H	0.575219	0.000027	0.366165
H111	H	0.588723	0.000021	0.209601
H112	H	0.740758	-0.000008	0.149220
H113	H	1.148780	-0.000053	0.671627
C114	C	0.566396	-0.156432	-0.028419
C115	C	0.550728	-0.172474	0.059127
C116	C	0.587008	-0.255850	0.101185
C117	C	0.638955	-0.323183	0.055697
C118	C	0.654625	-0.307142	-0.031853
C119	C	0.618345	-0.223767	-0.073911
H120	H	0.512272	-0.122629	0.092804
H121	H	0.575407	-0.267723	0.165996
H122	H	0.665811	-0.384902	0.086831
H123	H	0.693082	-0.356988	-0.065530
H124	H	0.629946	-0.211894	-0.138722
H125	H	1.102622	-0.444362	-0.004572
H126	H	0.556902	0.134642	-0.039334
H127	H	0.960700	-0.555785	0.023475
H128	H	0.850105	-0.000035	0.113700
C129	C	0.850709	-0.000014	0.646734
C130	C	0.789063	-0.076886	0.627785
C131	C	0.701708	-0.076871	0.662500
C132	C	0.676000	0.000018	0.716163
C133	C	0.737648	0.076896	0.735115
C134	C	0.825003	0.076880	0.700400
H135	H	0.808092	-0.133809	0.588058
H136	H	0.656072	-0.133781	0.648470
H137	H	0.611335	0.000030	0.741861
H138	H	0.718619	0.133819	0.774842
H139	H	0.870639	0.133791	0.714429
H140	H	0.857436	-0.444373	-0.079158
H141	H	0.886189	-0.000020	0.489338
C142	C	0.432469	0.156317	-0.186183
C143	C	0.491816	0.224896	-0.221339
C144	C	0.455502	0.308293	-0.263336
C145	C	0.359840	0.323111	-0.270177
C146	C	0.300487	0.254530	-0.235020
C147	C	0.336801	0.171133	-0.193023
H148	H	0.562636	0.213929	-0.216275
H149	H	0.499439	0.359061	-0.289361
H150	H	0.332958	0.384846	-0.301265
H151	H	0.229667	0.265497	-0.240083
H152	H	0.292864	0.120365	-0.166997
