data_functionalizedCrystal
_audit_creation_method	'MofGen! by Chris Wilmer'
_symmetry_space_group_name_H-M	'P1'
_symmetry_Int_Tables_number	1
_symmetry_cell_setting	triclinic
loop_
_symmetry_equiv_pos_as_xyz
  x,y,z
_cell_length_a	6.817900
_cell_length_b	17.982783
_cell_length_c	17.078481
_cell_angle_alpha	96.483949
_cell_angle_beta	99.306161
_cell_angle_gamma	102.448572
loop_
_atom_site_label
_atom_site_type_symbol
_atom_site_fract_x
_atom_site_fract_y
_atom_site_fract_z
V1	V	-3.974463	-0.105234	-0.247690
O2	O	-3.968303	0.005240	-0.242636
O3	O	-3.921211	-0.208837	-0.246322
O4	O	-3.905592	-0.103535	-0.355568
O5	O	-3.984029	-0.100791	-0.132634
V6	V	-4.461372	-0.092029	-0.233889
O7	O	-4.228294	-0.134199	-0.277964
O8	O	-4.657739	-0.063064	-0.203615
O9	O	-4.291418	0.011574	-0.235257
O10	O	-4.584930	-0.202503	-0.238943
O11	O	-4.569203	-0.096472	-0.348945
O12	O	-4.307037	-0.093728	-0.126012
C13	C	-3.765694	-0.234096	-0.242499
C14	C	-3.803304	-0.318792	-0.242099
C15	C	-3.795100	-0.347755	-0.169225
C16	C	-3.830458	-0.427337	-0.168853
C17	C	-3.874006	-0.477955	-0.241355
C18	C	-3.882216	-0.448988	-0.314235
C19	C	-3.846872	-0.369407	-0.314607
C20	C	-4.024756	-0.769927	-0.312736
C21	C	-4.060094	-0.849512	-0.312358
C22	C	-4.008342	-0.827856	-0.166981
C23	C	-3.972998	-0.748276	-0.167354
C24	C	-3.981221	-0.719316	-0.240233
C25	C	-3.942885	-0.633024	-0.240637
C26	C	-3.912327	-0.564245	-0.240952
C27	C	-3.745770	-0.099771	-0.381852
C28	C	-3.770712	-0.099068	-0.470044
C29	C	-3.963584	-0.102540	-0.515531
C30	C	-3.987007	-0.101879	-0.598397
C31	C	-3.817559	-0.097750	-0.635776
C32	C	-3.624671	-0.094275	-0.590283
C33	C	-3.601247	-0.094931	-0.507417
C34	C	-3.868186	-0.095375	-0.883172
C35	C	-3.891627	-0.094721	-0.966044
C36	C	-4.253962	-0.102324	-0.974152
C37	C	-4.230523	-0.102985	-0.891285
C38	C	-4.037636	-0.099505	-0.845799
N39	N	-3.841499	-0.097076	-0.720479
N40	N	-4.013696	-0.100174	-0.761097
C41	C	-4.110278	0.036829	-0.239078
C42	C	-4.051904	0.121524	-0.239483
C43	C	-4.130202	-0.097494	-0.099724
C44	C	-4.084499	-0.098194	-0.011530
H45	H	-3.917690	-0.490208	-0.373268
H46	H	-4.411004	-0.105156	-1.011196
C47	C	-3.705370	-0.090470	-1.007207
H48	H	-3.587179	-0.088574	-0.968263
H49	H	-3.729622	-0.134787	-1.046661
H50	H	-3.684433	-0.045500	-1.032096
H51	H	-4.368509	-0.106346	-0.860857
H52	H	-3.711143	-0.092569	-0.846151
H53	H	-3.937530	-0.707065	-0.108315
H54	H	-3.823780	-0.450913	-0.109511
H55	H	-3.486703	-0.090908	-0.620722
C56	C	-3.389091	-0.091116	-0.457383
H57	H	-3.291531	-0.088570	-0.491512
H58	H	-3.350276	-0.046584	-0.417502
H59	H	-3.394572	-0.135850	-0.432276
H60	H	-4.095556	-0.890725	-0.371402
C61	C	-4.033517	-0.738070	-0.392891
H62	H	-4.006173	-0.683425	-0.382733
H63	H	-3.933951	-0.753107	-0.420085
H64	H	-4.165781	-0.758014	-0.425303
C65	C	-3.747195	-0.292078	-0.089474
H66	H	-3.727301	-0.240534	-0.100129
H67	H	-3.858255	-0.303151	-0.062085
H68	H	-3.626443	-0.298194	-0.057007
C69	C	-3.999331	-0.859715	-0.086815
H70	H	-4.026641	-0.914360	-0.096973
H71	H	-3.867009	-0.839747	-0.054467
H72	H	-4.098822	-0.844700	-0.059553
H73	H	-3.853576	-0.345829	-0.373949
H74	H	-4.101574	-0.105908	-0.485104
H75	H	-4.144058	-0.104702	-0.635428
