data_functionalizedCrystal
_audit_creation_method	'MofGen! by Chris Wilmer'
_symmetry_space_group_name_H-M	'P1'
_symmetry_Int_Tables_number	1
_symmetry_cell_setting	triclinic
loop_
_symmetry_equiv_pos_as_xyz
  x,y,z
_cell_length_a	6.394989
_cell_length_b	10.654545
_cell_length_c	9.730223
_cell_angle_alpha	89.997167
_cell_angle_beta	89.998669
_cell_angle_gamma	85.490395
loop_
_atom_site_label
_atom_site_type_symbol
_atom_site_fract_x
_atom_site_fract_y
_atom_site_fract_z
O1	O	0.293396	1.670950	-0.114266
O2	O	0.793396	2.170950	0.385734
O3	O	0.321363	1.305767	-0.114271
O4	O	0.821363	1.805767	0.385729
O5	O	0.003391	1.493542	-0.114270
O6	O	0.503391	1.993542	0.385730
O7	O	0.611369	1.483175	-0.114267
O8	O	1.111369	1.983175	0.385733
O9	O	0.003382	1.493529	0.114310
O10	O	0.503382	1.993529	0.614310
O11	O	0.321355	1.305754	0.114309
O12	O	0.821355	1.805754	0.614309
O13	O	0.293388	1.670937	0.114314
O14	O	0.793388	2.170937	0.614314
Zn15	Zn	0.307370	1.488344	0.150603
Zn16	Zn	0.807370	1.988344	0.650603
Zn17	Zn	0.307381	1.488360	-0.150561
Zn18	Zn	0.807381	1.988360	0.349439
O19	O	0.611360	1.483162	0.114313
O20	O	1.111360	1.983162	0.614313
C21	C	0.319307	1.258941	0.000018
C22	C	0.819307	1.758941	0.500018
C23	C	0.313170	1.119432	0.000016
C24	C	0.813170	1.619432	0.500016
C25	C	0.310276	1.053890	0.124616
C26	C	0.810276	1.553890	0.624616
C27	C	0.304474	0.922809	0.124616
C28	C	0.804474	1.422809	0.624616
C29	C	0.304469	0.922823	-0.124595
C30	C	0.804469	1.422823	0.375405
C31	C	0.310256	1.053903	-0.124593
C32	C	0.810256	1.553903	0.375407
C33	C	0.689216	1.485218	0.000017
C34	C	1.189216	1.985218	0.500017
C35	C	0.925541	1.491483	0.000013
C36	C	1.425541	1.991483	0.500013
C37	C	0.295443	1.717763	0.000022
C38	C	0.795443	2.217763	0.500022
C39	C	0.301581	1.857272	0.000015
C40	C	0.801581	2.357272	0.500015
N41	N	0.307361	1.488342	0.356140
N42	N	0.807361	1.988342	0.856140
N43	N	0.307374	1.488372	-0.356097
N44	N	0.807374	1.988372	0.143903
C45	C	0.166622	1.571518	0.428066
C46	C	0.666622	2.071518	0.928066
C47	C	0.166623	1.571531	0.571949
C48	C	0.666623	2.071531	1.071949
C49	C	0.448119	1.405186	0.571967
C50	C	0.948119	1.905186	1.071967
C51	C	0.448106	1.405169	0.428086
C52	C	0.948106	1.905169	0.928086
H53	H	0.312607	1.107269	-0.226063
H54	H	0.812607	1.607269	0.273937
H55	H	0.052019	1.639259	0.630508
H56	H	0.552019	2.139259	1.130508
F57	F	0.313368	1.123628	0.257236
F58	F	0.813368	1.623628	0.757236
F59	F	0.301327	0.853074	-0.257205
F60	F	0.801327	1.353074	0.242795
H61	H	0.302118	0.869451	0.226077
H62	H	0.802118	1.369451	0.726077
F63	F	0.597909	1.316675	0.648546
F64	F	1.097909	1.816675	1.148546
H65	H	0.562713	1.337430	0.369520
H66	H	1.062713	1.837430	0.869520
F67	F	0.016822	1.660035	0.351501
F68	F	0.516822	2.160035	0.851501
