data_functionalizedCrystal
_audit_creation_method	'MofGen! by Chris Wilmer'
_symmetry_space_group_name_H-M	'P1'
_symmetry_Int_Tables_number	1
_symmetry_cell_setting	triclinic
loop_
_symmetry_equiv_pos_as_xyz
  x,y,z
_cell_length_a	20.453700
_cell_length_b	9.109307
_cell_length_c	9.582880
_cell_angle_alpha	83.728948
_cell_angle_beta	68.792966
_cell_angle_gamma	111.764999
loop_
_atom_site_label
_atom_site_type_symbol
_atom_site_fract_x
_atom_site_fract_y
_atom_site_fract_z
V1	V	-1.392497	-0.224628	0.495453
O2	O	-1.366423	0.011501	0.456242
O3	O	-1.396147	-0.446079	0.520706
O4	O	-1.389082	-0.220862	0.698471
O5	O	-1.373537	-0.215275	0.277247
V6	V	-1.549495	-0.196421	0.465875
O7	O	-1.488745	-0.286502	0.560337
O8	O	-1.603314	-0.134546	0.400992
O9	O	-1.471444	0.025031	0.440622
O10	O	-1.614702	-0.432550	0.505086
O11	O	-1.607588	-0.205774	0.684081
O12	O	-1.478509	-0.200186	0.262858
V13	V	-1.059164	-0.224628	0.495453
O14	O	-1.033090	0.011501	0.456242
O15	O	-1.062813	-0.446079	0.520706
O16	O	-1.055749	-0.220862	0.698471
O17	O	-1.040204	-0.215275	0.277247
V18	V	-1.216162	-0.196421	0.465875
O19	O	-1.155411	-0.286502	0.560337
O20	O	-1.269980	-0.134546	0.400992
O21	O	-1.138110	0.025031	0.440622
O22	O	-1.281368	-0.432550	0.505086
O23	O	-1.274254	-0.205774	0.684081
O24	O	-1.145175	-0.200186	0.262858
C25	C	-1.348881	-0.500074	0.520281
C26	C	-1.379046	-0.681111	0.542281
V27	V	-0.725831	-0.224628	0.495453
O28	O	-0.699757	0.011501	0.456242
O29	O	-0.729480	-0.446079	0.520706
O30	O	-0.722415	-0.220862	0.698471
O31	O	-0.706871	-0.215275	0.277247
V32	V	-0.882829	-0.196421	0.465875
O33	O	-0.822078	-0.286502	0.560337
O34	O	-0.936647	-0.134546	0.400992
O35	O	-0.804777	0.025031	0.440622
O36	O	-0.948035	-0.432550	0.505086
O37	O	-0.940921	-0.205774	0.684081
O38	O	-0.811842	-0.200186	0.262858
C39	C	-1.339869	-0.212785	0.747035
C40	C	-1.364302	-0.211172	0.913191
C41	C	-1.406490	0.079017	0.441044
C42	C	-1.369406	0.260053	0.419054
C43	C	-1.015548	-0.500074	0.520281
C44	C	-1.045712	-0.681111	0.542281
C45	C	-1.415502	-0.208268	0.214286
C46	C	-1.384148	-0.209873	0.048128
C47	C	-1.006536	-0.212785	0.747035
C48	C	-1.030968	-0.211172	0.913191
C49	C	-1.073157	0.079017	0.441044
C50	C	-1.036073	0.260053	0.419054
C51	C	-1.082169	-0.208268	0.214286
C52	C	-1.050815	-0.209873	0.048128
C53	C	-0.682215	-0.500074	0.520281
C54	C	-0.712379	-0.681111	0.542281
C55	C	-0.673202	-0.212785	0.747035
C56	C	-0.697635	-0.211172	0.913191
C57	C	-0.739824	0.079017	0.441044
C58	C	-0.702740	0.260053	0.419054
C59	C	-0.748836	-0.208268	0.214286
C60	C	-0.717481	-0.209873	0.048128
C61	C	-1.121818	-0.774421	0.561155
C62	C	-1.150174	-0.944530	0.581851
C63	C	-1.102421	-1.021324	0.583661
C64	C	-1.026310	-0.928002	0.564789
C65	C	-0.997957	-0.757898	0.544105
C66	C	-1.074964	0.353361	0.400184
C67	C	-1.040123	0.523469	0.379496
C68	C	-0.966394	0.600263	0.377690
C69	C	-0.927500	0.506942	0.396557
C70	C	-0.962339	0.336840	0.417233
C71	C	-0.788484	-0.774421	0.561155
C72	C	-0.816840	-0.944530	0.581851
C73	C	-0.769088	-1.021324	0.583661
C74	C	-0.692976	-0.928002	0.564789
C75	C	-0.664623	-0.757898	0.544105
C76	C	-0.741630	0.353361	0.400184
C77	C	-0.706789	0.523469	0.379496
C78	C	-0.633060	0.600263	0.377690
C79	C	-0.594167	0.506942	0.396557
C80	C	-0.629005	0.336840	0.417233
H81	H	-1.338090	-0.651818	0.296691
O82	O	-0.590636	-0.667290	0.525484
C83	C	-0.453018	-0.579350	0.371534
C84	C	-0.536768	-0.681984	0.392419
H85	H	-0.409444	-0.591222	0.263974
H86	H	-0.440882	-0.444534	0.356325
H87	H	-0.446731	-0.626408	0.478928
H88	H	-0.543115	-0.635070	0.285065
H89	H	-0.548866	-0.816784	0.407699
H90	H	-0.878815	-1.020488	0.597210
H91	H	-0.534133	0.569494	0.395081
H92	H	-0.604701	0.738772	0.360852
H93	H	-0.654102	-0.990554	0.566266
H94	H	-1.410370	-0.769251	0.664653
H95	H	-0.827376	-0.711917	0.559676
H96	H	-0.867466	0.569494	0.395081
O97	O	-1.168178	-0.699699	0.559584
C98	C	-1.231201	-0.539272	0.679286
C99	C	-1.178666	-0.623767	0.681205
H100	H	-1.239710	-0.477889	0.777625
H101	H	-1.202391	-0.442260	0.562604
H102	H	-1.290444	-0.635228	0.696267
H103	H	-1.119412	-0.527932	0.664288
H104	H	-1.207537	-0.720810	0.797889
O105	O	-0.924074	-0.667234	0.526013
C106	C	-0.843235	-0.487408	0.625721
C107	C	-0.926950	-0.590040	0.646417
H108	H	-0.845531	-0.424942	0.723031
H109	H	-0.813957	-0.571463	0.630647
H110	H	-0.808232	-0.389742	0.508075
H111	H	-0.962017	-0.687714	0.764054
H112	H	-0.956167	-0.505879	0.641395
O113	O	-1.224063	-1.035037	0.599881
C114	C	-1.315509	-1.079188	0.487717
C115	C	-1.231802	-0.976596	0.467088
H116	H	-1.321798	-1.031955	0.380386
H117	H	-1.327611	-1.213971	0.502728
H118	H	-1.359108	-1.067516	0.595380
H119	H	-1.188149	-0.988130	0.359421
H120	H	-1.219766	-0.841855	0.452166
H121	H	-0.792184	-1.159834	0.600504
O122	O	-1.146571	0.279057	0.401820
C123	C	-1.254600	0.313446	0.382765
C124	C	-1.173504	0.397791	0.380860
H125	H	-1.276407	0.409397	0.365855
H126	H	-1.250122	0.251979	0.284487
H127	H	-1.297336	0.216478	0.499489
H128	H	-1.130724	0.494828	0.264205
H129	H	-1.178044	0.459146	0.479218
O130	O	-0.932592	0.765546	0.357395
C131	C	-0.884215	1.036094	0.189952
C132	C	-0.922508	0.848953	0.212748
H133	H	-0.876036	1.103585	0.072996
H134	H	-0.923347	1.068330	0.287964
H135	H	-0.824858	1.074914	0.191984
H136	H	-0.981861	0.810001	0.210681
H137	H	-0.883320	0.816821	0.114737
H138	H	-0.930666	0.260877	0.432610
H139	H	-0.987436	-0.990554	0.566266
H140	H	-1.125517	-1.159834	0.600504
H141	H	-1.071804	0.599427	0.364139
H142	H	-0.801665	0.290859	0.401653
H143	H	-0.738470	0.599427	0.364139
H144	H	-0.597332	0.260877	0.432610
