data_functionalizedCrystal
_audit_creation_method	'MofGen! by Chris Wilmer'
_symmetry_space_group_name_H-M	'P1'
_symmetry_Int_Tables_number	1
_symmetry_cell_setting	triclinic
loop_
_symmetry_equiv_pos_as_xyz
  x,y,z
_cell_length_a	16.109304
_cell_length_b	16.109295
_cell_length_c	7.540329
_cell_angle_alpha	90.000029
_cell_angle_beta	89.999220
_cell_angle_gamma	96.539088
loop_
_atom_site_label
_atom_site_type_symbol
_atom_site_fract_x
_atom_site_fract_y
_atom_site_fract_z
O1	O	0.106844	-1.103134	-0.147350
O2	O	0.120148	-0.861072	-0.147379
O3	O	-0.007535	-0.988751	-0.147365
O4	O	0.234527	-0.975454	-0.147365
O5	O	-0.007537	-0.988744	0.147600
O6	O	0.120146	-0.861064	0.147586
O7	O	0.106842	-1.103127	0.147615
Cu8	Cu	0.113494	-0.982095	0.174533
Cu9	Cu	0.113496	-0.982104	-0.174297
O10	O	0.234525	-0.975447	0.147600
C11	C	0.119609	-0.830093	0.000100
C12	C	0.117996	-0.737797	0.000088
C13	C	0.190008	-0.515525	0.000107
C14	C	0.188485	-0.428804	0.000118
C15	C	0.036996	-0.448677	0.000110
C16	C	0.038520	-0.535396	0.000112
C17	C	0.115028	-0.568818	0.000102
C18	C	0.111982	-0.395378	0.000110
C19	C	0.110331	-0.301352	0.000122
C20	C	0.116679	-0.662850	0.000093
C21	C	-0.038511	-0.988209	0.000113
C22	C	-0.130806	-0.986592	0.000101
C23	C	-0.343143	-0.982863	-0.160678
C24	C	-0.429863	-0.981337	-0.160677
C25	C	-0.429861	-0.981333	0.160910
C26	C	-0.343142	-0.982853	0.160907
C27	C	-0.299785	-0.983622	0.000108
C28	C	-0.473225	-0.980576	0.000112
C29	C	-0.567251	-0.978921	0.000115
C30	C	-0.205753	-0.985275	0.000104
C31	C	0.265501	-0.975990	0.000118
C32	C	0.357796	-0.977606	0.000119
N33	N	0.113492	-0.982094	0.419881
C34	C	0.107386	-0.134105	0.000130
C35	C	0.109014	-0.226398	0.000124
N36	N	0.113491	-0.982110	-0.419646
H37	H	0.249542	-0.385417	0.000126
H38	H	-0.025294	-0.421455	0.000130
Br39	Br	-0.063247	-0.607729	0.000127
Br40	Br	-0.488707	-0.980286	0.379128
H41	H	-0.307844	-0.983487	-0.291612
Br42	Br	0.293839	-0.560880	0.000099
H43	H	-0.465160	-0.980717	-0.291605
H44	H	-0.307839	-0.983466	0.291846
