data_functionalizedCrystal
_audit_creation_method	'MofGen! by Chris Wilmer'
_symmetry_space_group_name_H-M	'P1'
_symmetry_Int_Tables_number	1
_symmetry_cell_setting	triclinic
loop_
_symmetry_equiv_pos_as_xyz
  x,y,z
_cell_length_a	16.120297
_cell_length_b	14.908618
_cell_length_c	14.908520
_cell_angle_alpha	89.795563
_cell_angle_beta	95.992230
_cell_angle_gamma	90.249346
loop_
_atom_site_label
_atom_site_type_symbol
_atom_site_fract_x
_atom_site_fract_y
_atom_site_fract_z
Zn1	Zn	-0.566614	-1.321184	-0.466671
Zn2	Zn	-0.066614	-0.821184	0.033329
Zn3	Zn	-0.434793	-1.320027	-0.610236
Zn4	Zn	0.065207	-0.820027	-0.110236
Zn5	Zn	-0.418797	-1.179371	-0.450384
Zn6	Zn	0.081203	-0.679371	0.049616
Zn7	Zn	-0.565646	-1.162168	-0.608240
Zn8	Zn	-0.065646	-0.662168	-0.108240
O9	O	-0.496463	-1.245688	-0.533883
O10	O	0.003537	-0.745688	-0.033883
O11	O	-0.556227	-1.446445	-0.493366
O12	O	-0.056227	-0.946445	0.006634
O13	O	-0.316047	-1.308083	-0.583050
O14	O	0.183953	-0.808083	-0.083050
O15	O	-0.432116	-1.205866	-0.326398
O16	O	0.067884	-0.705866	0.173602
O17	O	-0.459379	-1.445594	-0.598843
O18	O	0.040621	-0.945594	-0.098843
O19	O	-0.540716	-1.310056	-0.338364
O20	O	-0.040716	-0.810056	0.161636
O21	O	-0.304295	-1.204744	-0.465608
O22	O	0.195705	-0.704744	0.034392
O23	O	-0.431178	-1.051675	-0.463673
O24	O	0.068822	-0.551675	0.036327
O25	O	-0.682399	-1.176548	-0.595442
O26	O	-0.182399	-0.676548	-0.095442
O27	O	-0.539067	-1.039036	-0.579649
O28	O	-0.039067	-0.539036	-0.079649
O29	O	-0.683109	-1.293376	-0.491431
O30	O	-0.183109	-0.793376	0.008569
O31	O	-0.458441	-1.291403	-0.736117
O32	O	0.041559	-0.791403	-0.236117
O33	O	-0.554578	-1.175425	-0.734651
O34	O	-0.054578	-0.675425	-0.234651
C35	C	-0.483283	-1.012837	-0.519678
C36	C	0.016717	-0.512837	-0.019678
C37	C	-0.477665	-0.913220	-0.513623
C38	C	0.022335	-0.413220	-0.013623
C39	C	-0.579319	-0.712915	-0.623185
C40	C	-0.079319	-0.212915	-0.123185
C41	C	-0.574044	-0.619316	-0.617499
C42	C	-0.074044	-0.119316	-0.117499
C43	C	-0.461844	-0.632420	-0.496563
C44	C	0.038156	-0.132420	0.003437
C45	C	-0.467119	-0.726020	-0.502249
C46	C	0.032881	-0.226020	-0.002249
C47	C	-0.525858	-0.766263	-0.565562
C48	C	-0.025858	-0.266263	-0.065562
C49	C	-0.531129	-0.859865	-0.571252
C50	C	-0.031129	-0.359865	-0.071252
C51	C	-0.418933	-0.872968	-0.450312
C52	C	0.081067	-0.372968	0.049688
C53	C	-0.413657	-0.779368	-0.444626
C54	C	0.086343	-0.279368	0.055374
C55	C	-0.713839	-1.233172	-0.545030
C56	C	-0.213839	-0.733172	-0.045030
C57	C	-0.806472	-1.227839	-0.549781
C58	C	-0.306472	-0.727839	-0.049781
C59	C	-0.976070	-1.218070	-0.558432
C60	C	-0.476070	-0.718070	-0.058432
C61	C	-1.017704	-1.273499	-0.509073
C62	C	-0.517704	-0.773499	-0.009073
C63	C	-1.112074	-1.268063	-0.513887
C64	C	-0.612074	-0.768063	-0.013887
C65	C	-0.881691	-1.223504	-0.553620
C66	C	-0.381691	-0.723504	-0.053620
C67	C	-0.279932	-1.258210	-0.522716
C68	C	0.220068	-0.758210	-0.022716
C69	C	-0.187297	-1.263732	-0.517722
C70	C	0.312703	-0.763732	-0.017722
C71	C	-0.508160	-1.231445	-0.768095
C72	C	-0.008160	-0.731445	-0.268095
C73	C	-0.513196	-1.225433	-0.868298
C74	C	-0.013196	-0.725433	-0.368298
C75	C	-0.509688	-0.479448	-0.548136
C76	C	-0.009688	0.020552	-0.048136
C77	C	-0.515307	-0.579065	-0.554191
C78	C	-0.015307	-0.079065	-0.054191
C79	C	-0.422645	-1.335015	-1.058068
C80	C	0.077355	-0.835015	-0.558068
C81	C	-0.427375	-1.329369	-1.152218
C82	C	0.072625	-0.829369	-0.652218
C83	C	-0.527389	-1.208499	-1.150750
C84	C	-0.027389	-0.708499	-0.650750
C85	C	-0.522659	-1.214145	-1.056600
C86	C	-0.022659	-0.714145	-0.556600
C87	C	-0.470285	-1.277404	-1.010262
C88	C	0.029715	-0.777404	-0.510262
C89	C	-0.465551	-1.283046	-0.916110
C90	C	0.034449	-0.783046	-0.416110
C91	C	-0.565569	-1.162181	-0.914645
C92	C	-0.065569	-0.662181	-0.414645
C93	C	-0.570299	-1.156534	-1.008795
C94	C	-0.070299	-0.656534	-0.508795
C95	C	-0.484740	-1.260009	-0.298758
C96	C	0.015260	-0.760009	0.201242
C97	C	-0.479744	-1.266112	-0.198562
C98	C	0.020256	-0.766112	0.301438
H99	H	-0.627143	-0.745682	-0.674742
H100	H	-0.127143	-0.245682	-0.174742
F101	F	-0.971659	-1.340876	-0.449130
F102	F	-0.471659	-0.840876	0.050870
H103	H	-0.578956	-0.892629	-0.622806
H104	H	-0.078956	-0.392629	-0.122806
F105	F	-1.022116	-1.150714	-0.618390
F106	F	-0.522116	-0.650714	-0.118390
F107	F	-0.409807	-1.350367	-0.866795
F108	F	0.090193	-0.850367	-0.366795
F109	F	-0.366894	-1.402328	-1.008748
F110	F	0.133106	-0.902328	-0.508748
F111	F	-0.583135	-1.141189	-1.200083
F112	F	-0.083135	-0.641189	-0.700083
F113	F	-0.362026	-0.929752	-0.388988
F114	F	0.137974	-0.429752	0.111012
F115	F	-0.630947	-0.562541	-0.678827
F116	F	-0.130947	-0.062541	-0.178827
F117	F	-0.376672	-1.390688	-1.203093
F118	F	0.123328	-0.890688	-0.703093
H119	H	-0.612943	-1.105033	-1.046536
H120	H	-0.112943	-0.605033	-0.546536
F121	F	-0.616265	-1.100854	-0.863759
F122	F	-0.116265	-0.600854	-0.363759
H123	H	-0.414026	-0.599637	-0.445011
H124	H	0.085974	-0.099637	0.054989
H125	H	-0.365836	-0.746589	-0.393076
H126	H	0.134164	-0.246589	0.106924
