data_functionalizedCrystal
_audit_creation_method	'MofGen! by Chris Wilmer'
_symmetry_space_group_name_H-M	'P1'
_symmetry_Int_Tables_number	1
_symmetry_cell_setting	triclinic
loop_
_symmetry_equiv_pos_as_xyz
  x,y,z
_cell_length_a	19.805407
_cell_length_b	21.295417
_cell_length_c	19.805399
_cell_angle_alpha	89.969157
_cell_angle_beta	89.980427
_cell_angle_gamma	90.030507
loop_
_atom_site_label
_atom_site_type_symbol
_atom_site_fract_x
_atom_site_fract_y
_atom_site_fract_z
Zn1	Zn	1.034716	-0.250624	-0.382704
Zn2	Zn	1.368050	0.082710	-0.049371
Zn3	Zn	1.701383	0.416043	0.283962
Zn4	Zn	1.034623	-0.355893	-0.269510
Zn5	Zn	1.367956	-0.022559	0.063824
Zn6	Zn	1.701290	0.310774	0.397157
Zn7	Zn	0.921531	-0.250641	-0.269529
Zn8	Zn	1.254864	0.082692	0.063804
Zn9	Zn	1.588198	0.416026	0.397138
Zn10	Zn	0.921486	-0.355859	-0.382656
Zn11	Zn	1.254820	-0.022526	-0.049323
Zn12	Zn	1.588153	0.310808	0.284010
O13	O	0.978089	-0.303254	-0.326100
O14	O	1.311423	0.030079	0.007234
O15	O	1.644756	0.363413	0.340567
O16	O	1.129421	-0.264595	-0.367701
O17	O	1.462754	0.068739	-0.034367
O18	O	1.796087	0.402072	0.298966
O19	O	1.019601	-0.341952	-0.174796
O20	O	1.352934	-0.008619	0.158538
O21	O	1.686268	0.324715	0.491871
O22	O	0.936603	-0.162549	-0.284570
O23	O	1.269936	0.170784	0.048763
O24	O	1.603270	0.504117	0.382097
O25	O	1.129352	-0.341935	-0.284537
O26	O	1.462685	-0.008602	0.048796
O27	O	1.796019	0.324732	0.382130
O28	O	1.019760	-0.162537	-0.367719
O29	O	1.353093	0.170797	-0.034386
O30	O	1.686426	0.504130	0.298947
O31	O	0.936513	-0.264624	-0.174810
O32	O	1.269846	0.068709	0.158524
O33	O	1.603179	0.402042	0.491857
O34	O	0.826809	-0.264592	-0.284523
O35	O	1.160142	0.068742	0.048810
O36	O	1.493475	0.402075	0.382143
O37	O	0.936527	-0.341878	-0.477379
O38	O	1.269860	-0.008545	-0.144046
O39	O	1.603194	0.324789	0.189287
O40	O	0.826776	-0.341895	-0.367638
O41	O	1.160109	-0.008562	-0.034304
O42	O	1.493442	0.324772	0.299029
O43	O	1.019717	-0.264562	-0.477415
O44	O	1.353050	0.068771	-0.144081
O45	O	1.686383	0.402104	0.189252
O46	O	1.019558	-0.443977	-0.284491
O47	O	1.352891	-0.110644	0.048843
O48	O	1.686224	0.222689	0.382176
O49	O	0.936437	-0.443953	-0.367619
O50	O	1.269770	-0.110620	-0.034286
O51	O	1.603103	0.222714	0.299048
C52	C	0.802233	-0.303242	-0.326078
C53	C	1.135567	0.030091	0.007255
C54	C	1.468900	0.363425	0.340589
C55	C	0.727001	-0.303252	-0.326085
C56	C	1.060335	0.030081	0.007249
C57	C	1.393668	0.363415	0.340582
C58	C	0.691658	-0.343564	-0.369292
C59	C	1.024991	-0.010231	-0.035959
C60	C	1.358324	0.323102	0.297375
C61	C	0.620969	-0.343566	-0.369302
C62	C	0.954303	-0.010232	-0.035968
C63	C	1.287636	0.323101	0.297365
C64	C	0.585626	-0.303257	-0.326100
C65	C	0.918959	0.030076	0.007234
C66	C	1.252292	0.363410	0.340567
C67	C	0.620974	-0.262940	-0.282890
C68	C	0.954307	0.070393	0.050443
C69	C	1.287641	0.403726	0.383776
C70	C	0.691661	-0.262936	-0.282885
C71	C	1.024995	0.070397	0.050449
C72	C	1.358328	0.403730	0.383782
C73	C	0.335901	-0.262954	-0.282913
C74	C	0.669234	0.070379	0.050421
C75	C	1.002568	0.403713	0.383754
C76	C	0.265209	-0.262962	-0.282920
C77	C	0.598542	0.070371	0.050413
C78	C	0.931875	0.403704	0.383746
C79	C	0.265209	-0.343583	-0.369330
C80	C	0.598542	-0.010250	-0.035996
C81	C	0.931876	0.323083	0.297337
C82	C	0.335896	-0.343579	-0.369324
C83	C	0.669229	-0.010246	-0.035991
C84	C	1.002563	0.323087	0.297343
C85	C	0.371238	-0.303261	-0.326117
C86	C	0.704572	0.030073	0.007216
C87	C	1.037905	0.363406	0.340549
C88	C	0.447887	-0.303259	-0.326109
C89	C	0.781220	0.030074	0.007225
C90	C	1.114553	0.363408	0.340558
C91	C	0.508979	-0.303261	-0.326105
C92	C	0.842312	0.030072	0.007229
C93	C	1.175645	0.363405	0.340562
C94	C	0.978001	-0.466806	-0.326062
C95	C	1.311334	-0.133472	0.007271
C96	C	1.644667	0.199861	0.340604
C97	C	0.978024	-0.536774	-0.326069
C98	C	1.311358	-0.203441	0.007264
C99	C	1.644691	0.129893	0.340598
C100	C	1.021344	-0.569632	-0.282828
C101	C	1.354677	-0.236299	0.050505
C102	C	1.688011	0.097034	0.383838
C103	C	1.021376	-0.635375	-0.282844
C104	C	1.354709	-0.302042	0.050490
C105	C	1.688042	0.031292	0.383823
C106	C	0.978076	-0.668256	-0.326092
C107	C	1.311409	-0.334923	0.007241
C108	C	1.644743	-0.001590	0.340574
C109	C	0.934753	-0.635390	-0.369341
C110	C	1.268087	-0.302057	-0.036008
C111	C	1.601420	0.031277	0.297325
C112	C	0.934728	-0.569649	-0.369330
C113	C	1.268061	-0.236315	-0.035996
C114	C	1.601394	0.097018	0.297337
N115	N	0.918865	-0.771522	-0.331245
N116	N	1.252199	-0.438189	0.002089
N117	N	1.585532	-0.104856	0.335422
N118	N	0.918892	-0.833974	-0.331252
N119	N	1.252225	-0.500640	0.002081
N120	N	1.585558	-0.167307	0.335415
C121	C	0.978152	-0.866331	-0.326131
C122	C	1.311485	-0.532998	0.007202
C123	C	1.644818	-0.199664	0.340536
N124	N	1.037386	-0.833878	-0.320989
N125	N	1.370719	-0.500544	0.012344
N126	N	1.704052	-0.167211	0.345677
N127	N	1.037358	-0.771421	-0.320979
N128	N	1.370692	-0.438087	0.012354
N129	N	1.704025	-0.104754	0.345688
C130	C	0.978099	-0.739542	-0.326110
C131	C	1.311433	-0.406208	0.007223
C132	C	1.644766	-0.072875	0.340557
C133	C	1.021509	-0.970475	-0.282905
C134	C	1.354843	-0.637142	0.050429
C135	C	1.688176	-0.303808	0.383762
C136	C	1.021542	-1.036219	-0.282925
C137	C	1.354875	-0.702885	0.050409
C138	C	1.688209	-0.369552	0.383742
C139	C	0.934914	-1.036233	-0.369419
C140	C	1.268247	-0.702899	-0.036085
C141	C	1.601580	-0.369566	0.297248
C142	C	0.934887	-0.970490	-0.369402
C143	C	1.268220	-0.637157	-0.036069
C144	C	1.601553	-0.303823	0.297264
C145	C	0.978184	-0.937615	-0.326142
C146	C	1.311517	-0.604282	0.007192
C147	C	1.644850	-0.270949	0.340525
C148	C	1.154632	-0.303267	-0.326122
C149	C	1.487965	0.030067	0.007211
C150	C	1.821299	0.363400	0.340545
C151	C	1.229864	-0.303272	-0.326132
C152	C	1.563197	0.030061	0.007202
C153	C	1.896531	0.363395	0.340535
C154	C	0.978127	-0.303214	-0.502643
C155	C	1.311461	0.030119	-0.169309
C156	C	1.644794	0.363452	0.164024
C157	C	0.978143	-0.303198	-0.577875
C158	C	1.311477	0.030136	-0.244541
C159	C	1.644810	0.363469	0.088792
C160	C	0.978197	-0.139064	-0.326152
C161	C	1.311530	0.194269	0.007181
C162	C	1.644863	0.527603	0.340514
C163	C	0.978243	-0.069096	-0.326175
C164	C	1.311576	0.264238	0.007159
C165	C	1.644909	0.597571	0.340492
C166	C	1.021461	-0.262937	-0.613238
C167	C	1.354795	0.070396	-0.279905
C168	C	1.688128	0.403729	0.053428
C169	C	1.021468	-0.262919	-0.683927
C170	C	1.354801	0.070414	-0.350593
C171	C	1.688135	0.403748	-0.017260
C172	C	0.978160	-0.303165	-0.719250
C173	C	1.311494	0.030169	-0.385917
C174	C	1.644827	0.363502	-0.052584
C175	C	0.934838	-0.343427	-0.683882
C176	C	1.268171	-0.010094	-0.350548
C177	C	1.601504	0.323240	-0.017215
C178	C	0.934828	-0.343442	-0.613195
C179	C	1.268161	-0.010108	-0.279861
C180	C	1.601494	0.323225	0.053472
C181	C	0.934876	-0.343368	-0.968955
C182	C	1.268209	-0.010035	-0.635622
C183	C	1.601543	0.323298	-0.302289
C184	C	0.934891	-0.343352	-1.039647
C185	C	1.268224	-0.010018	-0.706314
C186	C	1.601557	0.323315	-0.372981
C187	C	1.021516	-0.262846	-1.039687
C188	C	1.354850	0.070488	-0.706354
C189	C	1.688183	0.403821	-0.373021
C190	C	1.021506	-0.262860	-0.969000
C191	C	1.354840	0.070473	-0.635667
C192	C	1.688173	0.403806	-0.302333
C193	C	0.978182	-0.303120	-0.933638
C194	C	1.311515	0.030214	-0.600304
C195	C	1.644848	0.363547	-0.266971
C196	C	0.978174	-0.303138	-0.856989
C197	C	1.311507	0.030195	-0.523656
C198	C	1.644840	0.363528	-0.190323
C199	C	0.978171	-0.303150	-0.795897
C200	C	1.311504	0.030183	-0.462564
C201	C	1.644838	0.363517	-0.129231
C202	C	0.978090	-0.303248	-0.150244
C203	C	1.311424	0.030085	0.183090
C204	C	1.644757	0.363418	0.516423
C205	C	0.978205	-0.303088	-0.075012
C206	C	1.311539	0.030246	0.258321
C207	C	1.644872	0.363579	0.591654
H208	H	0.236434	-0.230134	-0.247740
H209	H	0.569767	0.103199	0.085593
H210	H	0.903101	0.436532	0.418927
H211	H	0.720429	-0.376391	-0.404470
H212	H	1.053763	-0.043057	-0.071137
H213	H	1.387096	0.290276	0.262197
H214	H	0.592192	-0.230118	-0.247718
H215	H	0.925525	0.103216	0.085616
H216	H	1.258858	0.436549	0.418949
C217	C	0.887215	-0.387653	-0.930066
C218	C	1.220549	-0.054320	-0.596732
C219	C	1.553882	0.279014	-0.263399
N220	N	0.851314	-0.421009	-0.900772
N221	N	1.184647	-0.087676	-0.567439
N222	N	1.517980	0.245657	-0.234105
H223	H	0.899451	-0.542895	-0.404542
H224	H	1.232784	-0.209561	-0.071209
H225	H	1.566118	0.123772	0.262125
C226	C	0.226326	-0.387930	-0.416864
C227	C	0.559659	-0.054597	-0.083531
C228	C	0.892993	0.278737	0.249803
N229	N	0.197041	-0.421332	-0.452665
N230	N	0.530374	-0.087998	-0.119332
N231	N	0.863707	0.245335	0.214002
C232	C	0.887192	-0.387692	-0.722740
C233	C	1.220525	-0.054358	-0.389407
C234	C	1.553859	0.278975	-0.056074
N235	N	0.851304	-0.421033	-0.752008
N236	N	1.184637	-0.087699	-0.418674
N237	N	1.517970	0.245634	-0.085341
H238	H	1.056743	-0.230136	-0.712717
H239	H	1.390077	0.103197	-0.379383
H240	H	1.723410	0.436530	-0.046050
H241	H	0.899547	-0.376219	-0.584402
H242	H	1.232881	-0.042886	-0.251069
H243	H	1.566214	0.290447	0.082264
H244	H	1.056791	-0.230062	-1.068488
H245	H	1.390124	0.103271	-0.735155
H246	H	1.723458	0.436605	-0.401821
C247	C	0.374768	-0.218606	-0.235380
C248	C	0.708102	0.114727	0.097954
C249	C	1.041435	0.448061	0.431287
N250	N	0.404045	-0.185202	-0.199575
N251	N	0.737379	0.148131	0.133759
N252	N	1.070712	0.481465	0.467092
C253	C	0.730539	-0.218591	-0.235352
C254	C	1.063872	0.114742	0.097982
C255	C	1.397205	0.448076	0.431315
N256	N	0.759820	-0.185188	-0.199549
N257	N	1.093154	0.148146	0.133784
N258	N	1.426487	0.481479	0.467118
C259	C	1.069104	-0.218662	-0.574389
C260	C	1.402437	0.114671	-0.241055
C261	C	1.735770	0.448004	0.092278
N262	N	1.104987	-0.185311	-0.545129
N263	N	1.438320	0.148023	-0.211796
N264	N	1.771654	0.481356	0.121537
H265	H	1.056767	-0.943707	-0.247681
H266	H	1.390100	-0.610374	0.085652
H267	H	1.723433	-0.277041	0.418986
H268	H	1.056601	-0.542868	-0.247605
H269	H	1.389934	-0.209534	0.085729
H270	H	1.723267	0.123799	0.419062
H271	H	1.056654	-0.662134	-0.247632
H272	H	1.389988	-0.328800	0.085701
H273	H	1.723321	0.004533	0.419035
H274	H	0.592196	-0.376393	-0.404485
H275	H	0.925529	-0.043059	-0.071152
H276	H	1.258862	0.290274	0.262182
C277	C	1.069199	-1.072363	-0.235353
C278	C	1.402533	-0.739030	0.097980
C279	C	1.735866	-0.405696	0.431313
N280	N	1.105094	-1.099587	-0.199520
N281	N	1.438427	-0.766254	0.133813
N282	N	1.771761	-0.432921	0.467146
C283	C	0.374770	-0.387923	-0.416848
C284	C	0.708103	-0.054589	-0.083515
C285	C	1.041437	0.278744	0.249818
N286	N	0.404049	-0.421322	-0.452647
N287	N	0.737382	-0.087988	-0.119313
N288	N	1.070716	0.245345	0.214020
C289	C	0.887121	-0.671561	-0.416913
C290	C	1.220454	-0.338227	-0.083579
C291	C	1.553787	-0.004894	0.249754
N292	N	0.851243	-0.698805	-0.452745
N293	N	1.184576	-0.365471	-0.119412
N294	N	1.517910	-0.032138	0.213921
H295	H	0.899661	-1.063004	-0.404636
H296	H	1.232994	-0.729671	-0.071302
H297	H	1.566328	-0.396337	0.262031
C298	C	0.887245	-0.934344	-0.416985
C299	C	1.220578	-0.601011	-0.083652
C300	C	1.553912	-0.267678	0.249682
N301	N	0.851366	-0.907119	-0.452834
N302	N	1.184700	-0.573786	-0.119501
N303	N	1.518033	-0.240453	0.213832
C304	C	1.069146	-0.218584	-0.930148
C305	C	1.402479	0.114749	-0.596815
C306	C	1.735812	0.448082	-0.263481
N307	N	1.105026	-0.185232	-0.900886
N308	N	1.438359	0.148101	-0.567552
N309	N	1.771692	0.481435	-0.234219
H310	H	0.899621	-0.376126	-1.068406
H311	H	1.232954	-0.042793	-0.735073
H312	H	1.566288	0.290541	-0.401739
