data_functionalizedCrystal
_audit_creation_method	'MofGen! by Chris Wilmer'
_symmetry_space_group_name_H-M	'P1'
_symmetry_Int_Tables_number	1
_symmetry_cell_setting	triclinic
loop_
_symmetry_equiv_pos_as_xyz
  x,y,z
_cell_length_a	23.532361
_cell_length_b	10.654552
_cell_length_c	22.610064
_cell_angle_alpha	90.007505
_cell_angle_beta	90.003897
_cell_angle_gamma	96.342334
loop_
_atom_site_label
_atom_site_type_symbol
_atom_site_fract_x
_atom_site_fract_y
_atom_site_fract_z
O1	O	0.756272	-0.152143	0.049121
O2	O	0.590549	-0.174260	0.049135
O3	O	0.677221	0.019660	0.049129
O4	O	0.669601	-0.346063	0.049127
O5	O	0.677205	0.019632	-0.049240
O6	O	0.590534	-0.174289	-0.049234
O7	O	0.756257	-0.152171	-0.049248
Zn8	Zn	0.673393	-0.163234	-0.064860
Zn9	Zn	0.673413	-0.163197	0.064746
O10	O	0.669586	-0.346091	-0.049242
C11	C	0.569322	-0.173720	-0.000048
C12	C	0.506092	-0.172055	-0.000043
C13	C	0.232809	-0.164756	0.053575
C14	C	0.292220	-0.166332	0.053576
O15	O	0.322958	-0.167091	0.099178
N16	N	0.321922	-0.167144	-0.000045
C17	C	0.292212	-0.166366	-0.053671
O18	O	0.322932	-0.167200	-0.099280
C19	C	0.232804	-0.164781	-0.053672
C20	C	0.203104	-0.163982	-0.000047
C21	C	0.203109	-0.163956	0.107195
C22	C	0.143703	-0.162382	0.107194
C23	C	0.113997	-0.161608	0.053571
C24	C	0.143697	-0.162408	-0.000049
C25	C	0.203095	-0.163994	-0.107298
C26	C	0.143683	-0.162408	-0.107294
C27	C	0.113983	-0.161609	-0.053669
C28	C	0.054585	-0.160061	-0.053673
N29	N	0.024883	-0.159249	-0.000051
C30	C	0.054589	-0.160023	0.053571
C31	C	0.416974	-0.169694	-0.053665
C32	C	0.476381	-0.171288	-0.053665
C33	C	0.476384	-0.171251	0.053583
C34	C	0.416976	-0.169666	0.053582
C35	C	0.387271	-0.168882	-0.000044
C36	C	-0.070168	-0.156718	0.053563
C37	C	-0.129580	-0.155150	0.053557
C38	C	-0.129578	-0.155180	-0.053691
C39	C	-0.070172	-0.156755	-0.053685
C40	C	-0.040468	-0.157520	-0.000053
O41	O	0.023810	-0.159296	-0.099251
O42	O	0.023863	-0.159172	0.099172
C43	C	0.676653	0.066426	-0.000054
C44	C	0.674979	0.205815	-0.000049
C45	C	0.777485	-0.152711	-0.000064
C46	C	0.840714	-0.154376	-0.000065
C47	C	0.674202	0.271317	0.053571
C48	C	0.672623	0.402287	0.053569
C49	C	0.672602	0.402242	-0.053679
C50	C	0.674176	0.271273	-0.053676
C51	C	0.675004	0.205860	0.107197
C52	C	0.674228	0.271362	0.160822
C53	C	0.672650	0.402332	0.160820
C54	C	0.671848	0.467799	0.107193
N55	N	0.673384	-0.163259	-0.153312
C56	C	0.670153	0.607143	-0.000057
C57	C	0.671826	0.467753	-0.000054
C58	C	0.711793	-0.077342	-0.561956
C59	C	0.711796	-0.077333	-0.623876
O60	O	0.744429	-0.004302	-0.655897
N61	N	0.673413	-0.163171	-0.654849
C62	C	0.635020	-0.249015	-0.623899
O63	O	0.602372	-0.322025	-0.655930
C64	C	0.635015	-0.249017	-0.561980
C65	C	0.673405	-0.163182	-0.531010
C66	C	0.750179	0.008487	-0.530986
C67	C	0.750177	0.008476	-0.469070
C68	C	0.711789	-0.077364	-0.438125
C69	C	0.673403	-0.163193	-0.469095
C70	C	0.596620	-0.334854	-0.531032
C71	C	0.596618	-0.334848	-0.469109
C72	C	0.635008	-0.249013	-0.438139
C73	C	0.635012	-0.249044	-0.376234
N74	N	0.673395	-0.163206	-0.345260
C75	C	0.711783	-0.077366	-0.376206
C76	C	0.635033	-0.249002	-0.753933
C77	C	0.635041	-0.249007	-0.815850
C78	C	0.711816	-0.077323	-0.815823
C79	C	0.711811	-0.077326	-0.753904
C80	C	0.673417	-0.163165	-0.722960
C81	C	0.711776	-0.077397	-0.246179
C82	C	0.711772	-0.077419	-0.184258
C83	C	0.634995	-0.249098	-0.184290
C84	C	0.635001	-0.249081	-0.246206
C85	C	0.673394	-0.163220	-0.277149
O86	O	0.602394	-0.322034	-0.344173
O87	O	0.744421	-0.004357	-0.344168
N88	N	0.673428	-0.163162	0.153199
H89	H	0.119527	-0.161725	0.150860
H90	H	0.674875	0.218048	0.204483
F91	F	0.234716	-0.164776	0.164272
H92	H	0.672012	0.455659	0.204484
F93	F	0.385365	-0.168874	-0.110745
F94	F	0.555751	-0.426210	-0.436179
F95	F	0.676687	0.066471	0.107204
H96	H	0.500557	-0.171959	-0.097332
F97	F	-0.161204	-0.154361	-0.110756
H98	H	0.670555	0.574441	0.107196
H99	H	0.674797	0.217936	-0.097338
F100	F	0.234692	-0.164845	-0.164374
F101	F	0.791040	0.099858	-0.563912
H102	H	0.671950	0.455556	-0.097339
F103	F	0.752634	0.013940	-0.151300
F104	F	0.385372	-0.168814	0.110656
F105	F	0.752638	0.013986	-0.279101
H106	H	0.781436	0.078373	-0.443858
H107	H	-0.045991	-0.157343	0.097235
F108	F	0.752669	0.014032	-0.720949
H109	H	0.743073	-0.007426	-0.841030
H110	H	0.119500	-0.161781	-0.150964
H111	H	0.500582	-0.171880	0.097245
F112	F	0.594189	-0.340379	-0.848805
H113	H	0.603770	-0.318913	-0.728741
H114	H	0.565360	-0.404748	-0.556239
F115	F	-0.038562	-0.157622	-0.110758
F116	F	0.594148	-0.340450	-0.279166
H117	H	0.603741	-0.318991	-0.159085
H118	H	-0.153759	-0.154503	0.097226
