data_functionalizedCrystal
_audit_creation_method	'MofGen! by Chris Wilmer'
_symmetry_space_group_name_H-M	'P1'
_symmetry_Int_Tables_number	1
_symmetry_cell_setting	triclinic
loop_
_symmetry_equiv_pos_as_xyz
  x,y,z
_cell_length_a	10.654550
_cell_length_b	15.995350
_cell_length_c	9.130313
_cell_angle_alpha	89.997713
_cell_angle_beta	89.999724
_cell_angle_gamma	83.988653
loop_
_atom_site_label
_atom_site_type_symbol
_atom_site_fract_x
_atom_site_fract_y
_atom_site_fract_z
O1	O	1.666303	0.117603	-0.121682
O2	O	1.300678	0.128807	-0.121708
O3	O	1.493485	0.001375	-0.121693
O4	O	1.473496	0.245034	-0.121697
O5	O	1.493472	0.001371	0.121906
O6	O	1.300665	0.128803	0.121891
O7	O	1.666290	0.117599	0.121917
Cu8	Cu	1.483476	0.123201	0.144146
Cu9	Cu	1.483492	0.123205	-0.143938
O10	O	1.473483	0.245031	0.121902
C11	C	1.253884	0.127982	0.000088
C12	C	1.114473	0.125521	0.000078
C13	C	1.034008	0.200551	0.000080
C14	C	0.903017	0.198233	0.000106
C15	C	0.932971	0.045849	0.000120
C16	C	1.063959	0.048168	0.000105
C17	C	1.492652	-0.029826	0.000103
C18	C	1.490175	-0.122791	0.000095
C19	C	1.481277	-0.460590	0.000099
C20	C	1.343964	-0.413954	-0.000457
C21	C	1.346442	-0.317249	0.000092
C22	C	1.485691	-0.293004	0.000096
C23	C	1.553411	-0.333690	0.139205
C24	C	1.549962	-0.430346	0.139322
C25	C	1.552813	-0.430684	-0.137696
C26	C	1.552781	-0.333738	-0.139534
C27	C	1.488192	-0.198292	0.000100
C28	C	1.478780	-0.555303	0.000106
C29	C	1.713084	0.118423	0.000118
C30	C	1.852495	0.120885	0.000118
C31	C	1.474316	0.276232	0.000102
C32	C	1.476793	0.369197	0.000101
N33	N	1.483475	0.123197	0.346769
N34	N	1.483504	0.123202	-0.346560
C35	C	1.568878	0.066794	0.423427
C36	C	1.568890	0.066794	0.576764
C37	C	1.398091	0.179608	0.576770
C38	C	1.398074	0.179603	0.423436
H39	H	0.837506	0.259330	0.000111
N40	N	1.275928	-0.279999	-0.131990
H41	H	1.242950	-0.326396	-0.191095
H42	H	1.202901	-0.239067	-0.098653
N43	N	1.686923	-0.471963	-0.138925
H44	H	1.732421	-0.452507	-0.227679
H45	H	1.731603	-0.455981	-0.047123
N46	N	1.688937	-0.314227	0.146046
H47	H	1.707783	-0.278758	0.058832
H48	H	1.702912	-0.282498	0.239266
N49	N	0.878470	-0.037573	0.000131
H50	H	0.907807	-0.070479	-0.090171
H51	H	0.907828	-0.070413	0.090493
H52	H	1.129478	-0.012934	0.000106
H53	H	1.289086	-0.432803	-0.100215
H54	H	1.328561	0.225533	0.639208
N55	N	1.491106	-0.296479	0.276345
H56	H	1.554850	-0.268739	0.336215
H57	H	1.419017	-0.253305	0.248572
H58	H	1.507924	-0.451482	-0.243132
H59	H	1.638432	0.020865	0.639175
H60	H	1.328522	0.225533	0.361017
H61	H	1.075132	0.263537	0.000069
H62	H	1.289319	-0.433866	0.098738
H63	H	1.292840	-0.289697	0.099974
N64	N	1.487281	-0.297969	-0.275861
H65	H	1.414455	-0.255552	-0.247309
H66	H	1.549114	-0.269610	-0.337591
H67	H	1.650775	-0.462009	0.145636
N68	N	1.660954	0.005937	0.340738
H69	H	1.647983	0.014488	0.231968
H70	H	1.750048	0.016149	0.367513
H71	H	1.500569	-0.448936	0.243305
N72	N	1.687294	-0.312616	-0.150667
H73	H	1.706738	-0.276182	-0.064970
H74	H	1.746530	-0.366210	-0.149471
