data_functionalizedCrystal
_audit_creation_method	'MofGen! by Chris Wilmer'
_symmetry_space_group_name_H-M	'P1'
_symmetry_Int_Tables_number	1
_symmetry_cell_setting	triclinic
loop_
_symmetry_equiv_pos_as_xyz
  x,y,z
_cell_length_a	19.077105
_cell_length_b	16.120444
_cell_length_c	19.076919
_cell_angle_alpha	84.952692
_cell_angle_beta	89.923776
_cell_angle_gamma	90.739589
loop_
_atom_site_label
_atom_site_type_symbol
_atom_site_fract_x
_atom_site_fract_y
_atom_site_fract_z
Zn1	Zn	1.040330	-0.403263	0.456946
Zn2	Zn	1.373664	-0.069930	0.790280
Zn3	Zn	1.706997	0.263403	1.123613
Zn4	Zn	1.039008	-0.537289	0.344933
Zn5	Zn	1.372341	-0.203956	0.678266
Zn6	Zn	1.705675	0.129378	1.011599
Zn7	Zn	0.928045	-0.392097	0.334282
Zn8	Zn	1.261378	-0.058763	0.667615
Zn9	Zn	1.594712	0.274570	1.000949
Zn10	Zn	0.916852	-0.536786	0.457665
Zn11	Zn	1.250185	-0.203453	0.790998
Zn12	Zn	1.583519	0.129880	1.124331
O13	O	0.981059	-0.467359	0.398456
O14	O	1.314392	-0.134025	0.731790
O15	O	1.647726	0.199308	1.065123
O16	O	1.138270	-0.425926	0.446244
O17	O	1.471603	-0.092592	0.779577
O18	O	1.804936	0.240741	1.112911
O19	O	1.028419	-0.513566	0.245006
O20	O	1.361753	-0.180233	0.578339
O21	O	1.695086	0.153101	0.911672
O22	O	0.948178	-0.276935	0.345795
O23	O	1.281511	0.056399	0.679129
O24	O	1.614844	0.389732	1.012462
O25	O	1.137298	-0.524394	0.363948
O26	O	1.470631	-0.191060	0.697281
O27	O	1.803965	0.142273	1.030615
O28	O	1.030673	-0.285139	0.435916
O29	O	1.364007	0.048195	0.769250
O30	O	1.697340	0.381528	1.102583
O31	O	0.946895	-0.406894	0.237181
O32	O	1.280229	-0.073561	0.570514
O33	O	1.613562	0.259773	0.903847
O34	O	0.828446	-0.406406	0.346492
O35	O	1.161779	-0.073073	0.679825
O36	O	1.495112	0.260260	1.013159
O37	O	0.929101	-0.523537	0.556084
O38	O	1.262434	-0.190204	0.889417
O39	O	1.595768	0.143130	1.222750
O40	O	0.820222	-0.512709	0.437141
O41	O	1.153556	-0.179376	0.770474
O42	O	1.486889	0.153957	1.103808
O43	O	1.019820	-0.425438	0.555556
O44	O	1.353153	-0.092105	0.888889
O45	O	1.686487	0.241229	1.222222
O46	O	1.017566	-0.653865	0.364645
O47	O	1.350899	-0.320532	0.697978
O48	O	1.684233	0.012801	1.031311
O49	O	0.927819	-0.653496	0.447469
O50	O	1.261152	-0.320163	0.780802
O51	O	1.594485	0.013171	1.114135
C52	C	0.798894	-0.458292	0.390739
C53	C	1.132227	-0.124959	0.724073
C54	C	1.465561	0.208374	1.057406
C55	C	0.720961	-0.454434	0.387455
C56	C	1.054295	-0.121101	0.720789
C57	C	1.387628	0.212232	1.054122
C58	C	0.680085	-0.508045	0.433041
C59	C	1.013418	-0.174712	0.766374
C60	C	1.346752	0.158621	1.099708
C61	C	0.606859	-0.504409	0.429958
C62	C	0.940193	-0.171076	0.763292
C63	C	1.273526	0.162257	1.096625
C64	C	0.574512	-0.447166	0.381286
C65	C	0.907845	-0.113833	0.714619
C66	C	1.241178	0.219500	1.047953
C67	C	0.615394	-0.393550	0.335698
C68	C	0.948727	-0.060216	0.669032
C69	C	1.282060	0.273117	1.002365
C70	C	0.688618	-0.397182	0.338785
C71	C	1.021951	-0.063849	0.672118
C72	C	1.355285	0.269485	1.005452
C73	C	0.355972	-0.430356	0.367004
C74	C	0.689306	-0.097023	0.700338
C75	C	1.022639	0.236311	1.033671
C76	C	0.282743	-0.426729	0.363920
C77	C	0.616076	-0.093396	0.697253
C78	C	0.949409	0.239937	1.030587
C79	C	0.274213	-0.537589	0.458181
C80	C	0.607547	-0.204255	0.791514
C81	C	0.940880	0.129078	1.124848
C82	C	0.347439	-0.541219	0.461261
C83	C	0.680773	-0.207886	0.794594
C84	C	1.014106	0.125448	1.127927
C85	C	0.388315	-0.487600	0.415675
C86	C	0.721648	-0.154266	0.749009
C87	C	1.054982	0.179067	1.082342
N88	N	0.499664	-0.443450	0.378132
N89	N	0.832997	-0.110117	0.711466
N90	N	1.166330	0.223216	1.044799
N91	N	0.463162	-0.491312	0.418833
N92	N	0.796495	-0.157979	0.752166
N93	N	1.129828	0.175355	1.085500
C94	C	0.971353	-0.683927	0.407307
C95	C	1.304686	-0.350593	0.740640
C96	C	1.638019	-0.017260	1.073973
C97	C	0.967263	-0.776580	0.411119
C98	C	1.300597	-0.443246	0.744452
C99	C	1.633930	-0.109913	1.077786
C100	C	1.002437	-0.987660	0.378838
C101	C	1.335771	-0.654326	0.712171
C102	C	1.669104	-0.320993	1.045505
C103	C	0.959810	-0.946213	0.418087
C104	C	1.293143	-0.612880	0.751421
C105	C	1.626477	-0.279547	1.084754
C106	C	0.963958	-0.851820	0.414209
C107	C	1.297292	-0.518487	0.747542
C108	C	1.630625	-0.185154	1.080876
C109	C	0.998290	-1.082061	0.382716
C110	C	1.331623	-0.748728	0.716049
C111	C	1.664957	-0.415394	1.049382
C112	C	1.163935	-0.476461	0.406204
C113	C	1.497268	-0.143128	0.739537
C114	C	1.830602	0.190205	1.072871
C115	C	1.241866	-0.480340	0.409506
C116	C	1.575199	-0.147007	0.742839
C117	C	1.908533	0.186326	1.076172
C118	C	0.973359	-0.475677	0.582077
C119	C	1.306693	-0.142344	0.915411
C120	C	1.640026	0.190990	1.248744
C121	C	0.970078	-0.479222	0.660326
C122	C	1.303412	-0.145888	0.993659
C123	C	1.636745	0.187445	1.326992
C124	C	0.990822	-0.249947	0.389588
C125	C	1.324155	0.083387	0.722921
C126	C	1.657488	0.416720	1.056254
C127	C	0.994982	-0.157299	0.385808
C128	C	1.328315	0.176035	0.719142
C129	C	1.661648	0.509368	1.052475
C130	C	0.988772	-0.459015	0.215549
C131	C	1.322105	-0.125681	0.548882
C132	C	1.655438	0.207652	0.882215
C133	C	0.992199	-0.455242	0.137297
C134	C	1.325532	-0.121908	0.470630
C135	C	1.658866	0.211425	0.803964
C136	C	1.015767	-0.429815	0.696813
C137	C	1.349100	-0.096481	1.030147
C138	C	1.682434	0.236852	1.363480
C139	C	1.012676	-0.433142	0.770336
C140	C	1.346009	-0.099808	1.103669
C141	C	1.679342	0.233525	1.437002
C142	C	0.963899	-0.485881	0.807369
C143	C	1.297232	-0.152548	1.140702
C144	C	1.630565	0.180786	1.474036
C145	C	0.918205	-0.535290	0.770876
C146	C	1.251538	-0.201957	1.104210
C147	C	1.584872	0.131377	1.437543
C148	C	0.921294	-0.531958	0.697355
C149	C	1.254627	-0.198625	1.030688
C150	C	1.587960	0.134709	1.364022
C151	C	0.949594	-0.501319	1.027283
C152	C	1.282927	-0.167985	1.360616
C153	C	1.616260	0.165348	1.693950
C154	C	0.946510	-0.504649	1.100809
C155	C	1.279844	-0.171316	1.434143
C156	C	1.613177	0.162018	1.767476
C157	C	1.040980	-0.402499	1.100263
C158	C	1.374314	-0.069166	1.433597
C159	C	1.707647	0.264167	1.766930
C160	C	1.044067	-0.399176	1.026741
C161	C	1.377401	-0.065842	1.360075
C162	C	1.710734	0.267491	1.693408
C163	C	0.998371	-0.448581	0.990255
C164	C	1.331705	-0.115248	1.323588
C165	C	1.665038	0.218085	1.656921
N166	N	0.960739	-0.489285	0.882521
N167	N	1.294072	-0.155952	1.215854
N168	N	1.627406	0.177382	1.549187
N169	N	1.001528	-0.445172	0.915104
N170	N	1.334861	-0.111839	1.248437
N171	N	1.668195	0.221494	1.581771
H172	H	0.256408	-0.380106	0.324289
H173	H	0.589741	-0.046772	0.657622
H174	H	0.923075	0.286561	0.990956
H175	H	0.878487	-0.578228	0.801035
H176	H	1.211821	-0.244895	1.134368
H177	H	1.545154	0.088439	1.467701
H178	H	0.884082	-0.572182	0.667647
H179	H	1.217416	-0.238848	1.000981
H180	H	1.550749	0.094485	1.334314
C181	C	1.069419	-0.371797	0.656082
C182	C	1.402753	-0.038464	0.989416
C183	C	1.736086	0.294870	1.322749
H184	H	1.096181	-0.342842	0.688345
H185	H	1.429515	-0.009509	1.021679
H186	H	1.762848	0.323825	1.355012
H187	H	1.099744	-0.403897	0.629996
H188	H	1.433077	-0.070564	0.963329
H189	H	1.766410	0.262769	1.296663
H190	H	1.045427	-0.332841	0.624785
H191	H	1.378760	0.000492	0.958119
H192	H	1.712093	0.333825	1.291452
H193	H	0.920200	-0.981622	0.454603
H194	H	1.253534	-0.648288	0.787936
H195	H	1.586867	-0.314955	1.121269
C196	C	1.097717	-0.341158	0.986006
C197	C	1.431050	-0.007825	1.319339
C198	C	1.764383	0.325509	1.652672
H199	H	1.093015	-0.346255	0.936994
H200	H	1.426349	-0.012922	1.270327
H201	H	1.759682	0.320412	1.603660
H202	H	1.089464	-0.285189	0.995335
H203	H	1.422797	0.048145	1.328669
H204	H	1.756131	0.381478	1.662002
H205	H	1.143774	-0.356252	1.000550
H206	H	1.477108	-0.022919	1.333883
H207	H	1.810441	0.310415	1.667217
H208	H	0.389245	-0.386701	0.329881
H209	H	0.722578	-0.053368	0.663214
H210	H	1.055911	0.279965	0.996547
C211	C	1.055937	-0.939832	0.329506
C212	C	1.389271	-0.606499	0.662839
C213	C	1.722604	-0.273165	0.996172
H214	H	1.051733	-0.881744	0.333335
H215	H	1.385067	-0.548411	0.666668
H216	H	1.718400	-0.215078	1.000001
H217	H	1.101998	-0.956794	0.342404
H218	H	1.435331	-0.623461	0.675737
H219	H	1.768664	-0.290128	1.009071
H220	H	1.047074	-0.951434	0.282336
H221	H	1.380407	-0.618101	0.615670
H222	H	1.713740	-0.284767	0.949003
C223	C	0.899337	-0.555667	0.987154
C224	C	1.232670	-0.222334	1.320487
C225	C	1.566003	0.110999	1.653821
H226	H	0.908153	-0.546127	0.938063
H227	H	1.241487	-0.212794	1.271396
H228	H	1.574820	0.120539	1.604729
H229	H	0.906577	-0.612729	1.001923
H230	H	1.239911	-0.279395	1.335256
H231	H	1.573244	0.053938	1.668590
H232	H	0.852268	-0.541664	0.996709
H233	H	1.185601	-0.208331	1.330042
H234	H	1.518935	0.125002	1.663376
C235	C	0.579813	-0.330586	0.282158
C236	C	0.913147	0.002747	0.615491
C237	C	1.246480	0.336080	0.948825
H238	H	0.530349	-0.336107	0.286842
H239	H	0.863682	-0.002773	0.620175
H240	H	1.197015	0.330560	0.953509
H241	H	0.593886	-0.275664	0.290753
H242	H	0.927219	0.057670	0.624086
H243	H	1.260553	0.391003	0.957419
H244	H	0.593248	-0.341158	0.235840
H245	H	0.926581	-0.007824	0.569173
H246	H	1.259915	0.325509	0.902507
H247	H	1.049882	-0.392911	0.800041
H248	H	1.383215	-0.059578	1.133374
H249	H	1.716549	0.273755	1.466707
H250	H	0.906788	-0.547597	1.130960
H251	H	1.240121	-0.214264	1.464293
H252	H	1.573454	0.119069	1.797627
C253	C	0.715661	-0.571012	0.486582
C254	C	1.048994	-0.237679	0.819915
C255	C	1.382328	0.095655	1.153249
H256	H	0.680826	-0.602414	0.513294
H257	H	1.014160	-0.269080	0.846627
H258	H	1.347493	0.064253	1.179960
H259	H	0.743728	-0.607477	0.462291
H260	H	1.077061	-0.274144	0.795625
H261	H	1.410395	0.059190	1.128958
H262	H	0.744368	-0.541985	0.517205
H263	H	1.077701	-0.208651	0.850539
H264	H	1.411035	0.124682	1.183872
C265	C	1.091236	-0.348152	1.140399
C266	C	1.424569	-0.014818	1.473733
C267	C	1.757903	0.318515	1.807066
H268	H	1.082409	-0.357682	1.189490
H269	H	1.415742	-0.024349	1.522823
H270	H	1.749076	0.308985	1.856156
H271	H	1.138303	-0.362146	1.130847
H272	H	1.471636	-0.028813	1.464180
H273	H	1.804970	0.304520	1.797513
H274	H	1.083989	-0.291087	1.125629
H275	H	1.417322	0.042246	1.458963
H276	H	1.750656	0.375579	1.792296
C277	C	0.733582	-0.338209	0.288642
C278	C	1.066916	-0.004876	0.621975
C279	C	1.400249	0.328458	0.955309
H280	H	0.703831	-0.303600	0.259209
H281	H	1.037164	0.029733	0.592542
H282	H	1.370498	0.363066	0.925875
H283	H	0.762644	-0.304581	0.315347
H284	H	1.095977	0.028752	0.648680
H285	H	1.429311	0.362085	0.982014
H286	H	0.762004	-0.370064	0.260425
H287	H	1.095337	-0.036731	0.593758
H288	H	1.428671	0.296602	0.927092
H289	H	0.573580	-0.548066	0.467078
H290	H	0.906914	-0.214733	0.800412
H291	H	1.240247	0.118601	1.133745
H292	H	0.240925	-0.581241	0.495295
H293	H	0.574258	-0.247908	0.828628
H294	H	0.907591	0.085425	1.161962
C295	C	0.383017	-0.604181	0.514804
C296	C	0.716350	-0.270848	0.848138
C297	C	1.049683	0.062485	1.181471
H298	H	0.348184	-0.635585	0.541517
H299	H	0.681517	-0.302252	0.874850
H300	H	1.014851	0.031081	1.208184
H301	H	0.411084	-0.640645	0.490512
H302	H	0.744418	-0.307311	0.823846
H303	H	1.077751	0.026022	1.157179
H304	H	0.411724	-0.575153	0.545427
H305	H	0.745057	-0.241820	0.878760
H306	H	1.078390	0.091514	1.212093
