data_functionalizedCrystal
_audit_creation_method	'MofGen! by Chris Wilmer'
_symmetry_space_group_name_H-M	'P1'
_symmetry_Int_Tables_number	1
_symmetry_cell_setting	triclinic
loop_
_symmetry_equiv_pos_as_xyz
  x,y,z
_cell_length_a	19.188930
_cell_length_b	19.188930
_cell_length_c	13.930277
_cell_angle_alpha	89.990320
_cell_angle_beta	89.978906
_cell_angle_gamma	83.144779
loop_
_atom_site_label
_atom_site_type_symbol
_atom_site_fract_x
_atom_site_fract_y
_atom_site_fract_z
O1	O	0.926148	0.087167	-0.080150
O2	O	0.722836	0.098901	-0.080086
O3	O	0.830359	-0.008621	-0.080101
O4	O	0.818625	0.194690	-0.080135
O5	O	0.830344	-0.008624	0.079561
O6	O	0.722821	0.098899	0.079576
O7	O	0.926133	0.087165	0.079512
Zn8	Zn	0.824475	0.093032	0.104894
Zn9	Zn	0.824494	0.093035	-0.105468
O10	O	0.818610	0.194688	0.079527
C11	C	0.696818	0.098520	-0.000246
C12	C	0.619313	0.097380	-0.000221
C13	C	0.574389	0.160470	-0.000247
C14	C	0.501566	0.159399	-0.000257
C15	C	0.473669	0.095233	-0.000261
C16	C	0.518603	0.032133	-0.000230
C17	C	0.591425	0.033207	-0.000210
N18	N	0.365694	0.046186	-0.054631
N19	N	0.296515	0.045171	-0.054652
C20	C	0.254260	0.091994	-0.000319
N21	N	0.283796	0.139882	0.054024
N22	N	0.352981	0.140900	0.054041
C23	C	0.394707	0.094062	-0.000282
C24	C	0.130372	0.153928	-0.000355
C25	C	0.057547	0.152853	-0.000359
C26	C	0.074586	0.025586	-0.000342
C27	C	0.147409	0.026662	-0.000328
C28	C	0.175298	0.090835	-0.000339
C29	C	0.829972	-0.034634	-0.000267
C30	C	0.828831	-0.112138	-0.000259
C31	C	0.891922	-0.157062	-0.000274
C32	C	0.890850	-0.229886	-0.000289
C33	C	0.826684	-0.257782	-0.000269
C34	C	0.763585	-0.212849	-0.000259
C35	C	0.764658	-0.140026	-0.000254
N36	N	0.777632	-0.365788	0.054082
N37	N	0.776616	-0.434967	0.054079
C38	C	0.823446	-0.477191	-0.000288
N39	N	0.871340	-0.447625	-0.054639
N40	N	0.872358	-0.378440	-0.054632
C41	C	0.825513	-0.336745	-0.000276
C42	C	0.885379	-0.601079	-0.000321
C43	C	0.884305	-0.673904	-0.000342
C44	C	0.757038	-0.656865	-0.000303
C45	C	0.758114	-0.584042	-0.000291
C46	C	0.822286	-0.556154	-0.000296
C47	C	0.952151	0.087546	-0.000330
C48	C	1.029656	0.088687	-0.000362
C49	C	0.818997	0.220700	-0.000309
C50	C	0.820138	0.298204	-0.000324
N51	N	0.824467	0.093029	0.248460
N52	N	0.824508	0.093031	-0.249034
C53	C	0.776882	0.140627	0.700736
C54	C	0.872126	0.045437	0.700692
C55	C	0.872118	0.045434	0.600196
C56	C	0.824492	0.093030	0.549965
C57	C	0.776873	0.140628	0.600231
C58	C	0.919740	-0.002158	0.549923
C59	C	0.919735	-0.002161	0.449421
C60	C	0.872104	0.045432	0.399189
C61	C	0.824483	0.093031	0.449460
C62	C	0.776856	0.140626	0.399230
C63	C	0.729232	0.188223	0.449500
C64	C	0.729243	0.188221	0.549999
C65	C	0.872093	0.045434	0.298690
C66	C	0.776848	0.140627	0.298725
H67	H	0.051874	-0.026659	-0.000405
H68	H	0.183988	-0.024713	-0.000312
O69	O	0.488521	-0.037077	-0.000235
H70	H	0.430335	-0.027225	-0.000262
H71	H	0.020970	0.204232	-0.000374
O72	O	0.687830	-0.686947	-0.000275
H73	H	0.657530	-0.668880	-0.065343
H74	H	0.935683	-0.710481	-0.000360
O75	O	0.971107	-0.053487	0.604103
H76	H	1.004225	-0.086577	0.552266
O77	O	0.677889	0.239560	0.604221
H78	H	0.623486	0.230799	0.584986
O79	O	0.453098	0.227449	-0.000280
H80	H	0.419536	0.229996	-0.065361
O81	O	0.725519	0.191966	0.754944
H82	H	0.733525	0.183976	0.833267
H83	H	0.628003	-0.018171	-0.000190
H84	H	0.910906	0.006689	0.741592
O85	O	0.160461	0.223137	-0.000347
H86	H	0.116984	0.266830	-0.000348
H87	H	0.937632	-0.578372	-0.000329
O88	O	0.694375	-0.242930	-0.000227
H89	H	0.704227	-0.301116	-0.000220
H90	H	0.944176	-0.134360	-0.000281
O91	O	0.725471	0.191953	0.244544
H92	H	0.754745	0.225815	0.198720
H93	H	0.942228	-0.266470	-0.000305
O94	O	0.696608	-0.091565	-0.000221
H95	H	0.651807	-0.123194	-0.000203
O96	O	0.690066	-0.535581	-0.000251
H97	H	0.645266	-0.567211	-0.000228
O98	O	0.677852	0.239547	0.395321
H99	H	0.685846	0.231542	0.316994
O100	O	0.971090	-0.053501	0.395203
H101	H	1.004204	-0.086601	0.447016
O102	O	0.923441	-0.005900	0.244456
H103	H	0.977845	0.002853	0.263696
O104	O	0.604471	0.229682	-0.000231
H105	H	0.560993	0.273373	-0.000236
