data_functionalizedCrystal
_audit_creation_method	'MofGen! by Chris Wilmer'
_symmetry_space_group_name_H-M	'P1'
_symmetry_Int_Tables_number	1
_symmetry_cell_setting	triclinic
loop_
_symmetry_equiv_pos_as_xyz
  x,y,z
_cell_length_a	18.215407
_cell_length_b	14.908178
_cell_length_c	18.215399
_cell_angle_alpha	86.671900
_cell_angle_beta	89.985640
_cell_angle_gamma	93.311467
loop_
_atom_site_label
_atom_site_type_symbol
_atom_site_fract_x
_atom_site_fract_y
_atom_site_fract_z
Zn1	Zn	1.108177	-0.359236	-0.399150
Zn2	Zn	1.608177	0.140764	0.100850
Zn3	Zn	1.101004	-0.510123	-0.268978
Zn4	Zn	1.601004	-0.010123	0.231022
Zn5	Zn	0.985114	-0.359264	-0.276101
Zn6	Zn	1.485114	0.140736	0.223899
Zn7	Zn	0.977991	-0.510058	-0.392011
Zn8	Zn	1.477991	-0.010058	0.107989
O9	O	1.043072	-0.434670	-0.334060
O10	O	1.543072	0.065330	0.165940
O11	O	1.210209	-0.379267	-0.381889
O12	O	1.710209	0.120733	0.118111
O13	O	1.085611	-0.490150	-0.166937
O14	O	1.585611	0.009850	0.333063
O15	O	1.007422	-0.233006	-0.298393
O16	O	1.507422	0.266994	0.201607
O17	O	1.204939	-0.490122	-0.286252
O18	O	1.704939	0.009878	0.213748
O19	O	1.097835	-0.232985	-0.388796
O20	O	1.597835	0.267015	0.111204
O21	O	1.000467	-0.379314	-0.172170
O22	O	1.500467	0.120686	0.327830
O23	O	0.881186	-0.379252	-0.291471
O24	O	1.381186	0.120748	0.208529
O25	O	0.995281	-0.490013	-0.495944
O26	O	1.495281	0.009987	0.004056
O27	O	0.875952	-0.490040	-0.376629
O28	O	1.375952	0.009960	0.123371
O29	O	1.090928	-0.379204	-0.501189
O30	O	1.590928	0.120796	-0.001189
O31	O	1.078704	-0.636369	-0.279330
O32	O	1.578704	-0.136369	0.220670
O33	O	0.988326	-0.636321	-0.369722
O34	O	1.488326	-0.136321	0.130278
C35	C	0.851867	-0.434642	-0.334049
C36	C	1.351867	0.065358	0.165951
C37	C	0.770067	-0.434652	-0.334060
C38	C	1.270067	0.065348	0.165940
C39	C	0.584611	-0.377049	-0.383927
C40	C	1.084611	0.122951	0.116073
C41	C	0.507752	-0.377056	-0.383929
C42	C	1.007752	0.122944	0.116071
C43	C	0.502284	-0.492317	-0.284205
C44	C	1.002284	0.007683	0.215795
C45	C	0.579142	-0.492304	-0.284200
C46	C	1.079142	0.007696	0.215800
C47	C	0.620303	-0.434671	-0.334065
C48	C	1.120303	0.065329	0.165935
C49	C	0.466586	-0.434692	-0.334072
C50	C	0.966586	0.065308	0.165928
C51	C	0.383252	-0.434701	-0.334074
C52	C	0.883252	0.065299	0.165926
C53	C	0.703642	-0.434661	-0.334062
C54	C	1.203642	0.065339	0.165938
C55	C	1.031984	-0.669081	-0.322994
C56	C	1.531984	-0.169081	0.177006
C57	C	1.027308	-0.769363	-0.318285
C58	C	1.527308	-0.269363	0.181715
C59	C	1.112597	-0.957632	-0.403673
C60	C	1.612597	-0.457632	0.096327
C61	C	1.108205	-1.051856	-0.399251
C62	C	1.608205	-0.551856	0.100749
C63	C	1.014131	-1.052037	-0.305022
C64	C	1.514131	-0.552037	0.194978
C65	C	1.018522	-0.957813	-0.309444
C66	C	1.518522	-0.457813	0.190556
C67	C	1.067757	-0.910614	-0.358771
C68	C	1.567757	-0.410614	0.141229
C69	C	1.072152	-0.816388	-0.363189
C70	C	1.572152	-0.316388	0.136811
C71	C	0.978074	-0.816570	-0.268964
C72	C	1.478074	-0.316570	0.231036
C73	C	0.973683	-0.910794	-0.264542
C74	C	1.473683	-0.410794	0.235458
C75	C	1.235023	-0.434699	-0.334072
C76	C	1.735023	0.065301	0.165928
C77	C	1.316822	-0.434711	-0.334077
C78	C	1.816822	0.065289	0.165923
C79	C	1.043110	-0.434598	-0.526017
C80	C	1.543110	0.065402	-0.026017
C81	C	1.043126	-0.434567	-0.607817
C82	C	1.543126	0.065433	-0.107817
C83	C	1.054223	-0.199344	-0.345185
C84	C	1.554223	0.300656	0.154815
C85	C	1.058975	-0.099062	-0.349926
C86	C	1.558975	0.400938	0.150074
C87	C	0.998833	-0.376817	-0.798739
C88	C	1.498833	0.123183	-0.298739
C89	C	0.998847	-0.376798	-0.875598
C90	C	1.498847	0.123202	-0.375598
C91	C	1.087512	-0.492211	-0.870138
C92	C	1.587512	0.007789	-0.370138
C93	C	1.087494	-0.492233	-0.793280
C94	C	1.587494	0.007767	-0.293280
C95	C	1.043156	-0.434531	-0.757582
C96	C	1.543156	0.065469	-0.257582
C97	C	1.043188	-0.434490	-0.911300
C98	C	1.543188	0.065510	-0.411300
C99	C	1.043203	-0.434471	-0.994635
C100	C	1.543203	0.065529	-0.494635
C101	C	1.043140	-0.434551	-0.674242
C102	C	1.543140	0.065449	-0.174242
C103	C	1.043079	-0.434677	-0.142854
C104	C	1.543079	0.065323	0.357146
C105	C	1.043217	-0.434453	-0.061066
C106	C	1.543217	0.065547	0.438934
H107	H	0.608203	-0.539228	-0.243593
H108	H	1.108203	-0.039228	0.256407
H109	H	0.974043	-1.090482	-0.264866
H110	H	1.474043	-0.590482	0.235134
H111	H	0.962754	-0.329803	-0.909105
H112	H	1.462754	0.170197	-0.409105
H113	H	0.468761	-0.539241	-0.243608
H114	H	0.968761	-0.039241	0.256392
H115	H	1.123588	-0.539234	-0.759769
H116	H	1.623588	-0.039234	-0.259769
C117	C	1.126311	-0.764471	-0.417450
C118	C	1.626311	-0.264471	0.082550
N119	N	1.167103	-0.725370	-0.458322
N120	N	1.667103	-0.225370	0.041678
C121	C	1.136110	-0.555877	-0.909403
C122	C	1.636110	-0.055877	-0.409403
N123	N	1.172654	-0.603903	-0.938973
N124	N	1.672654	-0.103903	-0.438973
H125	H	0.478695	-0.330133	-0.424530
H126	H	0.978695	0.169867	0.075470
H127	H	1.144715	-1.090135	-0.435819
H128	H	1.644715	-0.590135	0.064181
C129	C	0.629886	-0.313643	-0.438774
C130	C	1.129886	0.186357	0.061226
N131	N	0.663986	-0.265880	-0.480084
N132	N	1.163986	0.234120	0.019916
C133	C	1.166757	-0.905712	-0.457930
C134	C	1.666757	-0.405712	0.042070
N135	N	1.207551	-0.866606	-0.498799
N136	N	1.707551	-0.366606	0.001201
C137	C	0.919573	-0.962723	-0.210239
C138	C	1.419573	-0.462723	0.289761
N139	N	0.878835	-1.001836	-0.169319
N140	N	1.378835	-0.501836	0.330681
H141	H	0.941565	-0.778277	-0.232399
H142	H	1.441565	-0.278277	0.267601
C143	C	0.950054	-0.313350	-0.759474
C144	C	1.450054	0.186650	-0.259474
N145	N	0.913309	-0.265548	-0.729902
N146	N	1.413309	0.234452	-0.229902
