data_functionalizedCrystal
_audit_creation_method	'MofGen! by Chris Wilmer'
_symmetry_space_group_name_H-M	'P1'
_symmetry_Int_Tables_number	1
_symmetry_cell_setting	triclinic
loop_
_symmetry_equiv_pos_as_xyz
  x,y,z
_cell_length_a	21.295417
_cell_length_b	16.959455
_cell_length_c	16.959447
_cell_angle_alpha	89.976455
_cell_angle_beta	89.968373
_cell_angle_gamma	90.027526
loop_
_atom_site_label
_atom_site_type_symbol
_atom_site_fract_x
_atom_site_fract_y
_atom_site_fract_z
Zn1	Zn	-0.250669	1.208351	-0.447010
Zn2	Zn	0.082664	1.541685	-0.113676
Zn3	Zn	0.415998	1.875018	0.219657
Zn4	Zn	-0.355939	1.208242	-0.314820
Zn5	Zn	-0.022606	1.541576	0.018514
Zn6	Zn	0.310728	1.874909	0.351847
Zn7	Zn	-0.250682	1.076172	-0.314833
Zn8	Zn	0.082651	1.409506	0.018500
Zn9	Zn	0.415984	1.742839	0.351834
Zn10	Zn	-0.355899	1.076120	-0.446944
Zn11	Zn	-0.022565	1.409454	-0.113611
Zn12	Zn	0.310768	1.742787	0.219722
O13	O	-0.303297	1.142222	-0.380902
O14	O	0.030036	1.475555	-0.047568
O15	O	0.363369	1.808888	0.285765
O16	O	-0.264645	1.318948	-0.429496
O17	O	0.068689	1.652281	-0.096163
O18	O	0.402022	1.985614	0.237171
O19	O	-0.341999	1.190699	-0.204211
O20	O	-0.008666	1.524033	0.129123
O21	O	0.324668	1.857366	0.462456
O22	O	-0.162591	1.093774	-0.332399
O23	O	0.170742	1.427107	0.000934
O24	O	0.504076	1.760440	0.334267
O25	O	-0.341986	1.318868	-0.332377
O26	O	-0.008653	1.652201	0.000957
O27	O	0.324681	1.985534	0.334290
O28	O	-0.162581	1.190885	-0.429509
O29	O	0.170752	1.524218	-0.096176
O30	O	0.504085	1.857551	0.237158
O31	O	-0.264667	1.093668	-0.204220
O32	O	0.068666	1.427001	0.129113
O33	O	0.401999	1.760335	0.462446
O34	O	-0.264628	0.965555	-0.332336
O35	O	0.068705	1.298888	0.000997
O36	O	0.402039	1.632221	0.334330
O37	O	-0.341917	1.093685	-0.557564
O38	O	-0.008584	1.427018	-0.224231
O39	O	0.324749	1.760351	0.109103
O40	O	-0.341930	0.965516	-0.429398
O41	O	-0.008597	1.298850	-0.096064
O42	O	0.324736	1.632183	0.237269
O43	O	-0.264605	1.190834	-0.557612
O44	O	0.068728	1.524168	-0.224279
O45	O	0.402061	1.857501	0.109055
O46	O	-0.444023	1.190649	-0.332313
O47	O	-0.110690	1.523982	0.001020
O48	O	0.222644	1.857315	0.334353
O49	O	-0.443994	1.093579	-0.429385
O50	O	-0.110660	1.426913	-0.096052
O51	O	0.222673	1.760246	0.237282
C52	C	-0.303277	0.936855	-0.380862
C53	C	0.030057	1.270189	-0.047529
C54	C	0.363390	1.603522	0.285805
C55	C	-0.303283	0.848999	-0.380864
C56	C	0.030050	1.182332	-0.047530
C57	C	0.363384	1.515665	0.285803
C58	C	-0.343529	0.477471	-0.330306
C59	C	-0.010196	0.810804	0.003027
C60	C	0.323138	1.144137	0.336361
C61	C	-0.263118	0.477575	-0.431594
C62	C	0.070216	0.810909	-0.098260
C63	C	0.403549	1.144242	0.235073
C64	C	-0.263107	0.560121	-0.431574
C65	C	0.070226	0.893455	-0.098241
C66	C	0.403559	1.226788	0.235092
C67	C	-0.303309	0.601346	-0.380921
C68	C	0.030024	0.934679	-0.047588
C69	C	0.363358	1.268012	0.285746
C70	C	-0.343521	0.560024	-0.330287
C71	C	-0.010188	0.893358	0.003047
C72	C	0.323145	1.226691	0.336380
C73	C	-0.222900	0.601449	-0.482213
C74	C	0.110433	0.934782	-0.148880
C75	C	0.443766	1.268116	0.184453
C76	C	-0.222889	0.684000	-0.482197
C77	C	0.110444	1.017333	-0.148864
C78	C	0.443778	1.350666	0.184470
C79	C	-0.263088	0.725226	-0.431539
C80	C	0.070245	1.058559	-0.098205
C81	C	0.403579	1.391892	0.235128
C82	C	-0.303301	0.683899	-0.380902
C83	C	0.030032	1.017233	-0.047569
C84	C	0.363365	1.350566	0.285765
C85	C	-0.343503	0.725124	-0.330248
C86	C	-0.010170	1.058457	0.003085
C87	C	0.323164	1.391790	0.336418
C88	C	-0.383714	0.683799	-0.279607
C89	C	-0.050380	1.017132	0.053726
C90	C	0.282953	1.350465	0.387060
C91	C	-0.383720	0.601250	-0.279629
C92	C	-0.050387	0.934584	0.053705
C93	C	0.282946	1.267917	0.387038
C94	C	-0.263081	0.807774	-0.431517
C95	C	0.070252	1.141108	-0.098184
C96	C	0.403585	1.474441	0.235150
C97	C	-0.343495	0.807677	-0.330229
C98	C	-0.010162	1.141011	0.003104
C99	C	0.323171	1.474344	0.336437
C100	C	-0.466849	1.142118	-0.380858
C101	C	-0.133516	1.475451	-0.047525
C102	C	0.199818	1.808785	0.285809
C103	C	-0.536817	1.142146	-0.380866
C104	C	-0.203484	1.475479	-0.047532
C105	C	0.129850	1.808813	0.285801
C106	C	-0.569678	1.192735	-0.330372
C107	C	-0.236345	1.526068	0.002961
C108	C	0.096988	1.859402	0.336294
C109	C	-0.635421	1.192772	-0.330390
C110	C	-0.302087	1.526105	0.002943
C111	C	0.031246	1.859439	0.336277
C112	C	-0.668299	1.142206	-0.380893
C113	C	-0.334966	1.475539	-0.047560
C114	C	-0.001633	1.808873	0.285774
C115	C	-0.635430	1.091613	-0.431396
C116	C	-0.302097	1.424947	-0.098063
C117	C	0.031236	1.758280	0.235271
C118	C	-0.569689	1.091583	-0.431382
C119	C	-0.236356	1.424917	-0.098049
C120	C	0.096978	1.758250	0.235284
N121	N	-0.771562	1.073059	-0.386905
N122	N	-0.438229	1.406393	-0.053572
N123	N	-0.104896	1.739726	0.279761
N124	N	-0.834014	1.073090	-0.386914
N125	N	-0.500681	1.406424	-0.053580
N126	N	-0.167347	1.739757	0.279753
C127	C	-0.866374	1.142294	-0.380938
C128	C	-0.533041	1.475628	-0.047605
C129	C	-0.199708	1.808961	0.285728
N130	N	-0.833924	1.211468	-0.374939
N131	N	-0.500590	1.544802	-0.041605
N132	N	-0.167257	1.878135	0.291728
N133	N	-0.771467	1.211437	-0.374926
N134	N	-0.438133	1.544770	-0.041593
N135	N	-0.104800	1.878103	0.291740
C136	C	-0.739585	1.142233	-0.380914
C137	C	-0.406252	1.475566	-0.047580
C138	C	-0.072918	1.808900	0.285753
C139	C	-0.970521	1.192928	-0.330462
C140	C	-0.637188	1.526261	0.002872
C141	C	-0.303854	1.859595	0.336205
C142	C	-1.036265	1.192966	-0.330485
C143	C	-0.702931	1.526300	0.002849
C144	C	-0.369598	1.859633	0.336182
C145	C	-1.036273	1.091801	-0.431487
C146	C	-0.702940	1.425134	-0.098153
C147	C	-0.369606	1.758467	0.235180
C148	C	-0.970531	1.091769	-0.431467
C149	C	-0.637197	1.425103	-0.098134
C150	C	-0.303864	1.758436	0.235199
C151	C	-0.937658	1.142332	-0.380951
C152	C	-0.604325	1.475665	-0.047617
C153	C	-0.270992	1.808998	0.285716
C154	C	-0.139107	1.142347	-0.380963
C155	C	0.194226	1.475680	-0.047630
C156	C	0.527560	1.809014	0.285704
C157	C	-0.069139	1.142401	-0.380989
C158	C	0.264194	1.475734	-0.047656
C159	C	0.597528	1.809067	0.285678
C160	C	-0.303318	1.348390	-0.380942
C161	C	0.030015	1.681723	-0.047609
C162	C	0.363348	2.015056	0.285725
C163	C	-0.303327	1.436246	-0.380959
C164	C	0.030006	1.769580	-0.047626
C165	C	0.363339	2.102913	0.285707
C166	C	-0.303255	1.142266	-0.587070
C167	C	0.030078	1.475599	-0.253737
C168	C	0.363411	1.808933	0.079597
C169	C	-0.303238	1.142285	-0.674927
C170	C	0.030096	1.475618	-0.341593
C171	C	0.363429	1.808951	-0.008260
C172	C	-0.343483	1.091713	-0.716177
C173	C	-0.010149	1.425047	-0.382844
C174	C	0.323184	1.758380	-0.049511
C175	C	-0.262972	1.192869	-0.716230
C176	C	0.070362	1.526203	-0.382896
C177	C	0.403695	1.859536	-0.049563
C178	C	-0.262951	1.192886	-0.798776
C179	C	0.070382	1.526219	-0.465442
C180	C	0.403715	1.859552	-0.132109
C181	C	-0.303196	1.142314	-0.840026
C182	C	0.030137	1.475648	-0.506693
C183	C	0.363470	1.808981	-0.173360
C184	C	-0.343462	1.091727	-0.798731
C185	C	-0.010128	1.425060	-0.465398
C186	C	0.323205	1.758393	-0.132064
C187	C	-0.222682	1.243467	-0.840077
C188	C	0.110652	1.576800	-0.506744
C189	C	0.443985	1.910134	-0.173410
C190	C	-0.222659	1.243485	-0.922628
C191	C	0.110674	1.576818	-0.589295
C192	C	0.444008	1.910152	-0.255961
C193	C	-0.262908	1.192917	-0.963880
C194	C	0.070426	1.526250	-0.630547
C195	C	0.403759	1.859584	-0.297214
C196	C	-0.303175	1.142328	-0.922580
C197	C	0.030158	1.475661	-0.589246
C198	C	0.363491	1.808994	-0.255913
C199	C	-0.343420	1.091756	-0.963830
C200	C	-0.010087	1.425089	-0.630497
C201	C	0.323246	1.758423	-0.297164
C202	C	-0.383692	1.041170	-0.922531
C203	C	-0.050359	1.374504	-0.589198
C204	C	0.282975	1.707837	-0.255865
C205	C	-0.383710	1.041158	-0.839983
C206	C	-0.050377	1.374492	-0.506650
C207	C	0.282956	1.707825	-0.173316
C208	C	-0.262889	1.192929	-1.046429
C209	C	0.070444	1.526262	-0.713095
C210	C	0.403778	1.859595	-0.379762
C211	C	-0.343400	1.091769	-1.046384
C212	C	-0.010066	1.425103	-0.713051
C213	C	0.323267	1.758436	-0.379717
C214	C	-0.303294	1.142223	-0.175535
C215	C	0.030040	1.475556	0.157798
C216	C	0.363373	1.808890	0.491131
C217	C	-0.303134	1.142357	-0.087679
C218	C	0.030199	1.475691	0.245654
C219	C	0.363533	1.809024	0.578987
H220	H	-0.376266	0.443820	-0.289073
H221	H	-0.042933	0.777154	0.044261
H222	H	0.290401	1.110487	0.377594
H223	H	-0.190147	0.717640	-0.523432
H224	H	0.143187	1.050973	-0.190099
H225	H	0.476520	1.384306	0.143235
Br226	Br	-0.525069	1.261366	-0.261825
Br227	Br	-0.191735	1.594699	0.071508
Br228	Br	0.141598	1.928033	0.404841
H229	H	-0.416449	0.717374	-0.238369
H230	H	-0.083116	1.050708	0.094964
H231	H	0.250217	1.384041	0.428298
Br232	Br	-1.080864	1.261637	-0.261960
Br233	Br	-0.747530	1.594971	0.071373
Br234	Br	-0.414197	1.928304	0.404707
Br235	Br	-0.208519	0.863855	-0.500245
Br236	Br	0.124814	1.197189	-0.166911
Br237	Br	0.458147	1.530522	0.166422
Br238	Br	-0.208570	0.421628	-0.500345
Br239	Br	0.124764	0.754961	-0.167012
Br240	Br	0.458097	1.088295	0.166321
H241	H	-1.063042	1.050632	-0.472610
H242	H	-0.729709	1.383966	-0.139277
H243	H	-0.396376	1.717299	0.194056
Br244	Br	-0.168355	0.545499	-0.550967
Br245	Br	0.164978	0.878832	-0.217633
Br246	Br	0.498312	1.212166	0.115700
H247	H	-0.230203	1.234039	-0.682638
H248	H	0.103130	1.567372	-0.349305
H249	H	0.436463	1.900705	-0.015972
H250	H	-0.662181	1.233970	-0.289273
H251	H	-0.328848	1.567304	0.044061
H252	H	0.004485	1.900637	0.377394
H253	H	-0.230096	1.234109	-1.080051
H254	H	0.103237	1.567442	-0.746717
H255	H	0.436571	1.900775	-0.413384
H256	H	-0.416497	0.999974	-0.806350
H257	H	-0.083163	1.333307	-0.473017
H258	H	0.250170	1.666640	-0.139683
Br259	Br	-0.168027	1.312045	-0.784092
Br260	Br	0.165306	1.645379	-0.450758
Br261	Br	0.498640	1.978712	-0.117425
H262	H	-0.662205	1.050444	-0.472517
H263	H	-0.328871	1.383777	-0.139184
H264	H	0.004462	1.717110	0.194150
H265	H	-0.376231	0.841236	-0.288978
H266	H	-0.042897	1.174570	0.044355
H267	H	0.290436	1.507903	0.377689
Br268	Br	-0.525088	1.022922	-0.499916
Br269	Br	-0.191755	1.356256	-0.166582
Br270	Br	0.141578	1.689589	0.166751
Br271	Br	-0.438302	0.972533	-0.978524
Br272	Br	-0.104969	1.305866	-0.645191
Br273	Br	0.228365	1.639200	-0.311857
Br274	Br	-0.398026	1.023140	-1.102361
Br275	Br	-0.064693	1.356473	-0.769027
Br276	Br	0.268640	1.689806	-0.435694
H277	H	-0.376272	1.050530	-0.682548
H278	H	-0.042939	1.383863	-0.349215
H279	H	0.290394	1.717196	-0.015881
Br280	Br	-0.925905	1.261544	-0.261903
Br281	Br	-0.592572	1.594877	0.071431
Br282	Br	-0.259238	1.928211	0.404764
H283	H	-0.943773	1.050572	-0.472580
H284	H	-0.610440	1.383905	-0.139247
H285	H	-0.277107	1.717238	0.194086
H286	H	-0.416457	0.567596	-0.238399
H287	H	-0.083124	0.900929	0.094935
H288	H	0.250209	1.234263	0.428268
Br289	Br	-0.168021	1.312154	-0.978670
Br290	Br	0.165312	1.645487	-0.645336
Br291	Br	0.498645	1.978820	-0.312003
