data_functionalizedCrystal
_audit_creation_method	'MofGen! by Chris Wilmer'
_symmetry_space_group_name_H-M	'P1'
_symmetry_Int_Tables_number	1
_symmetry_cell_setting	triclinic
loop_
_symmetry_equiv_pos_as_xyz
  x,y,z
_cell_length_a	17.038272
_cell_length_b	17.019294
_cell_length_c	7.540329
_cell_angle_alpha	86.117441
_cell_angle_beta	90.002667
_cell_angle_gamma	87.244363
loop_
_atom_site_label
_atom_site_type_symbol
_atom_site_fract_x
_atom_site_fract_y
_atom_site_fract_z
O1	O	1.037218	0.171285	-0.173415
O2	O	0.809590	0.168565	-0.173052
O3	O	0.929754	0.055519	-0.155751
O4	O	0.917054	0.284332	-0.190715
O5	O	0.929747	0.055517	0.139214
O6	O	0.809583	0.168563	0.121914
O7	O	1.037211	0.171283	0.121550
Cu8	Cu	0.923397	0.169923	0.148665
Cu9	Cu	0.923405	0.169925	-0.200166
O10	O	0.917047	0.284330	0.104250
C11	C	0.780460	0.166091	-0.025198
C12	C	0.693674	0.158710	-0.024091
C13	C	0.643502	0.226471	-0.034443
C14	C	0.561957	0.219531	-0.033359
C15	C	0.530586	0.144831	-0.021934
C16	C	0.580765	0.077066	-0.011575
C17	C	0.662308	0.084006	-0.012647
C18	C	0.284849	0.120313	-0.018140
C19	C	0.203300	0.113378	-0.017073
C20	C	0.184498	0.255844	-0.038854
C21	C	0.266043	0.262778	-0.039936
C22	C	0.316214	0.195013	-0.029568
C23	C	0.447235	0.137736	-0.020830
C24	C	0.399564	0.202108	-0.030659
C25	C	0.929269	0.026096	-0.003777
C26	C	0.927825	-0.061571	0.009606
C27	C	0.927152	-0.102752	-0.144891
C28	C	0.925789	-0.185124	-0.132310
C29	C	0.925106	-0.226315	0.034769
C30	C	0.925776	-0.185128	0.189277
C31	C	0.927133	-0.102757	0.176695
C32	C	0.921004	-0.475023	0.080803
C33	C	0.919650	-0.557400	0.093374
C34	C	0.919661	-0.557390	-0.228215
C35	C	0.921023	-0.475017	-0.240783
C36	C	0.921689	-0.433838	-0.086274
C37	C	0.923716	-0.310513	0.047632
C38	C	0.923074	-0.349641	-0.099139
C39	C	1.066341	0.173758	-0.026307
C40	C	1.153128	0.181138	-0.027426
C41	C	0.917532	0.313752	-0.047728
C42	C	0.918977	0.401420	-0.061123
N43	N	0.923396	0.169921	0.394013
N44	N	0.923411	0.169921	-0.445514
H45	H	0.669037	0.287299	-0.043748
H46	H	0.925245	-0.218650	-0.258118
H47	H	0.521109	0.274709	-0.041791
C48	C	0.300544	0.344954	-0.052476
N49	N	0.326530	0.406850	-0.061918
C50	C	0.918895	-0.602708	0.277182
N51	N	0.918327	-0.636834	0.415619
C52	C	0.168795	0.031199	-0.004506
N53	N	0.142805	-0.030696	0.004954
C54	C	0.546254	-0.005106	0.000996
N55	N	0.520262	-0.066999	0.010458
H56	H	0.919117	-0.590927	-0.354007
H57	H	0.143640	0.311015	-0.047292
C58	C	0.340028	0.045768	-0.006746
N59	N	0.381591	-0.010383	0.001834
H60	H	0.703158	0.028828	-0.004218
H61	H	0.923625	-0.316100	-0.235175
C62	C	0.922963	-0.355831	0.231416
N63	N	0.922394	-0.389967	0.369842
H64	H	0.425110	0.262929	-0.039951
H65	H	0.921562	-0.441505	0.206616
C66	C	0.927904	-0.057449	-0.328693
N67	N	0.928467	-0.023330	-0.467138
H68	H	0.421684	0.076915	-0.011477
H69	H	0.921581	-0.441486	-0.376836
C70	C	0.925019	-0.230440	0.373067
N71	N	0.924450	-0.264569	0.511501
H72	H	0.927670	-0.069228	0.302503
