data_functionalizedCrystal
_audit_creation_method	'MofGen! by Chris Wilmer'
_symmetry_space_group_name_H-M	'P1'
_symmetry_Int_Tables_number	1
_symmetry_cell_setting	triclinic
loop_
_symmetry_equiv_pos_as_xyz
  x,y,z
_cell_length_a	10.723023
_cell_length_b	10.723023
_cell_length_c	17.766277
_cell_angle_alpha	89.994693
_cell_angle_beta	89.990796
_cell_angle_gamma	84.467548
loop_
_atom_site_label
_atom_site_type_symbol
_atom_site_fract_x
_atom_site_fract_y
_atom_site_fract_z
O1	O	1.657197	0.175025	-0.062590
O2	O	2.157197	0.675025	0.437410
O3	O	1.294045	0.191779	-0.062592
O4	O	1.794045	0.691779	0.437408
O5	O	1.483998	0.001826	-0.062588
O6	O	1.983998	0.501826	0.437412
O7	O	1.467244	0.364978	-0.062594
O8	O	1.967244	0.864978	0.437406
O9	O	1.483964	0.001815	0.062600
O10	O	1.983964	0.501815	0.562600
O11	O	1.294011	0.191769	0.062596
O12	O	1.794011	0.691769	0.562596
O13	O	1.657163	0.175015	0.062598
O14	O	2.157163	0.675015	0.562598
Cu15	Cu	1.475584	0.183391	0.074028
Cu16	Cu	1.975584	0.683391	0.574028
Cu17	Cu	1.475624	0.183403	-0.074022
Cu18	Cu	1.975624	0.683403	0.425978
O19	O	1.467210	0.364968	0.062594
O20	O	1.967210	0.864968	0.562594
C21	C	1.247528	0.190555	0.000002
C22	C	1.747528	0.690555	0.500002
C23	C	1.108974	0.186908	0.000001
C24	C	1.608974	0.686908	0.500001
C25	C	1.047220	0.185287	-0.064850
C26	C	1.547220	0.685287	0.435150
C27	C	0.904017	0.181517	-0.064853
C28	C	1.404017	0.681517	0.435147
C29	C	1.482762	-0.044679	0.000005
C30	C	1.982762	0.455321	0.500005
C31	C	1.479115	-0.183233	0.000003
C32	C	1.979115	0.316767	0.500003
C33	C	1.477506	-0.244994	-0.064850
C34	C	1.977506	0.255006	0.435150
C35	C	1.473737	-0.388197	-0.064854
C36	C	1.973737	0.111803	0.435146
C37	C	1.703680	0.176239	0.000002
C38	C	2.203680	0.676239	0.500002
C39	C	1.842234	0.179886	-0.000002
C40	C	2.342234	0.679886	0.499998
C41	C	1.468446	0.411473	-0.000001
C42	C	1.968446	0.911473	0.499999
C43	C	1.472093	0.550027	-0.000003
C44	C	1.972093	1.050027	0.499997
N45	N	1.475565	0.183382	0.178158
N46	N	1.975565	0.683382	0.678158
N47	N	1.475653	0.183402	-0.178152
N48	N	1.975653	0.683402	0.321848
C49	C	1.559704	0.099312	0.217547
C50	C	2.059704	0.599312	0.717547
C51	C	1.559711	0.099306	0.296349
C52	C	2.059711	0.599306	0.796349
C53	C	1.475591	0.183392	0.335759
C54	C	1.975591	0.683392	0.835759
C55	C	1.391436	0.267468	0.296361
C56	C	1.891436	0.767468	0.796361
C57	C	1.391423	0.267463	0.217560
C58	C	1.891423	0.767463	0.717560
C59	C	1.460213	0.296904	0.460595
C60	C	1.960213	0.796904	0.960595
C61	C	1.460235	0.296911	0.539394
C62	C	1.960235	0.796911	1.039394
C63	C	1.475625	0.183407	0.578805
C64	C	1.975625	0.683407	1.078805
C65	C	1.491019	0.069892	0.539408
C66	C	1.991019	0.569892	1.039408
C67	C	1.491006	0.069887	0.460608
C68	C	1.991006	0.569887	0.960608
C69	C	1.475596	0.183406	0.421205
C70	C	1.975596	0.683406	0.921205
C71	C	1.559777	0.099325	0.703640
C72	C	2.059777	0.599325	1.203640
C73	C	1.559775	0.099317	0.782443
C74	C	2.059775	0.599317	1.282443
C75	C	1.391506	0.267489	0.782453
C76	C	1.891506	0.767489	1.282453
C77	C	1.391501	0.267486	0.703652
C78	C	1.891501	0.767486	1.203652
C79	C	1.475643	0.183405	0.664250
C80	C	1.975643	0.683405	1.164250
H81	H	0.895334	0.181274	0.055523
H82	H	1.395334	0.681274	0.555523
O83	O	1.477239	-0.253607	0.073552
O84	O	1.977239	0.246393	0.573552
H85	H	1.562789	-0.239079	0.106296
H86	H	2.062789	0.260921	0.606296
O87	O	1.300748	0.358167	0.661166
O88	O	1.800748	0.858167	1.161166
H89	H	1.314861	0.344029	0.599751
H90	H	1.814861	0.844029	1.099751
O91	O	1.117598	0.187148	-0.138401
O92	O	1.617598	0.687148	0.361599
H93	H	1.103072	0.101592	-0.171143
H94	H	1.603072	0.601592	0.328857
H95	H	0.850910	0.180120	-0.120374
H96	H	1.350910	0.680120	0.379626
O97	O	1.038582	0.185056	0.073547
O98	O	1.538582	0.685056	0.573547
H99	H	1.105600	0.186827	0.121053
H100	H	1.605600	0.686827	0.621053
H101	H	1.447708	0.389342	0.571465
H102	H	1.947708	0.889342	1.071465
H103	H	1.322905	0.335923	0.185489
H104	H	1.822905	0.835923	0.685489
O105	O	1.479375	-0.174620	-0.138398
O106	O	1.979375	0.325380	0.361602
H107	H	1.482049	-0.073186	-0.126853
H108	H	1.982049	0.426814	0.373147
O109	O	1.471898	-0.458533	-0.138406
O110	O	1.971898	0.041467	0.361594
H111	H	1.469214	-0.559971	-0.126867
H112	H	1.969214	-0.059971	0.373133
H113	H	1.628286	0.030857	0.671557
H114	H	2.128286	0.530857	1.171557
O115	O	1.650437	0.008614	0.175047
O116	O	2.150437	0.508614	0.675047
H117	H	1.708936	-0.049856	0.215681
H118	H	2.208936	0.450144	0.715681
H119	H	1.628287	0.030851	0.814514
H120	H	2.128287	0.530851	1.314514
H121	H	1.628230	0.030844	0.328425
H122	H	2.128230	0.530844	0.828425
H123	H	1.503537	-0.022541	0.428534
H124	H	2.003537	0.477459	0.928534
O125	O	1.507609	-0.052546	0.581902
O126	O	2.007609	0.447454	1.081902
H127	H	1.505015	-0.033479	0.643315
H128	H	2.005015	0.466521	1.143315
H129	H	1.323009	0.335948	0.814540
H130	H	1.823009	0.835948	1.314540
H131	H	1.447659	0.389339	0.428512
H132	H	1.947659	0.889339	0.928512
O133	O	1.473933	-0.379647	0.073553
O134	O	1.973933	0.120353	0.573553
H135	H	1.390584	-0.309939	0.076779
H136	H	1.890584	0.190061	0.576779
H137	H	1.322942	0.335929	0.328452
H138	H	1.822942	0.835929	0.828452
