data_functionalizedCrystal
_audit_creation_method	'MofGen! by Chris Wilmer'
_symmetry_space_group_name_H-M	'P1'
_symmetry_Int_Tables_number	1
_symmetry_cell_setting	triclinic
loop_
_symmetry_equiv_pos_as_xyz
  x,y,z
_cell_length_a	27.731994
_cell_length_b	26.210047
_cell_length_c	27.732046
_cell_angle_alpha	89.987412
_cell_angle_beta	97.368744
_cell_angle_gamma	90.018354
loop_
_atom_site_label
_atom_site_type_symbol
_atom_site_fract_x
_atom_site_fract_y
_atom_site_fract_z
O1	O	0.640958	0.042363	-0.057392
O2	O	1.140958	0.542363	0.442608
O3	O	0.500161	0.042381	-0.066164
O4	O	1.000161	0.542381	0.433836
O5	O	0.574933	0.042360	0.008620
O6	O	1.074933	0.542360	0.508620
O7	O	0.566186	0.042384	-0.132176
O8	O	1.066186	0.542384	0.367824
O9	O	0.574898	-0.042498	0.008620
O10	O	1.074898	0.457502	0.508620
O11	O	0.500126	-0.042477	-0.066164
O12	O	1.000126	0.457523	0.433836
O13	O	0.640924	-0.042495	-0.057391
O14	O	1.140924	0.457505	0.442609
Cu15	Cu	0.570522	-0.050234	-0.061777
Cu16	Cu	1.070522	0.449766	0.438223
Cu17	Cu	0.570563	0.050120	-0.061778
Cu18	Cu	1.070563	0.550120	0.438222
O19	O	0.566152	-0.042474	-0.132175
O20	O	1.066152	0.457526	0.367825
C21	C	0.482136	-0.000046	-0.065984
C22	C	0.982136	0.499954	0.434016
C23	C	0.428480	-0.000039	-0.065442
C24	C	0.928480	0.499961	0.434558
C25	C	0.095743	-0.046316	-0.062025
C26	C	0.595743	0.453684	0.437975
C27	C	-0.105916	-0.046322	-0.059964
C28	C	0.394084	0.453678	0.440036
O29	O	-0.132004	-0.085661	-0.059676
O30	O	0.367996	0.414339	0.440324
N31	N	-0.131112	-0.000066	-0.059708
N32	N	0.368888	0.499934	0.440292
C33	C	-0.105890	0.046195	-0.059965
C34	C	0.394110	0.546195	0.440035
O35	O	-0.131947	0.085538	-0.059695
O36	O	0.368053	0.585538	0.440305
C37	C	0.095768	0.046200	-0.062023
C38	C	0.595768	0.546200	0.437977
C39	C	0.120961	-0.000059	-0.062284
C40	C	0.620961	0.499941	0.437716
C41	C	0.120935	-0.092571	-0.062285
C42	C	0.620935	0.407429	0.437715
C43	C	0.171347	-0.092569	-0.062803
C44	C	0.671347	0.407431	0.437197
C45	C	0.196565	-0.046312	-0.063061
C46	C	0.696565	0.453688	0.436939
C47	C	0.171372	-0.000057	-0.062802
C48	C	0.671372	0.499943	0.437198
C49	C	0.120990	0.092461	-0.062276
C50	C	0.620990	0.592461	0.437724
C51	C	0.171408	0.092458	-0.062790
C52	C	0.671408	0.592458	0.437210
C53	C	0.196600	0.046199	-0.063050
C54	C	0.696600	0.546199	0.436950
C55	C	0.247001	0.046203	-0.063578
C56	C	0.747001	0.546203	0.436422
N57	N	0.272197	-0.000053	-0.063833
N58	N	0.772197	0.499947	0.436167
C59	C	0.246979	-0.046311	-0.063575
C60	C	0.746979	0.453689	0.436425
C61	C	-0.211763	0.046189	-0.058885
C62	C	0.288237	0.546189	0.441115
C63	C	-0.262177	0.046187	-0.058372
C64	C	0.237823	0.546187	0.441628
C65	C	-0.262200	-0.046330	-0.058370
C66	C	0.237800	0.453670	0.441630
C67	C	-0.211785	-0.046328	-0.058887
C68	C	0.288215	0.453672	0.441113
C69	C	-0.186567	-0.000067	-0.059141
C70	C	0.313433	0.499933	0.440859
C71	C	0.352846	-0.046303	-0.064663
C72	C	0.852846	0.453697	0.435337
C73	C	0.403262	-0.046297	-0.065184
C74	C	0.903262	0.453703	0.434816
C75	C	0.403280	0.046220	-0.065183
C76	C	0.903280	0.546220	0.434817
C77	C	0.352869	0.046214	-0.064665
C78	C	0.852869	0.546214	0.435335
C79	C	0.327653	-0.000051	-0.064404
C80	C	0.827653	0.499949	0.435596
O81	O	0.273122	0.085521	-0.063860
O82	O	0.773122	0.585521	0.436140
O83	O	0.273047	-0.085648	-0.063834
O84	O	0.773047	0.414352	0.436166
C85	C	0.045331	-0.046318	-0.061507
C86	C	0.545331	0.453682	0.438493
C87	C	0.020139	-0.000063	-0.061247
C88	C	0.520139	0.499937	0.438753
C89	C	0.045357	0.046195	-0.061506
C90	C	0.545357	0.546195	0.438494
C91	C	-0.030276	-0.000064	-0.060734
C92	C	0.469724	0.499936	0.439266
C93	C	-0.055494	-0.046321	-0.060476
C94	C	0.444506	0.453679	0.439524
C95	C	-0.030298	-0.092577	-0.060731
C96	C	0.469702	0.407423	0.439269
C97	C	0.020113	-0.092575	-0.061249
C98	C	0.520113	0.407425	0.438751
C99	C	0.020161	0.092451	-0.061250
C100	C	0.520161	0.592451	0.438750
C101	C	-0.030250	0.092445	-0.060732
C102	C	0.469750	0.592445	0.439268
C103	C	-0.055469	0.046188	-0.060474
C104	C	0.444531	0.546188	0.439526
N105	N	0.570497	-0.120818	-0.061776
N106	N	1.070497	0.379182	0.438224
C107	C	0.537422	-0.526776	-0.094877
C108	C	1.037422	-0.026776	0.405123
C109	C	0.537399	-0.313118	-0.094877
C110	C	1.037399	0.186882	0.405123
O111	O	0.509220	-0.285491	-0.123016
O112	O	1.009220	0.214509	0.376984
N113	N	0.570512	-0.286402	-0.061774
N114	N	1.070512	0.213598	0.438226
C115	C	0.603631	-0.313104	-0.028667
C116	C	1.103631	0.186896	0.471333
O117	O	0.631792	-0.285478	-0.000508
O118	O	1.131792	0.214522	0.499492
C119	C	0.603652	-0.526762	-0.028665
C120	C	1.103652	-0.026762	0.471335
C121	C	0.570540	-0.553475	-0.061773
C122	C	1.070540	-0.053475	0.438227
C123	C	0.504312	-0.553489	-0.127982
C124	C	1.004312	-0.053489	0.372018
C125	C	0.504320	-0.606901	-0.127983
C126	C	1.004320	-0.106901	0.372017
C127	C	0.537438	-0.633599	-0.094880
C128	C	1.037438	-0.133599	0.405120
C129	C	0.570548	-0.606886	-0.061775
C130	C	1.070548	-0.106886	0.438225
C131	C	0.636769	-0.553463	0.004444
C132	C	1.136769	-0.053463	0.504444
C133	C	0.636770	-0.606881	0.004442
C134	C	1.136770	-0.106881	0.504442
C135	C	0.603658	-0.633594	-0.028666
C136	C	1.103658	-0.133594	0.471334
C137	C	0.603673	-0.686996	-0.028672
C138	C	1.103673	-0.186996	0.471328
N139	N	0.570560	-0.713712	-0.061775
N140	N	1.070560	-0.213712	0.438225
C141	C	0.537442	-0.687013	-0.094879
C142	C	1.037442	-0.187013	0.405121
C143	C	0.603619	-0.200931	-0.028671
C144	C	1.103619	0.299069	0.471329
C145	C	0.603614	-0.147517	-0.028672
C146	C	1.103614	0.352483	0.471328
C147	C	0.537381	-0.147534	-0.094882
C148	C	1.037381	0.352466	0.405118
C149	C	0.537388	-0.200949	-0.094883
C150	C	1.037388	0.299051	0.405117
C151	C	0.570506	-0.227646	-0.061774
C152	C	1.070506	0.272354	0.438226
C153	C	0.537462	-0.799181	-0.094879
C154	C	1.037462	-0.299181	0.405121
C155	C	0.537474	-0.852597	-0.094879
C156	C	1.037474	-0.352597	0.405121
C157	C	0.603705	-0.852575	-0.028668
C158	C	1.103705	-0.352575	0.471332
C159	C	0.603695	-0.799164	-0.028670
C160	C	1.103695	-0.299164	0.471330
C161	C	0.570569	-0.772468	-0.061777
C162	C	1.070569	-0.272468	0.438223
O163	O	0.631834	-0.714655	-0.000544
O164	O	1.131834	-0.214655	0.499456
O165	O	0.509278	-0.714648	-0.123026
O166	O	1.009278	-0.214648	0.376974
C167	C	0.537414	-0.473365	-0.094876
C168	C	1.037414	0.026635	0.405124
C169	C	0.570524	-0.446652	-0.061770
C170	C	1.070524	0.053348	0.438230
C171	C	0.603642	-0.473350	-0.028667
C172	C	1.103642	0.026650	0.471333
C173	C	0.570519	-0.393238	-0.061772
C174	C	1.070519	0.106762	0.438228
C175	C	0.537402	-0.366539	-0.094875
C176	C	1.037402	0.133461	0.405125
C177	C	0.504288	-0.393255	-0.127978
C178	C	1.004288	0.106745	0.372022
C179	C	0.504296	-0.446666	-0.127979
C180	C	1.004296	0.053334	0.372021
C181	C	0.636755	-0.446634	0.004436
C182	C	1.136755	0.053366	0.504436
C183	C	0.636745	-0.393223	0.004434
C184	C	1.136745	0.106777	0.504434
C185	C	0.603627	-0.366524	-0.028670
C186	C	1.103627	0.133476	0.471330
C187	C	0.658948	-0.000067	-0.057571
C188	C	1.158948	0.499933	0.442429
C189	C	0.712605	-0.000070	-0.058114
C190	C	1.212605	0.499930	0.441886
C191	C	0.574732	-0.000071	0.026627
C192	C	1.074732	0.499929	0.526627
C193	C	0.574179	-0.000076	0.080282
C194	C	1.074179	0.499924	0.580282
N195	N	0.570592	0.120704	-0.061775
N196	N	1.070592	0.620704	0.438225
C197	C	0.614886	-0.000064	0.419105
C198	C	1.114886	0.499936	0.919105
C199	C	0.612837	-0.000061	0.620764
C200	C	1.112837	0.499939	1.120764
O201	O	0.650058	-0.000044	0.652027
O202	O	1.150058	0.499956	1.152027
N203	N	0.568500	-0.000057	0.639880
N204	N	1.068500	0.499943	1.139880
C205	C	0.524673	-0.000049	0.608576
C206	C	1.024673	0.499951	1.108576
O207	O	0.486916	-0.000040	0.629462
O208	O	0.986916	0.499960	1.129462
C209	C	0.526724	-0.000048	0.406918
C210	C	1.026724	0.499952	0.906918
C211	C	0.571063	-0.000058	0.387806
C212	C	1.071063	0.499942	0.887806
C213	C	0.659222	-0.000073	0.399992
C214	C	1.159222	0.499927	0.899992
C215	C	0.659734	-0.000076	0.349580
C216	C	1.159734	0.499924	0.849580
C217	C	0.615910	-0.000070	0.318281
C218	C	1.115910	0.499930	0.818281
C219	C	0.571575	-0.000061	0.337394
C220	C	1.071575	0.499939	0.837394
C221	C	0.482897	-0.000037	0.375616
C222	C	0.982897	0.499963	0.875616
C223	C	0.483414	-0.000035	0.325198
C224	C	0.983414	0.499965	0.825198
C225	C	0.527753	-0.000045	0.306086
C226	C	1.027753	0.499955	0.806086
C227	C	0.528263	-0.000059	0.255683
C228	C	1.028263	0.499941	0.755683
N229	N	0.572599	-0.000063	0.236568
N230	N	1.072599	0.499937	0.736568
C231	C	0.616423	-0.000069	0.267867
C232	C	1.116423	0.499931	0.767867
C233	C	0.523600	-0.000051	0.714450
C234	C	1.023600	0.499949	1.214450
C235	C	0.523087	-0.000052	0.764865
C236	C	1.023087	0.499948	1.264865
C237	C	0.611251	-0.000063	0.777049
C238	C	1.111251	0.499937	1.277049
C239	C	0.611763	-0.000066	0.726634
C240	C	1.111763	0.499934	1.226634
C241	C	0.567936	-0.000056	0.695335
C242	C	1.067936	0.499944	1.195335
C243	C	0.617495	-0.000077	0.161998
C244	C	1.117495	0.499923	0.661998
C245	C	0.618003	-0.000082	0.111581
C246	C	1.118003	0.499918	0.611581
C247	C	0.529840	-0.000068	0.099401
C248	C	1.029840	0.499932	0.599401
C249	C	0.529332	-0.000066	0.149813
C250	C	1.029332	0.499934	0.649813
C251	C	0.573163	-0.000068	0.181111
C252	C	1.073163	0.499932	0.681111
O253	O	0.491061	-0.000070	0.224392
O254	O	0.991061	0.499930	0.724392
O255	O	0.654175	-0.000067	0.246972
O256	O	1.154175	0.499933	0.746972
C257	C	0.614374	-0.000060	0.469517
C258	C	1.114374	0.499940	0.969517
C259	C	0.570039	-0.000051	0.488630
C260	C	1.070039	0.499949	0.988630
C261	C	0.526215	-0.000045	0.457330
C262	C	1.026215	0.499955	0.957330
C263	C	0.569526	-0.000052	0.539044
C264	C	1.069526	0.499948	1.039044
C265	C	0.613350	-0.000058	0.570343
C266	C	1.113350	0.499942	1.070343
C267	C	0.657686	-0.000063	0.551228
C268	C	1.157686	0.499937	1.051228
C269	C	0.658198	-0.000066	0.500816
C270	C	1.158198	0.499934	1.000816
C271	C	0.481879	-0.000041	0.476445
C272	C	0.981879	0.499959	0.976445
C273	C	0.481371	-0.000038	0.526858
C274	C	0.981371	0.499962	1.026858
C275	C	0.525194	-0.000044	0.558157
C276	C	1.025194	0.499956	1.058157
C277	C	0.566354	-0.000048	0.849818
C278	C	1.066354	0.499952	1.349818
C279	C	0.566911	-0.000058	0.796164
C280	C	1.066911	0.499942	1.296164
H281	H	0.100487	0.130130	-0.062063
H282	H	0.600487	0.630130	0.437937
Br283	Br	0.469157	-0.000064	0.175752
Br284	Br	0.969157	0.499936	0.675752
Br285	Br	0.459360	-0.517265	-0.172914
Br286	Br	0.959360	-0.017265	0.327086
Br287	Br	0.681708	-0.517220	0.049379
Br288	Br	1.181708	-0.017220	0.549379
H289	H	0.191937	0.130130	-0.062997
H290	H	0.691937	0.630130	0.437003
H291	H	0.494160	-0.000065	0.073908
H292	H	0.994160	0.499935	0.573908
Br293	Br	0.437448	-0.109081	-0.065540
Br294	Br	0.937448	0.390919	0.434460
H295	H	0.332355	0.083882	-0.064461
H296	H	0.832355	0.583882	0.435539
Br297	Br	0.492436	-0.111289	-0.139808
Br298	Br	0.992436	0.388711	0.360192
Br299	Br	0.648562	-0.111269	0.016254
Br300	Br	1.148562	0.388731	0.516254
H301	H	0.040689	0.130120	-0.061459
H302	H	0.540689	0.630120	0.438541
Br303	Br	0.648569	-0.237157	0.016265
Br304	Br	1.148569	0.262843	0.516265
Br305	Br	0.459345	-0.357011	-0.172906
Br306	Br	0.959345	0.142989	0.327094
Br307	Br	0.678182	-0.000096	0.085647
Br308	Br	1.178182	0.499904	0.585647
H309	H	0.653187	-0.000077	0.187475
H310	H	1.153187	0.499923	0.687475
H311	H	0.630671	-0.874322	-0.001717
H312	H	1.130671	-0.374322	0.498283
Br313	Br	0.422398	-0.000030	0.433975
Br314	Br	0.922398	0.499970	0.933975
H315	H	0.445262	-0.000034	0.542414
H316	H	0.945262	0.499966	1.042414
Br317	Br	0.719912	-0.000075	0.323651
Br318	Br	1.219912	0.499925	0.823651
H319	H	0.477333	-0.468412	-0.154939
H320	H	0.977333	0.031588	0.345061
H321	H	0.694303	-0.000074	0.485260
H322	H	1.194303	0.499926	0.985260
Br323	Br	0.492504	-0.762960	-0.139811
Br324	Br	0.992504	-0.262960	0.360189
Br325	Br	0.718705	-0.000080	0.442462
Br326	Br	1.218705	0.499920	0.942462
H327	H	0.446792	-0.000026	0.391168
H328	H	0.946792	0.499974	0.891168
Br329	Br	0.648641	-0.762912	0.016258
Br330	Br	1.148641	-0.262912	0.516258
H331	H	0.447724	-0.000026	0.299717
H332	H	0.947724	0.499974	0.799717
H333	H	-0.191235	0.083862	-0.059092
H334	H	0.308765	0.583862	0.440908
Br335	Br	0.681716	-0.643109	0.049381
Br336	Br	1.181716	-0.143109	0.549381
H337	H	-0.191276	-0.083996	-0.059099
H338	H	0.308724	0.416004	0.440901
H339	H	0.663713	-0.371477	0.031394
H340	H	1.163713	0.128523	0.531394
Br341	Br	-0.064533	-0.155354	-0.060385
Br342	Br	0.435467	0.344646	0.439615
Br343	Br	0.717160	-0.000075	0.593716
Br344	Br	1.217160	0.499925	1.093716
H345	H	0.663723	-0.468368	0.031394
H346	H	1.163723	0.031632	0.531394
Br347	Br	0.492535	-0.888848	-0.139816
Br348	Br	0.992535	-0.388848	0.360184
H349	H	0.477356	-0.628647	-0.154941
H350	H	0.977356	-0.128647	0.345059
Br351	Br	0.437515	0.108995	-0.065531
Br352	Br	0.937515	0.608995	0.434469
Br353	Br	0.464115	-0.000036	0.671980
Br354	Br	0.964115	0.499964	1.171980
H355	H	0.332321	-0.083977	-0.064455
H356	H	0.832321	0.416023	0.435545
H357	H	0.191854	-0.130238	-0.063013
H358	H	0.691854	0.369762	0.436987
Br359	Br	0.671939	-0.000080	0.700702
Br360	Br	1.171939	0.499920	1.200702
Br361	Br	0.670725	-0.000070	0.819536
Br362	Br	1.170725	0.499930	1.319536
H363	H	-0.282686	0.083856	-0.058167
H364	H	0.217314	0.583856	0.441833
H365	H	-0.050759	0.130118	-0.060524
H366	H	0.449241	0.630118	0.439476
H367	H	0.486982	-0.000053	0.780421
H368	H	0.986982	0.499947	1.280421
H369	H	-0.282741	-0.083994	-0.058161
H370	H	0.217259	0.416006	0.441839
Br371	Br	0.054295	-0.155359	-0.061604
Br372	Br	0.554295	0.344641	0.438396
Br373	Br	0.492449	-0.237196	-0.139817
Br374	Br	0.992449	0.262804	0.360183
H375	H	0.100408	-0.130242	-0.062074
H376	H	0.600408	0.369758	0.437926
