data_functionalizedCrystal
_audit_creation_method	'MofGen! by Chris Wilmer'
_symmetry_space_group_name_H-M	'P1'
_symmetry_Int_Tables_number	1
_symmetry_cell_setting	triclinic
loop_
_symmetry_equiv_pos_as_xyz
  x,y,z
_cell_length_a	21.295417
_cell_length_b	17.077404
_cell_length_c	17.077396
_cell_angle_alpha	89.981638
_cell_angle_beta	89.966808
_cell_angle_gamma	90.028477
loop_
_atom_site_label
_atom_site_type_symbol
_atom_site_fract_x
_atom_site_fract_y
_atom_site_fract_z
Zn1	Zn	-0.250643	1.200013	-0.443793
Zn2	Zn	-0.355916	1.199903	-0.312516
Zn3	Zn	-0.250661	1.068745	-0.312544
Zn4	Zn	-0.355875	1.068695	-0.443743
O5	O	-0.303274	1.134339	-0.378149
O6	O	-0.264618	1.309845	-0.426389
O7	O	-0.341979	1.182479	-0.202673
O8	O	-0.162569	1.086225	-0.329987
O9	O	-0.341962	1.309764	-0.329940
O10	O	-0.162556	1.182667	-0.426415
O11	O	-0.264648	1.086118	-0.202693
O12	O	-0.264608	0.958891	-0.329938
O13	O	-0.341891	1.086140	-0.553596
O14	O	-0.341908	0.958855	-0.426329
O15	O	-0.264578	1.182619	-0.553633
O16	O	-0.444000	1.182431	-0.329891
O17	O	-0.443970	1.086033	-0.426302
C18	C	-0.303256	0.930391	-0.378131
C19	C	-0.303264	0.843141	-0.378142
C20	C	-0.263062	0.802194	-0.428440
C21	C	-0.263066	0.720214	-0.428443
C22	C	-0.303275	0.679182	-0.378153
C23	C	-0.343478	0.720135	-0.327850
C24	C	-0.343471	0.802114	-0.327843
C25	C	-0.343493	0.549265	-0.327870
C26	C	-0.343501	0.467280	-0.327877
C27	C	-0.263088	0.467365	-0.428470
C28	C	-0.263081	0.549344	-0.428463
C29	C	-0.303285	0.590291	-0.378161
C30	C	-0.466826	1.134236	-0.378105
C31	C	-0.536794	1.134264	-0.378113
C32	C	-0.569655	1.184503	-0.327963
C33	C	-0.635398	1.184539	-0.327981
C34	C	-0.668276	1.134323	-0.378140
C35	C	-0.635407	1.084081	-0.428300
C36	C	-0.569665	1.084051	-0.428286
N37	N	-0.771540	1.065655	-0.384118
N38	N	-0.833991	1.065685	-0.384127
C39	C	-0.866351	1.134411	-0.378185
N40	N	-0.833900	1.203107	-0.372220
N41	N	-0.771443	1.203076	-0.372207
C42	C	-0.739562	1.134350	-0.378161
C43	C	-0.970498	1.184694	-0.328052
C44	C	-1.036242	1.184732	-0.328075
C45	C	-1.036249	1.084267	-0.428390
C46	C	-0.970507	1.084236	-0.428371
C47	C	-0.937635	1.134448	-0.378198
C48	C	-0.139084	1.134464	-0.378210
C49	C	-0.069116	1.134517	-0.378236
C50	C	-0.303228	1.134386	-0.582893
C51	C	-0.303208	1.134407	-0.670143
C52	C	-0.303292	1.339083	-0.378167
C53	C	-0.303300	1.426333	-0.378175
C54	C	-0.262948	1.184645	-0.711154
C55	C	-0.262927	1.184654	-0.793134
C56	C	-0.303170	1.134429	-0.834103
C57	C	-0.343432	1.084185	-0.793086
C58	C	-0.343449	1.084172	-0.711107
C59	C	-0.343394	1.084217	-0.963956
C60	C	-0.343377	1.084231	-1.045941
C61	C	-0.262871	1.184699	-1.045984
C62	C	-0.262889	1.184686	-0.964005
C63	C	-0.303152	1.134443	-0.922994
C64	C	-0.303275	1.134337	-0.174201
C65	C	-0.303117	1.134469	-0.086952
H66	H	-0.376214	0.686720	-0.286899
H67	H	-0.230179	1.225547	-0.677803
Cl68	Cl	-0.676738	1.020956	-0.491361
H69	H	-0.376227	1.043255	-0.677717
H70	H	-0.230144	1.225565	-0.826522
H71	H	-0.542893	1.225390	-0.287111
Cl72	Cl	-0.528351	1.020888	-0.491337
H73	H	-0.230087	1.225607	-1.079379
H74	H	-0.376229	0.582602	-0.286906
Cl75	Cl	-0.212300	1.247832	-0.912503
Cl76	Cl	-0.393962	1.021080	-1.097443
Cl77	Cl	-0.394021	1.021041	-0.844589
H78	H	-0.230332	0.686878	-0.469402
Cl79	Cl	-0.212514	0.853769	-0.491669
H80	H	-0.376170	1.043291	-0.930568
Cl81	Cl	-0.929171	1.247817	-0.264978
Cl82	Cl	-0.394012	0.853591	-0.264610
Cl83	Cl	-0.676718	1.247700	-0.264929
H84	H	-0.230343	0.582750	-0.469418
H85	H	-0.230352	0.434021	-0.469426
H86	H	-1.062997	1.225648	-0.287238
H87	H	-1.063018	1.043384	-0.469234
H88	H	-0.376243	0.433874	-0.286927
Cl89	Cl	-0.929193	1.021071	-0.491417
