data_functionalizedCrystal
_audit_creation_method	'MofGen! by Chris Wilmer'
_symmetry_space_group_name_H-M	'P1'
_symmetry_Int_Tables_number	1
_symmetry_cell_setting	triclinic
loop_
_symmetry_equiv_pos_as_xyz
  x,y,z
_cell_length_a	18.101398
_cell_length_b	19.121111
_cell_length_c	18.101389
_cell_angle_alpha	87.578568
_cell_angle_beta	89.990255
_cell_angle_gamma	87.534504
loop_
_atom_site_label
_atom_site_type_symbol
_atom_site_fract_x
_atom_site_fract_y
_atom_site_fract_z
Zn1	Zn	1.119547	0.279772	-0.431129
Zn2	Zn	1.619547	0.779772	0.068871
Zn3	Zn	1.114165	0.397208	-0.312568
Zn4	Zn	1.614165	0.897208	0.187432
Zn5	Zn	0.995706	0.279765	-0.307322
Zn6	Zn	1.495706	0.779765	0.192678
Zn7	Zn	0.990380	0.397178	-0.436387
Zn8	Zn	1.490380	0.897178	0.063613
O9	O	1.054950	0.338481	-0.371851
O10	O	1.554950	0.838481	0.128149
O11	O	1.222465	0.295365	-0.415397
O12	O	1.722465	0.795365	0.084603
O13	O	1.098428	0.381638	-0.208239
O14	O	1.598428	0.881638	0.291761
O15	O	1.016616	0.181481	-0.319349
O16	O	1.516616	0.681481	0.180651
O17	O	1.218511	0.381645	-0.328291
O18	O	1.718511	0.881645	0.171709
O19	O	1.107601	0.181486	-0.410310
O20	O	1.607601	0.681486	0.089690
O21	O	1.011397	0.295354	-0.204385
O22	O	1.511397	0.795354	0.295615
O23	O	0.891368	0.295325	-0.324447
O24	O	1.391368	0.795325	0.175553
O25	O	1.007538	0.381595	-0.539322
O26	O	1.507538	0.881595	-0.039322
O27	O	0.887455	0.381588	-0.419271
O28	O	1.387455	0.881588	0.080729
O29	O	1.102436	0.295337	-0.535459
O30	O	1.602436	0.795337	-0.035459
O31	O	1.093263	0.495489	-0.333388
O32	O	1.593263	0.995489	0.166612
O33	O	1.002319	0.495467	-0.424357
O34	O	1.502319	0.995467	0.075643
C35	C	0.862540	0.338453	-0.371860
C36	C	1.362540	0.838453	0.128140
C37	C	0.780226	0.338458	-0.371883
C38	C	1.280226	0.838458	0.128117
C39	C	0.481133	0.338500	-0.371854
C40	C	0.981133	0.838500	0.128146
C41	C	0.510009	0.393036	-0.431243
C42	C	1.010009	0.893036	0.068757
C43	C	0.595635	0.392866	-0.431470
C44	C	1.095635	0.892866	0.068530
C45	C	0.629517	0.338480	-0.371868
C46	C	1.129517	0.838480	0.128132
C47	C	0.601787	0.264506	-0.389870
C48	C	1.101787	0.764506	0.110130
C49	C	0.516127	0.264834	-0.390290
C50	C	1.016127	0.764834	0.109710
C51	C	0.511836	0.357285	-0.294295
C52	C	1.011836	0.857285	0.205705
C53	C	0.597414	0.358908	-0.294787
C54	C	1.097414	0.858908	0.205213
C55	C	0.713377	0.338464	-0.371875
C56	C	1.213377	0.838464	0.128125
C57	C	0.397273	0.338511	-0.371849
C58	C	0.897273	0.838511	0.128151
C59	C	1.046649	0.520962	-0.380029
C60	C	1.546649	1.020962	0.119971
C61	C	1.043166	0.599029	-0.383552
C62	C	1.543166	1.099029	0.116448
C63	C	1.088916	0.635692	-0.337884
C64	C	1.588916	1.135692	0.162116
C65	C	1.085645	0.709044	-0.341201
C66	C	1.585645	1.209044	0.158799
C67	C	1.036619	0.745731	-0.390184
C68	C	1.536619	1.245731	0.109816
C69	C	0.990867	0.709062	-0.435858
C70	C	1.490867	1.209062	0.064142
C71	C	0.994143	0.635711	-0.432543
C72	C	1.494143	1.135711	0.067457
C73	C	1.024361	0.967202	-0.402563
C74	C	1.524361	1.467202	0.097437
C75	C	1.021087	1.040557	-0.405873
C76	C	1.521087	1.540557	0.094127
C77	C	1.115867	1.040534	-0.311217
C78	C	1.615867	1.540534	0.188783
C79	C	1.119135	0.967182	-0.307904
C80	C	1.619135	1.467182	0.192096
C81	C	1.073386	0.930520	-0.353580
C82	C	1.573386	1.430520	0.146420
C83	C	1.033272	0.820708	-0.393575
C84	C	1.533272	1.320708	0.106425
C85	C	1.076737	0.855544	-0.350192
C86	C	1.576737	1.355544	0.149808
C87	C	1.248110	0.338509	-0.371843
C88	C	1.748110	0.838509	0.128157
C89	C	1.330424	0.338521	-0.371839
C90	C	1.830424	0.838521	0.128161
C91	C	1.054993	0.338463	-0.565013
C92	C	1.554993	0.838463	-0.065013
C93	C	1.055012	0.338456	-0.647326
C94	C	1.555012	0.838456	-0.147326
C95	C	1.063296	1.155287	-0.363668
C96	C	1.563296	1.655287	0.136332
C97	C	1.066837	1.077221	-0.360204
C98	C	1.566837	1.577221	0.139796
C99	C	1.055061	0.338324	-0.946412
C100	C	1.555061	0.838324	-0.446412
C101	C	0.995164	0.392422	-0.917509
C102	C	1.495164	0.892422	-0.417509
C103	C	0.995308	0.392673	-0.831902
C104	C	1.495308	0.892673	-0.331902
C105	C	1.055036	0.338389	-0.798032
C106	C	1.555036	0.838389	-0.298032
C107	C	1.132158	0.358486	-0.830021
C108	C	1.632158	0.858486	-0.330021
C109	C	1.131822	0.358841	-0.915682
C110	C	1.631822	0.858841	-0.415682
C111	C	1.038520	0.264009	-0.911500
C112	C	1.538520	0.764009	-0.411500
C113	C	1.036764	0.264438	-0.825868
C114	C	1.536764	0.764438	-0.325868
C115	C	1.055027	0.338425	-0.714174
C116	C	1.555027	0.838425	-0.214174
C117	C	1.055075	0.338290	-1.030270
C118	C	1.555075	0.838290	-0.530270
C119	C	1.054951	0.338448	-0.179439
C120	C	1.554951	0.838448	0.320561
C121	C	1.055085	0.338258	-0.097117
C122	C	1.555085	0.838258	0.402883
H123	H	0.486921	0.448071	-0.420500
H124	H	0.986921	0.948071	0.079500
H125	H	1.116656	0.825672	-0.310313
H126	H	1.616656	1.325672	0.189687
N127	N	0.923441	0.376890	-0.804809
N128	N	1.423441	0.876890	-0.304809
N129	N	0.915432	0.324320	-0.762615
N130	N	1.415432	0.824320	-0.262615
H131	H	0.864672	0.313174	-0.743484
H132	H	1.364672	0.813174	-0.243484
H133	H	1.128835	0.605827	-0.297993
H134	H	1.628835	1.105827	0.202007
H135	H	1.005699	0.447171	-0.941493
H136	H	1.505699	0.947171	-0.441493
H137	H	1.177783	0.321149	-0.934717
H138	H	1.677783	0.821149	-0.434717
H139	H	0.980026	0.249283	-0.804870
H140	H	1.480026	0.749283	-0.304870
H141	H	0.496882	0.248900	-0.446889
H142	H	0.996882	0.748900	0.053111
N143	N	0.483716	0.377638	-0.503003
N144	N	0.983716	0.877638	-0.003003
N145	N	0.443803	0.326673	-0.510594
N146	N	0.943803	0.826673	-0.010594
H147	H	0.425232	0.315795	-0.561274
H148	H	0.925232	0.815795	-0.061274
N149	N	1.162607	1.077974	-0.264564
N150	N	1.662607	1.577974	0.235436
N151	N	1.206377	1.045209	-0.220834
N152	N	1.706377	1.545209	0.279166
H153	H	1.239391	1.071649	-0.187883
H154	H	1.739391	1.571649	0.312117
H155	H	1.005958	0.447758	-0.813893
H156	H	1.505958	0.947758	-0.313893
H157	H	1.177839	0.320321	-0.807948
H158	H	1.677839	0.820321	-0.307948
N159	N	0.629675	0.212210	-0.337045
N160	N	1.129675	0.712210	0.162955
N161	N	0.614363	0.217071	-0.270070
N162	N	1.114363	0.717071	0.229930
H163	H	0.634059	0.180161	-0.232735
H164	H	1.134059	0.680161	0.267265
N165	N	1.150633	0.425911	-0.806142
N166	N	1.650633	0.925911	-0.306142
N167	N	1.107131	0.459279	-0.765579
N168	N	1.607131	0.959279	-0.265579
H169	H	1.120176	0.506899	-0.748714
H170	H	1.620176	1.006899	-0.248714
N171	N	1.149909	0.426992	-0.943804
N172	N	1.649909	0.926992	-0.443804
N173	N	1.162691	0.473962	-0.900151
N174	N	1.662691	0.973962	-0.400151
H175	H	1.175466	0.522095	-0.920008
H176	H	1.675466	1.022095	-0.420008
N177	N	0.481718	0.423784	-0.272954
N178	N	0.981718	0.923784	0.227046
N179	N	0.413376	0.433346	-0.265929
N180	N	0.913376	0.933346	0.234071
H181	H	0.392103	0.480312	-0.250862
H182	H	0.892103	0.980312	0.249138
H183	H	0.983435	0.245700	-0.932277
H184	H	1.483435	0.745700	-0.432277
N185	N	1.132368	0.746490	-0.294537
N186	N	1.632368	1.246490	0.205463
N187	N	1.104511	0.787460	-0.249175
N188	N	1.604511	1.287460	0.250825
H189	H	1.137512	0.813905	-0.216215
H190	H	1.637512	1.313905	0.283785
N191	N	0.923065	0.376798	-0.942647
N192	N	1.423065	0.876798	-0.442647
N193	N	0.914980	0.325612	-0.982161
N194	N	1.414980	0.825612	-0.482161
H195	H	0.864059	0.314577	-0.999921
H196	H	1.364059	0.814577	-0.499921
N197	N	1.087835	0.211193	-0.796631
N198	N	1.587835	0.711193	-0.296631
N199	N	1.138760	0.226954	-0.754618
N200	N	1.638760	0.726954	-0.254618
H201	H	1.174835	0.189351	-0.733968
H202	H	1.674835	0.689351	-0.233968
H203	H	1.082186	0.223702	-0.929953
H204	H	1.582186	0.723702	-0.429953
N205	N	1.169216	0.929721	-0.257862
N206	N	1.669216	1.429721	0.242138
N207	N	1.210061	0.962466	-0.217089
N208	N	1.710061	1.462466	0.282911
H209	H	1.245429	0.936009	-0.181743
H210	H	1.745429	1.436009	0.318257
H211	H	0.623981	0.248284	-0.445833
H212	H	1.123981	0.748284	0.054167
H213	H	0.981173	1.070425	-0.445774
H214	H	1.481173	1.570425	0.054226
H215	H	0.616696	0.380438	-0.489002
H216	H	1.116696	0.880438	0.010998
H217	H	0.497297	0.222745	-0.348828
H218	H	0.997297	0.722745	0.151172
N219	N	0.947408	0.598247	-0.479180
N220	N	1.447408	1.098247	0.020820
N221	N	0.950339	0.532757	-0.476214
N222	N	1.450339	1.032757	0.023786
H223	H	0.917333	0.506296	-0.509154
H224	H	1.417333	1.006296	-0.009154
H225	H	0.615271	0.413341	-0.281149
H226	H	1.115271	0.913341	0.218851
N227	N	0.977626	0.929769	-0.449223
N228	N	1.477626	1.429769	0.050777
N229	N	0.933855	0.962536	-0.492952
N230	N	1.433855	1.462536	0.007048
H231	H	0.900845	0.936097	-0.525908
H232	H	1.400845	1.436097	-0.025908
H233	H	0.614165	0.447722	-0.420569
H234	H	1.114165	0.947722	0.079431
H235	H	0.620469	0.322069	-0.248430
H236	H	1.120469	0.822069	0.251570
H237	H	0.493363	0.317560	-0.250086
H238	H	0.993363	0.817560	0.249914
H239	H	0.950952	0.738938	-0.475744
H240	H	1.450952	1.238938	0.024256
N241	N	0.983190	0.858197	-0.443595
N242	N	1.483190	1.358197	0.056405
N243	N	0.934194	0.899178	-0.419346
N244	N	1.434194	1.399178	0.080654
H245	H	0.898824	0.925658	-0.454672
H246	H	1.398824	1.425658	0.045328
