data_functionalizedCrystal
_audit_creation_method	'MofGen! by Chris Wilmer'
_symmetry_space_group_name_H-M	'P1'
_symmetry_Int_Tables_number	1
_symmetry_cell_setting	triclinic
loop_
_symmetry_equiv_pos_as_xyz
  x,y,z
_cell_length_a	9.065218
_cell_length_b	19.188930
_cell_length_c	7.540329
_cell_angle_alpha	90.008296
_cell_angle_beta	90.001688
_cell_angle_gamma	84.080333
loop_
_atom_site_label
_atom_site_type_symbol
_atom_site_fract_x
_atom_site_fract_y
_atom_site_fract_z
O1	O	1.956844	0.102369	0.147510
O2	O	2.456844	0.602369	0.647510
O3	O	1.527268	0.110766	0.147515
O4	O	2.027268	0.610766	0.647515
O5	O	1.754453	0.005008	0.147478
O6	O	2.254453	0.505008	0.647478
O7	O	1.729659	0.208127	0.147547
O8	O	2.229659	0.708127	0.647547
O9	O	1.754445	0.005007	-0.147487
O10	O	2.254445	0.505007	0.352513
O11	O	1.527260	0.110765	-0.147450
O12	O	2.027260	0.610765	0.352550
O13	O	1.956836	0.102368	-0.147455
O14	O	2.456836	0.602368	0.352545
Cu15	Cu	1.742048	0.106567	-0.174385
Cu16	Cu	2.242048	0.606567	0.325615
Cu17	Cu	1.742057	0.106568	0.174445
Cu18	Cu	2.242057	0.606568	0.674445
O19	O	1.729652	0.208126	-0.147418
O20	O	2.229652	0.708126	0.352582
C21	C	1.472305	0.109959	0.000032
C22	C	1.972305	0.609959	0.500032
C23	C	1.308546	0.107546	0.000033
C24	C	1.808546	0.607546	0.500033
C25	C	1.753646	-0.021009	-0.000010
C26	C	2.253646	0.478991	0.499990
C27	C	1.751236	-0.098533	-0.000025
C28	C	2.251236	0.401467	0.499975
C29	C	1.884540	-0.142421	-0.000035
C30	C	2.384540	0.357579	0.499965
C31	C	1.882276	-0.215262	-0.000006
C32	C	2.382276	0.284738	0.499994
C33	C	1.746699	-0.244212	-0.000004
C34	C	2.246699	0.255788	0.499996
C35	C	1.613377	-0.200314	0.000016
C36	C	2.113377	0.299686	0.500016
C37	C	1.615646	-0.127474	0.000006
C38	C	2.115646	0.372526	0.500006
N39	N	1.643065	-0.353023	-0.100385
N40	N	2.143065	0.146977	0.399615
N41	N	1.640919	-0.422218	-0.100379
N42	N	2.140919	0.077782	0.399621
C43	C	1.739858	-0.463674	0.000032
C44	C	2.239858	0.036326	0.500032
N45	N	1.841045	-0.433322	0.100414
N46	N	2.341045	0.066678	0.600414
N47	N	1.843195	-0.364121	0.100400
N48	N	2.343195	0.135879	0.600400
C49	C	1.744225	-0.323194	0.000009
C50	C	2.244225	0.176806	0.500009
C51	C	1.870716	-0.586546	0.000056
C52	C	2.370716	-0.086546	0.500056
C53	C	1.868446	-0.659388	0.000095
C54	C	2.368446	-0.159388	0.500095
C55	C	1.599544	-0.644438	0.000100
C56	C	2.099544	-0.144438	0.500100
C57	C	1.601818	-0.571598	0.000078
C58	C	2.101818	-0.071598	0.500078
C59	C	1.737408	-0.542656	0.000048
C60	C	2.237408	-0.042656	0.500048
C61	C	2.011799	0.103176	0.000032
C62	C	2.511799	0.603176	0.500032
C63	C	2.175558	0.105589	0.000043
C64	C	2.675558	0.605589	0.500043
C65	C	1.730458	0.234144	0.000074
C66	C	2.230458	0.734144	0.500074
C67	C	1.732869	0.311667	0.000101
C68	C	2.232869	0.811667	0.500101
N69	N	1.742052	0.106566	-0.419734
N70	N	2.242052	0.606566	0.080266
N71	N	1.742064	0.106563	0.419794
N72	N	2.242064	0.606563	0.919794
H73	H	1.994948	-0.118862	-0.000054
H74	H	2.494948	0.381138	0.499946
H75	H	1.977004	-0.695122	0.000097
H76	H	2.477004	-0.195122	0.500097
H77	H	1.507089	-0.091740	0.000013
H78	H	2.007089	0.408260	0.500013
Cl79	Cl	1.429103	-0.680826	0.000114
Cl80	Cl	1.929103	-0.180826	0.500114
H81	H	1.493266	-0.535863	0.000076
H82	H	1.993266	-0.035863	0.500076
H83	H	1.990832	-0.251003	-0.000007
H84	H	2.490832	0.248997	0.499993
Cl85	Cl	1.442938	-0.236707	0.000034
Cl86	Cl	1.942938	0.263293	0.500034
Cl87	Cl	2.041168	-0.550158	0.000007
Cl88	Cl	2.541168	-0.050158	0.500007
