data_functionalizedCrystal
_audit_creation_method	'MofGen! by Chris Wilmer'
_symmetry_space_group_name_H-M	'P1'
_symmetry_Int_Tables_number	1
_symmetry_cell_setting	triclinic
loop_
_symmetry_equiv_pos_as_xyz
  x,y,z
_cell_length_a	6.394984
_cell_length_b	10.723023
_cell_length_c	9.798715
_cell_angle_alpha	89.996770
_cell_angle_beta	89.998391
_cell_angle_gamma	85.481450
loop_
_atom_site_label
_atom_site_type_symbol
_atom_site_fract_x
_atom_site_fract_y
_atom_site_fract_z
O1	O	0.293015	1.660294	-0.113472
O2	O	0.321064	1.297439	-0.113478
O3	O	0.003048	1.484021	-0.113471
O4	O	0.611031	1.473712	-0.113479
O5	O	0.003047	1.484006	0.113511
O6	O	0.321064	1.297425	0.113505
O7	O	0.293014	1.660280	0.113510
Zn8	Zn	0.307039	1.478850	0.149546
Zn9	Zn	0.307040	1.478869	-0.149513
O10	O	0.611030	1.473698	0.113503
C11	C	0.319023	1.250910	0.000013
C12	C	0.312917	1.112291	0.000011
C13	C	0.310194	1.050483	0.117593
C14	C	0.303883	0.907213	0.117594
C15	C	0.925200	1.481963	0.000024
C16	C	0.688873	1.475752	0.000022
C17	C	0.295055	1.706808	0.000017
C18	C	0.301161	1.845427	0.000010
N19	N	0.307037	1.478846	0.353645
N20	N	0.307025	1.478882	-0.353613
C21	C	0.172922	1.557181	0.421425
C22	C	0.172915	1.557200	0.578588
H23	H	0.312523	1.103634	0.218259
H24	H	0.310570	1.059141	-0.100655
N25	N	0.459118	1.390038	0.569188
H26	H	0.434153	1.301003	0.594002
H27	H	0.607482	1.407072	0.594005
H28	H	0.058097	1.624227	0.363105
H29	H	0.303515	0.898572	-0.100662
N30	N	0.020825	1.646050	0.655782
H31	H	0.042381	1.633473	0.757111
H32	H	-0.127536	1.629077	0.630885
H33	H	0.301553	0.854059	0.218260
H34	H	0.421845	1.411791	0.411967
