data_functionalizedCrystal
_audit_creation_method	'MofGen! by Chris Wilmer'
_symmetry_space_group_name_H-M	'P1'
_symmetry_Int_Tables_number	1
_symmetry_cell_setting	triclinic
loop_
_symmetry_equiv_pos_as_xyz
  x,y,z
_cell_length_a	16.956995
_cell_length_b	17.000383
_cell_length_c	15.455313
_cell_angle_alpha	92.453043
_cell_angle_beta	87.515363
_cell_angle_gamma	75.827387
loop_
_atom_site_label
_atom_site_type_symbol
_atom_site_fract_x
_atom_site_fract_y
_atom_site_fract_z
O1	O	1.059473	0.029409	-0.072190
O2	O	1.392807	0.362742	0.261143
O3	O	1.726140	0.696076	0.594477
O4	O	0.825347	0.057481	-0.072178
O5	O	1.158681	0.390815	0.261155
O6	O	1.492014	0.724148	0.594489
O7	O	0.956946	-0.073377	-0.072181
O8	O	1.290280	0.259956	0.261152
O9	O	1.623613	0.593290	0.594485
O10	O	0.927874	0.160267	-0.072187
O11	O	1.261208	0.493601	0.261147
O12	O	1.594541	0.826934	0.594480
O13	O	0.949423	-0.065923	0.072081
O14	O	1.282756	0.267410	0.405414
O15	O	1.616090	0.600744	0.738748
O16	O	0.817824	0.064936	0.072084
O17	O	1.151157	0.398269	0.405418
O18	O	1.484491	0.731602	0.738751
O19	O	1.051950	0.036863	0.072072
O20	O	1.385283	0.370196	0.405406
O21	O	1.718616	0.703530	0.738739
Cu22	Cu	0.934200	0.051580	0.085251
Cu23	Cu	1.267533	0.384913	0.418584
Cu24	Cu	1.600867	0.718247	0.751917
Cu25	Cu	0.943097	0.042765	-0.085356
Cu26	Cu	1.276431	0.376098	0.247977
Cu27	Cu	1.609764	0.709431	0.581310
O28	O	0.920351	0.167722	0.072076
O29	O	1.253684	0.501055	0.405409
O30	O	1.587017	0.834388	0.738742
C31	C	0.791777	0.062646	-0.000045
C32	C	1.125110	0.395979	0.333288
C33	C	1.458443	0.729313	0.666621
C34	C	0.702957	0.066919	-0.000041
C35	C	1.036290	0.400253	0.333293
C36	C	1.369623	0.733586	0.666626
C37	C	0.954746	-0.099406	-0.000051
C38	C	1.288079	0.233927	0.333282
C39	C	1.621413	0.567260	0.666615
C40	C	0.959389	-0.188070	-0.000054
C41	C	1.292722	0.145263	0.333279
C42	C	1.626056	0.478596	0.666612
C43	C	0.201417	0.098886	-0.000074
C44	C	0.534750	0.432219	0.333260
C45	C	0.868083	0.765552	0.666593
C46	C	0.284874	0.094864	-0.000073
C47	C	0.618207	0.428198	0.333260
C48	C	0.951540	0.761531	0.666594
C49	C	0.341253	0.019382	-0.000065
C50	C	0.674587	0.352715	0.333269
C51	C	1.007920	0.686048	0.666602
C52	C	0.314173	-0.052084	-0.000066
C53	C	0.647507	0.281249	0.333267
C54	C	0.980840	0.614582	0.666601
C55	C	0.230718	-0.048063	-0.000073
C56	C	0.564051	0.285271	0.333260
C57	C	0.897384	0.618604	0.666594
C58	C	0.592421	-0.000525	-0.000049
C59	C	0.925754	0.332808	0.333284
C60	C	1.259087	0.666142	0.666618
C61	C	0.675881	-0.004541	-0.000039
C62	C	1.009214	0.328792	0.333294
C63	C	1.342547	0.662125	0.666627
C64	C	0.646576	0.142408	-0.000048
C65	C	0.979909	0.475741	0.333285
C66	C	1.313242	0.809075	0.666619
C67	C	0.563120	0.146423	-0.000050
C68	C	0.896453	0.479756	0.333284
C69	C	1.229786	0.813090	0.666617
C70	C	0.536047	0.074957	-0.000056
C71	C	0.869380	0.408290	0.333278
C72	C	1.202714	0.741624	0.666611
N73	N	0.426560	0.015270	-0.000061
N74	N	0.759894	0.348603	0.333272
N75	N	1.093227	0.681936	0.666606
N76	N	0.450742	0.079069	-0.000065
N77	N	0.784075	0.412403	0.333268
N78	N	1.117408	0.745736	0.666601
C79	C	0.989369	-0.690260	-0.000059
C80	C	1.322702	-0.356927	0.333274
C81	C	1.656036	-0.023593	0.666607
C82	C	0.985000	-0.606949	-0.000054
C83	C	1.318333	-0.273616	0.333280
C84	C	1.651667	0.059717	0.666613
C85	C	0.909170	-0.550966	-0.000054
C86	C	1.242503	-0.217632	0.333279
C87	C	1.575837	0.115701	0.666613
C88	C	0.837704	-0.578296	-0.000051
C89	C	1.171037	-0.244963	0.333283
C90	C	1.504370	0.088371	0.666616
C91	C	0.842073	-0.661605	-0.000050
C92	C	1.175407	-0.328271	0.333283
C93	C	1.508740	0.005062	0.666617
C94	C	0.892292	-0.298709	-0.000050
C95	C	1.225626	0.034624	0.333283
C96	C	1.558959	0.367957	0.666616
C97	C	0.887928	-0.215396	-0.000054
C98	C	1.221262	0.117937	0.333280
C99	C	1.554595	0.451271	0.666613
C100	C	1.035225	-0.244055	-0.000055
C101	C	1.368559	0.089278	0.333278
C102	C	1.701892	0.422612	0.666611
C103	C	1.039588	-0.327365	-0.000060
C104	C	1.372922	0.005969	0.333274
C105	C	1.706255	0.339302	0.666607
C106	C	0.968122	-0.354687	-0.000052
C107	C	1.301455	-0.021354	0.333281
C108	C	1.634789	0.311979	0.666615
C109	C	0.904702	-0.465809	-0.000051
C110	C	1.238036	-0.132475	0.333282
C111	C	1.571369	0.200858	0.666616
C112	C	0.972590	-0.439843	-0.000049
C113	C	1.305923	-0.106509	0.333285
C114	C	1.639257	0.226824	0.666618
C115	C	1.085520	0.031699	-0.000062
C116	C	1.418854	0.365032	0.333271
C117	C	1.752187	0.698365	0.666604
C118	C	1.174341	0.027425	-0.000072
C119	C	1.507674	0.360758	0.333261
C120	C	1.841008	0.694092	0.666594
C121	C	0.922551	0.193751	-0.000056
C122	C	1.255884	0.527084	0.333277
C123	C	1.589218	0.860418	0.666610
C124	C	0.917908	0.282415	-0.000059
C125	C	1.251242	0.615748	0.333275
C126	C	1.584575	0.949081	0.666608
N127	N	0.927948	0.057779	0.205246
N128	N	1.261281	0.391113	0.538580
N129	N	1.594615	0.724446	0.871913
N130	N	0.949356	0.036558	-0.205352
N131	N	1.282689	0.369892	0.127981
N132	N	1.616023	0.703225	0.461315
C133	C	0.983873	0.002204	0.250639
C134	C	1.317206	0.335537	0.583972
C135	C	1.650539	0.668871	0.917306
C136	C	0.979151	0.006899	0.341447
C137	C	1.312485	0.340233	0.674780
C138	C	1.645818	0.673566	1.008114
C139	C	0.918508	0.067174	0.386861
C140	C	1.251842	0.400507	0.720194
C141	C	1.585175	0.733841	1.053527
C142	C	0.862578	0.122752	0.341462
C143	C	1.195911	0.456085	0.674795
C144	C	1.529245	0.789419	1.008128
C145	C	0.867296	0.118053	0.250655
C146	C	1.200630	0.451386	0.583989
C147	C	1.533963	0.784719	0.917322
C148	C	0.898144	0.087437	0.658443
C149	C	1.231477	0.420770	0.991776
C150	C	1.564811	0.754104	1.325109
C151	C	0.893431	0.092134	0.749255
C152	C	1.226765	0.425467	1.082589
C153	C	1.560098	0.758800	1.415922
C154	C	1.010004	-0.023720	0.749235
C155	C	1.343338	0.309613	1.082568
C156	C	1.676671	0.642946	1.415901
C157	C	1.014720	-0.028412	0.658426
C158	C	1.348054	0.304922	0.991760
C159	C	1.681387	0.638255	1.325093
C160	C	0.958787	0.027164	0.613035
C161	C	1.292121	0.360497	0.946369
C162	C	1.625454	0.693830	1.279702
N163	N	0.913683	0.071976	0.479681
N164	N	1.247016	0.405310	0.813014
N165	N	1.580349	0.738643	1.146348
N166	N	0.963610	0.022357	0.520217
N167	N	1.296943	0.355691	0.853550
N168	N	1.630277	0.689024	1.186883
H169	H	0.155516	0.160352	-0.000074
H170	H	0.488850	0.493685	0.333259
H171	H	0.822183	0.827019	0.666593
H172	H	0.360085	-0.113544	-0.000064
H173	H	0.693418	0.219789	0.333269
H174	H	1.026751	0.553122	0.666602
F175	F	0.735884	-0.084884	-0.000032
F176	F	1.069218	0.248449	0.333302
F177	F	1.402551	0.581783	0.666635
F178	F	0.824001	-0.406221	-0.000056
F179	F	1.157334	-0.072887	0.333277
F180	F	1.490667	0.260446	0.666610
H181	H	0.852602	0.132690	0.621492
H182	H	1.185936	0.466023	0.954826
H183	H	1.519269	0.799357	1.288159
H184	H	1.101337	-0.372942	-0.000056
H185	H	1.434671	-0.039609	0.333278
H186	H	1.768004	0.293725	0.666611
H187	H	1.024689	-0.038355	0.378405
H188	H	1.358022	0.294978	0.711739
H189	H	1.691356	0.628312	1.045072
F190	F	0.756999	-0.518712	-0.000047
F191	F	1.090332	-0.185378	0.333287
F192	F	1.423666	0.147955	0.666620
H193	H	1.034330	-0.485428	-0.000044
H194	H	1.367664	-0.152094	0.333289
H195	H	1.700997	0.181239	0.666622
F196	F	1.048421	-0.061946	0.202315
F197	F	1.381755	0.271388	0.535648
F198	F	1.715088	0.604721	0.868982
H199	H	1.064101	-0.077492	0.621452
H200	H	1.397434	0.255841	0.954786
H201	H	1.730767	0.589175	1.288119
H202	H	0.821756	0.163307	0.213697
H203	H	1.155089	0.496640	0.547031
H204	H	1.488422	0.829974	0.880364
H205	H	0.208675	-0.106254	-0.000074
H206	H	0.542009	0.227080	0.333260
H207	H	0.875342	0.560413	0.666593
H208	H	1.055542	-0.068968	0.786200
H209	H	1.388875	0.264365	1.119534
H210	H	1.722208	0.597699	1.452867
H211	H	1.051119	-0.735838	-0.000066
H212	H	1.384452	-0.402504	0.333267
H213	H	1.717786	-0.069171	0.666600
F214	F	0.828883	0.156292	0.797582
F215	F	1.162217	0.489625	1.130916
F216	F	1.495550	0.822959	1.464249
F217	F	0.798033	0.186898	0.389795
F218	F	1.131366	0.520232	0.723128
F219	F	1.464699	0.853565	1.056462
H220	H	0.306914	0.153055	-0.000082
H221	H	0.640247	0.486388	0.333251
H222	H	0.973581	0.819721	0.666585
H223	H	0.517220	0.207889	-0.000059
H224	H	0.850553	0.541222	0.333274
H225	H	1.183886	0.874556	0.666608
F226	F	1.061060	-0.577873	-0.000071
F227	F	1.394393	-0.244540	0.333262
F228	F	1.727726	0.088794	0.666595
H229	H	0.668628	0.200592	-0.000044
H230	H	1.001962	0.533925	0.333289
H231	H	1.335295	0.867258	0.666622
F232	F	1.111279	-0.214969	-0.000061
F233	F	1.444613	0.118364	0.333273
F234	F	1.777946	0.451697	0.666606
F235	F	0.807216	-0.155814	-0.000051
F236	F	1.140549	0.177519	0.333282
F237	F	1.473882	0.510853	0.666616
F238	F	0.816231	-0.327778	-0.000049
F239	F	1.149564	0.005556	0.333285
F240	F	1.482898	0.338889	0.666618
F241	F	0.766015	-0.690685	-0.000045
F242	F	1.099348	-0.357352	0.333288
F243	F	1.432681	-0.024018	0.666621
F244	F	0.563620	-0.076587	-0.000072
F245	F	0.896953	0.256746	0.333262
F246	F	1.230286	0.590079	0.666595
