data_functionalizedCrystal
_audit_creation_method	'MofGen! by Chris Wilmer'
_symmetry_space_group_name_H-M	'P1'
_symmetry_Int_Tables_number	1
_symmetry_cell_setting	triclinic
loop_
_symmetry_equiv_pos_as_xyz
  x,y,z
_cell_length_a	12.827893
_cell_length_b	13.897448
_cell_length_c	12.827885
_cell_angle_alpha	89.967724
_cell_angle_beta	89.980538
_cell_angle_gamma	90.017663
loop_
_atom_site_label
_atom_site_type_symbol
_atom_site_fract_x
_atom_site_fract_y
_atom_site_fract_z
Zn1	Zn	1.597655	-0.383969	-0.590831
Zn2	Zn	1.597541	-0.545295	-0.416083
Zn3	Zn	1.422896	-0.384016	-0.416104
Zn4	Zn	1.422875	-0.545224	-0.590783
O5	O	1.510242	-0.464626	-0.503450
O6	O	1.743876	-0.405380	-0.567661
O7	O	1.574336	-0.523951	-0.269850
O8	O	1.446134	-0.249028	-0.439311
O9	O	1.743792	-0.523905	-0.439275
O10	O	1.574529	-0.248994	-0.567681
O11	O	1.446024	-0.405460	-0.269865
O12	O	1.276657	-0.405390	-0.439265
O13	O	1.446098	-0.523783	-0.737026
O14	O	1.276641	-0.523829	-0.567601
O15	O	1.574509	-0.405310	-0.737060
O16	O	1.574315	-0.680267	-0.439229
O17	O	1.445988	-0.680215	-0.567580
C18	C	1.238732	-0.464607	-0.503430
C19	C	1.122579	-0.464623	-0.503447
C20	C	1.070814	-0.523321	-0.566853
C21	C	0.950763	-0.523338	-0.566872
C22	C	1.510165	-0.715240	-0.503420
C23	C	1.510228	-0.822454	-0.503442
C24	C	1.510338	-1.018749	-0.503508
C25	C	1.510274	-0.909517	-0.503474
C26	C	1.782812	-0.464645	-0.503471
C27	C	1.898965	-0.464654	-0.503480
C28	C	1.510314	-0.464533	-0.776021
C29	C	1.510344	-0.464494	-0.892174
C30	C	1.510347	-0.213033	-0.503504
C31	C	1.510391	-0.105819	-0.503526
C32	C	1.446872	-0.405849	-0.943966
C33	C	1.446902	-0.405807	-1.064017
C34	C	1.510230	-0.464649	-0.231940
C35	C	1.510402	-0.464416	-0.115788
H36	H	1.078020	-0.414377	-0.449180
H37	H	0.906247	-0.573595	-0.621154
O38	O	0.952173	-0.404830	-0.438660
C39	C	1.015244	-0.459720	-0.371090
H40	H	1.031493	-0.532871	-0.407821
H41	H	1.092041	-0.420470	-0.357217
H42	H	0.973203	-0.470203	-0.293597
H43	H	1.392505	-0.355676	-0.899431
O44	O	1.382181	-0.345769	-1.117099
C45	C	1.405007	-0.249621	-1.090507
H46	H	1.488457	-0.244739	-1.060441
H47	H	1.396108	-0.202002	-1.162344
H48	H	1.348914	-0.224373	-1.027235
O49	O	1.575183	-0.524455	-1.062781
C50	C	1.552315	-0.620605	-1.089334
H51	H	1.512234	-0.622639	-1.168605
H52	H	1.627719	-0.663867	-1.092954
H53	H	1.498502	-0.653057	-1.027916
O54	O	1.124078	-0.583128	-0.631653
C55	C	1.187236	-0.528221	-0.699204
H56	H	1.203472	-0.455064	-0.662469
H57	H	1.264033	-0.567449	-0.713052
H58	H	1.145275	-0.517751	-0.776711
O59	O	1.575319	-0.524218	-0.945339
C60	C	1.642776	-0.469228	-1.008510
H61	H	1.649278	-0.393296	-0.975569
H62	H	1.723185	-0.504115	-1.009853
H63	H	1.610415	-0.465809	-1.091189
