data_functionalizedCrystal
_audit_creation_method	'MofGen! by Chris Wilmer'
_symmetry_space_group_name_H-M	'P1'
_symmetry_Int_Tables_number	1
_symmetry_cell_setting	triclinic
loop_
_symmetry_equiv_pos_as_xyz
  x,y,z
_cell_length_a	10.654541
_cell_length_b	14.044220
_cell_length_c	9.730217
_cell_angle_alpha	89.995579
_cell_angle_beta	89.999932
_cell_angle_gamma	88.836403
loop_
_atom_site_label
_atom_site_type_symbol
_atom_site_fract_x
_atom_site_fract_y
_atom_site_fract_z
O1	O	1.681226	0.133219	-0.114252
O2	O	1.317022	0.145915	-0.114264
O3	O	1.493657	0.001546	-0.114245
O4	O	1.504591	0.277587	-0.114271
O5	O	1.493651	0.001545	0.114335
O6	O	1.317016	0.145914	0.114316
O7	O	1.681220	0.133218	0.114328
Zn8	Zn	1.499117	0.139565	0.150614
Zn9	Zn	1.499125	0.139567	-0.150550
O10	O	1.504585	0.277586	0.114309
C11	C	1.270128	0.144983	0.000024
C12	C	1.130404	0.142195	0.000020
C13	C	1.119781	0.314827	-0.000014
C14	C	1.048829	0.399829	-0.000036
C15	C	0.917547	0.397204	-0.000037
C16	C	0.857215	0.309567	-0.000012
C17	C	0.928167	0.224565	0.000011
C18	C	1.059452	0.227199	0.000008
C19	C	0.938790	0.051935	0.000054
C20	C	1.070072	0.054558	0.000046
C21	C	0.878458	-0.035701	0.000080
C22	C	0.949411	-0.120706	0.000092
C23	C	1.080701	-0.118077	0.000092
C24	C	1.141025	-0.030444	0.000068
C25	C	1.488869	-0.033800	0.000046
C26	C	1.474593	-0.139120	0.000047
C27	C	1.448494	-0.331952	0.000026
C28	C	1.549742	-0.388921	0.000026
C29	C	1.535221	-0.496219	0.000014
C30	C	1.463014	-0.224644	0.000038
C31	C	1.728114	0.134150	0.000037
C32	C	1.867838	0.136938	0.000032
C33	C	1.509374	0.312933	0.000015
C34	C	1.523649	0.418252	0.000005
N35	N	1.499121	0.139564	0.356151
N36	N	1.499131	0.139561	-0.356087
C37	C	1.655605	0.011763	0.356159
C38	C	1.733855	-0.052135	0.428102
C39	C	1.733868	-0.052135	0.571982
C40	C	1.655619	0.011767	0.643921
C41	C	1.577368	0.075664	0.571978
C42	C	1.577367	0.075660	0.428095
C43	C	1.420880	0.203459	0.571970
C44	C	1.420872	0.203466	0.428090
C45	C	1.342631	0.267361	0.643909
C46	C	1.264385	0.331265	0.571965
C47	C	1.264376	0.331263	0.428076
C48	C	1.342621	0.267363	0.356146
H49	H	1.247921	-0.028295	0.000051
C50	C	1.620281	-0.077798	0.850032
C51	C	1.655627	0.011759	0.802076
H52	H	1.620293	-0.077803	0.947671
H53	H	1.538511	-0.091336	0.817491
H54	H	1.678083	-0.124992	0.817473
H55	H	1.597819	0.058951	0.834627
H56	H	1.737409	0.025307	0.834631
C57	C	0.752881	-0.201380	0.000122
C58	C	0.883093	-0.217027	0.000118
H59	H	0.711939	-0.260847	0.000127
H60	H	0.729201	-0.166348	0.079824
H61	H	0.729194	-0.166345	-0.079599
H62	H	0.906782	-0.252056	0.079844
H63	H	0.906783	-0.252074	-0.079593
C64	C	1.130170	-0.264421	-0.117380
C65	C	1.158691	-0.211515	0.000111
H66	H	1.178322	-0.322103	-0.117370
H67	H	1.043359	-0.278523	-0.117361
H68	H	1.149508	-0.228520	-0.197091
H69	H	1.139344	-0.247413	0.079823
H70	H	1.245521	-0.197415	0.000104
C71	C	1.222099	0.247378	0.850030
C72	C	1.342641	0.267359	0.802064
H73	H	1.222111	0.247373	0.947669
H74	H	1.164311	0.294576	0.817484
H75	H	1.198136	0.186624	0.817483
H76	H	1.366601	0.328116	0.834603
H77	H	1.400448	0.220158	0.834624
H78	H	1.097966	0.471181	-0.000053
C79	C	1.696012	-0.289694	-0.117441
C80	C	1.681485	-0.345983	0.000050
H81	H	1.777339	-0.263180	-0.117415
H82	H	1.686170	-0.327864	-0.197144
H83	H	1.634389	-0.239852	-0.117430
H84	H	1.743103	-0.395829	0.000033
H85	H	1.691341	-0.307811	0.079773
C86	C	0.920218	0.568114	-0.000092
C87	C	0.839548	0.490638	-0.000069
H88	H	0.872062	0.625794	-0.000122
H89	H	0.971636	0.565560	0.079618
H90	H	0.971652	0.565537	-0.079805
H91	H	0.788121	0.493210	0.079649
H92	H	0.788109	0.493193	-0.079787
C93	C	1.208934	0.494960	0.383766
C94	C	1.178363	0.401504	0.348998
H95	H	1.155836	0.538323	0.334943
H96	H	1.197737	0.504094	0.479740
H97	H	1.293962	0.505846	0.360172
H98	H	1.093338	0.390616	0.372602
H99	H	1.189550	0.392366	0.253003
H100	H	1.350915	-0.363762	0.000020
H101	H	1.655613	0.011765	0.239004
C102	C	1.803448	-0.108805	0.207543
C103	C	1.819940	-0.122320	0.349025
H104	H	1.856619	-0.152117	0.158731
H105	H	1.718453	-0.119758	0.183937
H106	H	1.824108	-0.045375	0.184009
H107	H	1.799271	-0.185749	0.372560
H108	H	1.904954	-0.111375	0.372641
C109	C	0.666257	0.352793	-0.117514
C110	C	0.712908	0.306680	-0.000003
H111	H	0.577168	0.351004	-0.117509
H112	H	0.692030	0.417140	-0.117517
H113	H	0.697921	0.321497	-0.197212
H114	H	0.681252	0.337981	0.079695
H115	H	0.687123	0.242322	0.000012
H116	H	1.200674	0.383285	0.630547
C117	C	1.789298	-0.215831	0.616316
C118	C	1.819873	-0.122375	0.651074
H119	H	1.842398	-0.259193	0.665141
H120	H	1.704281	-0.226714	0.639903
H121	H	1.800502	-0.224971	0.520331
H122	H	1.808660	-0.113233	0.747059
H123	H	1.904911	-0.111488	0.627497
C124	C	1.302060	0.412581	-0.000056
C125	C	1.264088	0.317714	-0.000026
H126	H	1.391149	0.414362	-0.000057
H127	H	1.270398	0.443848	-0.079770
H128	H	1.270398	0.443865	0.079653
H129	H	1.295742	0.286432	-0.079740
H130	H	1.295763	0.286434	0.079696
C131	C	1.427811	0.197776	0.150049
C132	C	1.342611	0.267358	0.197991
H133	H	1.427797	0.197767	0.052410
H134	H	1.509575	0.211337	0.182584
H135	H	1.403827	0.137030	0.182623
H136	H	1.366601	0.328105	0.165425
H137	H	1.260829	0.253803	0.165442
H138	H	0.771562	-0.037833	0.000087
