data_functionalizedCrystal
_audit_creation_method	'MofGen! by Chris Wilmer'
_symmetry_space_group_name_H-M	'P1'
_symmetry_Int_Tables_number	1
_symmetry_cell_setting	triclinic
loop_
_symmetry_equiv_pos_as_xyz
  x,y,z
_cell_length_a	12.811457
_cell_length_b	15.995362
_cell_length_c	15.072220
_cell_angle_alpha	89.995258
_cell_angle_beta	95.418272
_cell_angle_gamma	96.228782
loop_
_atom_site_label
_atom_site_type_symbol
_atom_site_fract_x
_atom_site_fract_y
_atom_site_fract_z
O1	O	1.392657	-0.112772	0.038288
O2	O	1.087082	-0.125034	0.013699
O3	O	1.248216	0.002955	0.026659
O4	O	1.231523	-0.240761	0.025328
O5	O	1.248172	0.002946	0.174221
O6	O	1.087038	-0.125043	0.161261
O7	O	1.392613	-0.112780	0.185849
Zn8	Zn	1.239819	-0.118913	0.196984
Zn9	Zn	1.239876	-0.118902	0.002565
O10	O	1.231479	-0.240769	0.172890
C11	C	1.047957	-0.124351	0.084334
C12	C	0.931442	-0.122294	0.074958
C13	C	0.712452	-0.118420	0.218229
C14	C	0.602976	-0.116487	0.209424
C15	C	0.603013	-0.116486	0.048543
C16	C	0.712489	-0.118420	0.057348
C17	C	0.767205	-0.119388	0.142194
C18	C	0.876682	-0.121328	0.150998
C19	C	0.876718	-0.121322	-0.009882
C20	C	0.767242	-0.119388	-0.018687
C21	C	1.247502	0.034148	0.100380
C22	C	1.245426	0.127105	0.100203
C23	C	1.237971	0.464876	0.099586
C24	C	1.123212	0.417842	0.090024
C25	C	1.125288	0.321145	0.090529
C26	C	1.241669	0.297304	0.099892
C27	C	1.298246	0.338179	0.188707
C28	C	1.295358	0.434824	0.188540
C29	C	1.297778	0.435184	0.020925
C30	C	1.297757	0.338239	0.019816
C31	C	1.243765	0.202600	0.100068
C32	C	1.235879	0.559581	0.099417
C33	C	1.431738	-0.113463	0.115213
C34	C	1.548253	-0.115521	0.124584
N35	N	1.239787	-0.118920	0.329670
C36	C	1.232180	0.728037	0.099151
C37	C	1.234214	0.635075	0.099275
C38	C	1.239857	-0.118905	0.688877
C39	C	1.153348	-0.187158	0.644313
C40	C	1.153549	-0.187408	0.541503
C41	C	1.239821	-0.118913	0.510670
C42	C	1.349335	-0.138376	0.556775
C43	C	1.348847	-0.138863	0.659594
C44	C	1.217829	-0.030989	0.649200
C45	C	1.215319	-0.031565	0.546135
C46	C	1.239808	-0.118915	0.409956
C47	C	1.239877	-0.118905	0.789592
N48	N	1.239891	-0.118898	0.869877
H49	H	0.921228	-0.122121	0.220084
H50	H	1.382390	0.466650	0.027163
H51	H	0.921308	-0.122115	-0.071795
C52	C	0.542724	-0.115557	0.293057
H53	H	0.469682	-0.114301	0.275664
H54	H	0.552713	-0.164682	0.326829
H55	H	0.568592	-0.067138	0.328271
H56	H	0.757000	-0.119220	0.287313
C57	C	0.707052	-0.118339	-0.112011
H58	H	0.755343	-0.119193	-0.156034
H59	H	0.656349	-0.166356	-0.119417
H60	H	0.672345	-0.068813	-0.118163
C61	C	0.542816	-0.115417	-0.044776
H62	H	0.469774	-0.114129	-0.039126
H63	H	0.568767	-0.066967	-0.075747
H64	H	0.552754	-0.164509	-0.077024
H65	H	1.080813	0.292882	0.026547
C66	C	1.412421	0.317116	0.022174
H67	H	1.444342	0.342646	-0.026928
H68	H	1.450663	0.337802	0.076211
H69	H	1.413002	0.257870	0.018685
H70	H	1.274235	0.021635	0.525165
H71	H	1.415231	-0.091131	0.689808
H72	H	1.077360	0.436537	0.025905
C73	C	1.413746	0.318691	0.202243
H74	H	1.428523	0.285370	0.153734
H75	H	1.459254	0.369819	0.205120
H76	H	1.424711	0.288843	0.256222
C77	C	1.247121	0.463107	-0.069436
H78	H	1.284391	0.444560	-0.115998
H79	H	1.175628	0.439294	-0.077776
H80	H	1.250104	0.522703	-0.070283
H81	H	1.077528	0.437592	0.146438
C82	C	1.064770	0.283704	0.167408
H83	H	1.038827	0.327602	0.198457
H84	H	1.007340	0.244934	0.144005
H85	H	1.110822	0.255489	0.207207
H86	H	1.256391	0.311138	-0.045848
C87	C	1.438386	-0.073037	0.530883
H88	H	1.503894	-0.085990	0.559491
H89	H	1.440895	-0.074228	0.468113
H90	H	1.425313	-0.018579	0.549090
H91	H	1.254062	0.453266	0.248208
H92	H	1.379611	0.466778	0.199138
C93	C	1.245107	0.300034	0.269151
H94	H	1.188450	0.259208	0.248792
H95	H	1.295222	0.274119	0.307281
H96	H	1.218839	0.343248	0.300999
C97	C	1.375055	-0.225495	0.694109
H98	H	1.385893	-0.260062	0.645284
H99	H	1.437262	-0.218657	0.734198
H100	H	1.318157	-0.251222	0.724123
H101	H	1.280916	0.019807	0.678593
C102	C	1.376186	-0.224024	0.524138
H103	H	1.320807	-0.248031	0.482438
H104	H	1.440065	-0.216355	0.496402
H105	H	1.384229	-0.260534	0.573446
H106	H	1.072146	-0.175755	0.509741
C107	C	1.043022	-0.171681	0.668893
H108	H	1.048725	-0.123460	0.706558
H109	H	0.999040	-0.162777	0.616157
H110	H	1.013241	-0.219259	0.699150
H111	H	1.167221	-0.252023	0.671271
C112	C	1.172559	-0.275528	0.509779
H113	H	1.180199	-0.311310	0.559749
H114	H	1.114274	-0.298073	0.470112
H115	H	1.234953	-0.271565	0.479918
C116	C	1.112267	-0.005851	0.675776
H117	H	1.080637	-0.048745	0.711322
H118	H	1.124524	0.045424	0.708794
H119	H	1.066500	0.001252	0.623600
H120	H	1.134760	-0.016803	0.515280
