data_functionalizedCrystal
_audit_creation_method	'MofGen! by Chris Wilmer'
_symmetry_space_group_name_H-M	'P1'
_symmetry_Int_Tables_number	1
_symmetry_cell_setting	triclinic
loop_
_symmetry_equiv_pos_as_xyz
  x,y,z
_cell_length_a	19.121102
_cell_length_b	25.639240
_cell_length_c	19.120904
_cell_angle_alpha	92.403182
_cell_angle_beta	90.088173
_cell_angle_gamma	87.586654
loop_
_atom_site_label
_atom_site_type_symbol
_atom_site_fract_x
_atom_site_fract_y
_atom_site_fract_z
Zn1	Zn	1.054802	-0.255751	-0.442001
Zn2	Zn	1.059707	-0.339618	-0.324744
Zn3	Zn	0.942572	-0.248315	-0.319786
Zn4	Zn	0.937519	-0.339266	-0.436946
O5	O	0.998650	-0.295737	-0.380869
O6	O	1.153558	-0.270136	-0.430636
O7	O	1.048337	-0.324541	-0.225982
O8	O	0.957522	-0.176139	-0.336039
O9	O	1.157162	-0.331752	-0.344488
O10	O	1.039977	-0.181603	-0.425829
O11	O	0.962278	-0.257461	-0.222340
O12	O	0.843797	-0.257120	-0.331138
O13	O	0.948909	-0.331153	-0.535721
O14	O	0.840084	-0.323942	-0.417215
O15	O	1.035076	-0.269795	-0.539434
O16	O	1.043437	-0.412733	-0.339587
O17	O	0.953665	-0.412475	-0.422022
C18	C	0.816503	-0.289687	-0.373090
C19	C	0.738579	-0.287111	-0.369779
C20	C	0.700059	-0.320740	-0.412969
C21	C	0.626841	-0.318313	-0.409861
C22	C	0.592145	-0.282260	-0.363559
C23	C	0.630670	-0.248627	-0.320368
C24	C	0.703887	-0.251052	-0.323480
C25	C	0.371174	-0.273193	-0.351928
C26	C	0.297952	-0.270772	-0.348818
C27	C	0.294127	-0.340458	-0.438312
C28	C	0.367346	-0.342881	-0.441417
C29	C	0.405865	-0.309247	-0.398228
C30	C	0.517304	-0.279779	-0.360380
C31	C	0.480704	-0.311725	-0.401411
C32	C	0.998553	-0.431575	-0.380810
C33	C	0.998575	-0.489690	-0.380811
C34	C	1.041603	-0.852867	-0.427705
C35	C	1.041623	-0.907472	-0.427720
O36	O	1.078092	-0.938096	-0.467529
N37	N	0.998745	-0.931982	-0.380941
C38	C	0.955838	-0.901883	-0.334149
O39	O	0.919367	-0.927744	-0.294362
C40	C	0.955815	-0.847279	-0.334138
C41	C	0.998701	-0.822772	-0.380915
C42	C	1.084486	-0.828360	-0.474479
C43	C	1.084467	-0.773758	-0.474463
C44	C	1.041565	-0.743663	-0.427673
C45	C	0.998682	-0.768170	-0.380899
C46	C	0.912905	-0.817181	-0.287349
C47	C	0.912885	-0.762573	-0.287343
C48	C	0.955771	-0.738066	-0.334120
C49	C	0.955761	-0.683474	-0.334092
N50	N	0.998639	-0.658964	-0.380871
C51	C	1.041541	-0.689059	-0.427661
C52	C	0.955889	-1.016556	-0.334177
C53	C	0.955915	-1.071160	-0.334184
C54	C	1.041700	-1.076745	-0.427756
C55	C	1.041677	-1.022140	-0.427745
C56	C	0.998768	-0.992046	-0.380956
C57	C	1.041498	-0.574391	-0.427623
C58	C	1.041477	-0.519785	-0.427601
C59	C	0.955690	-0.514204	-0.334032
C60	C	0.955713	-0.568806	-0.334051
C61	C	0.998620	-0.598899	-0.380853
O62	O	0.919309	-0.652817	-0.294305
O63	O	1.077999	-0.663190	-0.467448
C64	C	1.181508	-0.301812	-0.388679
C65	C	1.259432	-0.304401	-0.392007
C66	C	0.990882	-0.301264	-0.563726
C67	C	0.987571	-0.303619	-0.641649
C68	C	0.998766	-0.159371	-0.380945
C69	C	0.998815	-0.101259	-0.380977
C70	C	1.030877	-0.272781	-0.680192
C71	C	1.027758	-0.274992	-0.753408
C72	C	0.981337	-0.308044	-0.788080
C73	C	0.938027	-0.338883	-0.749532
C74	C	0.941143	-0.336669	-0.676317
C75	C	0.969681	-0.316323	-1.009046
C76	C	0.966570	-0.318536	-1.082266
C77	C	1.056300	-0.254644	-1.086137
C78	C	1.059415	-0.252436	-1.012920
C79	C	1.016102	-0.283273	-0.974378
C80	C	0.978149	-0.310305	-0.862919
C81	C	1.019287	-0.281008	-0.899541
C82	C	1.006429	-0.290196	-0.198725
C83	C	1.009875	-0.287698	-0.120809
H84	H	0.508956	-0.341078	-0.439113
H85	H	0.489047	-0.250426	-0.322679
H86	H	1.076598	-1.002191	-0.465835
C87	C	0.746261	-0.214060	-0.275969
C88	C	0.798912	-0.236649	-0.223009
C89	C	0.841285	-0.199653	-0.175499
C90	C	0.831006	-0.140068	-0.180950
C91	C	0.778352	-0.117476	-0.233913
C92	C	0.735980	-0.154472	-0.281422
H93	H	0.806524	-0.280760	-0.218972
H94	H	0.880263	-0.216377	-0.136293
H95	H	0.862373	-0.112682	-0.145781
H96	H	0.770741	-0.073365	-0.237950
H97	H	0.697002	-0.137747	-0.320629
H98	H	0.262757	-0.367840	-0.473474
C99	C	0.592504	-0.208968	-0.269437
C100	C	0.540905	-0.167214	-0.297786
C101	C	0.502739	-0.127554	-0.246854
C102	C	0.516172	-0.129649	-0.167572
C103	C	0.567773	-0.171405	-0.139219
C104	C	0.605939	-0.211064	-0.190152
H105	H	0.530959	-0.165661	-0.356479
H106	H	0.464541	-0.096644	-0.267843
H107	H	0.487919	-0.100291	-0.129869
H108	H	0.577719	-0.172957	-0.080526
H109	H	0.644138	-0.241974	-0.169162
C110	C	1.070350	-0.244653	-0.861403
C111	C	1.064259	-0.185331	-0.871252
C112	C	1.115325	-0.148977	-0.833107
C113	C	1.172481	-0.171945	-0.785113
C114	C	1.178575	-0.231270	-0.775262
C115	C	1.127509	-0.267624	-0.813407
H116	H	1.021946	-0.168326	-0.906782
H117	H	1.110814	-0.105061	-0.840400
H118	H	1.210283	-0.145034	-0.756876
H119	H	1.220888	-0.248275	-0.739733
H120	H	1.132020	-0.311540	-0.806115
H121	H	0.920762	-0.489692	-0.295934
H122	H	0.934423	-0.341441	-0.977674
C123	C	1.081942	-0.236423	-0.642056
C124	C	1.139108	-0.259384	-0.594066
C125	C	1.190173	-0.223023	-0.555933
C126	C	1.184072	-0.163703	-0.565789
C127	C	1.126904	-0.140740	-0.613781
C128	C	1.075839	-0.177100	-0.651914
H129	H	1.143627	-0.303299	-0.586768
H130	H	1.232493	-0.240023	-0.520406
H131	H	1.221874	-0.136787	-0.537561
H132	H	1.122385	-0.096824	-0.621079
H133	H	1.033519	-0.160101	-0.687441
H134	H	0.921001	-1.091108	-0.296086
H135	H	0.900227	-0.365792	-0.777768
H136	H	0.595480	-0.345698	-0.445030
H137	H	0.905872	-0.361775	-0.644936
C138	C	0.259784	-0.231100	-0.297898
C139	C	0.302151	-0.194096	-0.250402
C140	C	0.263982	-0.154423	-0.199490
C141	C	0.183447	-0.151755	-0.196074
C142	C	0.141075	-0.188760	-0.243572
C143	C	0.179244	-0.228433	-0.294484
H144	H	0.361772	-0.196070	-0.252929
H145	H	0.295349	-0.127029	-0.164329
H146	H	0.155192	-0.122386	-0.158386
H147	H	0.081454	-0.186786	-0.241045
H148	H	0.147877	-0.255827	-0.329645
C149	C	0.927099	-0.346667	-0.901071
C150	C	0.955321	-0.390235	-0.952684
C151	C	0.904273	-0.426595	-0.990843
C152	C	0.825004	-0.419388	-0.977388
C153	C	0.796777	-0.375818	-0.925773
C154	C	0.847825	-0.339457	-0.887614
H155	H	1.014005	-0.395572	-0.962646
H156	H	0.925169	-0.458849	-1.029052
H157	H	0.787215	-0.446304	-1.005636
H158	H	0.738093	-0.370481	-0.915811
H159	H	0.826929	-0.307204	-0.849405
H160	H	1.063023	-0.249882	-0.784786
H161	H	0.728303	-0.350100	-0.450670
H162	H	1.076403	-0.499833	-0.465693
C163	C	1.088698	-0.607488	-0.479101
C164	C	1.168637	-0.602398	-0.476838
C165	C	1.215840	-0.635494	-0.528311
C166	C	1.183105	-0.673682	-0.582047
C167	C	1.103162	-0.678774	-0.584312
C168	C	1.055959	-0.645677	-0.532839
H169	H	1.192873	-0.574128	-0.437058
H170	H	1.275019	-0.631725	-0.526635
H171	H	1.218048	-0.698182	-0.620150
H172	H	1.078926	-0.707044	-0.624092
H173	H	0.996780	-0.649447	-0.534515
H174	H	0.402528	-0.245810	-0.316755
C175	C	0.908542	-0.595764	-0.282591
C176	C	0.852196	-0.632411	-0.310582
C177	C	0.805019	-0.659363	-0.259125
C178	C	0.814187	-0.649669	-0.179678
C179	C	0.870536	-0.613020	-0.151683
C180	C	0.917714	-0.586068	-0.203140
H181	H	0.845407	-0.639589	-0.369397
H182	H	0.763305	-0.686493	-0.279849
H183	H	0.779263	-0.669620	-0.141587
H184	H	0.877325	-0.605843	-0.092868
H185	H	0.959427	-0.558938	-0.182415
C186	C	0.908694	-0.983455	-0.282696
C187	C	0.917876	-0.988781	-0.203254
C188	C	0.870681	-0.955684	-0.151773
C189	C	0.814304	-0.917261	-0.179735
C190	C	0.805119	-0.911933	-0.259181
C191	C	0.852314	-0.945030	-0.310661
H192	H	0.959612	-1.017226	-0.182551
H193	H	0.877480	-0.959628	-0.092962
H194	H	0.779367	-0.892760	-0.141626
H195	H	0.763383	-0.883488	-0.279884
H196	H	0.845515	-0.941086	-0.369472
C197	C	1.131687	-0.861457	-0.525951
C198	C	1.211624	-0.856359	-0.523686
C199	C	1.258834	-0.889452	-0.575158
C200	C	1.226107	-0.927643	-0.628894
C201	C	1.146165	-0.932743	-0.631160
C202	C	1.098955	-0.899650	-0.579689
H203	H	1.235855	-0.828086	-0.483906
H204	H	1.318012	-0.885677	-0.573480
H205	H	1.261054	-0.952140	-0.666996
H206	H	1.121935	-0.961016	-0.670941
H207	H	1.039777	-0.903426	-0.581367
C208	C	1.110478	-0.216075	-0.974787
C209	C	1.104379	-0.156755	-0.984644
C210	C	1.155446	-0.120395	-0.946513
C211	C	1.212612	-0.143355	-0.898524
C212	C	1.218714	-0.202679	-0.888664
C213	C	1.167647	-0.239038	-0.926796
H214	H	1.062059	-0.139755	-1.020171
H215	H	1.150928	-0.076479	-0.953812
H216	H	1.250415	-0.116439	-0.870297
H217	H	1.261034	-0.219678	-0.853138
H218	H	1.172165	-0.282954	-0.919497
H219	H	1.076632	-1.101258	-0.465857
C220	C	0.405505	-0.382539	-0.492355
C221	C	0.395642	-0.441458	-0.486052
C222	C	0.433800	-0.481118	-0.536990
C223	C	0.481820	-0.461859	-0.594230
C224	C	0.491685	-0.402938	-0.600535
C225	C	0.453527	-0.363278	-0.549597
H226	H	0.360093	-0.455717	-0.443678
H227	H	0.426497	-0.524735	-0.532323
H228	H	0.510067	-0.491218	-0.631937
H229	H	0.527235	-0.388679	-0.642909
H230	H	0.460830	-0.319661	-0.554264
H231	H	1.119386	-0.753808	-0.512554
H232	H	0.877982	-0.837124	-0.249258
H233	H	0.877940	-0.738073	-0.249242
H234	H	0.928766	-0.345452	-1.110494
H235	H	1.091562	-0.229538	-1.117525
