data_functionalizedCrystal
_audit_creation_method	'MofGen! by Chris Wilmer'
_symmetry_space_group_name_H-M	'P1'
_symmetry_Int_Tables_number	1
_symmetry_cell_setting	triclinic
loop_
_symmetry_equiv_pos_as_xyz
  x,y,z
_cell_length_a	15.944493
_cell_length_b	15.944551
_cell_length_c	14.421503
_cell_angle_alpha	90.001526
_cell_angle_beta	90.003676
_cell_angle_gamma	96.513109
loop_
_atom_site_label
_atom_site_type_symbol
_atom_site_fract_x
_atom_site_fract_y
_atom_site_fract_z
O1	O	1.114559	-0.108091	0.077032
O2	O	0.870003	-0.121498	0.077052
O3	O	0.998959	0.007482	0.077033
O4	O	0.985603	-0.237071	0.077051
O5	O	0.998939	0.007467	-0.077191
O6	O	0.869982	-0.121513	-0.077172
O7	O	1.114539	-0.108105	-0.077192
Cu8	Cu	0.992259	-0.114810	-0.091264
Cu9	Cu	0.992283	-0.114793	0.091123
O10	O	0.985582	-0.237085	-0.077173
C11	C	0.838698	-0.120957	-0.000058
C12	C	0.745449	-0.119314	-0.000050
N13	N	0.992248	-0.114822	-0.219545
C14	C	0.998395	0.038768	-0.000079
C15	C	0.996732	0.132014	-0.000079
C16	C	1.145844	-0.108646	-0.000081
C17	C	1.239092	-0.110289	-0.000082
C18	C	1.474852	-0.034368	-0.000073
C19	C	1.525410	-0.075317	-0.076111
C20	C	1.409813	-0.113333	-0.000073
C21	C	1.525406	-0.075321	0.075941
C22	C	1.574723	-0.116268	-0.000060
C23	C	1.459143	-0.154260	-0.076173
C24	C	1.459136	-0.154252	0.075947
C25	C	1.509661	-0.195259	-0.000109
C26	C	1.314813	-0.111640	-0.000081
C27	C	1.669720	-0.117967	-0.000059
C28	C	0.986147	-0.268372	-0.000059
C29	C	0.987809	-0.361617	-0.000053
C30	C	0.912826	0.346853	-0.000060
C31	C	0.951779	0.407871	-0.076105
C32	C	0.993725	0.302739	-0.000072
C33	C	0.951818	0.407869	0.075948
C34	C	0.990814	0.467651	-0.000061
C35	C	1.032700	0.362529	-0.076180
C36	C	1.032728	0.362521	0.075941
C37	C	1.071741	0.423521	-0.000122
C38	C	0.995399	0.207737	-0.000079
C39	C	0.989146	0.562652	-0.000060
C40	C	0.933111	-0.174929	-0.530989
C41	C	0.916114	-0.099264	-0.469165
C42	C	0.992282	-0.114789	-0.591434
C43	C	1.009222	-0.190469	-0.469164
C44	C	0.992263	-0.114809	-0.408712
C45	C	0.975248	-0.039085	-0.530970
C46	C	1.068390	-0.130340	-0.530975
C47	C	1.051425	-0.054619	-0.469179
C48	C	0.992291	-0.114778	-0.696695
C49	C	0.992255	-0.114811	-0.303454
N50	N	0.992301	-0.114775	0.219405
H51	H	1.554346	-0.041976	-0.140401
H52	H	1.023570	-0.254464	-0.442033
H53	H	1.459224	0.033649	-0.000154
C54	C	1.563822	-0.030836	0.161738
C55	C	1.499886	-0.000918	0.214690
C56	C	1.535238	0.040061	0.293733
H57	H	1.603461	0.015232	0.143577
H58	H	1.591524	-0.069410	0.197609
H59	H	1.472198	0.037654	0.178826
H60	H	1.460243	-0.046969	0.232875
H61	H	1.562941	0.001487	0.329604
H62	H	1.574877	0.086125	0.275563
H63	H	1.491863	0.060359	0.329675
C64	C	0.823274	0.302460	-0.000339
C65	C	0.781294	0.325298	-0.080141
C66	C	0.698805	0.284410	-0.080441
H67	H	0.794151	0.318599	0.053071
H68	H	0.824920	0.243086	0.000163
H69	H	0.779644	0.384659	-0.080635
H70	H	0.810392	0.309157	-0.133565
H71	H	0.700452	0.225035	-0.079939
H72	H	0.669690	0.300552	-0.027027
H73	H	0.670314	0.299893	-0.134590
C74	C	1.530174	-0.286060	-0.000010
C75	C	1.495138	-0.327482	0.078918
C76	C	1.514011	-0.411129	0.079029
H77	H	1.589665	-0.286739	0.000549
H78	H	1.507233	-0.314029	-0.054034
H79	H	1.518082	-0.299520	0.132928
H80	H	1.435647	-0.326826	0.078375
H81	H	1.491071	-0.439098	0.025006
H82	H	1.573503	-0.411800	0.079587
H83	H	1.490236	-0.439246	0.132577
C84	C	1.420559	-0.198621	-0.161959
C85	C	1.333019	-0.196484	-0.160998
C86	C	1.297449	-0.237323	-0.240017
H87	H	1.432582	-0.255622	-0.162265
H88	H	1.443782	-0.170760	-0.215913
H89	H	1.309805	-0.224347	-0.107059
H90	H	1.320972	-0.139495	-0.160707
H91	H	1.320671	-0.209462	-0.293970
H92	H	1.309477	-0.294321	-0.240316
H93	H	1.238051	-0.235872	-0.239380
C94	C	1.078458	0.335821	0.161627
C95	C	1.161150	0.376197	0.162209
C96	C	1.203290	0.351627	0.241143
H97	H	1.079720	0.276408	0.160776
H98	H	1.049693	0.351195	0.215634
H99	H	1.189908	0.360818	0.108217
H100	H	1.159913	0.435610	0.163075
H101	H	1.174525	0.367000	0.295150
H102	H	1.204546	0.292213	0.240284
H103	H	1.259398	0.379024	0.241553
C104	C	1.420359	-0.198677	0.161589
C105	C	1.332739	-0.197195	0.159971
C106	C	1.296988	-0.238115	0.238850
H107	H	1.443062	-0.170585	0.215633
H108	H	1.432830	-0.255543	0.162139
H109	H	1.320275	-0.140340	0.159430
H110	H	1.310013	-0.225293	0.105944
H111	H	1.309459	-0.294981	0.239400
H112	H	1.319697	-0.210018	0.292888
H113	H	1.237534	-0.237122	0.237758
C114	C	0.906305	0.434744	-0.161897
C115	C	0.961650	0.490246	-0.214501
C116	C	0.919788	0.515006	-0.293540
H117	H	0.859101	0.462246	-0.143733
H118	H	0.887581	0.386383	-0.198005
H119	H	0.980362	0.538598	-0.178400
H120	H	1.008855	0.462761	-0.232689
H121	H	0.901064	0.466645	-0.329648
H122	H	0.872584	0.542505	-0.275367
H123	H	0.957335	0.552660	-0.329246
C124	C	1.078210	0.335711	-0.161967
C125	C	1.079182	0.248019	-0.161003
C126	C	1.121084	0.223280	-0.240021
H127	H	1.134520	0.362567	-0.162274
H128	H	1.049650	0.351547	-0.215921
H129	H	1.107744	0.232191	-0.107063
H130	H	1.022883	0.221141	-0.160710
H131	H	1.092524	0.239117	-0.293975
H132	H	1.177392	0.250142	-0.240320
H133	H	1.121743	0.163779	-0.239381
C134	C	1.161370	0.467719	-0.000374
C135	C	1.203313	0.444734	-0.080135
C136	C	1.285875	0.485442	-0.080409
H137	H	1.190430	0.451538	0.053066
H138	H	1.159861	0.527112	0.000088
H139	H	1.204826	0.385353	-0.080588
H140	H	1.174278	0.460916	-0.133587
H141	H	1.284366	0.544836	-0.079947
H142	H	1.314927	0.469258	-0.026966
H143	H	1.314341	0.469859	-0.134529
C144	C	1.154149	-0.147847	-0.567395
C145	C	1.153230	-0.146811	-0.664468
C146	C	1.232220	-0.162934	-0.698051
H147	H	1.166197	-0.201655	-0.546371
H148	H	1.196309	-0.105663	-0.545362
H149	H	1.111084	-0.188993	-0.686492
H150	H	1.141197	-0.093010	-0.685516
H151	H	1.274380	-0.120750	-0.676018
H152	H	1.244261	-0.216741	-0.677021
H153	H	1.231610	-0.162226	-0.763917
H154	H	0.883045	-0.225721	-0.558129
H155	H	0.917599	0.427945	0.140242
C156	C	0.830218	-0.081893	-0.433006
C157	C	0.768520	-0.145039	-0.464298
C158	C	0.689384	-0.129077	-0.431001
H159	H	0.817654	-0.028587	-0.455056
H160	H	0.830950	-0.081553	-0.367133
H161	H	0.767786	-0.145370	-0.530157
H162	H	0.781056	-0.198352	-0.442251
H163	H	0.690116	-0.128737	-0.365129
H164	H	0.676828	-0.075770	-0.453054
H165	H	0.647513	-0.171923	-0.452221
C166	C	0.955860	0.046188	-0.567062
C167	C	0.882447	0.035396	-0.621059
C168	C	0.864552	0.113929	-0.654314
H169	H	1.001667	0.070682	-0.603818
H170	H	0.947698	0.082285	-0.516229
H171	H	0.890614	-0.000687	-0.671886
H172	H	0.836625	0.010916	-0.584323
H173	H	0.856389	0.150026	-0.603481
H174	H	0.910364	0.138416	-0.691066
H175	H	0.814736	0.106618	-0.690947
C176	C	1.118035	0.013379	-0.433260
C177	C	1.099890	0.092412	-0.464729
C178	C	1.161222	0.155073	-0.431647
H179	H	1.172002	0.002910	-0.455340
H180	H	1.117969	0.012751	-0.367386
H181	H	1.099966	0.093038	-0.530589
H182	H	1.045934	0.102908	-0.442652
H183	H	1.161156	0.154446	-0.365773
H184	H	1.215185	0.144596	-0.453729
H185	H	1.148915	0.208705	-0.452986
