data_functionalizedCrystal
_audit_creation_method	'MofGen! by Chris Wilmer'
_symmetry_space_group_name_H-M	'P1'
_symmetry_Int_Tables_number	1
_symmetry_cell_setting	triclinic
loop_
_symmetry_equiv_pos_as_xyz
  x,y,z
_cell_length_a	17.000383
_cell_length_b	17.038272
_cell_length_c	14.750779
_cell_angle_alpha	76.426773
_cell_angle_beta	101.619729
_cell_angle_gamma	83.355929
loop_
_atom_site_label
_atom_site_type_symbol
_atom_site_fract_x
_atom_site_fract_y
_atom_site_fract_z
O1	O	1.041932	0.046134	-0.079892
O2	O	0.812115	0.074374	-0.079879
O3	O	0.925659	-0.053470	-0.079878
O4	O	0.928388	0.173977	-0.079893
O5	O	0.957757	-0.089606	0.079773
O6	O	0.844212	0.038238	0.079771
O7	O	1.074030	0.009998	0.079759
Zn8	Zn	0.964217	0.018380	0.105113
Zn9	Zn	0.921927	0.065991	-0.105234
O10	O	0.960485	0.137841	0.079758
C11	C	0.798613	0.057822	-0.000052
C12	C	0.710561	0.062331	-0.000048
C13	C	0.212309	0.091464	-0.000085
C14	C	0.295044	0.087220	-0.000084
C15	C	0.341053	0.013551	-0.000072
C16	C	0.304321	-0.055876	-0.000071
C17	C	0.221585	-0.051629	-0.000079
C18	C	0.591093	-0.002849	-0.000054
C19	C	0.673834	-0.007091	-0.000043
C20	C	0.664552	0.136006	-0.000059
C21	C	0.581816	0.140245	-0.000061
C22	C	0.545090	0.070819	-0.000065
C23	C	0.425623	0.009210	-0.000068
C24	C	0.460520	0.075162	-0.000075
C25	C	0.939223	-0.100496	-0.000052
C26	C	0.931810	-0.186781	-0.000052
C27	C	0.999868	-0.241555	-0.000055
C28	C	0.992897	-0.322627	-0.000064
C29	C	0.917868	-0.348924	-0.000063
C30	C	0.849804	-0.294142	-0.000063
C31	C	0.856775	-0.213071	-0.000061
C32	C	0.893240	-0.592992	-0.000075
C33	C	0.886274	-0.674071	-0.000074
C34	C	1.029367	-0.702550	-0.000076
C35	C	1.036333	-0.621477	-0.000068
C36	C	0.968268	-0.566702	-0.000074
C37	C	0.910741	-0.431792	-0.000069
C38	C	0.975395	-0.483833	-0.000075
C39	C	1.087531	0.026550	-0.000070
C40	C	1.175582	0.022042	-0.000081
C41	C	0.946921	0.184868	-0.000070
C42	C	0.954332	0.271155	-0.000076
N43	N	0.993085	-0.014114	0.248669
N44	N	0.893065	0.098479	-0.248790
C45	C	0.812439	0.189196	0.600485
C46	C	0.832674	0.166431	0.700984
C47	C	0.933242	0.053263	0.700949
C48	C	0.913013	0.076016	0.600447
C49	C	0.852612	0.143983	0.550223
C50	C	0.953186	0.030804	0.550185
C51	C	0.932961	0.053558	0.449693
C52	C	0.872564	0.121524	0.399462
C53	C	0.832387	0.166738	0.449731
C54	C	1.013591	-0.037160	0.600411
C55	C	1.053763	-0.082373	0.550149
C56	C	1.033535	-0.059622	0.449655
C57	C	0.973137	0.008344	0.399424
C58	C	1.073711	-0.104836	0.399386
C59	C	1.053487	-0.082081	0.298893
C60	C	0.952913	0.031098	0.298931
H61	H	0.711292	-0.067083	-0.000038
H62	H	0.174855	0.151452	-0.000088
Cl63	Cl	0.771212	-0.144210	-0.000062
Cl64	Cl	0.544928	-0.090122	-0.000081
Cl65	Cl	1.069712	-0.450772	-0.000081
Cl66	Cl	1.009175	-0.032178	0.764094
Cl67	Cl	0.782164	0.223281	0.764164
Cl68	Cl	0.816420	-0.464857	-0.000073
H69	H	1.048317	-0.367222	-0.000064
Cl70	Cl	0.341210	0.174499	-0.000095
H71	H	0.837816	-0.548403	-0.000079
H72	H	0.191683	-0.108160	-0.000077
H73	H	0.825177	-0.695481	-0.000058
Cl74	Cl	0.755479	-0.327198	-0.000074
H75	H	0.903722	0.086439	0.258037
Cl76	Cl	1.149651	-0.190270	0.462534
Cl77	Cl	1.130652	-0.588418	-0.000100
Cl78	Cl	0.402678	0.167772	-0.000097
Cl79	Cl	0.362160	-0.148488	-0.000058
Cl80	Cl	0.736495	0.274636	0.537343
H81	H	0.544360	0.200234	-0.000074
H82	H	0.856100	0.140052	0.317634
Cl83	Cl	0.483472	-0.083402	-0.000042
H84	H	0.783196	0.222079	0.408836
Cl85	Cl	1.114928	-0.771414	-0.000072
Cl86	Cl	1.039018	-0.065759	0.726747
Cl87	Cl	1.103994	-0.138920	0.235705
H88	H	0.694463	0.192529	-0.000057
H89	H	1.102945	-0.137711	0.591053
H90	H	1.060966	-0.220153	-0.000050
