data_functionalizedCrystal
_audit_creation_method	'MofGen! by Chris Wilmer'
_symmetry_space_group_name_H-M	'P1'
_symmetry_Int_Tables_number	1
_symmetry_cell_setting	triclinic
loop_
_symmetry_equiv_pos_as_xyz
  x,y,z
_cell_length_a	17.038272
_cell_length_b	23.532407
_cell_length_c	15.500227
_cell_angle_alpha	92.805592
_cell_angle_beta	86.956295
_cell_angle_gamma	86.980117
loop_
_atom_site_label
_atom_site_type_symbol
_atom_site_fract_x
_atom_site_fract_y
_atom_site_fract_z
O1	O	1.040103	0.121159	-0.071851
O2	O	0.812488	0.119196	-0.071876
O3	O	0.933158	0.037607	-0.071847
O4	O	0.919432	0.202748	-0.071880
O5	O	0.925836	0.042537	0.072040
O6	O	0.805165	0.124126	0.072011
O7	O	1.032780	0.126090	0.072036
Cu8	Cu	0.918304	0.125558	0.085162
Cu9	Cu	0.926964	0.119727	-0.085001
O10	O	0.912110	0.207678	0.072007
C11	C	0.779712	0.119875	0.000065
C12	C	0.692959	0.114548	0.000056
C13	C	0.642483	0.163453	0.000046
C14	C	0.560969	0.158445	0.000059
C15	C	0.529932	0.104532	0.000075
C16	C	0.580414	0.055624	0.000087
C17	C	0.661927	0.060632	0.000080
C18	C	0.284304	0.086837	0.000102
C19	C	0.202786	0.081832	0.000106
C20	C	0.183345	0.184654	0.000080
C21	C	0.264860	0.189658	0.000068
C22	C	0.315335	0.140750	0.000084
C23	C	0.446612	0.099412	0.000086
C24	C	0.398653	0.145871	0.000080
C25	C	0.929147	0.018838	0.000099
C26	C	0.928096	-0.044434	0.000105
C27	C	0.992917	-0.440131	0.000065
C28	C	0.991941	-0.499583	0.000058
O29	O	1.052030	-0.533169	0.000033
N30	N	0.920202	-0.525981	0.000051
C31	C	0.849435	-0.492924	0.000042
O32	O	0.788325	-0.520836	0.000034
C33	C	0.850412	-0.433473	0.000042
C34	C	0.922155	-0.407078	0.000058
C35	C	1.064654	-0.413736	0.000080
C36	C	1.065630	-0.354288	0.000089
C37	C	0.994868	-0.321235	0.000082
C38	C	0.923131	-0.347631	0.000067
C39	C	0.779646	-0.400418	0.000027
C40	C	0.780629	-0.340963	0.000026
C41	C	0.852372	-0.314569	0.000043
C42	C	0.853344	-0.255130	0.000068
N43	N	0.925083	-0.228732	0.000075
C44	C	0.995845	-0.261785	0.000082
C45	C	0.847388	-0.617774	0.000039
C46	C	0.846410	-0.677223	0.000045
C47	C	0.988916	-0.683878	0.000060
C48	C	0.989894	-0.624428	0.000061
C49	C	0.919127	-0.591376	0.000047
C50	C	0.997889	-0.136940	0.000100
C51	C	0.998858	-0.077487	0.000112
C52	C	0.856352	-0.070837	0.000093
C53	C	0.855382	-0.130285	0.000085
C54	C	0.926157	-0.163336	0.000086
O55	O	0.793287	-0.221508	0.000090
O56	O	1.056945	-0.233865	0.000078
C57	C	1.065556	0.125410	0.000094
C58	C	1.152310	0.130737	0.000097
C59	C	0.916121	0.226447	0.000059
C60	C	0.917172	0.289719	0.000047
N61	N	0.912219	0.129659	0.204845
N62	N	0.933055	0.115622	-0.204685
C63	C	0.963369	0.095101	0.250134
C64	C	0.958774	0.098208	0.340706
C65	C	0.903033	0.135876	0.385987
C66	C	0.851877	0.170435	0.340691
C67	C	0.856469	0.167324	0.250121
C68	C	0.886491	0.147071	0.659450
C69	C	0.881905	0.150180	0.750026
C70	C	0.988801	0.077952	0.750034
C71	C	0.993391	0.074848	0.659462
C72	C	0.942233	0.109404	0.614175
C73	C	0.898336	0.139054	0.478566
C74	C	0.946927	0.106223	0.521598
H75	H	0.555138	0.011727	0.000112
O76	O	0.333301	0.039306	-0.000041
C77	C	0.323061	0.004248	-0.074543
H78	H	0.297615	0.031169	-0.126635
H79	H	0.382344	-0.016641	-0.099554
H80	H	0.280946	-0.030133	-0.057686
H81	H	1.055521	-0.163843	0.000098
O82	O	0.710985	0.013148	0.000239
C83	C	0.754949	0.015530	0.074745
H84	H	0.722224	0.044980	0.126826
H85	H	0.763203	-0.029025	0.099770
H86	H	0.814969	0.032559	0.057890
O87	O	1.135351	-0.328685	-0.000058
C88	C	1.182250	-0.347802	-0.074565
H89	H	1.142934	-0.363970	-0.126653
H90	H	1.216496	-0.311076	-0.099577
H91	H	1.225244	-0.383818	-0.057716
H92	H	0.806487	0.201102	0.377565
O93	O	0.428842	0.198223	-0.000091
C94	C	0.479209	0.201628	-0.074606
H95	H	0.462800	0.169157	-0.126678
H96	H	0.472811	0.246294	-0.099638
H97	H	0.542741	0.192186	-0.057758
H98	H	0.814816	0.195464	0.213248
O99	O	1.133386	-0.445867	-0.000065
C100	C	1.140885	-0.483013	-0.074572
H101	H	1.103394	-0.464997	-0.126666
H102	H	1.205167	-0.487476	-0.099572
H103	H	1.120159	-0.526603	-0.057725
H104	H	1.057282	-0.055999	0.000128
H105	H	0.421332	0.055516	0.000123
O106	O	1.017540	0.058462	0.206286
C107	C	1.061712	0.028637	0.265686
H108	H	1.026401	0.028646	0.330252
H109	H	1.075317	-0.017143	0.239534
H110	H	1.119136	0.050289	0.275303
H111	H	0.798739	-0.043915	0.000090
H112	H	1.030451	0.049817	0.786915
O113	O	0.672672	0.215807	-0.000125
C114	C	0.723035	0.219223	-0.074640
H115	H	0.706632	0.186753	-0.126716
H116	H	0.716626	0.263891	-0.099664
H117	H	0.786570	0.209787	-0.057795
O118	O	0.134387	0.232205	0.000186
C119	C	0.144597	0.267251	0.074709
H120	H	0.205284	0.257119	0.099552
H121	H	0.139345	0.313879	0.057940
H122	H	0.097420	0.259095	0.126896
H123	H	1.000424	0.070069	0.377580
H124	H	1.048313	-0.602941	0.000073
H125	H	0.852952	0.169725	0.515441
H126	H	1.046535	-0.710801	0.000062
H127	H	1.038780	0.044176	0.622596
H128	H	0.787989	-0.698708	0.000047
O129	O	0.778566	-0.585753	0.000076
C130	C	0.715046	-0.621807	0.000049
H131	H	0.733862	-0.664229	0.027289
H132	H	0.663368	-0.600880	0.041821
H133	H	0.696545	-0.629466	-0.068983
H134	H	0.721225	-0.421898	0.000008
O135	O	0.511894	0.205937	0.000195
C136	C	0.460367	0.208670	0.074706
H137	H	0.487805	0.182797	0.126803
H138	H	0.449570	0.254941	0.099700
H139	H	0.402058	0.190481	0.057869
O140	O	0.711810	-0.308941	0.000051
C141	C	0.648288	-0.344993	0.000013
H142	H	0.667096	-0.387416	0.027254
H143	H	0.596606	-0.324064	0.041778
H144	H	0.629794	-0.352650	-0.069022
H145	H	0.796962	-0.151776	0.000096
O146	O	1.001162	0.069665	0.477695
C147	C	1.077344	0.083459	0.499764
H148	H	1.073770	0.107646	0.565523
H149	H	1.116008	0.042651	0.502841
H150	H	1.103858	0.111234	0.448774
O151	O	0.294907	0.242060	-0.000065
C152	C	0.272858	0.269541	-0.074606
H153	H	0.217706	0.250424	-0.099435
H154	H	0.260310	0.316975	-0.057864
H155	H	0.322729	0.263449	-0.126792
H156	H	0.177520	0.037928	0.000118
H157	H	0.836511	0.180855	0.786890
H158	H	0.844838	0.175209	0.622584
