data_functionalizedCrystal
_audit_creation_method	'MofGen! by Chris Wilmer'
_symmetry_space_group_name_H-M	'P1'
_symmetry_Int_Tables_number	1
_symmetry_cell_setting	triclinic
loop_
_symmetry_equiv_pos_as_xyz
  x,y,z
_cell_length_a	14.044220
_cell_length_b	10.489741
_cell_length_c	13.101039
_cell_angle_alpha	93.396862
_cell_angle_beta	86.340132
_cell_angle_gamma	88.864026
loop_
_atom_site_label
_atom_site_type_symbol
_atom_site_fract_x
_atom_site_fract_y
_atom_site_fract_z
O1	O	1.264971	0.301301	-0.085104
O2	O	0.988928	0.290194	-0.085130
O3	O	1.133230	0.110787	-0.085110
O4	O	1.120668	0.480707	-0.085124
O5	O	1.122877	0.123682	0.085318
O6	O	0.978574	0.303089	0.085298
O7	O	1.254618	0.314196	0.085324
Zn8	Zn	1.114952	0.310690	0.112370
Zn9	Zn	1.128593	0.293700	-0.112176
O10	O	1.110315	0.493603	0.085305
C11	C	0.948404	0.291780	0.000081
C12	C	0.843079	0.277280	0.000071
C13	C	0.650236	0.250773	0.000092
C14	C	0.593304	0.353611	0.000093
C15	C	0.486000	0.338862	0.000105
C16	C	0.757551	0.265520	0.000080
C17	C	1.127105	0.069607	0.000103
C18	C	1.124266	-0.072311	0.000101
C19	C	1.032451	-0.149765	0.000085
C20	C	1.070719	-0.231130	0.084119
C21	C	1.080948	-0.243816	-0.083910
C22	C	1.162568	-0.151801	0.084204
C23	C	1.172789	-0.164485	-0.083900
C24	C	1.211123	-0.245814	0.000155
C25	C	1.295142	0.312609	0.000111
C26	C	1.400466	0.327109	0.000114
C27	C	1.116441	0.534783	0.000089
C28	C	1.119280	0.676700	0.000084
N29	N	1.105649	0.322285	0.265618
N30	N	1.137903	0.282095	-0.265424
C31	C	1.092993	0.338073	0.474659
C32	C	1.150557	0.266311	0.525542
C33	C	1.143515	0.275096	0.641860
C34	C	1.100034	0.329290	0.358331
H35	H	0.956955	-0.107764	0.000162
C36	C	1.020138	0.428821	0.532860
C37	C	0.968393	0.493289	0.463058
C38	C	0.901266	0.576883	0.516648
H39	H	1.052097	0.489001	0.574717
H40	H	0.977730	0.381606	0.574695
H41	H	1.010795	0.540503	0.421240
H42	H	0.936415	0.433143	0.421199
H43	H	0.858858	0.529668	0.558483
H44	H	0.933232	0.637055	0.558503
H45	H	0.866143	0.620626	0.469296
C46	C	1.223380	0.175666	0.467161
C47	C	1.315296	0.208601	0.493038
C48	C	1.382360	0.125115	0.439227
H49	H	1.218530	0.181758	0.395618
H50	H	1.211379	0.090595	0.484665
H51	H	1.327292	0.293651	0.475527
H52	H	1.320176	0.202502	0.564571
H53	H	1.370359	0.040044	0.456731
H54	H	1.377501	0.131213	0.367687
H55	H	1.444731	0.147442	0.456784
C56	C	0.635950	0.485663	-0.000002
C57	C	0.735450	0.474230	-0.000050
C58	C	0.774773	0.595841	-0.000165
H59	H	0.611979	0.535358	0.059403
H60	H	0.619112	0.526212	-0.059469
H61	H	0.752280	0.433700	0.059411
H62	H	0.759447	0.424557	-0.059451
H63	H	0.757935	0.636390	-0.059633
H64	H	0.750795	0.645527	0.059240
H65	H	0.842288	0.588099	-0.000208
H66	H	1.027554	-0.260706	0.155157
H67	H	1.197063	-0.111651	0.155329
C68	C	0.607599	0.118718	0.000042
C69	C	0.508103	0.130159	0.000023
C70	C	0.468783	0.008539	-0.000042
H71	H	0.624375	0.078033	0.059454
H72	H	0.631632	0.069147	-0.059418
H73	H	0.484079	0.179711	0.059476
H74	H	0.491300	0.170822	-0.059385
H75	H	0.492816	-0.041033	-0.059502
H76	H	0.485566	-0.032137	0.059371
H77	H	0.401272	0.016284	-0.000065
C78	C	1.311870	-0.301422	0.000433
C79	C	1.354132	-0.254434	0.088576
C80	C	1.446933	-0.305647	0.088879
H81	H	1.348435	-0.277553	-0.058621
H82	H	1.309585	-0.391914	-0.000079
H83	H	1.356423	-0.163962	0.089078
H84	H	1.317596	-0.278300	0.147644
H85	H	1.444648	-0.396139	0.088367
H86	H	1.483489	-0.281775	0.029821
H87	H	1.475616	-0.273783	0.148687
C88	C	1.034906	-0.297304	-0.178732
C89	C	1.008127	-0.196680	-0.237253
C90	C	0.965715	-0.245899	-0.324611
H91	H	0.980035	-0.343547	-0.158674
H92	H	1.079185	-0.352694	-0.218365
H93	H	0.963850	-0.141312	-0.197627
H94	H	1.062981	-0.150427	-0.257337
H95	H	1.009994	-0.301289	-0.364243
H96	H	0.910847	-0.292142	-0.304543
H97	H	0.947548	-0.177634	-0.364332
C98	C	1.230309	-0.124737	-0.178532
C99	C	1.232933	0.008733	-0.176740
C100	C	1.285914	0.045398	-0.263900
H101	H	1.201299	-0.156142	-0.238260
H102	H	1.293490	-0.158985	-0.179133
H103	H	1.169764	0.042967	-0.176149
H104	H	1.261951	0.040169	-0.117032
H105	H	1.349095	0.011150	-0.264501
H106	H	1.256899	0.013985	-0.323621
H107	H	1.287709	0.135959	-0.262691
