data_functionalizedCrystal
_audit_creation_method	'MofGen! by Chris Wilmer'
_symmetry_space_group_name_H-M	'P1'
_symmetry_Int_Tables_number	1
_symmetry_cell_setting	triclinic
loop_
_symmetry_equiv_pos_as_xyz
  x,y,z
_cell_length_a	14.044220
_cell_length_b	14.853567
_cell_length_c	13.930277
_cell_angle_alpha	89.998611
_cell_angle_beta	90.002589
_cell_angle_gamma	88.411904
loop_
_atom_site_label
_atom_site_type_symbol
_atom_site_fract_x
_atom_site_fract_y
_atom_site_fract_z
O1	O	1.257997	0.217369	0.079714
O2	O	0.982018	0.209525	0.079738
O3	O	1.127379	0.082802	0.079728
O4	O	1.112636	0.344093	0.079724
O5	O	1.127358	0.082803	-0.079934
O6	O	0.981996	0.209527	-0.079923
O7	O	1.257976	0.217370	-0.079948
Zn8	Zn	1.119983	0.213449	-0.105286
Zn9	Zn	1.120011	0.213447	0.105076
O10	O	1.112614	0.344094	-0.079938
C11	C	1.126701	0.049161	-0.000100
C12	C	1.124699	-0.051082	-0.000091
C13	C	0.946688	0.206092	-0.000089
C14	C	0.841449	0.195851	-0.000079
C15	C	1.029888	-0.471127	-0.000101
C16	C	1.202581	-0.478726	-0.000116
C17	C	1.204464	-0.384543	-0.000111
C18	C	1.119057	-0.333648	-0.000102
C19	C	1.031768	-0.376935	-0.000098
C20	C	1.291751	-0.341248	-0.000124
C21	C	1.293637	-0.247060	-0.000120
C22	C	1.208229	-0.196163	-0.000104
C23	C	1.120937	-0.239456	-0.000099
C24	C	1.035530	-0.188561	-0.000090
C25	C	0.948237	-0.231852	-0.000079
C26	C	0.946360	-0.326038	-0.000083
C27	C	1.210105	-0.101977	-0.000100
C28	C	1.037410	-0.094369	-0.000088
C29	C	0.648763	0.177127	-0.000098
C30	C	0.591225	0.249765	-0.000103
C31	C	0.484008	0.239347	-0.000114
C32	C	0.755990	0.187544	-0.000088
C33	C	1.293306	0.220803	-0.000118
C34	C	1.398545	0.231045	-0.000122
C35	C	1.113293	0.377735	-0.000108
C36	C	1.115295	0.477978	-0.000110
N37	N	1.119971	0.213450	-0.248852
C38	C	1.062411	0.154110	-0.299108
C39	C	1.177543	0.272786	-0.299100
C40	C	1.177554	0.272786	-0.399596
C41	C	1.119995	0.213446	-0.449852
C42	C	1.062423	0.154106	-0.399613
C43	C	1.235132	0.332119	-0.449842
C44	C	1.235147	0.332121	-0.550344
C45	C	1.177581	0.272785	-0.600603
C46	C	1.120007	0.213443	-0.550357
C47	C	1.062447	0.154103	-0.600614
C48	C	1.004866	0.094765	-0.550371
C49	C	1.004857	0.094770	-0.449872
C50	C	1.177590	0.272780	-0.701101
C51	C	1.062459	0.154100	-0.701119
N52	N	1.120030	0.213440	0.248642
H53	H	0.878699	-0.190401	-0.000078
C54	C	1.289664	0.039029	-0.000111
C55	C	1.306047	-0.054389	-0.000117
H56	H	1.348899	0.068404	-0.000127
H57	H	1.254513	0.056016	0.055571
H58	H	1.254480	0.056021	-0.055785
H59	H	1.341226	-0.071383	0.055561
H60	H	1.341213	-0.071383	-0.055805
C61	C	0.859375	-0.454140	-0.000073
C62	C	0.933937	-0.518707	-0.000084
H63	H	0.800139	-0.483516	-0.000055
H64	H	0.863690	-0.417567	-0.055750
H65	H	0.863720	-0.417559	0.055606
H66	H	0.929596	-0.555284	-0.055766
H67	H	0.929620	-0.555296	0.055599
H68	H	0.957980	0.046459	-0.408955
C69	C	1.276373	-0.626480	-0.000132
C70	C	1.296457	-0.534668	-0.000128
H71	H	1.334332	-0.661017	-0.000133
H72	H	1.240587	-0.640342	-0.055805
H73	H	1.240592	-0.640349	0.055551
H74	H	1.332232	-0.520797	-0.055815
H75	H	1.332258	-0.520800	0.055551
H76	H	0.617501	0.107120	-0.000102
H77	H	1.015581	0.105781	-0.742031
C78	C	0.866517	-0.096319	-0.000071
C79	C	0.943526	-0.038428	-0.000079
H80	H	0.808558	-0.061782	-0.000071
H81	H	0.869385	-0.133211	0.055604
H82	H	0.869374	-0.133216	-0.055751
H83	H	0.940673	-0.001536	0.055606
H84	H	0.940656	-0.001521	-0.055760
C85	C	1.438378	-0.376732	0.081934
C86	C	1.385624	-0.397193	-0.000134
H87	H	1.496335	-0.411271	0.081924
H88	H	1.402599	-0.390606	0.137605
H89	H	1.451990	-0.314442	0.081919
H90	H	1.372006	-0.459482	-0.000115
H91	H	1.421411	-0.383326	-0.055820
H92	H	0.875291	-0.361295	-0.000074
C93	C	1.241201	0.453865	-0.336829
C94	C	1.298403	0.397337	-0.394598
H95	H	1.280265	0.494131	-0.302724
H96	H	1.206914	0.418528	-0.292534
H97	H	1.197641	0.487284	-0.376057
H98	H	1.341958	0.363913	-0.355369
H99	H	1.332706	0.432679	-0.438898
C100	C	0.953700	0.042131	-0.704438
C101	C	0.941595	0.029539	-0.605618
H102	H	0.914635	0.001867	-0.738545
H103	H	1.018527	0.030662	-0.720933
H104	H	0.936131	0.102402	-0.720856
H105	H	0.959172	-0.030731	-0.589198
H106	H	0.876754	0.041001	-0.589116
C107	C	1.336440	0.321020	-0.732020
C108	C	1.240878	0.337996	-0.756328
H109	H	1.375511	0.361289	-0.766111
H110	H	1.353960	0.260760	-0.748491
H111	H	1.344661	0.329515	-0.664972
H112	H	1.232656	0.329495	-0.823376
H113	H	1.223353	0.398271	-0.739864
C114	C	0.934890	0.138163	-0.186114
C115	C	0.999123	0.088886	-0.243884
H116	H	0.895824	0.097894	-0.152017
H117	H	0.896110	0.176502	-0.225332
H118	H	0.969176	0.173500	-0.141803
H119	H	0.964837	0.053553	-0.288200
H120	H	1.037907	0.050530	-0.204663
C121	C	1.183611	0.394531	-0.186085
C122	C	1.240812	0.338009	-0.243860
H123	H	1.222673	0.434801	-0.151985
H124	H	1.149332	0.359189	-0.141786
H125	H	1.140043	0.427946	-0.225308
H126	H	1.284375	0.304588	-0.204637
H127	H	1.275106	0.373354	-0.288165
H128	H	1.364716	-0.211820	-0.000128
C129	C	1.393996	0.380386	-0.581255
C130	C	1.298432	0.397351	-0.605563
H131	H	1.433061	0.420663	-0.615342
H132	H	1.411524	0.320129	-0.597731
H133	H	1.402214	0.388876	-0.514206
H134	H	1.290212	0.388855	-0.672611
H135	H	1.280898	0.457623	-0.589094
H136	H	0.622488	0.319778	-0.000100
