data_functionalizedCrystal
_audit_creation_method	'MofGen! by Chris Wilmer'
_symmetry_space_group_name_H-M	'P1'
_symmetry_Int_Tables_number	1
_symmetry_cell_setting	triclinic
loop_
_symmetry_equiv_pos_as_xyz
  x,y,z
_cell_length_a	16.974829
_cell_length_b	16.053802
_cell_length_c	19.288865
_cell_angle_alpha	92.551370
_cell_angle_beta	96.732854
_cell_angle_gamma	96.228883
loop_
_atom_site_label
_atom_site_type_symbol
_atom_site_fract_x
_atom_site_fract_y
_atom_site_fract_z
O1	O	1.055614	0.140761	-0.082619
O2	O	1.388948	0.474094	0.250715
O3	O	1.722281	0.807428	0.584048
O4	O	0.824616	0.125157	-0.094547
O5	O	1.157949	0.458490	0.238787
O6	O	1.491282	0.791823	0.572120
O7	O	0.946789	0.133393	0.012554
O8	O	1.280122	0.466727	0.345887
O9	O	1.613456	0.800060	0.679221
O10	O	0.933441	0.132525	-0.189719
O11	O	1.266774	0.465858	0.143614
O12	O	1.600108	0.799191	0.476947
O13	O	0.940064	-0.005919	0.006683
O14	O	1.273398	0.327414	0.340016
O15	O	1.606731	0.660748	0.673350
O16	O	0.817891	-0.014156	-0.100418
O17	O	1.151224	0.319178	0.232916
O18	O	1.484558	0.652511	0.566249
O19	O	1.048890	0.001449	-0.088489
O20	O	1.382223	0.334782	0.244844
O21	O	1.715556	0.668116	0.578177
Zn22	Zn	0.932323	-0.028472	-0.095386
Zn23	Zn	1.265656	0.304861	0.237948
Zn24	Zn	1.598989	0.638194	0.571281
Zn25	Zn	0.941183	0.155078	-0.087651
Zn26	Zn	1.274516	0.488411	0.245683
Zn27	Zn	1.607849	0.821744	0.579016
O28	O	0.926716	-0.006788	-0.195590
O29	O	1.260050	0.326546	0.137743
O30	O	1.593383	0.659879	0.471077
C31	C	0.791700	0.053504	-0.097137
C32	C	1.125034	0.386837	0.236197
C33	C	1.458367	0.720171	0.569530
C34	C	0.703642	0.047555	-0.096099
C35	C	1.036975	0.380888	0.237234
C36	C	1.370308	0.714221	0.570568
C37	C	0.207567	0.005914	-0.090625
C38	C	0.540900	0.339248	0.242709
C39	C	0.874234	0.672581	0.576042
C40	C	0.290308	0.011506	-0.091600
C41	C	0.623641	0.344839	0.241734
C42	C	0.956974	0.678173	0.575067
C43	C	0.335345	0.090242	-0.088881
C44	C	0.668678	0.423576	0.244452
C45	C	1.002011	0.756909	0.577785
C46	C	0.297636	0.163392	-0.085195
C47	C	0.630969	0.496725	0.248138
C48	C	0.964302	0.830058	0.581471
C49	C	0.214896	0.157799	-0.084225
C50	C	0.548229	0.491133	0.249108
C51	C	0.881562	0.824466	0.582441
C52	C	0.583193	0.115111	-0.091443
C53	C	0.916526	0.448445	0.241890
C54	C	1.249860	0.781778	0.575224
C55	C	0.665939	0.120698	-0.092411
C56	C	0.999272	0.454032	0.240922
C57	C	1.332605	0.787365	0.574255
C58	C	0.658605	-0.031188	-0.098817
C59	C	0.991938	0.302145	0.234517
C60	C	1.325271	0.635479	0.567850
C61	C	0.575864	-0.036773	-0.097842
C62	C	0.909197	0.296560	0.235491
C63	C	1.242531	0.629893	0.568824
C64	C	0.538162	0.036376	-0.094160
C65	C	0.871495	0.369709	0.239173
C66	C	1.204829	0.703042	0.572507
N67	N	0.419919	0.095960	-0.089876
N68	N	0.753252	0.429293	0.243458
N69	N	1.086586	0.762627	0.576791
N70	N	0.453588	0.030657	-0.093171
N71	N	0.786921	0.363991	0.240162
N72	N	1.120255	0.697324	0.573496
N73	N	0.926282	-0.153740	-0.100664
N74	N	1.259615	0.179594	0.232669
N75	N	1.592948	0.512927	0.566002
C76	C	0.978285	-0.193928	-0.055109
C77	C	1.311619	0.139406	0.278224
C78	C	1.644952	0.472739	0.611558
C79	C	0.974067	-0.281619	-0.058808
C80	C	1.307400	0.051714	0.274525
C81	C	1.640734	0.385048	0.607859
C82	C	0.917848	-0.329120	-0.108066
C83	C	1.251182	0.004213	0.225267
C84	C	1.584515	0.337546	0.558600
C85	C	0.865839	-0.288927	-0.153624
C86	C	1.199172	0.044407	0.179710
C87	C	1.532506	0.377740	0.513043
C88	C	0.870054	-0.201237	-0.149921
C89	C	1.203388	0.132096	0.183413
C90	C	1.536721	0.465429	0.516746
C91	C	0.899436	-0.591771	-0.124221
C92	C	1.232769	-0.258438	0.209112
C93	C	1.566103	0.074895	0.542446
C94	C	0.895226	-0.679466	-0.127922
C95	C	1.228560	-0.346133	0.205412
C96	C	1.561893	-0.012800	0.538745
C97	C	1.003454	-0.672153	-0.033105
C98	C	1.336787	-0.338819	0.300229
C99	C	1.670120	-0.005486	0.633562
C100	C	1.007667	-0.584462	-0.029409
C101	C	1.341000	-0.251128	0.303924
C102	C	1.674334	0.082205	0.637258
C103	C	0.955655	-0.544276	-0.074964
C104	C	1.288989	-0.210943	0.258369
C105	C	1.622322	0.122391	0.591703
N106	N	0.913537	-0.418755	-0.111850
N107	N	1.246870	-0.085421	0.221483
N108	N	1.580203	0.247912	0.554817
N109	N	0.959963	-0.454643	-0.071177
N110	N	1.293297	-0.121310	0.262157
N111	N	1.626630	0.212023	0.595490
C112	C	1.081805	0.073103	-0.085899
C113	C	1.415138	0.406437	0.247434
C114	C	1.748472	0.739770	0.580767
C115	C	1.169864	0.079058	-0.086937
C116	C	1.503197	0.412392	0.246397
C117	C	1.836531	0.745725	0.579730
C118	C	0.942997	0.063706	0.035494
C119	C	1.276330	0.397039	0.368828
C120	C	1.609664	0.730372	0.702161
C121	C	0.941707	0.063611	0.112596
C122	C	1.275041	0.396944	0.445930
C123	C	1.608374	0.730278	0.779263
N124	N	0.947230	0.280346	-0.082366
N125	N	1.280563	0.613679	0.250967
N126	N	1.613897	0.947012	0.584300
C127	C	0.930508	0.062902	-0.218530
C128	C	1.263842	0.396235	0.114803
C129	C	1.597175	0.729568	0.448136
C130	C	0.931799	0.063002	-0.295632
C131	C	1.265132	0.396335	0.037701
C132	C	1.598465	0.729668	0.371034
C133	C	1.013393	0.068450	0.157367
C134	C	1.346726	0.401783	0.490700
C135	C	1.680060	0.735116	0.824033
C136	C	1.012182	0.068381	0.229813
C137	C	1.345516	0.401714	0.563146
C138	C	1.678849	0.735048	0.896480
C139	C	0.939281	0.063457	0.257485
C140	C	1.272614	0.396790	0.590818
C141	C	1.605947	0.730123	0.924152
C142	C	0.867586	0.058622	0.212705
C143	C	1.200919	0.391956	0.546038
C144	C	1.534252	0.725289	0.879372
C145	C	0.868799	0.058700	0.140261
C146	C	1.202132	0.392033	0.473594
C147	C	1.535466	0.725366	0.806927
C148	C	0.879616	0.010787	0.363657
C149	C	1.212949	0.344121	0.696990
C150	C	1.546283	0.677454	1.030323
C151	C	0.878406	0.010705	0.436100
C152	C	1.211739	0.344039	0.769433
C153	C	1.545072	0.677372	1.102766
C154	C	0.935536	0.063223	0.480928
C155	C	1.268869	0.396556	0.814261
C156	C	1.602203	0.729889	1.147594
C157	C	0.993890	0.115812	0.453304
C158	C	1.327223	0.449145	0.786638
C159	C	1.660557	0.782479	1.119971
C160	C	0.995103	0.115889	0.380860
C161	C	1.328436	0.449222	0.714193
C162	C	1.661770	0.782556	1.047527
C163	C	0.937957	0.063373	0.336038
C164	C	1.271291	0.396707	0.669371
C165	C	1.604624	0.730040	1.002705
C166	C	1.005914	0.067988	0.604253
C167	C	1.339248	0.401322	0.937587
C168	C	1.672581	0.734655	1.270920
C169	C	1.004701	0.067925	0.676701
C170	C	1.338034	0.401258	1.010034
C171	C	1.671367	0.734591	1.343368
C172	C	0.860102	0.058157	0.659591
C173	C	1.193435	0.391491	0.992924
C174	C	1.526768	0.724824	1.326257
C175	C	0.861318	0.058230	0.587145
C176	C	1.194651	0.391563	0.920478
C177	C	1.527984	0.724896	1.253812
C178	C	0.934226	0.063141	0.559481
C179	C	1.267559	0.396474	0.892814
C180	C	1.600892	0.729808	1.226148
H181	H	0.334311	0.227501	-0.082986
H182	H	0.667644	0.560834	0.250347
H183	H	1.000977	0.894167	0.583680
H184	H	1.016412	-0.314339	-0.021713
H185	H	1.349745	0.018994	0.311621
H186	H	1.683079	0.352327	0.644954
Br187	Br	1.083967	-0.519994	0.037439
Br188	Br	1.417301	-0.186661	0.370772
Br189	Br	1.750634	0.146673	0.704106
Br190	Br	0.761162	0.051483	0.697138
Br191	Br	1.094495	0.384816	1.030471
Br192	Br	1.427829	0.718150	1.363804
H193	H	0.184199	0.217361	-0.081224
H194	H	0.517533	0.550694	0.252109
H195	H	0.850866	0.884028	0.585442
Br196	Br	0.532036	0.214386	-0.086443
Br197	Br	0.865370	0.547719	0.246890
Br198	Br	1.198703	0.881053	0.580224
Br199	Br	1.109477	0.074952	0.290585
Br200	Br	1.442811	0.408285	0.623918
Br201	Br	1.776144	0.741618	0.957252
Br202	Br	0.764024	0.051662	0.526381
Br203	Br	1.097357	0.384995	0.859714
Br204	Br	1.430690	0.718329	1.193048
H205	H	0.857087	-0.559059	-0.161315
H206	H	1.190420	-0.225725	0.172018
H207	H	1.523754	0.107608	0.505352
H208	H	1.045799	-0.704880	0.003985
H209	H	1.379132	-0.371547	0.337318
H210	H	1.712465	-0.038214	0.670651
H211	H	1.040411	0.158577	0.489802
H212	H	1.373744	0.491910	0.823136
H213	H	1.707077	0.825244	1.156469
Br214	Br	0.709775	-0.130456	-0.103818
Br215	Br	1.043109	0.202877	0.229515
Br216	Br	1.376442	0.536210	0.562849
H217	H	0.830887	-0.032111	0.458584
H218	H	1.164221	0.301222	0.791918
H219	H	1.497554	0.634555	1.125251
Br220	Br	0.727061	0.227562	-0.088720
Br221	Br	1.060394	0.560895	0.244613
Br222	Br	1.393728	0.894229	0.577947
H223	H	0.849444	-0.718139	-0.168037
H224	H	1.182777	-0.384805	0.165297
H225	H	1.516110	-0.051472	0.498630
Br226	Br	0.514746	-0.143634	-0.101547
Br227	Br	0.848079	0.189699	0.231787
Br228	Br	1.181412	0.523033	0.565120
H229	H	0.833091	-0.031983	0.327162
H230	H	1.166425	0.301350	0.660496
H231	H	1.499758	0.634684	0.993829
H232	H	1.024068	-0.155257	-0.015001
H233	H	1.357401	0.178076	0.318333
H234	H	1.690735	0.511409	0.651666
H235	H	1.042615	0.158711	0.358372
H236	H	1.375949	0.492044	0.691706
H237	H	1.709282	0.825377	1.025039
H238	H	0.820060	-0.327608	-0.193729
H239	H	1.153394	0.005726	0.139605
H240	H	1.486727	0.339059	0.472938
H241	H	0.827706	-0.168517	-0.187016
H242	H	1.161040	0.164816	0.146317
H243	H	1.494373	0.498149	0.479651
H244	H	1.072761	0.072452	0.134848
H245	H	1.406094	0.405785	0.468181
H246	H	1.739428	0.739118	0.801514
H247	H	1.065281	0.071991	0.581728
H248	H	1.398614	0.405325	0.915061
H249	H	1.731947	0.738658	1.248395
Br250	Br	0.771503	0.052135	0.079496
Br251	Br	1.104836	0.385468	0.412830
Br252	Br	1.438170	0.718802	0.746163
H253	H	1.063079	0.071869	0.713153
H254	H	1.396412	0.405203	1.046487
H255	H	1.729745	0.738536	1.379820
H256	H	0.170903	-0.058201	-0.092841
H257	H	0.504236	0.275132	0.240492
H258	H	0.837570	0.608465	0.573826
H259	H	0.321002	-0.048056	-0.094601
H260	H	0.654335	0.285278	0.238732
H261	H	0.987668	0.618611	0.572066
Br262	Br	0.768647	0.051950	0.250258
Br263	Br	1.101981	0.385284	0.583591
Br264	Br	1.435314	0.718617	0.916925
