data_functionalizedCrystal
_audit_creation_method	'MofGen! by Chris Wilmer'
_symmetry_space_group_name_H-M	'P1'
_symmetry_Int_Tables_number	1
_symmetry_cell_setting	triclinic
loop_
_symmetry_equiv_pos_as_xyz
  x,y,z
_cell_length_a	14.044191
_cell_length_b	10.967819
_cell_length_c	10.066291
_cell_angle_alpha	86.871631
_cell_angle_beta	99.595759
_cell_angle_gamma	91.143123
loop_
_atom_site_label
_atom_site_type_symbol
_atom_site_fract_x
_atom_site_fract_y
_atom_site_fract_z
O1	O	-0.192658	1.598438	-0.489396
O2	O	0.307342	2.098438	0.010604
O3	O	-0.195371	1.248671	-0.407139
O4	O	0.304629	1.748671	0.092861
O5	O	-0.055844	1.418299	-0.447034
O6	O	0.444156	1.918299	0.052966
O7	O	-0.332185	1.428809	-0.449501
O8	O	0.167815	1.928809	0.050499
O9	O	-0.029128	1.450602	-0.227658
O10	O	0.470872	1.950602	0.272342
O11	O	-0.168655	1.280974	-0.187763
O12	O	0.331345	1.780974	0.312237
O13	O	-0.165941	1.630741	-0.270019
O14	O	0.334059	2.130741	0.229981
Zn15	Zn	-0.163056	1.460986	-0.194060
Zn16	Zn	0.336944	1.960986	0.305940
Zn17	Zn	-0.198256	1.418425	-0.483098
Zn18	Zn	0.301744	1.918425	0.016902
O19	O	-0.305468	1.461112	-0.230124
O20	O	0.194532	1.961112	0.269876
C21	C	-0.179796	1.219789	-0.286860
C22	C	0.320204	1.719789	0.213140
C23	C	-0.173179	1.085604	-0.255304
C24	C	0.326821	1.585604	0.244696
C25	C	-0.177242	0.870361	-0.322288
C26	C	0.322758	1.370361	0.177712
C27	C	-0.184074	1.009050	-0.354896
C28	C	0.315926	1.509050	0.145104
C29	C	-0.354304	1.449558	-0.340893
C30	C	0.145696	1.949558	0.159107
C31	C	-0.460015	1.463271	-0.344116
C32	C	0.039985	1.963271	0.155884
C33	C	-0.707749	1.391083	-0.327152
C34	C	-0.207749	1.891083	0.172848
C35	C	-0.653560	1.488321	-0.350017
C36	C	-0.153560	1.988321	0.149983
C37	C	-0.545861	1.474380	-0.346733
C38	C	-0.045861	1.974380	0.153267
C39	C	-0.815457	1.405023	-0.330435
C40	C	-0.315457	1.905023	0.169565
C41	C	-0.007009	1.429853	-0.336268
C42	C	0.492991	1.929853	0.163732
C43	C	0.098701	1.416138	-0.333054
C44	C	0.598701	1.916138	0.166946
C45	C	-0.181517	1.659622	-0.390301
C46	C	0.318483	2.159622	0.109699
C47	C	-0.188135	1.793806	-0.421866
C48	C	0.311865	2.293806	0.078134
N49	N	-0.139033	1.490041	0.003198
N50	N	0.360967	1.990041	0.503198
C51	C	-0.189902	1.428514	0.085476
C52	C	0.310098	1.928514	0.585476
C53	C	-0.171404	1.450906	0.237367
C54	C	0.328596	1.950906	0.737367
N55	N	-0.222280	1.389370	0.319643
N56	N	0.277720	1.889370	0.819643
H57	H	-0.202525	0.830940	-0.531258
H58	H	0.297475	1.330940	-0.031258
F59	F	-0.662669	1.268595	-0.298344
F60	F	-0.162669	1.768595	0.201656
F61	F	-0.154383	1.037081	-0.112308
F62	F	0.345617	1.537081	0.387692
H63	H	-0.247151	1.359265	0.043471
H64	H	0.252849	1.859265	0.543471
F65	F	-0.158449	0.821830	-0.179301
F66	F	0.341551	1.321830	0.320699
H67	H	-0.114158	1.520169	0.279366
H68	H	0.385842	2.020169	0.779366
F69	F	-0.064212	1.580568	0.058096
F70	F	0.435788	2.080568	0.558096
F71	F	-0.698639	1.610818	-0.378824
F72	F	-0.198639	2.110818	0.121176
F73	F	-0.297114	1.298851	0.264749
F74	F	0.202886	1.798851	0.764749
H75	H	-0.198464	1.046178	-0.464295
H76	H	0.301536	1.546178	0.035705
