data_functionalizedCrystal
_audit_creation_method	'MofGen! by Chris Wilmer'
_symmetry_space_group_name_H-M	'P1'
_symmetry_Int_Tables_number	1
_symmetry_cell_setting	triclinic
loop_
_symmetry_equiv_pos_as_xyz
  x,y,z
_cell_length_a	21.395362
_cell_length_b	17.077402
_cell_length_c	17.077396
_cell_angle_alpha	90.029784
_cell_angle_beta	89.961012
_cell_angle_gamma	89.961239
loop_
_atom_site_label
_atom_site_type_symbol
_atom_site_fract_x
_atom_site_fract_y
_atom_site_fract_z
Zn1	Zn	0.957863	0.312175	-0.444244
Zn2	Zn	0.957789	0.443450	-0.312975
Zn3	Zn	0.853087	0.312239	-0.312947
Zn4	Zn	0.853061	0.443440	-0.444154
O5	O	0.905450	0.377826	-0.378580
O6	O	1.045531	0.329567	-0.426880
O7	O	0.943880	0.426076	-0.203124
O8	O	0.867027	0.202383	-0.330390
O9	O	1.045477	0.426014	-0.330437
O10	O	0.944006	0.202337	-0.426853
O11	O	0.866956	0.329675	-0.203104
O12	O	0.765406	0.329665	-0.330303
O13	O	0.866984	0.425996	-0.554013
O14	O	0.765387	0.426058	-0.426700
O15	O	0.943981	0.329557	-0.554079
O16	O	0.943855	0.553296	-0.330350
O17	O	0.866912	0.553288	-0.426727
C18	C	0.905390	0.581774	-0.378549
C19	C	0.905421	0.669024	-0.378561
C20	C	0.742662	0.377868	-0.378489
C21	C	0.673021	0.377904	-0.378469
C22	C	0.905488	0.377768	-0.583324
C23	C	0.905504	0.377743	-0.670574
C24	C	0.640315	0.428162	-0.428587
C25	C	0.574879	0.428143	-0.428622
C26	C	0.542153	0.377874	-0.378524
C27	C	0.574867	0.327606	-0.328402
C28	C	0.640301	0.327621	-0.328374
C29	C	0.438432	0.371565	-0.307857
C30	C	0.372999	0.371555	-0.307884
C31	C	0.340332	0.377823	-0.378611
C32	C	0.373106	0.384116	-0.449314
C33	C	0.438540	0.384132	-0.449286
C34	C	0.471200	0.377852	-0.378550
C35	C	0.236673	0.428063	-0.428772
C36	C	0.171236	0.428038	-0.428808
C37	C	0.171226	0.327505	-0.328581
C38	C	0.236661	0.327526	-0.328552
C39	C	0.269381	0.377809	-0.378646
C40	C	1.068873	0.377785	-0.378672
C41	C	1.138515	0.377767	-0.378711
C42	C	0.905528	0.173082	-0.378629
C43	C	0.905561	0.085832	-0.378649
C44	C	0.945526	0.709992	-0.328432
C45	C	0.945557	0.791972	-0.328452
C46	C	0.905479	0.832983	-0.378598
C47	C	0.865372	0.792009	-0.428733
C48	C	0.865345	0.710030	-0.428716
C49	C	0.865430	0.962879	-0.428763
C50	C	0.865456	1.044864	-0.428779
C51	C	0.945642	1.044821	-0.328499
C52	C	0.945615	0.962842	-0.328482
C53	C	0.905507	0.921874	-0.378616
C54	C	0.945598	0.327523	-0.711600
C55	C	0.945606	0.327497	-0.793581
C56	C	0.905522	0.377696	-0.834534
C57	C	0.865423	0.427918	-0.793502
C58	C	0.865413	0.427940	-0.711523
C59	C	0.865449	0.427871	-0.964372
C60	C	0.865460	0.427851	-1.046357
C61	C	0.945641	0.327428	-1.046430
C62	C	0.945631	0.327450	-0.964451
C63	C	0.905533	0.377674	-0.923425
C64	C	0.905448	0.377827	-0.174632
C65	C	0.905554	0.377630	-0.087383
H66	H	0.666951	0.469106	-0.469379
C67	C	0.989614	0.664888	-0.273265
N68	N	1.022825	0.630917	-0.231713
C69	C	0.821308	0.483187	-0.666395
N70	N	0.788085	0.524800	-0.632406
H71	H	0.832688	0.676675	-0.469538
C72	C	0.538867	0.272310	-0.273295
N73	N	0.511751	0.230657	-0.231787
C74	C	0.989671	0.837034	-0.273301
N75	N	1.022900	0.870973	-0.231757
C76	C	0.821375	1.089974	-0.483950
N77	N	0.788174	1.123951	-0.525509
C78	C	0.336954	0.364626	-0.230111
N79	N	0.309807	0.359403	-0.171530
C80	C	0.989766	1.089888	-0.273357
N81	N	1.022999	1.123835	-0.231826
H82	H	0.832742	0.825407	-0.469566
H83	H	0.263315	0.469002	-0.469566
C84	C	0.135259	0.483336	-0.483939
N85	N	0.108161	0.524991	-0.525461
H86	H	0.832772	0.929525	-0.469590
C87	C	0.538895	0.483436	-0.483756
N88	N	0.511793	0.525084	-0.525282
C89	C	0.676280	0.272335	-0.273233
N90	N	0.703379	0.230694	-0.231698
C91	C	0.989693	0.272299	-0.666559
N92	N	1.022905	0.230700	-0.632637
C93	C	0.135230	0.272207	-0.273473
N94	N	0.108116	0.230555	-0.231966
C95	C	0.989713	0.272252	-0.838705
N96	N	1.022937	0.230640	-0.872693
C97	C	0.474589	0.391054	-0.527057
N98	N	0.501740	0.396266	-0.585636
H99	H	0.263291	0.286604	-0.287736
H100	H	0.978246	0.929451	-0.287645
C101	C	0.989749	0.272181	-1.091560
N102	N	1.022971	0.230573	-1.125555
C103	C	0.821362	0.483067	-1.091404
N104	N	0.788145	0.524655	-1.125333
H105	H	0.978274	0.286578	-0.931109
H106	H	0.832787	0.468756	-0.930971
C107	C	0.821325	0.483129	-0.838554
N108	N	0.788108	0.524715	-0.872485
C109	C	0.337177	0.391008	-0.527121
N110	N	0.310112	0.396200	-0.585723
C111	C	0.474360	0.364673	-0.230046
N112	N	0.501419	0.359483	-0.171441
