data_functionalizedCrystal
_audit_creation_method	'MofGen! by Chris Wilmer'
_symmetry_space_group_name_H-M	'P1'
_symmetry_Int_Tables_number	1
_symmetry_cell_setting	triclinic
loop_
_symmetry_equiv_pos_as_xyz
  x,y,z
_cell_length_a	12.594517
_cell_length_b	12.594516
_cell_length_c	13.032268
_cell_angle_alpha	97.152436
_cell_angle_beta	97.161190
_cell_angle_gamma	90.015485
loop_
_atom_site_label
_atom_site_type_symbol
_atom_site_fract_x
_atom_site_fract_y
_atom_site_fract_z
Zn1	Zn	1.550787	-0.500156	-0.590929
Zn2	Zn	1.573291	-0.655567	-0.416201
Zn3	Zn	1.395405	-0.477601	-0.416199
Zn4	Zn	1.372778	-0.678085	-0.590885
O5	O	1.473065	-0.577852	-0.503554
O6	O	1.702715	-0.520787	-0.567770
O7	O	1.568582	-0.613096	-0.269970
O8	O	1.416067	-0.331649	-0.439395
O9	O	1.719249	-0.634967	-0.439398
O10	O	1.530226	-0.348220	-0.567769
O11	O	1.437889	-0.482345	-0.269968
O12	O	1.243460	-0.504180	-0.439352
O13	O	1.377504	-0.673346	-0.737122
O14	O	1.226837	-0.651475	-0.567693
O15	O	1.508286	-0.542622	-0.737154
O16	O	1.546642	-0.807497	-0.439355
O17	O	1.399326	-0.824041	-0.567695
C18	C	1.196529	-0.577825	-0.503519
C19	C	1.078222	-0.577842	-0.503528
C20	C	0.947195	-0.497670	-0.433883
C21	C	1.005713	-0.484070	-0.529238
C22	C	1.021275	-0.591395	-0.408184
C23	C	0.925938	-0.564249	-0.599010
C24	C	0.941502	-0.671611	-0.477892
C25	C	0.999979	-0.658056	-0.573312
C26	C	1.472997	-0.854392	-0.503543
C27	C	1.473060	-0.972701	-0.503574
C28	C	1.392935	-1.050985	-0.573329
C29	C	1.379342	-1.109517	-0.477975
C30	C	1.486748	-1.124970	-0.598943
C31	C	1.459423	-1.029669	-0.408170
C32	C	1.566866	-1.045124	-0.529202
C33	C	1.553319	-1.103615	-0.433783
C34	C	1.750681	-0.577881	-0.503589
C35	C	1.868985	-0.577893	-0.503604
C36	C	1.437861	-0.613011	-0.776114
C37	C	1.422859	-0.627994	-0.892263
C38	C	1.473160	-0.300236	-0.503587
C39	C	1.473200	-0.181932	-0.503601
C40	C	1.480878	-0.569994	-0.944062
C41	C	1.465375	-0.585478	-1.064108
C42	C	1.508194	-0.542753	-0.232053
C43	C	1.523402	-0.527470	-0.115905
H44	H	0.923717	-0.429815	-0.375028
F45	F	1.342922	-0.707878	-0.950457
H46	H	1.447810	-0.988340	-0.327506
F47	F	1.042710	-0.380451	-0.557639
F48	F	1.560788	-0.490084	-0.885868
F49	F	1.641978	-1.133943	-0.356610
H50	H	0.884594	-0.552713	-0.679697
H51	H	1.646106	-1.016715	-0.550903
F52	F	1.501807	-1.179158	-0.704346
F53	F	0.904465	-0.775195	-0.449461
H54	H	1.404212	-0.646595	-1.108631
F55	F	1.603349	-0.447587	-1.057717
H56	H	1.062748	-0.602838	-0.327520
F57	F	1.030391	-0.746716	-0.650421
H58	H	1.325079	-1.027568	-0.632232
H59	H	1.300077	-1.137935	-0.456321
