data_functionalizedCrystal
_audit_creation_method	'MofGen! by Chris Wilmer'
_symmetry_space_group_name_H-M	'P1'
_symmetry_Int_Tables_number	1
_symmetry_cell_setting	triclinic
loop_
_symmetry_equiv_pos_as_xyz
  x,y,z
_cell_length_a	12.759401
_cell_length_b	18.215405
_cell_length_c	18.215399
_cell_angle_alpha	89.969449
_cell_angle_beta	89.982118
_cell_angle_gamma	90.026410
loop_
_atom_site_label
_atom_site_type_symbol
_atom_site_fract_x
_atom_site_fract_y
_atom_site_fract_z
Zn1	Zn	1.606160	-0.292962	-0.416064
Zn2	Zn	2.106160	0.207038	0.083936
Zn3	Zn	1.606030	-0.416033	-0.292992
Zn4	Zn	2.106030	0.083967	0.207008
Zn5	Zn	1.430468	-0.292988	-0.293016
Zn6	Zn	1.930468	0.207012	0.206984
Zn7	Zn	1.430420	-0.415995	-0.416021
Zn8	Zn	1.930420	0.084005	0.083979
O9	O	1.518269	-0.354494	-0.354524
O10	O	2.018269	0.145506	0.145476
O11	O	1.753164	-0.309293	-0.399747
O12	O	2.253164	0.190707	0.100253
O13	O	1.582707	-0.399738	-0.190011
O14	O	2.082707	0.100262	0.309989
O15	O	1.453849	-0.190001	-0.309366
O16	O	1.953849	0.309999	0.190634
O17	O	1.753068	-0.399713	-0.309326
O18	O	2.253068	0.100287	0.190674
O19	O	1.582930	-0.189981	-0.399769
O20	O	2.082930	0.310019	0.100231
O21	O	1.453723	-0.309338	-0.190028
O22	O	1.953723	0.190662	0.309972
O23	O	1.283441	-0.309300	-0.309325
O24	O	1.783441	0.190700	0.190675
O25	O	1.453766	-0.399647	-0.519011
O26	O	1.953766	0.100353	-0.019011
O27	O	1.283405	-0.399672	-0.399696
O28	O	1.783405	0.100328	0.100304
O29	O	1.582882	-0.309255	-0.519043
O30	O	2.082882	0.190745	-0.019043
O31	O	1.582659	-0.519012	-0.309285
O32	O	2.082659	-0.019012	0.190715
O33	O	1.453640	-0.518984	-0.399674
O34	O	1.953640	-0.018984	0.100326
C35	C	1.245302	-0.354485	-0.354509
C36	C	1.745302	0.145515	0.145491
C37	C	1.128525	-0.354499	-0.354520
C38	C	1.628525	0.145501	0.145480
C39	C	1.518159	-0.545701	-0.354488
C40	C	2.018159	-0.045701	0.145512
C41	C	1.518207	-0.627500	-0.354498
C42	C	2.018207	-0.127500	0.145502
C43	C	1.073672	-0.401628	-0.401503
C44	C	1.573672	0.098372	0.098497
C45	C	0.963948	-0.401631	-0.401517
C46	C	1.463948	0.098369	0.098483
C47	C	0.963940	-0.307375	-0.307560
C48	C	1.463940	0.192625	0.192440
C49	C	1.073662	-0.307369	-0.307550
C50	C	1.573662	0.192631	0.192450
C51	C	1.585546	-0.815684	-0.307519
C52	C	2.085546	-0.315684	0.192481
C53	C	1.585593	-0.892543	-0.307536
C54	C	2.085593	-0.392543	0.192464
C55	C	1.451128	-0.892553	-0.401581
C56	C	1.951128	-0.392553	0.098419
C57	C	1.451087	-0.815696	-0.401567
C58	C	1.951087	-0.315696	0.098433
C59	C	1.518294	-0.777263	-0.354531
C60	C	2.018294	-0.277263	0.145469
C61	C	1.518382	-0.930979	-0.354564
C62	C	2.018382	-0.430979	0.145436
C63	C	1.518433	-1.014313	-0.354583
C64	C	2.018433	-0.514313	0.145417
C65	C	1.518245	-0.693924	-0.354512
C66	C	2.018245	-0.193924	0.145488
C67	C	1.792303	-0.354504	-0.354539
C68	C	2.292303	0.145496	0.145461
C69	C	1.909079	-0.354508	-0.354545
C70	C	2.409079	0.145492	0.145455
C71	C	1.518333	-0.354444	-0.546477
C72	C	2.018333	0.145556	-0.046477
C73	C	1.518361	-0.354422	-0.628275
C74	C	2.018361	0.145578	-0.128275
C75	C	1.518409	-0.162542	-0.354575
C76	C	2.018409	0.337458	0.145425
C77	C	1.518469	-0.080743	-0.354597
C78	C	2.018469	0.419257	0.145403
C79	C	1.585616	-0.307311	-0.816487
C80	C	2.085616	0.192689	-0.316487
C81	C	1.585628	-0.307290	-0.893346
C82	C	2.085628	0.192710	-0.393346
C83	C	1.451180	-0.401419	-0.893302
C84	C	1.951180	0.098581	-0.393302
C85	C	1.451163	-0.401436	-0.816444
C86	C	1.951163	0.098564	-0.316444
C87	C	1.518387	-0.354383	-0.778039
C88	C	2.018387	0.145617	-0.278039
C89	C	1.518416	-0.354345	-0.931755
C90	C	2.018416	0.145655	-0.431755
C91	C	1.518430	-0.354322	-1.015089
C92	C	2.018430	0.145678	-0.515089
C93	C	1.518373	-0.354405	-0.694700
C94	C	2.018373	0.145595	-0.194700
C95	C	1.518266	-0.354492	-0.163317
C96	C	2.018266	0.145508	0.336683
C97	C	1.518442	-0.354306	-0.081519
C98	C	2.018442	0.145694	0.418481
H99	H	0.919292	-0.440006	-0.439776
H100	H	1.419292	0.059994	0.060224
H101	H	1.640371	-0.268958	-0.924647
H102	H	2.140371	0.231042	-0.424647
H103	H	1.396409	-0.923854	-0.439875
H104	H	1.896409	-0.423854	0.060125
O105	O	0.910481	-0.261665	-0.261959
O106	O	1.410481	0.238335	0.238041
C107	C	0.801875	-0.271761	-0.272054
C108	C	1.301875	0.228239	0.227946
H109	H	0.786872	-0.328589	-0.296049
H110	H	1.286872	0.171411	0.203951
H111	H	0.760141	-0.266695	-0.216944
H112	H	1.260141	0.233305	0.283056
H113	H	0.770789	-0.228165	-0.311332
H114	H	1.270789	0.271835	0.188668
H115	H	1.396452	-0.439730	-0.924581
H116	H	1.896452	0.060270	-0.424581
O117	O	1.385656	-0.778483	-0.447261
O118	O	1.885656	-0.278483	0.052739
C119	C	1.326358	-0.828883	-0.488787
C120	C	1.826358	-0.328883	0.011213
H121	H	1.322769	-0.883694	-0.458653
H122	H	1.822769	-0.383694	0.041347
H123	H	1.243564	-0.806715	-0.496581
H124	H	1.743564	-0.306715	0.003419
H125	H	1.364788	-0.836995	-0.544706
H126	H	1.864788	-0.336995	-0.044706
H127	H	1.640351	-0.268996	-0.785220
H128	H	2.140351	0.231004	-0.285220
H129	H	1.396410	-0.439768	-0.785139
H130	H	1.896410	0.060232	-0.285139
H131	H	1.118325	-0.268986	-0.269291
H132	H	1.618325	0.231014	0.230709
O133	O	1.650804	-0.929968	-0.261871
O134	O	2.150804	-0.429968	0.238129
C135	C	1.591106	-0.974515	-0.214296
C136	C	2.091106	-0.474515	0.285704
H137	H	1.511441	-0.986038	-0.240167
H138	H	2.011441	-0.486038	0.259833
H139	H	1.633949	-1.028551	-0.204535
H140	H	2.133949	-0.528551	0.295465
H141	H	1.579657	-0.944981	-0.159717
H142	H	2.079657	-0.444981	0.340283
H143	H	1.118339	-0.440003	-0.439750
H144	H	1.618339	0.059997	0.060250
H145	H	1.640271	-0.784394	-0.269221
H146	H	2.140271	-0.284394	0.230779
