data_functionalizedCrystal
_audit_creation_method	'MofGen! by Chris Wilmer'
_symmetry_space_group_name_H-M	'P1'
_symmetry_Int_Tables_number	1
_symmetry_cell_setting	triclinic
loop_
_symmetry_equiv_pos_as_xyz
  x,y,z
_cell_length_a	19.805405
_cell_length_b	12.759401
_cell_length_c	12.759393
_cell_angle_alpha	90.020566
_cell_angle_beta	89.963446
_cell_angle_gamma	89.975381
loop_
_atom_site_label
_atom_site_type_symbol
_atom_site_fract_x
_atom_site_fract_y
_atom_site_fract_z
Zn1	Zn	-0.269463	-1.606181	-0.593965
Zn2	Zn	-0.382666	-1.606036	-0.418267
Zn3	Zn	-0.269492	-1.430480	-0.418302
Zn4	Zn	-0.382612	-1.430436	-0.593905
O5	O	-0.326058	-1.518283	-0.506110
O6	O	-0.284490	-1.753183	-0.570669
O7	O	-0.367688	-1.582706	-0.271250
O8	O	-0.174772	-1.453866	-0.441644
O9	O	-0.367659	-1.753076	-0.441584
O10	O	-0.174750	-1.582953	-0.570703
O11	O	-0.284540	-1.453725	-0.271276
O12	O	-0.284488	-1.283453	-0.441585
O13	O	-0.367567	-1.453791	-0.740934
O14	O	-0.367596	-1.283420	-0.570600
O15	O	-0.284437	-1.582910	-0.740979
O16	O	-0.477375	-1.582663	-0.441526
O17	O	-0.477335	-1.453650	-0.570567
C18	C	-0.326040	-1.245316	-0.506091
C19	C	-0.326048	-1.128539	-0.506108
C20	C	-0.282819	-1.073733	-0.573425
C21	C	-0.282823	-0.964009	-0.573430
C22	C	-0.369292	-0.963906	-0.438798
C23	C	-0.369284	-1.073629	-0.438788
C24	C	-0.501914	-1.518165	-0.506059
C25	C	-0.577146	-1.518210	-0.506072
C26	C	-0.612488	-1.585453	-0.438951
C27	C	-0.683177	-1.585497	-0.438974
C28	C	-0.718522	-1.518293	-0.506114
C29	C	-0.683174	-1.451048	-0.573243
C30	C	-0.612487	-1.451010	-0.573224
C31	C	-0.968248	-1.451203	-0.573321
C32	C	-1.038940	-1.451245	-0.573332
C33	C	-1.038937	-1.585691	-0.439071
C34	C	-0.968250	-1.585652	-0.439052
C35	C	-0.932909	-1.518411	-0.506184
C36	C	-0.856261	-1.518365	-0.506160
C37	C	-0.795169	-1.518334	-0.506134
C38	C	-0.149515	-1.518430	-0.506184
C39	C	-0.074283	-1.518493	-0.506215
C40	C	-0.325993	-1.518362	-0.780143
C41	C	-0.325965	-1.518395	-0.896920
C42	C	-0.326071	-0.792316	-0.506126
C43	C	-0.326060	-0.909093	-0.506122
C44	C	-0.282673	-1.585633	-0.951807
C45	C	-0.282644	-1.585650	-1.061531
C46	C	-0.369206	-1.451190	-1.061472
C47	C	-0.369231	-1.451168	-0.951750
C48	C	-0.326074	-1.518265	-0.233142
C49	C	-0.325911	-1.518435	-0.116366
H50	H	-0.583715	-1.640173	-0.384274
O51	O	-0.411365	-0.910516	-0.373565
C52	C	-0.455121	-0.847037	-0.433263
H53	H	-0.459363	-0.880141	-0.515994
H54	H	-0.507181	-0.845749	-0.395117
H55	H	-0.434203	-0.763892	-0.436951
O56	O	-0.411344	-1.126712	-0.373359
C57	C	-0.449499	-1.054721	-0.313931
H58	H	-0.451885	-0.976524	-0.356962
H59	H	-0.502815	-1.086397	-0.302568
H60	H	-0.424651	-1.043028	-0.234211
O61	O	-0.411164	-1.385746	-1.114688
C62	C	-0.396382	-1.281042	-1.087848
H63	H	-0.342315	-1.275775	-1.057713
H64	H	-0.402194	-1.229147	-1.159995
H65	H	-0.432681	-1.253536	-1.024137
H66	H	-0.247620	-0.919391	-0.628245
O67	O	-0.717633	-1.650746	-0.373861
C68	C	-0.758649	-1.591114	-0.305941
H69	H	-0.769213	-1.511408	-0.342802
H70	H	-0.808360	-1.633963	-0.292133
H71	H	-0.731542	-1.579752	-0.227968
H72	H	-0.247389	-1.640400	-1.106215
O73	O	-0.240544	-1.650815	-0.898593
C74	C	-0.173079	-1.627928	-0.925454
H75	H	-0.169652	-1.544004	-0.955602
H76	H	-0.139654	-1.636993	-0.853316
H77	H	-0.155376	-1.684280	-0.989163
O78	O	-0.934021	-1.651034	-0.373800
C79	C	-0.980374	-1.710378	-0.314543
H80	H	-1.030739	-1.714020	-0.357590
H81	H	-0.959914	-1.793150	-0.303407
H82	H	-0.987951	-1.671953	-0.234716
O83	O	-0.411386	-1.385964	-0.898472
C84	C	-0.478842	-1.408852	-0.925272
H85	H	-0.482261	-1.492786	-0.955450
H86	H	-0.512294	-1.399761	-0.853095
H87	H	-0.496517	-1.352519	-0.988941
H88	H	-1.067720	-1.640446	-0.384413
O89	O	-1.073305	-1.385854	-0.638412
C90	C	-1.114271	-1.318063	-0.578553
H91	H	-1.093011	-1.311592	-0.495799
H92	H	-1.115099	-1.237195	-0.616492
H93	H	-1.167828	-1.350582	-0.574967
H94	H	-0.939478	-1.396451	-0.627980
O95	O	-0.240755	-1.126912	-0.638845
C96	C	-0.202613	-1.055004	-0.698280
H97	H	-0.200241	-0.976774	-0.655258
H98	H	-0.149291	-1.086737	-0.709639
H99	H	-0.227462	-1.043355	-0.778002
H100	H	-0.711958	-1.396334	-0.627914
O101	O	-0.578258	-1.385594	-0.638462
C102	C	-0.624610	-1.326307	-0.697747
H103	H	-0.675021	-1.322709	-0.654721
H104	H	-0.604219	-1.243516	-0.708888
H105	H	-0.632071	-1.364752	-0.777571
