data_functionalizedCrystal
_audit_creation_method	'MofGen! by Chris Wilmer'
_symmetry_space_group_name_H-M	'P1'
_symmetry_Int_Tables_number	1
_symmetry_cell_setting	triclinic
loop_
_symmetry_equiv_pos_as_xyz
  x,y,z
_cell_length_a	10.489741
_cell_length_b	10.489741
_cell_length_c	9.565339
_cell_angle_alpha	89.999484
_cell_angle_beta	89.999100
_cell_angle_gamma	95.460826
loop_
_atom_site_label
_atom_site_type_symbol
_atom_site_fract_x
_atom_site_fract_y
_atom_site_fract_z
O1	O	1.694053	-0.179959	-0.116173
O2	O	1.322857	-0.196852	-0.116194
O3	O	1.516901	-0.002807	-0.116175
O4	O	1.500009	-0.374003	-0.116192
O5	O	1.516886	-0.002819	0.116345
O6	O	1.322842	-0.196864	0.116326
O7	O	1.694038	-0.179971	0.116347
Zn8	Zn	1.508437	-0.188419	0.153254
Zn9	Zn	1.508458	-0.188403	-0.153101
O10	O	1.499993	-0.374015	0.116328
C11	C	1.275318	-0.195582	0.000063
C12	C	1.133688	-0.191765	0.000055
C13	C	1.065548	-0.068300	0.000074
C14	C	0.973429	-0.126617	-0.114571
C15	C	0.973448	-0.126659	0.114676
C16	C	1.043435	-0.250133	-0.114684
C17	C	1.043463	-0.250157	0.114665
C18	C	0.951371	-0.308564	-0.000007
C19	C	1.515618	0.044718	0.000084
C20	C	1.511801	0.186348	0.000082
C21	C	1.741577	-0.181241	0.000087
C22	C	1.883206	-0.185058	0.000086
C23	C	1.501277	-0.421541	0.000066
C24	C	1.505094	-0.563170	0.000059
N25	N	1.508433	-0.188429	0.362334
C26	C	1.388336	0.254488	0.000064
C27	C	1.446652	0.346604	0.114712
C28	C	1.446696	0.346591	-0.114534
C29	C	1.570168	0.276599	0.114824
C30	C	1.570195	0.276576	-0.114525
C31	C	1.628600	0.368665	0.000150
N32	N	1.508472	-0.188383	-0.362180
C33	C	1.418666	-0.278138	0.453528
C34	C	1.534163	-0.303949	0.546712
C35	C	1.392986	-0.162629	0.546704
C36	C	1.623988	-0.214298	0.453466
C37	C	1.482735	-0.072928	0.453451
C38	C	1.598314	-0.098690	0.546593
H39	H	0.942421	-0.074372	-0.211491
H40	H	1.721659	-0.236217	0.412683
N41	N	1.084262	-0.319271	-0.243219
H42	H	1.180319	-0.321390	-0.242460
H43	H	1.058112	-0.272939	-0.329630
H44	H	1.674328	-0.022802	0.587199
H45	H	0.942463	-0.074401	0.211599
N46	N	1.377480	0.387629	-0.242922
H47	H	1.423204	0.360922	-0.329510
H48	H	1.376140	0.483771	-0.242326
H49	H	1.115238	0.033196	-0.000065
H50	H	1.622356	0.245762	0.211859
N51	N	1.639354	0.235459	-0.242907
H52	H	1.592645	0.260645	-0.329469
H53	H	1.642136	0.139493	-0.241330
N54	N	1.253876	0.188717	0.000191
H55	H	1.207402	0.214007	0.086872
H56	H	1.257508	0.092854	-0.000747
N57	N	0.885890	-0.443142	-0.000086
H58	H	0.911329	-0.489589	-0.086722
H59	H	0.789999	-0.439722	0.000794
H60	H	1.394405	0.377611	0.211633
N61	N	1.263642	-0.133732	0.600942
H62	H	1.273618	-0.052991	0.659024
H63	H	1.226057	-0.207465	0.660488
H64	H	1.730204	0.418089	0.000220
N65	N	1.084540	-0.319342	0.243046
H66	H	1.059341	-0.272640	0.329609
H67	H	1.180503	-0.322151	0.241502
N68	N	1.318192	-0.378708	0.399403
H69	H	1.337791	-0.465908	0.433335
H70	H	1.318371	-0.377362	0.293828
N71	N	1.563002	-0.433299	0.600977
H72	H	1.495134	-0.501026	0.567134
H73	H	1.563657	-0.431957	0.706551
H74	H	1.460936	0.024699	0.412454
