data_functionalizedCrystal
_audit_creation_method	'MofGen! by Chris Wilmer'
_symmetry_space_group_name_H-M	'P1'
_symmetry_Int_Tables_number	1
_symmetry_cell_setting	triclinic
loop_
_symmetry_equiv_pos_as_xyz
  x,y,z
_cell_length_a	16.109301
_cell_length_b	15.995350
_cell_length_c	14.586319
_cell_angle_alpha	89.998440
_cell_angle_beta	89.999213
_cell_angle_gamma	83.476928
loop_
_atom_site_label
_atom_site_type_symbol
_atom_site_fract_x
_atom_site_fract_y
_atom_site_fract_z
O1	O	1.103160	0.107624	-0.076178
O2	O	0.861101	0.121018	-0.076192
O3	O	0.988747	-0.007569	-0.076184
O4	O	0.975514	0.236210	-0.076186
O5	O	0.988739	-0.007570	0.076297
O6	O	0.861093	0.121016	0.076289
O7	O	1.103151	0.107622	0.076303
Cu8	Cu	0.982121	0.114319	0.090219
Cu9	Cu	0.982131	0.114321	-0.090107
O10	O	0.975505	0.236208	0.076295
C11	C	0.830122	0.120474	0.000047
C12	C	0.737826	0.118848	0.000041
C13	C	0.988196	-0.038764	0.000055
C14	C	0.986556	-0.131714	0.000050
C15	C	0.515573	0.191366	0.000051
C16	C	0.428853	0.189831	0.000057
C17	C	0.448686	0.037268	0.000055
C18	C	0.535405	0.038804	0.000055
C19	C	0.568846	0.115855	0.000049
C20	C	0.395406	0.112785	0.000054
C21	C	0.301380	0.111120	0.000061
C22	C	0.662879	0.117520	0.000044
C23	C	0.980665	-0.469460	0.000053
C24	C	0.889758	-0.422001	-0.000295
C25	C	0.891399	-0.325311	0.000049
C26	C	0.983587	-0.301900	0.000051
C27	C	1.028421	-0.342991	0.087126
C28	C	1.026137	-0.439626	0.087198
C29	C	1.028025	-0.439983	-0.086201
C30	C	1.028003	-0.343037	-0.087351
C31	C	0.985243	-0.207203	0.000053
C32	C	0.979012	-0.564157	0.000057
C33	C	1.134130	0.108166	0.000062
C34	C	1.226426	0.109792	0.000062
C35	C	0.976056	0.267404	0.000054
C36	C	0.977697	0.360354	0.000053
N37	N	0.982120	0.114317	0.217050
N38	N	0.982139	0.114317	-0.216939
C39	C	1.038660	0.057398	0.452061
C40	C	1.038662	0.057396	0.548042
C41	C	0.925593	0.171238	0.548044
C42	C	0.925587	0.171236	0.452064
C43	C	0.982125	0.114316	0.404075
C44	C	0.982134	0.114317	0.596036
C45	C	0.982136	0.114315	0.700103
C46	C	0.982122	0.114317	0.300001
H47	H	0.385481	0.251320	0.000061
H48	H	0.578782	-0.022690	0.000056
C49	C	0.863414	0.233852	0.600835
H50	H	0.871519	0.225709	0.664870
H51	H	0.807927	0.224746	0.585114
H52	H	0.872449	0.289737	0.585098
H53	H	0.856156	-0.296879	-0.062370
C54	C	1.119916	-0.323942	0.091511
H55	H	1.145846	-0.349376	0.144668
H56	H	1.121510	-0.264805	0.094119
H57	H	1.148846	-0.345910	0.038448
C58	C	0.981954	-0.464347	0.175117
H59	H	0.980174	-0.523506	0.175939
H60	H	0.926637	-0.436532	0.176468
H61	H	1.011806	-0.448262	0.227190
H62	H	0.997274	-0.314602	0.151923
C63	C	0.840668	-0.447028	-0.084640
H64	H	0.875169	-0.486649	-0.120399
H65	H	0.823951	-0.398448	-0.120499
H66	H	0.792602	-0.471451	-0.065054
C67	C	0.411901	-0.047484	0.000051
H68	H	0.456051	-0.092235	0.000057
H69	H	0.378486	-0.051251	-0.053124
H70	H	0.378483	-0.051257	0.053230
C71	C	1.100847	-0.005209	0.399271
H72	H	1.092756	0.002947	0.335236
H73	H	1.091826	-0.061095	0.415002
H74	H	1.156333	0.003911	0.415000
H75	H	0.853581	-0.441586	0.061797
H76	H	0.879546	0.217586	0.412992
H77	H	0.542798	0.254106	0.000053
H78	H	0.855912	-0.297438	0.062570
H79	H	1.092879	-0.471892	0.091150
C80	C	0.987884	-0.467712	-0.175361
H81	H	1.017398	-0.449299	-0.226572
H82	H	0.931250	-0.443634	-0.178039
H83	H	0.990249	-0.527320	-0.176480
C84	C	0.983788	-0.306143	-0.174376
H85	H	0.938450	-0.265834	-0.157525
H86	H	0.963368	-0.350037	-0.208567
H87	H	1.022268	-0.279778	-0.210718
C88	C	1.118824	-0.322317	-0.094454
H89	H	1.130899	-0.288159	-0.043980
H90	H	1.125870	-0.292973	-0.150028
H91	H	1.155741	-0.373044	-0.093713
H92	H	1.084697	0.011047	0.587109
H93	H	1.095050	-0.471762	-0.086785
