data_functionalizedCrystal
_audit_creation_method	'MofGen! by Chris Wilmer'
_symmetry_space_group_name_H-M	'P1'
_symmetry_Int_Tables_number	1
_symmetry_cell_setting	triclinic
loop_
_symmetry_equiv_pos_as_xyz
  x,y,z
_cell_length_a	12.759401
_cell_length_b	18.050589
_cell_length_c	12.759393
_cell_angle_alpha	90.030621
_cell_angle_beta	90.018496
_cell_angle_gamma	90.028382
loop_
_atom_site_label
_atom_site_type_symbol
_atom_site_fract_x
_atom_site_fract_y
_atom_site_fract_z
Zn1	Zn	1.606157	-0.295612	0.593988
Zn2	Zn	1.606010	-0.419823	0.418311
Zn3	Zn	1.430459	-0.295651	0.418328
Zn4	Zn	1.430406	-0.419766	0.593953
O5	O	1.518258	-0.357713	0.506145
O6	O	1.753158	-0.312097	0.570692
O7	O	1.582683	-0.403391	0.271292
O8	O	1.453849	-0.191722	0.441651
O9	O	1.753050	-0.403354	0.441623
O10	O	1.582934	-0.191693	0.570708
O11	O	1.453706	-0.312163	0.271304
O12	O	1.283431	-0.312108	0.441617
O13	O	1.453759	-0.403256	0.740979
O14	O	1.283392	-0.403294	0.570648
O15	O	1.582882	-0.312041	0.741005
O16	O	1.582632	-0.523740	0.441589
O17	O	1.453616	-0.523698	0.570632
C18	C	1.245290	-0.357699	0.506131
C19	C	1.128514	-0.357711	0.506149
C20	C	1.073659	-0.405268	0.573225
C21	C	0.963935	-0.405277	0.573236
C22	C	0.963930	-0.310171	0.439088
C23	C	1.073652	-0.310159	0.439083
C24	C	1.128521	-0.452820	0.640292
C25	C	1.073666	-0.500382	0.707372
C26	C	0.963942	-0.500391	0.707383
C27	C	0.909072	-0.452839	0.640314
C28	C	1.518131	-0.550665	0.506127
C29	C	1.518173	-0.633211	0.506155
C30	C	1.448083	-0.832666	0.576304
C31	C	1.422469	-0.882114	0.480436
C32	C	1.518276	-0.784341	0.506169
C33	C	1.543942	-0.881974	0.602048
C34	C	1.518374	-0.930326	0.506191
C35	C	1.492611	-0.832703	0.410250
C36	C	1.614129	-0.832558	0.531927
C37	C	1.588551	-0.881985	0.435992
C38	C	1.518217	-0.700243	0.506158
C39	C	1.518433	-1.014423	0.506191
C40	C	1.792291	-0.357727	0.506160
C41	C	1.909068	-0.357733	0.506166
C42	C	1.518331	-0.357638	0.780178
C43	C	1.518363	-0.357606	0.896955
C44	C	1.518414	-0.164007	0.506185
C45	C	1.518480	-0.081462	0.506203
C46	C	1.518245	-0.357734	0.233178
C47	C	1.518417	-0.357557	0.116401
C48	C	1.585606	-0.310106	0.951832
C49	C	1.585631	-0.310079	1.061557
C50	C	1.451166	-0.405059	1.061516
C51	C	1.451136	-0.405081	0.951794
C52	C	1.652833	-0.262631	0.896993
C53	C	1.720083	-0.215128	0.951871
C54	C	1.720108	-0.215101	1.061595
C55	C	1.652883	-0.262577	1.116442
H56	H	1.118316	-0.271429	0.384472
O57	O	1.785473	-0.169058	1.115023
C58	C	1.853326	-0.211329	1.178468
H59	H	1.816229	-0.267603	1.194885
H60	H	1.931170	-0.219503	1.136189
C61	C	1.917965	-0.101326	1.262543
C62	C	1.872398	-0.170442	1.282714
H63	H	1.929734	-0.076105	1.326845
H64	H	1.872254	-0.072847	1.219796
H65	H	1.982829	-0.108148	1.227308
H66	H	1.807529	-0.163619	1.317936
H67	H	1.918098	-0.198919	1.325469
H68	H	0.919247	-0.271458	0.384483
O69	O	1.377091	-0.806948	0.646974
C70	C	1.326771	-0.867275	0.695895
H71	H	1.332218	-0.918163	0.643230
H72	H	1.366524	-0.879393	0.774054
C73	C	1.204052	-0.785559	0.779576
C74	C	1.210735	-0.848060	0.714888
H75	H	1.132477	-0.773706	0.791297
H76	H	1.237956	-0.744915	0.746621
H77	H	1.237186	-0.795666	0.844702
H78	H	1.177613	-0.837949	0.649760
H79	H	1.176823	-0.888701	0.747833
H80	H	1.341455	-0.903898	0.458669
O81	O	0.910539	-0.546622	0.772398
C82	C	0.847041	-0.594556	0.712468
H83	H	0.830583	-0.568295	0.632916
H84	H	0.889296	-0.649577	0.700783
C85	C	0.763049	-0.640316	0.867958
C86	C	0.742827	-0.608060	0.770254
H87	H	0.698767	-0.648650	0.903604
H88	H	0.805831	-0.608025	0.908335
H89	H	0.798263	-0.686164	0.858207
H90	H	0.707626	-0.562210	0.780007
H91	H	0.700037	-0.640344	0.729880
H92	H	1.118347	-0.539092	0.761983
O93	O	1.785523	-0.169046	0.898712
C94	C	1.890230	-0.185287	0.925507
H95	H	1.892404	-0.213817	1.005165
H96	H	1.925570	-0.223486	0.863746
C97	C	1.951259	-0.077850	0.832763
C98	C	1.953930	-0.112885	0.930605
H99	H	1.990555	-0.033190	0.835903
H100	H	1.880717	-0.066909	0.814707
H101	H	1.980707	-0.109690	0.781306
H102	H	1.924471	-0.081049	0.982057
H103	H	2.024469	-0.123819	0.948670
H104	H	1.695124	-0.810777	0.553739
H105	H	1.470848	-0.811149	0.329152
H106	H	1.652822	-0.262649	0.807650
H107	H	0.819728	-0.452844	0.640338
O108	O	1.659298	-0.907629	0.365027
C109	C	1.631915	-0.882373	0.264125
H110	H	1.544741	-0.868645	0.262049
H111	H	1.679250	-0.830600	0.244645
C112	C	1.762889	-0.960128	0.185571
C113	C	1.655818	-0.943273	0.183019
H114	H	1.777638	-0.997692	0.135539
H115	H	1.781341	-0.977142	0.253550
H116	H	1.802322	-0.916979	0.169341
H117	H	1.616388	-0.986420	0.199262
H118	H	1.637360	-0.926268	0.115040
O119	O	1.569677	-0.907708	0.698847
C120	C	1.495396	-0.882594	0.772518
H121	H	1.455358	-0.830635	0.741345
H122	H	1.434232	-0.927618	0.786213
C123	C	1.600141	-0.928346	0.914887
C124	C	1.550971	-0.864525	0.876604
H125	H	1.634420	-0.917204	0.979094
H126	H	1.650184	-0.945268	0.865254
H127	H	1.549162	-0.965860	0.926291
H128	H	1.601952	-0.827016	0.865188
H129	H	1.500938	-0.847596	0.926238
H130	H	1.396364	-0.443749	0.907112
O131	O	1.385926	-0.451283	1.114675
C132	C	1.408839	-0.525307	1.087857
H133	H	1.449201	-0.526864	1.008192
H134	H	1.462854	-0.550311	1.149602
C135	C	1.256806	-0.568378	1.180616
C136	C	1.306372	-0.570290	1.082766
H137	H	1.193602	-0.596127	1.177480
H138	H	1.241371	-0.518506	1.198688
H139	H	1.301829	-0.589213	1.232060
H140	H	1.261354	-0.549447	1.031326
H141	H	1.321797	-0.620159	1.064685
H142	H	1.652896	-0.262543	1.205786
H143	H	1.217863	-0.452820	0.640288
