data_functionalizedCrystal
_audit_creation_method	'MofGen! by Chris Wilmer'
_symmetry_space_group_name_H-M	'P1'
_symmetry_Int_Tables_number	1
_symmetry_cell_setting	triclinic
loop_
_symmetry_equiv_pos_as_xyz
  x,y,z
_cell_length_a	16.109301
_cell_length_b	12.503552
_cell_length_c	16.109301
_cell_angle_alpha	86.481367
_cell_angle_beta	83.461532
_cell_angle_gamma	93.519472
loop_
_atom_site_label
_atom_site_type_symbol
_atom_site_fract_x
_atom_site_fract_y
_atom_site_fract_z
O1	O	1.107929	0.089253	0.102063
O2	O	0.865868	0.089270	0.115362
O3	O	0.993548	0.089254	-0.012318
O4	O	0.980250	0.089269	0.229743
O5	O	0.983935	-0.089388	-0.002707
O6	O	0.856255	-0.089372	0.124973
O7	O	1.098316	-0.089389	0.111674
Cu8	Cu	0.976408	-0.105691	0.119201
Cu9	Cu	0.987777	0.105573	0.107835
O10	O	0.970636	-0.089373	0.239354
C11	C	0.830087	-0.000049	0.119628
C12	C	0.737792	-0.000042	0.118013
N13	N	0.968418	-0.254283	0.127194
C14	C	0.515519	-0.000050	0.190021
C15	C	0.428798	-0.000057	0.188497
C16	C	0.448672	-0.000062	0.037009
C17	C	0.535391	-0.000063	0.038534
C18	C	0.568812	-0.000052	0.115042
C19	C	0.395373	-0.000058	0.111993
C20	C	0.301346	-0.000065	0.110341
C21	C	0.662845	-0.000046	0.116695
C22	C	1.007523	-0.526721	0.088073
C23	C	0.956671	-0.473391	0.138953
C24	C	0.963208	-0.351468	0.132409
C25	C	1.000987	-0.648655	0.094617
C26	C	1.134098	-0.000068	0.107407
C27	C	1.226393	-0.000067	0.109023
C28	C	0.988203	-0.000066	-0.038487
C29	C	0.986588	-0.000065	-0.130783
N30	N	0.995774	0.254164	0.099835
C31	C	1.057071	-0.000051	-0.439782
C32	C	1.058596	-0.000058	-0.353061
C33	C	0.907108	-0.000061	-0.333188
C34	C	0.905583	-0.000063	-0.419906
C35	C	0.980568	-0.000052	-0.473202
C36	C	0.983617	-0.000057	-0.299763
C37	C	0.985270	-0.000064	-0.205736
C38	C	0.978915	-0.000047	-0.567234
C39	C	0.975982	-0.000050	0.265523
C40	C	0.977597	-0.000044	0.357818
H41	H	0.385410	-0.000059	0.249553
O42	O	1.065344	-0.472128	0.030180
C43	C	1.111364	-0.545719	-0.015829
H44	H	1.073044	-0.625924	-0.012528
H45	H	1.172503	-0.557626	0.011783
C46	C	1.177874	-0.403169	-0.111896
C47	C	1.130806	-0.501676	-0.107849
H48	H	1.189870	-0.376001	-0.168658
H49	H	1.146872	-0.353589	-0.080898
H50	H	1.228817	-0.413105	-0.088882
H51	H	1.079859	-0.491737	-0.130853
H52	H	1.161799	-0.551254	-0.138853
H53	H	0.421450	-0.000078	-0.025281
H54	H	1.118129	-0.000043	-0.483173
O55	O	0.547893	0.000095	0.264383
C56	C	0.525648	0.092627	0.305106
H57	H	0.467169	0.123473	0.280801
H58	H	0.579315	0.157413	0.291985
C59	C	0.579669	0.026635	0.429998
C60	C	0.507841	0.064515	0.400151
H61	H	0.568689	0.009297	0.488627
H62	H	0.594660	-0.035704	0.402562
H63	H	0.624385	0.080630	0.419056
H64	H	0.463130	0.010515	0.411084
H65	H	0.492842	0.126844	0.427592
H66	H	0.578785	-0.000067	-0.022527
H67	H	0.908226	-0.519300	0.187428
H68	H	1.120893	-0.000059	-0.325855
O69	O	0.834351	-0.000015	-0.281300
C70	C	0.852098	-0.000037	-0.197591
H71	H	0.919220	0.033784	-0.196106
H72	H	0.844332	-0.085739	-0.167901
C73	C	0.708865	0.028482	-0.150090
C74	C	0.791303	0.070030	-0.148265
H75	H	0.671361	0.071699	-0.119661
H76	H	0.696907	0.028493	-0.206485
H77	H	0.702405	-0.042935	-0.125350
H78	H	0.797764	0.141441	-0.173014
H79	H	0.803260	0.070033	-0.091872
H80	H	0.843281	-0.000068	-0.447116
