data_functionalizedCrystal
_audit_creation_method	'MofGen! by Chris Wilmer'
_symmetry_space_group_name_H-M	'P1'
_symmetry_Int_Tables_number	1
_symmetry_cell_setting	triclinic
loop_
_symmetry_equiv_pos_as_xyz
  x,y,z
_cell_length_a	12.837943
_cell_length_b	10.540539
_cell_length_c	11.892095
_cell_angle_alpha	93.930600
_cell_angle_beta	85.689438
_cell_angle_gamma	89.677216
loop_
_atom_site_label
_atom_site_type_symbol
_atom_site_fract_x
_atom_site_fract_y
_atom_site_fract_z
O1	O	1.384471	0.322967	-0.093973
O2	O	1.082545	0.306651	-0.093980
O3	O	1.240396	0.130859	-0.093975
O4	O	1.226620	0.498759	-0.093978
O5	O	1.227234	0.145491	0.094032
O6	O	1.069383	0.321283	0.094027
O7	O	1.371309	0.337599	0.094034
Zn8	Zn	1.218257	0.331764	0.123881
Zn9	Zn	1.235597	0.312486	-0.123827
O10	O	1.213458	0.513391	0.094029
C11	C	1.037303	0.308455	0.000023
C12	C	0.922104	0.292017	0.000020
C13	C	1.232782	0.090759	0.000027
C14	C	1.229692	-0.050529	0.000020
C15	C	0.682608	0.489636	0.000034
C16	C	0.574368	0.474197	0.000032
C17	C	0.597382	0.245700	0.000022
C18	C	0.705621	0.261139	0.000024
C19	C	0.748231	0.383111	0.000028
C20	C	0.856473	0.398549	0.000022
C21	C	0.879484	0.170054	0.000020
C22	C	0.771244	0.154614	0.000018
C23	C	1.111279	-0.247002	-0.000404
C24	C	1.114382	-0.100007	0.000019
C25	C	1.277668	-0.097735	0.107383
C26	C	1.273726	-0.244704	0.107473
C27	C	1.291038	-0.261604	-0.106326
C28	C	1.292200	-0.114616	-0.107745
C29	C	1.416551	0.335795	0.000029
C30	C	1.531751	0.352232	0.000025
C31	C	1.221072	0.553491	0.000025
C32	C	1.224163	0.694779	0.000024
N33	N	1.206429	0.344921	0.292934
N34	N	1.247433	0.299320	-0.292880
C35	C	1.329731	0.207693	0.529586
C36	C	1.321471	0.216900	0.647928
C37	C	1.181647	0.372535	0.647961
C38	C	1.189906	0.363328	0.529620
C39	C	1.263952	0.280906	0.470436
C40	C	1.272215	0.271706	0.352093
C41	C	1.132387	0.427334	0.352128
C42	C	1.124127	0.436540	0.470470
H43	H	0.891163	0.497865	0.000027
O44	O	0.950266	0.055151	0.000026
H45	H	0.940377	-0.008552	-0.076608
O46	O	0.503582	0.589088	0.000041
H47	H	0.524195	0.640873	-0.076588
H48	H	1.332509	0.204598	0.303907
O49	O	1.389464	-0.055384	0.112683
H50	H	1.421519	-0.089955	0.189277
O51	O	1.058070	-0.299476	-0.102374
H52	H	1.104428	-0.275573	-0.180521
O53	O	0.725287	0.023063	0.000014
H54	H	0.638996	0.030220	0.000009
O55	O	1.044277	0.525450	0.534304
H56	H	0.989688	0.470045	0.588240
H57	H	1.376723	-0.081663	-0.114226
O58	O	1.401428	-0.312119	-0.107298
H59	H	1.408682	-0.368024	-0.032449
H60	H	0.717301	0.588951	0.000036
O61	O	1.063661	-0.057843	-0.101908
H62	H	1.036687	-0.142503	-0.151945
O63	O	1.409588	0.118803	0.465740
H64	H	1.453940	0.069435	0.526754
H65	H	1.060554	-0.276235	0.076154
O66	O	1.245868	-0.074483	-0.212964
H67	H	1.178605	-0.009158	-0.188621
O68	O	0.551412	0.114155	0.000026
H69	H	0.572339	0.068305	0.076659
H70	H	1.375034	0.157281	0.696085
H71	H	1.065016	-0.057082	0.077107
O72	O	1.211951	-0.279770	0.213768
H73	H	1.185165	-0.191803	0.264619
O74	O	1.383113	-0.295688	0.113955
H75	H	1.438589	-0.215357	0.117021
O76	O	1.101788	0.461428	0.711802
H77	H	1.107103	0.455530	0.804029
H78	H	1.078828	0.486952	0.303955
H79	H	1.233527	-0.053152	0.187277
H80	H	1.259415	-0.303591	-0.187700
