data_functionalizedCrystal
_audit_creation_method	'MofGen! by Chris Wilmer'
_symmetry_space_group_name_H-M	'P1'
_symmetry_Int_Tables_number	1
_symmetry_cell_setting	triclinic
loop_
_symmetry_equiv_pos_as_xyz
  x,y,z
_cell_length_a	12.759400
_cell_length_b	12.759401
_cell_length_c	21.395355
_cell_angle_alpha	89.976122
_cell_angle_beta	90.013847
_cell_angle_gamma	89.986380
loop_
_atom_site_label
_atom_site_type_symbol
_atom_site_fract_x
_atom_site_fract_y
_atom_site_fract_z
Zn1	Zn	-0.418418	-1.606285	0.354270
Zn2	Zn	-0.594082	-1.606171	0.249502
Zn3	Zn	-0.418415	-1.430578	0.249508
Zn4	Zn	-0.594052	-1.430576	0.354243
O5	O	-0.506242	-1.518402	0.301881
O6	O	-0.441734	-1.753291	0.340381
O7	O	-0.570791	-1.582831	0.161825
O8	O	-0.271394	-1.453935	0.263420
O9	O	-0.570794	-1.753207	0.263408
O10	O	-0.271396	-1.583026	0.340388
O11	O	-0.441729	-1.453824	0.161830
O12	O	-0.441699	-1.283557	0.263393
O13	O	-0.570742	-1.453931	0.441925
O14	O	-0.570739	-1.283555	0.340341
O15	O	-0.441705	-1.583024	0.441945
O16	O	-0.741099	-1.582829	0.263381
O17	O	-0.741077	-1.453820	0.340334
C18	C	-0.506217	-1.245435	0.301865
C19	C	-0.506231	-1.128658	0.301873
C20	C	-0.573324	-1.073756	0.261738
C21	C	-0.573339	-0.964032	0.261747
C22	C	-0.439161	-0.964122	0.342029
C23	C	-0.439151	-1.073844	0.342023
C24	C	-0.640403	-1.128571	0.221589
C25	C	-0.707501	-1.073668	0.181449
C26	C	-0.707516	-0.963944	0.181459
C27	C	-0.640435	-0.909122	0.221607
C28	C	-0.779209	-1.518340	0.301868
C29	C	-0.895986	-1.518410	0.301883
C30	C	-0.950825	-1.585659	0.261858
C31	C	-1.060549	-1.585724	0.261877
C32	C	-1.060585	-1.451280	0.341949
C33	C	-0.950863	-1.451222	0.341932
C34	C	-0.895947	-1.652847	0.221809
C35	C	-0.950786	-1.720101	0.181780
C36	C	-1.060510	-1.720166	0.181799
C37	C	-1.115395	-1.652976	0.221848
C38	C	-0.232208	-1.518494	0.301908
C39	C	-0.115432	-1.518533	0.301919
C40	C	-0.506221	-1.518490	0.465304
C41	C	-0.506211	-1.518527	0.534945
C42	C	-0.506262	-0.792436	0.301893
C43	C	-0.506256	-0.909212	0.301889
C44	C	-0.506187	-1.518376	0.139093
C45	C	-0.505900	-1.518542	0.069452
C46	C	-0.439019	-1.585743	0.567670
C47	C	-0.438974	-1.585741	0.633106
C48	C	-0.506140	-1.518535	0.665814
C49	C	-0.573337	-1.451306	0.633081
C50	C	-0.573373	-1.451302	0.567647
C51	C	-0.600739	-1.510218	0.769484
C52	C	-0.600705	-1.510229	0.834917
C53	C	-0.506029	-1.518542	0.867635
C54	C	-0.411384	-1.526864	0.834911
C55	C	-0.411420	-1.526860	0.769477
C56	C	-0.506108	-1.518532	0.736766
C57	C	-0.438781	-1.585759	0.971312
C58	C	-0.438734	-1.585751	1.036749
C59	C	-0.573108	-1.451321	1.036723
C60	C	-0.573145	-1.451324	0.971288
C61	C	-0.505984	-1.518549	0.938586
H62	H	-0.384545	-0.919478	0.374715
H63	H	-0.762157	-0.919246	0.148780
F64	F	-0.367745	-1.132279	0.384740
H65	H	-0.806604	-1.652799	0.221787
H66	H	-1.204740	-1.653042	0.221865
F67	F	-0.892372	-1.791613	0.139166
H68	H	-0.906213	-1.396462	0.374525
F69	F	-0.367438	-1.657267	0.667941
F70	F	-0.644817	-1.379777	0.667893
F71	F	-0.310695	-1.535713	0.734653
H72	H	-1.105157	-1.774934	0.149211
F73	F	-0.640391	-1.245348	0.221575
F74	F	-1.119002	-1.379776	0.384567
H75	H	-0.628088	-1.396562	0.541003
H76	H	-0.384329	-1.640481	0.541048
F77	F	-0.310615	-1.535716	0.869726
F78	F	-0.367299	-1.657300	0.936506
H79	H	-0.384012	-1.640484	1.063392
F80	F	-0.644584	-1.379787	1.071529
H81	H	-0.762123	-1.118311	0.148766
F82	F	-0.644666	-1.379787	0.936458
H83	H	-0.677770	-1.503458	0.861555
F84	F	-0.701515	-1.501394	0.734670
H85	H	-0.640460	-0.819778	0.221616
