data_functionalizedCrystal
_audit_creation_method	'MofGen! by Chris Wilmer'
_symmetry_space_group_name_H-M	'P1'
_symmetry_Int_Tables_number	1
_symmetry_cell_setting	triclinic
loop_
_symmetry_equiv_pos_as_xyz
  x,y,z
_cell_length_a	6.817900
_cell_length_b	12.908942
_cell_length_c	14.858340
_cell_angle_alpha	95.430322
_cell_angle_beta	104.519754
_cell_angle_gamma	100.860556
loop_
_atom_site_label
_atom_site_type_symbol
_atom_site_fract_x
_atom_site_fract_y
_atom_site_fract_z
V1	V	-4.024716	-0.146524	-0.289441
O2	O	-4.026157	0.006349	-0.284463
O3	O	-3.962889	-0.289866	-0.286949
O4	O	-3.981517	-0.144573	-0.415909
O5	O	-4.007400	-0.139949	-0.154610
V6	V	-4.509410	-0.128202	-0.273376
O7	O	-4.283406	-0.186713	-0.324680
O8	O	-4.700917	-0.088013	-0.238137
O9	O	-4.348030	0.015140	-0.275868
O10	O	-4.625365	-0.281075	-0.278353
O11	O	-4.644122	-0.134776	-0.408206
O12	O	-4.329402	-0.130153	-0.146907
C13	C	-3.804455	-0.324801	-0.282251
C14	C	-3.835226	-0.441987	-0.281057
C15	C	-4.256694	-0.672956	-0.288075
C16	C	-4.285615	-0.783064	-0.286953
C17	C	-3.921995	-0.772312	-0.277698
C18	C	-3.893074	-0.662205	-0.278820
C19	C	-4.060431	-0.612531	-0.284007
C20	C	-4.031503	-0.502420	-0.285122
C21	C	-3.667890	-0.491672	-0.275874
C22	C	-3.696811	-0.601779	-0.274752
C23	C	-3.828216	-0.139464	-0.446751
C24	C	-3.874091	-0.138817	-0.550137
C25	C	-3.911345	-0.138292	-0.634097
C26	C	-3.958096	-0.137627	-0.739428
C27	C	-3.995374	-0.137098	-0.823382
C28	C	-4.042130	-0.136436	-0.928721
C29	C	-4.169805	0.050069	-0.280563
C30	C	-4.118273	0.167255	-0.281763
C31	C	-4.146044	-0.135266	-0.116060
C32	C	-4.079408	-0.135906	-0.012674
H33	H	-4.167772	-0.461976	-0.289339
H34	H	-3.785755	-0.812778	-0.273484
H35	H	-3.560563	-0.642240	-0.270532
H36	H	-3.508073	-0.442461	-0.272560
F37	F	-4.494504	-0.847370	-0.291285
H38	H	-4.392955	-0.632508	-0.292284
