data_functionalizedCrystal
_audit_creation_method	'MofGen! by Chris Wilmer'
_symmetry_space_group_name_H-M	'P1'
_symmetry_Int_Tables_number	1
_symmetry_cell_setting	triclinic
loop_
_symmetry_equiv_pos_as_xyz
  x,y,z
_cell_length_a	19.077105
_cell_length_b	13.897447
_cell_length_c	19.076919
_cell_angle_alpha	87.725848
_cell_angle_beta	89.923776
_cell_angle_gamma	87.715989
loop_
_atom_site_label
_atom_site_type_symbol
_atom_site_fract_x
_atom_site_fract_y
_atom_site_fract_z
Zn1	Zn	1.058299	-0.466652	0.440432
Zn2	Zn	1.558299	0.033348	0.940432
Zn3	Zn	1.062948	-0.621745	0.322930
Zn4	Zn	1.562948	-0.121745	0.822930
Zn5	Zn	0.945516	-0.453730	0.318225
Zn6	Zn	1.445516	0.046270	0.818225
Zn7	Zn	0.940770	-0.621163	0.435682
Zn8	Zn	1.440770	-0.121163	0.935682
O9	O	1.001883	-0.540823	0.379317
O10	O	1.501883	-0.040823	0.879317
O11	O	1.157248	-0.492877	0.428802
O12	O	1.657248	0.007123	0.928802
O13	O	1.051303	-0.594293	0.223974
O14	O	1.551303	-0.094293	0.723974
O15	O	0.960517	-0.320466	0.334455
O16	O	1.460517	0.179534	0.834455
O17	O	1.160664	-0.606823	0.342473
O18	O	1.660664	-0.106823	0.842473
O19	O	1.043378	-0.329959	0.424240
O20	O	1.543378	0.170041	0.924240
O21	O	0.965026	-0.470853	0.220518
O22	O	1.465026	0.029147	0.720518
O23	O	0.846554	-0.470289	0.329849
O24	O	1.346554	0.029711	0.829849
O25	O	0.952429	-0.605831	0.534644
O26	O	1.452429	-0.105831	1.034644
O27	O	0.843068	-0.593302	0.416145
O28	O	1.343068	-0.093302	0.916145
O29	O	1.038777	-0.492313	0.538133
O30	O	1.538777	0.007687	1.038133
O31	O	1.046701	-0.756646	0.337868
O32	O	1.546701	-0.256646	0.837868
O33	O	0.956937	-0.756219	0.420707
O34	O	1.456937	-0.256219	0.920707
C35	C	0.819315	-0.530331	0.371971
C36	C	1.319315	-0.030331	0.871971
C37	C	0.741210	-0.525867	0.368845
C38	C	1.241210	-0.025867	0.868845
C39	C	0.702722	-0.587905	0.412236
C40	C	1.202722	-0.087905	0.912236
C41	C	0.629335	-0.583697	0.409302
C42	C	1.129335	-0.083697	0.909302
C43	C	0.594436	-0.517456	0.362974
C44	C	1.094436	-0.017456	0.862974
C45	C	0.632929	-0.455412	0.319582
C46	C	1.132929	0.044588	0.819582
C47	C	0.706316	-0.459615	0.322520
C48	C	1.206316	0.040385	0.822520
C49	C	0.375148	-0.498003	0.349381
C50	C	0.875148	0.001997	0.849381
C51	C	0.301757	-0.493807	0.346445
C52	C	0.801757	0.006193	0.846445
C53	C	0.298167	-0.622092	0.436166
C54	C	0.798167	-0.122092	0.936166
C55	C	0.371555	-0.626293	0.439097
C56	C	0.871555	-0.126293	0.939097
C57	C	0.410041	-0.564245	0.395707
C58	C	0.910041	-0.064245	0.895707
N59	N	0.519423	-0.513156	0.359972
N60	N	1.019423	-0.013156	0.859972
N61	N	0.485054	-0.568541	0.398713
N62	N	0.985054	-0.068541	0.898713
C63	C	1.001827	-0.791433	0.379299
C64	C	1.501827	-0.291433	0.879299
C65	C	1.001866	-0.898650	0.379317
C66	C	1.501866	-0.398650	0.879317
C67	C	1.001899	-0.985722	0.379334
C68	C	1.501899	-0.485722	0.879334
C69	C	1.001948	-1.094959	0.379354
C70	C	1.501948	-0.594959	0.879354
C71	C	1.185165	-0.551356	0.386692
C72	C	1.685165	-0.051356	0.886692
C73	C	1.263269	-0.555845	0.389835
C74	C	1.763269	-0.055845	0.889835
C75	C	0.994555	-0.550448	0.562598
C76	C	1.494555	-0.050448	1.062598
C77	C	0.991431	-0.554550	0.640701
C78	C	1.491431	-0.054550	1.140701
C79	C	1.001959	-0.289236	0.379352
C80	C	1.501959	0.210764	0.879352
C81	C	1.001991	-0.182024	0.379367
C82	C	1.501991	0.317976	0.879367
C83	C	1.009224	-0.531167	0.196751
C84	C	1.509224	-0.031167	0.696751
C85	C	1.012483	-0.526801	0.118654
C86	C	1.512483	-0.026801	0.618654
C87	C	1.034919	-0.497377	0.679212
C88	C	1.534919	0.002623	1.179212
C89	C	1.031976	-0.501227	0.752598
C90	C	1.531976	-0.001227	1.252598
C91	C	0.985548	-0.562256	0.787472
C92	C	1.485548	-0.062256	1.287472
C93	C	0.942056	-0.619432	0.748955
C94	C	1.442056	-0.119432	1.248955
C95	C	0.944996	-0.615576	0.675571
C96	C	1.444996	-0.115576	1.175571
C97	C	0.971932	-0.580121	1.006753
C98	C	1.471932	-0.080121	1.506753
C99	C	0.968996	-0.583974	1.080143
C100	C	1.468996	-0.083974	1.580143
C101	C	1.058915	-0.465768	1.083780
C102	C	1.558915	0.034232	1.583780
C103	C	1.061854	-0.461922	1.010394
C104	C	1.561854	0.038078	1.510394
C105	C	1.018359	-0.519094	0.971884
C106	C	1.518359	-0.019094	1.471884
N107	N	0.982541	-0.566195	0.862484
N108	N	1.482541	-0.066195	1.362484
N109	N	1.021364	-0.515149	0.896873
N110	N	1.521364	-0.015149	1.396873
H111	H	0.406475	-0.447487	0.314045
H112	H	0.906475	0.052513	0.814045
H113	H	0.604509	-0.401473	0.281864
H114	H	1.104509	0.098527	0.781864
H115	H	0.936525	-0.626689	0.975408
H116	H	1.436525	-0.126689	1.475408
H117	H	0.904252	-0.669120	0.777355
H118	H	1.404252	-0.169120	1.277355
H119	H	1.099662	-0.412228	0.982005
H120	H	1.599662	0.087772	1.482005
N121	N	0.898085	-0.677239	0.634037
N122	N	1.398085	-0.177239	1.134037
H123	H	0.908463	-0.747456	0.647235
H124	H	1.408463	-0.247456	1.147235
H125	H	0.907008	-0.665456	0.582269
H126	H	1.407008	-0.165456	1.082269
N127	N	0.740360	-0.659357	0.462199
N128	N	1.240360	-0.159357	0.962199
H129	H	0.704840	-0.698018	0.489242
H130	H	1.204840	-0.198018	0.989242
H131	H	0.769522	-0.623620	0.495987
H132	H	1.269522	-0.123620	0.995987
H133	H	0.598001	-0.634216	0.444634
H134	H	1.098001	-0.134216	0.944634
N135	N	0.409194	-0.697744	0.489061
N136	N	0.909194	-0.197744	0.989061
H137	H	0.373676	-0.736408	0.516104
H138	H	0.873676	-0.236408	1.016104
H139	H	0.438357	-0.662009	0.522849
H140	H	0.938357	-0.162009	1.022849
N141	N	0.918904	-0.649767	1.117772
N142	N	1.418904	-0.149767	1.617772
H143	H	0.946218	-0.697710	1.149370
H144	H	1.446218	-0.197710	1.649370
H145	H	0.891795	-0.685335	1.082208
H146	H	1.391795	-0.185335	1.582208
N147	N	0.256658	-0.689011	0.482962
N148	N	0.756658	-0.189011	0.982962
H149	H	0.204872	-0.676300	0.474074
H150	H	0.704872	-0.176300	0.974074
H151	H	0.267492	-0.677477	0.533680
H152	H	0.767492	-0.177477	1.033680
N153	N	0.747831	-0.392697	0.275726
N154	N	1.247831	0.107303	0.775726
H155	H	0.714589	-0.350095	0.245931
H156	H	1.214589	0.149905	0.745931
H157	H	0.779570	-0.431918	0.244375
H158	H	1.279570	0.068082	0.744375
N159	N	0.264104	-0.422373	0.296470
N160	N	0.764104	0.077627	0.796470
H161	H	0.276434	-0.354777	0.307975
H162	H	0.776434	0.145223	0.807975
H163	H	0.211789	-0.429235	0.301223
H164	H	0.711789	0.070765	0.801223
N165	N	1.085000	-0.431562	0.641599
N166	N	1.585000	0.068438	1.141599
H167	H	1.073599	-0.362685	0.653936
H168	H	1.573599	0.137315	1.153936
H169	H	1.080242	-0.437883	0.589279
H170	H	1.580242	0.062117	1.089279
N171	N	1.078866	-0.439542	0.794135
N172	N	1.578866	0.060458	1.294135
H173	H	1.108722	-0.400294	0.760907
H174	H	1.608722	0.099706	1.260907
H175	H	1.110155	-0.482258	0.825897
H176	H	1.610155	0.017742	1.325897
H177	H	1.094325	-0.419221	1.115143
H178	H	1.594325	0.080779	1.615143
