data_functionalizedCrystal
_audit_creation_method	'MofGen! by Chris Wilmer'
_symmetry_space_group_name_H-M	'P1'
_symmetry_Int_Tables_number	1
_symmetry_cell_setting	triclinic
loop_
_symmetry_equiv_pos_as_xyz
  x,y,z
_cell_length_a	19.805405
_cell_length_b	12.759401
_cell_length_c	12.759393
_cell_angle_alpha	90.020120
_cell_angle_beta	89.962372
_cell_angle_gamma	89.977620
loop_
_atom_site_label
_atom_site_type_symbol
_atom_site_fract_x
_atom_site_fract_y
_atom_site_fract_z
Zn1	Zn	-0.269496	-1.606170	-0.593982
Zn2	Zn	-0.382701	-1.606028	-0.418284
Zn3	Zn	-0.269523	-1.430472	-0.418317
Zn4	Zn	-0.382640	-1.430425	-0.593921
O5	O	-0.326090	-1.518274	-0.506126
O6	O	-0.284527	-1.753172	-0.570688
O7	O	-0.367724	-1.582701	-0.271267
O8	O	-0.174803	-1.453858	-0.441659
O9	O	-0.367698	-1.753068	-0.441603
O10	O	-0.174783	-1.582942	-0.570720
O11	O	-0.284573	-1.453720	-0.271291
O12	O	-0.284515	-1.283445	-0.441599
O13	O	-0.367595	-1.453777	-0.740950
O14	O	-0.367621	-1.283410	-0.570614
O15	O	-0.284468	-1.582896	-0.740995
O16	O	-0.477409	-1.582655	-0.441543
O17	O	-0.477365	-1.453640	-0.570582
C18	C	-0.326065	-1.245306	-0.506104
C19	C	-0.326070	-1.128530	-0.506120
C20	C	-0.282843	-1.073715	-0.573437
C21	C	-0.282852	-0.963991	-0.573440
C22	C	-0.369322	-0.963906	-0.438807
C23	C	-0.369309	-1.073628	-0.438799
C24	C	-0.232922	-1.073763	-0.651170
C25	C	-0.232931	-0.964039	-0.651173
C26	C	-0.501946	-1.518155	-0.506075
C27	C	-0.577178	-1.518201	-0.506089
C28	C	-0.612523	-1.585444	-0.438968
C29	C	-0.683211	-1.585489	-0.438991
C30	C	-0.718554	-1.518284	-0.506130
C31	C	-0.683204	-1.451038	-0.573258
C32	C	-0.612517	-1.450999	-0.573240
C33	C	-0.968277	-1.451193	-0.573336
C34	C	-1.038969	-1.451234	-0.573347
C35	C	-1.038972	-1.585683	-0.439088
C36	C	-0.968285	-1.585644	-0.439069
C37	C	-0.932941	-1.518402	-0.506200
C38	C	-0.856293	-1.518356	-0.506176
C39	C	-0.795201	-1.518324	-0.506151
C40	C	-0.149547	-1.518421	-0.506200
C41	C	-0.074315	-1.518484	-0.506232
C42	C	-0.326022	-1.518347	-0.780159
C43	C	-0.325993	-1.518379	-0.896936
C44	C	-0.326107	-0.792307	-0.506142
C45	C	-0.326093	-0.909084	-0.506131
C46	C	-0.282705	-1.585620	-0.951824
C47	C	-0.282680	-1.585645	-1.061548
C48	C	-0.369238	-1.451184	-1.061487
C49	C	-0.369258	-1.451154	-0.951765
C50	C	-0.232733	-1.663254	-0.951859
C51	C	-0.232709	-1.663279	-1.061584
C52	C	-0.326109	-1.518261	-0.233159
C53	C	-0.325948	-1.518433	-0.116383
H54	H	-0.180480	-1.103546	-0.629525
H55	H	-1.067757	-1.640438	-0.384430
N56	N	-1.077086	-1.378742	-0.645768
H57	H	-1.064741	-1.395017	-0.720846
H58	H	-1.127217	-1.388999	-0.635500
H59	H	-0.183113	-0.930013	-0.622181
H60	H	-0.711986	-1.640245	-0.384334
H61	H	-0.182902	-1.634181	-1.095639
H62	H	-0.939506	-1.396440	-0.627995
H63	H	-0.247036	-0.934289	-0.732506
H64	H	-0.711985	-1.396323	-0.627929
N65	N	-0.163301	-1.634433	-0.912457
H66	H	-0.166304	-1.568773	-0.868463
H67	H	-0.144812	-1.693687	-0.868540
N68	N	-0.574394	-1.378460	-0.645624
H69	H	-0.524251	-1.388633	-0.635426
H70	H	-0.586702	-1.394775	-0.720677
N71	N	-0.257791	-1.765499	-0.906761
H72	H	-0.269858	-1.814938	-0.965673
H73	H	-0.221254	-1.797955	-0.862122
N74	N	-0.257871	-1.118891	-0.753470
H75	H	-0.269933	-1.059994	-0.802906
H76	H	-0.221240	-1.163495	-0.785848
N77	N	-0.574404	-1.657936	-0.366561
H78	H	-0.545122	-1.615254	-0.317824
H79	H	-0.607565	-1.700530	-0.324117
N80	N	-0.251314	-1.771044	-1.101052
H81	H	-0.217346	-1.823878	-1.074712
H82	H	-0.297776	-1.790261	-1.074667
N83	N	-0.930165	-1.658131	-0.366658
H84	H	-0.963283	-1.700741	-0.324143
H85	H	-0.900793	-1.706708	-0.409470
N86	N	-0.415921	-1.378590	-0.892563
H87	H	-0.443320	-1.336003	-0.943949
H88	H	-0.447268	-1.421282	-0.847007
H89	H	-0.404462	-1.396450	-1.106143
H90	H	-0.404502	-1.118254	-0.383973
H91	H	-0.404525	-0.919192	-0.383997
