data_functionalizedCrystal
_audit_creation_method	'MofGen! by Chris Wilmer'
_symmetry_space_group_name_H-M	'P1'
_symmetry_Int_Tables_number	1
_symmetry_cell_setting	triclinic
loop_
_symmetry_equiv_pos_as_xyz
  x,y,z
_cell_length_a	19.805407
_cell_length_b	12.759400
_cell_length_c	19.805399
_cell_angle_alpha	89.979400
_cell_angle_beta	89.980427
_cell_angle_gamma	90.014284
loop_
_atom_site_label
_atom_site_type_symbol
_atom_site_fract_x
_atom_site_fract_y
_atom_site_fract_z
Zn1	Zn	1.034793	-0.418291	-0.382752
Zn2	Zn	1.534793	0.081709	0.117248
Zn3	Zn	1.034732	-0.593984	-0.269578
Zn4	Zn	1.534732	-0.093984	0.230422
Zn5	Zn	0.921607	-0.418320	-0.269577
Zn6	Zn	1.421607	0.081680	0.230423
Zn7	Zn	0.921595	-0.593928	-0.382725
Zn8	Zn	1.421595	-0.093928	0.117275
O9	O	0.978182	-0.506131	-0.326158
O10	O	1.478182	-0.006131	0.173842
O11	O	1.129501	-0.441608	-0.367752
O12	O	1.629501	0.058392	0.132248
O13	O	1.019705	-0.570717	-0.174861
O14	O	1.519705	-0.070717	0.325139
O15	O	0.936653	-0.271295	-0.284601
O16	O	1.436653	0.228705	0.215399
O17	O	1.129456	-0.570689	-0.284603
O18	O	1.629456	-0.070689	0.215397
O19	O	1.019809	-0.271273	-0.367751
O20	O	1.519809	0.228727	0.132249
O21	O	0.936593	-0.441657	-0.174861
O22	O	1.436593	0.058343	0.325139
O23	O	0.826889	-0.441603	-0.284574
O24	O	1.326889	0.058397	0.215426
O25	O	0.936631	-0.570594	-0.477445
O26	O	1.436631	-0.070594	0.022555
O27	O	0.826880	-0.570622	-0.367704
O28	O	1.326880	-0.070622	0.132296
O29	O	1.019797	-0.441554	-0.477465
O30	O	1.519797	0.058446	0.022535
O31	O	1.019693	-0.740998	-0.284576
O32	O	1.519693	-0.240998	0.215424
O33	O	0.936572	-0.740957	-0.367704
O34	O	1.436572	-0.240957	0.132296
C35	C	0.802326	-0.506110	-0.326136
C36	C	1.302326	-0.006110	0.173864
C37	C	0.727094	-0.506127	-0.326143
C38	C	1.227094	-0.006127	0.173857
C39	C	0.978143	-0.779098	-0.326152
C40	C	1.478143	-0.279098	0.173848
C41	C	0.978188	-0.895875	-0.326172
C42	C	1.478188	-0.395875	0.173828
C43	C	0.691762	-0.573408	-0.369358
C44	C	1.191762	-0.073408	0.130642
C45	C	0.621074	-0.573410	-0.369368
C46	C	1.121074	-0.073410	0.130632
C47	C	0.585718	-0.506135	-0.326158
C48	C	1.085718	-0.006135	0.173842
C49	C	0.621054	-0.438847	-0.282941
C50	C	1.121054	0.061153	0.217059
C51	C	0.691741	-0.438840	-0.282935
C52	C	1.191741	0.061160	0.217065
C53	C	0.335981	-0.438870	-0.282963
C54	C	0.835981	0.061130	0.217037
C55	C	0.265289	-0.438884	-0.282971
C56	C	0.765289	0.061116	0.217029
C57	C	0.265313	-0.573440	-0.369396
C58	C	0.765313	-0.073440	0.130604
C59	C	0.336001	-0.573433	-0.369390
C60	C	0.836001	-0.073433	0.130610
C61	C	0.371331	-0.506141	-0.326176
C62	C	0.871331	-0.006141	0.173824
C63	C	0.447979	-0.506139	-0.326167
C64	C	0.947979	-0.006139	0.173833
C65	C	0.509071	-0.506142	-0.326163
C66	C	1.009071	-0.006142	0.173837
C67	C	0.934898	-0.950753	-0.369423
C68	C	1.434898	-0.450753	0.130577
C69	C	0.934933	-1.060477	-0.369429
C70	C	1.434933	-0.560477	0.130571
C71	C	1.021556	-1.060434	-0.282932
C72	C	1.521556	-0.560434	0.217068
C73	C	1.021516	-0.950712	-0.282923
C74	C	1.521516	-0.450712	0.217077
C75	C	0.891569	-0.895916	-0.412672
C76	C	1.391569	-0.395916	0.087328
C77	C	0.848276	-0.950795	-0.455927
C78	C	1.348276	-0.450795	0.044073
C79	C	0.848312	-1.060519	-0.455933
C80	C	1.348312	-0.560519	0.044067
C81	C	0.891641	-1.115364	-0.412685
C82	C	1.391641	-0.615364	0.087315
C83	C	1.154724	-0.506152	-0.326180
C84	C	1.654724	-0.006152	0.173820
C85	C	1.229956	-0.506160	-0.326190
C86	C	1.729956	-0.006160	0.173810
C87	C	0.978220	-0.506064	-0.502701
C88	C	1.478220	-0.006064	-0.002701
C89	C	0.978236	-0.506036	-0.577933
C90	C	1.478236	-0.006036	-0.077933
C91	C	0.978239	-0.232097	-0.326179
C92	C	1.478239	0.267903	0.173821
C93	C	0.978264	-0.115321	-0.326188
C94	C	1.478264	0.384679	0.173812
C95	C	1.021541	-0.438842	-0.613289
C96	C	1.521541	0.061158	-0.113289
C97	C	1.021548	-0.438811	-0.683977
C98	C	1.521548	0.061189	-0.183977
C99	C	0.978253	-0.505981	-0.719309
C100	C	1.478253	-0.005981	-0.219309
C101	C	0.934942	-0.573179	-0.683948
C102	C	1.434942	-0.073179	-0.183948
C103	C	0.934932	-0.573203	-0.613261
C104	C	1.434932	-0.073203	-0.113261
C105	C	0.934980	-0.573081	-0.969021
C106	C	1.434980	-0.073081	-0.469021
C107	C	0.934995	-0.573054	-1.039713
C108	C	1.434995	-0.073054	-0.539713
C109	C	1.021596	-0.438689	-1.039738
C110	C	1.521596	0.061311	-0.539738
C111	C	1.021586	-0.438713	-0.969051
C112	C	1.521586	0.061287	-0.469051
C113	C	0.978274	-0.505906	-0.933696
C114	C	1.478274	-0.005906	-0.433696
C115	C	0.978266	-0.505937	-0.857048
C116	C	1.478266	-0.005937	-0.357048
C117	C	0.978263	-0.505957	-0.795956
C118	C	1.478263	-0.005957	-0.295956
C119	C	0.978183	-0.506121	-0.150302
C120	C	1.478183	-0.006121	0.349698
C121	C	0.978298	-0.505853	-0.075070
C122	C	1.478298	-0.005853	0.424930
H123	H	0.720544	-0.628195	-0.404542
H124	H	1.220544	-0.128195	0.095458
H125	H	0.891665	-1.204709	-0.412692
H126	H	1.391665	-0.704709	0.087308
F127	F	0.888883	-0.644594	-0.931403
F128	F	1.388883	-0.144594	-0.431403
H129	H	0.812995	-0.906134	-0.491134
H130	H	1.312995	-0.406134	0.008866
F131	F	0.583475	-0.645020	-0.415364
F132	F	1.083475	-0.145020	0.084636
H133	H	0.364784	-0.628219	-0.404574
H134	H	0.864784	-0.128219	0.095426
F135	F	0.888839	-0.644718	-0.575633
F136	F	1.388839	-0.144718	-0.075633
F137	F	0.888861	-0.644662	-0.721552
F138	F	1.388861	-0.144662	-0.221552
H139	H	1.056813	-0.384097	-0.712761
H140	H	1.556813	0.115903	-0.212761
F141	F	1.067669	-1.118808	-0.236910
F142	F	1.567669	-0.618808	0.263090
H143	H	0.236539	-0.628228	-0.404586
H144	H	0.736539	-0.128228	0.095414
F145	F	0.891570	-0.779138	-0.412712
F146	F	1.391570	-0.279138	0.087288
H147	H	0.592262	-0.384066	-0.247762
H148	H	1.092262	0.115934	0.252238
F149	F	0.802232	-1.118922	-0.501964
F150	F	1.302232	-0.618922	-0.001964
H151	H	0.236504	-0.384094	-0.247784
H152	H	0.736504	0.115906	0.252216
F153	F	1.067586	-0.892303	-0.236886
F154	F	1.567586	-0.392303	0.263114
F155	F	1.067627	-0.367354	-0.575693
F156	F	1.567627	0.132646	-0.075693
H157	H	0.720507	-0.384048	-0.247748
H158	H	1.220507	0.115952	0.252252
F159	F	0.373573	-0.367249	-0.236972
F160	F	0.873573	0.132751	0.263028
H161	H	1.056844	-0.384020	-0.940287
H162	H	1.556844	0.115980	-0.440287
F163	F	1.067692	-0.367172	-1.077370
F164	F	1.567692	0.132828	-0.577370
H165	H	0.899736	-0.627754	-1.068478
H166	H	1.399736	-0.127754	-0.568478
