data_functionalizedCrystal
_audit_creation_method	'MofGen! by Chris Wilmer'
_symmetry_space_group_name_H-M	'P1'
_symmetry_Int_Tables_number	1
_symmetry_cell_setting	triclinic
loop_
_symmetry_equiv_pos_as_xyz
  x,y,z
_cell_length_a	12.759399
_cell_length_b	21.395364
_cell_length_c	21.395355
_cell_angle_alpha	89.974323
_cell_angle_beta	90.014263
_cell_angle_gamma	89.990851
loop_
_atom_site_label
_atom_site_type_symbol
_atom_site_fract_x
_atom_site_fract_y
_atom_site_fract_z
Zn1	Zn	-0.418555	-0.957927	0.354299
Zn2	Zn	0.081445	-0.457927	0.854299
Zn3	Zn	-0.594220	-0.957858	0.249529
Zn4	Zn	-0.094220	-0.457858	0.749529
Zn5	Zn	-0.418537	-0.853142	0.249533
Zn6	Zn	0.081463	-0.353142	0.749533
Zn7	Zn	-0.594174	-0.853140	0.354267
Zn8	Zn	-0.094174	-0.353140	0.854267
O9	O	-0.506372	-0.905517	0.301907
O10	O	-0.006372	-0.405517	0.801907
O11	O	-0.441884	-1.045596	0.340412
O12	O	0.058116	-0.545596	0.840412
O13	O	-0.570927	-0.943939	0.161852
O14	O	-0.070927	-0.443939	0.661852
O15	O	-0.271519	-0.867072	0.263446
O16	O	0.228481	-0.367072	0.763446
O17	O	-0.570944	-1.045545	0.263438
O18	O	-0.070944	-0.545545	0.763438
O19	O	-0.271532	-0.944057	0.340416
O20	O	0.228468	-0.444057	0.840416
O21	O	-0.441853	-0.867005	0.161855
O22	O	0.058147	-0.367005	0.661855
O23	O	-0.441809	-0.765464	0.263415
O24	O	0.058191	-0.265464	0.763415
O25	O	-0.570867	-0.867068	0.441949
O26	O	-0.070867	-0.367068	0.941949
O27	O	-0.570849	-0.765462	0.340363
O28	O	-0.070849	-0.265462	0.840363
O29	O	-0.441840	-0.944055	0.441972
O30	O	0.058160	-0.444055	0.941972
O31	O	-0.741235	-0.943937	0.263408
O32	O	-0.241235	-0.443937	0.763408
O33	O	-0.741202	-0.867001	0.340358
O34	O	-0.241202	-0.367001	0.840358
C35	C	-0.506323	-0.742729	0.301886
C36	C	-0.006323	-0.242729	0.801886
C37	C	-0.506328	-0.673088	0.301892
C38	C	-0.006328	-0.173088	0.801892
C39	C	-0.439292	-0.171317	0.342047
C40	C	0.060708	0.328683	0.842047
C41	C	-0.439287	-0.236753	0.342048
C42	C	0.060713	0.263247	0.842048
C43	C	-0.506372	-0.269449	0.301908
C44	C	-0.006372	0.230551	0.801908
C45	C	-0.573485	-0.236705	0.261776
C46	C	-0.073485	0.263295	0.761776
C47	C	-0.573495	-0.171271	0.261780
C48	C	-0.073495	0.328729	0.761780
C49	C	-0.514512	-0.373087	0.245444
C50	C	-0.014512	0.126913	0.745444
C51	C	-0.514495	-0.438520	0.245438
C52	C	-0.014495	0.061480	0.745438
C53	C	-0.506347	-0.471270	0.301895
C54	C	-0.006347	0.028730	0.801895
C55	C	-0.498194	-0.438579	0.358359
C56	C	0.001806	0.061421	0.858359
C57	C	-0.498204	-0.373145	0.358364
C58	C	0.001796	0.126855	0.858364
C59	C	-0.506369	-0.340402	0.301899
C60	C	-0.006369	0.159598	0.801899
C61	C	-0.439238	-0.574959	0.342029
C62	C	0.060762	-0.074959	0.842029
C63	C	-0.439241	-0.640396	0.342031
C64	C	0.060759	-0.140396	0.842031
C65	C	-0.573433	-0.640347	0.261754
C66	C	-0.073433	-0.140347	0.761754
C67	C	-0.573436	-0.574912	0.261757
C68	C	-0.073436	-0.074912	0.761757
C69	C	-0.506333	-0.542221	0.301894
C70	C	-0.006333	-0.042221	0.801894
C71	C	-0.779339	-0.905478	0.301893
C72	C	-0.279339	-0.405478	0.801893
C73	C	-0.896116	-0.905519	0.301908
C74	C	-0.396116	-0.405519	0.801908
C75	C	-0.950960	-0.945625	0.261885
C76	C	-0.450960	-0.445625	0.761885
C77	C	-1.060684	-0.945666	0.261906
C78	C	-0.560684	-0.445666	0.761906
C79	C	-1.060710	-0.865488	0.341974
C80	C	-0.560710	-0.365488	0.841974
C81	C	-0.950988	-0.865451	0.341956
C82	C	-0.450988	-0.365451	0.841956
C83	C	-1.210565	-1.019619	0.239613
C84	C	-0.710565	-0.519619	0.739613
C85	C	-1.265413	-1.059720	0.199581
C86	C	-0.765413	-0.559720	0.699581
C87	C	-1.229845	-1.069357	0.138448
C88	C	-0.729845	-0.569357	0.638448
C89	C	-1.139430	-1.038884	0.117335
C90	C	-0.639430	-0.538884	0.617335
C91	C	-1.084588	-0.998778	0.157364
C92	C	-0.584588	-0.498778	0.657364
C93	C	-1.120154	-0.989153	0.218506
C94	C	-0.620154	-0.489153	0.718506
C95	C	-0.801105	-0.791497	0.364242
C96	C	-0.301105	-0.291497	0.864242
C97	C	-0.746260	-0.751388	0.404268
C98	C	-0.246260	-0.251388	0.904268
C99	C	-0.781826	-0.741745	0.465402
C100	C	-0.281826	-0.241745	0.965402
C101	C	-0.872245	-0.772207	0.486513
C102	C	-0.372245	-0.272207	0.986513
C103	C	-0.927089	-0.812316	0.446486
C104	C	-0.427089	-0.312316	0.946486
C105	C	-0.891515	-0.821960	0.385353
C106	C	-0.391515	-0.321960	0.885353
C107	C	-0.232338	-0.905572	0.301935
C108	C	0.267662	-0.405572	0.801935
C109	C	-0.115562	-0.905596	0.301947
C110	C	0.384438	-0.405596	0.801947
C111	C	-0.506350	-0.905569	0.465330
C112	C	-0.006350	-0.405569	0.965330
C113	C	-0.506341	-0.905591	0.534972
C114	C	-0.006341	-0.405591	1.034972
C115	C	-0.506408	-0.068940	0.301923
C116	C	-0.006408	0.431060	0.801923
C117	C	-0.506392	-0.138581	0.301917
C118	C	-0.006392	0.361419	0.801917
C119	C	-0.506317	-0.905501	0.139120
C120	C	-0.006317	-0.405501	0.639120
C121	C	-0.506030	-0.905600	0.069479
C122	C	-0.006030	-0.405600	0.569479
C123	C	-0.439154	-0.945676	0.567698
C124	C	0.060846	-0.445676	1.067698
C125	C	-0.439109	-0.945675	0.633133
C126	C	0.060891	-0.445675	1.133133
C127	C	-0.506270	-0.905596	0.665840
C128	C	-0.006270	-0.405596	1.165840
C129	C	-0.573461	-0.865503	0.633106
C130	C	-0.073461	-0.365503	1.133106
C131	C	-0.573497	-0.865500	0.567672
C132	C	-0.073497	-0.365500	1.067672
C133	C	-0.600868	-0.900635	0.769510
C134	C	-0.100868	-0.400635	1.269510
C135	C	-0.600834	-0.900642	0.834943
C136	C	-0.100834	-0.400642	1.334943
C137	C	-0.506159	-0.905600	0.867661
C138	C	-0.006159	-0.405600	1.367661
C139	C	-0.411515	-0.910563	0.834938
C140	C	0.088485	-0.410563	1.334938
C141	C	-0.411551	-0.910561	0.769504
C142	C	0.088449	-0.410561	1.269504
C143	C	-0.506238	-0.905594	0.736793
C144	C	-0.006238	-0.405594	1.236793
C145	C	-0.438917	-0.945686	0.971340
C146	C	0.061083	-0.445686	1.471340
C147	C	-0.438870	-0.945681	1.036776
C148	C	0.061130	-0.445681	1.536776
C149	C	-0.573232	-0.865511	1.036748
C150	C	-0.073232	-0.365511	1.536748
C151	C	-0.573269	-0.865513	0.971312
C152	C	-0.073269	-0.365513	1.471312
C153	C	-0.506113	-0.905604	0.938612
C154	C	-0.006113	-0.405604	1.438612
H155	H	-0.628063	-0.666968	0.229077
H156	H	-0.128063	-0.166968	0.729077
H157	H	-0.384655	-0.144705	0.374732
H158	H	0.115345	0.355295	0.874732
H159	H	-0.384469	-0.978320	0.541078
H160	H	0.115531	-0.478320	1.041078
H161	H	-0.334488	-0.914601	0.742864
H162	H	0.165512	-0.414601	1.242864
H163	H	-1.339029	-1.084531	0.216777
H164	H	-0.839029	-0.584531	0.716777
H165	H	-1.110484	-1.046729	0.067552
H166	H	-0.610484	-0.546729	0.567552
Br167	Br	-0.920521	-0.759119	0.569482
Br168	Br	-0.420521	-0.259119	1.069482
Br169	Br	-0.487147	-0.328780	0.434989
Br170	Br	0.012853	0.171220	0.934989
Br171	Br	-0.283018	-0.917297	0.879333
Br172	Br	0.216982	-0.417297	1.379333
Br173	Br	-0.664563	-0.126840	0.207313
Br174	Br	-0.164563	0.373160	0.707313
H175	H	-1.000710	-0.837122	0.463681
H176	H	-0.500710	-0.337122	0.963681
H177	H	-1.010973	-0.973969	0.140175
H178	H	-0.510973	-0.473969	0.640175
Br179	Br	-0.729370	-0.893925	0.725113
Br180	Br	-0.229370	-0.393925	1.225113
Br181	Br	-0.525594	-0.328648	0.168817
Br182	Br	-0.025594	0.171352	0.668817
Br183	Br	-0.664490	-0.530480	0.207284
Br184	Br	-0.164490	-0.030480	0.707284
Br185	Br	-0.752824	-0.804588	0.281272
Br186	Br	-0.252824	-0.304588	0.781272
H187	H	-0.628141	-0.832868	0.659740
H188	H	-0.128141	-0.332868	1.159740
H189	H	-1.274510	-1.102009	0.105854
H190	H	-0.774510	-0.602009	0.605854
Br191	Br	-0.664685	-0.811093	0.523254
Br192	Br	-0.164685	-0.311093	1.023254
H193	H	-0.737163	-0.709082	0.497991
H194	H	-0.237163	-0.209082	0.997991
Br195	Br	-1.135185	-0.811112	0.396322
Br196	Br	-0.635185	-0.311112	0.896322
H197	H	-0.384641	-0.263412	0.374725
H198	H	0.115359	0.236588	0.874725
H199	H	-0.384599	-0.548341	0.374711
H200	H	0.115401	-0.048341	0.874711
Br201	Br	-0.487115	-0.483017	0.434984
Br202	Br	0.012885	0.016983	0.934984
Br203	Br	-1.258830	-1.006554	0.322587
Br204	Br	-0.758830	-0.506554	0.822587
H205	H	-0.672633	-0.726588	0.387076
H206	H	-0.172633	-0.226588	0.887076
H207	H	-0.627905	-0.832871	1.063377
H208	H	-0.127905	-0.332871	1.563377
H209	H	-0.384392	-0.978316	0.659784
H210	H	0.115608	-0.478316	1.159784
Br211	Br	-0.348180	-0.684825	0.396505
Br212	Br	0.151820	-0.184825	0.896505
Br213	Br	-0.525534	-0.482880	0.168808
Br214	Br	-0.025534	0.017120	0.668808
Br215	Br	-0.664537	-0.281077	0.207305
Br216	Br	-0.164537	0.218923	0.707305
H217	H	-0.384229	-0.978327	0.944714
H218	H	0.115771	-0.478327	1.444714
H219	H	-0.906286	-0.978252	0.229276
H220	H	-0.406286	-0.478252	0.729276
Br221	Br	-0.347695	-1.000097	1.081192
Br222	Br	0.152305	-0.500097	1.581192
H223	H	-0.627987	-0.832875	0.944666
H224	H	-0.127987	-0.332875	1.444666
Br225	Br	-0.729278	-0.893914	0.879346
Br226	Br	-0.229278	-0.393914	1.379346
