data_functionalizedCrystal
_audit_creation_method	'MofGen! by Chris Wilmer'
_symmetry_space_group_name_H-M	'P1'
_symmetry_Int_Tables_number	1
_symmetry_cell_setting	triclinic
loop_
_symmetry_equiv_pos_as_xyz
  x,y,z
_cell_length_a	10.654545
_cell_length_b	27.732064
_cell_length_c	9.730223
_cell_angle_alpha	89.999705
_cell_angle_beta	89.997167
_cell_angle_gamma	83.566251
loop_
_atom_site_label
_atom_site_type_symbol
_atom_site_fract_x
_atom_site_fract_y
_atom_site_fract_z
O1	O	1.664999	0.067875	-0.114262
O2	O	1.299249	0.074345	-0.114267
O3	O	1.493473	0.000784	-0.114270
O4	O	1.470776	0.141435	-0.114259
O5	O	1.493461	0.000782	0.114310
O6	O	1.299237	0.074343	0.114313
O7	O	1.664987	0.067873	0.114318
Zn8	Zn	1.482110	0.071108	0.150607
Zn9	Zn	1.482126	0.071110	-0.150557
O10	O	1.470764	0.141433	0.114321
C11	C	1.252465	0.073869	0.000022
C12	C	1.113081	0.072449	0.000020
C13	C	1.047598	0.071780	0.124620
C14	C	0.916634	0.070438	0.124620
C15	C	0.916649	0.070437	-0.124591
C16	C	1.047611	0.071775	-0.124589
C17	C	1.492987	-0.017226	0.000016
C18	C	1.491543	-0.070890	0.000003
C19	C	1.366934	-0.448738	-0.000004
C20	C	1.372250	-0.247044	-0.000006
O21	O	1.275558	-0.216393	-0.000062
N22	N	1.487421	-0.227200	-0.000004
C23	C	1.601271	-0.257783	-0.000012
O24	O	1.699353	-0.236277	-0.000025
C25	C	1.595954	-0.459476	-0.000020
C26	C	1.480776	-0.479317	-0.000007
C27	C	1.251765	-0.468579	0.000007
C28	C	1.250437	-0.519000	0.000015
C29	C	1.364279	-0.549579	0.000012
C30	C	1.479448	-0.529737	0.000001
C31	C	1.709803	-0.490057	-0.000037
C32	C	1.708464	-0.540483	-0.000042
C33	C	1.593285	-0.560324	-0.000030
C34	C	1.591962	-0.610736	0.000006
N35	N	1.476791	-0.630580	0.000004
C36	C	1.362949	-0.600001	0.000007
C37	C	1.604055	-0.151892	-0.000005
C38	C	1.605384	-0.101469	-0.000000
C39	C	1.376362	-0.090733	0.000003
C40	C	1.375034	-0.141157	0.000009
C41	C	1.488884	-0.171735	-0.000006
C42	C	1.360170	-0.705888	0.000025
C43	C	1.358852	-0.756314	0.000039
C44	C	1.587873	-0.767044	0.000028
C45	C	1.589192	-0.716624	0.000022
C46	C	1.475330	-0.686046	0.000016
O47	O	1.688602	-0.641416	0.000046
O48	O	1.264882	-0.621517	-0.000010
C49	C	1.368262	-0.398317	-0.000012
C50	C	1.483431	-0.378476	-0.000023
C51	C	1.597273	-0.409055	-0.000026
C52	C	1.484761	-0.328053	-0.000018
C53	C	1.370919	-0.297474	-0.000015
C54	C	1.255748	-0.317318	-0.000016
C55	C	1.254421	-0.367739	-0.000009
C56	C	1.712444	-0.389211	-0.000025
C57	C	1.713762	-0.338790	-0.000031
C58	C	1.599921	-0.308211	-0.000028
C59	C	1.711772	0.068349	0.000025
C60	C	1.851156	0.069768	0.000019
C61	C	1.471249	0.159444	0.000032
C62	C	1.472694	0.213108	0.000036
N63	N	1.482108	0.071105	0.356144
N64	N	1.482138	0.071109	-0.356093
C65	C	1.568139	0.038547	0.428068
C66	C	1.568152	0.038547	0.571951
C67	C	1.396098	0.103669	0.571972
C68	C	1.396081	0.103666	0.428092
H69	H	1.100900	0.072329	0.226085
O70	O	1.312417	0.135315	0.641653
C71	C	1.236497	0.164059	0.547311
H72	H	1.235456	0.144235	0.444753
H73	H	1.136080	0.171072	0.588901
H74	H	1.276563	0.200111	0.531994
H75	H	1.100929	0.072319	-0.226059
H76	H	1.156647	-0.535149	0.000014
H77	H	1.326018	0.130179	0.369527
O78	O	1.651603	0.006938	0.642031
C79	C	1.633196	0.013928	0.784453
H80	H	1.533014	0.031633	0.804122
H81	H	1.647888	-0.022625	0.839135
H82	H	1.703798	0.038426	0.825268
O83	O	0.852860	0.069850	0.245567
C84	C	0.762083	0.110865	0.253040
H85	H	0.737455	0.124595	0.144855
H86	H	0.673372	0.100522	0.305772
H87	H	0.802015	0.140641	0.314533
H88	H	1.805149	-0.414104	-0.000029
H89	H	0.863326	0.069888	-0.226043
H90	H	1.265056	-0.772465	0.000056
H91	H	1.267452	-0.680998	0.000020
O92	O	1.141202	-0.438860	-0.000230
C93	C	1.135107	-0.409359	-0.118589
H94	H	1.199691	-0.427593	-0.201344
H95	H	1.033842	-0.404047	-0.158313
H96	H	1.166855	-0.372584	-0.091819
H97	H	1.281246	-0.157308	0.000025
O98	O	1.265807	-0.061005	-0.000247
C99	C	1.259770	-0.031510	-0.118616
H100	H	1.324359	-0.049757	-0.201348
H101	H	1.158516	-0.026185	-0.158370
H102	H	1.291550	0.005260	-0.091849
O103	O	1.717380	-0.082278	-0.000059
C104	C	1.817565	-0.120086	-0.000031
H105	H	1.783036	-0.154453	-0.043304
H106	H	1.898039	-0.109276	-0.066399
H107	H	1.852631	-0.127101	0.109628
O108	O	1.714573	-0.181643	0.000171
C109	C	1.720677	-0.211124	0.118568
H110	H	1.621058	-0.214022	0.158036
H111	H	1.768220	-0.248851	0.091939
H112	H	1.777687	-0.194338	0.201467
H113	H	1.803594	-0.473912	-0.000048
O114	O	1.819176	-0.570117	0.000006
C115	C	1.921108	-0.541787	-0.000042
H116	H	1.888480	-0.504271	0.043233
H117	H	2.000817	-0.560109	0.066313
H118	H	1.956452	-0.538075	-0.109708
H119	H	1.682979	-0.700468	0.000031
O120	O	1.145194	-0.287589	-0.000260
C121	C	1.139148	-0.258095	-0.118632
H122	H	1.203728	-0.276343	-0.201369
H123	H	1.037890	-0.252769	-0.158374
H124	H	1.170934	-0.221325	-0.091872
H125	H	1.638186	0.012033	0.369491
O126	O	1.698419	-0.796774	-0.000222
C127	C	1.704467	-0.826269	-0.118590
H128	H	1.639887	-0.808022	-0.201323
H129	H	1.805725	-0.831596	-0.158342
H130	H	1.672681	-0.863039	-0.091822
O131	O	1.142424	-0.386929	-0.000067
C132	C	1.042244	-0.349119	-0.000032
H133	H	1.076780	-0.314752	-0.043306
H134	H	0.961770	-0.359926	-0.066395
H135	H	1.007175	-0.342103	0.109630
H136	H	1.807561	-0.322641	-0.000031
