data_functionalizedCrystal
_audit_creation_method	'MofGen! by Chris Wilmer'
_symmetry_space_group_name_H-M	'P1'
_symmetry_Int_Tables_number	1
_symmetry_cell_setting	triclinic
loop_
_symmetry_equiv_pos_as_xyz
  x,y,z
_cell_length_a	11.792241
_cell_length_b	11.792241
_cell_length_c	13.448316
_cell_angle_alpha	89.993264
_cell_angle_beta	89.997457
_cell_angle_gamma	84.193416
loop_
_atom_site_label
_atom_site_type_symbol
_atom_site_fract_x
_atom_site_fract_y
_atom_site_fract_z
O1	O	1.506912	0.155570	-0.082596
O2	O	1.176571	0.171603	-0.082619
O3	O	1.349758	-0.001584	-0.082600
O4	O	1.333725	0.328757	-0.082615
O5	O	1.349736	-0.001594	0.082784
O6	O	1.176549	0.171593	0.082765
O7	O	1.506890	0.155560	0.082788
Cu8	Cu	1.341718	0.163575	0.097877
Cu9	Cu	1.341744	0.163588	-0.097708
O10	O	1.333703	0.328747	0.082769
C11	C	1.134269	0.170591	0.000070
C12	C	1.008255	0.167576	0.000061
C13	C	0.777543	0.162034	0.000090
C14	C	0.905928	0.165113	0.000074
C15	C	1.348740	-0.043880	0.000092
C16	C	1.345726	-0.169894	0.000091
C17	C	1.340183	-0.400606	0.000074
C18	C	1.343262	-0.272221	0.000083
C19	C	1.549192	0.156572	0.000097
C20	C	1.675206	0.159587	0.000099
C21	C	1.334721	0.371043	0.000075
C22	C	1.337736	0.497057	0.000070
N23	N	1.341708	0.163565	0.235442
N24	N	1.341763	0.163589	-0.235272
C25	C	1.418419	0.086910	0.287491
C26	C	1.418426	0.086909	0.391594
C27	C	1.341726	0.163570	0.443646
C28	C	1.265007	0.240229	0.391590
C29	C	1.264995	0.240224	0.287489
C30	C	1.265038	0.240237	0.608570
C31	C	1.265051	0.240244	0.712679
C32	C	1.418469	0.086922	0.712675
C33	C	1.418458	0.086917	0.608574
C34	C	1.341739	0.163578	0.556525
H35	H	1.480889	0.024490	0.433971
H36	H	1.202528	0.302643	0.245112
H37	H	1.480881	0.024489	0.245116
H38	H	1.480917	0.024500	0.566193
C39	C	1.502856	0.002591	0.769927
C40	C	1.502865	0.002589	0.884435
C41	C	1.587252	-0.081734	0.941693
C42	C	1.671629	-0.166055	0.884444
C43	C	1.671623	-0.166056	0.769930
C44	C	1.587236	-0.081733	0.712672
H45	H	1.440401	0.065011	0.926819
H46	H	1.587256	-0.081732	1.026464
H47	H	1.734097	-0.228476	0.926830
H48	H	1.734087	-0.228478	0.727545
H49	H	1.587232	-0.081735	0.627901
C50	C	1.180672	0.324565	0.769934
C51	C	1.096278	0.408875	0.712679
C52	C	1.011896	0.493197	0.769931
C53	C	1.011909	0.493211	0.884439
C54	C	1.096306	0.408899	0.941700
C55	C	1.180688	0.324576	0.884447
H56	H	1.096266	0.408867	0.627908
H57	H	0.949420	0.555611	0.727542
H58	H	0.949444	0.555632	0.926821
H59	H	1.096318	0.408906	1.026471
H60	H	1.243164	0.262163	0.926837
H61	H	1.202562	0.302659	0.566195
H62	H	1.202551	0.302644	0.433977
