data_functionalizedCrystal
_audit_creation_method	'MofGen! by Chris Wilmer'
_symmetry_space_group_name_H-M	'P1'
_symmetry_Int_Tables_number	1
_symmetry_cell_setting	triclinic
loop_
_symmetry_equiv_pos_as_xyz
  x,y,z
_cell_length_a	18.101395
_cell_length_b	19.077253
_cell_length_c	19.076919
_cell_angle_alpha	94.673785
_cell_angle_beta	92.272317
_cell_angle_gamma	87.737952
loop_
_atom_site_label
_atom_site_type_symbol
_atom_site_fract_x
_atom_site_fract_y
_atom_site_fract_z
Zn1	Zn	-0.354648	1.061621	-0.355187
Zn2	Zn	-0.473704	1.066263	-0.237309
Zn3	Zn	-0.345113	0.948479	-0.242064
Zn4	Zn	-0.473676	0.943693	-0.359902
O5	O	-0.411785	1.005014	-0.298616
O6	O	-0.374443	1.160883	-0.335587
O7	O	-0.452668	1.054584	-0.139292
O8	O	-0.242748	0.963548	-0.257087
O9	O	-0.461913	1.164293	-0.248983
O10	O	-0.249753	1.046673	-0.340198
O11	O	-0.358193	0.968048	-0.142786
O12	O	-0.358165	0.849198	-0.261659
O13	O	-0.461865	0.955391	-0.457925
O14	O	-0.452620	0.845681	-0.348234
O15	O	-0.374416	1.042032	-0.454461
O16	O	-0.577330	1.049943	-0.253554
O17	O	-0.577310	0.959892	-0.343623
C18	C	-0.604191	1.004920	-0.298599
C19	C	-0.686507	1.004944	-0.298613
C20	C	-0.404356	0.821862	-0.305975
C21	C	-0.401196	0.743508	-0.309140
C22	C	-0.419201	0.997660	-0.482486
C23	C	-0.422361	0.994526	-0.560841
C24	C	-0.985606	1.005097	-0.298644
C25	C	-0.954309	0.948560	-0.355443
C26	C	-0.868674	0.948309	-0.355283
C27	C	-0.837219	1.005021	-0.298629
C28	C	-0.864539	0.987896	-0.225144
C29	C	-0.950183	0.987533	-0.225485
C30	C	-0.957741	1.078904	-0.314672
C31	C	-0.872139	1.078400	-0.316319
C32	C	-0.753358	1.004979	-0.298616
C33	C	-1.069467	1.005137	-0.298653
C34	C	-0.218630	1.005126	-0.298647
C35	C	-0.136318	1.005174	-0.298661
C36	C	-0.419245	1.188881	-0.291228
C37	C	-0.422424	1.267235	-0.288080
C38	C	-0.378379	1.302271	-0.331690
C39	C	-0.381375	1.375892	-0.328736
C40	C	-0.428413	1.414476	-0.282167
C41	C	-0.472463	1.379434	-0.238556
C42	C	-0.469470	1.305814	-0.241514
C43	C	-0.442252	1.634846	-0.268487
C44	C	-0.445241	1.708471	-0.265530
C45	C	-0.354153	1.704924	-0.355711
C46	C	-0.351161	1.631303	-0.358663
C47	C	-0.395214	1.596268	-0.315054
N48	N	-0.431476	1.489729	-0.279144
N49	N	-0.392155	1.521016	-0.318081
C50	C	-0.378317	1.038161	-0.595850
C51	C	-0.381283	1.035208	-0.669473
C52	C	-0.428297	0.988623	-0.708086
C53	C	-0.472343	0.944984	-0.673072
C54	C	-0.469372	0.947934	-0.599450
C55	C	-0.442059	0.974960	-0.928464
C56	C	-0.445028	0.972015	-1.002090
C57	C	-0.353967	1.062239	-0.998486
C58	C	-0.351004	1.065188	-0.924864
C59	C	-0.395047	1.021546	-0.889856
N60	N	-0.431332	0.985605	-0.783340
N61	N	-0.392008	1.024561	-0.814603
C62	C	-0.404347	1.012380	-0.115459
C63	C	-0.400984	1.015650	-0.037099
H64	H	-0.850356	0.958677	-0.409866
O65	O	-0.489562	0.927872	-0.890735
H66	H	-0.527177	0.960719	-0.855911
H67	H	-0.483548	1.739884	-0.227607
O68	O	-0.306645	1.742709	-0.402750
H69	H	-0.316631	1.800384	-0.392876
H70	H	-0.478121	1.606330	-0.232975
H71	H	-0.845501	0.893541	-0.344903
O72	O	-0.979270	0.876445	-0.341887
H73	H	-1.013869	0.880694	-0.294870
O74	O	-0.985168	0.962115	-0.427990
H75	H	-0.962281	0.921571	-0.467109
H76	H	-0.967365	0.933669	-0.211559
O77	O	-0.977402	1.039914	-0.167723
H78	H	-0.929391	1.065388	-0.139667
O79	O	-0.837365	1.040893	-0.167724
H80	H	-0.804016	1.080092	-0.191009
O81	O	-0.495733	0.921763	-1.043741
H82	H	-0.525854	0.891906	-1.007031
H83	H	-0.312722	1.103124	-0.893430
H84	H	-0.510620	0.907051	-0.704516
H85	H	-0.510766	1.410855	-0.200641
O86	O	-0.832448	0.917326	-0.206277
H87	H	-0.797041	0.894340	-0.249119
O88	O	-0.327609	1.088407	-0.554204
H89	H	-0.297476	1.118248	-0.590920
O90	O	-0.516970	1.268020	-0.194474
H91	H	-0.550175	1.307216	-0.161589
H92	H	-0.345420	1.070742	-0.697974
O93	O	-0.844095	1.136844	-0.265204
H94	H	-0.891424	1.163690	-0.237539
H95	H	-0.854610	1.091368	-0.370386
O96	O	-0.327645	1.260656	-0.381918
H97	H	-0.297527	1.297391	-0.411751
H98	H	-0.318109	1.097769	-1.026997
O99	O	-0.990119	1.100357	-0.384239
H100	H	-1.051382	1.103504	-0.382437
O101	O	-0.516865	0.900862	-0.561685
H102	H	-0.550057	0.867973	-0.600902
O103	O	-0.984594	1.134721	-0.259895
H104	H	-1.019489	1.174880	-0.285952
H105	H	-0.312860	1.599893	-0.396586
O106	O	-0.333859	1.413685	-0.375761
H107	H	-0.300637	1.374487	-0.408630
