data_functionalizedCrystal
_audit_creation_method	'MofGen! by Chris Wilmer'
_symmetry_space_group_name_H-M	'P1'
_symmetry_Int_Tables_number	1
_symmetry_cell_setting	triclinic
loop_
_symmetry_equiv_pos_as_xyz
  x,y,z
_cell_length_a	33.510554
_cell_length_b	33.509711
_cell_length_c	33.506470
_cell_angle_alpha	60.004186
_cell_angle_beta	60.008358
_cell_angle_gamma	59.994760
loop_
_atom_site_label
_atom_site_type_symbol
_atom_site_fract_x
_atom_site_fract_y
_atom_site_fract_z
O1	O	0.055430	-0.583081	0.487524
O2	O	0.020931	-0.453975	0.392819
O3	O	0.102693	-0.535652	0.392731
O4	O	-0.026332	-0.501404	0.487613
O5	O	0.129823	-0.508526	0.419767
O6	O	0.048062	-0.426850	0.419856
O7	O	0.082561	-0.555956	0.514561
Cu8	Cu	0.067789	-0.488926	0.469677
Cu9	Cu	0.035703	-0.521005	0.437703
O10	O	0.000799	-0.474279	0.514649
N11	N	0.090357	-0.466366	0.492168
N12	N	0.013139	-0.543569	0.415212
C13	C	0.143028	-0.279707	0.544737
C14	C	0.143165	-0.413746	0.678712
C15	C	0.143043	-0.413725	0.544739
C16	C	0.277090	-0.413694	0.544637
C17	C	0.157791	-0.323929	0.559462
C18	C	0.157869	-0.398994	0.634489
C19	C	0.232865	-0.398963	0.559407
C20	C	0.157801	-0.398982	0.559463
C21	C	0.124237	-0.223419	0.525994
C22	C	0.124262	-0.432490	0.525997
C23	C	0.176583	-0.380217	0.578205
C24	C	0.358938	-0.399566	0.501510
C25	C	0.410104	-0.416609	0.484423
C26	C	0.410135	-0.499402	0.515995
C27	C	0.358969	-0.482358	0.533084
C28	C	0.136554	-0.197822	0.475693
C29	C	0.119469	-0.146653	0.458657
C30	C	0.077755	-0.146680	0.542223
C31	C	0.094840	-0.197850	0.559260
C32	C	0.073954	-0.420144	0.538396
C33	C	0.056884	-0.437203	0.521352
C34	C	0.140427	-0.478952	0.479524
C35	C	0.157498	-0.461894	0.496561
C36	C	0.074158	-0.420182	0.760618
C37	C	0.057149	-0.437256	0.811786
C38	C	0.140732	-0.479014	0.811717
C39	C	0.157740	-0.461942	0.760547
C40	C	0.124452	-0.432525	0.734999
C41	C	0.333372	-0.432439	0.525839
C42	C	-0.020612	-0.577650	0.170305
C43	C	-0.020943	-0.788098	0.380897
C44	C	-0.020912	-0.577638	0.380991
C45	C	-0.231336	-0.577418	0.380585
C46	C	-0.129735	-0.611383	0.346870
C47	C	-0.054722	-0.611464	0.347017
C48	C	-0.073450	-0.630202	0.328195
C49	C	-0.087616	-0.712029	0.371239
C50	C	-0.070599	-0.763199	0.388315
C51	C	0.012191	-0.763282	0.356872
C52	C	-0.004828	-0.712113	0.339795
C53	C	-0.155381	-0.623711	0.397158
C54	C	-0.206547	-0.606601	0.414133
C55	C	-0.206417	-0.564839	0.330529
C56	C	-0.155251	-0.581949	0.313554
C57	C	-0.067051	-0.561160	0.334643
C58	C	-0.050026	-0.544131	0.351759
C59	C	-0.008343	-0.627704	0.393612
C60	C	-0.025368	-0.644736	0.376502
C61	C	-0.066922	-0.561168	0.246303
C62	C	-0.049794	-0.544141	0.195134
C63	C	-0.008048	-0.627719	0.195183
C64	C	-0.025175	-0.644745	0.246352
C65	C	-0.054614	-0.611468	0.271911
C66	C	-0.054732	-0.686488	0.346980
C67	C	-0.002117	-0.558258	0.114025
C68	C	-0.002879	-0.844379	0.399940
C69	C	-0.002504	-0.558243	0.399473
C70	C	-0.287615	-0.558285	0.398601
N71	N	0.434975	-0.466279	0.491900
O72	O	0.591199	-0.470749	0.375150
O73	O	0.591395	-0.565767	0.504116
O74	O	0.591311	-0.565550	0.422329
O75	O	0.591283	-0.470966	0.456937
O76	O	0.510024	-0.538522	0.449509
O77	O	0.510108	-0.538739	0.531297
O78	O	0.509913	-0.443721	0.402330
Cu79	Cu	0.502588	-0.488762	0.469295
Cu80	Cu	0.598719	-0.520726	0.437151
O81	O	0.509997	-0.443938	0.484117
N82	N	0.666332	-0.543209	0.414541
N83	N	0.090323	-0.121809	0.492157
O84	O	-0.026342	0.034503	0.487582
O85	O	0.102626	0.034543	0.392540
O86	O	0.020797	0.034507	0.392812
O87	O	0.055487	0.034539	0.487310
O88	O	0.047933	-0.046785	0.419900
O89	O	0.129763	-0.046749	0.419628
O90	O	0.000794	-0.046789	0.514670
Cu91	Cu	0.067756	-0.054192	0.469623
Cu92	Cu	0.035664	0.041946	0.437588
O93	O	0.082623	-0.046753	0.514399
N94	N	0.013091	0.109564	0.415054
N95	N	0.090671	-0.466416	0.836606
O96	O	0.086120	-0.583065	0.992910
O97	O	-0.008880	-0.454051	0.992954
O98	O	-0.008658	-0.535864	0.992931
O99	O	0.085897	-0.501252	0.992933
O100	O	0.018407	-0.508749	0.911642
O101	O	0.018185	-0.426936	0.911665
O102	O	0.113185	-0.555949	0.911621
Cu103	Cu	0.068156	-0.488967	0.904221
Cu104	Cu	0.036148	-0.521034	1.000355
O105	O	0.112963	-0.474136	0.911644
N106	N	0.013633	-0.543590	1.067970
C107	C	0.031262	-0.424144	0.393290
C108	C	0.132513	-0.525291	0.393180
C109	C	0.072229	-0.585787	0.514090
C110	C	-0.029022	-0.484640	0.514200
C111	C	0.550775	-0.565338	0.533954
C112	C	0.550672	-0.565070	0.432670
C113	C	0.550530	-0.444149	0.372492
C114	C	0.550635	-0.444418	0.473776
C115	C	0.132408	-0.005998	0.392963
C116	C	0.031106	-0.006142	0.393333
C117	C	-0.029021	-0.006147	0.514213
C118	C	0.072314	-0.006104	0.513878
C119	C	-0.008430	-0.424240	0.952316
C120	C	-0.008150	-0.525550	0.952271
C121	C	0.112735	-0.585760	0.952260
C122	C	0.112461	-0.484444	0.952286
H123	H	0.047048	-0.396226	0.739820
O124	O	-0.044000	-0.380017	0.952244
C125	C	-0.097486	-0.308293	0.910166
C126	C	-0.057198	-0.358361	0.910181
H127	H	-0.108175	-0.290774	0.876167
H128	H	-0.083339	-0.283613	0.910139
H129	H	-0.130796	-0.313444	0.944204
H130	H	-0.023874	-0.353257	0.876149
H131	H	-0.071384	-0.383024	0.910233
O132	O	0.081013	-0.630068	0.549533
C133	C	0.102484	-0.717033	0.572958
C134	C	0.092537	-0.666915	0.532782
H135	H	0.111813	-0.746838	0.559426
H136	H	0.068572	-0.717240	0.607081
H137	H	0.134466	-0.724125	0.582101
H138	H	0.060571	-0.659791	0.523597
H139	H	0.126474	-0.666733	0.498684
O140	O	0.550371	-0.408513	0.328345
C141	C	0.508166	-0.326996	0.284768
C142	C	0.508279	-0.367316	0.334794
H143	H	0.474144	-0.293675	0.289966
H144	H	0.508118	-0.341125	0.260115
H145	H	0.542179	-0.316327	0.267189
H146	H	0.474273	-0.378002	0.352415
H147	H	0.508353	-0.353165	0.359413
H148	H	0.550629	-0.414708	0.481180
O149	O	-0.095590	-0.528856	0.271147
C150	C	-0.173512	-0.499547	0.328837
C151	C	-0.141105	-0.536158	0.300726
H152	H	-0.210314	-0.505445	0.352766
H153	H	-0.179407	-0.460662	0.301762
H154	H	-0.154787	-0.505452	0.352822
H155	H	-0.159802	-0.530298	0.276741
H156	H	-0.135209	-0.575031	0.327828
H157	H	0.169370	-0.005761	0.363053
H158	H	-0.066081	-0.477343	0.543993
O159	O	0.148303	-0.629959	0.952178
C160	C	0.199996	-0.688803	0.910021
C161	C	0.159705	-0.638745	0.910060
H162	H	0.209233	-0.695918	0.875968
H163	H	0.186577	-0.718677	0.944011
H164	H	0.234031	-0.688856	0.910041
H165	H	0.125655	-0.638644	0.910023
H166	H	0.173164	-0.608893	0.876073
H167	H	0.550826	-0.595166	0.570996
O168	O	0.081226	-0.006188	0.549316
C169	C	0.130894	-0.048281	0.600650
C170	C	0.120849	-0.048249	0.560521
H171	H	0.162936	-0.082279	0.609714
H172	H	0.097033	-0.048325	0.634824
H173	H	0.140170	-0.014239	0.587094
H174	H	0.111585	-0.082286	0.574031
H175	H	0.154717	-0.048180	0.526355
O176	O	-0.062016	-0.495250	0.339666
C177	C	-0.105149	-0.414150	0.296341
C178	C	-0.091605	-0.469493	0.309996
H179	H	-0.129082	-0.393309	0.272359
H180	H	-0.070418	-0.404109	0.275536
H181	H	-0.126000	-0.404061	0.331052
H182	H	-0.070766	-0.479621	0.275310
H183	H	-0.126353	-0.479504	0.330820
H184	H	0.550685	-0.594783	0.425263
O185	O	0.022178	-0.006188	0.357978
C186	C	-0.035919	-0.006219	0.335671
C187	C	-0.025873	-0.006170	0.375754
H188	H	-0.074771	-0.006194	0.350024
H189	H	-0.008886	-0.040251	0.324998
H190	H	-0.031546	0.027790	0.302298
H191	H	-0.030252	-0.040156	0.409153
H192	H	-0.052904	0.027885	0.386385
O193	O	-0.043559	-0.534447	0.952294
C194	C	-0.094959	-0.584019	0.994354
C195	C	-0.054850	-0.574004	0.994382
H196	H	-0.104108	-0.615994	1.028384
H197	H	-0.081407	-0.593350	0.960340
H198	H	-0.129083	-0.550099	0.994330
H199	H	-0.020712	-0.607907	0.994423
H200	H	-0.068442	-0.564652	1.028393
O201	O	0.008275	-0.425194	0.836592
C202	C	-0.072830	-0.381987	0.831254
C203	C	-0.017494	-0.395598	0.803101
H204	H	-0.093681	-0.358065	0.804188
H205	H	-0.082911	-0.361132	0.855197
H206	H	-0.082864	-0.416722	0.855224
H207	H	-0.007420	-0.360888	0.779104
H208	H	-0.007443	-0.416472	0.779188
O209	O	0.173134	-0.507600	0.836459
C210	C	0.257832	-0.547199	0.830990
C211	C	0.221191	-0.514824	0.802909
H212	H	0.296695	-0.553041	0.803878
H213	H	0.251996	-0.584031	0.854927
H214	H	0.251927	-0.528460	0.854961
H215	H	0.227074	-0.533520	0.778912
H216	H	0.227037	-0.477993	0.779004
O217	O	0.206594	-0.473990	0.735642
C218	C	0.274308	-0.513314	0.677813
C219	C	0.218978	-0.499711	0.705995
H220	H	0.284336	-0.534102	0.653829
H221	H	0.295200	-0.537296	0.704843
H222	H	0.284344	-0.478578	0.653877
H223	H	0.208897	-0.534420	0.729931
H224	H	0.198116	-0.475710	0.678938
O225	O	0.020150	-0.660092	0.422262
C226	C	0.059723	-0.744787	0.461941
C227	C	0.027442	-0.708160	0.429498
H228	H	0.065637	-0.783657	0.467793
H229	H	0.040938	-0.738910	0.498762
H230	H	0.096526	-0.738903	0.443253
H231	H	-0.009367	-0.714021	0.448143
H232	H	0.046266	-0.714045	0.392678
O233	O	-0.073243	-0.006129	0.549746
C234	C	-0.153758	-0.006171	0.572517
C235	C	-0.103702	-0.006185	0.532232
H236	H	-0.178395	-0.006226	0.558375
H237	H	-0.171336	0.027863	0.583163
H238	H	-0.148587	-0.040178	0.605855
H239	H	-0.108830	0.027799	0.498868
H240	H	-0.086142	-0.040241	0.521627
H241	H	0.142166	-0.477036	0.952281
H242	H	0.169570	-0.532590	0.363385
H243	H	0.046887	-0.396202	0.562361
H244	H	0.015920	-0.427139	0.531437
H245	H	0.167497	-0.502899	0.455559
O246	O	-0.061783	-0.495286	0.170210
C247	C	-0.101083	-0.427522	0.112377
C248	C	-0.087526	-0.482855	0.140564
H249	H	-0.121908	-0.417452	0.088409
H250	H	-0.066362	-0.417463	0.088439
H251	H	-0.125047	-0.406679	0.139447
H252	H	-0.063576	-0.503736	0.113529
H253	H	-0.122268	-0.492877	0.164509
H254	H	0.198463	-0.471942	0.486461
O255	O	0.022507	-0.379942	0.357741
C256	C	0.017946	-0.336181	0.276338
C257	C	0.027885	-0.386271	0.316551
H258	H	0.022280	-0.341280	0.243030
H259	H	0.045037	-0.318552	0.265592
H260	H	-0.020876	-0.311622	0.290641
H261	H	0.066693	-0.410869	0.302282
H262	H	0.000763	-0.403861	0.327292
O263	O	0.334163	-0.514305	0.556636
C264	C	0.318542	-0.574488	0.552096
C265	C	0.346654	-0.538315	0.525365
H266	H	0.328638	-0.593918	0.526829
H267	H	0.277567	-0.553761	0.563054
H268	H	0.328634	-0.602591	0.586215
H269	H	0.336603	-0.510204	0.491229
H270	H	0.387621	-0.559076	0.514444
O271	O	0.434866	-0.384607	0.460778
C272	C	0.429442	-0.300692	0.431282
C273	C	0.401337	-0.336878	0.458061
H274	H	0.402346	-0.262097	0.429086
H275	H	0.453354	-0.302214	0.392792
H276	H	0.453438	-0.310985	0.452176
H277	H	0.377315	-0.326610	0.437208
H278	H	0.377456	-0.335351	0.496554
H279	H	0.430973	-0.540048	0.521891
H280	H	0.160490	-0.218637	0.448603
O281	O	0.333996	-0.351086	0.494497
C282	C	0.255160	-0.288136	0.506852
C283	C	0.283342	-0.343048	0.514818
H284	H	0.214201	-0.281621	0.523286
H285	H	0.265151	-0.266699	0.466022
H286	H	0.265267	-0.275439	0.525379
H287	H	0.273249	-0.355791	0.496320
H288	H	0.273348	-0.364453	0.555655
O289	O	0.131409	-0.121837	0.409782
C290	C	0.127409	-0.106142	0.333177
C291	C	0.113868	-0.134283	0.388519
H292	H	0.113225	-0.116187	0.315971
H293	H	0.168835	-0.116194	0.315869
H294	H	0.110161	-0.065181	0.326728
H295	H	0.131083	-0.175252	0.395012
H296	H	0.072438	-0.124191	0.405799
O297	O	0.049191	-0.121915	0.574603
C298	C	0.009655	-0.127343	0.659289
C299	C	0.042000	-0.155448	0.622672
H300	H	0.003840	-0.154442	0.698161
H301	H	-0.027188	-0.103411	0.653465
H302	H	0.028400	-0.103364	0.653345
H303	H	0.023298	-0.179453	0.628594
H304	H	0.078842	-0.179349	0.628506
H305	H	0.015913	-0.654818	0.174378
O306	O	0.082976	-0.222753	0.608113
C307	C	0.112479	-0.280464	0.675813
C308	C	0.125977	-0.252307	0.620475
H309	H	0.147237	-0.304357	0.685826
H310	H	0.091675	-0.304476	0.685955
H311	H	0.088525	-0.253372	0.696632
H312	H	0.149947	-0.279364	0.599618
H313	H	0.146756	-0.228288	0.610370
H314	H	-0.015148	-0.685706	0.267200
H315	H	-0.015331	-0.685697	0.386578
O316	O	0.027181	-0.687377	0.316259
C317	C	0.111098	-0.692861	0.286849
C318	C	0.074900	-0.720935	0.313523
H319	H	0.149688	-0.719980	0.284620
H320	H	0.100843	-0.668914	0.307777
H321	H	0.109561	-0.668900	0.248369
H322	H	0.076418	-0.744922	0.352004
H323	H	0.085166	-0.744851	0.292558
H324	H	-0.090949	-0.534065	0.310634
H325	H	-0.097376	-0.783993	0.408060
O326	O	0.060650	-0.788253	0.349956
C327	C	0.123562	-0.867121	0.362305
C328	C	0.068670	-0.838903	0.370181
H329	H	0.130065	-0.908077	0.378643
H330	H	0.136256	-0.857113	0.380923
H331	H	0.145010	-0.857057	0.321481
H332	H	0.047183	-0.848951	0.410993
H333	H	0.056015	-0.848914	0.351531
O334	O	-0.136104	-0.687215	0.378225
C335	C	-0.216421	-0.692537	0.411207
C336	C	-0.161522	-0.720700	0.403328
H337	H	-0.236989	-0.719598	0.431512
H338	H	-0.222075	-0.668607	0.374288
H339	H	-0.230846	-0.668550	0.433684
H340	H	-0.147060	-0.744714	0.380868
H341	H	-0.155900	-0.744599	0.440264
H342	H	-0.134607	-0.647683	0.424287
H343	H	-0.227429	-0.616637	0.455084
H344	H	-0.134369	-0.571905	0.272603
O345	O	-0.231131	-0.536240	0.298102
C346	C	-0.225605	-0.496663	0.213385
C347	C	-0.197557	-0.529046	0.250055
H348	H	-0.198472	-0.490844	0.174532
H349	H	-0.249535	-0.459820	0.219213
H350	H	-0.249578	-0.515381	0.219269
H351	H	-0.173558	-0.510371	0.244194
H352	H	-0.173658	-0.565887	0.244219
