data_functionalizedCrystal
_audit_creation_method	'MofGen! by Chris Wilmer'
_symmetry_space_group_name_H-M	'P1'
_symmetry_Int_Tables_number	1
_symmetry_cell_setting	triclinic
loop_
_symmetry_equiv_pos_as_xyz
  x,y,z
_cell_length_a	19.077105
_cell_length_b	16.120484
_cell_length_c	19.076919
_cell_angle_alpha	95.046610
_cell_angle_beta	90.076224
_cell_angle_gamma	90.738523
loop_
_atom_site_label
_atom_site_type_symbol
_atom_site_fract_x
_atom_site_fract_y
_atom_site_fract_z
Zn1	Zn	1.040337	-0.403262	-0.456942
Zn2	Zn	1.039017	-0.537287	-0.344927
Zn3	Zn	0.928051	-0.392095	-0.334278
Zn4	Zn	0.916861	-0.536784	-0.457659
O5	O	0.981066	-0.467357	-0.398451
O6	O	1.138276	-0.425924	-0.446240
O7	O	1.028428	-0.513564	-0.245000
O8	O	0.948182	-0.276934	-0.345793
O9	O	1.137306	-0.524392	-0.363943
O10	O	1.030678	-0.285138	-0.435913
O11	O	0.946902	-0.406892	-0.237176
O12	O	0.828452	-0.406405	-0.346488
O13	O	0.929109	-0.523535	-0.556078
O14	O	0.820230	-0.512707	-0.437136
O15	O	1.019827	-0.425436	-0.555551
O16	O	1.017576	-0.653863	-0.364638
O17	O	0.927829	-0.653494	-0.447462
C18	C	0.798901	-0.458290	-0.390734
C19	C	0.720969	-0.454433	-0.387451
C20	C	0.971363	-0.683924	-0.407299
C21	C	0.967276	-0.776577	-0.411111
C22	C	0.680093	-0.508043	-0.433036
C23	C	0.606867	-0.504408	-0.429953
C24	C	0.574519	-0.447165	-0.381281
C25	C	0.615400	-0.393548	-0.335694
C26	C	0.688624	-0.397180	-0.338781
C27	C	0.355979	-0.430354	-0.367000
C28	C	0.282749	-0.426728	-0.363916
C29	C	0.274222	-0.537586	-0.458176
C30	C	0.347448	-0.541217	-0.461255
C31	C	0.388323	-0.487598	-0.415670
N32	N	0.499670	-0.443449	-0.378128
N33	N	0.463169	-0.491310	-0.418828
C34	C	0.959816	-0.946215	-0.418084
C35	C	1.002442	-0.987665	-0.378836
C36	C	0.998291	-1.082058	-0.382716
C37	C	0.963966	-0.851814	-0.414205
C38	C	1.163943	-0.476459	-0.406199
C39	C	1.241874	-0.480338	-0.409501
C40	C	0.973367	-0.475675	-0.582072
C41	C	0.970086	-0.479220	-0.660321
C42	C	0.990826	-0.249946	-0.389585
C43	C	0.994984	-0.157298	-0.385807
C44	C	1.015774	-0.429813	-0.696809
C45	C	1.012683	-0.433140	-0.770331
C46	C	0.963906	-0.485879	-0.807364
C47	C	0.918214	-0.535288	-0.770871
C48	C	0.921302	-0.531956	-0.697350
C49	C	0.949602	-0.501317	-1.027278
C50	C	0.946518	-0.504647	-1.100804
C51	C	1.040987	-0.402498	-1.100259
C52	C	1.044074	-0.399174	-1.026737
C53	C	0.998378	-0.448580	-0.990250
N54	N	0.960747	-0.489283	-0.882516
N55	N	1.001535	-0.445171	-0.915099
C56	C	0.988779	-0.459013	-0.215544
C57	C	0.992206	-0.455240	-0.137292
H58	H	0.706425	-0.554659	-0.472667
O59	O	0.912632	-0.988416	-0.461744
C60	C	0.925852	-0.971090	-0.531713
H61	H	0.982746	-0.949969	-0.536724
H62	H	0.915856	-1.029661	-0.568534
H63	H	0.889645	-0.919630	-0.546459
H64	H	0.878496	-0.578226	-0.801029
H65	H	0.884091	-0.572180	-0.667641
O66	O	1.063177	-0.378509	-0.660945
C67	C	1.102850	-0.335630	-0.708921
H68	H	1.072059	-0.333691	-0.759992
H69	H	1.114169	-0.269365	-0.685319
H70	H	1.154401	-0.369158	-0.720245
H71	H	0.256414	-0.380104	-0.324285
O72	O	1.056965	-0.385046	-0.805793
C73	C	1.017674	-0.331158	-0.844437
H74	H	0.963614	-0.322267	-0.819728
H75	H	1.045873	-0.268307	-0.843720
H76	H	1.011765	-0.359322	-0.901109
O77	O	0.234547	-0.589778	-0.502393
C78	C	0.249380	-0.673014	-0.491059
H79	H	0.271666	-0.675577	-0.435828
H80	H	0.199131	-0.712090	-0.496730
H81	H	0.289337	-0.698682	-0.531455
H82	H	1.042052	-0.952260	-0.342319
H83	H	1.083794	-0.356231	-0.996590
O84	O	0.395574	-0.378235	-0.322649
C85	C	0.351318	-0.326921	-0.279043
H86	H	0.297699	-0.358364	-0.275749
H87	H	0.375191	-0.316454	-0.224113
H88	H	0.345276	-0.264452	-0.302003
H89	H	1.078188	-0.362273	-1.129975
O90	O	0.378834	-0.596736	-0.508634
C91	C	0.358807	-0.580954	-0.577330
H92	H	0.341509	-0.513537	-0.577408
H93	H	0.405185	-0.592166	-0.614428
H94	H	0.313533	-0.624398	-0.595703
O95	O	0.899070	-0.555897	-1.136669
C96	C	0.859411	-0.598805	-1.088701
H97	H	0.860713	-0.562169	-1.034797
H98	H	0.802880	-0.605907	-1.107968
H99	H	0.882570	-0.663036	-1.084550
O100	O	0.905153	-0.549182	-0.991794
C101	C	0.863800	-0.497538	-0.945400
H102	H	0.861486	-0.432681	-0.964703
H103	H	0.808523	-0.524959	-0.943500
H104	H	0.887949	-0.493214	-0.890484
O105	O	0.567265	-0.556579	-0.474257
C106	C	0.611518	-0.607876	-0.517882
H107	H	0.664793	-0.611979	-0.491359
H108	H	0.587114	-0.672853	-0.527080
H109	H	0.618432	-0.580275	-0.570483
O110	O	0.583866	-0.338012	-0.288439
C111	C	0.510471	-0.346286	-0.295500
H112	H	0.496629	-0.411202	-0.320671
H113	H	0.485099	-0.336759	-0.241369
H114	H	0.490336	-0.297588	-0.330170
O115	O	0.728363	-0.345023	-0.294595
C116	C	0.771462	-0.295193	-0.334338
H117	H	0.747309	-0.291565	-0.388656
H118	H	0.776224	-0.229890	-0.306377
H119	H	0.825705	-0.323828	-0.340119
