data_functionalizedCrystal
_audit_creation_method	'MofGen! by Chris Wilmer'
_symmetry_space_group_name_H-M	'P1'
_symmetry_Int_Tables_number	1
_symmetry_cell_setting	triclinic
loop_
_symmetry_equiv_pos_as_xyz
  x,y,z
_cell_length_a	14.560432
_cell_length_b	21.606444
_cell_length_c	21.606444
_cell_angle_alpha	59.991153
_cell_angle_beta	90.002308
_cell_angle_gamma	60.004264
loop_
_atom_site_label
_atom_site_type_symbol
_atom_site_fract_x
_atom_site_fract_y
_atom_site_fract_z
Zr1	Zr	0.884749	0.677529	-0.081337
O2	O	0.738097	0.806661	-0.180186
O3	O	0.929704	0.548398	-0.051020
O4	O	0.929696	0.677534	-0.180164
O5	O	0.738113	0.677520	0.050813
O6	O	1.080833	0.677536	-0.180164
O7	O	0.738105	0.677525	-0.051041
O8	O	1.080849	0.446536	0.050851
O9	O	0.738097	0.908521	-0.180203
O10	O	1.061671	0.601513	-0.038108
O11	O	0.948884	0.601508	0.037904
O12	O	0.948874	0.753548	-0.114146
O13	O	0.836087	0.753543	-0.038133
Zr14	Zr	1.125808	0.677526	0.081108
Zr15	Zr	1.125796	0.677533	-0.081338
Zr16	Zr	0.884761	0.677522	0.081108
Zr17	Zr	0.884750	0.839984	-0.081364
Zr18	Zr	1.125806	0.515071	0.081135
O19	O	1.080852	0.806657	0.050791
O20	O	1.080834	0.806667	-0.180186
O21	O	0.738114	0.806651	0.050791
O22	O	1.272460	0.548394	0.179956
O23	O	1.272442	0.548404	-0.051020
O24	O	0.929722	0.548388	0.179957
O25	O	1.272443	0.677534	-0.051042
O26	O	1.080861	0.677521	0.179935
O27	O	0.929723	0.677518	0.179935
O28	O	1.272451	0.677530	0.050812
O29	O	0.929698	0.908524	-0.180203
O30	O	1.080859	0.446531	0.179973
O31	O	1.272459	0.446534	0.179973
O32	O	1.272449	0.446539	0.050851
O33	O	0.738107	0.908515	-0.051080
O34	O	0.929707	0.908519	-0.051080
O35	O	1.061682	0.601506	0.113917
O36	O	1.174469	0.601512	0.037904
O37	O	1.061672	0.753547	-0.038134
O38	O	0.948885	0.753542	0.037879
C39	C	1.005276	0.474321	-0.000081
C40	C	1.005276	0.405354	-0.000069
C41	C	0.922006	0.429090	-0.056197
C42	C	0.922009	0.364301	-0.056213
C43	C	1.005278	0.275776	-0.000097
C44	C	1.088557	0.252041	0.056034
C45	C	1.088558	0.316829	0.056046
C46	C	1.088556	-0.009246	0.055987
C47	C	1.088547	-0.074035	0.055972
C48	C	0.922007	0.038225	-0.056273
C49	C	0.922008	0.103014	-0.056261
C50	C	1.005289	0.079273	-0.000132
C51	C	1.005287	0.149526	-0.000117
C52	C	1.005277	0.205524	-0.000109
C53	C	0.703765	0.677522	-0.000114
C54	C	0.601434	0.677520	-0.000114
C55	C	0.719178	0.518794	0.079263
C56	C	0.729973	0.439433	0.118947
C57	C	0.633820	0.439437	0.118945
C58	C	0.526864	0.518810	0.079256
C59	C	0.516070	0.598170	0.039572
C60	C	0.612231	0.598158	0.039576
C61	C	0.398327	0.756895	-0.039800
C62	C	0.494478	0.756893	-0.039803
C63	C	0.291371	0.836268	-0.079489
C64	C	0.280575	0.915630	-0.119179
C65	C	0.376736	0.915623	-0.119176
C66	C	0.483683	0.836254	-0.079488
C67	C	1.306791	0.677533	-0.000115
C68	C	1.409122	0.677534	-0.000115
C69	C	1.005263	0.677536	-0.203309
C70	C	1.005258	0.677539	-0.272272
C71	C	1.005280	0.880734	-0.000149
C72	C	1.005280	0.949701	-0.000160
C73	C	0.946378	0.756899	-0.344361
C74	C	0.946388	0.756897	-0.409156
C75	C	1.005271	0.677533	-0.401860
C76	C	1.064158	0.598167	-0.329763
C77	C	1.064154	0.598170	-0.264969
C78	C	1.064176	0.598152	-0.591066
C79	C	1.064172	0.598154	-0.655866
C80	C	0.946410	0.756878	-0.735252
C81	C	0.946406	0.756882	-0.670459
C82	C	1.005297	0.677516	-0.598368
C83	C	1.005287	0.677519	-0.528110
C84	C	1.005275	0.677529	-0.472116
C85	C	1.005293	0.677519	0.203080
C86	C	1.005299	0.677516	0.272042
C87	C	1.306790	0.474326	-0.000081
C88	C	1.409120	0.405361	-0.000070
C89	C	1.005292	0.474312	0.203114
C90	C	1.005296	0.405342	0.272088
C91	C	1.306805	0.474317	0.203114
C92	C	1.409140	0.405350	0.272087
C93	C	0.703751	0.880737	-0.203343
C94	C	0.601416	0.949705	-0.272317
C95	C	0.703767	0.880729	-0.000148
C96	C	0.601436	0.949693	-0.000160
C97	C	1.005265	0.880743	-0.203343
C98	C	1.005260	0.949712	-0.272317
C99	C	1.398296	0.372975	-0.039749
C100	C	1.494437	0.308185	-0.039753
C101	C	1.601401	0.275777	-0.000074
C102	C	1.612222	0.308169	0.039607
C103	C	1.516083	0.372963	0.039606
C104	C	1.064178	0.372953	0.344163
C105	C	1.064178	0.308158	0.408978
C106	C	1.005302	0.275749	0.401715
C107	C	0.946414	0.308145	0.329632
C108	C	0.946408	0.372943	0.264819
C109	C	1.516082	0.372964	0.264800
C110	C	1.612246	0.308171	0.329602
C111	C	1.601466	0.275759	0.401691
C112	C	1.494514	0.308151	0.408976
C113	C	1.398352	0.372948	0.344175
C114	C	0.494475	0.982098	-0.265030
C115	C	0.398310	1.046912	-0.329832
C116	C	0.409090	1.079327	-0.401920
C117	C	0.516043	1.046931	-0.409206
C118	C	0.612204	0.982123	-0.344404
C119	C	0.612261	0.982086	0.039513
C120	C	0.516120	1.046895	0.039499
C121	C	0.409156	1.079305	-0.000183
C122	C	0.398334	1.046910	-0.039860
C123	C	0.494474	0.982107	-0.039850
C124	C	1.064147	0.982101	-0.265030
C125	C	1.064165	1.046896	-0.329833
C126	C	1.005288	1.079306	-0.401921
C127	C	0.946399	1.046912	-0.409206
C128	C	0.946389	0.982113	-0.344405
H129	H	1.156360	-0.146119	0.101670
Br130	Br	1.479903	0.264155	0.506817
H131	H	1.311279	0.399307	0.350119
H132	H	0.485676	0.955710	-0.206338
Br133	Br	0.253175	1.090862	-0.319926
H134	H	1.112108	0.533547	-0.323826
H135	H	1.112129	0.533527	-0.532374
H136	H	1.005316	0.222986	0.454496
Br137	Br	0.278572	1.167282	-0.489858
H138	H	0.524806	1.073332	-0.467907
H139	H	0.898463	1.073310	-0.467909
H140	H	1.112122	0.399333	0.350091
Br141	Br	0.875126	0.331718	0.172828
H142	H	0.699278	0.955749	-0.350347
Br143	Br	0.757414	0.938118	0.093371
H144	H	0.524953	1.073260	0.071812
H145	H	0.330882	1.132072	-0.000184
Br146	Br	1.479723	0.264236	-0.093607
H147	H	1.156365	0.297497	0.101752
H148	H	0.898445	0.821520	-0.467853
Br149	Br	1.530742	0.416942	0.166974
H150	H	0.193488	0.980249	-0.151487
Br151	Br	0.808984	0.549228	-0.132355
Br152	Br	0.253159	1.090902	-0.093708
H153	H	0.642615	0.374814	0.151263
Br154	Br	0.396372	0.518813	0.079271
H155	H	1.524912	0.399323	0.071922
Br156	Br	0.866452	0.938172	-0.354308
H157	H	1.156369	-0.028587	0.101690
Br158	Br	0.479763	0.938149	-0.093693
H159	H	0.854199	0.057550	-0.101978
Br160	Br	0.160876	0.836275	-0.079484
Br161	Br	1.201572	0.131900	0.132190
Br162	Br	1.757381	0.264223	0.319697
Br163	Br	0.849676	0.518783	0.079255
Br164	Br	0.866470	0.864593	-0.680366
H165	H	1.679777	0.222998	0.454450
Br166	Br	1.005312	1.167250	-0.489859
H167	H	0.854198	0.175093	-0.101954
Br168	Br	1.731866	0.187841	-0.000081
Br169	Br	1.144060	0.938130	-0.167204
H170	H	1.112117	1.073265	-0.323886
Br171	Br	1.144106	0.264205	0.506795
Br172	Br	0.866493	0.416889	0.167005
Br173	Br	0.808992	0.396519	-0.132389
H174	H	0.367933	0.980249	-0.151483
H175	H	0.561983	0.836240	-0.079484
H176	H	0.898421	0.821527	-0.350311
H177	H	1.112125	0.533523	-0.649917
Br178	Br	1.144083	0.490463	-0.167130
Br179	Br	0.866485	0.864592	-0.833095
Br180	Br	1.253143	0.416946	-0.093609
Br181	Br	1.757397	0.264175	0.093457
H182	H	0.898479	0.281748	0.323730
