data_functionalizedCrystal
_audit_creation_method	'MofGen! by Chris Wilmer'
_symmetry_space_group_name_H-M	'P1'
_symmetry_Int_Tables_number	1
_symmetry_cell_setting	triclinic
loop_
_symmetry_equiv_pos_as_xyz
  x,y,z
_cell_length_a	19.288864
_cell_length_b	9.065218
_cell_length_c	17.766277
_cell_angle_alpha	89.995554
_cell_angle_beta	89.976791
_cell_angle_gamma	84.076066
loop_
_atom_site_label
_atom_site_type_symbol
_atom_site_fract_x
_atom_site_fract_y
_atom_site_fract_z
O1	O	0.922782	0.184032	-0.062833
O2	O	0.720714	0.208857	-0.062781
O3	O	0.825925	-0.018344	-0.062807
O4	O	0.817571	0.411233	-0.062808
O5	O	0.825906	-0.018356	0.062382
O6	O	0.720695	0.208846	0.062407
O7	O	0.922763	0.184020	0.062355
Cu8	Cu	0.821727	0.196432	0.073812
Cu9	Cu	0.821750	0.196445	-0.074238
O10	O	0.817552	0.411222	0.062381
C11	C	0.694822	0.208053	-0.000180
C12	C	0.617700	0.205655	-0.000161
C13	C	0.574039	0.338966	-0.000173
C14	C	0.501574	0.336713	-0.000181
C15	C	0.472774	0.201142	-0.000192
C16	C	0.516445	0.067812	-0.000176
C17	C	0.588908	0.070069	-0.000160
C18	C	0.363691	0.094571	-0.044077
C19	C	0.291229	0.092320	-0.044097
C20	C	0.249274	0.194176	-0.000238
C21	C	0.279789	0.298308	0.043632
C22	C	0.352252	0.300565	0.043648
C23	C	0.394201	0.198680	-0.000209
C24	C	0.127038	0.325054	-0.000258
C25	C	0.054572	0.322796	-0.000262
C26	C	0.069445	0.053891	-0.000264
C27	C	0.141909	0.056153	-0.000253
C28	C	0.170701	0.191739	-0.000253
C29	C	0.825112	-0.073309	-0.000213
C30	C	0.822712	-0.237067	-0.000216
C31	C	0.948655	0.184825	-0.000247
C32	C	1.025777	0.187223	-0.000272
C33	C	0.818365	0.466186	-0.000214
C34	C	0.820765	0.629945	-0.000216
N35	N	0.821717	0.196421	0.177942
N36	N	0.821766	0.196444	-0.178368
C37	C	0.868320	0.095866	0.217318
C38	C	0.868324	0.095859	0.296120
C39	C	0.821732	0.196433	0.335543
C40	C	0.775120	0.296996	0.296158
C41	C	0.775113	0.296991	0.217358
C42	C	0.813476	0.330849	0.460382
C43	C	0.813489	0.330856	0.539181
C44	C	0.821750	0.196451	0.578589
C45	C	0.830014	0.062032	0.539189
C46	C	0.830007	0.062026	0.460389
C47	C	0.821734	0.196450	0.420989
C48	C	0.868360	0.095879	0.703411
C49	C	0.868359	0.095871	0.782214
C50	C	0.775159	0.297021	0.782251
C51	C	0.775156	0.297017	0.703449
C52	C	0.821761	0.196448	0.664034
H53	H	0.466018	0.445275	-0.000189
C54	C	0.636940	-0.076576	-0.000152
H55	H	0.684220	-0.055814	-0.000139
H56	H	0.628142	-0.132187	-0.043810
H57	H	0.628098	-0.132188	0.043508
C58	C	0.804399	0.478704	0.582517
H59	H	0.805596	0.459461	0.635092
H60	H	0.760923	0.531538	0.569626
H61	H	0.841085	0.536320	0.569578
C62	C	0.037773	-0.095236	-0.000281
H63	H	-0.011637	-0.077489	-0.000298
H64	H	0.052680	-0.150121	0.043374
H65	H	0.052728	-0.150093	-0.043943
C66	C	0.919598	-0.014716	0.173962
H67	H	0.912931	-0.000301	0.121391
H68	H	0.911465	-0.113153	0.186876
H69	H	0.966045	0.001119	0.186863
C70	C	0.919621	-0.014750	0.825531
H71	H	0.912945	-0.000359	0.878107
H72	H	0.966072	0.001024	0.812594
H73	H	0.911458	-0.113173	0.812624
H74	H	0.906275	0.013971	0.328185
H75	H	0.266390	0.007536	-0.079822
H76	H	0.806737	0.440305	0.428302
C77	C	0.409834	-0.017467	-0.092331
H78	H	0.381283	-0.079786	-0.118470
H79	H	0.441383	-0.076162	-0.060714
H80	H	0.435295	0.034443	-0.127593
C81	C	0.839107	-0.085826	0.582524
H82	H	0.844034	-0.165875	0.547773
H83	H	0.799376	-0.093807	0.613286
H84	H	0.879537	-0.089019	0.613241
C85	C	0.189941	-0.090487	-0.000251
H86	H	0.237222	-0.069727	-0.000235
H87	H	0.181144	-0.146095	-0.043909
H88	H	0.181097	-0.146103	0.043408
H89	H	0.492991	-0.042571	-0.000196
C90	C	0.839086	-0.085819	0.417049
H91	H	0.844103	-0.165868	0.451798
H92	H	0.879448	-0.088937	0.386202
H93	H	0.799295	-0.093872	0.386417
C94	C	0.919611	-0.014756	0.660048
H95	H	0.912938	-0.000347	0.607477
H96	H	0.911449	-0.113170	0.672972
H97	H	0.966068	0.001017	0.672936
H98	H	0.737220	0.378905	0.814348
C99	C	0.723900	0.407645	0.660133
H100	H	0.696155	0.467553	0.694896
H101	H	0.694653	0.354736	0.629411
H102	H	0.749272	0.468923	0.629378
H103	H	0.377094	0.385348	0.079371
C104	C	0.723872	0.407629	0.339520
H105	H	0.730556	0.393242	0.392090
H106	H	0.677417	0.391859	0.326635
H107	H	0.732035	0.506050	0.326592
H108	H	0.737162	0.378876	0.185297
H109	H	0.597476	0.449370	-0.000175
H110	H	0.245630	0.381248	0.079347
C111	C	0.006541	0.469442	-0.000276
H112	H	-0.040739	0.448683	-0.000277
H113	H	0.015385	0.525050	-0.043932
H114	H	0.015339	0.525057	0.043385
H115	H	0.150482	0.435456	-0.000247
