data_functionalizedCrystal
_audit_creation_method	'MofGen! by Chris Wilmer'
_symmetry_space_group_name_H-M	'P1'
_symmetry_Int_Tables_number	1
_symmetry_cell_setting	triclinic
loop_
_symmetry_equiv_pos_as_xyz
  x,y,z
_cell_length_a	14.908520
_cell_length_b	11.169417
_cell_length_c	11.169409
_cell_angle_alpha	90.022423
_cell_angle_beta	93.260433
_cell_angle_gamma	86.680427
loop_
_atom_site_label
_atom_site_type_symbol
_atom_site_fract_x
_atom_site_fract_y
_atom_site_fract_z
Zn1	Zn	-0.359109	-1.807304	-0.706122
Zn2	Zn	0.140891	-1.307304	-0.206122
Zn3	Zn	-0.510001	-1.795565	-0.517002
Zn4	Zn	-0.010001	-1.295565	-0.017002
Zn5	Zn	-0.359159	-1.606583	-0.505454
Zn6	Zn	0.140841	-1.106583	-0.005454
Zn7	Zn	-0.509922	-1.594978	-0.717635
Zn8	Zn	-0.009922	-1.094978	-0.217635
O9	O	-0.434548	-1.701108	-0.611553
O10	O	0.065452	-1.201108	-0.111553
O11	O	-0.379137	-1.973695	-0.681050
O12	O	0.120863	-1.473695	-0.181050
O13	O	-0.490045	-1.770441	-0.347525
O14	O	0.009955	-1.270441	0.152475
O15	O	-0.232908	-1.642979	-0.522422
O16	O	0.267092	-1.142979	-0.022422
O17	O	-0.489997	-1.965071	-0.542104
O18	O	0.010003	-1.465071	-0.042104
O19	O	-0.232872	-1.790447	-0.669852
O20	O	0.267128	-1.290447	-0.169852
O21	O	-0.379222	-1.631596	-0.339040
O22	O	0.120778	-1.131596	0.160960
O23	O	-0.379146	-1.437095	-0.533585
O24	O	0.120854	-0.937095	-0.033585
O25	O	-0.489863	-1.623199	-0.884053
O26	O	0.010137	-1.123199	-0.384053
O27	O	-0.489911	-1.428569	-0.689473
O28	O	0.010089	-0.928569	-0.189473
O29	O	-0.379061	-1.779194	-0.875595
O30	O	0.120939	-1.279194	-0.375595
O31	O	-0.636234	-1.759187	-0.553268
O32	O	-0.136234	-1.259187	-0.053268
O33	O	-0.636176	-1.611817	-0.700672
O34	O	-0.136176	-1.111817	-0.200672
C35	C	-0.434526	-1.389285	-0.611526
C36	C	0.065474	-0.889285	-0.111526
C37	C	-0.434539	-1.255884	-0.611544
C38	C	0.065461	-0.755884	-0.111544
C39	C	-0.668939	-1.683002	-0.629498
C40	C	-0.168939	-1.183002	-0.129498
C41	C	-0.769212	-1.675366	-0.637215
C42	C	-0.269212	-1.175366	-0.137215
C43	C	-0.957636	-1.814632	-0.498349
C44	C	-0.457636	-1.314632	0.001651
C45	C	-1.051852	-1.807461	-0.505596
C46	C	-0.551852	-1.307461	-0.005596
C47	C	-1.051862	-1.653860	-0.658962
C48	C	-0.551862	-1.153860	-0.158962
C49	C	-0.957646	-1.661031	-0.651715
C50	C	-0.457646	-1.161031	-0.151715
C51	C	-0.910536	-1.741418	-0.571404
C52	C	-0.410536	-1.241418	-0.071404
C53	C	-0.816318	-1.748582	-0.564152
C54	C	-0.316318	-1.248582	-0.064152
C55	C	-0.816330	-1.594988	-0.717523
C56	C	-0.316330	-1.094988	-0.217523
C57	C	-0.910546	-1.587818	-0.724770
C58	C	-0.410546	-1.087818	-0.224770
C59	C	-0.199241	-1.719317	-0.593564
C60	C	0.300759	-1.219317	-0.093564
C61	C	-0.098968	-1.727077	-0.585898
C62	C	0.401032	-1.227077	-0.085898
C63	C	-0.434448	-1.701211	-0.924588
C64	C	0.065552	-1.201211	-0.424588
C65	C	-0.434405	-1.701256	-1.057985
C66	C	0.065595	-1.201256	-0.557985
C67	C	-0.434562	-1.014149	-0.611571
C68	C	0.065438	-0.514149	-0.111571
C69	C	-0.434549	-1.147550	-0.611553
C70	C	0.065451	-0.647550	-0.111553
C71	C	-0.434582	-1.701078	-0.299731
C72	C	0.065418	-1.201078	0.200269
C73	C	-0.434371	-1.701286	-0.166315
C74	C	0.065629	-1.201286	0.333685
H75	H	-0.777963	-1.814034	-0.498756
H76	H	-0.277963	-1.314034	0.001244
Br77	Br	-0.893697	-1.923701	-0.389338
Br78	Br	-0.393697	-1.423701	0.110662
H79	H	-1.090235	-1.588421	-0.724354
H80	H	-0.590235	-1.088421	-0.224354
Br81	Br	-0.974488	-1.478733	-0.833764
Br82	Br	-0.474488	-0.978733	-0.333764
Br83	Br	-1.115771	-1.906832	-0.406451
Br84	Br	-0.615771	-1.406832	0.093549
H85	H	-0.777971	-1.535369	-0.777006
H86	H	-0.277971	-1.035369	-0.277006
