data_functionalizedCrystal
_audit_creation_method	'MofGen! by Chris Wilmer'
_symmetry_space_group_name_H-M	'P1'
_symmetry_Int_Tables_number	1
_symmetry_cell_setting	triclinic
loop_
_symmetry_equiv_pos_as_xyz
  x,y,z
_cell_length_a	18.050582
_cell_length_b	11.169417
_cell_length_c	11.169416
_cell_angle_alpha	89.988781
_cell_angle_beta	89.983773
_cell_angle_gamma	90.011564
loop_
_atom_site_label
_atom_site_type_symbol
_atom_site_fract_x
_atom_site_fract_y
_atom_site_fract_z
Zn1	Zn	-0.419879	-1.834864	-0.477855
Zn2	Zn	-0.295703	-1.834783	-0.678545
Zn3	Zn	-0.295710	-1.634179	-0.477877
Zn4	Zn	-0.419858	-1.634158	-0.678498
O5	O	-0.357787	-1.734496	-0.578194
O6	O	-0.403412	-2.002803	-0.504487
O7	O	-0.191779	-1.808147	-0.651954
O8	O	-0.312193	-1.660844	-0.309925
O9	O	-0.312180	-2.002743	-0.651933
O10	O	-0.403419	-1.808286	-0.309908
O11	O	-0.191785	-1.660765	-0.504525
O12	O	-0.312173	-1.466227	-0.504480
O13	O	-0.523786	-1.660807	-0.651854
O14	O	-0.403384	-1.466211	-0.651875
O15	O	-0.523801	-1.808266	-0.504442
O16	O	-0.312160	-1.808126	-0.846488
O17	O	-0.403377	-1.660728	-0.846454
C18	C	-0.357778	-1.422671	-0.578176
C19	C	-0.357791	-1.289271	-0.578197
C20	C	-0.551493	-1.734543	-0.578141
C21	C	-0.634039	-1.734563	-0.578118
C22	C	-0.357782	-1.734449	-0.890018
C23	C	-0.357804	-1.734538	-1.023418
C24	C	-0.833482	-1.654437	-0.658171
C25	C	-0.882871	-1.763943	-0.687506
C26	C	-0.785169	-1.734622	-0.578026
C27	C	-0.882862	-1.625176	-0.548657
C28	C	-0.931155	-1.734670	-0.577940
C29	C	-0.833472	-1.844186	-0.607419
C30	C	-0.833458	-1.705345	-0.468519
C31	C	-0.882825	-1.814927	-0.497813
C32	C	-0.701071	-1.734593	-0.578079
C33	C	-1.015251	-1.734711	-0.577887
C34	C	-0.164835	-1.734518	-0.578160
C35	C	-0.082290	-1.734731	-0.577845
C36	C	-0.357797	-2.047538	-0.578213
C37	C	-0.357802	-2.180938	-0.578221
C38	C	-0.357809	-1.734577	-0.265151
C39	C	-0.357819	-1.734611	-0.131751
H40	H	-0.811816	-1.586690	-0.726035
N41	N	-0.804861	-1.966819	-0.640538
H42	H	-0.848033	-2.022382	-0.655453
H43	H	-0.773637	-1.999267	-0.572897
H44	H	-0.904575	-1.788735	-0.780077
N45	N	-0.911358	-1.904878	-0.408001
H46	H	-0.892589	-1.883501	-0.325552
H47	H	-0.893286	-1.987457	-0.430421
N48	N	-0.804674	-1.672467	-0.345940
H49	H	-0.822605	-1.589713	-0.323860
H50	H	-0.748729	-1.673539	-0.346800
H51	H	-0.904557	-1.532599	-0.523853
