data_functionalizedCrystal
_audit_creation_method	'MofGen! by Chris Wilmer'
_symmetry_space_group_name_H-M	'P1'
_symmetry_Int_Tables_number	1
_symmetry_cell_setting	triclinic
loop_
_symmetry_equiv_pos_as_xyz
  x,y,z
_cell_length_a	31.640172
_cell_length_b	17.052679
_cell_length_c	17.052892
_cell_angle_alpha	62.965461
_cell_angle_beta	102.309630
_cell_angle_gamma	53.470888
loop_
_atom_site_label
_atom_site_type_symbol
_atom_site_fract_x
_atom_site_fract_y
_atom_site_fract_z
Zr1	Zr	0.237643	1.123930	-0.350752
O2	O	0.125412	1.338185	-0.525686
O3	O	0.292855	0.909690	-0.264690
O4	O	0.243599	1.123928	-0.478914
O5	O	0.189853	1.123944	-0.179375
O6	O	0.313157	1.123910	-0.478915
O7	O	0.174668	1.123947	-0.311462
O8	O	0.401268	0.740677	-0.095708
O9	O	0.101742	1.507177	-0.562582
O10	O	0.343174	0.997792	-0.267174
O11	O	0.302595	0.997803	-0.168598
O12	O	0.244602	1.250041	-0.420819
O13	O	0.204024	1.250052	-0.322242
Zr14	Zr	0.372797	1.123899	-0.140090
Zr15	Zr	0.348580	1.123903	-0.350754
Zr16	Zr	0.261860	1.123926	-0.140088
Zr17	Zr	0.199892	1.393454	-0.409597
Zr18	Zr	0.410548	0.854376	-0.081245
O19	O	0.317584	1.338140	-0.226153
O20	O	0.283150	1.338145	-0.525689
O21	O	0.159846	1.338179	-0.226149
O22	O	0.485028	0.909644	0.034844
O23	O	0.450593	0.909650	-0.264693
O24	O	0.327290	0.909684	0.034847
O25	O	0.420587	1.123885	-0.311467
O26	O	0.366841	1.123901	-0.011929
O27	O	0.297283	1.123919	-0.011927
O28	O	0.435771	1.123883	-0.179380
O29	O	0.189922	1.507155	-0.562584
O30	O	0.420517	0.740674	0.071742
O31	O	0.508698	0.740652	0.071740
O32	O	0.489448	0.740655	-0.095710
O33	O	0.120992	1.507174	-0.395133
O34	O	0.209172	1.507152	-0.395134
O35	O	0.365838	0.997788	-0.070024
O36	O	0.406416	0.997777	-0.168600
O37	O	0.307845	1.250026	-0.322245
O38	O	0.267266	1.250037	-0.223668
C39	C	0.352440	0.786782	-0.171815
C40	C	0.368466	0.672363	-0.146833
C41	C	0.174716	0.722337	-0.448839
C42	C	0.159658	0.829835	-0.472298
C43	C	0.211859	0.790474	-0.390934
C44	C	0.279120	0.643601	-0.286106
C45	C	0.294177	0.536092	-0.262640
C46	C	0.331320	0.604228	-0.204736
C47	C	0.398581	0.457355	-0.099908
C48	C	0.413635	0.349859	-0.076447
C49	C	0.361435	0.389221	-0.157811
C50	C	0.316263	0.711737	-0.228202
C51	C	0.435724	0.525492	-0.042004
C52	C	0.450782	0.417994	-0.018545
C53	C	0.166455	1.123949	-0.245418
C54	C	0.119359	1.123961	-0.245417
C55	C	-0.181003	1.123890	-0.318181
C56	C	-0.357988	1.123872	-0.318185
O57	O	-0.387963	1.123808	-0.380033
N58	N	-0.371754	1.123873	-0.245418
C59	C	-0.341267	1.123870	-0.172640
O60	O	-0.357030	1.123856	-0.110739
C61	C	-0.164279	1.123878	-0.172632
C62	C	-0.150521	1.123891	-0.245412
C63	C	-0.167244	1.123901	-0.390954
C64	C	-0.123004	1.123914	-0.390958
C65	C	-0.092522	1.123915	-0.318188
C66	C	-0.106281	1.123903	-0.245415
C67	C	-0.133788	1.123864	-0.099848
C68	C	-0.089538	1.123862	-0.099850
C69	C	-0.075780	1.123875	-0.172630
C70	C	-0.031558	1.123917	-0.172648
N71	N	-0.017792	1.123915	-0.245414
C72	C	-0.048274	1.123914	-0.318184
C73	C	-0.434189	1.123868	-0.172652
C74	C	-0.478437	1.123869	-0.172655
C75	C	-0.495155	1.123868	-0.318198
C76	C	-0.450910	1.123878	-0.318200
C77	C	-0.420424	1.123867	-0.245418
C78	C	0.044634	1.123942	-0.318186
C79	C	0.088877	1.123960	-0.318187
C80	C	0.105593	1.123953	-0.172640
C81	C	0.061351	1.123942	-0.172643
C82	C	0.030874	1.123932	-0.245420
O83	O	-0.001553	1.123963	-0.110822
O84	O	-0.032489	1.123896	-0.380057
C85	C	-0.225244	1.123877	-0.318178
C86	C	-0.239002	1.123866	-0.245405
C87	C	-0.208521	1.123867	-0.172635
C88	C	-0.283250	1.123866	-0.245409
C89	C	-0.313732	1.123865	-0.318178
C90	C	-0.299966	1.123864	-0.390945
C91	C	-0.255726	1.123876	-0.390948
C92	C	-0.222286	1.123868	-0.099869
C93	C	-0.266528	1.123857	-0.099873
C94	C	-0.297010	1.123856	-0.172642
C95	C	0.443985	1.123880	-0.245424
C96	C	0.491081	1.123868	-0.245425
C97	C	0.274927	1.123920	-0.508929
C98	C	0.264646	1.123921	-0.598362
C99	C	0.258000	1.461047	-0.319028
C100	C	0.241974	1.575466	-0.344009
C101	C	0.388944	1.123901	-0.850472
C102	C	0.398602	1.123909	-0.766451
C103	C	0.365114	1.123912	-0.724424
C104	C	0.321966	1.123908	-0.766427
C105	C	0.312303	1.123911	-0.850463
C106	C	0.288473	1.123922	-0.724415
C107	C	0.245325	1.123918	-0.766418
C108	C	0.235664	1.123920	-0.850445
C109	C	0.269152	1.123918	-0.892471
C110	C	0.298136	1.123918	-0.640380
C111	C	0.221495	1.123928	-0.640371
C112	C	0.211837	1.123920	-0.724391
C113	C	0.335512	1.123910	0.018087
C114	C	0.345793	1.123908	0.107519
C115	C	0.491205	0.786748	-0.171818
C116	C	0.554327	0.672316	-0.146837
C117	C	0.382733	0.786777	0.091694
C118	C	0.409040	0.672356	0.206107
C119	C	0.521498	0.786743	0.091691
C120	C	0.594901	0.672309	0.206103
C121	C	0.088942	1.461087	-0.582533
C122	C	0.015539	1.575520	-0.696946
C123	C	0.119234	1.461081	-0.319025
C124	C	0.056112	1.575513	-0.344005
C125	C	0.227707	1.461052	-0.582536
C126	C	0.201400	1.575473	-0.696950
C127	C	0.550957	0.618586	-0.186570
C128	C	0.610258	0.511080	-0.163121
C129	C	0.672930	0.457300	-0.099932
C130	C	0.676298	0.511041	-0.060201
C131	C	0.616996	0.618552	-0.083657
C132	C	0.454407	0.618615	0.311301
C133	C	0.479122	0.511119	0.418809
C134	C	0.458473	0.457359	0.421124
C135	C	0.413100	0.511110	0.315918
C136	C	0.388382	0.618612	0.208410
C137	C	0.650558	0.618565	0.208377
C138	C	0.719529	0.511058	0.315868
C139	C	0.732842	0.457290	0.421087
C140	C	0.677178	0.511045	0.418809
C141	C	0.608208	0.618558	0.311317
C142	C	-0.040120	1.629277	-0.699222
C143	C	-0.109095	1.736818	-0.806721
C144	C	-0.122410	1.790591	-0.911940
C145	C	-0.066745	1.736829	-0.909661
C146	C	0.002228	1.629298	-0.802165
C147	C	0.059480	1.629255	-0.304284
C148	C	0.000172	1.736790	-0.327762
C149	C	-0.062501	1.790574	-0.390955
C150	C	-0.065868	1.736828	-0.430681
C151	C	-0.006562	1.629302	-0.407210
C152	C	0.222062	1.629199	-0.699225
C153	C	0.197357	1.736696	-0.806718
C154	C	0.151985	1.790472	-0.911935
C155	C	0.131324	1.736735	-0.909656
C156	C	0.156033	1.629233	-0.802163
H157	H	0.261496	0.831315	-0.313548
H158	H	-0.111804	1.123919	-0.450218
Cl159	Cl	-0.083494	1.804440	-1.041947
Cl160	Cl	0.755094	0.443409	0.019242
H161	H	0.002927	1.780532	-0.295403
H162	H	0.199595	0.878009	-0.410040
H163	H	0.607503	0.467337	-0.195479
Cl164	Cl	0.257014	1.123899	-0.998097
Cl165	Cl	0.352379	1.123921	-0.587586
Cl166	Cl	-0.144661	1.804452	-0.510116
Cl167	Cl	0.377258	1.123915	-0.618794
H168	H	0.505546	0.298397	0.066807
Cl169	Cl	-0.209124	1.925772	-1.047070
H170	H	0.471226	0.662374	0.309438
H171	H	0.214186	1.780437	-0.808552
Cl172	Cl	0.181412	1.123940	-0.903264
H173	H	0.176706	1.123918	-0.758600
Cl174	Cl	-0.010805	1.561744	-0.457145
H175	H	0.373689	0.301695	-0.138713
H176	H	0.562895	0.662303	0.309483
Cl177	Cl	0.138260	1.561670	-0.224846
Cl178	Cl	-0.023399	1.561698	-0.566961
H179	H	0.433732	1.123914	-0.732257
H180	H	-0.277730	1.123858	-0.040610
Cl181	Cl	0.489556	0.322210	0.556289
Cl182	Cl	0.120926	1.925624	-1.047062
H183	H	0.132219	0.754367	-0.515068
H184	H	0.259004	1.585431	-0.613563
Cl185	Cl	0.074277	1.804369	-1.041943
Cl186	Cl	0.044049	1.123949	-0.081160
Cl187	Cl	0.387150	0.443507	0.318848
H188	H	0.047545	1.585529	-0.800324
Cl189	Cl	0.621247	0.686076	-0.033688
Cl190	Cl	0.431032	1.123916	-0.903317
H191	H	0.104897	0.949414	-0.557655
Cl192	Cl	0.819553	0.322127	0.556212
Cl193	Cl	0.498187	0.165221	0.055348
H194	H	0.194225	1.123934	-0.606155
H195	H	0.478229	0.493437	0.024252
H196	H	-0.110786	1.878128	-0.410059
H197	H	0.100074	1.123975	-0.377457
Cl198	Cl	0.006325	1.123931	-0.409681
H199	H	-0.192058	1.123896	-0.450212
Cl200	Cl	0.472175	0.686179	-0.266016
H201	H	-0.439712	1.123888	-0.377463
Cl202	Cl	0.747477	0.322138	-0.070451
Cl203	Cl	-0.533482	1.123864	-0.409677
H204	H	0.764844	0.467301	0.317703
Cl205	Cl	-0.495738	1.123881	-0.081175
Cl206	Cl	0.331352	0.686151	0.076175
H207	H	-0.409370	1.123861	-0.113382
Cl208	Cl	-0.151072	1.123842	-0.008346
Cl209	Cl	0.130043	1.561719	-0.799326
H210	H	0.130416	1.123960	-0.113395
Cl211	Cl	-0.051213	1.123844	-0.008343
Cl212	Cl	-0.179061	1.804377	-0.809558
Cl213	Cl	0.536163	0.443562	0.551051
Cl214	Cl	0.633837	0.686146	0.076115
H215	H	0.688029	0.467252	0.504492
H216	H	-0.324795	1.123871	-0.450202
Cl217	Cl	-0.238436	1.123890	-0.482445
H218	H	-0.197469	1.123866	-0.040609
