data_functionalizedCrystal
_audit_creation_method	'MofGen! by Chris Wilmer'
_symmetry_space_group_name_H-M	'P1'
_symmetry_Int_Tables_number	1
_symmetry_cell_setting	triclinic
loop_
_symmetry_equiv_pos_as_xyz
  x,y,z
_cell_length_a	21.395362
_cell_length_b	19.805405
_cell_length_c	21.395355
_cell_angle_alpha	89.980090
_cell_angle_beta	89.956060
_cell_angle_gamma	90.042288
loop_
_atom_site_label
_atom_site_type_symbol
_atom_site_fract_x
_atom_site_fract_y
_atom_site_fract_z
Zn1	Zn	0.957878	-0.269255	-0.354580
Zn2	Zn	1.207878	-0.019255	-0.104580
Zn3	Zn	1.457878	0.230745	0.145420
Zn4	Zn	1.707878	0.480745	0.395420
Zn5	Zn	0.957789	-0.382425	-0.249800
Zn6	Zn	1.207789	-0.132425	0.000200
Zn7	Zn	1.457789	0.117575	0.250200
Zn8	Zn	1.707789	0.367575	0.500200
Zn9	Zn	0.853093	-0.269286	-0.249781
Zn10	Zn	1.103093	-0.019286	0.000219
Zn11	Zn	1.353093	0.230714	0.250219
Zn12	Zn	1.603093	0.480714	0.500219
Zn13	Zn	0.853070	-0.382438	-0.354504
Zn14	Zn	1.103070	-0.132438	-0.104504
Zn15	Zn	1.353070	0.117562	0.145496
Zn16	Zn	1.603070	0.367562	0.395496
O17	O	0.905458	-0.325851	-0.302166
O18	O	1.155458	-0.075851	-0.052166
O19	O	1.405458	0.174149	0.197834
O20	O	1.655458	0.424149	0.447834
O21	O	1.045544	-0.284248	-0.340720
O22	O	1.295544	-0.034248	-0.090720
O23	O	1.545544	0.215752	0.159280
O24	O	1.795544	0.465752	0.409280
O25	O	0.943873	-0.367424	-0.162119
O26	O	1.193873	-0.117424	0.087881
O27	O	1.443873	0.132576	0.337881
O28	O	1.693873	0.382576	0.587881
O29	O	0.867040	-0.174565	-0.263706
O30	O	1.117040	0.075435	-0.013706
O31	O	1.367040	0.325435	0.236294
O32	O	1.617040	0.575435	0.486294
O33	O	1.045478	-0.367393	-0.263738
O34	O	1.295478	-0.117393	-0.013738
O35	O	1.545478	0.132607	0.236262
O36	O	1.795478	0.382607	0.486262
O37	O	0.944025	-0.174542	-0.340701
O38	O	1.194025	0.075458	-0.090701
O39	O	1.444025	0.325458	0.159299
O40	O	1.694025	0.575458	0.409299
O41	O	0.866953	-0.284302	-0.162105
O42	O	1.116953	-0.034302	0.087895
O43	O	1.366953	0.215698	0.337895
O44	O	1.616953	0.465698	0.587895
O45	O	0.765412	-0.284315	-0.263633
O46	O	1.015412	-0.034315	-0.013633
O47	O	1.265412	0.215685	0.236367
O48	O	1.515412	0.465685	0.486367
O49	O	0.867001	-0.367417	-0.442192
O50	O	1.117001	-0.117417	-0.192192
O51	O	1.367001	0.132583	0.057808
O52	O	1.617001	0.382583	0.307808
O53	O	0.765395	-0.367448	-0.340573
O54	O	1.015395	-0.117448	-0.090573
O55	O	1.265395	0.132552	0.159427
O56	O	1.515395	0.382552	0.409427
O57	O	0.944003	-0.284261	-0.442247
O58	O	1.194003	-0.034261	-0.192247
O59	O	1.444003	0.215739	0.057753
O60	O	1.694003	0.465739	0.307753
O61	O	0.943850	-0.477143	-0.263665
O62	O	1.193850	-0.227143	-0.013665
O63	O	1.443850	0.022857	0.236335
O64	O	1.693850	0.272857	0.486335
O65	O	0.866914	-0.477153	-0.340591
O66	O	1.116914	-0.227153	-0.090591
O67	O	1.366914	0.022847	0.159409
O68	O	1.616914	0.272847	0.409409
C69	C	0.742670	-0.325887	-0.302093
C70	C	0.992670	-0.075887	-0.052093
C71	C	1.242670	0.174113	0.197907
C72	C	1.492670	0.424113	0.447907
C73	C	0.673029	-0.325918	-0.302077
C74	C	0.923029	-0.075918	-0.052077
C75	C	1.173029	0.174082	0.197923
C76	C	1.423029	0.424082	0.447923
C77	C	0.905387	-0.501707	-0.302136
C78	C	1.155387	-0.251707	-0.052136
C79	C	1.405387	-0.001707	0.197864
C80	C	1.655387	0.248293	0.447864
C81	C	0.905414	-0.576939	-0.302144
C82	C	1.155414	-0.326939	-0.052144
C83	C	1.405414	-0.076939	0.197856
C84	C	1.655414	0.173061	0.447856
C85	C	0.640323	-0.369263	-0.342080
C86	C	0.890323	-0.119263	-0.092080
C87	C	1.140323	0.130737	0.157920
C88	C	1.390323	0.380737	0.407920
C89	C	0.574888	-0.369246	-0.342108
C90	C	0.824888	-0.119246	-0.092108
C91	C	1.074888	0.130754	0.157892
C92	C	1.324888	0.380754	0.407892
C93	C	0.542160	-0.325892	-0.302122
C94	C	0.792160	-0.075892	-0.052122
C95	C	1.042160	0.174108	0.197878
C96	C	1.292160	0.424108	0.447878
C97	C	0.574874	-0.282539	-0.262116
C98	C	0.824874	-0.032539	-0.012116
C99	C	1.074874	0.217461	0.237884
C100	C	1.324874	0.467461	0.487884
C101	C	0.640308	-0.282553	-0.262094
C102	C	0.890308	-0.032553	-0.012094
C103	C	1.140308	0.217447	0.237906
C104	C	1.390308	0.467447	0.487906
C105	C	0.438435	-0.320440	-0.245717
C106	C	0.688435	-0.070440	0.004283
C107	C	0.938435	0.179560	0.254283
C108	C	1.188435	0.429560	0.504283
C109	C	0.373002	-0.320431	-0.245738
C110	C	0.623002	-0.070431	0.004262
C111	C	0.873002	0.179569	0.254262
C112	C	1.123002	0.429569	0.504262
C113	C	0.340340	-0.325848	-0.302191
C114	C	0.590340	-0.075848	-0.052191
C115	C	0.840340	0.174152	0.197809
C116	C	1.090340	0.424152	0.447809
C117	C	0.373118	-0.331287	-0.358624
C118	C	0.623118	-0.081287	-0.108624
C119	C	0.873118	0.168713	0.141376
C120	C	1.123118	0.418713	0.391376
C121	C	0.438552	-0.331301	-0.358602
C122	C	0.688552	-0.081301	-0.108602
C123	C	0.938552	0.168699	0.141398
C124	C	1.188552	0.418699	0.391398
C125	C	0.471208	-0.325873	-0.302142
C126	C	0.721208	-0.075873	-0.052142
C127	C	0.971208	0.174127	0.197858
C128	C	1.221208	0.424127	0.447858
C129	C	0.236682	-0.369177	-0.342227
C130	C	0.486682	-0.119177	-0.092227
C131	C	0.736682	0.130823	0.157773
C132	C	0.986682	0.380823	0.407773
C133	C	0.171245	-0.369156	-0.342256
C134	C	0.421245	-0.119156	-0.092256
C135	C	0.671245	0.130844	0.157744
C136	C	0.921245	0.380844	0.407744
C137	C	0.171232	-0.282452	-0.262259
C138	C	0.421232	-0.032452	-0.012259
C139	C	0.671232	0.217548	0.237741
C140	C	0.921232	0.467548	0.487741
C141	C	0.236668	-0.282470	-0.262236
C142	C	0.486668	-0.032470	-0.012236
C143	C	0.736668	0.217530	0.237764
C144	C	0.986668	0.467530	0.487764
C145	C	0.269388	-0.325836	-0.302219
C146	C	0.519388	-0.075836	-0.052219
C147	C	0.769388	0.174164	0.197781
C148	C	1.019388	0.424164	0.447781
C149	C	0.945514	-0.612255	-0.262130
C150	C	1.195514	-0.362255	-0.012130
C151	C	1.445514	-0.112255	0.237870
C152	C	1.695514	0.137745	0.487870
C153	C	0.945540	-0.682944	-0.262144
C154	C	1.195540	-0.432944	-0.012144
C155	C	1.445540	-0.182944	0.237856
C156	C	1.695540	0.067056	0.487856
C157	C	0.905464	-0.718315	-0.302169
C158	C	1.155464	-0.468315	-0.052169
C159	C	1.405464	-0.218315	0.197831
C160	C	1.655464	0.031685	0.447831
C161	C	0.865362	-0.682993	-0.342187
C162	C	1.115362	-0.432993	-0.092187
C163	C	1.365362	-0.182993	0.157813
C164	C	1.615362	0.067007	0.407813
C165	C	0.865339	-0.612306	-0.342175
C166	C	1.115339	-0.362306	-0.092175
C167	C	1.365339	-0.112306	0.157825
C168	C	1.615339	0.137694	0.407825
C169	C	0.865455	-0.968067	-0.342233
C170	C	1.115455	-0.718067	-0.092233
C171	C	1.365455	-0.468067	0.157767
C172	C	1.615455	-0.218067	0.407767
C173	C	0.865480	-1.038759	-0.342240
C174	C	1.115480	-0.788759	-0.092240
C175	C	1.365480	-0.538759	0.157760
C176	C	1.615480	-0.288759	0.407760
C177	C	0.945656	-1.038704	-0.262202
C178	C	1.195656	-0.788704	-0.012202
C179	C	1.445656	-0.538704	0.237798
C180	C	1.695656	-0.288704	0.487798
C181	C	0.945633	-0.968017	-0.262191
C182	C	1.195633	-0.718017	-0.012191
C183	C	1.445633	-0.468017	0.237809
C184	C	1.695633	-0.218017	0.487809
C185	C	0.905534	-0.932702	-0.302210
C186	C	1.155534	-0.682702	-0.052210
C187	C	1.405534	-0.432702	0.197790
C188	C	1.655534	-0.182702	0.447790
C189	C	0.905507	-0.856053	-0.302196
C190	C	1.155507	-0.606053	-0.052196
C191	C	1.405507	-0.356053	0.197804
C192	C	1.655507	-0.106053	0.447804
C193	C	0.905488	-0.794962	-0.302181
C194	C	1.155488	-0.544962	-0.052181
C195	C	1.405488	-0.294962	0.197819
C196	C	1.655488	-0.044962	0.447819
C197	C	1.068881	-0.325816	-0.302239
C198	C	1.318881	-0.075816	-0.052239
C199	C	1.568881	0.174184	0.197761
C200	C	1.818881	0.424184	0.447761
C201	C	1.138522	-0.325800	-0.302271
C202	C	1.388522	-0.075800	-0.052271
C203	C	1.638522	0.174200	0.197729
C204	C	1.888522	0.424200	0.447729
C205	C	0.905510	-0.325837	-0.465589
C206	C	1.155510	-0.075837	-0.215589
C207	C	1.405510	0.174163	0.034411
C208	C	1.655510	0.424163	0.284411
C209	C	0.905532	-0.325831	-0.535231
C210	C	1.155532	-0.075831	-0.285231
C211	C	1.405532	0.174169	-0.035231
C212	C	1.655532	0.424169	0.214769
C213	C	0.905545	-0.149308	-0.302210
C214	C	1.155545	0.100692	-0.052210
C215	C	1.405545	0.350692	0.197790
C216	C	1.655545	0.600692	0.447790
C217	C	0.905583	-0.074076	-0.302229
C218	C	1.155583	0.175924	-0.052229
C219	C	1.405583	0.425924	0.197771
C220	C	1.655583	0.675924	0.447771
C221	C	0.945625	-0.282530	-0.567974
C222	C	1.195625	-0.032530	-0.317974
C223	C	1.445625	0.217470	-0.067974
C224	C	1.695625	0.467470	0.182026
C225	C	0.945624	-0.282501	-0.633409
C226	C	1.195624	-0.032501	-0.383409
C227	C	1.445624	0.217499	-0.133409
C228	C	1.695624	0.467499	0.116591
C229	C	0.905537	-0.325785	-0.666099
C230	C	1.155537	-0.075785	-0.416099
C231	C	1.405537	0.174215	-0.166099
C232	C	1.655537	0.424215	0.083901
C233	C	0.865436	-0.369089	-0.633348
C234	C	1.115436	-0.119089	-0.383348
C235	C	1.365436	0.130911	-0.133348
C236	C	1.615436	0.380911	0.116652
C237	C	0.865433	-0.369112	-0.567914
C238	C	1.115433	-0.119112	-0.317914
C239	C	1.365433	0.130888	-0.067914
C240	C	1.615433	0.380888	0.182086
C241	C	0.900565	-0.386731	-0.769762
C242	C	1.150565	-0.136731	-0.519762
C243	C	1.400565	0.113269	-0.269762
C244	C	1.650565	0.363269	-0.019762
C245	C	0.900572	-0.386709	-0.835195
C246	C	1.150572	-0.136709	-0.585195
C247	C	1.400572	0.113291	-0.335195
C248	C	1.650572	0.363291	-0.085195
C249	C	0.905540	-0.325714	-0.867920
C250	C	1.155540	-0.075714	-0.617920
C251	C	1.405540	0.174286	-0.367920
C252	C	1.655540	0.424286	-0.117920
C253	C	0.910516	-0.264738	-0.835204
C254	C	1.160516	-0.014738	-0.585204
C255	C	1.410516	0.235262	-0.335204
C256	C	1.660516	0.485262	-0.085204
C257	C	0.910513	-0.264762	-0.769770
C258	C	1.160513	-0.014762	-0.519770
C259	C	1.410513	0.235238	-0.269770
C260	C	1.660513	0.485238	-0.019770
C261	C	0.905534	-0.325765	-0.737051
C262	C	1.155534	-0.075765	-0.487051
C263	C	1.405534	0.174235	-0.237051
C264	C	1.655534	0.424235	0.012949
C265	C	0.945635	-0.282378	-0.971615
C266	C	1.195635	-0.032378	-0.721615
C267	C	1.445635	0.217622	-0.471615
C268	C	1.695635	0.467622	-0.221615
C269	C	0.945630	-0.282347	-1.037052
C270	C	1.195630	-0.032347	-0.787052
C271	C	1.445630	0.217653	-0.537052
C272	C	1.695630	0.467653	-0.287052
C273	C	0.865444	-0.368941	-1.036990
C274	C	1.115444	-0.118941	-0.786990
C275	C	1.365444	0.131059	-0.536990
C276	C	1.615444	0.381059	-0.286990
C277	C	0.865446	-0.368966	-0.971555
C278	C	1.115446	-0.118966	-0.721555
C279	C	1.365446	0.131034	-0.471555
C280	C	1.615446	0.381034	-0.221555
C281	C	0.905545	-0.325685	-0.938871
C282	C	1.155545	-0.075685	-0.688871
C283	C	1.405545	0.174315	-0.438871
C284	C	1.655545	0.424315	-0.188871
C285	C	0.905442	-0.325816	-0.139378
C286	C	1.155442	-0.075816	0.110622
C287	C	1.405442	0.174184	0.360622
C288	C	1.655442	0.424184	0.610622
C289	C	0.905541	-0.325631	-0.069738
C290	C	1.155541	-0.075631	0.180262
C291	C	1.405541	0.174369	0.430262
C292	C	1.655541	0.424369	0.680262
H293	H	0.666960	-0.404574	-0.374638
H294	H	0.916960	-0.154574	-0.124638
H295	H	1.166960	0.095426	0.125362
H296	H	1.416960	0.345426	0.375362
H297	H	0.548254	-0.404542	-0.374685
H298	H	0.798254	-0.154542	-0.124685
H299	H	1.048254	0.095458	0.125315
H300	H	1.298254	0.345458	0.375315
Cl301	Cl	0.533732	-0.228034	-0.211851
Cl302	Cl	0.783732	0.021966	0.038149
Cl303	Cl	1.033732	0.271966	0.288149
Cl304	Cl	1.283732	0.521966	0.538149
Cl305	Cl	0.916762	-0.188111	-0.728644
Cl306	Cl	1.166762	0.061889	-0.478644
Cl307	Cl	1.416762	0.311889	-0.228644
Cl308	Cl	1.666762	0.561889	0.021356
H309	H	0.263297	-0.247178	-0.229658
H310	H	0.513297	0.002822	0.020342
H311	H	0.763297	0.252822	0.270342
H312	H	1.013297	0.502822	0.520342
H313	H	0.465238	-0.335727	-0.404552
H314	H	0.715238	-0.085727	-0.154552
H315	H	0.965238	0.164273	0.095448
H316	H	1.215238	0.414273	0.345448
Cl317	Cl	0.814984	-0.727460	-0.392507
Cl318	Cl	1.064984	-0.477460	-0.142507
Cl319	Cl	1.314984	-0.227460	0.107493
Cl320	Cl	1.564984	0.022540	0.357493
H321	H	0.978276	-0.247287	-0.541367
H322	H	1.228276	0.002713	-0.291367
H323	H	1.478276	0.252713	-0.041367
H324	H	1.728276	0.502713	0.208633
H325	H	0.896351	-0.436388	-0.743122
H326	H	1.146351	-0.186388	-0.493122
H327	H	1.396351	0.063612	-0.243122
H328	H	1.646351	0.313612	0.006878
H329	H	0.346319	-0.316007	-0.199786
H330	H	0.596319	-0.066007	0.050214
H331	H	0.846319	0.183993	0.300214
H332	H	1.096319	0.433993	0.550214
Cl333	Cl	0.479490	-0.313632	-0.174740
Cl334	Cl	0.729490	-0.063632	0.075260
Cl335	Cl	0.979490	0.186368	0.325260
Cl336	Cl	1.229490	0.436368	0.575260
Cl337	Cl	0.277819	-0.423689	-0.392494
Cl338	Cl	0.527819	-0.173689	-0.142494
Cl339	Cl	0.777819	0.076311	0.107506
Cl340	Cl	1.027819	0.326311	0.357506
H341	H	0.346526	-0.335697	-0.404594
H342	H	0.596526	-0.085697	-0.154594
H343	H	0.846526	0.164303	0.095406
H344	H	1.096526	0.414303	0.345406
H345	H	0.144617	-0.404451	-0.374835
H346	H	0.394617	-0.154451	-0.124835
H347	H	0.644617	0.095549	0.125165
H348	H	0.894617	0.345549	0.375165
H349	H	0.978146	-0.583461	-0.229535
H350	H	1.228146	-0.333461	0.020465
H351	H	1.478146	-0.083461	0.270465
H352	H	1.728146	0.166539	0.520465
H353	H	0.832845	-1.067556	-0.374837
H354	H	1.082845	-0.817556	-0.124837
H355	H	1.332845	-0.567556	0.125163
H356	H	1.582845	-0.317556	0.375163
Cl357	Cl	0.681426	-0.228058	-0.211801
Cl358	Cl	0.931426	0.021942	0.038199
Cl359	Cl	1.181426	0.271942	0.288199
Cl360	Cl	1.431426	0.521942	0.538199
Cl361	Cl	0.815037	-0.423501	-0.674443
Cl362	Cl	1.065037	-0.173501	-0.424443
Cl363	Cl	1.315037	0.076499	-0.174443
Cl364	Cl	1.565037	0.326499	0.075557
Cl365	Cl	0.995956	-0.727339	-0.211841
Cl366	Cl	1.245956	-0.477339	0.038159
Cl367	Cl	1.495956	-0.227339	0.288159
Cl368	Cl	1.745956	0.022661	0.538159
Cl369	Cl	0.996070	-1.083105	-0.211893
Cl370	Cl	1.246070	-0.833105	0.038107
Cl371	Cl	1.496070	-0.583105	0.288107
Cl372	Cl	1.746070	-0.333105	0.538107
Cl373	Cl	0.916765	-0.188053	-0.876337
Cl374	Cl	1.166765	0.061947	-0.626337
Cl375	Cl	1.416765	0.311947	-0.376337
Cl376	Cl	1.666765	0.561947	-0.126337
Cl377	Cl	0.130095	-0.227945	-0.211995
Cl378	Cl	0.380095	0.022055	0.038005
Cl379	Cl	0.630095	0.272055	0.288005
Cl380	Cl	0.880095	0.522055	0.538005
H381	H	0.978265	-0.939220	-0.229597
H382	H	1.228265	-0.689220	0.020403
H383	H	1.478265	-0.439220	0.270403
H384	H	1.728265	-0.189220	0.520403
Cl385	Cl	0.815044	-0.923680	-0.392543
Cl386	Cl	1.065044	-0.673680	-0.142543
Cl387	Cl	1.315044	-0.423680	0.107457
Cl388	Cl	1.565044	-0.173680	0.357457
Cl389	Cl	0.815043	-0.423407	-0.930390
Cl390	Cl	1.065043	-0.173407	-0.680390
Cl391	Cl	1.315043	0.076593	-0.430390
Cl392	Cl	1.565043	0.326593	-0.180390
H393	H	0.832687	-0.583552	-0.374759
H394	H	1.082687	-0.333552	-0.124759
H395	H	1.332687	-0.083552	0.125241
H396	H	1.582687	0.166448	0.375241
H397	H	0.978271	-0.247237	-0.660074
H398	H	1.228271	0.002763	-0.410074
H399	H	1.478271	0.252763	-0.160074
H400	H	1.728271	0.502763	0.089926
H401	H	0.978282	-0.247132	-0.945003
H402	H	1.228282	0.002868	-0.695003
H403	H	1.478282	0.252868	-0.445003
H404	H	1.728282	0.502868	-0.195003
Cl405	Cl	0.996047	-0.227917	-1.078215
Cl406	Cl	1.246047	0.022083	-0.828215
Cl407	Cl	1.496047	0.272083	-0.578215
Cl408	Cl	1.746047	0.522083	-0.328215
Cl409	Cl	0.815026	-0.423553	-0.526749
Cl410	Cl	1.065026	-0.173553	-0.276749
Cl411	Cl	1.315026	0.076447	-0.026749
Cl412	Cl	1.565026	0.326447	0.223251
Cl413	Cl	0.815042	-0.423350	-1.078080
Cl414	Cl	1.065042	-0.173350	-0.828080
Cl415	Cl	1.315042	0.076650	-0.578080
Cl416	Cl	1.565042	0.326650	-0.328080
H417	H	0.896524	-0.436359	-0.861827
H418	H	1.146524	-0.186359	-0.611827
H419	H	1.396524	0.063641	-0.361827
H420	H	1.646524	0.313641	-0.111827
