data_functionalizedCrystal
_audit_creation_method	'MofGen! by Chris Wilmer'
_symmetry_space_group_name_H-M	'P1'
_symmetry_Int_Tables_number	1
_symmetry_cell_setting	triclinic
loop_
_symmetry_equiv_pos_as_xyz
  x,y,z
_cell_length_a	11.792254
_cell_length_b	10.868271
_cell_length_c	9.065215
_cell_angle_alpha	90.004170
_cell_angle_beta	95.393352
_cell_angle_gamma	89.994489
loop_
_atom_site_label
_atom_site_type_symbol
_atom_site_fract_x
_atom_site_fract_y
_atom_site_fract_z
O1	O	-1.508020	0.102354	0.202314
O2	O	-1.174687	0.435688	0.535647
O3	O	-0.841354	0.769021	0.868981
O4	O	-1.177796	0.102349	0.223136
O5	O	-0.844463	0.435682	0.556469
O6	O	-0.511130	0.769016	0.889802
O7	O	-1.349736	0.102346	-0.001981
O8	O	-1.016402	0.435680	0.331352
O9	O	-0.683069	0.769013	0.664685
O10	O	-1.336081	0.102357	0.427431
O11	O	-1.002748	0.435690	0.760765
O12	O	-0.669414	0.769023	1.094098
O13	O	-1.349721	-0.102298	-0.001990
O14	O	-1.016388	0.231035	0.331343
O15	O	-0.683055	0.564368	0.664676
O16	O	-1.177782	-0.102296	0.223127
O17	O	-0.844449	0.231038	0.556460
O18	O	-0.511115	0.564371	0.889794
O19	O	-1.508006	-0.102290	0.202305
O20	O	-1.174673	0.231043	0.535638
O21	O	-0.841339	0.564376	0.868972
Zn22	Zn	-1.342892	-0.134785	0.212715
Zn23	Zn	-1.009558	0.198549	0.546048
Zn24	Zn	-0.676225	0.531882	0.879381
Zn25	Zn	-1.342911	0.134843	0.212726
Zn26	Zn	-1.009577	0.468177	0.546060
Zn27	Zn	-0.676244	0.801510	0.879393
O28	O	-1.336067	-0.102288	0.427422
O29	O	-1.002733	0.231045	0.760756
O30	O	-0.669400	0.564379	1.094089
C31	C	-1.135491	0.000026	0.221820
C32	C	-0.802158	0.333359	0.555153
C33	C	-0.468825	0.666693	0.888486
C34	C	-1.009456	0.000024	0.217894
C35	C	-0.676123	0.333357	0.551227
C36	C	-0.342790	0.666690	0.884560
C37	C	-0.907102	0.000027	0.214704
C38	C	-0.573769	0.333360	0.548037
C39	C	-0.240436	0.666693	0.881371
C40	C	-0.778694	0.000024	0.210715
C41	C	-0.445360	0.333358	0.544049
C42	C	-0.112027	0.666691	0.877382
N43	N	-1.342887	-0.318799	0.212706
N44	N	-1.009554	0.014534	0.546039
N45	N	-0.676220	0.347868	0.879372
C46	C	-1.342905	-0.569805	0.212723
C47	C	-1.009571	-0.236472	0.546057
C48	C	-0.676238	0.096862	0.879390
C49	C	-1.342891	-0.430127	0.212718
C50	C	-1.009558	-0.096794	0.546051
C51	C	-0.676225	0.236539	0.879385
C52	C	-0.550311	0.000029	0.203621
C53	C	-0.216978	0.333363	0.536955
C54	C	0.116356	0.666696	0.870288
C55	C	-0.676346	0.000022	0.207547
C56	C	-0.343012	0.333355	0.540880
C57	C	-0.009679	0.666689	0.874214
C58	C	-1.348417	0.000025	-0.056960
C59	C	-1.015084	0.333359	0.276373
C60	C	-0.681750	0.666692	0.609706
C61	C	-1.344495	0.000029	-0.220767
C62	C	-1.011162	0.333362	0.112566
C63	C	-0.677829	0.666696	0.445900
N64	N	-1.342924	0.318857	0.212724
N65	N	-1.009591	0.652191	0.546057
N66	N	-0.676257	0.985524	0.879390
C67	C	-1.337385	0.000036	0.482401
C68	C	-1.004052	0.333369	0.815735
C69	C	-0.670719	0.666703	1.149068
C70	C	-1.341307	0.000040	0.646208
C71	C	-1.007973	0.333374	0.979541
C72	C	-0.674640	0.666707	1.312874
