data_functionalizedCrystal
_audit_creation_method	'MofGen! by Chris Wilmer'
_symmetry_space_group_name_H-M	'P1'
_symmetry_Int_Tables_number	1
_symmetry_cell_setting	triclinic
loop_
_symmetry_equiv_pos_as_xyz
  x,y,z
_cell_length_a	19.288864
_cell_length_b	17.019370
_cell_length_c	15.500258
_cell_angle_alpha	97.050599
_cell_angle_beta	93.174037
_cell_angle_gamma	83.266759
loop_
_atom_site_label
_atom_site_type_symbol
_atom_site_fract_x
_atom_site_fract_y
_atom_site_fract_z
O1	O	0.918913	0.095453	-0.065112
O2	O	0.716718	0.108775	-0.064061
O3	O	0.823114	-0.013126	-0.073164
O4	O	0.812517	0.217354	-0.056009
O5	O	0.828889	-0.006587	0.071209
O6	O	0.722492	0.115314	0.080312
O7	O	0.924688	0.101992	0.079261
Cu8	Cu	0.824117	0.109250	0.092969
Cu9	Cu	0.817288	0.101517	-0.077769
O10	O	0.818292	0.223893	0.088364
C11	C	0.693727	0.111616	0.008101
C12	C	0.616618	0.110331	0.008028
C13	C	0.572260	0.181855	0.013339
C14	C	0.499807	0.180646	0.013239
C15	C	0.471714	0.107908	0.007811
C16	C	0.516082	0.036374	0.002505
C17	C	0.588534	0.037586	0.002614
C18	C	0.361157	0.048435	-0.047054
C19	C	0.288706	0.047227	-0.047168
C20	C	0.248249	0.104168	0.007481
C21	C	0.280250	0.162331	0.062232
C22	C	0.352702	0.163543	0.062341
C23	C	0.393153	0.106586	0.007694
C24	C	0.125328	0.174387	0.012685
C25	C	0.052874	0.173175	0.012590
C26	C	0.069151	0.028900	0.001848
C27	C	0.141604	0.030114	0.001951
C28	C	0.169688	0.102860	0.007366
C29	C	0.825485	-0.039343	-0.003174
C30	C	0.823940	-0.127204	-0.009718
C31	C	0.826360	-0.164924	0.065902
C32	C	0.824912	-0.247480	0.059746
C33	C	0.821039	-0.292314	-0.022031
C34	C	0.818622	-0.254588	-0.097656
C35	C	0.820074	-0.172035	-0.091499
C36	C	0.816500	-0.541751	-0.044558
C37	C	0.815045	-0.624309	-0.050709
C38	C	0.821337	-0.617196	0.106693
C39	C	0.822786	-0.534640	0.112843
C40	C	0.820371	-0.496923	0.037218
C41	C	0.819557	-0.376699	-0.028325
C42	C	0.821859	-0.412540	0.043513
C43	C	0.947678	0.099150	0.007097
C44	C	1.024787	0.100436	0.007164
C45	C	0.815920	0.250110	0.018372
C46	C	0.817465	0.337970	0.024910
N47	N	0.828926	0.114689	0.213056
N48	N	0.812485	0.096072	-0.197857
C49	C	0.852885	0.141895	0.760259
C50	C	0.849253	0.137776	0.669381
C51	C	0.805224	0.087829	0.620389
C52	C	0.764819	0.042004	0.662280
C53	C	0.768448	0.046128	0.753157
C54	C	0.792150	0.072987	0.345824
C55	C	0.788526	0.068865	0.254941
C56	C	0.872959	0.164639	0.262048
C57	C	0.876587	0.168754	0.352926
C58	C	0.836180	0.122933	0.394809
C59	C	0.801511	0.083616	0.527497
C60	C	0.839889	0.127150	0.487699
H61	H	0.148196	0.233621	0.017106
H62	H	0.829502	-0.128424	0.132493
H63	H	0.752668	0.028193	0.215054
H64	H	0.624651	-0.020660	-0.001711
H65	H	0.177721	-0.028129	-0.002378
H66	H	0.493204	-0.022851	-0.001926
H67	H	0.826886	-0.278188	0.121323
H68	H	0.016758	0.231421	0.016920
H69	H	0.378754	0.210899	0.106924
H70	H	0.046277	-0.030327	-0.002625
H71	H	0.247311	0.208698	0.106733
H72	H	0.394092	0.002065	-0.091561
H73	H	0.825954	-0.498144	0.179434
H74	H	0.759250	0.035673	0.379914
H75	H	0.728966	0.001340	0.622384
H76	H	0.735549	0.008815	0.787258
H77	H	0.882152	0.175090	0.635283
H78	H	0.912442	0.209425	0.392809
H79	H	0.811885	-0.660810	-0.117305
H80	H	0.463684	0.238892	0.017566
H81	H	0.825015	-0.376033	0.110095
H82	H	0.875734	0.167821	0.527593
H83	H	0.262656	-0.000130	-0.091753
H84	H	0.823304	-0.647914	0.168262
H85	H	0.816403	-0.413211	-0.094908
H86	H	0.888742	0.182564	0.800141
H87	H	0.814533	-0.511051	-0.106138
H88	H	0.905855	0.201946	0.227937
H89	H	0.815473	-0.291099	-0.164240
H90	H	0.595121	0.241090	0.017746
H91	H	0.818104	-0.141325	-0.153077
H92	H	0.765664	0.042947	0.487598
