data_functionalizedCrystal
_audit_creation_method	'MofGen! by Chris Wilmer'
_symmetry_space_group_name_H-M	'P1'
_symmetry_Int_Tables_number	1
_symmetry_cell_setting	triclinic
loop_
_symmetry_equiv_pos_as_xyz
  x,y,z
_cell_length_a	16.109301
_cell_length_b	14.853559
_cell_length_c	14.586319
_cell_angle_alpha	89.998399
_cell_angle_beta	89.999213
_cell_angle_gamma	83.546467
loop_
_atom_site_label
_atom_site_type_symbol
_atom_site_fract_x
_atom_site_fract_y
_atom_site_fract_z
O1	O	1.103290	0.115881	-0.076178
O2	O	0.861248	0.130302	-0.076192
O3	O	0.988738	-0.008149	-0.076184
O4	O	0.975800	0.254333	-0.076186
O5	O	0.988729	-0.008151	0.076297
O6	O	0.861239	0.130300	0.076289
O7	O	1.103281	0.115879	0.076303
Cu8	Cu	0.982260	0.123090	0.090219
Cu9	Cu	0.982270	0.123092	-0.090108
O10	O	0.975791	0.254331	0.076295
C11	C	0.830268	0.129717	0.000047
C12	C	0.737970	0.127966	0.000041
C13	C	0.515805	0.206048	0.000051
C14	C	0.429083	0.204395	0.000057
C15	C	0.448731	0.040127	0.000055
C16	C	0.535452	0.041781	0.000055
C17	C	0.568987	0.124744	0.000049
C18	C	0.395543	0.121438	0.000054
C19	C	0.301514	0.119645	0.000061
C20	C	0.663021	0.126537	0.000044
C21	C	0.988149	-0.041738	0.000055
C22	C	0.986396	-0.141819	0.000050
C23	C	0.978964	-0.564981	-0.083068
C24	C	0.978955	-0.564978	0.083172
C25	C	0.980608	-0.470947	0.083173
C26	C	0.981439	-0.423929	0.000052
C27	C	0.980616	-0.470941	-0.083070
C28	C	0.981423	-0.423927	0.166294
C29	C	0.983076	-0.329890	0.166298
C30	C	0.983913	-0.282871	0.083176
C31	C	0.983091	-0.329889	0.000051
C32	C	0.983921	-0.282871	-0.083070
C33	C	0.983105	-0.329889	-0.166197
C34	C	0.981452	-0.423922	-0.166192
C35	C	0.985565	-0.188838	0.083171
C36	C	0.985573	-0.188832	-0.083072
C37	C	1.134262	0.116464	0.000062
C38	C	1.226559	0.118216	0.000062
C39	C	0.976381	0.287920	0.000054
C40	C	0.978134	0.388001	0.000053
N41	N	0.982258	0.123087	0.217050
N42	N	0.982278	0.123087	-0.216939
C43	C	1.038730	0.061801	0.452061
C44	C	1.038732	0.061799	0.548042
C45	C	0.925801	0.184376	0.548044
C46	C	0.925795	0.184373	0.452064
C47	C	0.982264	0.123087	0.404075
C48	C	0.982272	0.123087	0.596036
C49	C	0.982274	0.123086	0.700103
C50	C	0.982261	0.123087	0.300001
H51	H	0.986253	-0.150556	-0.150760
H52	H	1.084710	0.011894	0.587109
H53	H	0.578755	-0.024431	0.000056
H54	H	0.978273	-0.603265	0.150846
H55	H	0.983775	-0.291593	-0.233874
C56	C	0.978910	-0.568068	-0.240000
C57	C	0.980544	-0.475604	-0.257558
H58	H	0.978342	-0.599973	-0.296406
H59	H	1.027080	-0.590366	-0.205854
H60	H	0.930191	-0.576571	-0.205845
H61	H	1.029267	-0.467100	-0.291707
H62	H	0.932369	-0.453298	-0.291719
C63	C	0.875672	0.238815	0.695176
C64	C	0.863740	0.251748	0.600797
H65	H	0.837361	0.280415	0.727740
H66	H	0.866572	0.178652	0.710907
H67	H	0.931172	0.248622	0.710887
H68	H	0.808241	0.241934	0.585084
H69	H	0.872833	0.311925	0.585059
H70	H	1.084709	0.011897	0.412990
C71	C	0.812666	0.203905	0.344134
C72	C	0.863725	0.251745	0.399310
H73	H	0.774346	0.245496	0.311571
H74	H	0.846293	0.167410	0.301824
H75	H	0.782722	0.166376	0.381593
H76	H	0.893675	0.289270	0.361851
H77	H	0.830095	0.288256	0.441625
C78	C	0.982915	-0.339345	0.330624
C79	C	0.983989	-0.278216	0.257667
H80	H	0.983488	-0.307442	0.387030
H81	H	0.933825	-0.369121	0.327170
H82	H	1.030715	-0.382922	0.327155
H83	H	0.936186	-0.234643	0.261132
H84	H	1.033085	-0.248425	0.261123
C85	C	0.978939	-0.568081	0.240100
C86	C	0.980540	-0.475613	0.257656
H87	H	0.978408	-0.599993	0.296507
H88	H	0.930221	-0.576607	0.205970
H89	H	1.027111	-0.590356	0.205930
H90	H	0.932363	-0.453337	0.291821
H91	H	1.029262	-0.467082	0.291800
C92	C	0.915989	-0.072924	0.179585
C93	C	0.986456	-0.137149	0.174530
H94	H	0.916538	-0.041017	0.235991
H95	H	0.916733	-0.031475	0.130084
H96	H	0.866907	-0.102728	0.176123
H97	H	1.035539	-0.107344	0.177985
H98	H	0.985719	-0.178603	0.224045
H99	H	0.543106	0.273602	0.000053
H100	H	0.385786	0.270602	0.000061
H101	H	0.421416	-0.027418	0.000066
H102	H	0.978303	-0.603267	-0.150747
