data_functionalizedCrystal
_audit_creation_method	'MofGen! by Chris Wilmer'
_symmetry_space_group_name_H-M	'P1'
_symmetry_Int_Tables_number	1
_symmetry_cell_setting	triclinic
loop_
_symmetry_equiv_pos_as_xyz
  x,y,z
_cell_length_a	9.065218
_cell_length_b	12.837942
_cell_length_c	7.540329
_cell_angle_alpha	89.996889
_cell_angle_beta	89.996962
_cell_angle_gamma	89.922413
loop_
_atom_site_label
_atom_site_type_symbol
_atom_site_fract_x
_atom_site_fract_y
_atom_site_fract_z
O1	O	1.978903	0.152196	-0.147486
O2	O	2.478903	0.652196	0.352514
O3	O	1.551136	0.164680	-0.147489
O4	O	2.051136	0.664680	0.352511
O5	O	1.755535	0.007446	-0.147477
O6	O	2.255535	0.507446	0.352523
O7	O	1.774505	0.309430	-0.147498
O8	O	2.274505	0.809430	0.352502
O9	O	1.755521	0.007444	0.147488
O10	O	2.255521	0.507444	0.647488
O11	O	1.551123	0.164678	0.147476
O12	O	2.051123	0.664678	0.647476
O13	O	1.978890	0.152194	0.147479
O14	O	2.478890	0.652194	0.647479
Cu15	Cu	1.765005	0.158436	0.174410
Cu16	Cu	2.265005	0.658436	0.674410
Cu17	Cu	1.765021	0.158438	-0.174420
Cu18	Cu	2.265021	0.658438	0.325580
O19	O	1.774491	0.309428	0.147467
O20	O	2.274491	0.809428	0.647467
C21	C	1.495997	0.163479	-0.000007
C22	C	1.995997	0.663479	0.499993
C23	C	1.331718	0.159892	-0.000007
C24	C	1.831718	0.659892	0.499993
C25	C	1.749119	-0.031235	0.000005
C26	C	2.249119	0.468765	0.500005
C27	C	1.730006	-0.146492	0.000002
C28	C	2.230006	0.353508	0.500002
C29	C	1.959783	-0.385293	-0.000034
C30	C	2.459783	0.114707	0.499966
C31	C	1.941831	-0.493587	-0.000037
C32	C	2.441831	0.006413	0.499963
C33	C	1.676152	-0.471377	-0.000020
C34	C	2.176152	0.028623	0.499980
C35	C	1.694104	-0.363083	-0.000017
C36	C	2.194104	0.136917	0.499983
C37	C	1.835924	-0.320045	-0.000021
C38	C	2.335924	0.179955	0.499979
C39	C	1.853874	-0.211748	-0.000006
C40	C	2.353874	0.288252	0.499994
C41	C	1.588196	-0.189540	-0.000001
C42	C	2.088196	0.310460	0.499999
C43	C	1.570245	-0.297835	-0.000004
C44	C	2.070245	0.202165	0.499996
C45	C	2.034029	0.153395	-0.000007
C46	C	2.534029	0.653395	0.499993
C47	C	2.198308	0.156983	-0.000018
C48	C	2.698308	0.656983	0.499982
C49	C	1.780907	0.348110	-0.000019
C50	C	2.280907	0.848110	0.499981
C51	C	1.800020	0.463366	-0.000027
C52	C	2.300020	0.963366	0.499973
N53	N	1.765004	0.158434	0.419759
N54	N	2.265004	0.658434	0.919759
N55	N	1.765032	0.158433	-0.419769
N56	N	2.265032	0.658433	0.080231
H57	H	1.969351	-0.176709	-0.000002
H58	H	2.469351	0.323291	0.499998
H59	H	2.075258	-0.350251	-0.000020
H60	H	2.575258	0.149749	0.499980
C61	C	1.451946	-0.117765	-0.000002
C62	C	1.951946	0.382235	0.499998
H63	H	1.482944	-0.047104	-0.000013
H64	H	1.982944	0.452896	0.499987
H65	H	1.394416	-0.130955	0.102856
H66	H	1.894416	0.369045	0.602856
H67	H	1.394433	-0.130946	-0.102879
H68	H	1.894433	0.369054	0.397121
C69	C	2.078075	-0.565357	-0.000041
C70	C	2.578075	-0.065357	0.499959
H71	H	2.165104	-0.524211	-0.000031
H72	H	2.665104	-0.024211	0.499969
H73	H	2.076598	-0.608062	-0.102900
H74	H	2.576598	-0.108062	0.397100
H75	H	2.076593	-0.608065	0.102834
H76	H	2.576593	-0.108065	0.602834
C77	C	1.520168	-0.518732	-0.000017
C78	C	2.020168	-0.018732	0.499983
H79	H	1.527223	-0.592573	-0.000013
H80	H	2.027223	-0.092573	0.499987
H81	H	1.468523	-0.496417	-0.102869
H82	H	1.968523	0.003583	0.397131
H83	H	1.468532	-0.496433	0.102866
H84	H	1.968532	0.003567	0.602866
H85	H	1.454779	-0.332891	-0.000008
H86	H	1.954779	0.167109	0.499992
