data_functionalizedCrystal
_audit_creation_method	'MofGen! by Chris Wilmer'
_symmetry_space_group_name_H-M	'P1'
_symmetry_Int_Tables_number	1
_symmetry_cell_setting	triclinic
loop_
_symmetry_equiv_pos_as_xyz
  x,y,z
_cell_length_a	13.897449
_cell_length_b	12.645330
_cell_length_c	13.897441
_cell_angle_alpha	89.972699
_cell_angle_beta	89.979267
_cell_angle_gamma	90.018972
loop_
_atom_site_label
_atom_site_type_symbol
_atom_site_fract_x
_atom_site_fract_y
_atom_site_fract_z
Zn1	Zn	1.474703	-0.421969	-0.545403
Zn2	Zn	1.474597	-0.599265	-0.384114
Zn3	Zn	1.313392	-0.422020	-0.384122
Zn4	Zn	1.313373	-0.599195	-0.545367
O5	O	1.394016	-0.510612	-0.464751
O6	O	1.609670	-0.445496	-0.524020
O7	O	1.453176	-0.575803	-0.249133
O8	O	1.334842	-0.273666	-0.405535
O9	O	1.609592	-0.575754	-0.405521
O10	O	1.453356	-0.273629	-0.524028
O11	O	1.334739	-0.445582	-0.249139
O12	O	1.178408	-0.445514	-0.405499
O13	O	1.334811	-0.575636	-0.680353
O14	O	1.178394	-0.575684	-0.523965
O15	O	1.453339	-0.445428	-0.680380
O16	O	1.453158	-0.747603	-0.405486
O17	O	1.334708	-0.747552	-0.523957
C18	C	1.143402	-0.510598	-0.464729
C19	C	1.036188	-0.510618	-0.464743
C20	C	1.393946	-0.786042	-0.464738
C21	C	1.394004	-0.903872	-0.464764
C22	C	0.839893	-0.510621	-0.464768
C23	C	0.949125	-0.510616	-0.464751
C24	C	1.319794	-1.071448	-0.539525
C25	C	1.319415	-0.948889	-0.539284
C26	C	1.366485	-0.948472	-0.363109
C27	C	1.366032	-1.071070	-0.363563
C28	C	1.496187	-1.070958	-0.490835
C29	C	1.495561	-0.948351	-0.493058
C30	C	1.645609	-0.510627	-0.464774
C31	C	1.752823	-0.510634	-0.464784
C32	C	1.394085	-0.510519	-0.716344
C33	C	1.394114	-0.510479	-0.823558
C34	C	1.394113	-0.234107	-0.464786
C35	C	1.394154	-0.116277	-0.464801
C36	C	1.394140	-0.510407	-1.019854
C37	C	1.394122	-0.510450	-0.910621
C38	C	1.394003	-0.510629	-0.214137
C39	C	1.394161	-0.510370	-0.106924
H40	H	1.336632	-0.918731	-0.614661
C41	C	1.265274	-1.109845	-0.333779
H42	H	1.264110	-1.184964	-0.333790
H43	H	1.218884	-1.083913	-0.378075
H44	H	1.250674	-1.084587	-0.271085
C45	C	1.436003	-1.111143	-0.285775
H46	H	1.464574	-1.052492	-0.254032
H47	H	1.484795	-1.152811	-0.314976
H48	H	1.401792	-1.152831	-0.240309
C49	C	1.437319	-0.909084	-0.285833
H50	H	1.419352	-0.936990	-0.224938
H51	H	1.435780	-0.834030	-0.283430
H52	H	1.500529	-0.931951	-0.301451
C53	C	1.571033	-1.110117	-0.417322
H54	H	1.632539	-1.082465	-0.433425
H55	H	1.573331	-1.185185	-0.418412
H56	H	1.553405	-1.086842	-0.354769
C57	C	1.342746	-1.111304	-0.641666
H58	H	1.397889	-1.155633	-0.639661
H59	H	1.355016	-1.052680	-0.682641
H60	H	1.289466	-1.150253	-0.665699
H61	H	1.292676	-0.917863	-0.340655
C62	C	1.217234	-0.909385	-0.515983
H63	H	1.216650	-0.834259	-0.515766
H64	H	1.198369	-0.934862	-0.454491
H65	H	1.173641	-0.934652	-0.563333
H66	H	1.244625	-1.102351	-0.522497
H67	H	1.516314	-0.919196	-0.567871
C68	C	1.530099	-1.112610	-0.589273
H69	H	1.482341	-1.158033	-0.615418
H70	H	1.588463	-1.150736	-0.581465
H71	H	1.540391	-1.054751	-0.631678
H72	H	1.553880	-0.917701	-0.442596
