data_functionalizedCrystal
_audit_creation_method	'MofGen! by Chris Wilmer'
_symmetry_space_group_name_H-M	'P1'
_symmetry_Int_Tables_number	1
_symmetry_cell_setting	triclinic
loop_
_symmetry_equiv_pos_as_xyz
  x,y,z
_cell_length_a	12.594516
_cell_length_b	16.120490
_cell_length_c	16.120297
_cell_angle_alpha	89.870317
_cell_angle_beta	87.122232
_cell_angle_gamma	87.108688
loop_
_atom_site_label
_atom_site_type_symbol
_atom_site_fract_x
_atom_site_fract_y
_atom_site_fract_z
Zn1	Zn	-0.539335	1.247500	0.534573
Zn2	Zn	-0.039335	1.747500	1.034573
Zn3	Zn	-0.708779	1.254467	0.395527
Zn4	Zn	-0.208779	1.754467	0.895527
Zn5	Zn	-0.521340	1.115488	0.388492
Zn6	Zn	-0.021340	1.615488	0.888492
Zn7	Zn	-0.707789	1.108423	0.527499
Zn8	Zn	-0.207789	1.608423	1.027499
O9	O	-0.619311	1.181469	0.461523
O10	O	-0.119311	1.681469	0.961523
O11	O	-0.569758	1.364792	0.522032
O12	O	-0.069758	1.864792	1.022032
O13	O	-0.676798	1.241904	0.278227
O14	O	-0.176798	1.741904	0.778227
O15	O	-0.374785	1.133040	0.407887
O16	O	0.125215	1.633040	0.907887
O17	O	-0.694247	1.369911	0.419875
O18	O	-0.194247	1.869911	0.919875
O19	O	-0.388006	1.230029	0.515211
O20	O	0.111994	1.730029	1.015211
O21	O	-0.539088	1.139796	0.273059
O22	O	-0.039088	1.639796	0.773059
O23	O	-0.538127	0.998183	0.401028
O24	O	-0.038127	1.498183	0.901028
O25	O	-0.692560	1.120999	0.644804
O26	O	-0.192560	1.620999	1.144804
O27	O	-0.675110	0.992992	0.503156
O28	O	-0.175110	1.492992	1.003156
O29	O	-0.568798	1.223178	0.650000
O30	O	-0.068798	1.723178	1.150000
O31	O	-0.857590	1.235053	0.413017
O32	O	-0.357590	1.735053	0.913017
O33	O	-0.856862	1.127755	0.509977
O34	O	-0.356862	1.627755	1.009977
C35	C	-0.604559	0.965415	0.450562
C36	C	-0.104559	1.465415	0.950562
C37	C	-0.598276	0.872985	0.445892
C38	C	-0.098276	1.372985	0.945892
C39	C	-0.651898	0.660028	0.485746
C40	C	-0.151898	1.160028	0.985746
C41	C	-0.586812	0.703759	0.437366
C42	C	-0.086812	1.203759	0.937366
C43	C	-0.593192	0.797925	0.442111
C44	C	-0.093192	1.297925	0.942111
C45	C	-0.645520	0.565853	0.481001
C46	C	-0.145520	1.065853	0.981001
C47	C	-0.895848	1.181415	0.461512
C48	C	-0.395848	1.681415	0.961512
C49	C	-1.014158	1.181467	0.461539
C50	C	-0.514158	1.681467	0.961539
C51	C	-1.083051	1.123104	0.514236
C52	C	-0.583051	1.623104	1.014236
C53	C	-1.147864	1.106692	0.437333
C54	C	-0.647864	1.606692	0.937333
C55	C	-1.160151	1.197954	0.538459
C56	C	-0.660151	1.697954	1.038459
C57	C	-1.077407	1.165016	0.384593
C58	C	-0.577407	1.665016	0.884593
C59	C	-1.089693	1.256312	0.485773
C60	C	-0.589693	1.756312	0.985773
C61	C	-1.154472	1.239931	0.408818
C62	C	-0.654472	1.739931	0.908818
C63	C	-0.341697	1.181546	0.461553
C64	C	0.158303	1.681546	0.961553
C65	C	-0.223394	1.181578	0.461566
C66	C	0.276606	1.681578	0.961566
C67	C	-0.632576	1.170524	0.678418
C68	C	-0.132576	1.670524	1.178418
C69	C	-0.638228	1.165859	0.770846
C70	C	-0.138228	1.665859	1.270846
C71	C	-0.634121	1.398368	0.472527
C72	C	-0.134121	1.898368	0.972527
C73	C	-0.640432	1.490797	0.477217
C74	C	-0.140432	1.990797	0.977217
C75	C	-0.606024	1.192421	0.245474
C76	C	-0.106024	1.692421	0.745474
C77	C	-0.600083	1.197246	0.153054
C78	C	-0.100083	1.697246	0.653054
C79	C	-0.648523	1.157312	0.940072
C80	C	-0.148523	1.657312	1.440072
C81	C	-0.589791	1.205790	0.983834
C82	C	-0.089791	1.705790	1.483834
C83	C	-0.595519	1.201035	1.077997
C84	C	-0.095519	1.701035	1.577997
C85	C	-0.642796	1.162067	0.845900
C86	C	-0.142796	1.662067	1.345900
H87	H	-0.712407	0.693308	0.530725
H88	H	-0.212407	1.193308	1.030725
C89	C	-0.558522	0.611615	0.320665
C90	C	-0.058522	1.111615	0.820665
C91	C	-0.505145	0.658854	0.376605
C92	C	-0.005145	1.158854	0.876605
H93	H	-0.508112	0.583900	0.283144
H94	H	-0.008112	1.083900	0.783144
H95	H	-0.598488	0.571794	0.350397
H96	H	-0.098488	1.071794	0.850397
H97	H	-0.605154	0.647120	0.290505
H98	H	-0.105154	1.147120	0.790505
H99	H	-0.458518	0.623348	0.406769
H100	H	0.041482	1.123348	0.906769
H101	H	-0.465161	0.698680	0.346869
H102	H	0.034839	1.198680	0.846869
H103	H	-1.041385	1.151042	0.319532
H104	H	-0.541385	1.651042	0.819532
C105	C	-1.069829	0.978102	0.548729
C106	C	-0.569829	1.478102	1.048729
C107	C	-1.040708	1.056372	0.574297
C108	C	-0.540708	1.556372	1.074297
H109	H	-1.043680	0.936905	0.585803
H110	H	-0.543680	1.436905	1.085803
H111	H	-1.145194	0.977355	0.548787
H112	H	-0.645194	1.477355	1.048787
H113	H	-1.040346	0.966959	0.494259
H114	H	-0.540346	1.466959	0.994259
H115	H	-1.070198	1.067518	0.628765
H116	H	-0.570198	1.567518	1.128765
H117	H	-0.965328	1.057121	0.574248
H118	H	-0.465328	1.557121	1.074248
C119	C	-1.293868	1.022525	0.409257
C120	C	-0.793868	1.522525	0.909257
C121	C	-1.182650	1.021315	0.409669
C122	C	-0.682650	1.521315	0.909669
H123	H	-1.315338	0.969817	0.392178
H124	H	-0.815338	1.469817	0.892178
H125	H	-1.323383	1.034595	0.463525
H126	H	-0.823383	1.534595	0.963525
H127	H	-1.318307	1.063976	0.371777
H128	H	-0.818307	1.563976	0.871777
H129	H	-1.158211	0.979868	0.447154
H130	H	-0.658211	1.479868	0.947154
H131	H	-1.153123	1.009235	0.355393
H132	H	-0.653123	1.509235	0.855393
C133	C	-1.154346	1.289216	0.268150
C134	C	-0.654346	1.789216	0.768150
C135	C	-1.196539	1.306625	0.348606
C136	C	-0.696539	1.806625	0.848606
H137	H	-1.180325	1.330386	0.230977
H138	H	-0.680325	1.830386	0.730977
H139	H	-1.078894	1.289234	0.267485
H140	H	-0.578894	1.789234	0.767485
H141	H	-1.175222	1.236225	0.251421
H142	H	-0.675222	1.736225	0.751421
H143	H	-1.175657	1.359614	0.365337
H144	H	-0.675657	1.859614	0.865337
H145	H	-1.272008	1.306616	0.349273
H146	H	-0.772008	1.806616	0.849273
C147	C	-0.410717	1.247689	0.958972
C148	C	0.089283	1.747689	1.458972
C149	C	-0.516100	1.266645	0.938960
C150	C	-0.016100	1.766645	1.438960
H151	H	-0.365226	1.285255	0.931263
H152	H	0.134774	1.785255	1.431263
H153	H	-0.404964	1.252433	1.017274
H154	H	0.095036	1.752433	1.517274
H155	H	-0.390488	1.192523	0.941935
H156	H	0.109512	1.692523	1.441935
H157	H	-0.536332	1.321809	0.956002
H158	H	-0.036332	1.821809	1.456002
H159	H	-0.521858	1.261909	0.880644
H160	H	-0.021858	1.761909	1.380644
C161	C	-0.827598	1.115432	0.964945
C162	C	-0.327598	1.615432	1.464945
C163	C	-0.722215	1.096471	0.984953
C164	C	-0.222215	1.596471	1.484953
H165	H	-0.873090	1.077870	0.992657
H166	H	-0.373090	1.577870	1.492657
H167	H	-0.847818	1.170594	0.981972
H168	H	-0.347818	1.670594	1.481972
H169	H	-0.833355	1.110679	0.906635
H170	H	-0.333355	1.610679	1.406635
H171	H	-0.716455	1.101230	1.043262
H172	H	-0.216455	1.601230	1.543262
H173	H	-0.701988	1.041295	0.967931
H174	H	-0.201988	1.541295	1.467931
H175	H	-1.063910	1.319539	0.506285
H176	H	-0.563910	1.819539	1.006285
H177	H	-1.196295	1.211855	0.603499
H178	H	-0.696295	1.711855	1.103499
