data_functionalizedCrystal
_audit_creation_method	'MofGen! by Chris Wilmer'
_symmetry_space_group_name_H-M	'P1'
_symmetry_Int_Tables_number	1
_symmetry_cell_setting	triclinic
loop_
_symmetry_equiv_pos_as_xyz
  x,y,z
_cell_length_a	17.699077
_cell_length_b	17.699092
_cell_length_c	8.140239
_cell_angle_alpha	90.001829
_cell_angle_beta	90.002161
_cell_angle_gamma	83.283472
loop_
_atom_site_label
_atom_site_type_symbol
_atom_site_fract_x
_atom_site_fract_y
_atom_site_fract_z
O1	O	1.004080	0.095688	0.136585
O2	O	0.783701	0.108145	0.136593
O3	O	0.900113	-0.008272	0.136585
O4	O	0.887667	0.212106	0.136593
O5	O	0.900107	-0.008273	-0.136642
O6	O	0.783695	0.108144	-0.136634
O7	O	1.004073	0.095687	-0.136642
Zn8	Zn	0.893883	0.101915	-0.180019
Zn9	Zn	0.893891	0.101917	0.179970
O10	O	0.887661	0.212104	-0.136634
C11	C	0.755501	0.107699	-0.000020
C12	C	0.671482	0.106362	-0.000017
C13	C	0.632011	0.105732	-0.148955
C14	C	0.553069	0.104464	-0.148956
C15	C	0.513598	0.103831	-0.000019
C16	C	0.553075	0.104460	0.148931
C17	C	0.632017	0.105723	0.148931
C18	C	0.234711	0.099366	0.148934
C19	C	0.155764	0.098106	0.148922
C20	C	0.155764	0.098107	-0.148954
C21	C	0.234705	0.099370	-0.148954
C22	C	0.274176	0.099994	-0.000005
C23	C	0.359774	0.101368	-0.000005
C24	C	0.428000	0.102463	-0.000017
C25	C	0.899663	-0.036470	-0.000026
C26	C	0.898322	-0.120487	-0.000018
C27	C	0.897697	-0.159954	0.148920
C28	C	0.896432	-0.238897	0.148922
C29	C	0.895798	-0.278373	-0.000016
C30	C	0.896420	-0.238900	-0.148965
C31	C	0.897680	-0.159958	-0.148966
C32	C	0.891340	-0.557265	-0.148968
C33	C	0.890083	-0.636213	-0.148956
C34	C	0.890092	-0.636204	0.148920
C35	C	0.891352	-0.557262	0.148920
C36	C	0.891970	-0.517796	-0.000029
C37	C	0.893341	-0.432197	-0.000029
C38	C	0.894433	-0.363971	-0.000017
C39	C	1.032274	0.096133	-0.000025
C40	C	1.116292	0.097470	-0.000018
C41	C	0.888111	0.240302	-0.000019
C42	C	0.889452	0.324320	-0.000016
N43	N	0.893883	0.101914	-0.425701
N44	N	0.893898	0.101913	0.425652
H45	H	0.664142	0.106253	-0.270237
H46	H	0.520937	0.103937	-0.270237
H47	H	0.266838	0.099889	-0.270234
H48	H	0.123618	0.097596	-0.270235
H49	H	0.664153	0.106237	0.270211
H50	H	0.889564	-0.668351	-0.270246
C51	C	0.278116	0.100060	0.312779
C52	C	0.275967	0.034192	0.435651
C53	C	0.319373	0.034886	0.599509
C54	C	0.364926	0.101448	0.640495
C55	C	0.367076	0.167321	0.517621
C56	C	0.323671	0.166627	0.353763
H57	H	0.242244	-0.015086	0.405313
H58	H	0.317781	-0.013878	0.690468
H59	H	0.397058	0.101962	0.761792
H60	H	0.400799	0.216599	0.547959
H61	H	0.325263	0.215391	0.262803
C62	C	0.895708	-0.282312	-0.312810
C63	C	0.961564	-0.280169	-0.435715
C64	C	0.960848	-0.323575	-0.599568
C65	C	0.894277	-0.369123	-0.640516
C66	C	0.828417	-0.371267	-0.517608
C67	C	0.829133	-0.327862	-0.353755
H68	H	1.010848	-0.246450	-0.405406
H69	H	1.009602	-0.321988	-0.690553
H70	H	0.893748	-0.401255	-0.761810
H71	H	0.779133	-0.404987	-0.547917
H72	H	0.780378	-0.329449	-0.262770
C73	C	0.892048	-0.513841	0.312755
C74	C	0.958611	-0.468284	0.353723
C75	C	0.959303	-0.424864	0.517561
C76	C	0.893434	-0.427000	0.640432
C77	C	0.826866	-0.472558	0.599467
C78	C	0.826174	-0.515978	0.435628
H79	H	1.007376	-0.466702	0.262764
H80	H	1.008581	-0.391139	0.547886
H81	H	0.893946	-0.394858	0.761716
H82	H	0.778101	-0.474141	0.690426
H83	H	0.776896	-0.549703	0.405304
H84	H	0.123629	0.097591	0.270212
H85	H	0.520932	0.103940	0.270198
H86	H	0.898218	-0.127819	0.270202
H87	H	0.889585	-0.668347	0.270201
H88	H	0.895927	-0.271028	0.270202
H89	H	0.891859	-0.525143	-0.270251
H90	H	0.898178	-0.127824	-0.270246
