data_functionalizedCrystal
_audit_creation_method	'MofGen! by Chris Wilmer'
_symmetry_space_group_name_H-M	'P1'
_symmetry_Int_Tables_number	1
_symmetry_cell_setting	triclinic
loop_
_symmetry_equiv_pos_as_xyz
  x,y,z
_cell_length_a	10.654550
_cell_length_b	23.532409
_cell_length_c	9.730223
_cell_angle_alpha	89.998675
_cell_angle_beta	89.999957
_cell_angle_gamma	83.667245
loop_
_atom_site_label
_atom_site_type_symbol
_atom_site_fract_x
_atom_site_fract_y
_atom_site_fract_z
O1	O	1.665306	0.079985	-0.114177
O2	O	1.299586	0.087605	-0.114201
O3	O	1.493473	0.000935	-0.114190
O4	O	1.471419	0.166655	-0.114188
O5	O	1.493461	0.000933	0.114390
O6	O	1.299574	0.087603	0.114379
O7	O	1.665294	0.079982	0.114403
Zn8	Zn	1.482432	0.083792	0.150683
Zn9	Zn	1.482448	0.083795	-0.150481
O10	O	1.471407	0.166652	0.114392
C11	C	1.252800	0.087044	0.000085
C12	C	1.113410	0.085370	0.000076
C13	C	1.032308	0.136400	0.000080
C14	C	0.901337	0.134824	0.000104
C15	C	0.932582	0.031183	0.000113
C16	C	1.063551	0.032760	0.000099
C17	C	1.492905	-0.020286	0.000096
C18	C	1.491215	-0.083514	0.000086
C19	C	1.484036	-0.356804	-0.124519
C20	C	1.485605	-0.297394	-0.124519
O21	O	1.486466	-0.266662	-0.230482
N22	N	1.486375	-0.267688	0.000082
C23	C	1.485589	-0.297396	0.124691
O24	O	1.486389	-0.266674	0.230674
C25	C	1.484029	-0.356806	0.124690
C26	C	1.483246	-0.386508	0.000081
C27	C	1.483255	-0.386506	-0.249118
C28	C	1.481683	-0.445913	-0.249118
C29	C	1.480893	-0.475617	-0.124518
C30	C	1.481675	-0.445914	0.000081
C31	C	1.483251	-0.386514	0.249298
C32	C	1.481692	-0.445928	0.249286
C33	C	1.480909	-0.475630	0.124676
C34	C	1.479313	-0.535025	0.124682
N35	N	1.478543	-0.564730	0.000081
C36	C	1.479333	-0.535026	-0.124519
C37	C	1.488867	-0.172632	0.124684
C38	C	1.490418	-0.113222	0.124687
C39	C	1.490437	-0.113224	-0.124524
C40	C	1.488877	-0.172634	-0.124525
C41	C	1.488097	-0.202338	0.000083
C42	C	1.476032	-0.659784	-0.124508
C43	C	1.474455	-0.719195	-0.124496
C44	C	1.474443	-0.719188	0.124714
C45	C	1.476013	-0.659782	0.124703
C46	C	1.476812	-0.630081	0.000081
O47	O	1.478456	-0.565794	0.230590
O48	O	1.478549	-0.565757	-0.230484
C49	C	1.712080	0.080543	0.000113
C50	C	1.851471	0.082217	0.000114
C51	C	1.471975	0.187873	0.000102
C52	C	1.473665	0.251101	0.000103
N53	N	1.482430	0.083790	0.356219
N54	N	1.482460	0.083793	-0.356018
C55	C	1.568312	0.045429	0.428150
C56	C	1.568324	0.045429	0.572033
C57	C	1.396569	0.122156	0.572042
C58	C	1.396552	0.122153	0.428161
H59	H	0.835309	0.176378	0.000111
C60	C	1.480827	-0.478578	-0.386189
H61	H	1.481532	-0.452372	-0.460385
H62	H	1.406979	-0.497705	-0.391384
H63	H	1.553464	-0.505801	-0.391374
H64	H	0.891971	-0.011650	0.000141
C65	C	1.152774	-0.023374	0.000093
H66	H	1.237913	-0.014898	0.000096
H67	H	1.137727	-0.044926	-0.079613
H68	H	1.137737	-0.044922	0.079819
H69	H	1.072899	0.179239	0.000072
H70	H	1.473813	-0.743375	-0.225973
C71	C	1.476900	-0.627121	-0.261589
H72	H	1.476198	-0.653325	-0.335785
H73	H	1.550747	-0.607992	-0.266782
H74	H	1.404263	-0.599898	-0.266776
H75	H	1.483902	-0.362328	-0.350588
C76	C	1.488050	-0.205303	-0.261594
H77	H	1.488757	-0.179099	-0.335794
H78	H	1.414214	-0.224439	-0.266803
H79	H	1.560699	-0.232520	-0.266758
C80	C	1.662762	0.003226	0.349018
H81	H	1.713903	-0.019624	0.412470
H82	H	1.714771	0.023929	0.292875
H83	H	1.617873	-0.020674	0.292906
C84	C	1.473574	-0.751868	0.261766
H85	H	1.474254	-0.725672	0.335983
H86	H	1.546199	-0.779092	0.266939
H87	H	1.399715	-0.770994	0.266937
H88	H	1.491076	-0.089028	-0.225980
C89	C	1.662799	0.003234	0.651151
H90	H	1.713944	-0.019610	0.587694
H91	H	1.617940	-0.020664	0.707290
H92	H	1.714819	0.023946	0.707266
C93	C	1.491267	-0.080556	0.261757
H94	H	1.490580	-0.106761	0.335957
H95	H	1.418644	-0.053330	0.266941
H96	H	1.565127	-0.061432	0.266946
H97	H	1.488221	-0.196812	0.226162
H98	H	1.326651	0.153391	0.630631
C99	C	1.302081	0.164354	0.349032
H100	H	1.250949	0.187207	0.412482
H101	H	1.250064	0.143645	0.292915
H102	H	1.346955	0.188250	0.292894
C103	C	1.484112	-0.353852	0.386367
H104	H	1.485146	-0.314213	0.368544
H105	H	1.557091	-0.367641	0.437562
H106	H	1.410607	-0.359545	0.437554
C107	C	1.480830	-0.478601	0.386355
H108	H	1.479793	-0.518238	0.368519
H109	H	1.407850	-0.464815	0.437551
H110	H	1.554334	-0.472913	0.437548
C111	C	1.476860	-0.627108	0.261768
H112	H	1.476167	-0.653309	0.335974
H113	H	1.404240	-0.599880	0.266945
H114	H	1.550724	-0.607986	0.266955
