data_functionalizedCrystal
_audit_creation_method	'MofGen! by Chris Wilmer'
_symmetry_space_group_name_H-M	'P1'
_symmetry_Int_Tables_number	1
_symmetry_cell_setting	triclinic
loop_
_symmetry_equiv_pos_as_xyz
  x,y,z
_cell_length_a	6.817900
_cell_length_b	16.418055
_cell_length_c	12.200875
_cell_angle_alpha	94.312575
_cell_angle_beta	107.143593
_cell_angle_gamma	103.389726
loop_
_atom_site_label
_atom_site_type_symbol
_atom_site_fract_x
_atom_site_fract_y
_atom_site_fract_z
V1	V	-4.067902	-0.116076	-0.358060
V2	V	-3.817902	0.133924	-0.108060
V3	V	-3.567902	0.383924	0.141940
V4	V	-3.317902	0.633924	0.391940
O5	O	-4.055059	0.005382	-0.350834
O6	O	-3.805059	0.255382	-0.100834
O7	O	-3.555059	0.505382	0.149166
O8	O	-3.305059	0.755382	0.399166
O9	O	-4.018728	-0.229971	-0.356005
O10	O	-3.768728	0.020029	-0.106005
O11	O	-3.518728	0.270029	0.143995
O12	O	-3.268728	0.520029	0.393995
O13	O	-4.037632	-0.114376	-0.514042
O14	O	-3.787632	0.135624	-0.264042
O15	O	-3.537632	0.385624	-0.014042
O16	O	-3.287632	0.635624	0.235958
O17	O	-4.036024	-0.111012	-0.191703
O18	O	-3.786024	0.138988	0.058297
O19	O	-3.536024	0.388988	0.308297
O20	O	-3.286024	0.638988	0.558297
V21	V	-4.549282	-0.101538	-0.338114
V22	V	-4.299282	0.148462	-0.088114
V23	V	-4.049282	0.398462	0.161886
V24	V	-3.799282	0.648462	0.411886
O25	O	-4.333864	-0.147966	-0.401812
O26	O	-4.083864	0.102034	-0.151812
O27	O	-3.833864	0.352034	0.098188
O28	O	-3.583864	0.602034	0.348188
O29	O	-4.733518	-0.069648	-0.294362
O30	O	-4.483518	0.180352	-0.044362
O31	O	-4.233518	0.430352	0.205638
O32	O	-3.983518	0.680352	0.455638
O33	O	-4.375249	0.012357	-0.340169
O34	O	-4.125249	0.262357	-0.090169
O35	O	-3.875249	0.512357	0.159831
O36	O	-3.625249	0.762357	0.409831
O37	O	-4.679522	-0.222996	-0.345340
O38	O	-4.429522	0.027004	-0.095340
O39	O	-4.179522	0.277004	0.154660
O40	O	-3.929522	0.527004	0.404660
O41	O	-4.698556	-0.106601	-0.504471
O42	O	-4.448556	0.143399	-0.254471
O43	O	-4.198556	0.393399	-0.004471
O44	O	-3.948556	0.643399	0.245529
O45	O	-4.356346	-0.103237	-0.182132
O46	O	-4.106346	0.146763	0.067868
O47	O	-3.856346	0.396763	0.317868
O48	O	-3.606346	0.646763	0.567868
C49	C	-3.862954	-0.257733	-0.350458
C50	C	-3.612954	-0.007733	-0.100458
C51	C	-3.362954	0.242267	0.149542
C52	C	-3.112954	0.492267	0.399542
C53	C	-3.904156	-0.350844	-0.349818
C54	C	-3.654156	-0.100844	-0.099818
C55	C	-3.404156	0.149156	0.150182
C56	C	-3.154156	0.399156	0.400182
C57	C	-4.220403	-0.656832	-0.353543
C58	C	-3.970403	-0.406832	-0.103543
C59	C	-3.720403	-0.156832	0.146457
C60	C	-3.470403	0.093168	0.396457
C61	C	-4.181699	-0.569343	-0.354126
C62	C	-3.931699	-0.319343	-0.104126
C63	C	-3.681699	-0.069343	0.145874
C64	C	-3.431699	0.180657	0.395874
C65	C	-3.816142	-0.560792	-0.342631
C66	C	-3.566142	-0.310792	-0.092631
C67	C	-3.316142	-0.060792	0.157369
C68	C	-3.066142	0.189208	0.407369
C69	C	-3.854844	-0.648279	-0.342040
C70	C	-3.604844	-0.398279	-0.092040
C71	C	-3.354844	-0.148279	0.157960
C72	C	-3.104844	0.101721	0.407960
C73	C	-4.056982	-0.696298	-0.347502
C74	C	-3.806982	-0.446298	-0.097502
C75	C	-3.556982	-0.196298	0.152498
C76	C	-3.306982	0.053702	0.402498
C77	C	-3.979576	-0.521321	-0.348676
C78	C	-3.729576	-0.271321	-0.098676
C79	C	-3.479576	-0.021321	0.151324
C80	C	-3.229576	0.228679	0.401324
C81	C	-3.937609	-0.426461	-0.349309
C82	C	-3.687609	-0.176461	-0.099309
C83	C	-3.437609	0.073539	0.150691
C84	C	-3.187609	0.323539	0.400691
C85	C	-4.098951	-0.791163	-0.346867
C86	C	-3.848951	-0.541163	-0.096867
C87	C	-3.598951	-0.291163	0.153133
C88	C	-3.348951	-0.041163	0.403133
C89	C	-3.887066	-0.110280	-0.552049
C90	C	-3.637066	0.139720	-0.302049
C91	C	-3.387066	0.389720	-0.052049
C92	C	-3.137066	0.639720	0.197951
C93	C	-3.943595	-0.109644	-0.679568
C94	C	-3.693595	0.140356	-0.429568
C95	C	-3.443595	0.390356	-0.179568
C96	C	-3.193595	0.640356	0.070432
C97	C	-4.047051	-0.108481	-0.913038
C98	C	-3.797051	0.141519	-0.663038
C99	C	-3.547051	0.391519	-0.413038
C100	C	-3.297051	0.641519	-0.163038
C101	C	-3.989472	-0.109128	-0.783118
C102	C	-3.739472	0.140872	-0.533118
C103	C	-3.489472	0.390872	-0.283118
C104	C	-3.239472	0.640872	-0.033118
C105	C	-4.194365	0.040115	-0.345713
C106	C	-3.944365	0.290115	-0.095713
C107	C	-3.694365	0.540115	0.154287
C108	C	-3.444365	0.790115	0.404287
C109	C	-4.132402	0.133225	-0.346361
C110	C	-3.882402	0.383225	-0.096361
C111	C	-3.632402	0.633225	0.153639
C112	C	-3.382402	0.883225	0.403639
C113	C	-4.170253	-0.107337	-0.144119
C114	C	-3.920253	0.142663	0.105881
C115	C	-3.670253	0.392663	0.355881
C116	C	-3.420253	0.642663	0.605881
C117	C	-4.092962	-0.107968	-0.016599
C118	C	-3.842962	0.142032	0.233401
C119	C	-3.592962	0.392032	0.483401
C120	C	-3.342962	0.642032	0.733401
H121	H	-3.721755	-0.680412	-0.337118
H122	H	-3.471755	-0.430412	-0.087118
H123	H	-3.221755	-0.180412	0.162882
H124	H	-2.971755	0.069588	0.412882
H125	H	-4.314775	-0.537214	-0.359043
H126	H	-4.064775	-0.287214	-0.109043
H127	H	-3.814775	-0.037214	0.140957
H128	H	-3.564775	0.212786	0.390957
F129	F	-4.435533	-0.707934	-0.359353
F130	F	-4.185533	-0.457934	-0.109353
F131	F	-3.935533	-0.207934	0.140647
F132	F	-3.685533	0.042066	0.390647
F133	F	-3.601018	-0.509680	-0.336815
F134	F	-3.351018	-0.259680	-0.086815
F135	F	-3.101018	-0.009680	0.163185
F136	F	-2.851018	0.240320	0.413185
