data_functionalizedCrystal
_audit_creation_method	'MofGen! by Chris Wilmer'
_symmetry_space_group_name_H-M	'P1'
_symmetry_Int_Tables_number	1
_symmetry_cell_setting	triclinic
loop_
_symmetry_equiv_pos_as_xyz
  x,y,z
_cell_length_a	19.805405
_cell_length_b	21.395364
_cell_length_c	21.395355
_cell_angle_alpha	90.025298
_cell_angle_beta	89.980090
_cell_angle_gamma	89.956889
loop_
_atom_site_label
_atom_site_type_symbol
_atom_site_fract_x
_atom_site_fract_y
_atom_site_fract_z
Zn1	Zn	-0.269240	-0.957878	-0.354268
Zn2	Zn	-0.382410	-0.957788	-0.249488
Zn3	Zn	-0.269273	-0.853093	-0.249503
Zn4	Zn	-0.382425	-0.853070	-0.354227
O5	O	-0.325837	-0.905457	-0.301871
O6	O	-0.284232	-1.045544	-0.340379
O7	O	-0.367409	-0.943872	-0.161812
O8	O	-0.174552	-0.867040	-0.263424
O9	O	-0.367377	-1.045478	-0.263398
O10	O	-0.174528	-0.944025	-0.340394
O11	O	-0.284288	-0.866953	-0.161823
O12	O	-0.284303	-0.765412	-0.263384
O13	O	-0.367404	-0.867001	-0.441910
O14	O	-0.367436	-0.765395	-0.340324
O15	O	-0.284247	-0.944003	-0.441940
O16	O	-0.477128	-0.943850	-0.263358
O17	O	-0.477140	-0.866914	-0.340309
C18	C	-0.325875	-0.742670	-0.301852
C19	C	-0.325908	-0.673028	-0.301858
C20	C	-0.282686	-0.640372	-0.342004
C21	C	-0.282670	-0.574936	-0.342005
C22	C	-0.325888	-0.542160	-0.301868
C23	C	-0.369113	-0.574824	-0.261714
C24	C	-0.369123	-0.640259	-0.261709
C25	C	-0.386846	-0.438440	-0.296828
C26	C	-0.386838	-0.373007	-0.296837
C27	C	-0.325858	-0.340339	-0.301879
C28	C	-0.264885	-0.373113	-0.306925
C29	C	-0.264895	-0.438547	-0.306921
C30	C	-0.325882	-0.471208	-0.301868
C31	C	-0.282615	-0.236730	-0.342029
C32	C	-0.282598	-0.171294	-0.342026
C33	C	-0.369047	-0.171183	-0.261738
C34	C	-0.369058	-0.236618	-0.261738
C35	C	-0.325843	-0.269388	-0.301886
C36	C	-0.501693	-0.905387	-0.301841
C37	C	-0.576925	-0.905414	-0.301849
C38	C	-0.612241	-0.945513	-0.261823
C39	C	-0.682929	-0.945540	-0.261836
C40	C	-0.718301	-0.905464	-0.301874
C41	C	-0.682980	-0.865362	-0.341905
C42	C	-0.612293	-0.865339	-0.341894
C43	C	-0.968053	-0.865455	-0.341951
C44	C	-1.038745	-0.865479	-0.341958
C45	C	-1.038690	-0.945655	-0.261894
C46	C	-0.968002	-0.945632	-0.261883
C47	C	-0.932688	-0.905534	-0.301916
C48	C	-0.856040	-0.905506	-0.301901
C49	C	-0.794948	-0.905487	-0.301886
C50	C	-0.149294	-0.905545	-0.301916
C51	C	-0.074062	-0.905583	-0.301934
C52	C	-0.325823	-0.905509	-0.465295
C53	C	-0.325817	-0.905531	-0.534936
C54	C	-0.325807	-0.068881	-0.301888
C55	C	-0.325816	-0.138522	-0.301887
C56	C	-0.282516	-0.945625	-0.567666
C57	C	-0.282487	-0.945624	-0.633101
C58	C	-0.325771	-0.905536	-0.665804
C59	C	-0.369076	-0.865435	-0.633067
C60	C	-0.369099	-0.865433	-0.567632
C61	C	-0.386717	-0.900565	-0.769469
C62	C	-0.386695	-0.900571	-0.834902
C63	C	-0.325700	-0.905540	-0.867625
C64	C	-0.264724	-0.910515	-0.834908
C65	C	-0.264748	-0.910513	-0.769474
C66	C	-0.325751	-0.905534	-0.736757
C67	C	-0.282363	-0.945635	-0.971308
C68	C	-0.282333	-0.945629	-1.036744
C69	C	-0.368928	-0.865444	-1.036708
C70	C	-0.368952	-0.865446	-0.971273
C71	C	-0.325671	-0.905545	-0.938577
C72	C	-0.325802	-0.905442	-0.139084
C73	C	-0.325617	-0.905541	-0.069443
H74	H	-0.404301	-0.548134	-0.229033
H75	H	-0.247067	-0.978277	-1.063392
H76	H	-0.247471	-0.548342	-0.374696
H77	H	-0.247398	-0.144706	-0.374716
N78	N	-0.415609	-0.822201	-1.071971
H79	H	-0.409023	-0.828284	-1.118391
H80	H	-0.463952	-0.831926	-1.060538
N81	N	-0.929968	-0.822201	-0.385121
H82	H	-0.942237	-0.831910	-0.429899
H83	H	-0.942347	-0.777462	-0.375291
N84	N	-0.721127	-0.822138	-0.385092
H85	H	-0.771266	-0.828234	-0.379024
H86	H	-0.708827	-0.777392	-0.375295
H87	H	-0.215248	-0.465228	-0.311027
N88	N	-0.415668	-0.822212	-0.935969
H89	H	-0.409116	-0.828293	-0.889555
H90	H	-0.405142	-0.777469	-0.947387
H91	H	-0.247272	-0.978275	-0.541049
N92	N	-0.574095	-0.988745	-0.218642
H93	H	-0.523956	-0.982647	-0.224707
H94	H	-0.586487	-0.979022	-0.173887
N95	N	-0.574206	-0.822083	-0.385064
H96	H	-0.544926	-0.793051	-0.359570
H97	H	-0.544871	-0.847565	-0.414112
N98	N	-0.235781	-0.988868	-0.668414
H99	H	-0.208366	-1.014269	-0.637772
H100	H	-0.263323	-1.017847	-0.695573
N101	N	-0.198988	-0.915880	-0.734185
H102	H	-0.160341	-0.919030	-0.764839
H103	H	-0.192722	-0.877708	-0.707019
N104	N	-0.198930	-0.915881	-0.870192
H105	H	-0.208165	-0.915125	-0.916609
H106	H	-0.168681	-0.879665	-0.858738
H107	H	-1.067543	-0.832845	-0.374566
H108	H	-0.215229	-0.346516	-0.311032
H109	H	-0.247117	-0.978282	-0.944685
N110	N	-0.236006	-0.272081	-0.385327
H111	H	-0.208617	-0.241461	-0.410757
H112	H	-0.204648	-0.299246	-0.359875
H113	H	-0.404321	-0.666847	-0.229017
N114	N	-0.415688	-0.271843	-0.218447
H115	H	-0.409138	-0.318269	-0.224534
H116	H	-0.405083	-0.260393	-0.173717
N117	N	-0.415657	-0.135841	-0.218440
H118	H	-0.409091	-0.089433	-0.224533
H119	H	-0.464015	-0.147242	-0.228108
H120	H	-0.436485	-0.346328	-0.292731
H121	H	-0.404360	-0.832781	-0.540984
H122	H	-0.436345	-0.896524	-0.861535
H123	H	-0.711680	-0.978193	-0.229242
N124	N	-0.929856	-0.988862	-0.218702
H125	H	-0.900480	-1.017873	-0.244191
H126	H	-0.900612	-0.963363	-0.189645
H127	H	-1.067451	-0.978308	-0.229300
H128	H	-0.436374	-0.896351	-0.742830
N129	N	-0.415751	-0.822187	-0.668334
H130	H	-0.409165	-0.828271	-0.714754
H131	H	-0.464096	-0.831905	-0.656903
H132	H	-0.247497	-0.667049	-0.374696
H133	H	-0.436507	-0.465032	-0.292721
