data_functionalizedCrystal
_audit_creation_method	'MofGen! by Chris Wilmer'
_symmetry_space_group_name_H-M	'P1'
_symmetry_Int_Tables_number	1
_symmetry_cell_setting	triclinic
loop_
_symmetry_equiv_pos_as_xyz
  x,y,z
_cell_length_a	19.288864
_cell_length_b	11.792241
_cell_length_c	17.766277
_cell_angle_alpha	89.993523
_cell_angle_beta	89.976791
_cell_angle_gamma	83.664831
loop_
_atom_site_label
_atom_site_type_symbol
_atom_site_fract_x
_atom_site_fract_y
_atom_site_fract_z
O1	O	0.922157	0.141582	-0.062836
O2	O	1.422157	0.641582	0.437164
O3	O	0.720005	0.160681	-0.062785
O4	O	1.220005	0.660681	0.437215
O5	O	0.825987	-0.014113	-0.062806
O6	O	1.325987	0.485887	0.437194
O7	O	0.816176	0.316377	-0.062814
O8	O	1.316176	0.816377	0.437186
O9	O	0.825968	-0.014122	0.062382
O10	O	1.325968	0.485878	0.562382
O11	O	0.719986	0.160673	0.062404
O12	O	1.219986	0.660673	0.562404
O13	O	0.922139	0.141573	0.062352
O14	O	1.422139	0.641573	0.562352
Cu15	Cu	0.821061	0.151122	0.073809
Cu16	Cu	1.321061	0.651122	0.573809
Cu17	Cu	0.821083	0.151133	-0.074241
Cu18	Cu	1.321083	0.651133	0.425759
O19	O	0.816157	0.316368	0.062374
O20	O	1.316157	0.816368	0.562374
C21	C	0.694116	0.160063	-0.000184
C22	C	1.194116	0.660063	0.499816
C23	C	0.617002	0.158218	-0.000164
C24	C	1.117002	0.658218	0.499836
C25	C	0.572888	0.260779	-0.000178
C26	C	1.072888	0.760779	0.499822
C27	C	0.500431	0.259046	-0.000187
C28	C	1.000431	0.759046	0.499813
C29	C	0.472091	0.154746	-0.000196
C30	C	0.972091	0.654746	0.499804
C31	C	0.516215	0.052171	-0.000177
C32	C	1.016215	0.552171	0.499823
C33	C	0.588670	0.053907	-0.000161
C34	C	1.088670	0.553907	0.499839
C35	C	0.363370	0.072757	-0.044078
C36	C	0.863370	0.572757	0.455922
C37	C	0.290916	0.071025	-0.044099
C38	C	0.790916	0.571025	0.455901
C39	C	0.248615	0.149387	-0.000241
C40	C	0.748615	0.649387	0.499759
C41	C	0.278776	0.229499	0.043627
C42	C	0.778776	0.729499	0.543627
C43	C	0.351232	0.231235	0.043643
C44	C	0.851232	0.731235	0.543643
C45	C	0.393526	0.152852	-0.000212
C46	C	0.893526	0.652852	0.499788
C47	C	0.125935	0.250076	-0.000263
C48	C	0.625935	0.750076	0.499737
C49	C	0.053477	0.248339	-0.000267
C50	C	0.553477	0.748339	0.499733
C51	C	0.069262	0.041460	-0.000265
C52	C	0.569262	0.541460	0.499735
C53	C	0.141718	0.043201	-0.000254
C54	C	0.641718	0.543201	0.499746
C55	C	0.170050	0.147512	-0.000257
C56	C	0.670050	0.647512	0.499743
C57	C	0.825361	-0.056399	-0.000212
C58	C	1.325361	0.443601	0.499788
C59	C	0.823517	-0.182385	-0.000212
C60	C	1.323517	0.317615	0.499788
C61	C	0.820125	-0.413045	-0.000224
C62	C	1.320125	0.086955	0.499776
C63	C	0.822009	-0.284689	-0.000218
C64	C	1.322009	0.215311	0.499782
C65	C	0.948028	0.142192	-0.000250
C66	C	1.448028	0.642192	0.499750
C67	C	1.025142	0.144037	-0.000275
C68	C	1.525142	0.644037	0.499725
C69	C	0.816783	0.358654	-0.000222
C70	C	1.316783	0.858654	0.499778
C71	C	0.818627	0.484640	-0.000226
C72	C	1.318627	0.984640	0.499774
N73	N	0.821050	0.151114	0.177939
N74	N	1.321050	0.651114	0.677939
N75	N	0.821099	0.151132	-0.178371
N76	N	1.321099	0.651132	0.321629
C77	C	0.867994	0.073753	0.217316
C78	C	1.367994	0.573753	0.717316
C79	C	0.867998	0.073748	0.296118
C80	C	1.367998	0.573748	0.796118
C81	C	0.821065	0.151123	0.335540
C82	C	1.321065	0.651123	0.835540
C83	C	0.774112	0.228490	0.296153
C84	C	1.274112	0.728490	0.796153
C85	C	0.774105	0.228486	0.217353
C86	C	1.274105	0.728486	0.717353
C87	C	0.812354	0.254534	0.460377
C88	C	1.312354	0.754534	0.960377
C89	C	0.812366	0.254540	0.539175
C90	C	1.312366	0.754540	1.039175
C91	C	0.821084	0.151137	0.578586
C92	C	1.321084	0.651137	1.078586
C93	C	0.829804	0.047723	0.539188
C94	C	1.329804	0.547723	1.039188
C95	C	0.829797	0.047719	0.460388
C96	C	1.329797	0.547719	0.960388
C97	C	0.821067	0.151136	0.420985
C98	C	1.321067	0.651136	0.920985
C99	C	0.868035	0.073764	0.703409
C100	C	1.368035	0.573764	1.203409
C101	C	0.868034	0.073757	0.782213
C102	C	1.368034	0.573757	1.282213
C103	C	0.774151	0.228509	0.782246
C104	C	1.274151	0.728509	1.282246
C105	C	0.774148	0.228506	0.703444
C106	C	1.274148	0.728506	1.203444
C107	C	0.821094	0.151135	0.664030
C108	C	1.321094	0.651135	1.164030
H109	H	0.149004	0.335012	-0.000255
H110	H	0.649004	0.835012	0.499745
H111	H	0.595951	0.345717	-0.000182
H112	H	1.095951	0.845717	0.499818
H113	H	0.735876	0.291484	0.185291
H114	H	1.235876	0.791484	0.685291
H115	H	0.735934	0.291505	0.814342
H116	H	1.235934	0.791505	1.314342
Br117	Br	-0.006394	0.387542	-0.000280
Br118	Br	0.493606	0.887542	0.499720
Br119	Br	0.931713	-0.031253	0.349569
Br120	Br	1.431713	0.468747	0.849569
Br121	Br	0.648543	-0.085295	-0.000140
Br122	Br	1.148543	0.414705	0.499860
Br123	Br	0.931702	-0.031252	0.163826
Br124	Br	1.431702	0.468748	0.663826
Br125	Br	0.030809	-0.100093	-0.000265
Br126	Br	0.530809	0.399907	0.499735
Br127	Br	0.931742	-0.031251	0.835658
Br128	Br	1.431742	0.468749	1.335658
Br129	Br	0.420771	-0.033604	-0.103602
Br130	Br	0.920771	0.466396	0.396398
H131	H	0.805242	0.338743	0.428295
H132	H	1.305242	0.838743	0.928295
H133	H	0.735925	0.291505	0.671381
H134	H	1.235925	0.791505	1.171381
H135	H	0.735897	0.291489	0.328254
H136	H	1.235897	0.791489	0.828254
Br137	Br	0.440551	0.398246	-0.000202
Br138	Br	0.940551	0.898246	0.499798
Br139	Br	0.841624	-0.092620	0.406921
Br140	Br	1.341624	0.407380	0.906921
Br141	Br	0.221377	0.335859	0.103150
Br142	Br	0.721377	0.835859	0.603150
H143	H	0.805270	0.338745	0.571247
H144	H	1.305270	0.838745	1.071247
H145	H	0.836902	-0.036478	0.571275
H146	H	1.336902	0.463522	1.071275
H147	H	0.375786	0.296462	0.079364
H148	H	0.875786	0.796462	0.579364
H149	H	0.177637	-0.040316	-0.000246
H150	H	0.677637	0.459684	0.499754
H151	H	0.266364	0.005797	-0.079822
H152	H	0.766364	0.505797	0.420178
H153	H	0.493136	-0.032752	-0.000195
H154	H	0.993136	0.467248	0.499805
Br155	Br	0.931743	-0.031243	0.649918
Br156	Br	1.431743	0.468757	1.149918
