data_functionalizedCrystal
_audit_creation_method	'MofGen! by Chris Wilmer'
_symmetry_space_group_name_H-M	'P1'
_symmetry_Int_Tables_number	1
_symmetry_cell_setting	triclinic
loop_
_symmetry_equiv_pos_as_xyz
  x,y,z
_cell_length_a	6.817900
_cell_length_b	15.866870
_cell_length_c	16.305550
_cell_angle_alpha	112.498803
_cell_angle_beta	103.455250
_cell_angle_gamma	102.655915
loop_
_atom_site_label
_atom_site_type_symbol
_atom_site_fract_x
_atom_site_fract_y
_atom_site_fract_z
V1	V	-4.051892	-0.133572	-0.304568
O2	O	-4.012769	0.005585	-0.256287
O3	O	-4.028396	-0.264050	-0.343343
O4	O	-4.002974	-0.131883	-0.418760
O5	O	-4.038366	-0.127496	-0.180349
V6	V	-4.532361	-0.116884	-0.284747
O7	O	-4.319852	-0.170179	-0.348047
O8	O	-4.714598	-0.080277	-0.241268
O9	O	-4.332650	0.013593	-0.245972
O10	O	-4.688881	-0.256042	-0.333028
O11	O	-4.663283	-0.122960	-0.408966
O12	O	-4.358072	-0.118573	-0.170555
C13	C	-3.879472	-0.295846	-0.349082
C14	C	-3.941544	-0.402515	-0.381546
C15	C	-3.847043	-0.127253	-0.445281
C16	C	-3.888495	-0.126736	-0.538902
C17	C	-3.931812	-0.683673	-0.080408
C18	C	-3.990147	-0.783910	-0.110942
C19	C	-4.075699	-0.811764	-0.274110
C20	C	-4.017359	-0.711528	-0.243590
C21	C	-3.945421	-0.647489	-0.146738
C22	C	-4.030968	-0.675344	-0.309919
C23	C	-3.972644	-0.575116	-0.279401
C24	C	-3.900711	-0.511072	-0.182553
C25	C	-3.887097	-0.547262	-0.116220
C26	C	-4.102922	-0.739384	-0.406771
C27	C	-4.116531	-0.703201	-0.473100
C28	C	-4.058192	-0.602971	-0.442582
C29	C	-3.986259	-0.538927	-0.345735
C30	C	-4.071807	-0.566781	-0.508916
C31	C	-4.013483	-0.466554	-0.478398
C32	C	-3.927935	-0.438699	-0.315217
C33	C	-4.039197	-0.124730	-0.879024
C34	C	-3.802006	-0.118776	-0.836244
C35	C	-3.758992	-0.119712	-0.739040
C36	C	-3.964430	-0.125724	-0.710285
C37	C	-4.149659	-0.220491	-0.790381
C38	C	-4.191420	-0.219955	-0.887764
C39	C	-4.077045	-0.036675	-0.805798
C40	C	-4.028971	-0.035924	-0.707722
C41	C	-3.922189	-0.126290	-0.614923
C42	C	-4.081448	-0.124171	-0.974389
C43	C	-4.144918	0.045385	-0.240233
C44	C	-4.062084	0.152053	-0.207774
C45	C	-4.177347	-0.123206	-0.144030
C46	C	-4.115132	-0.123719	-0.050407
H47	H	-3.853231	-0.429461	-0.157708
O48	O	-4.142049	-0.628965	-0.603015
C49	C	-4.327699	-0.617580	-0.650641
H50	H	-4.408175	-0.585123	-0.598317
H51	H	-4.443853	-0.691373	-0.709544
H52	H	-4.281194	-0.567039	-0.682574
H53	H	-3.869323	-0.386554	-0.236349
H54	H	-3.979053	-0.813364	-0.056921
O55	O	-4.204502	-0.034636	-0.681865
C56	C	-4.378877	-0.120090	-0.747472
H57	H	-4.351736	-0.151328	-0.817821
H58	H	-4.533358	-0.102467	-0.758776
H59	H	-4.392544	-0.175573	-0.718870
H60	H	-3.828485	-0.495116	-0.037352
H61	H	-4.249786	-0.040194	-0.833708
H62	H	-3.769062	-0.182040	-0.887429
O63	O	-4.334017	-0.229884	-0.770602
C64	C	-4.299043	-0.234515	-0.683972
H65	H	-4.157113	-0.260152	-0.669077
H66	H	-4.448767	-0.287707	-0.688495
H67	H	-4.262971	-0.159431	-0.624293
O68	O	-3.951877	0.049007	-0.795195
C69	C	-4.083295	0.098696	-0.820912
H70	H	-4.250184	0.044507	-0.870607
H71	H	-4.010081	0.137634	-0.858374
H72	H	-4.095887	0.154126	-0.754551
H73	H	-3.704853	-0.183706	-0.742647
H74	H	-3.873200	-0.631528	-0.001541
H75	H	-4.150412	-0.820995	-0.431616
O76	O	-4.145529	-0.874106	-0.368150
C77	C	-4.194147	-0.970331	-0.380867
H78	H	-4.101789	-0.970350	-0.312922
H79	H	-4.146131	-1.014707	-0.441514
H80	H	-4.373830	-1.003748	-0.398448
H81	H	-3.894466	0.034171	-0.651547
O82	O	-4.186361	-0.765542	-0.567140
C83	C	-4.234979	-0.861768	-0.579857
H84	H	-4.142622	-0.861786	-0.511913
H85	H	-4.186963	-0.906143	-0.640505
H86	H	-4.414662	-0.895184	-0.597438
H87	H	-3.682722	-0.050317	-0.827319
H88	H	-4.024596	-0.437094	-0.532411
H89	H	-3.619411	-0.051574	-0.682828
H90	H	-4.168074	-0.286616	-0.938875
H91	H	-4.366852	-0.228267	-0.918340
H92	H	-4.107028	-0.287170	-0.794304
