data_functionalizedCrystal
_audit_creation_method	'MofGen! by Chris Wilmer'
_symmetry_space_group_name_H-M	'P1'
_symmetry_Int_Tables_number	1
_symmetry_cell_setting	triclinic
loop_
_symmetry_equiv_pos_as_xyz
  x,y,z
_cell_length_a	23.532407
_cell_length_b	11.026607
_cell_length_c	22.010155
_cell_angle_alpha	90.007343
_cell_angle_beta	89.996931
_cell_angle_gamma	95.717347
loop_
_atom_site_label
_atom_site_type_symbol
_atom_site_fract_x
_atom_site_fract_y
_atom_site_fract_z
O1	O	-0.770736	-0.147111	0.050446
O2	O	-0.607112	-0.168399	0.050464
O3	O	-0.675363	0.018734	0.050454
O4	O	-0.702485	-0.334245	0.050456
O5	O	-0.675350	0.018706	-0.050596
O6	O	-0.607099	-0.168427	-0.050587
O7	O	-0.770723	-0.147139	-0.050604
Cu8	Cu	-0.688910	-0.157786	-0.059822
Cu9	Cu	-0.688925	-0.157753	0.059682
O10	O	-0.702472	-0.334273	-0.050595
C11	C	-0.585833	-0.167871	-0.000059
C12	C	-0.522444	-0.166241	-0.000052
C13	C	-0.670353	0.063871	-0.000070
C14	C	-0.655437	0.198405	-0.000066
C15	C	-0.792003	-0.147667	-0.000080
C16	C	-0.855391	-0.149297	-0.000083
C17	C	-0.133913	-0.266760	-0.000080
C18	C	-0.074354	-0.265246	-0.000083
O19	O	-0.047410	-0.358429	-0.000105
N20	N	-0.040027	-0.153995	-0.000083
C21	C	-0.065262	-0.044251	-0.000085
O22	O	-0.030595	0.050515	-0.000085
C23	C	-0.124820	-0.045767	-0.000085
C24	C	-0.159144	-0.157025	-0.000080
C25	C	-0.168237	-0.378010	-0.000075
C26	C	-0.227793	-0.379523	-0.000070
C27	C	-0.253024	-0.269788	-0.000070
C28	C	-0.218700	-0.158538	-0.000075
C29	C	-0.150054	0.063976	-0.000092
C30	C	-0.209617	0.062451	-0.000093
C31	C	-0.243941	-0.048807	-0.000087
C32	C	-0.303486	-0.050316	-0.000070
N33	N	-0.337814	-0.161567	-0.000071
C34	C	-0.312582	-0.271303	-0.000070
C35	C	0.059815	-0.041078	-0.000084
C36	C	0.119372	-0.039561	-0.000079
C37	C	0.110276	-0.260556	-0.000079
C38	C	0.050717	-0.262072	-0.000080
C39	C	0.025488	-0.152328	-0.000085
C40	C	-0.437653	-0.274473	-0.000060
C41	C	-0.497213	-0.275977	-0.000052
C42	C	-0.488111	-0.054982	-0.000056
C43	C	-0.428556	-0.053478	-0.000060
C44	C	-0.403329	-0.163233	-0.000064
O45	O	-0.330470	0.042817	-0.000051
O46	O	-0.347256	-0.366054	-0.000078
C47	C	-0.707482	-0.379409	-0.000069
C48	C	-0.722398	-0.513944	-0.000069
N49	N	-0.688903	-0.157808	-0.143875
C50	C	-0.696622	0.272707	-0.000069
C51	C	-0.681207	0.411756	-0.000066
C52	C	-0.719150	-0.074902	-0.563658
C53	C	-0.719152	-0.074893	-0.627266
O54	O	-0.744848	-0.004419	-0.660161
N55	N	-0.688922	-0.157727	-0.659082
C56	C	-0.658684	-0.240567	-0.627287
O57	O	-0.632971	-0.311022	-0.660189
C58	C	-0.658679	-0.240569	-0.563680
C59	C	-0.688916	-0.157737	-0.531868
C60	C	-0.749384	0.007924	-0.531845
C61	C	-0.749383	0.007914	-0.468242
C62	C	-0.719148	-0.074922	-0.436452
C63	C	-0.688915	-0.157747	-0.468264
C64	C	-0.628438	-0.323401	-0.531886
C65	C	-0.628436	-0.323395	-0.468276
C66	C	-0.658672	-0.240564	-0.436463
C67	C	-0.658679	-0.240593	-0.372871
N68	N	-0.688909	-0.157759	-0.341055
C69	C	-0.719144	-0.074923	-0.372845
C70	C	-0.658696	-0.240556	-0.760864
C71	C	-0.658703	-0.240561	-0.824470
C72	C	-0.719171	-0.074885	-0.824444
C73	C	-0.719166	-0.074887	-0.760838
C74	C	-0.688925	-0.157722	-0.729049
C75	C	-0.719140	-0.074952	-0.239274
C76	C	-0.719138	-0.074973	-0.175665
C77	C	-0.658668	-0.240643	-0.175696
C78	C	-0.658672	-0.240627	-0.239299
C79	C	-0.688909	-0.157771	-0.271087
O80	O	-0.632995	-0.311029	-0.339935
O81	O	-0.744846	-0.004469	-0.339935
N82	N	-0.688936	-0.157720	0.143734
H83	H	-0.525158	-0.366580	-0.000047
C84	C	-0.618151	0.464875	-0.000060
N85	N	-0.570657	0.504887	-0.000057
H86	H	-0.769073	0.446735	-0.000028
C87	C	-0.592384	0.251530	-0.000060
N88	N	-0.544891	0.291542	-0.000057
C89	C	-0.595175	-0.414535	-0.433311
N90	N	-0.570127	-0.483188	-0.406977
H91	H	-0.743787	-0.007438	-0.734940
H92	H	-0.743762	-0.007521	-0.149765
H93	H	-0.743760	-0.007482	-0.265148
C94	C	-0.782638	0.099049	-0.433257
N95	N	-0.807685	0.167701	-0.406909
C96	C	-0.140493	-0.498739	-0.000077
N97	N	-0.119600	-0.589680	-0.000075
H98	H	-0.774004	0.075384	-0.557724
H99	H	-0.634089	-0.308022	-0.850367
C100	C	-0.265542	-0.501917	-0.000076
N101	N	-0.293972	-0.594110	-0.000086
H102	H	-0.417120	-0.363847	-0.000065
H103	H	-0.743294	0.233378	-0.000078
C104	C	-0.625415	-0.331753	-0.274294
N105	N	-0.600360	-0.400382	-0.300648
H106	H	-0.603817	-0.390849	-0.557779
H107	H	-0.743788	-0.007434	-0.850340
C108	C	0.138042	-0.381268	-0.000085
N109	N	0.158957	-0.472183	-0.000091
C110	C	0.012966	-0.384463	-0.000080
N111	N	-0.015466	-0.476653	-0.000083
H112	H	-0.634073	-0.308020	-0.734985
H113	H	0.147315	0.051036	-0.000075
C114	C	0.032068	0.079657	-0.000080
N115	N	0.011172	0.170594	-0.000077
H116	H	-0.634054	-0.308091	-0.149802
C117	C	-0.237366	0.183181	-0.000096
N118	N	-0.258265	0.274114	-0.000096
C119	C	-0.390798	0.068911	-0.000058
N120	N	-0.362363	0.161097	-0.000062
C121	C	-0.112310	0.186371	-0.000110
N122	N	-0.083882	0.278566	-0.000128
H123	H	-0.508666	0.034361	-0.000054
