data_functionalizedCrystal
_audit_creation_method	'MofGen! by Chris Wilmer'
_symmetry_space_group_name_H-M	'P1'
_symmetry_Int_Tables_number	1
_symmetry_cell_setting	triclinic
loop_
_symmetry_equiv_pos_as_xyz
  x,y,z
_cell_length_a	21.295417
_cell_length_b	18.050590
_cell_length_c	18.050582
_cell_angle_alpha	89.996382
_cell_angle_beta	89.973245
_cell_angle_gamma	89.982671
loop_
_atom_site_label
_atom_site_type_symbol
_atom_site_fract_x
_atom_site_fract_y
_atom_site_fract_z
Zn1	Zn	-0.250871	-1.135281	-0.419523
Zn2	Zn	0.249129	-0.635281	0.080477
Zn3	Zn	-0.356132	-1.135186	-0.295324
Zn4	Zn	0.143868	-0.635186	0.204676
Zn5	Zn	-0.250856	-1.011100	-0.295388
Zn6	Zn	0.249144	-0.511100	0.204612
Zn7	Zn	-0.356082	-1.011043	-0.419513
Zn8	Zn	0.143918	-0.511043	0.080487
O9	O	-0.303485	-1.073152	-0.357437
O10	O	0.196515	-0.573152	0.142563
O11	O	-0.264861	-1.239193	-0.403026
O12	O	0.235139	-0.739193	0.096974
O13	O	-0.342182	-1.118710	-0.191408
O14	O	0.157818	-0.618710	0.308592
O15	O	-0.162769	-1.027636	-0.311885
O16	O	0.337231	-0.527636	0.188115
O17	O	-0.342196	-1.239123	-0.311778
O18	O	0.157804	-0.739123	0.188222
O19	O	-0.162779	-1.118871	-0.403087
O20	O	0.337221	-0.618871	0.096913
O21	O	-0.264836	-1.027545	-0.191455
O22	O	0.235164	-0.527545	0.308545
O23	O	-0.264788	-0.907168	-0.311875
O24	O	0.235212	-0.407168	0.188125
O25	O	-0.342110	-1.027539	-0.523439
O26	O	0.157890	-0.527539	-0.023439
O27	O	-0.342096	-0.907126	-0.403070
O28	O	0.157904	-0.407126	0.096930
O29	O	-0.264812	-1.118816	-0.523447
O30	O	0.235188	-0.618816	-0.023447
O31	O	-0.444215	-1.118655	-0.311767
O32	O	0.055785	-0.618655	0.188233
O33	O	-0.444178	-1.027447	-0.403008
O34	O	0.055822	-0.527447	0.096992
C35	C	-0.303435	-0.880200	-0.357479
C36	C	0.196565	-0.380200	0.142521
C37	C	-0.303429	-0.797655	-0.357514
C38	C	0.196571	-0.297655	0.142486
C39	C	-0.345583	-0.598203	-0.406998
C40	C	0.154417	-0.098203	0.093002
C41	C	-0.288184	-0.548812	-0.425280
C42	C	0.211816	-0.048812	0.074720
C43	C	-0.303459	-0.646524	-0.357485
C44	C	0.196541	-0.146524	0.142515
C45	C	-0.360886	-0.548833	-0.339209
C46	C	0.139114	-0.048833	0.160791
C47	C	-0.303493	-0.500539	-0.357459
C48	C	0.196507	-0.000539	0.142541
C49	C	-0.246030	-0.598221	-0.375803
C50	C	0.253970	-0.098221	0.124197
C51	C	-0.318770	-0.598246	-0.289701
C52	C	0.181230	-0.098246	0.210299
C53	C	-0.261332	-0.548878	-0.307958
C54	C	0.238668	-0.048878	0.192042
C55	C	-0.303441	-0.730622	-0.357503
C56	C	0.196559	-0.230622	0.142497
C57	C	-0.303505	-0.416442	-0.357442
C58	C	0.196495	0.083558	0.142558
C59	C	-0.467037	-1.073055	-0.357396
C60	C	0.032963	-0.573055	0.142604
C61	C	-0.537005	-1.073081	-0.357403
C62	C	-0.037005	-0.573081	0.142597
C63	C	-0.569870	-1.120615	-0.309943
C64	C	-0.069870	-0.620615	0.190057
C65	C	-0.635612	-1.120650	-0.309960
C66	C	-0.135612	-0.620650	0.190040
C67	C	-0.668487	-1.073138	-0.357429
C68	C	-0.168487	-0.573138	0.142571
C69	C	-0.635614	-1.025600	-0.404899
C70	C	-0.135614	-0.525600	0.095101
C71	C	-0.569873	-1.025572	-0.404886
C72	C	-0.069873	-0.525572	0.095114
N73	N	-0.771741	-1.008171	-0.363105
N74	N	-0.271741	-0.508171	0.136895
N75	N	-0.834192	-1.008200	-0.363112
N76	N	-0.334192	-0.508200	0.136888
C77	C	-0.866562	-1.073221	-0.357471
C78	C	-0.366562	-0.573221	0.142529
N79	N	-0.834121	-1.138214	-0.351808
N80	N	-0.334121	-0.638214	0.148192
N81	N	-0.771664	-1.138184	-0.351796
N82	N	-0.271664	-0.638184	0.148204
C83	C	-0.739773	-1.073163	-0.357448
C84	C	-0.239773	-0.573163	0.142552
C85	C	-0.970713	-1.120797	-0.310027
C86	C	-0.470713	-0.620797	0.189973
C87	C	-1.036456	-1.120833	-0.310048
C88	C	-0.536456	-0.620833	0.189952
C89	C	-1.036457	-1.025776	-0.404984
C90	C	-0.536457	-0.525776	0.095016
C91	C	-0.970715	-1.025747	-0.404966
C92	C	-0.470715	-0.525747	0.095034
C93	C	-0.937846	-1.073256	-0.357483
C94	C	-0.437846	-0.573256	0.142517
C95	C	-0.139295	-1.073270	-0.357495
C96	C	0.360705	-0.573270	0.142505
C97	C	-0.069327	-1.073321	-0.357519
C98	C	0.430673	-0.573321	0.142481
C99	C	-0.303457	-1.073181	-0.551143
C100	C	0.196543	-0.573181	-0.051143
C101	C	-0.303445	-1.073194	-0.633689
C102	C	0.196555	-0.573194	-0.133689
C103	C	-0.303527	-0.266858	-0.357408
C104	C	0.196473	0.233142	0.142592
C105	C	-0.303522	-0.349404	-0.357428
C106	C	0.196478	0.150596	0.142572
C107	C	-0.345423	-1.023595	-0.833135
C108	C	0.154577	-0.523595	-0.333135
C109	C	-0.360823	-1.091350	-0.882503
C110	C	0.139177	-0.591350	-0.382503
C111	C	-0.303397	-1.073231	-0.784819
C112	C	0.196603	-0.573231	-0.284819
C113	C	-0.287979	-1.005513	-0.882533
C114	C	0.212021	-0.505513	-0.382533
C115	C	-0.303352	-1.073260	-0.930804
C116	C	0.196648	-0.573260	-0.430804
C117	C	-0.318828	-1.141021	-0.833100
C118	C	0.181172	-0.641021	-0.333100
C119	C	-0.245957	-1.055138	-0.833125
C120	C	0.254043	-0.555138	-0.333125
C121	C	-0.261336	-1.122939	-0.882471
C122	C	0.238664	-0.622939	-0.382471
C123	C	-0.303425	-1.073213	-0.700721
C124	C	0.196575	-0.573213	-0.200721
C125	C	-0.303324	-1.073286	-1.014901
C126	C	0.196676	-0.573286	-0.514901
C127	C	-0.303468	-1.073166	-0.164485
C128	C	0.196532	-0.573166	0.335515
C129	C	-0.303302	-1.073298	-0.081940
C130	C	0.196698	-0.573298	0.418060
H131	H	-0.197465	-0.619824	-0.391315
H132	H	0.302535	-0.119824	0.108685
H133	H	-0.943954	-0.987037	-0.443609
H134	H	-0.443954	-0.487037	0.056391
H135	H	-0.225777	-1.164975	-0.903997
H136	H	0.274223	-0.664975	-0.403997
F137	F	-0.335696	-0.626629	-0.214799
F138	F	0.164304	-0.126629	0.285201
F139	F	-0.534895	-0.974978	-0.455402
F140	F	-0.034895	-0.474978	0.044598
H141	H	-0.543110	-1.159302	-0.271282
H142	H	-0.043110	-0.659302	0.228718
H143	H	-1.063214	-1.159545	-0.271402
H144	H	-0.563214	-0.659545	0.228598
H145	H	-0.381146	-0.619863	-0.448913
H146	H	0.118854	-0.119863	0.051087
F147	F	-0.424344	-0.520476	-0.319018
F148	F	0.075656	-0.020476	0.180982
F149	F	-1.071441	-0.975214	-0.455509
F150	F	-0.571441	-0.475214	0.044491
H151	H	-0.662376	-1.159361	-0.271312
H152	H	-0.162376	-0.659361	0.228688
F153	F	-0.270958	-0.930645	-0.910915
F154	F	0.229042	-0.430645	-0.410915
F155	F	-0.271270	-0.520430	-0.500191
F156	F	0.228730	-0.020430	-0.000191
F157	F	-0.214737	-0.520745	-0.253214
F158	F	0.285263	-0.020745	0.246786
F159	F	-0.670603	-0.975037	-0.455422
F160	F	-0.170603	-0.475037	0.044578
F161	F	-0.182508	-1.035088	-0.804752
F162	F	0.317492	-0.535088	-0.304752
F163	F	-0.935729	-1.171359	-0.259492
F164	F	-0.435729	-0.671359	0.240508
H165	H	-0.331905	-1.198317	-0.811478
H166	H	0.168095	-0.698317	-0.311478
H167	H	-0.381009	-0.981660	-0.811473
H168	H	0.118991	-0.481660	-0.311473
H169	H	-0.409380	-1.106670	-0.904193
H170	H	0.090620	-0.606670	-0.404193
