data_functionalizedCrystal
_audit_creation_method	'MofGen! by Chris Wilmer'
_symmetry_space_group_name_H-M	'P1'
_symmetry_Int_Tables_number	1
_symmetry_cell_setting	triclinic
loop_
_symmetry_equiv_pos_as_xyz
  x,y,z
_cell_length_a	14.395555
_cell_length_b	23.196402
_cell_length_c	23.196401
_cell_angle_alpha	60.008822
_cell_angle_beta	90.015017
_cell_angle_gamma	60.000171
loop_
_atom_site_label
_atom_site_type_symbol
_atom_site_fract_x
_atom_site_fract_y
_atom_site_fract_z
Zr1	Zr	0.894913	0.630974	-0.075598
O2	O	0.746552	0.751245	-0.167649
O3	O	0.940390	0.510707	-0.047383
O4	O	0.940349	0.630974	-0.167648
O5	O	0.746630	0.630976	0.047487
O6	O	1.093223	0.630970	-0.167643
O7	O	0.746593	0.630978	-0.047384
O8	O	1.093296	0.415834	0.047490
O9	O	0.746557	0.846112	-0.167645
O10	O	1.073878	0.560170	-0.035341
O11	O	0.959817	0.560172	0.035456
O12	O	0.959768	0.701771	-0.106140
O13	O	0.845708	0.701773	-0.035343
Zr14	Zr	1.138788	0.630965	0.075719
Zr15	Zr	1.138730	0.630967	-0.075590
Zr16	Zr	0.894971	0.630972	0.075711
Zr17	Zr	0.894920	0.782276	-0.075591
Zr18	Zr	1.138781	0.479662	0.075713
O19	O	1.093311	0.751232	0.047504
O20	O	1.093228	0.751235	-0.167638
O21	O	0.746635	0.751241	0.047493
O22	O	1.287148	0.510694	0.167771
O23	O	1.287065	0.510697	-0.047371
O24	O	0.940473	0.510704	0.167759
O25	O	1.287071	0.630962	-0.047366
O26	O	1.093352	0.630965	0.167769
O27	O	0.940478	0.630969	0.167764
O28	O	1.287107	0.630961	0.047505
O29	O	0.940358	0.846107	-0.167639
O30	O	1.093343	0.415832	0.167760
O31	O	1.287144	0.415827	0.167766
O32	O	1.287098	0.415828	0.047496
O33	O	0.746603	0.846110	-0.047375
O34	O	0.940405	0.846105	-0.047368
O35	O	1.073932	0.560168	0.106262
O36	O	1.187993	0.560166	0.035464
O37	O	1.073884	0.701767	-0.035335
O38	O	0.959823	0.701769	0.035463
C39	C	1.016842	0.441713	0.000053
C40	C	1.016839	0.377481	0.000050
C41	C	1.076370	0.347310	-0.036908
C42	C	1.076381	0.286949	-0.036903
C43	C	1.016839	0.256773	0.000052
C44	C	0.957306	0.286948	0.037018
C45	C	0.957306	0.347303	0.037017
C46	C	0.917084	0.194747	-0.005226
C47	C	0.917081	0.134397	-0.005230
C48	C	1.016840	0.070618	0.000059
C49	C	1.116602	0.067204	0.005338
C50	C	1.116602	0.127558	0.005337
C51	C	1.016833	0.191329	0.000057
C52	C	1.076388	-0.025004	-0.036895
C53	C	1.076403	-0.085370	-0.036884
C54	C	0.957316	-0.085363	0.037032
C55	C	0.957313	-0.025005	0.037026
C56	C	1.016847	0.005174	0.000058
C57	C	0.711873	0.630978	0.000051
C58	C	0.608367	0.630981	0.000047
C59	C	0.485560	0.708188	-0.038550
C60	C	0.454712	0.669593	-0.066525
C61	C	0.454791	0.669573	0.028018
C62	C	0.578882	0.592385	-0.027967
C63	C	0.578958	0.592376	0.066612
C64	C	0.548183	0.553725	0.038653
C65	C	1.321828	0.630961	0.000071
C66	C	1.425334	0.630958	0.000074
C67	C	1.016777	0.630972	-0.189204
C68	C	1.016753	0.630973	-0.253438
C69	C	1.016859	0.820226	0.000069
C70	C	1.016862	0.884457	0.000072
C71	C	0.957194	0.704885	-0.320568
C72	C	0.957223	0.704886	-0.380923
C73	C	1.016795	0.630971	-0.374145
C74	C	1.076366	0.557049	-0.307003
C75	C	1.076345	0.557050	-0.246650
C76	C	1.008333	0.574343	-0.441464
C77	C	1.008346	0.574346	-0.501818
C78	C	1.016867	0.630965	-0.560292
C79	C	1.025352	0.687596	-0.558412
C80	C	1.025331	0.687597	-0.498059
C81	C	1.016825	0.630962	-0.439583
C82	C	0.957337	0.704883	-0.692868
C83	C	0.957374	0.704881	-0.753223
C84	C	1.076510	0.557042	-0.679301
C85	C	1.076480	0.557046	-0.618948
C86	C	1.016888	0.630969	-0.625737
C87	C	1.016923	0.630966	0.189325
C88	C	1.016948	0.630965	0.253560
C89	C	1.321819	0.441704	0.000063
C90	C	1.425323	0.377470	0.000063
C91	C	1.016915	0.441710	0.189317
C92	C	1.016937	0.377477	0.253549
C93	C	1.321892	0.441702	0.189327
C94	C	1.425421	0.377466	0.253562
C95	C	0.711809	0.820237	-0.189206
C96	C	0.608280	0.884473	-0.253441
C97	C	0.711881	0.820234	0.000059
C98	C	0.608378	0.884469	0.000058
C99	C	1.016786	0.820228	-0.189196
C100	C	1.016764	0.884461	-0.253427
C101	C	1.414362	0.347307	-0.036902
C102	C	1.511606	0.286960	-0.036916
C103	C	1.619809	0.256773	0.000041
C104	C	1.630767	0.286942	0.037008
C105	C	1.533525	0.347292	0.037016
C106	C	1.076514	0.347311	0.320679
C107	C	1.076531	0.286966	0.381037
C108	C	1.016975	0.256784	0.374264
C109	C	0.957391	0.286957	0.307127
C110	C	0.957368	0.347305	0.246770
C111	C	1.533588	0.347299	0.246772
C112	C	1.630873	0.286951	0.307122
C113	C	1.619989	0.256767	0.374262
C114	C	1.511811	0.286940	0.381050
C115	C	1.414528	0.347291	0.320701
C116	C	0.500113	0.914647	-0.246651
C117	C	0.402828	0.975014	-0.307001
C118	C	0.413712	1.005201	-0.374140
C119	C	0.521890	0.975024	-0.380929
C120	C	0.619173	0.914663	-0.320580
C121	C	0.619338	0.914638	0.037017
C122	C	0.522095	0.975002	0.037014
C123	C	0.413892	1.005191	0.000055
C124	C	0.402934	0.975019	-0.036908
C125	C	0.500176	0.914661	-0.036909
C126	C	1.076331	0.914624	-0.246632
C127	C	1.076332	0.974969	-0.306979
C128	C	1.016760	1.005155	-0.374121
C129	C	0.957191	0.974987	-0.380915
C130	C	0.957197	0.914639	-0.320569
H131	H	1.197839	0.015267	0.009653
C132	C	0.488111	0.881469	-0.077557
H133	H	0.561516	0.841200	-0.072271
H134	H	0.447699	0.857935	-0.059303
H135	H	0.447684	0.924801	-0.126182
C136	C	1.016756	1.071539	-0.440497
H137	H	0.972753	1.085197	-0.481461
H138	H	0.984882	1.118623	-0.440493
H139	H	1.092641	1.051741	-0.440490
C140	C	0.891821	-0.118549	0.077681
H141	H	0.900342	-0.158813	0.072386
H142	H	0.921245	-0.142091	0.126303
H143	H	0.813460	-0.075217	0.059423
H144	H	0.491229	0.890072	-0.191988
C145	C	1.141849	1.008152	-0.299496
H146	H	1.133331	1.048411	-0.345049
H147	H	1.112438	1.031698	-0.274421
H148	H	1.220208	0.964814	-0.274410
C149	C	0.999009	0.512059	-0.503887
H150	H	1.000227	0.520173	-0.548208
H151	H	1.061283	0.458399	-0.467162
H152	H	0.929739	0.519189	-0.497578
C153	C	0.891842	0.380478	0.172930
H154	H	0.900346	0.420745	0.137947
H155	H	0.921254	0.337140	0.167648
H156	H	0.813487	0.404026	0.167636
H157	H	0.908689	0.999574	-0.435590
C158	C	1.141860	0.253758	-0.077563
H159	H	1.177309	0.280379	-0.099583
H160	H	1.198227	0.196777	-0.045667
H161	H	1.090426	0.263659	-0.112537
H162	H	0.707245	0.890095	-0.326117
H163	H	1.326267	0.371884	-0.067006
H164	H	1.032242	0.733707	-0.496531
H165	H	0.908686	0.890087	-0.326112
C166	C	1.141865	0.380496	-0.077564
H167	H	1.177329	0.353874	-0.099569
H168	H	1.090453	0.437477	-0.112537
H169	H	1.198241	0.370596	-0.045658
H170	H	1.542465	0.371843	0.067122
C171	C	1.499847	0.253734	0.454904
H172	H	1.421494	0.280345	0.450312
H173	H	1.535331	0.196753	0.479980
H174	H	1.535323	0.263633	0.479980
H175	H	0.401174	0.702224	-0.122807
H176	H	1.124887	-0.109940	-0.066977
C177	C	0.534164	1.008183	0.077675
H178	H	0.460758	1.048463	0.072378
H179	H	0.574586	0.964853	0.126297
H180	H	0.574580	1.031718	0.059421
C181	C	1.545583	0.380493	0.172927
H182	H	1.623942	0.353883	0.177536
H183	H	1.510118	0.370601	0.147842
H184	H	1.510109	0.437477	0.147849
C185	C	0.306936	1.071581	0.000064
H186	H	0.328971	1.085216	0.027376
H187	H	0.262917	1.118676	-0.047019
H188	H	0.262946	1.051799	0.019857
H189	H	1.017003	0.207645	0.423416
C190	C	1.749854	0.253764	0.299642
H191	H	1.742394	0.280376	0.251012
H192	H	1.790288	0.263657	0.321640
H193	H	1.790274	0.196780	0.321650
C194	C	0.306695	1.071586	-0.440518
H195	H	0.240719	1.085221	-0.426852
H196	H	0.306659	1.118682	-0.467829
H197	H	0.306673	1.051795	-0.467818
H198	H	1.326457	0.371845	0.326240
C199	C	0.891809	0.380499	0.077667
H200	H	0.856343	0.353887	0.099675
H201	H	0.943220	0.370613	0.112638
H202	H	0.835435	0.437481	0.045758
C203	C	1.142023	0.380505	0.328139
H204	H	1.133493	0.420764	0.282582
H205	H	1.112617	0.404053	0.353213
H206	H	1.220385	0.337172	0.353221
H207	H	0.530739	0.999610	-0.435601
H208	H	1.698980	0.207631	0.000028
C209	C	1.141892	0.008181	-0.077543
H210	H	1.177366	-0.018446	-0.099544
H211	H	1.090484	0.065161	-0.112520
H212	H	1.198260	-0.001717	-0.045634
H213	H	0.908832	-0.000436	0.067118
C214	C	0.651292	0.548340	0.142622
H215	H	0.607968	0.575858	0.162424
H216	H	0.673174	0.493771	0.170251
H217	H	0.717354	0.548245	0.142082
C218	C	0.807353	0.138153	-0.011036
H219	H	0.821635	0.093080	-0.010287
H220	H	0.783172	0.136230	0.027606
H221	H	0.749557	0.187465	-0.054022
C222	C	0.650938	0.548342	-0.060002
H223	H	0.716687	0.548644	-0.059839
H224	H	0.673347	0.493641	-0.032788
H225	H	0.607233	0.575585	-0.107153
H226	H	0.908721	0.765076	-0.435590
H227	H	0.573850	0.488386	0.071297
H228	H	1.197832	0.124773	0.009637
C229	C	0.807341	0.264902	-0.011047
H230	H	0.747925	0.258299	-0.014202
H231	H	0.819989	0.264234	0.029543
H232	H	0.786396	0.315456	-0.052084
H233	H	1.699212	0.207625	0.423396
C234	C	0.891807	0.253760	0.077664
H235	H	0.900323	0.213500	0.072366
H236	H	0.921232	0.230215	0.126287
H237	H	0.813447	0.297094	0.059407
C238	C	0.283847	1.008190	-0.299521
H239	H	0.291307	0.981553	-0.250891
H240	H	0.243419	1.065168	-0.321515
H241	H	0.243420	0.998299	-0.321532
H242	H	0.460107	0.773474	-0.071239
H243	H	0.908675	0.765079	-0.326101
C244	C	0.382552	0.713663	0.059972
H245	H	0.359543	0.768515	0.032484
H246	H	0.317175	0.712913	0.060159
H247	H	0.426390	0.686769	0.106985
H248	H	1.032285	0.733704	-0.606025
H249	H	0.908814	0.765076	-0.698396
H250	H	0.908902	0.262374	0.301623
C251	C	0.283908	1.008227	-0.077554
H252	H	0.227572	1.048487	-0.072248
H253	H	0.275336	1.031776	-0.126178
H254	H	0.275375	0.964899	-0.059295
H255	H	1.125056	0.262406	0.435697
C256	C	1.141870	0.881427	-0.172784
H257	H	1.177351	0.908034	-0.177390
H258	H	1.090483	0.891321	-0.147701
H259	H	1.198235	0.824442	-0.147706
C260	C	0.738349	0.881440	0.077676
H261	H	0.730933	0.908066	0.099679
H262	H	0.778774	0.824461	0.112652
H263	H	0.778753	0.891333	0.045774
H264	H	1.124871	0.496867	-0.301488
C265	C	1.142046	0.475734	-0.671834
H266	H	1.177519	0.431714	-0.623207
H267	H	1.090658	0.472658	-0.693859
H268	H	1.198417	0.472663	-0.693823
H269	H	0.908879	0.765072	-0.807885
C270	C	1.141980	0.475742	-0.545104
H271	H	1.177456	0.431720	-0.549709
H272	H	1.198327	0.472665	-0.520004
H273	H	1.090557	0.472675	-0.520044
H274	H	1.001386	0.528237	-0.393856
H275	H	1.502661	0.262403	-0.067018
C276	C	1.141829	0.475746	-0.172803
H277	H	1.133280	0.486333	-0.137831
H278	H	1.112414	0.445387	-0.167537
H279	H	1.220198	0.445362	-0.167478
H280	H	1.718879	0.262355	0.067096
