data_functionalizedCrystal
_audit_creation_method	'MofGen! by Chris Wilmer'
_symmetry_space_group_name_H-M	'P1'
_symmetry_Int_Tables_number	1
_symmetry_cell_setting	triclinic
loop_
_symmetry_equiv_pos_as_xyz
  x,y,z
_cell_length_a	11.792241
_cell_length_b	14.472310
_cell_length_c	11.792241
_cell_angle_alpha	90.001158
_cell_angle_beta	84.193416
_cell_angle_gamma	90.008847
loop_
_atom_site_label
_atom_site_type_symbol
_atom_site_fract_x
_atom_site_fract_y
_atom_site_fract_z
O1	O	1.506924	0.076752	0.155560
O2	O	1.176583	0.076773	0.171593
O3	O	1.349770	0.076755	-0.001594
O4	O	1.333737	0.076769	0.328747
O5	O	1.349725	-0.076927	-0.001584
O6	O	1.176538	-0.076909	0.171603
O7	O	1.506879	-0.076930	0.155570
Cu8	Cu	1.341704	-0.090952	0.163587
Cu9	Cu	1.341757	0.090795	0.163576
O10	O	1.333692	-0.076913	0.328757
C11	C	1.134269	-0.000065	0.170591
C12	C	1.008255	-0.000057	0.167576
N13	N	1.341675	-0.218783	0.163595
C14	C	0.777543	-0.000084	0.162034
C15	C	0.905928	-0.000069	0.165113
C16	C	1.341756	-0.592874	0.163571
C17	C	1.248772	-0.553699	0.255925
C18	C	1.248990	-0.446611	0.256266
C19	C	1.341715	-0.407283	0.163583
C20	C	1.460302	-0.446127	0.190178
C21	C	1.459780	-0.553248	0.190836
C22	C	1.317207	-0.553407	0.044353
C23	C	1.314496	-0.446279	0.045130
C24	C	1.341699	-0.302395	0.163587
C25	C	1.341779	-0.697762	0.163569
C26	C	1.549192	-0.000090	0.156572
C27	C	1.675206	-0.000092	0.159587
C28	C	1.348740	-0.000085	-0.043880
C29	C	1.345726	-0.000084	-0.169894
N30	N	1.341795	0.218626	0.163559
C31	C	1.340183	-0.000068	-0.400606
C32	C	1.343262	-0.000077	-0.272221
C33	C	1.334721	-0.000070	0.371043
C34	C	1.337736	-0.000065	0.497057
H35	H	1.160865	-0.420350	0.240313
C36	C	1.129318	-0.588449	0.234654
C37	C	1.114736	-0.652833	0.133174
C38	C	0.995271	-0.687550	0.111865
C39	C	0.890387	-0.657883	0.192036
C40	C	0.904965	-0.593496	0.293524
C41	C	1.024431	-0.558779	0.314833
H42	H	1.192380	-0.674798	0.073820
H43	H	0.984480	-0.735214	0.036737
H44	H	0.801952	-0.683583	0.176262
H45	H	0.827321	-0.571531	0.352878
H46	H	1.035222	-0.511114	0.389961
H47	H	1.264311	-0.580606	0.343881
H48	H	1.531178	-0.420650	0.124732
C49	C	1.399975	-0.410133	-0.052146
C50	C	1.389023	-0.439845	-0.175960
C51	C	1.474518	-0.403705	-0.273233
C52	C	1.570965	-0.337854	-0.246692
C53	C	1.581921	-0.308139	-0.122873
C54	C	1.496426	-0.344279	-0.025601
H55	H	1.317623	-0.488595	-0.195611
H56	H	1.466407	-0.425703	-0.364891
H57	H	1.634253	-0.311101	-0.318699
H58	H	1.653321	-0.259388	-0.103222
H59	H	1.504537	-0.322281	0.066058
H60	H	1.232571	-0.580470	0.018960
H61	H	1.385007	-0.578740	-0.024383
H62	H	1.264742	-0.420974	0.344720
C63	C	1.488844	-0.586994	0.308323
C64	C	1.512367	-0.516472	0.400894
C65	C	1.541428	-0.550212	0.518386
C66	C	1.546966	-0.654474	0.543306
C67	C	1.523443	-0.725003	0.450732
C68	C	1.494382	-0.691263	0.333241
H69	H	1.508268	-0.439285	0.382449
H70	H	1.558842	-0.498001	0.586915
H71	H	1.568479	-0.679451	0.630280
H72	H	1.527542	-0.802190	0.469177
H73	H	1.476968	-0.743474	0.264711
H74	H	1.531172	-0.579161	0.126260
H75	H	1.227258	-0.420892	0.024964
H76	H	1.482319	-0.419287	0.276159
