data_functionalizedCrystal
_audit_creation_method	'MofGen! by Chris Wilmer'
_symmetry_space_group_name_H-M	'P1'
_symmetry_Int_Tables_number	1
_symmetry_cell_setting	triclinic
loop_
_symmetry_equiv_pos_as_xyz
  x,y,z
_cell_length_a	16.959455
_cell_length_b	19.077068
_cell_length_c	19.076919
_cell_angle_alpha	94.470751
_cell_angle_beta	92.282212
_cell_angle_gamma	92.323952
loop_
_atom_site_label
_atom_site_type_symbol
_atom_site_fract_x
_atom_site_fract_y
_atom_site_fract_z
Zn1	Zn	1.176473	-0.296738	-0.409832
Zn2	Zn	1.509806	0.036595	-0.076499
Zn3	Zn	1.843139	0.369929	0.256835
Zn4	Zn	1.176375	-0.409891	-0.296677
Zn5	Zn	1.509708	-0.076558	0.036657
Zn6	Zn	1.843042	0.256775	0.369990
Zn7	Zn	1.049829	-0.292016	-0.291964
Zn8	Zn	1.383163	0.041317	0.041369
Zn9	Zn	1.716496	0.374650	0.374703
Zn10	Zn	1.038720	-0.414582	-0.414522
Zn11	Zn	1.372053	-0.081248	-0.081189
Zn12	Zn	1.705387	0.252085	0.252144
O13	O	1.110349	-0.353307	-0.353249
O14	O	1.443683	-0.019973	-0.019915
O15	O	1.777016	0.313360	0.313418
O16	O	1.287070	-0.311761	-0.394831
O17	O	1.620403	0.021572	-0.061498
O18	O	1.953736	0.354905	0.271835
O19	O	1.164197	-0.390316	-0.197404
O20	O	1.497530	-0.056983	0.135929
O21	O	1.830864	0.276351	0.469262
O22	O	1.071319	-0.193994	-0.303664
O23	O	1.404652	0.139340	0.029669
O24	O	1.737986	0.472673	0.363002
O25	O	1.286998	-0.394894	-0.311696
O26	O	1.620331	-0.061561	0.021637
O27	O	1.953664	0.271772	0.354970
O28	O	1.164363	-0.197463	-0.390261
O29	O	1.497697	0.135871	-0.056928
O30	O	1.831030	0.469204	0.276405
O31	O	1.071224	-0.303714	-0.193942
O32	O	1.404558	0.029620	0.139391
O33	O	1.737891	0.362953	0.472725
O34	O	0.937746	-0.308262	-0.308212
O35	O	1.271079	0.025072	0.025121
O36	O	1.604412	0.358405	0.358455
O37	O	1.052385	-0.402888	-0.512547
O38	O	1.385718	-0.069555	-0.179214
O39	O	1.719051	0.263778	0.154119
O40	O	0.929584	-0.398310	-0.398255
O41	O	1.262917	-0.064977	-0.064922
O42	O	1.596250	0.268357	0.268411
O43	O	1.153591	-0.316309	-0.509101
O44	O	1.486924	0.017024	-0.175768
O45	O	1.820258	0.350358	0.157565
O46	O	1.153424	-0.509163	-0.316244
O47	O	1.486758	-0.175829	0.017089
O48	O	1.820091	0.157504	0.350422
O49	O	1.052290	-0.512608	-0.402825
O50	O	1.385623	-0.179275	-0.069492
O51	O	1.718957	0.154058	0.263842
C52	C	1.101662	-0.536465	-0.360570
C53	C	1.434995	-0.203131	-0.027237
C54	C	1.768328	0.130202	0.306096
C55	C	1.098016	-0.614821	-0.363726
C56	C	1.431350	-0.281488	-0.030393
C57	C	1.764683	0.051845	0.302940
C58	C	0.904985	-0.353283	-0.353232
C59	C	1.238318	-0.019950	-0.019898
C60	C	1.571651	0.313384	0.313435
C61	C	0.817127	-0.353290	-0.353242
C62	C	1.150461	-0.019957	-0.019908
C63	C	1.483794	0.313376	0.313425
C64	C	1.148997	-0.649818	-0.320168
C65	C	1.482330	-0.316484	0.013165
C66	C	1.815663	0.016849	0.346498
C67	C	1.145573	-0.723442	-0.323141
C68	C	1.478906	-0.390109	0.010193
C69	C	1.812239	-0.056776	0.343526
C70	C	1.091164	-0.762069	-0.369668
C71	C	1.424497	-0.428736	-0.036335
C72	C	1.757830	-0.095403	0.296999
C73	C	1.040181	-0.727068	-0.413231
C74	C	1.373515	-0.393735	-0.079897
C75	C	1.706848	-0.060402	0.253436
C76	C	1.043610	-0.653445	-0.410261
C77	C	1.376943	-0.320112	-0.076928
C78	C	1.710276	0.013222	0.256405
C79	C	1.075263	-0.982454	-0.383382
C80	C	1.408596	-0.649121	-0.050048
C81	C	1.741930	-0.315788	0.283285
C82	C	1.071837	-1.056083	-0.386346
C83	C	1.405170	-0.722749	-0.053013
C84	C	1.738503	-0.389416	0.280321
C85	C	1.177229	-1.052452	-0.296257
C86	C	1.510563	-0.719118	0.037077
C87	C	1.843896	-0.385785	0.370410
C88	C	1.180650	-0.978827	-0.293289
C89	C	1.513983	-0.645494	0.040045
C90	C	1.847316	-0.312160	0.373378
C91	C	1.129670	-0.943832	-0.336854
C92	C	1.463004	-0.610499	-0.003521
C93	C	1.796337	-0.277166	0.329813
N94	N	1.087661	-0.837326	-0.372706
N95	N	1.420994	-0.503992	-0.039372
N96	N	1.754327	-0.170659	0.293961
N97	N	1.133178	-0.868578	-0.333819
N98	N	1.466511	-0.535244	-0.000486
N99	N	1.799844	-0.201911	0.332847
C100	C	0.449874	-0.306386	-0.306456
C101	C	0.783207	0.026948	0.026877
C102	C	1.116540	0.360281	0.360211
C103	C	0.441423	-0.400288	-0.400084
C104	C	0.774757	-0.066954	-0.066751
C105	C	1.108090	0.266379	0.266582
C106	C	0.523970	-0.400277	-0.400080
C107	C	0.857303	-0.066944	-0.066746
C108	C	1.190636	0.266389	0.266587
C109	C	0.569472	-0.353321	-0.353262
C110	C	0.902806	-0.019988	-0.019928
C111	C	1.236139	0.313345	0.313405
C112	C	0.532428	-0.306375	-0.306448
C113	C	0.865761	0.026958	0.026885
C114	C	1.199095	0.360291	0.360218
C115	C	0.561020	-0.447227	-0.446887
C116	C	0.894354	-0.113894	-0.113554
C117	C	1.227687	0.219439	0.219780
C118	C	0.643572	-0.447219	-0.446884
C119	C	0.976905	-0.113886	-0.113550
C120	C	1.310238	0.219447	0.219783
C121	C	0.689076	-0.400259	-0.400069
C122	C	1.022409	-0.066926	-0.066735
C123	C	1.355742	0.266407	0.266598
C124	C	0.652027	-0.353311	-0.353254
C125	C	0.985360	-0.019978	-0.019921
C126	C	1.318693	0.313356	0.313413
C127	C	0.697529	-0.306355	-0.306436
C128	C	1.030862	0.026979	0.026897
C129	C	1.364196	0.360312	0.360231
C130	C	0.660481	-0.259402	-0.259624
C131	C	0.993815	0.073931	0.073709
C132	C	1.327148	0.407264	0.407042
C133	C	0.577932	-0.259415	-0.259633
C134	C	0.911265	0.073918	0.073700
C135	C	1.244599	0.407252	0.407033
C136	C	0.771625	-0.400247	-0.400060
C137	C	1.104958	-0.066913	-0.066726
C138	C	1.438292	0.266420	0.266607
C139	C	0.780083	-0.306344	-0.306429
C140	C	1.113417	0.026989	0.026905
C141	C	1.446750	0.360322	0.360238
C142	C	1.316516	-0.353331	-0.353266
C143	C	1.649849	-0.019998	-0.019933
C144	C	1.983182	0.313335	0.313400
C145	C	1.404371	-0.353342	-0.353274
C146	C	1.737705	-0.020008	-0.019941
C147	C	2.071038	0.313325	0.313393
C148	C	1.101760	-0.360649	-0.537118
C149	C	1.435093	-0.027315	-0.203784
C150	C	1.768426	0.306018	0.129549
C151	C	1.098099	-0.363777	-0.615472
C152	C	1.431432	-0.030444	-0.282138
C153	C	1.764766	0.302889	0.051195
C154	C	1.119091	-0.169434	-0.345914
C155	C	1.452425	0.163899	-0.012581
C156	C	1.785758	0.497232	0.320753
C157	C	1.122817	-0.091079	-0.342788
C158	C	1.456150	0.242255	-0.009455
C159	C	1.789484	0.575588	0.323878
C160	C	1.149070	-0.320172	-0.650490
C161	C	1.482403	0.013161	-0.317156
C162	C	1.815736	0.346495	0.016177
C163	C	1.145621	-0.323109	-0.724111
C164	C	1.478954	0.010224	-0.390778
C165	C	1.812287	0.343558	-0.057445
C166	C	1.091205	-0.369655	-0.762714
C167	C	1.424538	-0.036322	-0.429381
C168	C	1.757871	0.297011	-0.096047
C169	C	1.040229	-0.413262	-0.727691
C170	C	1.373562	-0.079929	-0.394358
C171	C	1.706896	0.253404	-0.061024
C172	C	1.043674	-0.410321	-0.654070
C173	C	1.377008	-0.076988	-0.320737
C174	C	1.710341	0.256345	0.012596
C175	C	1.075246	-0.383281	-0.983088
C176	C	1.408579	-0.049948	-0.649755
C177	C	1.741913	0.283385	-0.316421
C178	C	1.071806	-0.386221	-1.056714
C179	C	1.405139	-0.052887	-0.723380
C180	C	1.738472	0.280446	-0.390047
C181	C	1.177197	-0.296066	-1.053129
C182	C	1.510530	0.037267	-0.719796
C183	C	1.843864	0.370601	-0.386462
C184	C	1.180641	-0.293132	-0.979507
C185	C	1.513974	0.040201	-0.646174
C186	C	1.847308	0.373534	-0.312841
C187	C	1.129663	-0.336737	-0.944491
C188	C	1.462996	-0.003403	-0.611157
C189	C	1.796329	0.329930	-0.277824
N190	N	1.087680	-0.372660	-0.837967
N191	N	1.421013	-0.039327	-0.504634
N192	N	1.754347	0.294007	-0.171301
N193	N	1.133184	-0.333728	-0.869238
N194	N	1.466517	-0.000394	-0.535905
N195	N	1.799851	0.332939	-0.202572
C196	C	1.118953	-0.345943	-0.170093
C197	C	1.452287	-0.012609	0.163240
C198	C	1.785620	0.320724	0.496573
C199	C	1.122776	-0.342615	-0.091732
C200	C	1.456110	-0.009282	0.241602
C201	C	1.789443	0.324051	0.574935
H202	H	1.193299	-0.618372	-0.282278
H203	H	1.526632	-0.285039	0.051055
H204	H	1.859965	0.048295	0.384389
H205	H	0.404370	-0.438521	-0.438197
H206	H	0.737704	-0.105188	-0.104864
H207	H	1.071037	0.228145	0.228469
Br208	Br	0.997948	-0.449392	-1.109103
Br209	Br	1.331281	-0.116059	-0.775770
Br210	Br	1.664615	0.217274	-0.442436
H211	H	1.218735	-1.080952	-0.260790
H212	H	1.552068	-0.747619	0.072544
H213	H	1.885402	-0.414286	0.405877
H214	H	1.218700	-0.260565	-1.081648
H215	H	1.552033	0.072768	-0.748314
H216	H	1.885367	0.406102	-0.414981
Br217	Br	0.966346	-0.779490	-0.476382
Br218	Br	1.299680	-0.446157	-0.143048
Br219	Br	1.633013	-0.112823	0.190285
Br220	Br	1.214768	-0.770935	-0.264028
Br221	Br	1.548101	-0.437601	0.069305
Br222	Br	1.881435	-0.104268	0.402639
Br223	Br	0.499265	-0.510975	-0.510396
Br224	Br	0.832598	-0.177642	-0.177063
Br225	Br	1.165932	0.155692	0.156270
Br226	Br	0.966373	-0.476429	-0.780079
Br227	Br	1.299706	-0.143096	-0.446746
Br228	Br	1.633040	0.190238	-0.113412
Br229	Br	1.222929	-0.257004	-0.598107
Br230	Br	1.556263	0.076329	-0.264774
Br231	Br	1.889596	0.409662	0.068559
Br232	Br	1.214833	-0.263960	-0.771635
Br233	Br	1.548167	0.069373	-0.438301
Br234	Br	1.881500	0.402706	-0.104968
Br235	Br	0.974424	-0.605949	-0.469383
Br236	Br	1.307758	-0.272616	-0.136049
Br237	Br	1.641091	0.060717	0.197284
Br238	Br	0.693844	-0.510938	-0.510413
Br239	Br	1.027177	-0.177605	-0.177079
Br240	Br	1.360510	0.155729	0.156254
H241	H	0.817126	-0.268102	-0.268307
H242	H	1.150459	0.065231	0.065026
H243	H	1.483793	0.398564	0.398359
Br244	Br	0.997978	-1.108505	-0.449482
Br245	Br	1.331312	-0.775171	-0.116149
Br246	Br	1.664645	-0.441838	0.217184
H247	H	1.224954	-0.947378	-0.255403
H248	H	1.558287	-0.614045	0.077931
H249	H	1.891620	-0.280711	0.411264
Br250	Br	1.006059	-0.442458	-0.935574
Br251	Br	1.339392	-0.109125	-0.602241
Br252	Br	1.672726	0.224209	-0.268908
Br253	Br	0.399599	-0.242662	-0.242934
Br254	Br	0.732932	0.090671	0.090399
Br255	Br	1.066265	0.424005	0.423733
H256	H	0.801786	-0.438476	-0.438171
H257	H	1.135119	-0.105143	-0.104838
H258	H	1.468452	0.228190	0.228496
Br259	Br	0.722244	-0.195685	-0.196082
Br260	Br	1.055577	0.137649	0.137251
Br261	Br	1.388911	0.470982	0.470585
Br262	Br	1.254497	-0.229962	-0.927123
Br263	Br	1.587830	0.103371	-0.593790
Br264	Br	1.921163	0.436704	-0.260456
H265	H	1.033752	-0.953968	-0.418853
H266	H	1.367085	-0.620634	-0.085520
H267	H	1.700418	-0.287301	0.247814
Br268	Br	0.974493	-0.469498	-0.606545
Br269	Br	1.307826	-0.136165	-0.273211
Br270	Br	1.641160	0.197169	0.060122
H271	H	0.547760	-0.221190	-0.221521
H272	H	0.881094	0.112143	0.111812
H273	H	1.214427	0.445477	0.445146
