data_functionalizedCrystal
_audit_creation_method	'MofGen! by Chris Wilmer'
_symmetry_space_group_name_H-M	'P1'
_symmetry_Int_Tables_number	1
_symmetry_cell_setting	triclinic
loop_
_symmetry_equiv_pos_as_xyz
  x,y,z
_cell_length_a	21.295420
_cell_length_b	21.295417
_cell_length_c	21.295411
_cell_angle_alpha	90.021644
_cell_angle_beta	90.024592
_cell_angle_gamma	90.026289
loop_
_atom_site_label
_atom_site_type_symbol
_atom_site_fract_x
_atom_site_fract_y
_atom_site_fract_z
Zn1	Zn	0.962355	-0.250752	0.355912
Zn2	Zn	1.212355	-0.000752	0.605912
Zn3	Zn	1.462355	0.249248	0.855912
Zn4	Zn	1.712355	0.499248	1.105912
Zn5	Zn	0.962258	-0.356004	0.250637
Zn6	Zn	1.212258	-0.106004	0.500637
Zn7	Zn	1.462258	0.143996	0.750637
Zn8	Zn	1.712258	0.393996	1.000637
Zn9	Zn	0.857079	-0.250744	0.250657
Zn10	Zn	1.107079	-0.000744	0.500657
Zn11	Zn	1.357079	0.249256	0.750657
Zn12	Zn	1.607079	0.499256	1.000657
Zn13	Zn	0.857048	-0.355979	0.355869
Zn14	Zn	1.107048	-0.105979	0.605869
Zn15	Zn	1.357048	0.144021	0.855869
Zn16	Zn	1.607048	0.394021	1.105869
O17	O	0.909685	-0.303370	0.303269
O18	O	1.159685	-0.053370	0.553269
O19	O	1.409685	0.196630	0.803269
O20	O	1.659685	0.446630	1.053269
O21	O	1.050432	-0.264727	0.341957
O22	O	1.300432	-0.014727	0.591957
O23	O	1.550432	0.235273	0.841957
O24	O	1.800432	0.485273	1.091957
O25	O	0.948277	-0.342048	0.162550
O26	O	1.198277	-0.092048	0.412550
O27	O	1.448277	0.157952	0.662550
O28	O	1.698277	0.407952	0.912550
O29	O	0.871097	-0.162656	0.264645
O30	O	1.121097	0.087344	0.514645
O31	O	1.371097	0.337344	0.764645
O32	O	1.621097	0.587344	1.014645
O33	O	1.050360	-0.342055	0.264612
O34	O	1.300360	-0.092055	0.514612
O35	O	1.550360	0.157945	0.764612
O36	O	1.800360	0.407945	1.014612
O37	O	0.948444	-0.162661	0.341976
O38	O	1.198444	0.087339	0.591976
O39	O	1.448444	0.337339	0.841976
O40	O	1.698444	0.587339	1.091976
O41	O	0.871003	-0.264714	0.162565
O42	O	1.121003	-0.014714	0.412565
O43	O	1.371003	0.235286	0.662565
O44	O	1.621003	0.485286	0.912565
O45	O	0.768985	-0.264691	0.264604
O46	O	1.018985	-0.014691	0.514604
O47	O	1.268985	0.235309	0.764604
O48	O	1.518985	0.485309	1.014604
O49	O	0.871045	-0.342014	0.443964
O50	O	1.121045	-0.092014	0.693964
O51	O	1.371045	0.157986	0.943964
O52	O	1.621045	0.407986	1.193964
O53	O	0.768963	-0.342006	0.341903
O54	O	1.018963	-0.092006	0.591903
O55	O	1.268963	0.157994	0.841903
O56	O	1.518963	0.407994	1.091903
O57	O	0.948414	-0.264703	0.443996
O58	O	1.198414	-0.014703	0.693996
O59	O	1.448414	0.235297	0.943996
O60	O	1.698414	0.485297	1.193996
O61	O	0.948248	-0.444090	0.264570
O62	O	1.198248	-0.194090	0.514570
O63	O	1.448248	0.055910	0.764570
O64	O	1.698248	0.305910	1.014570
O65	O	0.870951	-0.444072	0.341884
O66	O	1.120951	-0.194072	0.591884
O67	O	1.370951	0.055928	0.841884
O68	O	1.620951	0.305928	1.091884
C69	C	0.746133	-0.303346	0.303251
C70	C	0.996133	-0.053346	0.553251
C71	C	1.246133	0.196654	0.803251
C72	C	1.496133	0.446654	1.053251
C73	C	0.676165	-0.303351	0.303258
C74	C	0.926165	-0.053351	0.553258
C75	C	1.176165	0.196649	0.803258
C76	C	1.426165	0.446649	1.053258
C77	C	0.176744	-0.263200	0.343617
C78	C	0.426744	-0.013200	0.593617
C79	C	0.676744	0.236800	0.843617
C80	C	0.926744	0.486800	1.093617
C81	C	0.242486	-0.263195	0.343617
C82	C	0.492486	-0.013195	0.593617
C83	C	0.742486	0.236805	0.843617
C84	C	0.992486	0.486805	1.093617
C85	C	0.275326	-0.303389	0.303283
C86	C	0.525326	-0.053389	0.553283
C87	C	0.775326	0.196611	0.803283
C88	C	1.025326	0.446611	1.053283
C89	C	0.242417	-0.343602	0.262958
C90	C	0.492417	-0.093602	0.512958
C91	C	0.742417	0.156398	0.762958
C92	C	0.992417	0.406398	1.012958
C93	C	0.176676	-0.343610	0.262964
C94	C	0.426676	-0.093610	0.512964
C95	C	0.676676	0.156390	0.762964
C96	C	0.926676	0.406390	1.012964
N97	N	0.378516	-0.308125	0.248164
N98	N	0.628516	-0.058125	0.498164
N99	N	0.878516	0.191875	0.748164
N100	N	1.128516	0.441875	0.998164
N101	N	0.440967	-0.308113	0.248160
N102	N	0.690967	-0.058113	0.498160
N103	N	0.940967	0.191887	0.748160
N104	N	1.190967	0.441887	0.998160
C105	C	0.473400	-0.303368	0.303265
C106	C	0.723400	-0.053368	0.553265
C107	C	0.973400	0.196632	0.803265
C108	C	1.223400	0.446632	1.053265
N109	N	0.441023	-0.298623	0.358375
N110	N	0.691023	-0.048623	0.608375
N111	N	0.941023	0.201377	0.858375
N112	N	1.191023	0.451377	1.108375
N113	N	0.378566	-0.298631	0.358377
N114	N	0.628566	-0.048631	0.608377
N115	N	0.878566	0.201369	0.858377
N116	N	1.128566	0.451369	1.108377
C117	C	0.346611	-0.303385	0.303273
C118	C	0.596611	-0.053385	0.553273
C119	C	0.846611	0.196615	0.803273
C120	C	1.096611	0.446615	1.053273
C121	C	0.577587	-0.263156	0.343591
C122	C	0.827587	-0.013156	0.593591
C123	C	1.077587	0.236844	0.843591
C124	C	1.327587	0.486844	1.093591
C125	C	0.643330	-0.263156	0.343592
C126	C	0.893330	-0.013156	0.593592
C127	C	1.143330	0.236844	0.843592
C128	C	1.393330	0.486844	1.093592
C129	C	0.643260	-0.343559	0.262927
C130	C	0.893260	-0.093559	0.512927
C131	C	1.143260	0.156441	0.762927
C132	C	1.393260	0.406441	1.012927
C133	C	0.577517	-0.343562	0.262932
C134	C	0.827517	-0.093562	0.512932
C135	C	1.077517	0.156438	0.762932
C136	C	1.327517	0.406438	1.012932
C137	C	0.544685	-0.303358	0.303263
C138	C	0.794685	-0.053358	0.553263
C139	C	1.044685	0.196642	0.803263
C140	C	1.294685	0.446642	1.053263
C141	C	0.909602	-0.466921	0.303234
C142	C	1.159602	-0.216921	0.553234
C143	C	1.409602	0.033079	0.803234
C144	C	1.659602	0.283079	1.053234
C145	C	0.909625	-0.536890	0.303240
C146	C	1.159625	-0.286890	0.553240
C147	C	1.409625	-0.036890	0.803240
C148	C	1.659625	0.213110	1.053240
C149	C	0.949909	-0.569745	0.263024
C150	C	1.199909	-0.319745	0.513024
C151	C	1.449909	-0.069745	0.763024
C152	C	1.699909	0.180255	1.013024
C153	C	0.949939	-0.635487	0.263038
C154	C	1.199939	-0.385487	0.513038
C155	C	1.449939	-0.135487	0.763038
C156	C	1.699939	0.114513	1.013038
C157	C	0.909672	-0.668372	0.303262
C158	C	1.159672	-0.418372	0.553262
C159	C	1.409672	-0.168372	0.803262
C160	C	1.659672	0.081628	1.053262
C161	C	0.869385	-0.635509	0.343485
C162	C	1.119385	-0.385509	0.593485
C163	C	1.369385	-0.135509	0.843485
C164	C	1.619385	0.114491	1.093485
C165	C	0.869361	-0.569768	0.343474
C166	C	1.119361	-0.319768	0.593474
C167	C	1.369361	-0.069768	0.843474
C168	C	1.619361	0.180232	1.093474
N169	N	0.854605	-0.771635	0.308055
N170	N	1.104605	-0.521635	0.558055
N171	N	1.354605	-0.271635	0.808055
N172	N	1.604605	-0.021635	1.058055
N173	N	0.854630	-0.834086	0.308061
N174	N	1.104630	-0.584086	0.558061
N175	N	1.354630	-0.334086	0.808061
N176	N	1.604630	-0.084086	1.058061
C177	C	0.909743	-0.866447	0.303298
C178	C	1.159743	-0.616447	0.553298
C179	C	1.409743	-0.366447	0.803298
C180	C	1.659743	-0.116447	1.053298
N181	N	0.964832	-0.833997	0.298515
N182	N	1.214832	-0.583997	0.548515
N183	N	1.464832	-0.333997	0.798515
N184	N	1.714832	-0.083997	1.048515
N185	N	0.964807	-0.771540	0.298505
N186	N	1.214807	-0.521540	0.548505
N187	N	1.464807	-0.271540	0.798505
N188	N	1.714807	-0.021540	1.048505
C189	C	0.909694	-0.739657	0.303278
C190	C	1.159694	-0.489657	0.553278
C191	C	1.409694	-0.239657	0.803278
C192	C	1.659694	0.010343	1.053278
C193	C	0.950063	-0.970587	0.263095
C194	C	1.200063	-0.720587	0.513095
C195	C	1.450063	-0.470587	0.763095
C196	C	1.700063	-0.220587	1.013095
C197	C	0.950093	-1.036331	0.263114
C198	C	1.200093	-0.786331	0.513114
C199	C	1.450093	-0.536331	0.763114
C200	C	1.700093	-0.286331	1.013114
C201	C	0.869534	-1.036352	0.343557
C202	C	1.119534	-0.786352	0.593557
C203	C	1.369534	-0.536352	0.843557
C204	C	1.619534	-0.286352	1.093557
C205	C	0.869509	-0.970609	0.343542
C206	C	1.119509	-0.720609	0.593542
C207	C	1.369509	-0.470609	0.843542
C208	C	1.619509	-0.220609	1.093542
C209	C	0.909773	-0.937731	0.303308
C210	C	1.159773	-0.687731	0.553308
C211	C	1.409773	-0.437731	0.803308
C212	C	1.659773	-0.187731	1.053308
C213	C	1.073875	-0.303394	0.303287
C214	C	1.323875	-0.053394	0.553287
C215	C	1.573875	0.196606	0.803287
C216	C	1.823875	0.446606	1.053287
C217	C	1.143843	-0.303405	0.303295
C218	C	1.393843	-0.053405	0.553295
C219	C	1.643843	0.196595	0.803295
C220	C	1.893843	0.446595	1.053295
C221	C	0.909737	-0.303357	0.467459
C222	C	1.159737	-0.053357	0.717459
C223	C	1.409737	0.196643	0.967459
C224	C	1.659737	0.446643	1.217459
C225	C	0.909759	-0.303351	0.537427
C226	C	1.159759	-0.053351	0.787427
C227	C	1.409759	0.196649	1.037427
C228	C	1.659759	0.446649	1.287427
C229	C	0.909785	-0.139180	0.303318
C230	C	1.159785	0.110820	0.553318
C231	C	1.409785	0.360820	0.803318
C232	C	1.659785	0.610820	1.053318
C233	C	0.909827	-0.069211	0.303338
C234	C	1.159827	0.180789	0.553338
C235	C	1.409827	0.430789	0.803338
C236	C	1.659827	0.680789	1.053338
C237	C	0.909669	-0.303338	0.139717
C238	C	1.159669	-0.053338	0.389717
C239	C	1.409669	0.196662	0.639717
C240	C	1.659669	0.446662	0.889717
C241	C	0.909769	-0.303166	0.069749
C242	C	1.159769	-0.053166	0.319749
C243	C	1.409769	0.196834	0.569749
C244	C	1.659769	0.446834	0.819749
C245	C	0.950044	-0.263094	0.570311
C246	C	1.200044	-0.013094	0.820311
C247	C	1.450044	0.236906	1.070311
C248	C	1.700044	0.486906	1.320311
C249	C	0.950043	-0.263066	0.636054
C250	C	1.200043	-0.013066	0.886054
C251	C	1.450043	0.236934	1.136054
C252	C	1.700043	0.486934	1.386054
C253	C	0.909764	-0.303308	0.668910
C254	C	1.159764	-0.053308	0.918910
C255	C	1.409764	0.196692	1.168910
C256	C	1.659764	0.446692	1.418910
C257	C	0.869472	-0.343568	0.636018
C258	C	1.119472	-0.093568	0.886018
C259	C	1.369472	0.156432	1.136018
C260	C	1.619472	0.406432	1.386018
C261	C	0.869470	-0.343589	0.570276
C262	C	1.119470	-0.093589	0.820276
C263	C	1.369470	0.156411	1.070276
C264	C	1.619470	0.406411	1.320276
N265	N	0.904908	-0.358375	0.772125
N266	N	1.154908	-0.108375	1.022125
N267	N	1.404908	0.141625	1.272125
N268	N	1.654908	0.391625	1.522125
N269	N	0.904914	-0.358353	0.834577
N270	N	1.154914	-0.108353	1.084577
N271	N	1.404914	0.141647	1.334577
N272	N	1.654914	0.391647	1.584577
C273	C	0.909768	-0.303244	0.866985
C274	C	1.159768	-0.053244	1.116985
C275	C	1.409768	0.196756	1.366985
C276	C	1.659768	0.446756	1.616985
N277	N	0.914629	-0.248157	0.834582
N278	N	1.164629	0.001843	1.084582
N279	N	1.414629	0.251843	1.334582
N280	N	1.664629	0.501843	1.584582
N281	N	0.914626	-0.248180	0.772125
N282	N	1.164626	0.001820	1.022125
N283	N	1.414626	0.251820	1.272125
N284	N	1.664626	0.501820	1.522125
C285	C	0.909762	-0.303288	0.740195
C286	C	1.159762	-0.053288	0.990195
C287	C	1.409762	0.196712	1.240195
C288	C	1.659762	0.446712	1.490195
C289	C	0.950054	-0.262953	0.971154
C290	C	1.200054	-0.012953	1.221154
C291	C	1.450054	0.237047	1.471154
C292	C	1.700054	0.487047	1.721154
C293	C	0.950048	-0.262925	1.036898
C294	C	1.200048	-0.012925	1.286898
C295	C	1.450048	0.237075	1.536898
C296	C	1.700048	0.487075	1.786898
C297	C	0.869481	-0.343432	1.036861
C298	C	1.119481	-0.093432	1.286861
C299	C	1.369481	0.156568	1.536861
C300	C	1.619481	0.406568	1.786861
C301	C	0.869483	-0.343455	0.971118
C302	C	1.119483	-0.093455	1.221118
C303	C	1.369483	0.156545	1.471118
C304	C	1.619483	0.406545	1.721118
C305	C	0.909773	-0.303216	0.938269
C306	C	1.159773	-0.053216	1.188269
C307	C	1.409773	0.196784	1.438269
C308	C	1.659773	0.446784	1.688269
H309	H	0.149888	-0.376351	0.230128
H310	H	0.399888	-0.126351	0.480128
H311	H	0.649888	0.123649	0.730128
H312	H	0.899888	0.373649	0.980128
H313	H	0.836556	-0.543017	0.376224
H314	H	1.086556	-0.293017	0.626224
H315	H	1.336556	-0.043017	0.876224
H316	H	1.586556	0.206983	1.126224
Cl317	Cl	0.536308	-0.212616	0.394293
Cl318	Cl	0.786308	0.037384	0.644293
Cl319	Cl	1.036308	0.287384	0.894293
Cl320	Cl	1.286308	0.537384	1.144293
Cl321	Cl	0.536154	-0.394099	0.212228
Cl322	Cl	0.786154	-0.144099	0.462228
Cl323	Cl	1.036154	0.105901	0.712228
Cl324	Cl	1.286154	0.355901	0.962228
H325	H	0.982846	-0.230281	0.662833
H326	H	1.232846	0.019719	0.912833
H327	H	1.482846	0.269719	1.162833
H328	H	1.732846	0.519719	1.412833
H329	H	0.982745	-0.662243	0.230290
H330	H	1.232745	-0.412243	0.480290
H331	H	1.482745	-0.162243	0.730290
H332	H	1.732745	0.087757	0.980290
Cl333	Cl	0.818839	-0.394016	1.078159
Cl334	Cl	1.068839	-0.144016	1.328159
Cl335	Cl	1.318839	0.105984	1.578159
Cl336	Cl	1.568839	0.355984	1.828159
Cl337	Cl	0.283700	-0.394133	0.212256
Cl338	Cl	0.533700	-0.144133	0.462256
Cl339	Cl	0.783700	0.105867	0.712256
Cl340	Cl	1.033700	0.355867	0.962256
H341	H	0.982856	-0.230185	0.944407
H342	H	1.232856	0.019815	1.194407
H343	H	1.482856	0.269815	1.444407
H344	H	1.732856	0.519815	1.694407
H345	H	0.836675	-0.376330	0.662773
H346	H	1.086675	-0.126330	0.912773
H347	H	1.336675	0.123670	1.162773
H348	H	1.586675	0.373670	1.412773
H349	H	0.982695	-0.542977	0.230265
H350	H	1.232695	-0.292977	0.480265
H351	H	1.482695	-0.042977	0.730265
H352	H	1.732695	0.207023	0.980265
H353	H	0.150016	-0.230465	0.376460
H354	H	0.400016	0.019535	0.626460
H355	H	0.650016	0.269535	0.876460
H356	H	0.900016	0.519535	1.126460
Cl357	Cl	0.818823	-0.394203	0.528934
Cl358	Cl	1.068823	-0.144203	0.778934
Cl359	Cl	1.318823	0.105797	1.028934
Cl360	Cl	1.568823	0.355797	1.278934
Cl361	Cl	1.000678	-0.929252	0.212516
Cl362	Cl	1.250678	-0.679252	0.462516
Cl363	Cl	1.500678	-0.429252	0.712516
Cl364	Cl	1.750678	-0.179252	0.962516
H365	H	0.836601	-0.662288	0.376237
H366	H	1.086601	-0.412288	0.626237
H367	H	1.336601	-0.162288	0.876237
H368	H	1.586601	0.087712	1.126237
Cl369	Cl	0.283856	-0.212646	0.394310
Cl370	Cl	0.533856	0.037354	0.644310
Cl371	Cl	0.783856	0.287354	0.894310
Cl372	Cl	1.033856	0.537354	1.144310
H373	H	0.670117	-0.230418	0.376431
H374	H	0.920117	0.019582	0.626431
H375	H	1.170117	0.269582	0.876431
H376	H	1.420117	0.519582	1.126431
H377	H	0.669997	-0.376290	0.230092
H378	H	0.919997	-0.126290	0.480092
H379	H	1.169997	0.123710	0.730092
H380	H	1.419997	0.373710	0.980092
H381	H	0.982902	-1.063080	0.230367
H382	H	1.232902	-0.813080	0.480367
H383	H	1.482902	-0.563080	0.730367
H384	H	1.732902	-0.313080	0.980367
Cl385	Cl	1.000706	-0.212321	1.078239
Cl386	Cl	1.250706	0.037679	1.328239
Cl387	Cl	1.500706	0.287679	1.578239
Cl388	Cl	1.750706	0.537679	1.828239
Cl389	Cl	0.818840	-0.394070	0.929776
Cl390	Cl	1.068840	-0.144070	1.179776
Cl391	Cl	1.318840	0.105930	1.429776
Cl392	Cl	1.568840	0.355930	1.679776
H393	H	0.836752	-1.063126	0.376311
H394	H	1.086752	-0.813126	0.626311
H395	H	1.336752	-0.563126	0.876311
H396	H	1.586752	-0.313126	1.126311
Cl397	Cl	0.818860	-0.929303	0.394099
Cl398	Cl	1.068860	-0.679303	0.644099
Cl399	Cl	1.318860	-0.429303	0.894099
Cl400	Cl	1.568860	-0.179303	1.144099
H401	H	0.982850	-0.230328	0.543570
H402	H	1.232850	0.019672	0.793570
H403	H	1.482850	0.269672	1.043570
H404	H	1.732850	0.519672	1.293570
