data_functionalizedCrystal
_audit_creation_method	'MofGen! by Chris Wilmer'
_symmetry_space_group_name_H-M	'P1'
_symmetry_Int_Tables_number	1
_symmetry_cell_setting	triclinic
loop_
_symmetry_equiv_pos_as_xyz
  x,y,z
_cell_length_a	21.395362
_cell_length_b	11.169416
_cell_length_c	21.395355
_cell_angle_alpha	89.989073
_cell_angle_beta	89.956060
_cell_angle_gamma	90.026221
loop_
_atom_site_label
_atom_site_type_symbol
_atom_site_fract_x
_atom_site_fract_y
_atom_site_fract_z
Zn1	Zn	0.957948	-0.477437	-0.354619
Zn2	Zn	0.957888	-0.678108	-0.249855
Zn3	Zn	0.853163	-0.477493	-0.249820
Zn4	Zn	0.853169	-0.678133	-0.354560
O5	O	0.905542	-0.577793	-0.302213
O6	O	1.045618	-0.504023	-0.340761
O7	O	0.943968	-0.651509	-0.162172
O8	O	0.867086	-0.309536	-0.263732
O9	O	1.045574	-0.651455	-0.263792
O10	O	0.944071	-0.309495	-0.340727
O11	O	0.867027	-0.504118	-0.162147
O12	O	0.765486	-0.504142	-0.263675
O13	O	0.867096	-0.651497	-0.442246
O14	O	0.765491	-0.651551	-0.340627
O15	O	0.944077	-0.504047	-0.442289
O16	O	0.943974	-0.846061	-0.263734
O17	O	0.867038	-0.846079	-0.340661
C18	C	0.742754	-0.577856	-0.302141
C19	C	0.673113	-0.577912	-0.302124
C20	C	0.905517	-0.889618	-0.302209
C21	C	0.905564	-1.023018	-0.302228
C22	C	0.640419	-0.654770	-0.342133
C23	C	0.574984	-0.654741	-0.342161
C24	C	0.542245	-0.577866	-0.302169
C25	C	0.574947	-0.500994	-0.262157
C26	C	0.640381	-0.501017	-0.262135
C27	C	0.438518	-0.568198	-0.245763
C28	C	0.373085	-0.568183	-0.245784
C29	C	0.340424	-0.577788	-0.302238
C30	C	0.373204	-0.587433	-0.358673
C31	C	0.438638	-0.587456	-0.358650
C32	C	0.471293	-0.577832	-0.302189
C33	C	0.236777	-0.654618	-0.342281
C34	C	0.171341	-0.654580	-0.342310
C35	C	0.171306	-0.500839	-0.262300
C36	C	0.236741	-0.500871	-0.262277
C37	C	0.269473	-0.577766	-0.302266
C38	C	1.068965	-0.577730	-0.302287
C39	C	1.138607	-0.577703	-0.302318
C40	C	0.905594	-0.577769	-0.465637
C41	C	0.905616	-0.577758	-0.535278
C42	C	0.905584	-0.264751	-0.302232
C43	C	0.905602	-0.131351	-0.302240
C44	C	0.945698	-0.500978	-0.568015
C45	C	0.945697	-0.500926	-0.633450
C46	C	0.905621	-0.577676	-0.666146
C47	C	0.865531	-0.654462	-0.633402
C48	C	0.865529	-0.654503	-0.567968
C49	C	0.900665	-0.685744	-0.769818
C50	C	0.900672	-0.685705	-0.835251
C51	C	0.905625	-0.577550	-0.867967
C52	C	0.910584	-0.469429	-0.835243
C53	C	0.910582	-0.469470	-0.769809
C54	C	0.905619	-0.577640	-0.737099
C55	C	0.945708	-0.500707	-0.971656
C56	C	0.945703	-0.500653	-1.037093
C57	C	0.865540	-0.654200	-1.037044
C58	C	0.865542	-0.654243	-0.971608
C59	C	0.905630	-0.577498	-0.938919
C60	C	0.905526	-0.577731	-0.139426
C61	C	0.905626	-0.577403	-0.069785
H62	H	0.667065	-0.717383	-0.374697
Cl63	Cl	0.681485	-0.404388	-0.211834
Cl64	Cl	0.996090	-0.404492	-0.526923
Cl65	Cl	0.479571	-0.556127	-0.174785
Cl66	Cl	0.815153	-0.750778	-0.930451
Cl67	Cl	0.533873	-0.751369	-0.392462
Cl68	Cl	0.533791	-0.404346	-0.211885
Cl69	Cl	0.815147	-0.750944	-0.674505
Cl70	Cl	0.130155	-0.404188	-0.212028
Cl71	Cl	0.996077	-0.404370	-0.674613
Cl72	Cl	0.277929	-0.751277	-0.392556
H73	H	0.263361	-0.438291	-0.229694
H74	H	0.465325	-0.595306	-0.404601
H75	H	0.346613	-0.595252	-0.404643
Cl76	Cl	0.815152	-0.750676	-1.078141
H77	H	0.896638	-0.773744	-0.861890
Cl78	Cl	0.130239	-0.751203	-0.392615
H79	H	0.832887	-0.717026	-0.541314
Cl80	Cl	0.996106	-0.404139	-1.078249
Cl81	Cl	0.331883	-0.556057	-0.174840
Cl82	Cl	0.916811	-0.333554	-0.728671
Cl83	Cl	0.916814	-0.333452	-0.876364
Cl84	Cl	0.996099	-0.404223	-0.930558
H85	H	0.896464	-0.773795	-0.743185
