data_functionalizedCrystal
_audit_creation_method	'MofGen! by Chris Wilmer'
_symmetry_space_group_name_H-M	'P1'
_symmetry_Int_Tables_number	1
_symmetry_cell_setting	triclinic
loop_
_symmetry_equiv_pos_as_xyz
  x,y,z
_cell_length_a	18.101398
_cell_length_b	18.101395
_cell_length_c	12.827885
_cell_angle_alpha	89.967625
_cell_angle_beta	89.983401
_cell_angle_gamma	90.029256
loop_
_atom_site_label
_atom_site_type_symbol
_atom_site_fract_x
_atom_site_fract_y
_atom_site_fract_z
Zn1	Zn	1.132137	-0.294830	-0.590755
Zn2	Zn	1.132028	-0.418690	-0.416008
Zn3	Zn	1.008292	-0.294862	-0.416037
Zn4	Zn	1.008247	-0.418631	-0.590716
O5	O	1.070176	-0.356753	-0.503379
O6	O	1.235756	-0.311272	-0.567579
O7	O	1.115587	-0.402302	-0.269775
O8	O	1.024784	-0.191225	-0.439243
O9	O	1.235676	-0.402271	-0.439193
O10	O	1.115773	-0.191202	-0.567607
O11	O	1.024678	-0.311327	-0.269797
O12	O	0.904653	-0.311269	-0.439204
O13	O	1.024708	-0.402170	-0.736957
O14	O	0.904620	-0.402201	-0.567540
O15	O	1.115730	-0.311215	-0.736986
O16	O	1.115544	-0.522315	-0.439154
O17	O	1.024603	-0.522271	-0.567512
C18	C	0.877766	-0.356733	-0.503372
C19	C	0.795452	-0.356742	-0.503393
C20	C	1.070077	-0.549164	-0.503348
C21	C	1.070102	-0.631478	-0.503370
C22	C	0.644743	-0.356756	-0.503392
C23	C	0.613394	-0.414056	-0.584012
C24	C	0.527775	-0.414288	-0.583773
C25	C	0.496361	-0.356769	-0.503392
C26	C	0.527410	-0.377604	-0.393127
C27	C	0.613055	-0.378012	-0.393593
C28	C	0.613223	-0.278479	-0.532074
C29	C	0.527572	-0.278908	-0.534502
C30	C	0.412501	-0.356776	-0.503385
C31	C	0.728603	-0.356751	-0.503391
C32	C	1.070265	-0.930569	-0.503426
C33	C	1.013180	-0.899247	-0.584386
C34	C	1.012908	-0.813629	-0.584133
C35	C	1.070184	-0.782186	-0.503399
C36	C	1.049052	-0.813344	-0.393266
C37	C	1.048684	-0.898989	-0.393751
C38	C	1.148607	-0.898913	-0.531630
C39	C	1.148147	-0.813262	-0.534046
C40	C	1.070140	-0.698327	-0.503377
C41	C	1.070307	-1.014428	-0.503441
C42	C	1.263338	-0.356774	-0.503387
C43	C	1.345652	-0.356783	-0.503390
C44	C	1.070227	-0.356682	-0.775949
C45	C	1.070248	-0.356652	-0.892102
C46	C	1.070296	-0.163591	-0.503433
C47	C	1.070347	-0.081277	-0.503456
C48	C	1.115293	-0.311635	-0.943902
C49	C	1.115317	-0.311603	-1.063952
C50	C	1.070169	-0.356771	-0.231869
C51	C	1.070291	-0.356592	-0.115716
H52	H	0.506783	-0.401290	-0.665519
F53	F	0.640366	-0.397280	-0.691191
H54	H	1.026130	-0.792560	-0.665795
H55	H	1.167873	-0.920457	-0.610570
H56	H	1.164083	-0.792894	-0.615098
H57	H	0.634881	-0.471729	-0.565214
H58	H	0.633793	-0.338061	-0.331464
F59	F	1.019883	-0.406975	-1.057502
F60	F	1.206683	-0.785276	-0.462596
F61	F	0.499619	-0.220157	-0.463416
H62	H	1.191138	-0.919168	-0.472665
H63	H	0.634851	-0.259446	-0.611124
H64	H	1.031696	-0.395163	-0.936632
H65	H	0.507253	-0.472294	-0.564745
H66	H	0.632997	-0.435221	-0.369351
F67	F	0.500815	-0.324728	-0.312454
H68	H	0.505930	-0.434189	-0.368473
F69	F	1.030286	-0.926100	-0.691473
H70	H	0.633498	-0.235791	-0.473360
F71	F	0.937007	-0.786930	-0.559719
H72	H	0.507282	-0.263191	-0.615651
F73	F	1.101687	-0.786727	-0.312270
H74	H	0.955463	-0.920833	-0.565939
H75	H	0.991416	-0.919032	-0.369858
F76	F	1.165665	-0.261275	-0.885704
H77	H	1.153884	-0.273065	-1.108498
H78	H	1.088459	-0.919711	-0.331373
F79	F	0.974990	-0.785396	-0.361476
