data_functionalizedCrystal
_audit_creation_method	'MofGen! by Chris Wilmer'
_symmetry_space_group_name_H-M	'P1'
_symmetry_Int_Tables_number	1
_symmetry_cell_setting	triclinic
loop_
_symmetry_equiv_pos_as_xyz
  x,y,z
_cell_length_a	13.339070
_cell_length_b	23.532407
_cell_length_c	11.804365
_cell_angle_alpha	101.750517
_cell_angle_beta	74.875130
_cell_angle_gamma	99.238986
loop_
_atom_site_label
_atom_site_type_symbol
_atom_site_fract_x
_atom_site_fract_y
_atom_site_fract_z
O1	O	1.359957	0.276790	-0.099117
O2	O	1.065803	0.239376	-0.099104
O3	O	1.221746	0.176583	-0.099089
O4	O	1.204015	0.339583	-0.099132
O5	O	1.180692	0.193091	0.098963
O6	O	1.024750	0.255884	0.098948
O7	O	1.318904	0.293298	0.098935
Cu8	Cu	1.168078	0.276099	0.117025
Cu9	Cu	1.216629	0.256576	-0.117194
O10	O	1.162961	0.356091	0.098920
C11	C	1.007650	0.241310	-0.000076
C12	C	0.895537	0.222472	-0.000070
C13	C	0.529284	0.368948	-0.000127
C14	C	0.634620	0.386649	-0.000137
C15	C	0.699854	0.345606	-0.000119
C16	C	0.659742	0.286860	-0.000094
C17	C	0.554397	0.269156	-0.000094
C18	C	0.724967	0.245814	-0.000086
C19	C	0.684855	0.187067	-0.000060
C20	C	0.579519	0.169367	-0.000059
C21	C	0.514285	0.210410	-0.000076
C22	C	0.830313	0.263518	-0.000086
C23	C	0.855425	0.163726	-0.000053
C24	C	0.750089	0.146025	-0.000043
C25	C	1.200767	0.163549	-0.000060
C26	C	1.199407	0.100114	-0.000051
C27	C	1.283187	-0.285492	-0.000120
C28	C	1.281927	-0.345096	-0.000129
O29	O	1.359590	-0.369327	-0.000177
N30	N	1.189217	-0.382667	-0.000124
C31	C	1.097762	-0.360632	-0.000122
O32	O	1.018789	-0.398062	-0.000120
C33	C	1.099025	-0.301029	-0.000122
C34	C	1.191739	-0.263460	-0.000115
C35	C	1.375894	-0.247923	-0.000114
C36	C	1.377153	-0.188323	-0.000103
C37	C	1.285705	-0.166291	-0.000098
C38	C	1.192998	-0.203860	-0.000103
C39	C	1.007574	-0.278996	-0.000128
C40	C	1.008845	-0.219389	-0.000129
C41	C	1.101559	-0.181819	-0.000122
C42	C	1.102809	-0.122227	-0.000087
N43	N	1.195520	-0.084657	-0.000092
C44	C	1.286968	-0.106688	-0.000097
C45	C	1.095118	-0.485801	-0.000125
C46	C	1.093853	-0.545402	-0.000117
C47	C	1.278019	-0.529862	-0.000126
C48	C	1.279281	-0.470260	-0.000126
C49	C	1.187829	-0.448230	-0.000130
C50	C	1.289605	0.018476	-0.000073
C51	C	1.290855	0.078082	-0.000057
C52	C	1.106691	0.062536	-0.000053
C53	C	1.105439	0.002937	-0.000063
C54	C	1.196905	-0.019092	-0.000077
O55	O	1.025189	-0.097956	-0.000044
O56	O	1.365931	-0.069253	-0.000115
C57	C	1.377057	0.291364	-0.000096
C58	C	1.489172	0.310202	-0.000110
C59	C	1.183941	0.369126	-0.000112
C60	C	1.185302	0.432560	-0.000129
N61	N	1.133938	0.289830	0.281762
N62	N	1.250777	0.242841	-0.281932
C63	C	1.332761	0.209855	0.655730
C64	C	1.358587	0.199464	0.531071
C65	C	1.302427	0.222055	0.468737
C66	C	1.220436	0.255038	0.531076
C67	C	1.194613	0.265434	0.655747
C68	C	1.164279	0.277633	0.468755
C69	C	1.082288	0.310617	0.531093
C70	C	1.056469	0.321010	0.655752
C71	C	1.112629	0.298420	0.718086
C72	C	1.190102	0.267238	0.344083
C73	C	1.051954	0.322817	0.344101
C74	C	1.026128	0.333207	0.468760
H75	H	1.366356	0.108670	-0.000048
H76	H	0.862961	0.311350	-0.000102
O77	O	1.366939	-0.551170	-0.000090
C78	C	1.449054	-0.505238	-0.000123
H79	H	1.415198	-0.461902	0.037382
H80	H	1.501173	-0.512244	0.057366
H81	H	1.497192	-0.504423	-0.095142
H82	H	0.476164	0.402358	-0.000151
H83	H	1.018351	-0.575985	-0.000102
H84	H	1.354777	-0.439674	-0.000121
O85	O	1.327321	0.211935	0.347645
C86	C	1.240201	0.181711	0.306026
H87	H	1.165695	0.189929	0.377881
H88	H	1.236530	0.197859	0.222622
H89	H	1.247930	0.132906	0.283920
H90	H	0.717416	0.098191	-0.000032
O91	O	0.540709	0.112271	-0.000202
C92	C	0.595340	0.077694	-0.102779
H93	H	0.675342	0.101884	-0.136981
H94	H	0.605652	0.034578	-0.079694
H95	H	0.549205	0.068659	-0.174607
H96	H	1.425343	0.172610	0.480319
H97	H	0.934371	-0.201457	-0.000134
O98	O	0.918915	0.123932	0.000017
C99	C	1.020497	0.152151	-0.000016
H100	H	1.016314	0.200575	0.037470
H101	H	1.056634	0.131807	0.057491
H102	H	1.070684	0.146892	-0.095031
O103	O	0.412009	0.193132	-0.000231
C104	C	0.404964	0.151313	-0.102812
H105	H	0.480089	0.129526	-0.137005
H106	H	0.335879	0.116866	-0.079735
H107	H	0.393229	0.173728	-0.174643
H108	H	1.364086	0.000548	-0.000088
O109	O	1.467318	-0.151918	-0.000159
C110	C	1.547745	-0.184154	-0.000138
H111	H	1.527608	-0.232039	-0.037633
H112	H	1.624433	-0.166295	-0.057643
H113	H	1.556230	-0.180194	0.094875
H114	H	0.667274	0.434480	-0.000167
O115	O	1.387436	0.187887	0.716094
C116	C	1.465313	0.156526	0.634348
H117	H	1.484639	0.172609	0.545474
H118	H	1.538595	0.163620	0.670357
H119	H	1.435682	0.107992	0.621109
H120	H	0.785624	0.360022	-0.000130
O121	O	1.087374	0.308546	0.839183
C122	C	1.002988	0.342518	0.880843
H123	H	0.957605	0.336924	0.809013
H124	H	0.949073	0.327624	0.964254
H125	H	1.034048	0.390475	0.902951
H126	H	1.450368	-0.265854	-0.000123
H127	H	0.932078	-0.309576	-0.000141
O128	O	1.006167	-0.464495	-0.000060
C129	C	0.924084	-0.510444	-0.000084
H130	H	0.942420	-0.547528	0.037406
H131	H	0.848125	-0.493873	0.057423
H132	H	0.915329	-0.527086	-0.095098
H133	H	1.256859	0.240383	0.293339
O134	O	1.015300	-0.033485	-0.000119
C135	C	0.934850	-0.001252	-0.000077
H136	H	0.970517	0.040395	-0.037551
H137	H	0.882010	-0.028689	-0.057589
H138	H	0.886969	0.010602	0.094940
O139	O	0.976703	0.352971	0.716254
C140	C	0.883128	0.325367	0.685800
H141	H	0.890191	0.276908	0.651548
H142	H	0.815391	0.330719	0.767796
H143	H	0.868133	0.346150	0.613434
O144	O	0.946360	0.365165	0.529270
C145	C	0.852785	0.337559	0.498819
H146	H	0.859854	0.289102	0.464553
H147	H	0.785051	0.342905	0.580819
H148	H	0.837780	0.358347	0.426463
O149	O	0.997557	0.344799	0.283435
C150	C	1.066228	0.382439	0.211320
H151	H	1.149359	0.370747	0.192631
H152	H	1.042139	0.377450	0.123664
H153	H	1.062717	0.429553	0.259350
H154	H	1.032235	0.080486	-0.000045
