data_functionalizedCrystal
_audit_creation_method	'MofGen! by Chris Wilmer'
_symmetry_space_group_name_H-M	'P1'
_symmetry_Int_Tables_number	1
_symmetry_cell_setting	triclinic
loop_
_symmetry_equiv_pos_as_xyz
  x,y,z
_cell_length_a	19.077105
_cell_length_b	16.120531
_cell_length_c	19.076919
_cell_angle_alpha	95.042833
_cell_angle_beta	89.923776
_cell_angle_gamma	89.254880
loop_
_atom_site_label
_atom_site_type_symbol
_atom_site_fract_x
_atom_site_fract_y
_atom_site_fract_z
Zn1	Zn	1.040298	0.403259	0.456920
Zn2	Zn	1.038964	0.537283	0.344897
Zn3	Zn	0.928013	0.392092	0.334256
Zn4	Zn	0.916808	0.536780	0.457629
O5	O	0.981021	0.467354	0.398425
O6	O	1.138235	0.425921	0.446216
O7	O	1.028378	0.513560	0.244972
O8	O	0.948155	0.276932	0.345777
O9	O	1.137255	0.524388	0.363914
O10	O	1.030650	0.285135	0.435898
O11	O	0.946862	0.406889	0.237154
O12	O	0.828413	0.406402	0.346465
O13	O	0.929058	0.523531	0.556049
O14	O	0.820181	0.512704	0.437107
O15	O	1.019785	0.425433	0.555528
O16	O	1.017513	0.653858	0.364602
O17	O	0.927765	0.653489	0.447425
C18	C	0.798857	0.458287	0.390709
C19	C	0.720924	0.454429	0.387425
C20	C	0.680044	0.508040	0.433007
C21	C	0.606818	0.504404	0.429925
C22	C	0.574475	0.447161	0.381257
C23	C	0.615362	0.393545	0.335672
C24	C	0.688586	0.397178	0.338759
C25	C	0.355937	0.430351	0.366976
C26	C	0.282708	0.426725	0.363892
C27	C	0.274169	0.537583	0.458146
C28	C	0.347395	0.541213	0.461225
C29	C	0.388275	0.487594	0.415643
N30	N	0.499627	0.443446	0.378103
N31	N	0.463122	0.491307	0.418800
C32	C	0.971297	0.683919	0.407261
C33	C	0.967200	0.776571	0.411068
C34	C	0.959724	0.946208	0.418032
C35	C	1.002346	0.987658	0.378781
C36	C	0.998186	1.082050	0.382655
C37	C	0.963883	0.851808	0.414158
C38	C	1.163896	0.476456	0.406173
C39	C	1.241827	0.480335	0.409474
C40	C	0.973321	0.475672	0.582046
C41	C	0.970039	0.479217	0.660294
C42	C	0.990777	1.249942	0.389557
C43	C	0.994872	1.157290	0.385742
C44	C	0.988734	0.459010	0.215518
C45	C	0.992162	0.455237	0.137267
C46	C	1.015732	0.429810	0.696785
C47	C	1.012640	0.433137	0.770307
C48	C	0.963859	0.485876	0.807337
C49	C	0.918161	0.535284	0.770841
C50	C	0.921250	0.531952	0.697320
C51	C	0.949553	0.501313	1.027250
C52	C	0.946469	0.504643	1.100776
C53	C	1.040948	0.402495	1.100237
C54	C	1.044035	0.399171	1.026715
C55	C	0.998335	0.448576	0.990225
N56	N	0.960699	0.489280	0.882488
N57	N	1.001492	0.445167	0.915075
H58	H	0.389213	0.386697	0.329855
H59	H	1.049850	0.392907	0.800015
H60	H	0.589022	0.346934	0.296048
N61	N	0.910026	0.990600	0.463840
N62	N	0.912308	0.984092	0.528609
H63	H	0.877206	1.015450	0.560960
N64	N	1.065562	0.375948	0.658952
N65	N	1.110644	0.405638	0.621016
H66	H	1.145837	0.367595	0.594297
H67	H	1.041959	0.952253	0.342266
H68	H	0.912351	0.541555	0.997550
H69	H	1.083760	0.356228	0.996570
H70	H	1.078153	0.362271	1.129955
N71	N	0.232401	0.592345	0.504697
N72	N	0.167024	0.589098	0.501937
H73	H	0.137523	0.627775	0.534817
H74	H	0.906743	0.547591	1.130924
N75	N	0.868331	0.589144	0.808674
N76	N	0.865579	0.592113	0.874317
H77	H	0.830385	0.630154	0.901037
H78	H	0.706371	0.554655	0.472636
H79	H	0.884036	0.572175	0.667609
N80	N	0.565064	0.559188	0.476472
N81	N	0.522865	0.609106	0.452065
H82	H	0.493377	0.647803	0.484939
N83	N	0.380425	0.599698	0.510932
N84	N	0.368990	0.675980	0.508943
H85	H	0.392316	0.717291	0.544047
N86	N	0.249678	0.368235	0.314181
N87	N	0.261103	0.291951	0.316170
H88	H	0.237775	0.250645	0.281064
N89	N	0.730337	0.342402	0.292199
N90	N	0.701453	0.291293	0.248751
H91	H	0.730938	0.252601	0.215869
