data_functionalizedCrystal
_audit_creation_method	'MofGen! by Chris Wilmer'
_symmetry_space_group_name_H-M	'P1'
_symmetry_Int_Tables_number	1
_symmetry_cell_setting	triclinic
loop_
_symmetry_equiv_pos_as_xyz
  x,y,z
_cell_length_a	14.044220
_cell_length_b	10.654551
_cell_length_c	12.503552
_cell_angle_alpha	93.556617
_cell_angle_beta	86.160109
_cell_angle_gamma	88.837120
loop_
_atom_site_label
_atom_site_type_symbol
_atom_site_fract_x
_atom_site_fract_y
_atom_site_fract_z
O1	O	1.265120	0.296344	-0.089194
O2	O	1.765120	0.796344	0.410806
O3	O	0.989081	0.285409	-0.089221
O4	O	1.489081	0.785409	0.410779
O5	O	1.133447	0.108775	-0.089208
O6	O	1.633447	0.608775	0.410792
O7	O	1.120754	0.472978	-0.089208
O8	O	1.620754	0.972978	0.410792
O9	O	1.122577	0.122071	0.089434
O10	O	1.622577	0.622071	0.589434
O11	O	0.978211	0.298704	0.089420
O12	O	1.478211	0.798704	0.589420
O13	O	1.254250	0.309640	0.089448
O14	O	1.754250	0.809640	0.589448
Cu15	Cu	1.115238	0.305386	0.105745
Cu16	Cu	1.615238	0.805386	0.605745
Cu17	Cu	1.128093	0.289663	-0.105519
Cu18	Cu	1.628093	0.789663	0.394481
O19	O	1.109885	0.486273	0.089434
O20	O	1.609885	0.986273	0.589434
C21	C	1.127080	0.068531	0.000111
C22	C	1.627080	0.568531	0.500111
C23	C	1.124291	-0.071193	0.000103
C24	C	1.624291	0.428807	0.500103
C25	C	0.948300	0.287270	0.000096
C26	C	1.448300	0.787270	0.500096
C27	C	0.842981	0.272994	0.000085
C28	C	1.342981	0.772994	0.500085
C29	C	1.128908	-0.144083	-0.097273
C30	C	1.628908	0.355917	0.402727
C31	C	1.126279	-0.275368	-0.097268
C32	C	1.626279	0.224632	0.402732
C33	C	1.114421	-0.260859	0.097497
C34	C	1.614421	0.239141	0.597497
C35	C	1.117043	-0.129577	0.097491
C36	C	1.617043	0.370423	0.597491
C37	C	1.136157	-0.085700	-0.194660
C38	C	1.636157	0.414300	0.305340
C39	C	1.140775	-0.158591	-0.292044
C40	C	1.640775	0.341409	0.207956
C41	C	1.138146	-0.289875	-0.292039
C42	C	1.638146	0.210125	0.207961
C43	C	1.130899	-0.348268	-0.194651
C44	C	1.630899	0.151732	0.305349
C45	C	0.650147	0.246897	0.000106
C46	C	1.150147	0.746897	0.500106
C47	C	0.593179	0.348145	0.000111
C48	C	1.093179	0.848145	0.500111
C49	C	0.485880	0.333625	0.000122
C50	C	0.985880	0.833625	0.500122
C51	C	0.757457	0.261416	0.000094
C52	C	1.257457	0.761416	0.500094
C53	C	1.295031	0.307778	0.000128
C54	C	1.795031	0.807778	0.500128
C55	C	1.400351	0.322054	0.000132
C56	C	1.900351	0.822054	0.500132
C57	C	1.116252	0.526517	0.000113
C58	C	1.616252	1.026517	0.500113
C59	C	1.119040	0.666241	0.000114
C60	C	1.619040	1.166241	0.500114
N61	N	1.106204	0.316445	0.254337
N62	N	1.606204	0.816445	0.754337
N63	N	1.137135	0.278595	-0.254111
N64	N	1.637135	0.778595	0.245889
C65	C	1.150420	0.262322	0.526774
C66	C	1.650420	0.762322	1.026774
C67	C	1.092922	0.332713	0.473445
C68	C	1.592922	0.832713	0.973445
C69	C	1.100314	0.323659	0.351522
C70	C	1.600314	0.823659	0.851522
C71	C	1.143029	0.271375	0.648708
C72	C	1.643029	0.771375	1.148708
H73	H	1.146666	-0.111038	-0.371334
H74	H	1.646666	0.388962	0.128666
H75	H	0.624992	0.445732	0.000105
H76	H	1.124992	0.945732	0.500105
H77	H	0.618336	0.149318	0.000112
H78	H	1.118336	0.649318	0.500112
H79	H	1.141897	-0.349220	-0.371334
H80	H	1.641897	0.150780	0.128666
N81	N	1.020362	0.421550	0.534246
N82	N	1.520362	0.921550	1.034246
H83	H	1.025298	0.415514	0.613988
H84	H	1.525298	0.915514	1.113988
H85	H	1.033122	0.510497	0.514658
H86	H	1.533122	1.010497	1.014658
N87	N	1.222960	0.173470	0.465973
N88	N	1.722960	0.673470	0.965973
H89	H	1.218016	0.179509	0.386233
H90	H	1.718016	0.679509	0.886233
H91	H	1.289193	0.196937	0.485547
H92	H	1.789193	0.696937	0.985547
H93	H	1.128745	-0.455168	-0.194655
H94	H	1.628745	0.044832	0.305345
N95	N	1.138997	0.055897	-0.194665
N96	N	1.638997	0.555897	0.305335
H97	H	1.144290	0.081826	-0.271132
H98	H	1.644290	0.581826	0.228868
H99	H	1.078597	0.093883	-0.156395
H100	H	1.578597	0.593883	0.343605
H101	H	1.108521	-0.308413	0.176786
H102	H	1.608521	0.191587	0.676786
H103	H	1.113263	-0.070226	0.176783
H104	H	1.613263	0.429774	0.676783
