data_functionalizedCrystal
_audit_creation_method	'MofGen! by Chris Wilmer'
_symmetry_space_group_name_H-M	'P1'
_symmetry_Int_Tables_number	1
_symmetry_cell_setting	triclinic
loop_
_symmetry_equiv_pos_as_xyz
  x,y,z
_cell_length_a	15.297979
_cell_length_b	16.625546
_cell_length_c	16.625539
_cell_angle_alpha	89.971468
_cell_angle_beta	80.292161
_cell_angle_gamma	99.682367
loop_
_atom_site_label
_atom_site_type_symbol
_atom_site_fract_x
_atom_site_fract_y
_atom_site_fract_z
Zn1	Zn	1.379332	-0.107932	-0.669653
Zn2	Zn	1.712665	0.225402	-0.336320
Zn3	Zn	2.045999	0.558735	-0.002987
Zn4	Zn	1.379233	-0.242786	-0.534800
Zn5	Zn	1.712566	0.090548	-0.201467
Zn6	Zn	2.045900	0.423881	0.131866
Zn7	Zn	1.228458	-0.131263	-0.511453
Zn8	Zn	1.561791	0.202070	-0.178119
Zn9	Zn	1.895125	0.535404	0.155214
Zn10	Zn	1.228416	-0.266040	-0.646218
Zn11	Zn	1.561749	0.067293	-0.312885
Zn12	Zn	1.895082	0.400627	0.020449
O13	O	1.303860	-0.187005	-0.590531
O14	O	1.637193	0.146328	-0.257198
O15	O	1.970526	0.479661	0.076136
O16	O	1.505578	-0.106324	-0.671343
O17	O	1.838911	0.227009	-0.338010
O18	O	2.172245	0.560342	-0.004677
O19	O	1.359209	-0.228024	-0.418867
O20	O	1.692542	0.105309	-0.085534
O21	O	2.025875	0.438642	0.247800
O22	O	1.248531	-0.015327	-0.532475
O23	O	1.581864	0.318007	-0.199142
O24	O	1.915198	0.651340	0.134191
O25	O	1.505505	-0.205401	-0.572268
O26	O	1.838838	0.127932	-0.238934
O27	O	2.172172	0.461266	0.094399
O28	O	1.359378	0.001815	-0.648704
O29	O	1.692711	0.335148	-0.315371
O30	O	2.026044	0.668482	0.017962
O31	O	1.248435	-0.146089	-0.401714
O32	O	1.581768	0.187244	-0.068380
O33	O	1.915102	0.520578	0.264953
O34	O	1.102194	-0.168638	-0.509751
O35	O	1.435527	0.164696	-0.176418
O36	O	1.768860	0.498029	0.156916
O37	O	1.248459	-0.245034	-0.762163
O38	O	1.581792	0.088299	-0.428829
O39	O	1.915126	0.421632	-0.095496
O40	O	1.102163	-0.267658	-0.608762
O41	O	1.435496	0.065676	-0.275429
O42	O	1.768829	0.399009	0.057904
O43	O	1.359336	-0.128873	-0.779381
O44	O	1.692670	0.204460	-0.446047
O45	O	2.026003	0.537794	-0.112714
O46	O	1.359168	-0.358712	-0.549543
O47	O	1.692501	-0.025379	-0.216210
O48	O	2.025834	0.307955	0.117123
O49	O	1.248363	-0.375797	-0.631401
O50	O	1.581696	-0.042464	-0.298068
O51	O	1.915030	0.290870	0.035265
C52	C	1.069441	-0.223204	-0.554180
C53	C	1.402774	0.110130	-0.220847
C54	C	1.736107	0.443463	0.112486
C55	C	0.969155	-0.238709	-0.538649
C56	C	1.302488	0.094625	-0.205315
C57	C	1.635822	0.427958	0.128018
C58	C	0.922002	-0.297495	-0.479686
C59	C	1.255335	0.035838	-0.146352
C60	C	1.588668	0.369171	0.186981
C61	C	0.827778	-0.312065	-0.465097
C62	C	1.161112	0.021268	-0.131764
C63	C	1.494445	0.354601	0.201570
C64	C	0.780699	-0.267845	-0.509465
C65	C	1.114032	0.065488	-0.176132
C66	C	1.447366	0.398822	0.157202
C67	C	0.827852	-0.209053	-0.568425
C68	C	1.161186	0.124280	-0.235092
C69	C	1.494519	0.457614	0.098242
C70	C	0.922085	-0.194486	-0.583020
C71	C	1.255418	0.138847	-0.249686
C72	C	1.588752	0.472180	0.083647
C73	C	0.780782	-0.164836	-0.612799
C74	C	1.114116	0.168497	-0.279466
C75	C	1.447449	0.501831	0.053868
C76	C	0.827936	-0.106044	-0.671759
C77	C	1.161269	0.227289	-0.338426
C78	C	1.494602	0.560623	-0.005092
C79	C	0.922159	-0.091480	-0.686351
C80	C	1.255492	0.241854	-0.353017
C81	C	1.588826	0.575187	-0.019684
C82	C	0.969238	-0.135700	-0.641983
C83	C	1.302572	0.197634	-0.308649
C84	C	1.635905	0.530967	0.024684
C85	C	0.686550	-0.179403	-0.598204
C86	C	1.019883	0.153931	-0.264871
C87	C	1.353217	0.487264	0.068463
C88	C	0.686633	-0.076394	-0.701538
C89	C	1.019967	0.256940	-0.368205
C90	C	1.353300	0.590273	-0.034871
C91	C	0.780857	-0.061824	-0.716127
C92	C	1.114190	0.271509	-0.382794
C93	C	1.447523	0.604843	-0.049460
C94	C	1.303774	-0.396509	-0.590484
C95	C	1.637108	-0.063176	-0.257151
C96	C	1.970441	0.270157	0.076183
C97	C	1.303820	-0.486123	-0.590504
C98	C	1.637154	-0.152790	-0.257170
C99	C	1.970487	0.180543	0.076163
C100	C	1.303978	-0.814274	-0.590612
C101	C	1.637311	-0.480941	-0.257279
C102	C	1.970644	-0.147608	0.076055
C103	C	1.303931	-0.722973	-0.590584
C104	C	1.637264	-0.389640	-0.257250
C105	C	1.970598	-0.056307	0.076083
C106	C	1.303898	-0.650202	-0.590557
C107	C	1.637232	-0.316869	-0.257224
C108	C	1.970565	0.016465	0.076109
C109	C	1.303853	-0.558895	-0.590530
C110	C	1.637186	-0.225561	-0.257197
C111	C	1.970520	0.107772	0.076137
C112	C	1.539194	-0.150666	-0.627024
C113	C	1.872528	0.182667	-0.293691
C114	C	2.205861	0.516001	0.039643
C115	C	1.639480	-0.135181	-0.642575
C116	C	1.972813	0.198153	-0.309242
C117	C	2.306147	0.531486	0.024092
C118	C	1.303904	-0.186945	-0.800847
C119	C	1.637237	0.146388	-0.467514
C120	C	1.970571	0.479722	-0.134180
C121	C	1.303923	-0.186920	-0.890471
C122	C	1.637256	0.146414	-0.557138
C123	C	1.970590	0.479747	-0.223804
C124	C	1.303970	0.023321	-0.590600
C125	C	1.637303	0.356654	-0.257266
C126	C	1.970637	0.689987	0.076067
C127	C	1.304017	0.112949	-0.590629
C128	C	1.637350	0.446283	-0.257296
C129	C	1.970684	0.779616	0.076038
C130	C	1.303938	-0.186899	-0.963256
C131	C	1.637271	0.146434	-0.629922
C132	C	1.970604	0.479767	-0.296589
C133	C	1.303959	-0.186866	-1.054568
C134	C	1.637292	0.146467	-0.721234
C135	C	1.970625	0.479801	-0.387901
C136	C	1.303980	-0.186835	-1.127347
C137	C	1.637313	0.146499	-0.794014
C138	C	1.970647	0.479832	-0.460681
C139	C	1.304002	-0.186802	-1.218665
C140	C	1.637336	0.146531	-0.885332
C141	C	1.970669	0.479865	-0.551998
C142	C	1.303868	-0.186999	-0.381041
C143	C	1.637201	0.146335	-0.047708
C144	C	1.970534	0.479668	0.285625
C145	C	1.304024	-0.186770	-0.291445
C146	C	1.637357	0.146563	0.041888
C147	C	1.970690	0.479896	0.375222
H148	H	0.789393	-0.359934	-0.417092
H149	H	1.122726	-0.026601	-0.083758
H150	H	1.456060	0.306733	0.249575
H151	H	0.960342	-0.333496	-0.443571
H152	H	1.293676	-0.000163	-0.110238
H153	H	1.627009	0.333170	0.223096
H154	H	0.703978	-0.279711	-0.497583
H155	H	1.037312	0.053622	-0.164250
H156	H	1.370645	0.386955	0.169084
H157	H	0.648167	-0.227273	-0.550199
H158	H	0.981500	0.106061	-0.216865
H159	H	1.314834	0.439394	0.116468
H160	H	0.648302	-0.040387	-0.737667
H161	H	0.981635	0.292946	-0.404334
H162	H	1.314968	0.626280	-0.071000
N163	N	1.065488	-0.120807	-0.656873
N164	N	1.398821	0.212526	-0.323539
N165	N	1.732155	0.545860	0.009794
N166	N	1.107513	-0.097368	-0.600512
N167	N	1.440847	0.235965	-0.267179
N168	N	1.774180	0.569298	0.066154
H169	H	1.175491	-0.086851	-0.611025
H170	H	1.508825	0.246482	-0.277692
H171	H	1.842158	0.579816	0.055641
N172	N	0.970312	-0.031436	-0.746591
N173	N	1.303646	0.301897	-0.413258
N174	N	1.636979	0.635230	-0.079925
N175	N	0.928272	0.008038	-0.786204
N176	N	1.261605	0.341371	-0.452871
N177	N	1.594939	0.674705	-0.119537
H178	H	0.962278	0.050443	-0.828752
H179	H	1.295612	0.383776	-0.495418
H180	H	1.628945	0.717109	-0.162085
N181	N	0.829028	-0.001763	-0.776342
N182	N	1.162361	0.331570	-0.443009
N183	N	1.495695	0.664904	-0.109676
N184	N	0.881609	0.057781	-0.756203
N185	N	1.214942	0.391114	-0.422870
N186	N	1.548275	0.724448	-0.089537
H187	H	0.915631	0.100201	-0.798729
H188	H	1.248964	0.433534	-0.465396
H189	H	1.582298	0.766867	-0.132062
