data_functionalizedCrystal
_audit_creation_method	'MofGen! by Chris Wilmer'
_symmetry_space_group_name_H-M	'P1'
_symmetry_Int_Tables_number	1
_symmetry_cell_setting	triclinic
loop_
_symmetry_equiv_pos_as_xyz
  x,y,z
_cell_length_a	16.959455
_cell_length_b	21.295417
_cell_length_c	16.959447
_cell_angle_alpha	89.965854
_cell_angle_beta	89.985678
_cell_angle_gamma	90.026649
loop_
_atom_site_label
_atom_site_type_symbol
_atom_site_fract_x
_atom_site_fract_y
_atom_site_fract_z
Zn1	Zn	1.208331	-0.250648	-0.446888
Zn2	Zn	1.208231	-0.355925	-0.314700
Zn3	Zn	1.076159	-0.250668	-0.314725
Zn4	Zn	1.076102	-0.355878	-0.446839
O5	O	1.142206	-0.303280	-0.380788
O6	O	1.318929	-0.264625	-0.429363
O7	O	1.190694	-0.341990	-0.204093
O8	O	1.093758	-0.162576	-0.332288
O9	O	1.318855	-0.341971	-0.332245
O10	O	1.190864	-0.162561	-0.429387
O11	O	1.093661	-0.264658	-0.204111
O12	O	0.965541	-0.264613	-0.332240
O13	O	1.093660	-0.341891	-0.557456
O14	O	0.965499	-0.341910	-0.429304
O15	O	1.190808	-0.264579	-0.557492
O16	O	1.190638	-0.444008	-0.332198
O17	O	1.093563	-0.443973	-0.429280
C18	C	0.936840	-0.303259	-0.380770
C19	C	0.848983	-0.303265	-0.380781
C20	C	1.142105	-0.466831	-0.380748
C21	C	1.142134	-0.536799	-0.380757
C22	C	0.477505	-0.262998	-0.330353
C23	C	0.477510	-0.343613	-0.431269
C24	C	0.560056	-0.343604	-0.431264
C25	C	0.601330	-0.303292	-0.380802
C26	C	0.560058	-0.262989	-0.330345
C27	C	0.601333	-0.383911	-0.481714
C28	C	0.683884	-0.383904	-0.481711
C29	C	0.725160	-0.343588	-0.431252
C30	C	0.683884	-0.303283	-0.380794
C31	C	0.725158	-0.262971	-0.330332
C32	C	0.683883	-0.222662	-0.279877
C33	C	0.601334	-0.222673	-0.279886
C34	C	0.807709	-0.343577	-0.431243
C35	C	0.807711	-0.262962	-0.330324
C36	C	1.192668	-0.569601	-0.431353
C37	C	1.192696	-0.635344	-0.431372
C38	C	1.142198	-0.668282	-0.380782
C39	C	1.091654	-0.635472	-0.330183
C40	C	1.091622	-0.569731	-0.330170
N41	N	1.136233	-0.771547	-0.311606
N42	N	1.136268	-0.833998	-0.311620
C43	C	1.142291	-0.866356	-0.380818
N44	N	1.148292	-0.833904	-0.450002
N45	N	1.148261	-0.771447	-0.449987
C46	C	1.142227	-0.739567	-0.380790
C47	C	1.192858	-0.970444	-0.431439
C48	C	1.192880	-1.036188	-0.431460
C49	C	1.091842	-1.036315	-0.330263
C50	C	1.091816	-0.970572	-0.330249
C51	C	1.142328	-0.937641	-0.380836
C52	C	1.348374	-0.303301	-0.380807
C53	C	1.436231	-0.303310	-0.380815
C54	C	1.142239	-0.303228	-0.586956
C55	C	1.142253	-0.303205	-0.674813
C56	C	1.142328	-0.139089	-0.380845
C57	C	1.142381	-0.069121	-0.380870
C58	C	1.091767	-0.343392	-1.046273
C59	C	1.192928	-0.262886	-1.046305
C60	C	1.192907	-0.262900	-0.963759
C61	C	1.142316	-0.303160	-0.922466
C62	C	1.091746	-0.343407	-0.963719
C63	C	1.243482	-0.222658	-0.922500
C64	C	1.243463	-0.222670	-0.839949
C65	C	1.192867	-0.262928	-0.798654
C66	C	1.142295	-0.303176	-0.839912
C67	C	1.091704	-0.343437	-0.798619
C68	C	1.041126	-0.383682	-0.839876
C69	C	1.041150	-0.383665	-0.922425
C70	C	1.192844	-0.262945	-0.716106
C71	C	1.091683	-0.343453	-0.716066
C72	C	1.142219	-0.303286	-0.175422
C73	C	1.142358	-0.303131	-0.087566
H74	H	0.841311	-0.230131	-0.289236
C75	C	1.036219	-0.934489	-0.274594
N76	N	0.994336	-0.907311	-0.232677
H77	H	1.234121	-0.230111	-1.079931
H78	H	1.234025	-0.230179	-0.682519
H79	H	1.050537	-0.662294	-0.288994
C80	C	1.248238	-0.533381	-0.486996
N81	N	1.290095	-0.506098	-0.528904
C82	C	0.729279	-0.428242	-0.537215
N83	N	0.763471	-0.461636	-0.579023
H84	H	1.284646	-0.189899	-0.806365
C85	C	0.432105	-0.387955	-0.486772
N86	N	0.397903	-0.421354	-0.528580
C87	C	1.248478	-1.072270	-0.487118
N88	N	1.290359	-1.099447	-0.529039
H89	H	0.717499	-0.189843	-0.238787
C90	C	1.248410	-0.934217	-0.487096
N91	N	1.290251	-0.906933	-0.529019
C92	C	1.036283	-1.072543	-0.274624
N93	N	0.994429	-1.099833	-0.232719
C94	C	1.299119	-0.178367	-0.967927
N95	N	1.341023	-0.145002	-1.002146
C96	C	0.432102	-0.218660	-0.274855
N97	N	0.397904	-0.185264	-0.233054
H98	H	0.567721	-0.189857	-0.238807
H99	H	0.567722	-0.416735	-0.522792
H100	H	1.050471	-0.543023	-0.288969
H101	H	1.050586	-0.376157	-1.079867
C102	C	0.853107	-0.387914	-0.486740
N103	N	0.887301	-0.421309	-0.528545
H104	H	1.233841	-0.662056	-0.472583
C105	C	1.036026	-0.387742	-0.670650
N106	N	0.994105	-0.421102	-0.636444
C107	C	0.985478	-0.427968	-0.794443
N108	N	0.943564	-0.461322	-0.760220
H109	H	0.999975	-0.416433	-0.956023
