data_functionalizedCrystal
_audit_creation_method	'MofGen! by Chris Wilmer'
_symmetry_space_group_name_H-M	'P1'
_symmetry_Int_Tables_number	1
_symmetry_cell_setting	triclinic
loop_
_symmetry_equiv_pos_as_xyz
  x,y,z
_cell_length_a	17.038272
_cell_length_b	19.188930
_cell_length_c	16.098538
_cell_angle_alpha	92.708456
_cell_angle_beta	87.069734
_cell_angle_gamma	87.128169
loop_
_atom_site_label
_atom_site_type_symbol
_atom_site_fract_x
_atom_site_fract_y
_atom_site_fract_z
O1	O	1.040399	0.148677	-0.069168
O2	O	1.540399	0.648677	0.430832
O3	O	0.812777	0.146269	-0.069192
O4	O	1.312777	0.646269	0.430808
O5	O	0.933156	0.046226	-0.069163
O6	O	1.433156	0.546226	0.430837
O7	O	0.920020	0.248720	-0.069197
O8	O	1.420020	0.748720	0.430803
O9	O	0.926124	0.052046	0.069348
O10	O	1.426124	0.552046	0.569348
O11	O	0.805745	0.152089	0.069319
O12	O	1.305745	0.652089	0.569319
O13	O	1.033367	0.154497	0.069343
O14	O	1.533367	0.654497	0.569343
Zn15	Zn	0.918440	0.154217	0.091323
Zn16	Zn	1.418440	0.654217	0.591323
Zn17	Zn	0.927705	0.146549	-0.091172
Zn18	Zn	1.427705	0.646549	0.408828
O19	O	0.912989	0.254540	0.069314
O20	O	1.412989	0.754540	0.569314
C21	C	0.780140	0.146990	0.000061
C22	C	1.280140	0.646990	0.500061
C23	C	0.693368	0.140458	0.000052
C24	C	1.193368	0.640458	0.500052
C25	C	0.643067	0.200424	0.000043
C26	C	1.143067	0.700424	0.500043
C27	C	0.561535	0.194283	0.000055
C28	C	1.061535	0.694283	0.500055
C29	C	0.530306	0.128176	0.000071
C30	C	1.030306	0.628176	0.500071
C31	C	0.580613	0.068205	0.000083
C32	C	1.080613	0.568205	0.500083
C33	C	0.662144	0.074347	0.000077
C34	C	1.162144	0.574347	0.500077
C35	C	0.284615	0.106479	0.000097
C36	C	0.784615	0.606479	0.500097
C37	C	0.203078	0.100342	0.000101
C38	C	0.703078	0.600342	0.500101
C39	C	0.184005	0.226420	0.000075
C40	C	0.684005	0.726420	0.500075
C41	C	0.265538	0.232556	0.000063
C42	C	0.765538	0.732556	0.500063
C43	C	0.315838	0.172586	0.000080
C44	C	0.815838	0.672586	0.500080
C45	C	0.446968	0.121897	0.000081
C46	C	0.946968	0.621897	0.500081
C47	C	0.399175	0.178865	0.000075
C48	C	0.899175	0.678865	0.500075
C49	C	0.929215	0.023099	0.000095
C50	C	1.429215	0.523099	0.500095
C51	C	0.927937	-0.054485	0.000102
C52	C	1.427937	0.445515	0.500102
C53	C	0.998572	-0.095020	0.000113
C54	C	1.498572	0.404980	0.500113
C55	C	0.997373	-0.167919	0.000100
C56	C	1.497373	0.332081	0.500100
C57	C	0.925534	-0.200279	0.000092
C58	C	1.425534	0.299721	0.500092
C59	C	0.854890	-0.159735	0.000076
C60	C	1.354890	0.340265	0.500076
C61	C	0.856092	-0.086838	0.000081
C62	C	1.356092	0.413162	0.500081
N63	N	0.868229	-0.309715	0.047224
N64	N	1.368229	0.190285	0.547224
N65	N	0.867092	-0.378964	0.047221
N66	N	1.367092	0.121036	0.547221
C67	C	0.921910	-0.419913	0.000075
C68	C	1.421910	0.080087	0.500075
N69	N	0.977918	-0.388997	-0.047058
N70	N	1.477918	0.111003	0.452942
N71	N	0.979057	-0.319742	-0.047051
N72	N	1.479057	0.180258	0.452949
C73	C	0.924223	-0.279323	0.000086
C74	C	1.424223	0.220677	0.500086
C75	C	0.991249	-0.539494	0.000070
C76	C	1.491249	-0.039494	0.500070
C77	C	0.990047	-0.612395	0.000052
C78	C	1.490047	-0.112395	0.500052
C79	C	0.847562	-0.604208	0.000036
C80	C	1.347562	-0.104208	0.500036
C81	C	0.848767	-0.531310	0.000046
C82	C	1.348767	-0.031310	0.500046
C83	C	0.920612	-0.498957	0.000067
C84	C	1.420612	0.001043	0.500067
C85	C	1.066005	0.153776	0.000089
C86	C	1.566005	0.653776	0.500089
C87	C	1.152777	0.160308	0.000092
C88	C	1.652777	0.660308	0.500092
C89	C	0.916930	0.277667	0.000054
C90	C	1.416930	0.777667	0.500054
C91	C	0.918208	0.355250	0.000042
C92	C	1.418208	0.855250	0.500042
N93	N	0.912123	0.159449	0.215871
N94	N	1.412123	0.659449	0.715871
N95	N	0.934028	0.141311	-0.215719
N96	N	1.434028	0.641311	0.284281
C97	C	0.963235	0.117004	0.259468
C98	C	1.463235	0.617004	0.759468
C99	C	0.958823	0.120672	0.346656
C100	C	1.458823	0.620672	0.846656
C101	C	0.903302	0.166789	0.390245
C102	C	1.403302	0.666789	0.890245
C103	C	0.852184	0.209235	0.346641
C104	C	1.352184	0.709235	0.846641
C105	C	0.856593	0.205564	0.259455
C106	C	1.356593	0.705564	0.759455
C107	C	0.887319	0.180086	0.653491
C108	C	1.387319	0.680086	1.153491
C109	C	0.882916	0.183756	0.740683
C110	C	1.382916	0.683756	1.240683
C111	C	0.989554	0.095192	0.740692
C112	C	1.489554	0.595192	1.240692
C113	C	0.993961	0.091527	0.653504
C114	C	1.493961	0.591527	1.153504
C115	C	0.942841	0.133971	0.609908
C116	C	1.442841	0.633971	1.109908
C117	C	0.898792	0.170540	0.479365
C118	C	1.398792	0.670540	0.979365
C119	C	0.947347	0.130216	0.520790
C120	C	1.447347	0.630216	1.020790
H121	H	0.177655	0.046506	0.000113
H122	H	0.677655	0.546506	0.500113
C123	C	0.412608	0.049180	0.000093
C124	C	0.912608	0.549180	0.500093
N125	N	0.386725	-0.005591	0.000103
N126	N	0.886725	0.494409	0.500103
H127	H	1.049750	-0.513152	0.000084
H128	H	1.549750	-0.013152	0.500084
H129	H	0.789070	-0.630555	0.000025
H130	H	1.289070	-0.130555	0.500025
C131	C	0.299882	0.305280	0.000059
C132	C	0.799882	0.805280	0.500059
N133	N	0.325750	0.360057	0.000058
N134	N	0.825750	0.860057	0.500058
H135	H	0.796399	-0.186087	0.000067
H136	H	1.296399	0.313913	0.500067
H137	H	1.031173	0.060635	0.776196
H138	H	1.531173	0.560635	1.276196
H139	H	0.992550	0.092665	0.485297
H140	H	1.492550	0.592665	0.985297
C141	C	1.077604	-0.059437	0.000130
C142	C	1.577604	0.440563	0.500130
N143	N	1.137132	-0.032634	0.000140
N144	N	1.637132	0.467366	0.500140
H145	H	0.853587	0.208090	0.514862
H146	H	1.353587	0.708090	1.014862
H147	H	0.143042	0.275245	0.000063
H148	H	0.643042	0.775245	0.500063
H149	H	1.054894	-0.200929	0.000106
H150	H	1.554894	0.299071	0.500106
C151	C	0.821834	0.234488	0.788629
C152	C	1.321834	0.734488	1.288629
N153	N	0.775829	0.272698	0.824742
N154	N	1.275829	0.772698	1.324742
H155	H	0.325560	0.057646	0.000111
H156	H	0.825560	0.557646	0.500111
C157	C	0.771062	-0.486719	0.000038
C158	C	1.271062	0.013281	0.500038
N159	N	0.712530	-0.453134	0.000028
N160	N	1.212530	0.046866	0.500028
H161	H	0.424604	0.232690	0.000067
H162	H	0.924604	0.732690	0.500067
H163	H	0.555180	0.014379	0.000108
H164	H	1.055180	0.514379	0.500108
C165	C	1.024312	0.066272	0.211528
C166	C	1.524312	0.566272	0.711528
N167	N	1.070315	0.028056	0.175422
N168	N	1.570315	0.528056	0.675422
C169	C	0.506206	0.260252	0.000060
C170	C	1.006206	0.760252	0.500060
N171	N	0.464532	0.309943	0.000069
N172	N	0.964532	0.809943	0.500069
C173	C	0.831186	0.226873	0.605547
C174	C	1.331186	0.726873	1.105547
N175	N	0.788940	0.262150	0.569432
N176	N	1.288940	0.762150	1.069432
H177	H	0.806974	0.246782	0.382136
H178	H	1.306974	0.746782	0.882136
H179	H	1.039171	0.053976	0.618016
H180	H	1.539171	0.553976	1.118016
H181	H	1.000442	0.086110	0.382152
H182	H	1.500442	0.586110	0.882152
H183	H	0.703099	0.025516	0.000084
H184	H	1.203099	0.525516	0.500084
H185	H	0.668487	0.254256	0.000029
H186	H	1.168487	0.754256	0.500029
C187	C	0.800372	0.252262	0.211498
C188	C	1.300372	0.752262	0.711498
N189	N	0.758024	0.287438	0.175378
N190	N	1.258024	0.787438	0.675378
H191	H	1.047569	-0.645398	0.000056
H192	H	1.547569	-0.145398	0.500056
H193	H	0.798571	-0.053834	0.000072
H194	H	1.298571	0.446166	0.500072
