data_functionalizedCrystal
_audit_creation_method	'MofGen! by Chris Wilmer'
_symmetry_space_group_name_H-M	'P1'
_symmetry_Int_Tables_number	1
_symmetry_cell_setting	triclinic
loop_
_symmetry_equiv_pos_as_xyz
  x,y,z
_cell_length_a	17.038272
_cell_length_b	19.188930
_cell_length_c	16.098538
_cell_angle_alpha	92.708456
_cell_angle_beta	87.069734
_cell_angle_gamma	87.128169
loop_
_atom_site_label
_atom_site_type_symbol
_atom_site_fract_x
_atom_site_fract_y
_atom_site_fract_z
O1	O	1.040399	0.148677	-0.069168
O2	O	1.373733	0.482011	0.264165
O3	O	1.707066	0.815344	0.597499
O4	O	0.812777	0.146269	-0.069192
O5	O	1.146111	0.479603	0.264141
O6	O	1.479444	0.812936	0.597475
O7	O	0.933156	0.046226	-0.069163
O8	O	1.266489	0.379560	0.264170
O9	O	1.599823	0.712893	0.597504
O10	O	0.920020	0.248720	-0.069197
O11	O	1.253354	0.582053	0.264136
O12	O	1.586687	0.915387	0.597470
O13	O	0.926124	0.052046	0.069348
O14	O	1.259458	0.385379	0.402682
O15	O	1.592791	0.718713	0.736015
O16	O	0.805745	0.152089	0.069319
O17	O	1.139079	0.485422	0.402652
O18	O	1.472412	0.818755	0.735986
O19	O	1.033367	0.154497	0.069343
O20	O	1.366701	0.487830	0.402677
O21	O	1.700034	0.821163	0.736010
Zn22	Zn	0.918440	0.154217	0.091323
Zn23	Zn	1.251773	0.487550	0.424656
Zn24	Zn	1.585107	0.820883	0.757990
Zn25	Zn	0.927705	0.146549	-0.091172
Zn26	Zn	1.261038	0.479883	0.242162
Zn27	Zn	1.594371	0.813216	0.575495
O28	O	0.912989	0.254540	0.069314
O29	O	1.246322	0.587873	0.402648
O30	O	1.579655	0.921206	0.735981
C31	C	0.780140	0.146990	0.000061
C32	C	1.113473	0.480323	0.333394
C33	C	1.446807	0.813656	0.666727
C34	C	0.693368	0.140458	0.000052
C35	C	1.026701	0.473791	0.333385
C36	C	1.360035	0.807124	0.666719
C37	C	0.929215	0.023099	0.000095
C38	C	1.262548	0.356432	0.333428
C39	C	1.595881	0.689765	0.666762
C40	C	0.927937	-0.054485	0.000102
C41	C	1.261271	0.278849	0.333435
C42	C	1.594604	0.612182	0.666769
C43	C	0.643067	0.200424	0.000043
C44	C	0.976400	0.533757	0.333376
C45	C	1.309734	0.867091	0.666709
C46	C	0.561535	0.194283	0.000055
C47	C	0.894868	0.527617	0.333389
C48	C	1.228202	0.860950	0.666722
C49	C	0.530306	0.128176	0.000071
C50	C	0.863639	0.461509	0.333405
C51	C	1.196973	0.794842	0.666738
C52	C	0.580613	0.068205	0.000083
C53	C	0.913947	0.401539	0.333416
C54	C	1.247280	0.734872	0.666750
C55	C	0.662144	0.074347	0.000077
C56	C	0.995477	0.407680	0.333410
C57	C	1.328810	0.741013	0.666743
C58	C	0.284615	0.106479	0.000097
C59	C	0.617948	0.439812	0.333430
C60	C	0.951281	0.773146	0.666764
C61	C	0.203078	0.100342	0.000101
C62	C	0.536412	0.433675	0.333435
C63	C	0.869745	0.767008	0.666768
C64	C	0.184005	0.226420	0.000075
C65	C	0.517338	0.559754	0.333408
C66	C	0.850672	0.893087	0.666742
C67	C	0.265538	0.232556	0.000063
C68	C	0.598871	0.565889	0.333397
C69	C	0.932205	0.899223	0.666730
C70	C	0.315838	0.172586	0.000080
C71	C	0.649171	0.505919	0.333413
C72	C	0.982505	0.839252	0.666746
C73	C	0.446968	0.121897	0.000081
C74	C	0.780301	0.455231	0.333415
C75	C	1.113634	0.788564	0.666748
C76	C	0.399175	0.178865	0.000075
C77	C	0.732508	0.512198	0.333409
C78	C	1.065841	0.845532	0.666742
C79	C	0.998572	-0.095020	0.000113
C80	C	1.331905	0.238313	0.333447
C81	C	1.665238	0.571647	0.666780
C82	C	0.997373	-0.167919	0.000100
C83	C	1.330706	0.165414	0.333433
C84	C	1.664039	0.498748	0.666767
C85	C	0.925534	-0.200279	0.000092
C86	C	1.258867	0.133054	0.333425
C87	C	1.592201	0.466388	0.666758
C88	C	0.854890	-0.159735	0.000076
C89	C	1.188224	0.173599	0.333409
C90	C	1.521557	0.506932	0.666742
C91	C	0.856092	-0.086838	0.000081
C92	C	1.189425	0.246496	0.333414
C93	C	1.522759	0.579829	0.666747
N94	N	0.868229	-0.309715	0.047224
N95	N	1.201562	0.023618	0.380557
N96	N	1.534896	0.356952	0.713891
N97	N	0.867092	-0.378964	0.047221
N98	N	1.200426	-0.045631	0.380554
N99	N	1.533759	0.287702	0.713888
C100	C	0.921910	-0.419913	0.000075
C101	C	1.255243	-0.086580	0.333408
C102	C	1.588576	0.246753	0.666741
N103	N	0.977918	-0.388997	-0.047058
N104	N	1.311251	-0.055664	0.286275
N105	N	1.644585	0.277669	0.619609
N106	N	0.979057	-0.319742	-0.047051
N107	N	1.312390	0.013592	0.286282
N108	N	1.645724	0.346925	0.619615
C109	C	0.924223	-0.279323	0.000086
C110	C	1.257557	0.054010	0.333419
C111	C	1.590890	0.387344	0.666752
C112	C	0.991249	-0.539494	0.000070
C113	C	1.324582	-0.206161	0.333404
C114	C	1.657916	0.127172	0.666737
C115	C	0.990047	-0.612395	0.000052
C116	C	1.323380	-0.279061	0.333385
C117	C	1.656714	0.054272	0.666718
C118	C	0.847562	-0.604208	0.000036
C119	C	1.180896	-0.270875	0.333369
C120	C	1.514229	0.062458	0.666702
C121	C	0.848767	-0.531310	0.000046
C122	C	1.182100	-0.197977	0.333379
C123	C	1.515433	0.135357	0.666712
C124	C	0.920612	-0.498957	0.000067
C125	C	1.253945	-0.165624	0.333400
C126	C	1.587279	0.167709	0.666734
C127	C	1.066005	0.153776	0.000089
C128	C	1.399338	0.487110	0.333422
C129	C	1.732671	0.820443	0.666755
C130	C	1.152777	0.160308	0.000092
C131	C	1.486110	0.493641	0.333425
C132	C	1.819444	0.826974	0.666758
C133	C	0.916930	0.277667	0.000054
C134	C	1.250263	0.611000	0.333388
C135	C	1.583597	0.944334	0.666721
C136	C	0.918208	0.355250	0.000042
C137	C	1.251541	0.688584	0.333375
C138	C	1.584875	1.021917	0.666709
N139	N	0.912123	0.159449	0.215871
N140	N	1.245456	0.492783	0.549204
N141	N	1.578789	0.826116	0.882537
N142	N	0.934028	0.141311	-0.215719
N143	N	1.267362	0.474645	0.117614
N144	N	1.600695	0.807978	0.450947
C145	C	0.963235	0.117004	0.259468
C146	C	1.296568	0.450338	0.592801
C147	C	1.629902	0.783671	0.926135
C148	C	0.958823	0.120672	0.346656
C149	C	1.292156	0.454005	0.679989
C150	C	1.625490	0.787339	1.013323
C151	C	0.903302	0.166789	0.390245
C152	C	1.236635	0.500122	0.723578
C153	C	1.569969	0.833455	1.056911
C154	C	0.852184	0.209235	0.346641
C155	C	1.185518	0.542569	0.679975
C156	C	1.518851	0.875902	1.013308
C157	C	0.856593	0.205564	0.259455
C158	C	1.189926	0.538897	0.592788
C159	C	1.523260	0.872230	0.926122
C160	C	0.887319	0.180086	0.653491
C161	C	1.220653	0.513420	0.986824
C162	C	1.553986	0.846753	1.320158
C163	C	0.882916	0.183756	0.740683
C164	C	1.216249	0.517090	1.074017
C165	C	1.549583	0.850423	1.407350
C166	C	0.989554	0.095192	0.740692
C167	C	1.322888	0.428525	1.074025
C168	C	1.656221	0.761858	1.407359
C169	C	0.993961	0.091527	0.653504
C170	C	1.327295	0.424861	0.986837
C171	C	1.660628	0.758194	1.320171
C172	C	0.942841	0.133971	0.609908
C173	C	1.276174	0.467305	0.943241
C174	C	1.609508	0.800638	1.276575
C175	C	0.898792	0.170540	0.479365
C176	C	1.232126	0.503873	0.812698
C177	C	1.565459	0.837207	1.146031
C178	C	0.947347	0.130216	0.520790
C179	C	1.280680	0.463549	0.854123
C180	C	1.614014	0.796882	1.187456
H181	H	0.668487	0.254256	0.000029
H182	H	1.001820	0.587589	0.333362
H183	H	1.335153	0.920922	0.666696
H184	H	0.421531	0.068073	0.000118
H185	H	0.754864	0.401406	0.333451
H186	H	1.088197	0.734740	0.666785
H187	H	0.520582	0.243114	0.000047
H188	H	0.853916	0.576448	0.333380
H189	H	1.187249	0.909781	0.666713
Br190	Br	0.752900	-0.476294	0.000031
Br191	Br	1.086233	-0.142961	0.333364
Br192	Br	1.419566	0.190373	0.666698
H193	H	1.039171	0.053976	0.618016
H194	H	1.372504	0.387309	0.951349
H195	H	1.705837	0.720642	1.284682
Br196	Br	0.750065	-0.648118	0.000016
Br197	Br	1.083399	-0.314784	0.333349
Br198	Br	1.416732	0.018549	0.666683
Br199	Br	0.760223	-0.031821	0.000063
Br200	Br	1.093556	0.301512	0.333396
Br201	Br	1.426890	0.634845	0.666729
Br202	Br	0.787218	0.263165	0.200287
Br203	Br	1.120551	0.596499	0.533620
Br204	Br	1.453885	0.929832	0.866954
Br205	Br	0.307915	0.322276	0.000032
Br206	Br	0.641248	0.655610	0.333366
Br207	Br	0.974581	0.988943	0.666699
H208	H	1.057074	-0.068683	0.000128
H209	H	1.390407	0.264650	0.333461
H210	H	1.723741	0.597983	0.666795
Br211	Br	1.085918	-0.667409	0.000058
Br212	Br	1.419251	-0.334076	0.333392
Br213	Br	1.752584	-0.000743	0.666725
H214	H	1.008449	0.079455	0.223984
H215	H	1.341782	0.412788	0.557317
H216	H	1.675116	0.746121	0.890650
H217	H	0.806974	0.246782	0.382136
H218	H	1.140307	0.580115	0.715470
H219	H	1.473641	0.913448	1.048803
Br220	Br	0.757395	-0.203650	0.000054
Br221	Br	1.090728	0.129683	0.333387
Br222	Br	1.424061	0.463017	0.666720
Br223	Br	0.160696	0.010619	0.000141
Br224	Br	0.494029	0.343952	0.333474
Br225	Br	0.827363	0.677286	0.666807
Br226	Br	0.823443	0.233126	0.538524
Br227	Br	1.156776	0.566460	0.871858
Br228	Br	1.490110	0.899793	1.205191
Br229	Br	1.088750	-0.495582	0.000108
Br230	Br	1.422083	-0.162249	0.333441
Br231	Br	1.755417	0.171084	0.666774
H232	H	1.000442	0.086110	0.382152
H233	H	1.333775	0.419443	0.715486
H234	H	1.667109	0.752776	1.048819
Br235	Br	1.058927	0.037591	0.799861
Br236	Br	1.392260	0.370924	1.133194
Br237	Br	1.725594	0.704257	1.466527
Br238	Br	0.807563	0.246352	0.799835
Br239	Br	1.140896	0.579685	1.133168
Br240	Br	1.474229	0.913019	1.466501
H241	H	0.845697	0.214647	0.618002
H242	H	1.179030	0.547981	0.951335
H243	H	1.512363	0.881314	1.284669
H244	H	0.143042	0.275245	0.000063
H245	H	0.476376	0.608578	0.333397
H246	H	0.809709	0.941911	0.666730
Br247	Br	0.352869	0.025090	0.000121
Br248	Br	0.686202	0.358423	0.333455
Br249	Br	1.019535	0.691756	0.666788
H250	H	0.555180	0.014379	0.000108
H251	H	0.888513	0.347713	0.333441
H252	H	1.221847	0.681046	0.666775
Br253	Br	1.022691	0.067626	0.461633
Br254	Br	1.356024	0.400960	0.794966
Br255	Br	1.689357	0.734293	1.128300
Br256	Br	0.441558	0.268580	0.000059
Br257	Br	0.774891	0.601913	0.333392
Br258	Br	1.108224	0.935247	0.666726
H259	H	0.703099	0.025516	0.000084
H260	H	1.036432	0.358849	0.333417
H261	H	1.369765	0.692182	0.666750
Br262	Br	1.093241	-0.222943	0.000112
Br263	Br	1.426574	0.110391	0.333445
Br264	Br	1.759908	0.443724	0.666779
