data_functionalizedCrystal
_audit_creation_method	'MofGen! by Chris Wilmer'
_symmetry_space_group_name_H-M	'P1'
_symmetry_Int_Tables_number	1
_symmetry_cell_setting	triclinic
loop_
_symmetry_equiv_pos_as_xyz
  x,y,z
_cell_length_a	15.297475
_cell_length_b	18.101395
_cell_length_c	15.296720
_cell_angle_alpha	99.643705
_cell_angle_beta	91.617114
_cell_angle_gamma	80.333681
loop_
_atom_site_label
_atom_site_type_symbol
_atom_site_fract_x
_atom_site_fract_y
_atom_site_fract_z
Zn1	Zn	1.253296	-0.576346	-0.726580
Zn2	Zn	1.278539	-0.682980	-0.580092
Zn3	Zn	1.132181	-0.534744	-0.554822
Zn4	Zn	1.106767	-0.675701	-0.701220
O5	O	1.192696	-0.617443	-0.640678
O6	O	1.379219	-0.610949	-0.728336
O7	O	1.280325	-0.648952	-0.454165
O8	O	1.148319	-0.436645	-0.577643
O9	O	1.397765	-0.689292	-0.620712
O10	O	1.237301	-0.467210	-0.703833
O11	O	1.172796	-0.540044	-0.435600
O12	O	1.006236	-0.532985	-0.553053
O13	O	1.105004	-0.676885	-0.827159
O14	O	0.987564	-0.636545	-0.660612
O15	O	1.212658	-0.603890	-0.845790
O16	O	1.255681	-0.785632	-0.596122
O17	O	1.129481	-0.780284	-0.685115
C18	C	0.965117	-0.579462	-0.601339
C19	C	0.867755	-0.563233	-0.584530
C20	C	0.554578	-0.733434	-0.760815
C21	C	0.646055	-0.748686	-0.776605
C22	C	0.701484	-0.702324	-0.728588
C23	C	0.665428	-0.640708	-0.664778
C24	C	0.573942	-0.625457	-0.648981
C25	C	0.720849	-0.594348	-0.616754
C26	C	0.684792	-0.532731	-0.552944
C27	C	0.593315	-0.517483	-0.537151
C28	C	0.537886	-0.563845	-0.585167
C29	C	0.812334	-0.609598	-0.632551
C30	C	0.831699	-0.501621	-0.520717
C31	C	0.740221	-0.486369	-0.504927
C32	C	1.192583	-0.809831	-0.640632
C33	C	1.192610	-0.892152	-0.640656
C34	C	1.192794	-1.191281	-0.640736
C35	C	1.113520	-1.156667	-0.696923
C36	C	1.113236	-1.070971	-0.696656
C37	C	1.192702	-1.042879	-0.640697
C38	C	1.183698	-1.059025	-0.544069
C39	C	1.183193	-1.144646	-0.544399
C40	C	1.281361	-1.177858	-0.680391
C41	C	1.280465	-1.092353	-0.682321
C42	C	1.192653	-0.959009	-0.640670
C43	C	1.192842	-1.275150	-0.640757
C44	C	1.421163	-0.655573	-0.680172
C45	C	1.518521	-0.671822	-0.697001
C46	C	1.153180	-0.644216	-0.869145
C47	C	1.136341	-0.655626	-0.966504
C48	C	1.192829	-0.424310	-0.640748
C49	C	1.192886	-0.342008	-0.640777
C50	C	1.313081	-0.535774	-1.279745
C51	C	1.328908	-0.525057	-1.188272
C52	C	1.280767	-0.557698	-1.132826
C53	C	1.216797	-0.601059	-1.168860
C54	C	1.200974	-0.611782	-1.260343
C55	C	1.168660	-0.633706	-1.113424
C56	C	1.104691	-0.677067	-1.149458
C57	C	1.088870	-0.687788	-1.240932
C58	C	1.137010	-0.655147	-1.296378
C59	C	1.184484	-0.622982	-1.021941
C60	C	1.072377	-0.698990	-1.002539
C61	C	1.056550	-0.709707	-1.094012
C62	C	1.232108	-0.590728	-0.413109
C63	C	1.249117	-0.579139	-0.315780
H64	H	0.710851	-0.436200	-0.452971
Br65	Br	1.004201	-1.170661	-0.651514
H66	H	1.293657	-0.548969	-1.058345
H67	H	1.124127	-0.663871	-1.370864
Br68	Br	0.825634	-0.723024	-0.750020
H69	H	1.117017	-1.060550	-0.767804
H70	H	0.876830	-0.463870	-0.481616
H71	H	1.341370	-1.074398	-0.645654
H72	H	0.675406	-0.798856	-0.828558
Br73	Br	1.415722	-0.466215	-1.139374
Br74	Br	0.479355	-0.796363	-0.825950
Br75	Br	1.378417	-0.491492	-1.354997
Br76	Br	1.119492	-1.208655	-0.815838
H77	H	1.047265	-1.037251	-0.669127
H78	H	1.036788	-0.723102	-1.270269
H79	H	1.118926	-1.151038	-0.512667
Br80	Br	0.969736	-0.768552	-1.142927
Br81	Br	1.276688	-1.182030	-0.470805
H82	H	1.240326	-1.040504	-0.500364
H83	H	1.340226	-1.200698	-0.639662
H84	H	1.236568	-0.587677	-0.992611
Br85	Br	1.007047	-0.743299	-0.927299
H86	H	0.841682	-0.659767	-0.684506
H87	H	1.120211	-1.024067	-0.512101
H88	H	1.287546	-1.083109	-0.753513
Br89	Br	0.413730	-0.543141	-0.563748
H90	H	1.292687	-1.210974	-0.750493
Br91	Br	0.544384	-0.433867	-0.450541
