data_functionalizedCrystal
_audit_creation_method	'MofGen! by Chris Wilmer'
_symmetry_space_group_name_H-M	'P1'
_symmetry_Int_Tables_number	1
_symmetry_cell_setting	triclinic
loop_
_symmetry_equiv_pos_as_xyz
  x,y,z
_cell_length_a	15.538191
_cell_length_b	27.732048
_cell_length_c	14.185569
_cell_angle_alpha	76.951782
_cell_angle_beta	97.875798
_cell_angle_gamma	64.957374
loop_
_atom_site_label
_atom_site_type_symbol
_atom_site_fract_x
_atom_site_fract_y
_atom_site_fract_z
O1	O	1.230624	-0.142649	-0.083403
O2	O	1.730624	0.357351	0.416597
O3	O	0.955548	-0.086692	-0.083413
O4	O	1.455548	0.413308	0.416587
O5	O	1.101634	-0.186537	-0.083389
O6	O	1.601634	0.313463	0.416611
O7	O	1.084538	-0.042804	-0.083428
O8	O	1.584538	0.457196	0.416572
O9	O	1.144789	-0.216030	0.083453
O10	O	1.644789	0.283970	0.583453
O11	O	0.998703	-0.116185	0.083429
O12	O	1.498703	0.383815	0.583429
O13	O	1.273779	-0.172142	0.083438
O14	O	1.773779	0.327858	0.583438
Cu15	Cu	1.140181	-0.146856	0.098667
Cu16	Cu	1.640181	0.353144	0.598667
Cu17	Cu	1.089145	-0.111978	-0.098642
Cu18	Cu	1.589145	0.388022	0.401358
O19	O	1.127693	-0.072297	0.083414
O20	O	1.627693	0.427703	0.583414
C21	C	0.941944	-0.095584	0.000007
C22	C	1.441944	0.404416	0.500007
C23	C	0.837116	-0.078145	0.000004
C24	C	1.337116	0.421855	0.500004
C25	C	0.551856	-0.251395	0.000035
C26	C	1.051856	0.248605	0.500035
C27	C	0.453350	-0.234996	0.000030
C28	C	0.953350	0.265004	0.500030
C29	C	0.429558	-0.142756	0.000005
C30	C	0.929558	0.357244	0.500005
C31	C	0.528065	-0.159148	0.000015
C32	C	1.028065	0.340852	0.500015
C33	C	0.589206	-0.213468	0.000029
C34	C	1.089206	0.286532	0.500029
C35	C	0.565415	-0.121222	0.000009
C36	C	1.065415	0.378778	0.500009
C37	C	0.663913	-0.137612	0.000014
C38	C	1.163913	0.362388	0.500014
C39	C	0.725059	-0.191928	0.000025
C40	C	1.225059	0.308072	0.500025
C41	C	0.687703	-0.229858	0.000034
C42	C	1.187703	0.270142	0.500034
C43	C	0.504271	-0.066901	-0.000012
C44	C	1.004271	0.433099	0.499988
C45	C	0.541621	-0.028974	-0.000018
C46	C	1.041621	0.471026	0.499982
C47	C	0.640122	-0.045365	-0.000006
C48	C	1.140122	0.454635	0.499994
C49	C	0.701268	-0.099682	0.000005
C50	C	1.201268	0.400318	0.500005
C51	C	0.677478	-0.007436	-0.000015
C52	C	1.177478	0.492564	0.499985
C53	C	0.775975	-0.023826	-0.000010
C54	C	1.275975	0.476174	0.499990
C55	C	0.799766	-0.116072	0.000010
C56	C	1.299766	0.383928	0.500010
C57	C	1.122854	-0.219229	0.000035
C58	C	1.622854	0.280771	0.500035
C59	C	1.121776	-0.272700	0.000043
C60	C	1.621776	0.227300	0.500043
C61	C	1.201288	-0.625155	-0.000006
C62	C	1.701288	-0.125155	0.499994
C63	C	1.197277	-0.826124	-0.000020
C64	C	1.697277	-0.326124	0.499980
O65	O	1.269986	-0.869853	-0.000061
O66	O	1.769986	-0.369853	0.499939
N67	N	1.110657	-0.830382	-0.000022
N68	N	1.610657	-0.330382	0.499978
C69	C	1.025032	-0.784391	-0.000027
C70	C	1.525032	-0.284391	0.499973
O71	O	0.951262	-0.792622	-0.000040
O72	O	1.451262	-0.292622	0.499960
C73	C	1.029042	-0.583422	-0.000020
C74	C	1.529042	-0.083422	0.499980
C75	C	1.115670	-0.579170	-0.000008
C76	C	1.615670	-0.079170	0.499992
C77	C	1.287908	-0.620901	0.000005
C78	C	1.787908	-0.120901	0.500005
C79	C	1.288912	-0.570663	0.000014
C80	C	1.788912	-0.070663	0.500014
C81	C	1.203294	-0.524678	0.000012
C82	C	1.703294	-0.024678	0.500012
C83	C	1.116673	-0.528931	0.000001
C84	C	1.616673	-0.028931	0.500001
C85	C	0.943416	-0.537431	-0.000033
C86	C	1.443416	-0.037431	0.499967
C87	C	0.944426	-0.487187	-0.000033
C88	C	1.444426	0.012813	0.499967
C89	C	1.031054	-0.482935	-0.000021
C90	C	1.531054	0.017065	0.499979
C91	C	1.032059	-0.432708	0.000008
C92	C	1.532059	0.067292	0.500008
N93	N	1.118679	-0.428450	0.000010
N94	N	1.618679	0.071550	0.500010
C95	C	1.204296	-0.474435	0.000012
C96	C	1.704296	0.025565	0.500012
C97	C	1.022933	-0.889905	-0.000029
C98	C	1.522933	-0.389905	0.499971
C99	C	1.021931	-0.940147	-0.000029
C100	C	1.521931	-0.440147	0.499971
C101	C	1.194176	-0.981877	-0.000023
C102	C	1.694176	-0.481877	0.499977
C103	C	1.195179	-0.931634	-0.000016
C104	C	1.695179	-0.431634	0.499984
C105	C	1.109553	-0.885647	-0.000027
C106	C	1.609553	-0.385647	0.499973
C107	C	1.206397	-0.368929	0.000032
C108	C	1.706397	0.131071	0.500032
C109	C	1.207393	-0.318685	0.000045
C110	C	1.707393	0.181315	0.500045
C111	C	1.035148	-0.276959	0.000034
C112	C	1.535148	0.223041	0.500034
C113	C	1.034152	-0.327200	0.000027
C114	C	1.534152	0.172800	0.500027
C115	C	1.119783	-0.373185	0.000022
C116	C	1.619783	0.126815	0.500022
O117	O	0.959386	-0.388955	0.000038
O118	O	1.459386	0.111045	0.500038
O119	O	1.278050	-0.466190	0.000002
O120	O	1.778050	0.033810	0.500002
C121	C	1.200284	-0.675394	-0.000015
C122	C	1.700284	-0.175394	0.499985
C123	C	1.113664	-0.679647	-0.000026
C124	C	1.613664	-0.179647	0.499974
C125	C	1.028046	-0.633662	-0.000028
C126	C	1.528046	-0.133662	0.499972
C127	C	1.112661	-0.729890	-0.000026
C128	C	1.612661	-0.229890	0.499974
C129	C	1.198279	-0.775875	-0.000024
C130	C	1.698279	-0.275875	0.499976
C131	C	1.284899	-0.771617	-0.000022
C132	C	1.784899	-0.271617	0.499978
C133	C	1.285902	-0.721379	-0.000013
C134	C	1.785902	-0.221379	0.499987
C135	C	0.941426	-0.637919	-0.000030
C136	C	1.441426	-0.137919	0.499970
C137	C	0.940430	-0.688160	-0.000038
C138	C	1.440430	-0.188160	0.499962
C139	C	1.026048	-0.734145	-0.000036
C140	C	1.526048	-0.234145	0.499964
C141	C	1.287382	-0.163249	0.000016
C142	C	1.787382	0.336751	0.500016
C143	C	1.392208	-0.180687	0.000012
C144	C	1.892208	0.319313	0.500012
C145	C	1.106473	-0.039604	-0.000012
C146	C	1.606473	0.460396	0.499988
C147	C	1.107549	0.013868	-0.000027
C148	C	1.607549	0.513868	0.499973
N149	N	1.176084	-0.171389	0.237444
N150	N	1.676084	0.328611	0.737444
N151	N	1.053250	-0.087450	-0.237419
N152	N	1.553250	0.412550	0.262581
C153	C	0.947768	-0.015393	0.605056
C154	C	1.447768	0.484607	1.105056
C155	C	0.974970	-0.033974	0.710083
C156	C	1.474970	0.466026	1.210083
C157	C	1.104355	-0.122366	0.710065
C158	C	1.604355	0.377634	1.210065
C159	C	1.077161	-0.103793	0.605037
C160	C	1.577161	0.396207	1.105037
C161	C	0.998867	-0.050306	0.552541
C162	C	1.498867	0.449694	1.052541
C163	C	1.128260	-0.138707	0.552521
C164	C	1.628260	0.361293	1.052521
C165	C	1.101070	-0.120134	0.447502
C166	C	1.601070	0.379866	0.947502
C167	C	1.022782	-0.066648	0.394999
C168	C	1.522782	0.433352	0.894999
C169	C	0.971678	-0.031733	0.447522
C170	C	1.471678	0.468267	0.947522
C171	C	1.206558	-0.192193	0.605019
C172	C	1.706558	0.307807	1.105019
C173	C	1.257657	-0.227106	0.552503
C174	C	1.757657	0.272894	1.052503
C175	C	1.230463	-0.208535	0.447482
C176	C	1.730463	0.291465	0.947482
C177	C	1.152174	-0.155049	0.394979
C178	C	1.652174	0.344951	0.894979
C179	C	1.281567	-0.243450	0.394959
C180	C	1.781567	0.256550	0.894959
C181	C	1.254378	-0.224877	0.289940
C182	C	1.754378	0.275123	0.789940
C183	C	1.124985	-0.136476	0.289960
C184	C	1.624985	0.363524	0.789960
H185	H	0.379763	-0.098528	-0.000010
H186	H	0.879763	0.401472	0.499990
O187	O	1.379339	-0.716800	-0.000013
O188	O	1.879339	-0.216800	0.499987
H189	H	1.401525	-0.706942	0.067994
H190	H	1.901525	-0.206942	0.567994
H191	H	0.963620	-0.330666	0.000044
H192	H	1.463620	0.169334	0.500044
O193	O	0.413070	-0.275910	0.000051
O194	O	0.913070	0.224090	0.500051
H195	H	0.351179	-0.258632	-0.067954
H196	H	0.851179	0.241368	0.432046
H197	H	0.874697	-0.449743	-0.000043
H198	H	1.374697	0.050257	0.499957
H199	H	1.265719	-0.928178	-0.000007
H200	H	1.765719	-0.428178	0.499993
O201	O	0.942804	-0.227357	0.000031
O202	O	1.442804	0.272643	0.500031
H203	H	0.958061	-0.191708	0.000027
H204	H	1.458061	0.308292	0.500027
O205	O	0.831302	-0.209615	0.000043
O206	O	1.331302	0.290385	0.500043
H207	H	0.834564	-0.182007	-0.067955
H208	H	1.334564	0.317993	0.432045
H209	H	0.737490	-0.274092	0.000051
H210	H	1.237490	0.225908	0.500051
O211	O	0.617815	-0.309983	0.000052
O212	O	1.117815	0.190017	0.500052
H213	H	0.575297	-0.333605	0.000053
H214	H	1.075297	0.166395	0.500053
O215	O	1.342097	-0.284794	0.609134
O216	O	1.842097	0.215206	1.109134
H217	H	1.410404	-0.287946	0.588964
H218	H	1.910404	0.212054	1.088964
O219	O	0.919854	0.003686	0.766727
O220	O	1.419854	0.503686	1.266727
H221	H	0.886652	-0.017139	0.814596
H222	H	1.386652	0.482861	1.314596
H223	H	0.424068	-0.053557	-0.000019
H224	H	0.924068	0.446443	0.499981
O225	O	1.286520	-1.031483	-0.000020
O226	O	1.786520	-0.531483	0.499980
H227	H	1.346931	-1.020090	-0.000013
H228	H	1.846931	-0.520090	0.499987
H229	H	1.228695	-0.207312	0.690532
H230	H	1.728695	0.292688	1.190532
O231	O	1.040518	-0.078789	0.233346
O232	O	1.540518	0.421211	0.733346
H233	H	0.982541	-0.082703	0.185531
H234	H	1.482541	0.417297	0.685531
H235	H	1.345321	-0.286998	0.437715
H236	H	1.845321	0.213002	0.937715
H237	H	0.491826	0.015254	-0.000033
H238	H	0.991826	0.515254	0.499967
O239	O	1.309481	-0.262532	0.233286
O240	O	1.809481	0.237468	0.733286
H241	H	1.368482	-0.302847	0.287433
H242	H	1.868482	0.197153	0.787433
H243	H	0.627680	0.036793	-0.000036
H244	H	1.127680	0.536793	0.499964
O245	O	0.816275	0.017076	-0.000006
O246	O	1.316275	0.517076	0.499994
H247	H	0.757215	0.057598	-0.000003
H248	H	1.257215	0.557598	0.499997
H249	H	1.277940	-0.315230	0.000058
H250	H	1.777940	0.184770	0.500058
H251	H	1.354613	-0.809069	-0.000015
H252	H	1.854613	-0.309069	0.499985
O253	O	1.298757	-0.418526	0.000042
O254	O	1.798757	0.081474	0.500042
H255	H	1.359154	-0.407122	0.000063
H256	H	1.859154	0.092878	0.500063
O257	O	1.382338	-0.566074	-0.000002
O258	O	1.882338	-0.066074	0.499998
H259	H	1.441692	-0.606493	-0.000018
H260	H	1.941692	-0.106493	0.499982
O261	O	0.849078	-0.588324	-0.000029
O262	O	1.349078	-0.088324	0.499971
H263	H	0.863008	-0.576463	0.067975
H264	H	1.363008	-0.076463	0.567975
O265	O	0.865728	-0.174663	0.000042
O266	O	1.365728	0.325337	0.500042
H267	H	0.893595	-0.172319	-0.067950
H268	H	1.393595	0.327681	0.432050
O269	O	0.846991	-0.692743	-0.000049
O270	O	1.346991	-0.192743	0.499951
H271	H	0.787627	-0.652321	-0.000058
H272	H	1.287627	-0.152321	0.499942
H273	H	0.907917	0.011820	0.404778
H274	H	1.407917	0.511820	0.904778
O275	O	1.380264	-0.670500	0.000022
O276	O	1.880264	-0.170500	0.500022
H277	H	1.440658	-0.659093	0.000040
H278	H	1.940658	-0.159093	0.500040
H279	H	0.951394	-0.943606	-0.000021
H280	H	1.451394	-0.443606	0.499979
O281	O	0.993445	-0.046615	0.281727
O282	O	1.493445	0.453385	0.781727
H283	H	1.056702	-0.046323	0.254010
H284	H	1.556702	0.453677	0.754010
H285	H	1.168105	-0.165916	0.752819
H286	H	1.668105	0.334084	1.252819
O287	O	0.930580	-0.840309	-0.000019
O288	O	1.430580	-0.340309	0.499981
H289	H	0.870192	-0.851720	-0.000005
H290	H	1.370192	-0.351720	0.499995
O291	O	0.849980	-0.542009	-0.000049
O292	O	1.349980	-0.042009	0.499951
H293	H	0.790620	-0.501584	-0.000063
H294	H	1.290620	-0.001584	0.499937
H295	H	0.884007	0.028160	0.562312
H296	H	1.384007	0.528160	1.062312
