data_functionalizedCrystal
_audit_creation_method	'MofGen! by Chris Wilmer'
_symmetry_space_group_name_H-M	'P1'
_symmetry_Int_Tables_number	1
_symmetry_cell_setting	triclinic
loop_
_symmetry_equiv_pos_as_xyz
  x,y,z
_cell_length_a	15.944493
_cell_length_b	16.109301
_cell_length_c	14.586319
_cell_angle_alpha	89.998582
_cell_angle_beta	89.998474
_cell_angle_gamma	96.531738
loop_
_atom_site_label
_atom_site_type_symbol
_atom_site_fract_x
_atom_site_fract_y
_atom_site_fract_z
O1	O	0.107970	-1.103144	0.076170
O2	O	0.121406	-0.861084	0.076183
O3	O	-0.007592	-0.988749	0.076184
O4	O	0.236968	-0.975479	0.076170
O5	O	-0.007595	-0.988739	-0.076297
O6	O	0.121403	-0.861074	-0.076297
O7	O	0.107967	-1.103134	-0.076311
Cu8	Cu	0.114685	-0.982103	-0.090227
Cu9	Cu	0.114688	-0.982115	0.090100
O10	O	0.236965	-0.975469	-0.076311
C11	C	0.120861	-0.830104	-0.000055
C12	C	0.119229	-0.737808	-0.000050
N13	N	0.114682	-0.982100	-0.217058
C14	C	-0.038888	-0.988202	-0.000052
C15	C	-0.132136	-0.986576	-0.000041
C16	C	-0.367921	-1.061722	-0.000062
C17	C	-0.418474	-1.021204	0.075121
C18	C	-0.302856	-0.983563	-0.000052
C19	C	-0.418453	-1.021175	-0.075213
C20	C	-0.467765	-0.980658	-0.000066
C21	C	-0.352181	-0.943065	0.075193
C22	C	-0.352157	-0.943048	-0.075209
C23	C	-0.402677	-0.902472	-0.000008
C24	C	-0.207857	-0.985238	-0.000042
C25	C	-0.562762	-0.978976	-0.000069
C26	C	0.268262	-0.976016	-0.000073
C27	C	0.361510	-0.977642	-0.000079
C28	C	0.108513	-1.134114	-0.000070
C29	C	0.110144	-1.226410	-0.000070
C30	C	0.191980	-0.515544	-0.000065
C31	C	0.190440	-0.428824	-0.000070
C32	C	0.037388	-0.448680	-0.000057
C33	C	0.038928	-0.535399	-0.000058
C34	C	0.116227	-0.568829	-0.000057
C35	C	0.113146	-0.395389	-0.000062
C36	C	0.111476	-0.301363	-0.000068
C37	C	0.117897	-0.662861	-0.000053
C38	C	0.057580	-1.038653	-0.548052
C39	C	0.057580	-1.038651	-0.452071
C40	C	0.171793	-0.925569	-0.452082
C41	C	0.171796	-0.925576	-0.548061
C42	C	0.114685	-0.982117	-0.596044
C43	C	0.114682	-0.982108	-0.404083
C44	C	0.114683	-0.982105	-0.300016
C45	C	0.114684	-0.982120	-0.700118
N46	N	0.114685	-0.982124	0.216931
H47	H	-0.352315	-1.129047	0.000010
N48	N	-0.456834	-1.064925	0.159311
H49	H	-0.444489	-1.125045	0.159255
H50	H	-0.519916	-1.062944	0.158935
H51	H	-0.323187	-0.910064	-0.138769
N52	N	-0.004009	-1.099631	-0.400307
H53	H	-0.040185	-1.135448	-0.445271
H54	H	-0.041152	-1.067806	-0.360485
H55	H	-0.418121	-0.835095	0.000037
N56	N	-0.042786	-0.592870	-0.000048
H57	H	-0.045555	-0.629296	0.056475
H58	H	-0.045511	-0.629235	-0.056612
H59	H	0.254921	-0.542760	-0.000071
N60	N	0.233384	-0.864588	-0.599832
H61	H	0.270587	-0.896354	-0.639650
H62	H	0.269500	-0.828779	-0.554814
H63	H	0.011078	-1.084693	-0.587117
N64	N	-0.456792	-1.064905	-0.159405
H65	H	-0.444439	-1.125023	-0.159336
H66	H	-0.431716	-1.035938	-0.216142
N67	N	0.272145	-0.371352	-0.000129
H68	H	0.321343	-0.405692	-0.000145
H69	H	0.274872	-0.334916	0.056379
N70	N	0.233385	-0.864585	-0.400329
H71	H	0.224717	-0.873156	-0.332244
H72	H	0.223665	-0.805611	-0.417116
N73	N	-0.314000	-0.899369	0.159478
H74	H	-0.250834	-0.900774	0.158976
H75	H	-0.338794	-0.928679	0.216149
H76	H	-0.025546	-0.421451	-0.000064
