data_functionalizedCrystal
_audit_creation_method	'MofGen! by Chris Wilmer'
_symmetry_space_group_name_H-M	'P1'
_symmetry_Int_Tables_number	1
_symmetry_cell_setting	triclinic
loop_
_symmetry_equiv_pos_as_xyz
  x,y,z
_cell_length_a	21.395362
_cell_length_b	12.759400
_cell_length_c	12.759393
_cell_angle_alpha	89.969790
_cell_angle_beta	89.959219
_cell_angle_gamma	90.030564
loop_
_atom_site_label
_atom_site_type_symbol
_atom_site_fract_x
_atom_site_fract_y
_atom_site_fract_z
Zn1	Zn	0.957910	-0.417773	-0.594615
Zn2	Zn	0.957847	-0.593488	-0.418935
Zn3	Zn	0.853130	-0.417872	-0.418885
Zn4	Zn	0.853123	-0.593459	-0.594507
O5	O	0.905503	-0.505648	-0.506735
O6	O	1.045579	-0.441052	-0.571376
O7	O	0.943933	-0.570245	-0.271907
O8	O	0.867059	-0.270838	-0.442220
O9	O	1.045533	-0.570149	-0.442305
O10	O	0.944040	-0.270765	-0.571328
O11	O	0.866998	-0.441221	-0.271870
O12	O	0.765452	-0.441194	-0.442115
O13	O	0.867046	-0.570101	-0.741542
O14	O	0.765446	-0.570197	-0.571144
O15	O	0.944033	-0.441025	-0.741621
O16	O	0.943926	-0.740505	-0.442201
O17	O	0.866986	-0.740484	-0.571193
C18	C	0.742715	-0.505703	-0.506613
C19	C	0.673074	-0.505753	-0.506586
C20	C	0.640374	-0.573014	-0.573671
C21	C	0.574939	-0.572988	-0.573718
C22	C	0.542205	-0.505712	-0.506661
C23	C	0.574913	-0.438438	-0.439572
C24	C	0.640347	-0.438458	-0.439534
C25	C	0.438482	-0.497275	-0.412078
C26	C	0.373049	-0.497262	-0.412114
C27	C	0.340385	-0.505644	-0.506777
C28	C	0.373161	-0.514059	-0.601407
C29	C	0.438595	-0.514080	-0.601370
C30	C	0.471253	-0.505682	-0.506695
C31	C	0.236733	-0.572880	-0.573918
C32	C	0.171296	-0.572847	-0.573967
C33	C	0.171271	-0.438303	-0.439811
C34	C	0.236707	-0.438330	-0.439772
C35	C	0.269433	-0.505625	-0.506824
C36	C	0.905465	-0.778615	-0.506713
C37	C	0.905507	-0.895392	-0.506739
C38	C	0.945614	-0.950230	-0.439647
C39	C	0.945653	-1.059954	-0.439680
C40	C	0.865471	-1.059992	-0.573899
C41	C	0.865436	-0.950270	-0.573871
C42	C	0.985685	-0.895352	-0.372515
C43	C	1.025795	-0.950190	-0.305417
C44	C	1.025833	-1.059914	-0.305450
C45	C	0.985762	-1.114800	-0.372580
C46	C	1.068926	-0.505593	-0.506858
C47	C	1.138567	-0.505569	-0.506911
C48	C	0.905546	-0.505548	-0.780769
C49	C	0.905564	-0.505506	-0.897545
C50	C	0.905557	-0.231615	-0.506780
C51	C	0.905580	-0.114838	-0.506799
C52	C	0.945647	-0.572613	-1.062156
C53	C	0.945628	-0.572660	-0.952431
C54	C	0.865511	-0.438308	-0.952389
C55	C	0.865528	-0.438267	-1.062112
C56	C	0.985718	-0.639763	-1.117036
C57	C	1.025770	-0.706963	-1.062199
C58	C	1.025751	-0.707010	-0.952475
C59	C	0.985681	-0.639858	-0.897587
C60	C	0.905496	-0.505671	-0.233768
C61	C	0.905599	-0.505418	-0.116992
H62	H	0.465279	-0.520929	-0.678421
N63	N	1.068988	-0.779384	-1.121396
H64	H	1.094354	-0.821961	-1.070004
H65	H	1.043483	-0.827995	-1.166898
N66	N	0.135970	-0.365744	-0.367487
H67	H	0.147302	-0.381975	-0.292385
H68	H	0.147413	-0.290729	-0.384015
N69	N	0.985732	-0.639718	-1.235379
H70	H	0.997264	-0.567630	-1.261827
H71	H	1.017187	-0.692500	-1.261744
H72	H	1.058424	-0.905496	-0.250768
H73	H	0.346567	-0.520882	-0.678491
N74	N	1.069094	-1.119053	-0.233080
H75	H	1.043660	-1.164663	-0.184355
H76	H	1.098127	-1.164429	-0.275916
H77	H	0.985661	-0.639914	-0.808243
N78	N	0.337700	-0.488194	-0.310054
H79	H	0.368321	-0.482875	-0.250081
H80	H	0.310578	-0.423454	-0.311698
N81	N	1.068941	-0.779494	-0.893328
H82	H	1.094326	-0.822025	-0.944748
H83	H	1.097937	-0.736737	-0.847829
N84	N	0.822296	-0.365882	-0.893195
H85	H	0.828364	-0.376103	-0.815365
H86	H	0.832066	-0.290837	-0.912393
N87	N	0.985644	-0.777008	-0.372489
H88	H	0.942658	-0.750677	-0.353086
H89	H	1.017141	-0.750644	-0.319793
N90	N	0.272037	-0.645453	-0.646237
H91	H	0.241390	-0.688055	-0.688750
H92	H	0.299238	-0.602755	-0.694912
N93	N	0.822332	-0.365798	-1.121266
H94	H	0.796947	-0.323260	-1.069852
H95	H	0.847851	-0.317153	-1.166820
H96	H	0.144673	-0.627617	-0.628602
H97	H	0.465073	-0.490446	-0.334987
H98	H	0.548257	-0.383660	-0.384975
H99	H	0.667016	-0.627808	-0.628271
H100	H	0.548310	-0.627759	-0.628350
N101	N	0.675620	-0.365902	-0.367184
H102	H	0.644958	-0.323272	-0.324713
H103	H	0.702721	-0.408612	-0.318470
N104	N	0.271972	-0.365776	-0.367412
H105	H	0.260531	-0.381996	-0.292323
H106	H	0.318381	-0.376021	-0.377649
H107	H	0.985801	-1.204144	-0.372610
N108	N	0.822249	-1.119194	-0.646285
H109	H	0.777482	-1.100190	-0.629866
H110	H	0.832001	-1.100007	-0.721341
N111	N	0.822182	-0.891114	-0.646237
H112	H	0.796800	-0.942526	-0.688764
H113	H	0.793186	-0.845672	-0.603400
