data_functionalizedCrystal
_audit_creation_method	'MofGen! by Chris Wilmer'
_symmetry_space_group_name_H-M	'P1'
_symmetry_Int_Tables_number	1
_symmetry_cell_setting	triclinic
loop_
_symmetry_equiv_pos_as_xyz
  x,y,z
_cell_length_a	17.640112
_cell_length_b	29.839131
_cell_length_c	17.639197
_cell_angle_alpha	78.813192
_cell_angle_beta	70.386601
_cell_angle_gamma	101.266684
loop_
_atom_site_label
_atom_site_type_symbol
_atom_site_fract_x
_atom_site_fract_y
_atom_site_fract_z
Zn1	Zn	1.165411	-0.069162	0.211679
Zn2	Zn	1.193198	-0.125239	0.073892
Zn3	Zn	1.055516	-0.069161	0.101701
Zn4	Zn	1.027524	-0.163323	0.239457
O5	O	1.110412	-0.106721	0.156682
O6	O	1.284423	-0.060662	0.170138
O7	O	1.198278	-0.101861	-0.037735
O8	O	1.070180	-0.006286	0.116303
O9	O	1.304838	-0.101862	0.068906
O10	O	1.150919	-0.006286	0.197103
O11	O	1.097124	-0.060661	-0.017304
O12	O	0.936477	-0.097590	0.143238
O13	O	1.022471	-0.166771	0.351087
O14	O	0.915911	-0.166770	0.244446
O15	O	1.123776	-0.097591	0.330679
O16	O	1.171135	-0.193166	0.095841
O17	O	1.049415	-0.221146	0.217481
C18	C	0.896291	-0.136313	0.199874
C19	C	0.804685	-0.148986	0.218372
C20	C	1.110272	-0.223459	0.156671
C21	C	1.110281	-0.273393	0.156679
C22	C	0.556746	-0.010438	0.016166
C23	C	0.470666	-0.022357	0.033558
C24	C	0.449342	-0.094449	0.138765
C25	C	0.535421	-0.082535	0.121384
C26	C	0.589117	-0.040529	0.060083
C27	C	0.567792	-0.112626	0.165301
C28	C	0.653865	-0.100714	0.147919
C29	C	0.707566	-0.058711	0.086619
C30	C	0.675189	-0.028617	0.042700
C31	C	0.514096	-0.154633	0.226598
C32	C	0.546467	-0.184723	0.270515
C33	C	0.632540	-0.172810	0.253137
C34	C	0.686242	-0.130807	0.191837
C35	C	0.664917	-0.202904	0.297056
C36	C	0.750989	-0.190992	0.279673
C37	C	0.772314	-0.118895	0.174455
C38	C	1.173872	-0.568437	0.093402
C39	C	1.173967	-0.756100	0.093413
O40	O	1.227922	-0.767964	0.039605
N41	N	1.110571	-0.794148	0.156710
C42	C	1.047149	-0.785278	0.220011
O43	O	0.993233	-0.821946	0.273853
C44	C	1.047057	-0.597616	0.220002
C45	C	1.110454	-0.559569	0.156697
C46	C	1.237263	-0.530392	0.030102
C47	C	1.237236	-0.483479	0.030098
C48	C	1.173818	-0.474611	0.093392
C49	C	1.110427	-0.512656	0.156692
C50	C	0.983640	-0.588746	0.283305
C51	C	0.983624	-0.541826	0.283299
C52	C	1.047020	-0.503780	0.219994
C53	C	1.046981	-0.456876	0.219982
N54	N	1.110378	-0.418828	0.156686
C55	C	1.173796	-0.427696	0.093391
C56	C	1.047200	-0.883803	0.220010
C57	C	1.047222	-0.930718	0.220012
C58	C	1.174042	-0.901537	0.093415
C59	C	1.174016	-0.854621	0.093411
C60	C	1.110597	-0.845755	0.156714
C61	C	1.173734	-0.329176	0.093385
C62	C	1.173700	-0.282261	0.093384
C63	C	1.046883	-0.311446	0.219983
C64	C	1.046915	-0.358358	0.219982
C65	C	1.110348	-0.367220	0.156679
O66	O	0.993059	-0.444976	0.273767
O67	O	1.227714	-0.391021	0.039567
C68	C	1.173899	-0.615350	0.093407
C69	C	1.110507	-0.653395	0.156706
C70	C	1.047089	-0.644527	0.220001
C71	C	1.110529	-0.700311	0.156708
C72	C	1.173948	-0.709178	0.093413
C73	C	1.237344	-0.671130	0.030117
C74	C	1.237317	-0.624218	0.030112
C75	C	0.983692	-0.682575	0.283297
C76	C	0.983724	-0.729487	0.283296
C77	C	1.047143	-0.738355	0.220002
C78	C	1.325369	-0.077014	0.113321
C79	C	1.416971	-0.064355	0.094844
C80	C	1.066902	-0.136429	0.371619
C81	C	1.048360	-0.149089	0.463213
C82	C	1.110572	0.010473	0.156706
C83	C	1.110640	0.060414	0.156717
C84	C	0.969488	-0.202948	0.602935
C85	C	0.986917	-0.191048	0.516868
C86	C	1.092403	-0.119015	0.495610
C87	C	1.074986	-0.130911	0.581676
C88	C	1.013527	-0.172877	0.635333
C89	C	1.119025	-0.100840	0.614073
C90	C	1.101606	-0.112733	0.700133
C91	C	1.040148	-0.154697	0.753795
C92	C	0.996108	-0.184770	0.721392
C93	C	1.180479	-0.058872	0.560416
C94	C	1.224518	-0.028801	0.592814
C95	C	1.207103	-0.040696	0.678874
C96	C	1.145646	-0.082660	0.732536
C97	C	1.251143	-0.010622	0.711277
C98	C	1.233725	-0.022516	0.797337
C99	C	1.128227	-0.094553	0.818596
C100	C	1.153742	-0.077140	0.942583
C101	C	1.172266	-0.064482	0.850993
H102	H	0.816034	-0.084685	0.124549
O103	O	0.985677	-0.967729	0.281420
C104	C	0.999299	-1.011043	0.267872
H105	H	1.039209	-1.004928	0.198845
H106	H	0.936448	-1.038205	0.285873
H107	H	1.033252	-1.025021	0.307942
H108	H	0.444011	-0.164330	0.240748
O109	O	0.936348	-0.225494	0.773618
C110	C	0.873069	-0.214145	0.834125
H111	H	0.899575	-0.177858	0.841155
H112	H	0.849748	-0.242335	0.896869
H113	H	0.818716	-0.213065	0.813279
O114	O	0.791180	-0.047219	0.069722
C115	C	0.824210	-0.083333	0.042594
H116	H	0.771758	-0.118024	0.066614
H117	H	0.874283	-0.088511	0.068098
H118	H	0.853297	-0.072666	-0.028865
H119	H	0.777346	-0.215494	0.315436
O120	O	0.944237	-0.220321	0.485402
C121	C	0.957928	-0.265519	0.502810
H122	H	1.018965	-0.261952	0.513205
H123	H	0.962282	-0.280873	0.447634
H124	H	0.903610	-0.290280	0.561665
H125	H	0.718910	0.005593	-0.007205
O126	O	1.235583	-0.910147	0.031853
C127	C	1.234324	-0.889841	-0.046705
H128	H	1.169355	-0.885481	-0.037685
H129	H	1.249701	-0.914107	-0.088809
H130	H	1.282896	-0.853516	-0.077144
H131	H	0.405612	-0.128651	0.188674
H132	H	1.142440	-0.084845	0.451911
H133	H	1.288861	-0.452503	-0.021449
H134	H	0.995246	-0.304218	0.271515
O135	O	1.197593	-0.047287	0.476779
C136	C	1.282388	-0.043947	0.432143
H137	H	1.319784	-0.036579	0.472208
H138	H	1.308757	-0.013689	0.371626
H139	H	1.287192	-0.078871	0.416499
H140	H	0.502737	-0.218925	0.320424
O141	O	0.608802	0.030372	-0.043438
C142	C	0.561773	0.054387	-0.078461
H143	H	0.500985	0.027900	-0.068977
H144	H	0.599772	0.071641	-0.148393
H145	H	0.546535	0.083037	-0.046337
O146	O	0.909898	-0.243751	0.655080
C147	C	0.946699	-0.273159	0.695410
H148	H	1.016852	-0.263383	0.656376
H149	H	0.916642	-0.311993	0.702406
H150	H	0.936361	-0.267882	0.760057
O151	O	1.284123	0.011981	0.540620
C152	C	1.247322	0.041406	0.500323
H153	H	1.187449	0.018714	0.500031
H154	H	1.293150	0.060426	0.433033
H155	H	1.231611	0.068871	0.535318
H156	H	0.995295	-0.389337	0.271532
O157	O	0.439191	0.006821	-0.009170
C158	C	0.400129	-0.018238	-0.052397
H159	H	0.427092	-0.049308	-0.062857
H160	H	0.411963	0.006691	-0.115554
H161	H	0.329747	-0.032359	-0.013739
H162	H	1.301177	0.023549	0.667579
O163	O	0.612696	-0.243659	0.356693
C164	C	0.552135	-0.232380	0.420033
H165	H	0.577052	-0.194127	0.419999
H166	H	0.538323	-0.257575	0.483595
H167	H	0.492059	-0.236316	0.407725
H168	H	1.225325	-0.251283	0.041831
H169	H	0.932092	-0.760463	0.334848
O170	O	1.023228	-0.166336	0.837394
C171	C	1.038531	-0.210443	0.861860
H172	H	1.034454	-0.231412	0.815098
H173	H	0.989691	-0.231526	0.926931
H174	H	1.103819	-0.204058	0.863337
O175	O	1.235392	-0.337698	0.031808
C176	C	1.291340	-0.294052	-0.024044
H177	H	1.258142	-0.264901	-0.020106
H178	H	1.313332	-0.297414	-0.090750
H179	H	1.347787	-0.284547	-0.006441
O180	O	1.299001	-0.538923	-0.031375
C181	C	1.377436	-0.518548	-0.029823
H182	H	1.372636	-0.488642	0.001557
H183	H	1.426478	-0.503574	-0.096723
H184	H	1.396618	-0.546952	0.006951
O185	O	1.235618	-0.817626	0.032026
C186	C	1.279311	-0.789595	0.068247
H187	H	1.237556	-0.795219	0.136545
H188	H	1.297168	-0.750436	0.032451
H189	H	1.338539	-0.800462	0.065036
O190	O	0.985502	-0.875279	0.281544
C191	C	0.929569	-0.918925	0.337412
H192	H	0.933607	-0.948096	0.304219
H193	H	0.862851	-0.915594	0.359245
H194	H	0.947020	-0.928377	0.393949
H195	H	0.932013	-0.619717	0.334852
O196	O	1.298987	-0.587318	-0.031422
C197	C	1.354948	-0.605215	-0.087290
H198	H	1.350947	-0.642924	-0.054094
H199	H	1.421653	-0.581444	-0.109131
H200	H	1.337496	-0.605747	-0.143822
H201	H	0.931981	-0.534612	0.334850
H202	H	1.288980	-0.678358	-0.021422
H203	H	0.932050	-0.675360	0.334840
H204	H	1.078187	-0.128729	0.862286
O205	O	1.276606	0.006736	0.828670
C206	C	1.334573	0.046332	0.762861
H207	H	1.349821	0.036802	0.700934
H208	H	1.394477	0.056660	0.774631
H209	H	1.306295	0.077552	0.759801
