data_functionalizedCrystal
_audit_creation_method	'MofGen! by Chris Wilmer'
_symmetry_space_group_name_H-M	'P1'
_symmetry_Int_Tables_number	1
_symmetry_cell_setting	triclinic
loop_
_symmetry_equiv_pos_as_xyz
  x,y,z
_cell_length_a	11.792254
_cell_length_b	16.992695
_cell_length_c	15.455313
_cell_angle_alpha	87.152573
_cell_angle_beta	87.300348
_cell_angle_gamma	92.566590
loop_
_atom_site_label
_atom_site_type_symbol
_atom_site_fract_x
_atom_site_fract_y
_atom_site_fract_z
O1	O	1.520364	-0.104150	-0.072131
O2	O	2.020364	0.395850	0.427869
O3	O	1.190930	-0.115220	-0.072133
O4	O	1.690930	0.384780	0.427867
O5	O	1.354326	0.004463	-0.072125
O6	O	1.854326	0.504463	0.427875
O7	O	1.356968	-0.223833	-0.072139
O8	O	1.856968	0.276167	0.427861
O9	O	1.344980	-0.002352	0.072136
O10	O	1.844980	0.497648	0.572136
O11	O	1.181584	-0.122035	0.072129
O12	O	1.681584	0.377965	0.572129
O13	O	1.511017	-0.110965	0.072131
O14	O	2.011017	0.389035	0.572131
Cu15	Cu	1.345447	-0.117123	0.085302
Cu16	Cu	1.845447	0.382877	0.585302
Cu17	Cu	1.356500	-0.109062	-0.085304
Cu18	Cu	1.856500	0.390938	0.414696
O19	O	1.347622	-0.230648	0.072123
O20	O	1.847622	0.269352	0.572123
C21	C	1.143909	-0.117930	-0.000002
C22	C	1.643909	0.382070	0.499998
C23	C	1.017726	-0.115843	-0.000003
C24	C	1.517726	0.384157	0.499997
C25	C	0.915251	-0.114147	-0.000007
C26	C	1.415251	0.385853	0.499993
C27	C	0.786691	-0.112026	-0.000007
C28	C	1.286691	0.387974	0.499993
C29	C	1.346255	0.030283	0.000005
C30	C	1.846255	0.530283	0.500005
C31	C	1.336117	0.117370	0.000005
C32	C	1.836117	0.617370	0.500005
C33	C	1.558038	-0.108255	-0.000002
C34	C	2.058038	0.391745	0.499998
C35	C	1.684223	-0.110342	-0.000007
C36	C	2.184223	0.389658	0.499993
C37	C	1.355693	-0.256468	-0.000010
C38	C	1.855693	0.243532	0.499990
C39	C	1.365831	-0.343555	-0.000015
C40	C	1.865831	0.156445	0.499985
N41	N	1.337681	-0.122791	0.205297
N42	N	1.837681	0.377209	0.705297
C43	C	1.433934	0.167192	0.000007
C44	C	1.933934	0.667192	0.500007
C45	C	1.424403	0.249019	-0.000002
C46	C	1.924403	0.749019	0.499998
C47	C	1.317052	0.281024	-0.000005
C48	C	1.817052	0.781024	0.499995
C49	C	1.219227	0.231196	-0.000009
C50	C	1.719227	0.731196	0.499991
C51	C	1.228761	0.149370	-0.000007
C52	C	1.728761	0.649370	0.499993
C53	C	1.277540	0.524791	-0.000017
C54	C	1.777540	1.024791	0.499983
C55	C	1.268014	0.606624	-0.000017
C56	C	1.768014	1.106624	0.499983
C57	C	1.473190	0.624441	-0.000011
C58	C	1.973190	1.124441	0.499989
C59	C	1.482714	0.542613	-0.000003
C60	C	1.982714	1.042613	0.499997
C61	C	1.384890	0.492793	-0.000012
C62	C	1.884890	0.992793	0.499988
N63	N	1.307306	0.364665	-0.000011
N64	N	1.807306	0.864665	0.499989
N65	N	1.394637	0.409154	-0.000013
N66	N	1.894637	0.909154	0.499987
N67	N	1.364275	-0.103387	-0.205300
N68	N	1.864275	0.396613	0.294700
C69	C	1.407125	-0.071965	0.250694
C70	C	1.907125	0.428035	0.750694
C71	C	1.401263	-0.076259	0.341502
C72	C	1.901263	0.423741	0.841502
C73	C	1.325963	-0.131384	0.386910
C74	C	1.825963	0.368616	0.886910
C75	C	1.256511	-0.182213	0.341507
C76	C	1.756511	0.317787	0.841507
C77	C	1.262368	-0.177914	0.250701
C78	C	1.762368	0.322086	0.750701
C79	C	1.300680	-0.149918	0.658491
C80	C	1.800680	0.350082	1.158491
C81	C	1.294831	-0.154214	0.749303
C82	C	1.794831	0.345786	1.249303
C83	C	1.439582	-0.048259	0.749292
C84	C	1.939582	0.451741	1.249292
C85	C	1.445437	-0.043968	0.658484
C86	C	1.945437	0.456032	1.158484
C87	C	1.375982	-0.094794	0.613089
C88	C	1.875982	0.405206	1.113089
N89	N	1.319972	-0.135777	0.479730
N90	N	1.819972	0.364223	0.979730
N91	N	1.381968	-0.090397	0.520270
N92	N	1.881968	0.409603	1.020270
H93	H	1.521351	0.141140	0.000015
H94	H	2.021351	0.641140	0.500015
Cl95	Cl	1.596161	0.687077	-0.000003
Cl96	Cl	2.096161	1.187077	0.499997
H97	H	1.506753	0.000919	0.621515
H98	H	2.006753	0.500919	1.121515
Cl99	Cl	1.175059	-0.241811	0.193630
Cl100	Cl	1.675059	0.258189	0.693630
Cl101	Cl	1.526888	0.015636	0.806365
Cl102	Cl	2.026888	0.515636	1.306365
Cl103	Cl	1.617676	0.502387	-0.000027
Cl104	Cl	2.117676	1.002387	0.499973
H105	H	1.457809	-0.034872	0.378464
H106	H	1.957809	0.465128	0.878464
Cl107	Cl	1.200160	-0.223523	0.806382
Cl108	Cl	1.700160	0.276477	1.306382
Cl109	Cl	1.133048	0.646856	-0.000016
Cl110	Cl	1.633048	1.146856	0.499984
Cl111	Cl	1.547379	0.311649	0.000003
Cl112	Cl	2.047379	0.811649	0.500003
Cl113	Cl	1.161840	-0.251511	0.398590
Cl114	Cl	1.661840	0.248489	0.898590
Cl115	Cl	1.213372	-0.213815	0.601428
Cl116	Cl	1.713372	0.286185	1.101428
Cl117	Cl	1.154559	0.462171	-0.000030
Cl118	Cl	1.654559	0.962171	0.499970
Cl119	Cl	1.084272	0.271431	-0.000025
Cl120	Cl	1.584272	0.771431	0.499975
H121	H	1.149107	0.108806	-0.000009
H122	H	1.649107	0.608806	0.499991
H123	H	1.468448	-0.027079	0.213729
H124	H	1.968448	0.472921	0.713729
