data_functionalizedCrystal
_audit_creation_method	'MofGen! by Chris Wilmer'
_symmetry_space_group_name_H-M	'P1'
_symmetry_Int_Tables_number	1
_symmetry_cell_setting	triclinic
loop_
_symmetry_equiv_pos_as_xyz
  x,y,z
_cell_length_a	29.839134
_cell_length_b	29.839131
_cell_length_c	12.759393
_cell_angle_alpha	90.036816
_cell_angle_beta	90.034807
_cell_angle_gamma	90.034165
loop_
_atom_site_label
_atom_site_type_symbol
_atom_site_fract_x
_atom_site_fract_y
_atom_site_fract_z
Zn1	Zn	0.686766	-0.178918	0.594363
Zn2	Zn	0.686685	-0.254056	0.418663
Zn3	Zn	0.611635	-0.178931	0.418655
Zn4	Zn	0.611597	-0.254013	0.594258
O5	O	0.649171	-0.216479	0.506485
O6	O	0.749622	-0.188898	0.571103
O7	O	0.676711	-0.244113	0.271641
O8	O	0.621652	-0.116062	0.442004
O9	O	0.749563	-0.244101	0.442017
O10	O	0.676850	-0.116053	0.571095
O11	O	0.621573	-0.188919	0.271635
O12	O	0.548763	-0.188878	0.441902
O13	O	0.621586	-0.244028	0.741293
O14	O	0.548735	-0.244040	0.570917
O15	O	0.676813	-0.188857	0.741370
O16	O	0.676674	-0.316917	0.441916
O17	O	0.621507	-0.316885	0.570924
C18	C	0.532448	-0.216456	0.506398
C19	C	0.482514	-0.216457	0.506386
C20	C	0.125929	-0.187714	0.439444
C21	C	0.313602	-0.187701	0.439380
O22	O	0.337868	-0.163225	0.382366
N23	N	0.337069	-0.216464	0.506438
C24	C	0.313614	-0.245230	0.573522
O25	O	0.337880	-0.269691	0.630565
C26	C	0.125942	-0.245240	0.573590
C27	C	0.102478	-0.216479	0.506520
C28	C	0.102464	-0.158954	0.372380
C29	C	0.055549	-0.158960	0.372393
C30	C	0.032098	-0.187724	0.439469
C31	C	0.055562	-0.216484	0.506533
C32	C	0.102488	-0.274004	0.640679
C33	C	0.055567	-0.274003	0.640692
C34	C	0.032103	-0.245241	0.573622
C35	C	-0.014804	-0.245254	0.573622
N36	N	-0.038271	-0.216491	0.506564
C37	C	-0.014820	-0.187726	0.439487
C38	C	0.412145	-0.245223	0.573480
C39	C	0.459063	-0.245222	0.573462
C40	C	0.459047	-0.187692	0.439321
C41	C	0.412128	-0.187696	0.439335
C42	C	0.388678	-0.216461	0.506422
C43	C	-0.113346	-0.187739	0.439518
C44	C	-0.160265	-0.187749	0.439534
C45	C	-0.160246	-0.245276	0.573678
C46	C	-0.113330	-0.245269	0.573659
C47	C	-0.089881	-0.216497	0.506576
O48	O	-0.039100	-0.269714	0.630614
O49	O	-0.039094	-0.163262	0.382469
C50	C	0.172844	-0.187709	0.439431
C51	C	0.196309	-0.216468	0.506495
C52	C	0.172857	-0.245233	0.573572
C53	C	0.243226	-0.216466	0.506477
C54	C	0.266678	-0.187702	0.439401
C55	C	0.243211	-0.158939	0.372342
C56	C	0.196295	-0.158944	0.372355
C57	C	0.196324	-0.273996	0.640630
C58	C	0.243240	-0.273989	0.640611
C59	C	0.266691	-0.245224	0.573535
C60	C	0.649090	-0.333202	0.506433
C61	C	0.649096	-0.383136	0.506445
C62	C	0.677948	-0.692784	0.439408
C63	C	0.678004	-0.880457	0.439449
O64	O	0.702471	-0.904725	0.382411
N65	N	0.649264	-0.903921	0.506564
C66	C	0.620510	-0.880465	0.573679
O67	O	0.596070	-0.904730	0.630773
C68	C	0.620457	-0.692793	0.573642
C69	C	0.649196	-0.669331	0.506515
C70	C	0.706685	-0.669321	0.372287
C71	C	0.706669	-0.622406	0.372274
C72	C	0.677916	-0.598953	0.439381
C73	C	0.649180	-0.622415	0.506502
C74	C	0.591706	-0.669338	0.640761
C75	C	0.591696	-0.622417	0.640748
C76	C	0.620435	-0.598954	0.573621
C77	C	0.620412	-0.552047	0.573595
N78	N	0.649151	-0.528582	0.506480
C79	C	0.677904	-0.552035	0.439373
C80	C	0.620539	-0.978996	0.573691
C81	C	0.620552	-1.025914	0.573699
C82	C	0.678046	-1.025902	0.439471
C83	C	0.678031	-0.978983	0.439458
C84	C	0.649279	-0.955531	0.506576
C85	C	0.677868	-0.453509	0.439349
C86	C	0.677848	-0.406589	0.439338
C87	C	0.620356	-0.406605	0.573570
C88	C	0.620374	-0.453521	0.573577
C89	C	0.649134	-0.476971	0.506463
O90	O	0.595961	-0.527750	0.630611
O91	O	0.702348	-0.527762	0.382304
C92	C	0.677964	-0.739699	0.439422
C93	C	0.649228	-0.763161	0.506542
C94	C	0.620475	-0.739708	0.573650
C95	C	0.649240	-0.810079	0.506550
C96	C	0.677993	-0.833532	0.439443
C97	C	0.706732	-0.810067	0.372328
C98	C	0.706717	-0.763152	0.372315
C99	C	0.591735	-0.763173	0.640765
C100	C	0.591753	-0.810089	0.640772
C101	C	0.620506	-0.833542	0.573665
C102	C	0.766349	-0.216503	0.506573
C103	C	0.816283	-0.216513	0.506610
C104	C	0.649204	-0.216436	0.780518
C105	C	0.649219	-0.216418	0.897295
C106	C	0.649264	-0.099301	0.506560
C107	C	0.649304	-0.049367	0.506592
C108	C	0.649163	-0.216490	0.233517
C109	C	0.649236	-0.216382	0.116741
C110	C	0.677977	-0.187686	0.952199
C111	C	0.677985	-0.187666	1.061923
C112	C	0.620474	-0.245115	1.061830
C113	C	0.620464	-0.245132	0.952108
H114	H	0.036448	-0.135539	0.317777
H115	H	0.262340	-0.297414	0.695226
Cl116	Cl	0.555581	-0.698822	0.725168
Cl117	Cl	0.166804	-0.122783	0.288037
Cl118	Cl	0.272701	-0.122779	0.288016
H119	H	0.701433	-0.959883	0.384798
H120	H	0.730142	-0.829171	0.317684
H121	H	0.701390	-0.164303	0.907573
Cl122	Cl	0.714144	-0.151548	1.130940
H123	H	0.568284	-0.603324	0.695407
H124	H	0.597064	-0.268494	1.106472
Cl125	Cl	0.714191	-1.055394	0.355107
H126	H	0.177235	-0.297420	0.695254
H127	H	0.597042	-0.268529	0.907404
H128	H	0.701251	-0.387488	0.384672
H129	H	0.121585	-0.297425	0.695294
Cl130	Cl	-0.189760	-0.151589	0.355210
H131	H	-0.094259	-0.164308	0.384897
Cl132	Cl	-0.083832	-0.281431	0.657966
H133	H	0.568347	-0.829188	0.695434
H134	H	0.597146	-1.045013	0.628351
H135	H	0.121553	-0.135528	0.317758
H136	H	0.393027	-0.164275	0.384724
Cl137	Cl	0.742806	-0.592917	0.287897
H138	H	-0.179348	-0.268697	0.628286
Cl139	Cl	0.584389	-0.949520	0.658075
Cl140	Cl	0.488537	-0.151530	0.354998
H141	H	0.568322	-0.744082	0.695413
Cl142	Cl	0.488555	-0.281387	0.657767
Cl143	Cl	0.026090	-0.310165	0.725038
Cl144	Cl	0.382671	-0.281390	0.657823
H145	H	0.596974	-0.472625	0.628241
Cl146	Cl	0.742836	-0.698796	0.287912
Cl147	Cl	0.714023	-0.482983	0.354974
H148	H	0.596945	-0.387503	0.628205
Cl149	Cl	0.742849	-0.733663	0.287926
