data_functionalizedCrystal
_audit_creation_method	'MofGen! by Chris Wilmer'
_symmetry_space_group_name_H-M	'P1'
_symmetry_Int_Tables_number	1
_symmetry_cell_setting	triclinic
loop_
_symmetry_equiv_pos_as_xyz
  x,y,z
_cell_length_a	21.295418
_cell_length_b	12.759400
_cell_length_c	12.759393
_cell_angle_alpha	90.030580
_cell_angle_beta	89.960549
_cell_angle_gamma	89.969501
loop_
_atom_site_label
_atom_site_type_symbol
_atom_site_fract_x
_atom_site_fract_y
_atom_site_fract_z
Zn1	Zn	0.962398	0.417771	-0.594609
Zn2	Zn	1.462398	0.917771	-0.094609
Zn3	Zn	0.962338	0.593487	-0.418929
Zn4	Zn	1.462338	1.093487	0.081071
Zn5	Zn	0.857129	0.417871	-0.418880
Zn6	Zn	1.357129	0.917871	0.081120
Zn7	Zn	0.857120	0.593457	-0.594502
Zn8	Zn	1.357120	1.093457	-0.094502
O9	O	0.909746	0.505646	-0.506730
O10	O	1.409746	1.005646	-0.006730
O11	O	1.050480	0.441051	-0.571370
O12	O	1.550480	0.941051	-0.071370
O13	O	0.948360	0.570245	-0.271901
O14	O	1.448360	1.070245	0.228099
O15	O	0.871123	0.270837	-0.442215
O16	O	1.371123	0.770837	0.057785
O17	O	1.050435	0.570148	-0.442299
O18	O	1.550435	1.070148	0.057701
O19	O	0.948464	0.270763	-0.571322
O20	O	1.448464	0.770763	-0.071322
O21	O	0.871064	0.441221	-0.271865
O22	O	1.371064	0.941221	0.228135
O23	O	0.769039	0.441192	-0.442111
O24	O	1.269039	0.941192	0.057889
O25	O	0.871107	0.570097	-0.741537
O26	O	1.371107	1.070097	-0.241537
O27	O	0.769032	0.570194	-0.571140
O28	O	1.269032	1.070194	-0.071140
O29	O	0.948454	0.441022	-0.741616
O30	O	1.448454	0.941022	-0.241616
O31	O	0.948351	0.740504	-0.442195
O32	O	1.448351	1.240504	0.057805
O33	O	0.871048	0.740482	-0.571188
O34	O	1.371048	1.240482	-0.071188
C35	C	0.746195	0.505702	-0.506609
C36	C	1.246195	1.005702	-0.006609
C37	C	0.676227	0.505751	-0.506582
C38	C	1.176227	1.005751	-0.006582
C39	C	0.909709	0.778614	-0.506708
C40	C	1.409709	1.278614	-0.006708
C41	C	0.909751	0.895390	-0.506734
C42	C	1.409751	1.395390	-0.006734
C43	C	0.909786	0.505545	-0.780764
C44	C	1.409786	1.005545	-0.280764
C45	C	0.909803	0.505502	-0.897540
C46	C	1.409803	1.005502	-0.397540
C47	C	0.643373	0.573011	-0.573667
C48	C	1.143373	1.073011	-0.073667
C49	C	0.577630	0.572985	-0.573714
C50	C	1.077630	1.072985	-0.073714
C51	C	0.544744	0.505710	-0.506658
C52	C	1.044744	1.005710	-0.006658
C53	C	0.577606	0.438436	-0.439568
C54	C	1.077606	0.938436	0.060432
C55	C	0.643347	0.438457	-0.439530
C56	C	1.143347	0.938457	0.060470
N57	N	0.441471	0.497513	-0.414766
N58	N	0.941471	0.997513	0.085234
N59	N	0.379019	0.497500	-0.414805
N60	N	0.879019	0.997500	0.085195
C61	C	0.346669	0.505643	-0.506769
C62	C	0.846669	1.005643	-0.006769
N63	N	0.379130	0.513820	-0.598696
N64	N	0.879130	1.013820	-0.098696
N65	N	0.441587	0.513839	-0.598656
N66	N	0.941587	1.013839	-0.098656
C67	C	0.473459	0.505680	-0.506692
C68	C	0.973459	1.005680	-0.006692
C69	C	0.242530	0.572879	-0.573911
C70	C	0.742530	1.072879	-0.073911
C71	C	0.176786	0.572846	-0.573960
C72	C	0.676786	1.072846	-0.073960
C73	C	0.176763	0.438302	-0.439804
C74	C	0.676763	0.938302	0.060196
C75	C	0.242506	0.438330	-0.439765
C76	C	0.742506	0.938330	0.060235
C77	C	0.275385	0.505624	-0.506817
C78	C	0.775385	1.005624	-0.006817
C79	C	1.073937	0.505592	-0.506852
C80	C	1.573937	1.005592	-0.006852
C81	C	1.143905	0.505568	-0.506904
C82	C	1.643905	1.005568	-0.006904
C83	C	0.909801	0.231613	-0.506775
C84	C	1.409801	0.731613	-0.006775
C85	C	0.909824	0.114836	-0.506794
C86	C	1.409824	0.614836	-0.006794
C87	C	0.950047	0.950229	-0.439642
C88	C	1.450047	1.450229	0.060358
C89	C	0.950086	1.059953	-0.439674
C90	C	1.450086	1.559953	0.060326
C91	C	0.869526	1.059990	-0.573894
C92	C	1.369526	1.559990	-0.073894
C93	C	0.869491	0.950268	-0.573866
C94	C	1.369491	1.450268	-0.073866
C95	C	0.996555	0.950208	-0.362148
C96	C	1.496555	1.450208	0.137852
C97	C	0.996594	1.059932	-0.362180
C98	C	1.496594	1.559932	0.137820
C99	C	0.950081	0.572612	-1.062142
C100	C	1.450081	1.072612	-0.562142
C101	C	0.950058	0.572657	-0.952418
C102	C	1.450058	1.072657	-0.452418
C103	C	0.869565	0.438305	-0.952392
C104	C	1.369565	0.938305	-0.452392
C105	C	0.869586	0.438266	-1.062115
C106	C	1.369586	0.938266	-0.562115
C107	C	0.996555	0.650176	-1.062156
C108	C	1.496555	1.150176	-0.562156
C109	C	0.996532	0.650221	-0.952432
C110	C	1.496532	1.150221	-0.452432
C111	C	0.909743	0.505671	-0.233763
C112	C	1.409743	1.005671	0.266237
C113	C	0.909848	0.505419	-0.116987
C114	C	1.409848	1.005419	0.383013
H115	H	0.670139	0.627806	-0.628268
H116	H	1.170139	1.127806	-0.128268
H117	H	0.269302	0.627668	-0.628514
H118	H	0.769302	1.127668	-0.128514
H119	H	0.269255	0.383564	-0.385132
H120	H	0.769255	0.883564	0.114868
H121	H	0.983571	1.089799	-0.280791
H122	H	1.483571	1.589799	0.219209
H123	H	1.042911	1.093856	-0.391422
H124	H	1.542911	1.593856	0.108578
H125	H	0.979106	0.916268	-0.284810
H126	H	1.479106	1.416268	0.215190
H127	H	0.150038	0.627615	-0.628595
H128	H	0.650038	1.127615	-0.128595
H129	H	0.670096	0.383682	-0.384902
H130	H	1.170096	0.883682	0.115098
H131	H	0.979062	0.727547	-0.918377
H132	H	1.479062	1.227547	-0.418377
H133	H	0.836785	0.383633	-0.907702
H134	H	1.336785	0.883633	-0.407702
H135	H	0.836817	0.383562	-1.106765
H136	H	1.336817	0.883562	-0.606765
H137	H	1.045283	0.628414	-0.922686
H138	H	1.545283	1.128414	-0.422686
H139	H	0.550876	0.627756	-0.628347
H140	H	1.050876	1.127756	-0.128347
H141	H	0.550826	0.383658	-0.384972
H142	H	1.050826	0.883658	0.115028
H143	H	0.983489	0.731541	-1.091909
H144	H	1.483489	1.231541	-0.591909
H145	H	0.836685	0.905620	-0.628507
H146	H	1.336685	1.405620	-0.128507
H147	H	0.836749	1.104685	-0.628551
H148	H	1.336749	1.604685	-0.128551
H149	H	0.149988	0.383520	-0.385211
H150	H	0.649988	0.883520	0.114789
H151	H	1.045293	0.920328	-0.384031
H152	H	1.545293	1.420328	0.115969
H153	H	1.042878	0.621001	-1.096223
H154	H	1.542878	1.121001	-0.596223
