data_functionalizedCrystal
_audit_creation_method	'MofGen! by Chris Wilmer'
_symmetry_space_group_name_H-M	'P1'
_symmetry_Int_Tables_number	1
_symmetry_cell_setting	triclinic
loop_
_symmetry_equiv_pos_as_xyz
  x,y,z
_cell_length_a	16.992694
_cell_length_b	11.792241
_cell_length_c	10.868271
_cell_angle_alpha	89.998441
_cell_angle_beta	90.001136
_cell_angle_gamma	87.430819
loop_
_atom_site_label
_atom_site_type_symbol
_atom_site_fract_x
_atom_site_fract_y
_atom_site_fract_z
O1	O	1.041415	0.240748	-0.102169
O2	O	1.374748	0.574081	0.231164
O3	O	1.708082	0.907415	0.564498
O4	O	0.813118	0.238107	-0.102205
O5	O	1.146452	0.571440	0.231128
O6	O	1.479785	0.904773	0.564461
O7	O	0.932807	0.074710	-0.102178
O8	O	1.266140	0.408043	0.231156
O9	O	1.599474	0.741377	0.564489
O10	O	0.921727	0.404145	-0.102197
O11	O	1.255060	0.737478	0.231137
O12	O	1.588393	1.070811	0.564470
O13	O	0.932796	0.074715	0.102467
O14	O	1.266129	0.408048	0.435800
O15	O	1.599463	0.741381	0.769134
O16	O	0.813108	0.238111	0.102439
O17	O	1.146441	0.571445	0.435773
O18	O	1.479774	0.904778	0.769106
O19	O	1.041404	0.240753	0.102476
O20	O	1.374737	0.574086	0.435809
O21	O	1.708071	0.907419	0.769142
Zn22	Zn	0.927254	0.239433	0.134949
Zn23	Zn	1.260587	0.572766	0.468283
Zn24	Zn	1.593921	0.906099	0.801616
Zn25	Zn	0.927268	0.239427	-0.134679
Zn26	Zn	1.260602	0.572760	0.198654
Zn27	Zn	1.593935	0.906093	0.531988
O28	O	0.921716	0.404149	0.102448
O29	O	1.255049	0.737483	0.435781
O30	O	1.588382	1.070816	0.769115
C31	C	0.783886	0.234711	0.000112
C32	C	1.117219	0.568045	0.333446
C33	C	1.450553	0.901378	0.666779
C34	C	0.696799	0.224573	0.000099
C35	C	1.030132	0.557907	0.333432
C36	C	1.363465	0.891240	0.666766
C37	C	0.646974	0.322391	0.000094
C38	C	0.980307	0.655724	0.333428
C39	C	1.313641	0.989058	0.666761
C40	C	0.565147	0.312859	0.000112
C41	C	0.898480	0.646192	0.333445
C42	C	1.231814	0.979525	0.666778
C43	C	0.533146	0.205507	0.000125
C44	C	0.866479	0.538841	0.333458
C45	C	1.199813	0.872174	0.666792
C46	C	0.582977	0.107682	0.000134
C47	C	0.916310	0.441016	0.333467
C48	C	1.249644	0.774349	0.666800
C49	C	0.664803	0.117216	0.000125
C50	C	0.998136	0.450549	0.333458
C51	C	1.331469	0.783882	0.666791
C52	C	0.289380	0.165995	0.000160
C53	C	0.622714	0.499328	0.333494
C54	C	0.956047	0.832661	0.666827
C55	C	0.207548	0.156468	0.000165
C56	C	0.540882	0.489802	0.333499
C57	C	0.874215	0.823135	0.666832
C58	C	0.189724	0.361646	0.000146
C59	C	0.523057	0.694979	0.333479
C60	C	0.856391	1.028313	0.666813
C61	C	0.271552	0.371170	0.000130
C62	C	0.604885	0.704503	0.333463
C63	C	0.938219	1.037837	0.666796
C64	C	0.321376	0.273345	0.000145
C65	C	0.654709	0.606678	0.333478
C66	C	0.988042	0.940011	0.666811
N67	N	0.449506	0.195761	0.000139
N68	N	0.782839	0.529094	0.333473
N69	N	1.116173	0.862428	0.666806
N70	N	0.405014	0.283092	0.000139
N71	N	0.738348	0.616425	0.333473
N72	N	1.071681	0.949759	0.666806
C73	C	0.932105	0.032364	0.000144
C74	C	1.265439	0.365698	0.333477
C75	C	1.598772	0.699031	0.666811
C76	C	0.930022	-0.093820	0.000143
C77	C	1.263356	0.239514	0.333476
C78	C	1.596689	0.572847	0.666809
C79	C	0.926191	-0.324845	0.000121
C80	C	1.259525	0.008488	0.333455
C81	C	1.592858	0.341822	0.666788
C82	C	0.928320	-0.196286	0.000133
C83	C	1.261653	0.137047	0.333466
C84	C	1.594987	0.470381	0.666800
C85	C	1.070637	0.244148	0.000155
C86	C	1.403970	0.577482	0.333488
C87	C	1.737303	0.910815	0.666822
C88	C	1.157724	0.254286	0.000161
C89	C	1.491057	0.587620	0.333494
C90	C	1.824390	0.920953	0.666827
C91	C	0.922417	0.446495	0.000123
C92	C	1.255751	0.779828	0.333457
C93	C	1.589084	1.113162	0.666790
C94	C	0.924500	0.572679	0.000117
C95	C	1.257834	0.906012	0.333450
C96	C	1.591167	1.239346	0.666784
N97	N	0.927250	0.239437	0.318963
N98	N	1.260583	0.572770	0.652297
N99	N	1.593917	0.906103	0.985630
N100	N	0.927279	0.239414	-0.318693
N101	N	1.260612	0.572748	0.014640
N102	N	1.593945	0.906081	0.347974
C103	C	0.927256	0.239438	0.430301
C104	C	1.260589	0.572771	0.763634
C105	C	1.593923	0.906104	1.096968
C106	C	0.927266	0.239428	0.569978
C107	C	1.260600	0.572761	0.903312
C108	C	1.593933	0.906095	1.236645
H109	H	0.524583	0.392513	0.000106
H110	H	0.857916	0.725846	0.333440
H111	H	1.191249	1.059179	0.666773
H112	H	0.181497	0.069046	0.000175
H113	H	0.514830	0.402379	0.333508
H114	H	0.848164	0.735712	0.666842
H115	H	0.556916	0.020274	0.000162
H116	H	0.890249	0.353608	0.333495
H117	H	1.223582	0.686941	0.666829
H118	H	0.329938	0.086338	0.000173
H119	H	0.663271	0.419671	0.333507
H120	H	0.996604	0.753005	0.666840
H121	H	0.673022	0.409808	0.000082
H122	H	1.006356	0.743141	0.333416
H123	H	1.339689	1.076475	0.666749
H124	H	0.705370	0.037562	0.000128
H125	H	1.038703	0.370895	0.333461
H126	H	1.372036	0.704228	0.666795
H127	H	0.297600	0.458587	0.000105
H128	H	0.630934	0.791920	0.333438
H129	H	0.964267	1.125253	0.666771
H130	H	0.149149	0.441289	0.000136
H131	H	0.482482	0.774622	0.333470
H132	H	0.815816	1.107956	0.666803
