data_functionalizedCrystal
_audit_creation_method	'MofGen! by Chris Wilmer'
_symmetry_space_group_name_H-M	'P1'
_symmetry_Int_Tables_number	1
_symmetry_cell_setting	triclinic
loop_
_symmetry_equiv_pos_as_xyz
  x,y,z
_cell_length_a	10.654541
_cell_length_b	10.654550
_cell_length_c	9.130313
_cell_angle_alpha	89.999724
_cell_angle_beta	89.995708
_cell_angle_gamma	84.484430
loop_
_atom_site_label
_atom_site_type_symbol
_atom_site_fract_x
_atom_site_fract_y
_atom_site_fract_z
O1	O	0.176399	1.667838	-0.121689
O2	O	0.193205	1.302359	-0.121716
O3	O	0.002063	1.493503	-0.121693
O4	O	0.367542	1.476694	-0.121712
O5	O	0.002057	1.493490	0.121906
O6	O	0.193200	1.302346	0.121883
O7	O	0.176393	1.667825	0.121910
Cu8	Cu	0.184796	1.485084	0.144139
Cu9	Cu	0.184803	1.485100	-0.143945
O10	O	0.367536	1.476681	0.121887
C11	C	0.191968	1.255555	0.000080
C12	C	0.188276	1.116112	0.000070
C13	C	0.300818	1.036625	0.000068
C14	C	0.297342	0.905604	0.000094
C15	C	0.068772	0.933569	0.000117
C16	C	0.072250	1.064588	0.000102
C17	C	-0.044738	1.492263	0.000105
C18	C	-0.184182	1.488572	0.000103
C19	C	-0.212153	1.717137	0.000138
C20	C	-0.291647	1.829680	0.000158
C21	C	-0.422665	1.826204	0.000154
C22	C	-0.474190	1.710173	0.000124
C23	C	-0.394696	1.597630	0.000103
C24	C	-0.263676	1.601118	0.000113
C25	C	-0.366725	1.369069	0.000057
C26	C	-0.235707	1.372541	0.000073
C27	C	-0.418251	1.253037	0.000028
C28	C	-0.338756	1.140492	0.000018
C29	C	-0.207731	1.143972	0.000024
C30	C	-0.156213	1.259998	0.000052
C31	C	0.414337	1.477921	0.000085
C32	C	0.553780	1.481612	0.000078
C33	C	0.177630	1.714629	0.000110
C34	C	0.181322	1.854072	0.000111
N35	N	0.184791	1.485082	0.346761
N36	N	0.184798	1.485111	-0.346568
C37	C	0.100189	1.569750	0.423423
C38	C	0.100189	1.569762	0.576760
C39	C	0.269404	1.400435	0.576759
C40	C	0.269397	1.400418	0.423425
H41	H	-0.019401	1.129309	0.000107
H42	H	-0.143012	1.052325	0.000001
H43	H	0.388985	0.840891	0.000095
H44	H	-0.025693	0.891602	0.000151
F45	F	0.359447	1.310336	0.658361
H46	H	-0.049533	1.262843	0.000067
H47	H	0.395294	1.078571	0.000053
H48	H	-0.249680	1.924150	0.000195
F49	F	-0.072712	1.720845	0.000172
F50	F	0.010140	1.659854	0.341838
H51	H	0.338290	1.331465	0.361003
H52	H	-0.487390	1.917847	0.000159
F53	F	0.010142	1.659873	0.658344
F54	F	-0.613632	1.706480	0.000038
H55	H	-0.524933	1.250216	0.000015
F56	F	-0.393601	1.017017	-0.000030
