data_functionalizedCrystal
_audit_creation_method	'MofGen! by Chris Wilmer'
_symmetry_space_group_name_H-M	'P1'
_symmetry_Int_Tables_number	1
_symmetry_cell_setting	triclinic
loop_
_symmetry_equiv_pos_as_xyz
  x,y,z
_cell_length_a	23.532355
_cell_length_b	23.532407
_cell_length_c	22.610064
_cell_angle_alpha	89.999397
_cell_angle_beta	89.997644
_cell_angle_gamma	82.838088
loop_
_atom_site_label
_atom_site_type_symbol
_atom_site_fract_x
_atom_site_fract_y
_atom_site_fract_z
O1	O	0.755283	0.068986	-0.049110
O2	O	1.255283	0.568986	0.450890
O3	O	0.589415	0.079020	-0.049130
O4	O	1.089415	0.579020	0.450870
O5	O	0.677351	-0.008929	-0.049108
O6	O	1.177351	0.491071	0.450892
O7	O	0.667347	0.156936	-0.049131
O8	O	1.167347	0.656936	0.450869
O9	O	0.677335	-0.008916	0.049261
O10	O	1.177335	0.491084	0.549261
O11	O	0.589400	0.079033	0.049239
O12	O	1.089400	0.579033	0.549239
O13	O	0.755267	0.068999	0.049259
O14	O	1.255267	0.568999	0.549259
Zn15	Zn	0.672331	0.074018	0.064868
Zn16	Zn	1.172331	0.574018	0.564868
Zn17	Zn	0.672351	0.074001	-0.064738
Zn18	Zn	1.172351	0.574001	0.435262
O19	O	0.667332	0.156949	0.049238
O20	O	1.167332	0.656949	0.549238
C21	C	0.568191	0.078776	0.000052
C22	C	1.068191	0.578776	0.500052
C23	C	0.504972	0.078022	0.000045
C24	C	1.004972	0.578022	0.500045
C25	C	0.677088	-0.030139	0.000078
C26	C	1.177088	0.469861	0.500078
C27	C	0.676322	-0.093356	0.000082
C28	C	1.176322	0.406644	0.500082
C29	C	0.112950	0.073291	0.053692
C30	C	0.612950	0.573291	0.553692
C31	C	0.053550	0.072573	0.053694
C32	C	0.553550	0.572573	0.553694
O33	O	0.022825	0.072189	0.099296
O34	O	0.522825	0.572189	0.599296
N35	N	0.023850	0.072211	0.000074
N36	N	0.523850	0.572211	0.500074
C37	C	0.053554	0.072560	-0.053553
C38	C	0.553554	0.572560	0.446447
O39	O	0.022837	0.072185	-0.099162
O40	O	0.522837	0.572185	0.400838
C41	C	0.112953	0.073273	-0.053555
C42	C	0.612953	0.573273	0.446445
C43	C	0.142649	0.073641	0.000069
C44	C	0.642649	0.573641	0.500069
C45	C	0.142646	0.073659	0.107312
C46	C	0.642646	0.573659	0.607312
C47	C	0.202041	0.074377	0.107309
C48	C	0.702041	0.574377	0.607309
C49	C	0.231740	0.074728	0.053687
C50	C	0.731740	0.574728	0.553687
C51	C	0.202044	0.074360	0.000067
C52	C	0.702044	0.574360	0.500067
C53	C	0.142655	0.073618	-0.107181
C54	C	0.642655	0.573618	0.392819
C55	C	0.202058	0.074331	-0.107178
C56	C	0.702058	0.574331	0.392822
C57	C	0.231754	0.074699	-0.053554
C58	C	0.731754	0.574699	0.446446
C59	C	0.291138	0.075429	-0.053558
C60	C	0.791138	0.575429	0.446442
N61	N	0.320838	0.075792	0.000062
N62	N	0.820838	0.575792	0.500062
C63	C	0.291139	0.075441	0.053685
C64	C	0.791139	0.575441	0.553685
C65	C	-0.071188	0.071061	-0.053545
C66	C	0.428812	0.571061	0.446455
C67	C	-0.130586	0.070351	-0.053544
C68	C	0.369414	0.570351	0.446456
C69	C	-0.130585	0.070364	0.053703
C70	C	0.369415	0.570364	0.553703
C71	C	-0.071186	0.071077	0.053702
C72	C	0.428814	0.571077	0.553702
C73	C	-0.041488	0.071423	0.000075
C74	C	0.458512	0.571423	0.500075
C75	C	0.415873	0.076951	0.053675
C76	C	0.915873	0.576951	0.553675
C77	C	0.475273	0.077671	0.053668
C78	C	0.975273	0.577671	0.553668
C79	C	0.475267	0.077656	-0.053579
C80	C	0.975267	0.577656	0.446421
C81	C	0.415872	0.076938	-0.053572
C82	C	0.915872	0.576938	0.446428
C83	C	0.386177	0.076583	0.000060
C84	C	0.886177	0.576583	0.500060
O85	O	0.321902	0.075812	-0.099137
O86	O	0.821902	0.575812	0.400863
O87	O	0.321864	0.075809	0.099286
O88	O	0.821864	0.575809	0.599286
C89	C	0.723557	-0.492468	0.000055
C90	C	1.223557	0.007532	0.500055
C91	C	0.722845	-0.551868	0.000051
C92	C	1.222845	-0.051868	0.500051
O93	O	0.766632	-0.588620	0.000034
O94	O	1.266632	-0.088620	0.500034
N95	N	0.670568	-0.574484	0.000045
N96	N	1.170568	-0.074484	0.500045
C97	C	0.618998	-0.537697	0.000038
C98	C	1.118998	-0.037697	0.500038
O99	O	0.574467	-0.562388	0.000032
O100	O	1.074467	-0.062388	0.500032
C101	C	0.619710	-0.478298	0.000038
C102	C	1.119710	0.021702	0.500038
C103	C	0.671991	-0.455685	0.000050
C104	C	1.171991	0.044315	0.500050
C105	C	0.775834	-0.469854	0.000066
C106	C	1.275834	0.030146	0.500066
C107	C	0.776545	-0.410458	0.000072
C108	C	1.276545	0.089542	0.500072
C109	C	0.724979	-0.373676	0.000067
C110	C	1.224979	0.126324	0.500067
C111	C	0.672703	-0.396289	0.000055
C112	C	1.172703	0.103711	0.500055
C113	C	0.568141	-0.441512	0.000027
C114	C	1.068141	0.058488	0.500027
C115	C	0.568858	-0.382110	0.000026
C116	C	1.068858	0.117890	0.500026
C117	C	0.621139	-0.359497	0.000038
C118	C	1.121139	0.140503	0.500038
C119	C	0.621848	-0.300110	0.000056
C120	C	1.121848	0.199890	0.500056
N121	N	0.674126	-0.277494	0.000061
N122	N	1.174126	0.222506	0.500061
C123	C	0.725691	-0.314277	0.000067
C124	C	1.225691	0.185723	0.500067
C125	C	0.617507	-0.662439	0.000036
C126	C	1.117507	-0.162439	0.500036
C127	C	0.616794	-0.721837	0.000040
C128	C	1.116794	-0.221837	0.500040
C129	C	0.720642	-0.736004	0.000052
C130	C	1.220642	-0.236004	0.500052
C131	C	0.721354	-0.676605	0.000052
C132	C	1.221354	-0.176605	0.500052
C133	C	0.669784	-0.639823	0.000042
C134	C	1.169784	-0.139823	0.500042
C135	C	0.727181	-0.189540	0.000079
C136	C	1.227181	0.310460	0.500079
C137	C	0.727888	-0.130138	0.000087
C138	C	1.227888	0.369862	0.500087
C139	C	0.624041	-0.115977	0.000072
C140	C	1.124041	0.384023	0.500072
C141	C	0.623334	-0.175373	0.000067
C142	C	1.123334	0.324627	0.500067
C143	C	0.674909	-0.212154	0.000069
C144	C	1.174909	0.287846	0.500069
O145	O	0.578084	-0.263323	0.000070
O146	O	1.078084	0.236677	0.500070
O147	O	0.770216	-0.289577	0.000065
O148	O	1.270216	0.210423	0.500065
C149	C	0.776491	0.069244	0.000076
C150	C	1.276491	0.569244	0.500076
C151	C	0.839710	0.069998	0.000079
C152	C	1.339710	0.569998	0.500079
C153	C	0.667594	0.178158	0.000050
C154	C	1.167594	0.678158	0.500050
C155	C	0.668360	0.241375	0.000042
C156	C	1.168360	0.741375	0.500042
N157	N	0.672321	0.074029	0.153320
N158	N	1.172321	0.574029	0.653320
N159	N	0.672366	0.073986	-0.153191
N160	N	1.172366	0.573986	0.346809
C161	C	0.711291	0.035063	0.561971
C162	C	1.211291	0.535063	1.061971
C163	C	0.711294	0.035059	0.623891
C164	C	1.211294	0.535059	1.123891
O165	O	0.744403	0.001937	0.655917
O166	O	1.244403	0.501937	1.155917
N167	N	0.672351	0.073990	0.654857
N168	N	1.172351	0.573990	1.154857
C169	C	0.633399	0.112923	0.623900
C170	C	1.133399	0.612923	1.123900
O171	O	0.600275	0.146036	0.655926
O172	O	1.100275	0.646036	1.155926
C173	C	0.633394	0.112924	0.561982
C174	C	1.133394	0.612924	1.061982
C175	C	0.672343	0.073995	0.531018
C176	C	1.172343	0.573995	1.031018
C177	C	0.750237	-0.003863	0.531007
C178	C	1.250237	0.496137	1.031007
C179	C	0.750234	-0.003858	0.469092
C180	C	1.250234	0.496142	0.969092
C181	C	0.711286	0.035073	0.438139
C182	C	1.211286	0.535073	0.938139
C183	C	0.672340	0.074000	0.469103
C184	C	1.172340	0.574000	0.969103
C185	C	0.594439	0.151854	0.531026
C186	C	1.094439	0.651854	1.031026
C187	C	0.594437	0.151851	0.469103
C188	C	1.094437	0.651851	0.969103
C189	C	0.633386	0.112922	0.438140
C190	C	1.133386	0.612922	0.938140
C191	C	0.633390	0.112936	0.376235
C192	C	1.133390	0.612936	0.876235
N193	N	0.672333	0.074006	0.345268
N194	N	1.172333	0.574006	0.845268
C195	C	0.711281	0.035074	0.376221
C196	C	1.211281	0.535074	0.876221
C197	C	0.633412	0.112917	0.753934
C198	C	1.133412	0.612917	1.253934
C199	C	0.633419	0.112919	0.815852
C200	C	1.133419	0.612919	1.315852
C201	C	0.711314	0.035055	0.815838
C202	C	1.211314	0.535055	1.315838
C203	C	0.711309	0.035056	0.753919
C204	C	1.211309	0.535056	1.253919
C205	C	0.672355	0.073987	0.722968
C206	C	1.172355	0.573987	1.222968
C207	C	0.711273	0.035088	0.246193
C208	C	1.211273	0.535088	0.746193
C209	C	0.711269	0.035098	0.184272
C210	C	1.211269	0.535098	0.684272
C211	C	0.633373	0.112960	0.184292
C212	C	1.133373	0.612960	0.684292
C213	C	0.633379	0.112953	0.246207
C214	C	1.133379	0.612953	0.746207
C215	C	0.672331	0.074012	0.277157
C216	C	1.172331	0.574012	0.777157
O217	O	0.600296	0.146040	0.344169
O218	O	1.100296	0.646040	0.844169
O219	O	0.744395	0.001962	0.344188
O220	O	1.244395	0.501962	0.844188
H221	H	0.499449	0.077973	0.097337
H222	H	0.999449	0.577973	0.597337
H223	H	0.562714	0.183553	0.443906
H224	H	1.062714	0.683553	0.943906
H225	H	0.499459	0.077943	-0.097237
H226	H	0.999459	0.577943	0.402763
C227	C	0.568039	-0.076063	0.000184
C228	C	1.068039	0.423937	0.500184
C229	C	0.536529	-0.086222	0.050791
C230	C	1.036529	0.413778	0.550791
C231	C	0.484940	-0.049458	0.050912
C232	C	0.984940	0.450542	0.550912
H233	H	0.546529	-0.082852	-0.034086
H234	H	1.046529	0.417148	0.465914
H235	H	0.575929	-0.037441	0.000217
H236	H	1.075929	0.462559	0.500217
H237	H	0.528637	-0.124835	0.050752
H238	H	1.028637	0.375165	0.550752
H239	H	0.558021	-0.079429	0.085069
H240	H	1.058021	0.420571	0.585069
H241	H	0.492831	-0.010836	0.050945
H242	H	0.992831	0.489164	0.550945
H243	H	0.463436	-0.056250	0.016640
H244	H	0.963436	0.443750	0.516640
H245	H	0.463557	-0.056342	0.085250
H246	H	0.963557	0.443658	0.585250
C247	C	0.783158	-0.229495	-0.000037
C248	C	1.283158	0.270505	0.499963
C249	C	0.785808	-0.263999	-0.050655
C250	C	1.285808	0.236001	0.449345
C251	C	0.837369	-0.300807	-0.050782
C252	C	1.337369	0.199193	0.449218
H253	H	0.785091	-0.253017	0.034225
H254	H	1.285091	0.246983	0.534225
H255	H	0.814407	-0.207533	-0.000061
H256	H	1.314407	0.292467	0.499939
H257	H	0.754568	-0.285959	-0.050626
H258	H	1.254568	0.214041	0.449374
H259	H	0.783886	-0.240493	-0.084925
H260	H	1.283886	0.259507	0.415075
H261	H	0.868617	-0.278845	-0.050806
H262	H	1.368617	0.221155	0.449194
H263	H	0.839296	-0.324324	-0.016518
H264	H	1.339296	0.175676	0.483482
H265	H	0.839176	-0.324218	-0.085128
H266	H	1.339176	0.175782	0.414872
C267	C	0.792324	-0.046234	0.435373
C268	C	1.292324	0.453766	0.935373
C269	C	0.783926	-0.037975	0.374520
C270	C	1.283926	0.462025	0.874520
C271	C	0.822619	-0.077074	0.343445
C272	C	1.322619	0.422926	0.843445
H273	H	0.786214	-0.084162	0.445554
H274	H	1.286214	0.415838	0.945554
H275	H	0.830383	-0.040422	0.445386
H276	H	1.330383	0.459578	0.945386
H277	H	0.745877	-0.043791	0.364512
H278	H	1.245877	0.456209	0.864512
H279	H	0.790041	-0.000054	0.364322
H280	H	1.290041	0.499946	0.864322
H281	H	0.860677	-0.071263	0.353458
H282	H	1.360677	0.428737	0.853458
H283	H	0.816505	-0.115000	0.353630
H284	H	1.316505	0.385000	0.853630
H285	H	0.816930	-0.071473	0.302153
H286	H	1.316930	0.428527	0.802153
H287	H	0.743027	0.003354	0.841050
H288	H	1.243027	0.503354	1.341050
C289	C	0.110318	0.073242	-0.165342
C290	C	0.610318	0.573242	0.334658
C291	C	0.051938	0.072554	-0.153878
C292	C	0.551938	0.572554	0.346122
C293	C	0.022132	0.072214	-0.207444
C294	C	0.522132	0.572214	0.292556
H295	H	0.124524	0.040146	-0.187408
H296	H	0.624524	0.540146	0.312592
H297	H	0.115488	0.106583	-0.187387
H298	H	0.615488	0.606583	0.312613
H299	H	0.046772	0.039217	-0.131842
H300	H	0.546772	0.539217	0.368158
H301	H	0.037716	0.105647	-0.131820
H302	H	0.537716	0.605647	0.368180
H303	H	0.027301	0.105555	-0.229489
H304	H	0.527301	0.605555	0.270511
H305	H	0.036342	0.039119	-0.229506
H306	H	0.536342	0.539119	0.270494
H307	H	-0.017483	0.071753	-0.199673
H308	H	0.482517	0.571753	0.300327
H309	H	0.770463	-0.111731	0.000099
H310	H	1.270463	0.388269	0.500099
C311	C	0.778175	-0.652167	0.000028
C312	C	1.278175	-0.152167	0.500028
C313	C	0.823177	-0.697100	0.000019
C314	C	1.323177	-0.197100	0.500019
C315	C	0.875530	-0.674614	-0.000014
C316	C	1.375530	-0.174614	0.499986
H317	H	0.780691	-0.629297	0.034320
H318	H	1.280691	-0.129297	0.534320
H319	H	0.780648	-0.629310	-0.034291
H320	H	1.280648	-0.129310	0.465709
H321	H	0.820704	-0.719948	0.034334
H322	H	1.320704	-0.219948	0.534334
H323	H	0.820679	-0.719974	-0.034272
H324	H	1.320679	-0.219974	0.465728
H325	H	0.878004	-0.651757	-0.034333
H326	H	1.378004	-0.151757	0.465667
H327	H	0.878041	-0.651744	0.034279
H328	H	1.378041	-0.151744	0.534279
H329	H	0.906071	-0.705097	-0.000026
H330	H	1.406071	-0.205097	0.499974
H331	H	0.781953	-0.035569	0.556203
H332	H	1.281953	0.464431	1.056203
H333	H	0.601668	0.144658	0.271418
H334	H	1.101668	0.644658	0.771418
H335	H	0.817827	-0.499797	0.000069
H336	H	1.317827	0.000203	0.500069
C337	C	0.552238	0.194182	0.564666
C338	C	1.052238	0.694182	1.064666
C339	C	0.582365	0.228904	0.600202
C340	C	1.082365	0.728904	1.100202
C341	C	0.543504	0.267908	0.631193
C342	C	1.043504	0.767908	1.131193
H343	H	0.528634	0.173882	0.588868
H344	H	1.028634	0.673882	1.088868
H345	H	0.529049	0.217396	0.537375
H346	H	1.029049	0.717396	1.037375
H347	H	0.605543	0.205693	0.627489
H348	H	1.105543	0.705693	1.127489
H349	H	0.605966	0.249216	0.576015
H350	H	1.105966	0.749216	1.076015
H351	H	0.520316	0.291122	0.603902
H352	H	1.020316	0.791122	1.103902
H353	H	0.519903	0.247604	0.655392
H354	H	1.019903	0.747604	1.155392
H355	H	0.563940	0.291475	0.655304
H356	H	1.063940	0.791475	1.155304
C357	C	-0.162824	0.070095	0.111941
C358	C	0.337176	0.570095	0.611941
C359	C	-0.155087	0.119282	0.144286
C360	C	0.344913	0.619282	0.644286
C361	C	-0.184785	0.119057	0.197930
C362	C	0.315215	0.619057	0.697930
H363	H	-0.148588	0.037036	0.134048
H364	H	0.351412	0.537036	0.634048
H365	H	-0.202461	0.069645	0.104281
H366	H	0.297539	0.569645	0.604281
H367	H	-0.115458	0.119726	0.151948
H368	H	0.384542	0.619726	0.651948
H369	H	-0.169326	0.152348	0.122197
H370	H	0.330674	0.652348	0.622197
H371	H	-0.224422	0.118607	0.190269
H372	H	0.275578	0.618607	0.690269
H373	H	-0.170546	0.085996	0.220031
H374	H	0.329454	0.585996	0.720031
H375	H	-0.179543	0.152432	0.219880
H376	H	0.320457	0.652432	0.719880
H377	H	0.226236	0.074613	-0.150848
H378	H	0.726236	0.574613	0.349152
C379	C	0.833291	-0.385878	0.000197
C380	C	1.333291	0.114122	0.500197
C381	C	0.836742	-0.352203	0.050813
C382	C	1.336742	0.147797	0.550813
C383	C	0.889013	-0.329561	0.050949
C384	C	1.389013	0.170439	0.550949
H385	H	0.835788	-0.362963	-0.034067
H386	H	1.335788	0.137037	0.465933
H387	H	0.863913	-0.416281	0.000229
H388	H	1.363913	0.083719	0.500229
H389	H	0.806128	-0.321804	0.050775
H390	H	1.306128	0.178196	0.550775
H391	H	0.834255	-0.375105	0.085085
H392	H	1.334255	0.124895	0.585085
H393	H	0.919635	-0.359965	0.050981
H394	H	1.419635	0.140035	0.550981
H395	H	0.891506	-0.306649	0.016683
H396	H	1.391506	0.193351	0.516683
H397	H	0.891364	-0.306715	0.085293
H398	H	1.391364	0.193285	0.585293
H399	H	0.601663	0.144660	0.159081
H400	H	1.101663	0.644660	0.659081
H401	H	0.743024	0.003356	0.728712
H402	H	1.243024	0.503356	1.228712
C403	C	0.383736	0.076600	0.111966
C404	C	0.883736	0.576600	0.611966
C405	C	0.422464	0.077091	0.158917
C406	C	0.922464	0.577091	0.658917
C407	C	0.392879	0.076780	0.212622
C408	C	0.892879	0.576780	0.712622
H409	H	0.365096	0.043114	0.114292
H410	H	0.865096	0.543114	0.614292
H411	H	0.356041	0.109550	0.114225
H412	H	0.856041	0.609550	0.614225
H413	H	0.450149	0.044144	0.156659
H414	H	0.950149	0.544144	0.656659
H415	H	0.441105	0.110575	0.156610
H416	H	0.941105	0.610575	0.656610
H417	H	0.365184	0.109731	0.214881
H418	H	0.865184	0.609731	0.714881
H419	H	0.374240	0.043294	0.214942
H420	H	0.874240	0.543294	0.714942
H421	H	0.419150	0.077119	0.244485
H422	H	0.919150	0.577119	0.744485
C423	C	0.383732	0.076521	-0.111854
C424	C	0.883732	0.576521	0.388146
C425	C	0.422459	0.076974	-0.158814
C426	C	0.922459	0.576974	0.341186
C427	C	0.392878	0.076580	-0.212512
C428	C	0.892878	0.576580	0.287488
H429	H	0.356023	0.109447	-0.114168
H430	H	0.856023	0.609447	0.385832
H431	H	0.365112	0.043011	-0.114114
H432	H	0.865112	0.543011	0.385886
H433	H	0.441070	0.110480	-0.156555
H434	H	0.941070	0.610480	0.343445
H435	H	0.450169	0.044050	-0.156519
H436	H	0.950169	0.544050	0.343481
H437	H	0.374258	0.043070	-0.214772
H438	H	0.874258	0.543070	0.285228
H439	H	0.365170	0.109506	-0.214820
H440	H	0.865170	0.609506	0.285180
H441	H	0.419151	0.076881	-0.244381
H442	H	0.919151	0.576881	0.255619
H443	H	0.526863	-0.352164	0.000017
H444	H	1.026863	0.147836	0.500017
H445	H	-0.154761	0.070060	-0.097211
H446	H	0.345239	0.570060	0.402789
C447	C	0.591108	0.155099	0.849540
C448	C	1.091108	0.655099	1.349540
C449	C	0.556427	0.124944	0.885100
C450	C	1.056427	0.624944	1.385100
C451	C	0.517444	0.163780	0.916145
C452	C	1.017444	0.663780	1.416145
H453	H	0.567858	0.178301	0.822301
H454	H	1.067858	0.678301	1.322301
H455	H	0.611442	0.178692	0.873729
H456	H	1.111442	0.678692	1.373729
H457	H	0.536094	0.101361	0.860913
H458	H	1.036094	0.601361	1.360913
H459	H	0.579660	0.101745	0.912350
H460	H	1.079660	0.601745	1.412350
H461	H	0.537779	0.187373	0.940334
H462	H	1.037779	0.687373	1.440334
H463	H	0.494198	0.186979	0.888902
H464	H	0.994198	0.686979	1.388902
H465	H	0.493912	0.143326	0.940280
H466	H	0.993912	0.643326	1.440280
H467	H	0.762629	-0.765963	0.000054
H468	H	1.262629	-0.265963	0.500054
C469	C	0.559973	-0.746273	0.000004
C470	C	1.059973	-0.246273	0.500004
C471	C	0.514970	-0.701340	-0.000014
C472	C	1.014970	-0.201340	0.499986
C473	C	0.462617	-0.723826	-0.000059
C474	C	0.962617	-0.223826	0.499941
H475	H	0.557446	-0.769143	0.034295
H476	H	1.057446	-0.269143	0.534295
H477	H	0.557508	-0.769130	-0.034316
H478	H	1.057508	-0.269130	0.465684
H479	H	0.517433	-0.678493	0.034302
H480	H	1.017433	-0.178493	0.534302
H481	H	0.517478	-0.678466	-0.034303
H482	H	1.017478	-0.178466	0.465697
H483	H	0.460152	-0.746684	-0.034379
H484	H	0.960152	-0.246684	0.465621
H485	H	0.460096	-0.746696	0.034233
H486	H	0.960096	-0.246696	0.534233
H487	H	0.432076	-0.693343	-0.000077
H488	H	0.932076	-0.193343	0.499923
C489	C	0.561530	-0.622479	-0.000088
C490	C	1.061530	-0.122479	0.499912
C491	C	0.558899	-0.587973	-0.050703
C492	C	1.058899	-0.087973	0.449297
C493	C	0.507339	-0.551164	-0.050843
C494	C	1.007339	-0.051164	0.449157
H495	H	0.559587	-0.598959	0.034176
H496	H	1.059587	-0.098959	0.534176
H497	H	0.530281	-0.644440	-0.000123
H498	H	1.030281	-0.144440	0.499877
H499	H	0.590139	-0.566013	-0.050663
H500	H	1.090139	-0.066013	0.449337
H501	H	0.560832	-0.611477	-0.084975
H502	H	1.060832	-0.111477	0.415025
H503	H	0.476090	-0.573125	-0.050877
H504	H	0.976090	-0.073125	0.449123
H505	H	0.505400	-0.527648	-0.016576
H506	H	1.005400	-0.027648	0.483424
H507	H	0.505544	-0.527751	-0.085187
H508	H	1.005544	-0.027751	0.414813
H509	H	0.226215	0.074674	0.150976
H510	H	0.726215	0.574674	0.650976
H511	H	0.525569	-0.459912	0.000013
H512	H	1.025569	0.040088	0.500013
H513	H	0.580762	-0.193785	0.000074
H514	H	1.080762	0.306215	0.500074
C515	C	0.753583	-0.007236	0.150763
C516	C	1.253583	0.492764	0.650763
C517	C	0.787680	-0.041341	0.191128
C518	C	1.287680	0.458659	0.691128
C519	C	0.826659	-0.080350	0.160283
C520	C	1.326659	0.419650	0.660283
H521	H	0.777229	0.013060	0.126605
H522	H	1.277229	0.513060	0.626605
H523	H	0.733246	-0.030867	0.126621
H524	H	1.233246	0.469133	0.626621
H525	H	0.808016	-0.017713	0.215259
H526	H	1.308016	0.482287	0.715259
H527	H	0.764051	-0.061650	0.215286
H528	H	1.264051	0.438350	0.715286
H529	H	0.806322	-0.103981	0.136142
H530	H	1.306322	0.396019	0.636142
H531	H	0.850300	-0.060049	0.136127
H532	H	1.350300	0.439951	0.636127
H533	H	0.849794	-0.103498	0.187665
H534	H	1.349794	0.396502	0.687665
C535	C	0.591097	0.155259	0.720439
C536	C	1.091097	0.655259	1.220439
C537	C	0.557008	0.189359	0.760817
C538	C	1.057008	0.689359	1.260817
C539	C	0.518026	0.228375	0.729987
C540	C	1.018026	0.728375	1.229987
H541	H	0.567446	0.134969	0.696284
H542	H	1.067446	0.634969	1.196284
H543	H	0.611431	0.178893	0.696297
H544	H	1.111431	0.678893	1.196297
H545	H	0.536675	0.165728	0.784949
H546	H	1.036675	0.665728	1.284949
H547	H	0.580642	0.209662	0.784973
H548	H	1.080642	0.709662	1.284973
H549	H	0.538361	0.252009	0.705845
H550	H	1.038361	0.752009	1.205845
H551	H	0.494380	0.208080	0.705833
H552	H	0.994380	0.708080	1.205833
H553	H	0.494896	0.251520	0.757379
H554	H	0.994896	0.751520	1.257379
H555	H	0.118472	0.073372	0.150980
H556	H	0.618472	0.573372	0.650980
H557	H	0.742991	0.003378	0.271385
H558	H	1.242991	0.503378	0.771385
H559	H	-0.047012	0.071378	0.097367
H560	H	0.452988	0.571378	0.597367
H561	H	-0.047012	0.071348	-0.097217
H562	H	0.452988	0.571348	0.402783
