data_functionalizedCrystal
_audit_creation_method	'MofGen! by Chris Wilmer'
_symmetry_space_group_name_H-M	'P1'
_symmetry_Int_Tables_number	1
_symmetry_cell_setting	triclinic
loop_
_symmetry_equiv_pos_as_xyz
  x,y,z
_cell_length_a	14.395555
_cell_length_b	14.446369
_cell_length_c	14.446369
_cell_angle_alpha	60.000250
_cell_angle_beta	90.001433
_cell_angle_gamma	60.002664
loop_
_atom_site_label
_atom_site_type_symbol
_atom_site_fract_x
_atom_site_fract_y
_atom_site_fract_z
Zr1	Zr	0.894883	1.013275	-0.121541
O2	O	0.746561	1.206380	-0.269348
O3	O	0.940350	0.820161	-0.076224
O4	O	0.940352	1.013269	-0.269343
O5	O	0.746559	1.013279	0.076100
O6	O	1.093220	1.013276	-0.269347
O7	O	0.746559	1.013271	-0.076228
O8	O	1.093216	0.667840	0.076108
O9	O	0.746563	1.358715	-0.269355
O10	O	1.073826	0.899600	-0.056907
O11	O	0.959743	0.899602	0.056777
O12	O	0.959745	1.126962	-0.170596
O13	O	0.845662	1.126963	-0.056912
Zr14	Zr	1.138688	1.013300	0.121400
Zr15	Zr	1.138689	1.013286	-0.121547
Zr16	Zr	0.894883	1.013289	0.121406
Zr17	Zr	0.894885	1.256233	-0.121552
Zr18	Zr	1.138686	0.770342	0.121411
O19	O	1.093221	1.206414	0.076083
O20	O	1.093221	1.206395	-0.269356
O21	O	0.746561	1.206399	0.076091
O22	O	1.287010	0.820195	0.269207
O23	O	1.287011	0.820176	-0.076232
O24	O	0.940350	0.820180	0.269215
O25	O	1.287012	1.013295	-0.076241
O26	O	1.093219	1.013306	0.269202
O27	O	0.940352	1.013299	0.269206
O28	O	1.287012	1.013304	0.076088
O29	O	0.940356	1.358724	-0.269359
O30	O	1.093216	0.667851	0.269218
O31	O	1.287009	0.667859	0.269214
O32	O	1.287009	0.667849	0.076103
O33	O	0.746562	1.358726	-0.076244
O34	O	0.940355	1.358735	-0.076249
O35	O	1.073826	0.899613	0.170455
O36	O	1.187909	0.899612	0.056771
O37	O	1.073828	1.126973	-0.056918
O38	O	0.959745	1.126974	0.056766
C39	C	1.016783	0.709384	-0.000056
C40	C	1.016782	0.606242	-0.000052
C41	C	0.945174	0.459233	0.071977
C42	C	0.944785	0.566853	0.071686
C43	C	0.964294	0.655229	-0.123585
C44	C	0.963756	0.547996	-0.123211
C45	C	1.140929	0.372793	0.050390
C46	C	1.140746	0.478943	0.052911
C47	C	0.711822	1.013274	-0.000063
C48	C	0.608320	1.013269	-0.000061
C49	C	0.609933	0.889302	0.061926
C50	C	0.516918	0.951278	0.106849
C51	C	0.516907	0.951298	-0.044952
C52	C	0.516668	1.075246	0.044925
C53	C	0.516671	1.075249	-0.106935
C54	C	0.423639	1.137315	-0.062038
C55	C	1.321749	1.013301	-0.000078
C56	C	1.425251	1.013306	-0.000080
C57	C	1.016786	1.013271	-0.303960
C58	C	1.016786	1.013265	-0.407097
C59	C	1.016788	1.317191	-0.000084
C60	C	1.016789	1.420333	-0.000089
C61	C	1.089095	0.869883	-0.482075
C62	C	1.088782	0.869786	-0.374746
C63	C	0.892827	1.084487	-0.481657
C64	C	0.893223	1.083577	-0.588516
C65	C	1.067435	1.086538	-0.590094
C66	C	1.069943	1.083836	-0.481422
C67	C	1.016785	1.013304	0.303819
C68	C	1.016785	1.013310	0.406956
C69	C	1.321747	0.709398	-0.000064
C70	C	1.425247	0.606260	-0.000061
C71	C	1.016783	0.709401	0.303833
C72	C	1.016781	0.606264	0.406975
C73	C	1.321746	0.709415	0.303826
C74	C	1.425247	0.606283	0.406965
C75	C	0.711825	1.317160	-0.303967
C76	C	0.608325	1.420292	-0.407106
C77	C	0.711825	1.317177	-0.000077
C78	C	0.608324	1.420314	-0.000079
C79	C	1.016789	1.317174	-0.303974
C80	C	1.016790	1.420310	-0.407116
C81	C	1.644375	0.459961	0.071264
C82	C	1.536771	0.566879	0.071673
C83	C	1.428586	0.479405	0.052241
C84	C	1.536729	0.372033	0.052756
C85	C	1.535353	0.547002	-0.123802
C86	C	1.429016	0.655469	-0.123600
C87	C	0.944480	0.459947	0.481966
C88	C	0.944787	0.566868	0.374632
C89	C	1.140743	0.479417	0.481531
C90	C	1.140353	0.372042	0.588395
C91	C	0.966144	0.547007	0.589977
C92	C	0.963628	0.655477	0.481301
C93	C	1.500493	0.459956	0.625327
C94	C	1.392786	0.566889	0.518099
C95	C	1.500049	0.479437	0.410280
C96	C	1.607284	0.372050	0.518046
C97	C	1.608905	0.546994	0.516699
C98	C	1.499851	0.655476	0.410733
H99	H	0.873818	0.747530	-0.164272
F100	F	1.425791	0.429006	0.170094
H101	H	0.689688	0.784475	0.114415
H102	H	1.179959	0.439349	0.143919
H103	H	0.853505	0.656211	0.320362
H104	H	1.698520	0.497203	0.036358
H105	H	1.196959	0.501668	0.508760
H106	H	1.022751	1.188510	-0.506941
H107	H	0.517641	1.127593	-0.197291
F108	F	0.825099	0.682923	0.025934
F109	F	1.034650	0.514611	0.692215
H110	H	1.538391	0.656227	0.036594
F111	F	0.848636	0.598724	0.595362
F112	F	1.210999	0.338843	-0.017892
F113	F	0.844356	0.601179	-0.176029
F114	F	0.515715	0.882783	-0.094568
F115	F	0.839449	1.019823	-0.414208
F116	F	0.826210	0.505894	0.026664
H117	H	1.181575	0.440858	0.429925
F118	F	1.602769	0.253417	0.171733
H119	H	1.180612	0.813595	-0.479735
F120	F	0.515706	0.882805	0.224976
H121	H	0.979921	0.529400	0.320847
H122	H	1.509982	0.342075	0.004131
F123	F	1.322215	0.517941	0.521295
H124	H	1.607000	0.281304	0.568380
H125	H	1.053654	0.813536	-0.320957
F126	F	0.998922	1.224641	-0.692328
F127	F	1.184944	1.026553	-0.595475
H128	H	0.517495	1.127605	0.082987
F129	F	1.193349	0.253422	0.588042
H130	H	0.852675	1.032956	-0.588243
H131	H	1.498160	0.497183	0.679291
H132	H	1.180062	0.813907	-0.320472
H133	H	1.686140	0.342090	0.491392
F134	F	0.990965	0.343092	0.191182
F135	F	1.535767	0.508513	0.307982
H136	H	1.198600	0.500446	0.005881
F137	F	0.844249	0.773727	0.414104
H138	H	0.344012	1.242227	-0.114454
H139	H	1.161272	1.031895	-0.430004
H140	H	1.012548	0.526027	-0.179823
H141	H	0.836610	1.189982	-0.508891
F142	F	0.818975	1.221117	-0.691232
F143	F	1.716482	0.342774	0.189819
H144	H	1.184782	0.279053	0.139956
F145	F	1.043601	0.796662	-0.480716
H146	H	1.010825	0.687606	0.506821
H147	H	1.613050	0.586553	0.566724
H148	H	1.539236	0.529416	0.162926
H149	H	1.338336	0.656231	0.519721
F150	F	1.600953	0.598734	-0.180909
F151	F	1.325929	0.508469	-0.012422
F152	F	1.429688	0.773750	-0.174676
H153	H	1.349582	0.687588	-0.181245
H154	H	1.507809	0.522208	-0.177226
F155	F	0.824861	0.508615	0.478912
F156	F	0.989968	0.342750	0.480615
F157	F	1.214611	0.332885	0.691106
H158	H	1.499443	0.370298	0.680301
H159	H	1.448248	0.440894	0.408137
F160	F	1.432426	0.773741	0.411425
F161	F	1.533333	0.697467	0.307273
F162	F	1.711497	0.514591	0.480823
H163	H	0.979993	0.530150	0.162652
F164	F	1.029163	0.692911	-0.196820
