data_functionalizedCrystal
_audit_creation_method	'MofGen! by Chris Wilmer'
_symmetry_space_group_name_H-M	'P1'
_symmetry_Int_Tables_number	1
_symmetry_cell_setting	triclinic
loop_
_symmetry_equiv_pos_as_xyz
  x,y,z
_cell_length_a	10.685904
_cell_length_b	13.897441
_cell_length_c	10.686285
_cell_angle_alpha	94.394146
_cell_angle_beta	90.334098
_cell_angle_gamma	85.605969
loop_
_atom_site_label
_atom_site_type_symbol
_atom_site_fract_x
_atom_site_fract_y
_atom_site_fract_z
Zn1	Zn	1.956325	-0.639587	0.352411
Zn2	Zn	2.289658	-0.306253	0.685745
Zn3	Zn	2.622991	0.027080	1.019078
Zn4	Zn	1.972329	-0.466954	0.562214
Zn5	Zn	2.305662	-0.133621	0.895547
Zn6	Zn	2.638995	0.199713	1.228881
Zn7	Zn	1.746541	-0.465049	0.368538
Zn8	Zn	2.079875	-0.131716	0.701872
Zn9	Zn	2.413208	0.201618	1.035205
Zn10	Zn	1.762633	-0.614964	0.578198
Zn11	Zn	2.095967	-0.281631	0.911532
Zn12	Zn	2.429300	0.051703	1.244865
O13	O	1.859457	-0.546639	0.465341
O14	O	2.192790	-0.213305	0.798674
O15	O	2.526124	0.120028	1.132007
O16	O	2.134001	-0.627789	0.366803
O17	O	2.467334	-0.294455	0.700137
O18	O	2.800668	0.038878	1.033470
O19	O	1.942341	-0.331714	0.536582
O20	O	2.275674	0.001619	0.869916
O21	O	2.609007	0.334953	1.203249
O22	O	1.760937	-0.497709	0.190852
O23	O	2.094270	-0.164376	0.524186
O24	O	2.427604	0.168957	0.857519
O25	O	2.145759	-0.500956	0.520945
O26	O	2.479093	-0.167623	0.854278
O27	O	2.812426	0.165710	1.187611
O28	O	1.915064	-0.625941	0.179004
O29	O	2.248397	-0.292608	0.512337
O30	O	2.581731	0.040725	0.845671
O31	O	1.776456	-0.330314	0.394290
O32	O	2.109789	0.003019	0.727623
O33	O	2.443122	0.336352	1.060956
O34	O	1.573123	-0.473834	0.409789
O35	O	1.906456	-0.140500	0.743122
O36	O	2.239789	0.192833	1.076456
O37	O	1.788364	-0.753218	0.548188
O38	O	2.121697	-0.419884	0.881521
O39	O	2.455030	-0.086551	1.214854
O40	O	1.584945	-0.583976	0.563825
O41	O	1.918279	-0.250642	0.897159
O42	O	2.251612	0.082691	1.230492
O43	O	1.930668	-0.771308	0.382303
O44	O	2.264001	-0.437975	0.715636
O45	O	2.597335	-0.104641	1.048970
O46	O	1.957945	-0.477081	0.739881
O47	O	2.291278	-0.143747	1.073214
O48	O	2.624611	0.189586	1.406548
O49	O	1.803882	-0.585823	0.751625
O50	O	2.137216	-0.252490	1.084958
O51	O	2.470549	0.080844	1.418291
C52	C	1.533515	-0.526027	0.490293
C53	C	1.866848	-0.192693	0.823626
C54	C	2.200182	0.140640	1.156959
C55	C	1.394078	-0.517230	0.500997
C56	C	1.727411	-0.183897	0.834331
C57	C	2.060744	0.149437	1.167664
C58	C	1.859526	-0.798242	0.465229
C59	C	2.192859	-0.464909	0.798563
C60	C	2.526192	-0.131576	1.131896
C61	C	1.859555	-0.905461	0.465182
C62	C	2.192888	-0.572127	0.798515
C63	C	2.526222	-0.238794	1.131849
C64	C	1.859578	-0.992534	0.465144
C65	C	2.192911	-0.659201	0.798478
C66	C	2.526245	-0.325867	1.131811
C67	C	1.859610	-1.101772	0.465085
C68	C	2.192943	-0.768439	0.798419
C69	C	2.526276	-0.435105	1.131752
C70	C	2.186672	-0.567332	0.440292
C71	C	2.520005	-0.233998	0.773625
C72	C	2.853339	0.099335	1.106959
C73	C	2.326111	-0.576150	0.429618
C74	C	2.659445	-0.242816	0.762951
C75	C	2.992778	0.090517	1.096284
C76	C	1.884430	-0.529010	0.791268
C77	C	2.217764	-0.195676	1.124601
C78	C	2.551097	0.137657	1.457934
C79	C	1.895229	-0.521508	0.930692
C80	C	2.228562	-0.188174	1.264025
C81	C	2.561895	0.145159	1.597358
C82	C	1.859454	-0.296023	0.465355
C83	C	2.192787	0.037310	0.798689
C84	C	2.526120	0.370644	1.132022
C85	C	1.859640	-0.188840	0.465031
C86	C	2.192974	0.144494	0.798364
C87	C	2.526307	0.477827	1.131697
C88	C	1.834420	-0.564359	0.138138
C89	C	2.167754	-0.231026	0.471472
C90	C	2.501087	0.102307	0.804805
C91	C	1.823751	-0.571911	-0.001296
C92	C	2.157085	-0.238578	0.332038
C93	C	2.490418	0.094756	0.665371
H94	H	1.374602	-0.633321	0.360310
H95	H	1.707935	-0.299988	0.693644
H96	H	2.041269	0.033345	1.026977
C97	C	1.989057	-0.455442	0.996130
C98	C	2.322391	-0.122109	1.329463
C99	C	2.655724	0.211225	1.662796
N100	N	2.059728	-0.405682	1.045418
N101	N	2.393061	-0.072349	1.378752
N102	N	2.726395	0.260984	1.712085
H103	H	1.345593	-0.460056	0.570292
H104	H	1.678926	-0.126723	0.903626
H105	H	2.012259	0.206611	1.236959
C106	C	1.729925	-0.637971	0.933271
C107	C	2.063258	-0.304638	1.266605
C108	C	2.396592	0.028696	1.599938
N109	N	1.659256	-0.687730	0.883979
N110	N	1.992589	-0.354397	1.217313
N111	N	2.325922	-0.021063	1.550646
