data_functionalizedCrystal
_audit_creation_method	'MofGen! by Chris Wilmer'
_symmetry_space_group_name_H-M	'P1'
_symmetry_Int_Tables_number	1
_symmetry_cell_setting	triclinic
loop_
_symmetry_equiv_pos_as_xyz
  x,y,z
_cell_length_a	27.731994
_cell_length_b	26.210047
_cell_length_c	10.654541
_cell_angle_alpha	90.004785
_cell_angle_beta	96.447769
_cell_angle_gamma	90.002872
loop_
_atom_site_label
_atom_site_type_symbol
_atom_site_fract_x
_atom_site_fract_y
_atom_site_fract_z
O1	O	0.641876	0.042356	-0.149074
O2	O	1.141876	0.542356	0.350926
O3	O	0.501221	0.042373	-0.171864
O4	O	1.001221	0.542373	0.328136
O5	O	0.574783	0.042361	0.022408
O6	O	1.074783	0.542361	0.522408
O7	O	0.568314	0.042368	-0.343346
O8	O	1.068314	0.542368	0.156654
O9	O	0.574769	-0.042497	0.022378
O10	O	1.074769	0.457503	0.522378
O11	O	0.501207	-0.042485	-0.171894
O12	O	1.001207	0.457515	0.328106
O13	O	0.641862	-0.042502	-0.149104
O14	O	1.141862	0.457498	0.350896
Cu15	Cu	0.571533	-0.050242	-0.160502
Cu16	Cu	1.071533	0.449758	0.339498
Cu17	Cu	0.571550	0.050113	-0.160466
Cu18	Cu	1.071550	0.550113	0.339534
O19	O	0.568300	-0.042490	-0.343377
O20	O	1.068300	0.457510	0.156623
C21	C	0.483203	-0.000054	-0.171411
C22	C	0.983203	0.499946	0.328589
C23	C	0.429538	-0.000047	-0.170003
C24	C	0.929538	0.499953	0.329997
C25	C	0.096757	-0.046323	-0.161146
C26	C	0.596757	0.453677	0.338854
C27	C	-0.104935	-0.046329	-0.155790
C28	C	0.395065	0.453671	0.344210
O29	O	-0.131018	-0.085668	-0.155058
O30	O	0.368982	0.414332	0.344942
N31	N	-0.130146	-0.000073	-0.155109
N32	N	0.369854	0.499927	0.344891
C33	C	-0.104931	0.046188	-0.155758
C34	C	0.395069	0.546188	0.344242
O35	O	-0.131002	0.085531	-0.155042
O36	O	0.368998	0.585531	0.344958
C37	C	0.096760	0.046193	-0.161104
C38	C	0.596760	0.546193	0.338896
C39	C	0.121968	-0.000066	-0.161799
C40	C	0.621968	0.499934	0.338201
C41	C	0.121965	-0.092579	-0.161839
C42	C	0.621965	0.407421	0.338161
C43	C	0.172385	-0.092577	-0.163184
C44	C	0.672385	0.407423	0.336816
C45	C	0.197596	-0.046320	-0.163837
C46	C	0.697596	0.453680	0.336163
C47	C	0.172388	-0.000064	-0.163144
C48	C	0.672388	0.499936	0.336856
C49	C	0.121975	0.092453	-0.161744
C50	C	0.621975	0.592453	0.338256
C51	C	0.172401	0.092451	-0.163078
C52	C	0.672401	0.592451	0.336922
C53	C	0.197609	0.046191	-0.163772
C54	C	0.697609	0.546191	0.336228
C55	C	0.248019	0.046195	-0.165143
C56	C	0.748019	0.546195	0.334857
N57	N	0.273230	-0.000061	-0.165824
N58	N	0.773230	0.499939	0.334176
C59	C	0.248019	-0.046318	-0.165172
C60	C	0.748019	0.453682	0.334828
C61	C	-0.210821	0.046182	-0.152953
C62	C	0.289179	0.546182	0.347047
C63	C	-0.261244	0.046180	-0.151619
C64	C	0.238756	0.546180	0.348381
C65	C	-0.261244	-0.046337	-0.151649
C66	C	0.238756	0.453663	0.348351
C67	C	-0.210821	-0.046335	-0.152992
C68	C	0.289179	0.453665	0.347008
C69	C	-0.185610	-0.000075	-0.153635
C70	C	0.314390	0.499925	0.346365
C71	C	0.353903	-0.046311	-0.167999
C72	C	0.853903	0.453689	0.332001
C73	C	0.404327	-0.046305	-0.169350
C74	C	0.904327	0.453695	0.330650
C75	C	0.404323	0.046212	-0.169313
C76	C	0.904323	0.546212	0.330687
C77	C	0.353904	0.046206	-0.167968
C78	C	0.853904	0.546206	0.332032
C79	C	0.328695	-0.000059	-0.167307
C80	C	0.828695	0.499941	0.332693
O81	O	0.274134	0.085513	-0.165862
O82	O	0.774134	0.585513	0.334138
O83	O	0.274100	-0.085656	-0.165859
O84	O	0.774100	0.414344	0.334141
C85	C	0.046337	-0.046325	-0.159800
C86	C	0.546337	0.453675	0.340200
C87	C	0.021129	-0.000070	-0.159107
C88	C	0.521129	0.499930	0.340893
C89	C	0.046341	0.046187	-0.159760
C90	C	0.546341	0.546187	0.340240
C91	C	-0.029293	-0.000071	-0.157773
C92	C	0.470707	0.499929	0.342227
C93	C	-0.054505	-0.046328	-0.157120
C94	C	0.445495	0.453672	0.342880
C95	C	-0.029294	-0.092585	-0.157802
C96	C	0.470706	0.407415	0.342198
C97	C	0.021126	-0.092583	-0.159147
C98	C	0.521126	0.407417	0.340853
C99	C	0.021130	0.092443	-0.159078
C100	C	0.521130	0.592443	0.340922
C101	C	-0.029290	0.092438	-0.157734
C102	C	0.470710	0.592438	0.342266
C103	C	-0.054502	0.046180	-0.157081
C104	C	0.445498	0.546180	0.342919
N105	N	0.571525	-0.120826	-0.160527
N106	N	1.071525	0.379174	0.339473
C107	C	0.604120	-0.473345	-0.074462
C108	C	1.104120	0.026655	0.425538
C109	C	0.604131	-0.687004	-0.074444
C110	C	1.104131	-0.187004	0.425556
O111	O	0.631826	-0.714630	-0.001275
O112	O	1.131826	-0.214630	0.498725
N113	N	0.571552	-0.713719	-0.160439
N114	N	1.071552	-0.213719	0.339561
C115	C	0.538967	-0.687018	-0.246438
C116	C	1.038967	-0.187018	0.253562
O117	O	0.511254	-0.714644	-0.319573
O118	O	1.011254	-0.214644	0.180427
C119	C	0.538955	-0.473360	-0.246449
C120	C	1.038955	0.026640	0.253551
C121	C	0.571538	-0.446647	-0.160457
C122	C	1.071538	0.053353	0.339543
C123	C	0.636701	-0.446632	0.011523
C124	C	1.136701	0.053368	0.511523
C125	C	0.636699	-0.393220	0.011514
C126	C	1.136699	0.106780	0.511514
C127	C	0.604118	-0.366522	-0.074482
C128	C	1.104118	0.133478	0.425518
C129	C	0.571537	-0.393235	-0.160467
C130	C	1.071537	0.106765	0.339533
C131	C	0.506367	-0.446659	-0.332441
C132	C	1.006367	0.053341	0.167559
C133	C	0.506366	-0.393241	-0.332434
C134	C	1.006366	0.106759	0.167566
C135	C	0.538950	-0.366528	-0.246443
C136	C	1.038950	0.133472	0.253557
C137	C	0.538954	-0.313126	-0.246472
C138	C	1.038954	0.186874	0.253528
N139	N	0.571532	-0.286410	-0.160478
N140	N	1.071532	0.213590	0.339522
C141	C	0.604114	-0.313108	-0.074483
C142	C	1.104114	0.186892	0.425517
C143	C	0.538977	-0.799191	-0.246428
C144	C	1.038977	-0.299191	0.253572
C145	C	0.538980	-0.852605	-0.246427
C146	C	1.038980	-0.352605	0.253573
C147	C	0.604143	-0.852587	-0.074431
C148	C	1.104143	-0.352587	0.425569
C149	C	0.604142	-0.799172	-0.074439
C150	C	1.104142	-0.299172	0.425561
C151	C	0.571555	-0.772475	-0.160434
C152	C	1.071555	-0.272475	0.339566
C153	C	0.604109	-0.200940	-0.074510
C154	C	1.104109	0.299060	0.425490
C155	C	0.604107	-0.147524	-0.074531
C156	C	1.104107	0.352476	0.425469
C157	C	0.538942	-0.147546	-0.246522
C158	C	1.038942	0.352454	0.253478
C159	C	0.538946	-0.200958	-0.246506
C160	C	1.038946	0.299042	0.253494
C161	C	0.571532	-0.227653	-0.160490
C162	C	1.071532	0.272347	0.339510
O163	O	0.511270	-0.285466	-0.319594
O164	O	1.011270	0.214534	0.180406
O165	O	0.631815	-0.285473	-0.001340
O166	O	1.131815	0.214527	0.498660
C167	C	0.604121	-0.526756	-0.074452
C168	C	1.104121	-0.026756	0.425548
C169	C	0.571541	-0.553470	-0.160438
C170	C	1.071541	-0.053470	0.339562
C171	C	0.538959	-0.526771	-0.246433
C172	C	1.038959	-0.026771	0.253567
C173	C	0.571544	-0.606884	-0.160437
C174	C	1.071544	-0.106884	0.339563
C175	C	0.604126	-0.633582	-0.074441
C176	C	1.104126	-0.133582	0.425559
C177	C	0.636704	-0.606866	0.011553
C178	C	1.136704	-0.106866	0.511553
C179	C	0.636703	-0.553455	0.011543
C180	C	1.136703	-0.053455	0.511543
C181	C	0.506381	-0.553487	-0.332427
C182	C	1.006381	-0.053487	0.167573
C183	C	0.506385	-0.606899	-0.332411
C184	C	1.006385	-0.106899	0.167589
C185	C	0.538967	-0.633597	-0.246416
C186	C	1.038967	-0.133597	0.253584
C187	C	0.659879	-0.000074	-0.149557
C188	C	1.159879	0.499926	0.350443
C189	C	0.713545	-0.000077	-0.150966
C190	C	1.213545	0.499923	0.349034
C191	C	0.574301	-0.000068	0.069171
C192	C	1.074301	0.499932	0.569171
C193	C	0.572881	-0.000067	0.208554
C194	C	1.072881	0.499933	0.708554
N195	N	0.571562	0.120697	-0.160432
N196	N	1.071562	0.620697	0.339568
C197	C	0.568782	-0.000060	-0.390139
C198	C	1.068782	0.499940	0.109861
C199	C	0.570202	-0.000058	-0.529522
C200	C	1.070202	0.499942	-0.029522
C201	C	0.660845	-0.000084	0.240267
C202	C	1.160845	0.499916	0.740267
C203	C	0.704157	-0.000093	0.321604
C204	C	1.204157	0.499907	0.821604
C205	C	0.702819	-0.000091	0.452565
C206	C	1.202819	0.499909	0.952565
C207	C	0.658165	-0.000079	0.502190
C208	C	1.158165	0.499921	1.002190
C209	C	0.614852	-0.000069	0.420854
C210	C	1.114852	0.499931	0.920854
C211	C	0.616194	-0.000072	0.289891
C212	C	1.116194	0.499928	0.789891
C213	C	0.526890	-0.000048	0.389141
C214	C	1.026890	0.499952	0.889141
C215	C	0.528226	-0.000054	0.258179
C216	C	1.028226	0.499946	0.758179
C217	C	0.482235	-0.000036	0.438766
C218	C	0.982235	0.499964	0.938766
C219	C	0.438921	-0.000030	0.357429
C220	C	0.938921	0.499970	0.857429
C221	C	0.440261	-0.000032	0.226461
C222	C	0.940261	0.499968	0.726461
C223	C	0.484914	-0.000044	0.176842
C224	C	0.984914	0.499956	0.676842
H225	H	-0.049811	0.130110	-0.157179
H226	H	0.450189	0.630110	0.342821
F227	F	0.656743	-0.000049	0.641572
F228	F	1.156743	0.499951	1.141572
H229	H	0.481149	-0.000031	0.545403
H230	H	0.981149	0.499969	1.045403
F231	F	0.391402	-0.000011	0.410252
F232	F	0.891402	0.499989	0.910252
H233	H	0.663233	-0.468365	0.081557
H234	H	1.163233	0.031635	0.581557
F235	F	0.638821	-0.770747	0.017085
F236	F	1.138821	-0.270747	0.517085
F237	F	0.327073	0.095440	-0.167250
F238	F	0.827073	0.595440	0.332750
H239	H	0.192925	0.130122	-0.163601
H240	H	0.692925	0.630122	0.336399
H241	H	-0.190300	-0.084003	-0.153559
H242	H	0.309700	0.415997	0.346441
F243	F	0.394160	-0.000018	0.139904
F244	F	0.894160	0.499982	0.639904
F245	F	0.638789	-0.119096	0.016994
F246	F	1.138789	0.380904	0.516994
H247	H	0.486008	-0.000049	0.070209
H248	H	0.986008	0.499951	0.570209
F249	F	0.638790	-0.229344	0.017038
F250	F	1.138790	0.270656	0.517038
H251	H	-0.281780	-0.084001	-0.151120
H252	H	0.218220	0.415999	0.348880
F253	F	0.748917	-0.000097	0.539132
F254	F	1.248917	0.499903	1.039132
F255	F	0.327082	-0.095552	-0.167293
F256	F	0.827082	0.404448	0.332707
H257	H	-0.281765	0.083849	-0.151073
H258	H	0.218235	0.583849	0.348927
H259	H	0.424849	-0.083976	-0.169919
H260	H	0.924849	0.416024	0.330081
H261	H	0.479835	-0.468401	-0.402462
H262	H	0.979835	0.031599	0.097538
H263	H	0.479829	-0.371507	-0.402460
H264	H	0.979829	0.128493	0.097540
F265	F	0.199207	-0.141813	-0.163917
F266	F	0.699207	0.358187	0.336083
H267	H	0.661938	-0.000092	0.133633
H268	H	1.161938	0.499908	0.633633
H269	H	0.101443	-0.130249	-0.161304
H270	H	0.601443	0.369751	0.338696
H271	H	-0.190299	0.083855	-0.153475
H272	H	0.309701	0.583855	0.346525
H273	H	0.424859	0.083874	-0.169849
H274	H	0.924859	0.583874	0.330151
F275	F	0.095158	0.141689	-0.161002
F276	F	0.595158	0.641689	0.338998
H277	H	0.630673	-0.874334	-0.004412
H278	H	1.130673	-0.374334	0.495588
H279	H	0.041646	-0.130252	-0.159713
H280	H	0.541646	0.369748	0.340287
F281	F	0.751680	-0.000104	0.268780
F282	F	1.251680	0.499896	0.768780
H283	H	0.512453	-0.874351	-0.316462
H284	H	1.012453	-0.374351	0.183538
F285	F	-0.056135	-0.141815	-0.157113
F286	F	0.443865	0.358185	0.342887
H287	H	0.041652	0.130112	-0.159606
H288	H	0.541652	0.630112	0.340394
F289	F	0.671377	-0.364795	0.103043
F290	F	1.171377	0.135205	0.603043
F291	F	0.504292	-0.770783	-0.337962
F292	F	1.004292	-0.270783	0.162038
F293	F	0.504272	-0.229387	-0.338042
F294	F	1.004272	0.270613	0.161958
F295	F	0.504268	-0.119124	-0.338043
F296	F	1.004268	0.380876	0.161957
H297	H	0.663235	-0.531708	0.081566
H298	H	1.163235	-0.031708	0.581566
H299	H	0.663235	-0.628612	0.081570
H300	H	1.163235	-0.128612	0.581570
F301	F	0.471705	-0.635324	-0.423948
F302	F	0.971705	-0.135324	0.076052
H303	H	0.479848	-0.531754	-0.402454
H304	H	0.979848	-0.031754	0.097546
