data_functionalizedCrystal
_audit_creation_method	'MofGen! by Chris Wilmer'
_symmetry_space_group_name_H-M	'P1'
_symmetry_Int_Tables_number	1
_symmetry_cell_setting	triclinic
loop_
_symmetry_equiv_pos_as_xyz
  x,y,z
_cell_length_a	14.971506
_cell_length_b	8.597304
_cell_length_c	13.448316
_cell_angle_alpha	82.293562
_cell_angle_beta	89.992937
_cell_angle_gamma	84.482370
loop_
_atom_site_label
_atom_site_type_symbol
_atom_site_fract_x
_atom_site_fract_y
_atom_site_fract_z
O1	O	1.188603	0.204684	-0.100231
O2	O	0.928404	0.229144	-0.102327
O3	O	1.063623	-0.011544	-0.081704
O4	O	1.053384	0.445372	-0.120854
O5	O	1.063605	-0.011558	0.083681
O6	O	0.928387	0.229130	0.063058
O7	O	1.188585	0.204670	0.065154
Cu8	Cu	1.058484	0.216898	0.079207
Cu9	Cu	1.058505	0.216916	-0.116380
O10	O	1.053366	0.445357	0.044531
C11	C	0.895062	0.228037	-0.019540
C12	C	0.795739	0.224742	-0.019258
C13	C	0.358505	0.353567	-0.030306
C14	C	0.451831	0.356651	-0.030575
C15	C	0.507899	0.215238	-0.018453
C16	C	0.470638	0.070731	-0.006073
C17	C	0.377315	0.067649	-0.005812
C18	C	0.665154	0.077165	-0.006616
C19	C	0.758484	0.080247	-0.006875
C20	C	0.739670	0.366167	-0.031379
C21	C	0.646346	0.363085	-0.031117
C22	C	0.609092	0.218578	-0.018735
C23	C	1.062514	-0.070025	0.005997
C24	C	1.059225	-0.244259	0.020920
C25	C	1.221927	0.205777	-0.017635
C26	C	1.321250	0.209072	-0.017924
C27	C	1.054475	0.503839	-0.043172
C28	C	1.057765	0.678073	-0.058101
N29	N	1.058476	0.216885	0.216773
N30	N	1.058520	0.216917	-0.253944
C31	C	1.118370	0.110352	0.277941
C32	C	1.118376	0.110351	0.382044
C33	C	1.058491	0.216891	0.424977
C34	C	0.998591	0.323429	0.363801
C35	C	0.998581	0.323421	0.259700
C36	C	0.998616	0.323439	0.580780
C37	C	0.998626	0.323449	0.684887
C38	C	1.118410	0.110369	0.703124
C39	C	1.118401	0.110361	0.599024
C40	C	1.058501	0.216902	0.537854
H41	H	0.346984	-0.050014	0.004269
H42	H	1.057948	-0.311065	0.100000
C43	C	1.184297	-0.006832	0.770409
C44	C	1.286170	-0.003879	0.755824
C45	C	1.352057	-0.121067	0.823114
C46	C	1.316070	-0.241210	0.904989
C47	C	1.214192	-0.244168	0.919578
C48	C	1.148305	-0.126979	0.852288
H49	H	1.312814	0.085062	0.695212
H50	H	1.427475	-0.118877	0.812315
H51	H	1.364844	-0.327960	0.954801
H52	H	1.187548	-0.333108	0.980190
H53	H	1.072887	-0.129169	0.863087
H54	H	1.167139	0.023601	0.242993
C55	C	1.184274	-0.006829	0.551792
C56	C	1.181218	-0.185562	0.581424
C57	C	1.247089	-0.302755	0.534191
C58	C	1.316015	-0.241215	0.457327
C59	C	1.319074	-0.062473	0.427691
C60	C	1.253203	0.054720	0.474924
H61	H	1.130192	-0.231125	0.638327
H62	H	1.244824	-0.435072	0.556130
H63	H	1.364777	-0.327969	0.422363
H64	H	1.370100	-0.016910	0.370788
H65	H	1.255467	0.187037	0.452985
C66	C	0.492802	0.515607	-0.044186
C67	C	0.472194	0.633098	0.031633
C68	C	0.513161	0.792065	0.018022
C69	C	0.574736	0.833541	-0.071409
C70	C	0.595347	0.716047	-0.147234
C71	C	0.554381	0.557080	-0.133623
H72	H	0.426610	0.602397	0.097841
H73	H	0.497903	0.879041	0.074153
H74	H	0.605062	0.951218	-0.081485
H75	H	0.640932	0.746748	-0.213442
H76	H	0.569639	0.470104	-0.189754
H77	H	0.804133	-0.034905	0.002987
H78	H	0.634825	-0.040508	0.003462
H79	H	1.059028	-0.255126	-0.137176
H80	H	0.770006	0.483830	-0.041460
H81	H	1.167146	0.023603	0.431848
C82	C	0.932745	0.440636	0.732111
C83	C	0.866852	0.557806	0.664826
C84	C	0.800969	0.674995	0.712047
C85	C	0.800979	0.675013	0.826553
C86	C	0.866874	0.557839	0.893844
C87	C	0.932757	0.440651	0.846623
H88	H	0.866843	0.557796	0.580056
H89	H	0.752189	0.761735	0.662232
H90	H	0.752208	0.761763	0.861508
H91	H	0.866883	0.557849	0.978614
H92	H	0.981537	0.353911	0.896438
H93	H	0.312860	0.468723	-0.040169
H94	H	0.600697	0.478237	-0.040981
H95	H	0.516297	-0.044410	0.003790
H96	H	0.949836	0.410191	0.530979
H97	H	0.949827	0.410171	0.398762
H98	H	0.949808	0.410169	0.209897
