data_functionalizedCrystal
_audit_creation_method	'MofGen! by Chris Wilmer'
_symmetry_space_group_name_H-M	'P1'
_symmetry_Int_Tables_number	1
_symmetry_cell_setting	triclinic
loop_
_symmetry_equiv_pos_as_xyz
  x,y,z
_cell_length_a	18.101395
_cell_length_b	18.215407
_cell_length_c	18.215399
_cell_angle_alpha	90.019833
_cell_angle_beta	89.973573
_cell_angle_gamma	89.968448
loop_
_atom_site_label
_atom_site_type_symbol
_atom_site_fract_x
_atom_site_fract_y
_atom_site_fract_z
Zn1	Zn	-0.294828	-1.125040	-0.416124
Zn2	Zn	0.038505	-0.791707	-0.082790
Zn3	Zn	0.371838	-0.458373	0.250543
Zn4	Zn	-0.418675	-1.124935	-0.293061
Zn5	Zn	-0.085341	-0.791602	0.040273
Zn6	Zn	0.247992	-0.458269	0.373606
Zn7	Zn	-0.294853	-1.001973	-0.293071
Zn8	Zn	0.038481	-0.668639	0.040262
Zn9	Zn	0.371814	-0.335306	0.373596
Zn10	Zn	-0.418634	-1.001925	-0.416086
Zn11	Zn	-0.085300	-0.668592	-0.082752
Zn12	Zn	0.248033	-0.335259	0.250581
O13	O	-0.356747	-1.063468	-0.354585
O14	O	-0.023414	-0.730135	-0.021252
O15	O	0.309919	-0.396802	0.312081
O16	O	-0.311264	-1.228010	-0.399811
O17	O	0.022069	-0.894677	-0.066477
O18	O	0.355403	-0.561344	0.266856
O19	O	-0.402277	-1.108600	-0.190078
O20	O	-0.068944	-0.775267	0.143256
O21	O	0.264390	-0.441933	0.476589
O22	O	-0.191216	-1.018362	-0.309415
O23	O	0.142117	-0.685028	0.023919
O24	O	0.475450	-0.351695	0.357252
O25	O	-0.402253	-1.227933	-0.309397
O26	O	-0.068920	-0.894600	0.023937
O27	O	0.264413	-0.561267	0.357270
O28	O	-0.191199	-1.108779	-0.399821
O29	O	0.142135	-0.775445	-0.066487
O30	O	0.475468	-0.442112	0.266846
O31	O	-0.311305	-1.018260	-0.190085
O32	O	0.022028	-0.684927	0.143248
O33	O	0.355361	-0.351593	0.476581
O34	O	-0.311265	-0.898982	-0.309378
O35	O	0.022068	-0.565649	0.023956
O36	O	0.355401	-0.232316	0.357289
O37	O	-0.402183	-1.018281	-0.519075
O38	O	-0.068850	-0.684947	-0.185742
O39	O	0.264484	-0.351614	0.147592
O40	O	-0.402207	-0.898947	-0.399756
O41	O	-0.068873	-0.565614	-0.066422
O42	O	0.264460	-0.232281	0.266911
O43	O	-0.311224	-1.108733	-0.519103
O44	O	0.022109	-0.775399	-0.185770
O45	O	0.355443	-0.442066	0.147564
O46	O	-0.522302	-1.108554	-0.309360
O47	O	-0.188969	-0.775221	0.023974
O48	O	0.144364	-0.441887	0.357307
O49	O	-0.522272	-1.018179	-0.399746
O50	O	-0.188939	-0.684846	-0.066412
O51	O	0.144395	-0.351512	0.266921
C52	C	-0.356735	-0.872262	-0.354564
C53	C	-0.023401	-0.538929	-0.021231
C54	C	0.309932	-0.205595	0.312103
C55	C	-0.356747	-0.790463	-0.354572
C56	C	-0.023414	-0.457130	-0.021239
C57	C	0.309920	-0.123797	0.312094
C58	C	-0.549158	-1.063370	-0.354564
C59	C	-0.215825	-0.730037	-0.021230
C60	C	0.117509	-0.396703	0.312103
C61	C	-0.631472	-1.063395	-0.354579
C62	C	-0.298139	-0.730062	-0.021246
C63	C	0.035195	-0.396728	0.312088
C64	C	-0.356696	-1.063513	-0.546538
C65	C	-0.023363	-0.730180	-0.213205
C66	C	0.309970	-0.396847	0.120128
C67	C	-0.356675	-1.063532	-0.628337
C68	C	-0.023341	-0.730199	-0.295004
C69	C	0.309992	-0.396866	0.038330
C70	C	-0.930563	-1.063557	-0.354619
C71	C	-0.597230	-0.730223	-0.021285
C72	C	-0.263896	-0.396890	0.312048
C73	C	-0.899249	-1.006827	-0.411628
C74	C	-0.565916	-0.673494	-0.078295
C75	C	-0.232583	-0.340160	0.255039
C76	C	-0.813632	-1.006557	-0.411450
C77	C	-0.480298	-0.673224	-0.078116
C78	C	-0.146965	-0.339891	0.255217
C79	C	-0.782180	-1.063476	-0.354600
C80	C	-0.448847	-0.730143	-0.021266
C81	C	-0.115514	-0.396810	0.312067
C82	C	-0.813331	-1.042479	-0.277038
C83	C	-0.479997	-0.709145	0.056295
C84	C	-0.146664	-0.375812	0.389628
C85	C	-0.898976	-1.042113	-0.277380
C86	C	-0.565643	-0.708780	0.055954
C87	C	-0.232309	-0.375446	0.389287
C88	C	-0.898906	-1.141408	-0.374487
C89	C	-0.565573	-0.808075	-0.041154
C90	C	-0.232240	-0.474741	0.292179
C91	C	-0.813255	-1.140950	-0.376188
C92	C	-0.479922	-0.807617	-0.042855
C93	C	-0.146589	-0.474284	0.290478
C94	C	-0.698321	-1.063432	-0.354584
C95	C	-0.364988	-0.730099	-0.021251
C96	C	-0.031654	-0.396766	0.312083
C97	C	-1.014422	-1.063599	-0.354629
C98	C	-0.681089	-0.730265	-0.021296
C99	C	-0.347756	-0.396932	0.312038
C100	C	-0.163585	-1.063587	-0.354623
C101	C	0.169748	-0.730254	-0.021290
C102	C	0.503081	-0.396921	0.312044
C103	C	-0.081271	-1.063638	-0.354639
C104	C	0.252062	-0.730305	-0.021306
C105	C	0.585395	-0.396971	0.312028
C106	C	-0.356761	-1.255421	-0.354607
C107	C	-0.023427	-0.922088	-0.021273
C108	C	0.309906	-0.588755	0.312060
C109	C	-0.356766	-1.337220	-0.354616
C110	C	-0.023433	-1.003887	-0.021283
C111	C	0.309900	-0.670553	0.312051
C112	C	-0.404175	-0.602270	-0.401573
C113	C	-0.070841	-0.268937	-0.068240
C114	C	0.262492	0.064396	0.265093
C115	C	-0.404177	-0.525412	-0.401583
C116	C	-0.070844	-0.192078	-0.068249
C117	C	0.262490	0.141255	0.265084
C118	C	-0.309333	-0.525418	-0.307613
C119	C	0.024000	-0.192085	0.025720
C120	C	0.357333	0.141248	0.359054
C121	C	-0.309328	-0.602276	-0.307608
C122	C	0.024005	-0.268942	0.025725
C123	C	0.357339	0.064391	0.359059
C124	C	-0.356753	-0.640700	-0.354587
C125	C	-0.023419	-0.307366	-0.021254
C126	C	0.309914	0.025967	0.312079
C127	C	-0.356761	-0.486984	-0.354601
C128	C	-0.023427	-0.153650	-0.021268
C129	C	0.309906	0.179683	0.312065
C130	C	-0.356763	-0.403650	-0.354611
C131	C	-0.023429	-0.070317	-0.021278
C132	C	0.309904	0.263017	0.312056
C133	C	-0.356750	-0.724039	-0.354579
C134	C	-0.023416	-0.390705	-0.021245
C135	C	0.309917	-0.057372	0.312088
C136	C	-0.309268	-1.110648	-0.816547
C137	C	0.024066	-0.777314	-0.483214
C138	C	0.357399	-0.443981	-0.149880
C139	C	-0.309246	-1.110656	-0.893406
C140	C	0.024087	-0.777323	-0.560072
C141	C	0.357420	-0.443990	-0.226739
C142	C	-0.403967	-1.016469	-0.893365
C143	C	-0.070633	-0.683136	-0.560032
C144	C	0.262700	-0.349802	-0.226699
C145	C	-0.403984	-1.016457	-0.816508
C146	C	-0.070651	-0.683124	-0.483175
C147	C	0.262683	-0.349790	-0.149841
C148	C	-0.356636	-1.063551	-0.778101
C149	C	-0.023302	-0.730217	-0.444767
C150	C	0.310031	-0.396884	-0.111434
C151	C	-0.356597	-1.063571	-0.931817
C152	C	-0.023263	-0.730238	-0.598484
C153	C	0.310070	-0.396905	-0.265150
C154	C	-0.356574	-1.063580	-1.015151
C155	C	-0.023240	-0.730247	-0.681817
C156	C	0.310093	-0.396914	-0.348484
C157	C	-0.356657	-1.063541	-0.694762
C158	C	-0.023324	-0.730207	-0.361428
C159	C	0.310009	-0.396874	-0.028095
C160	C	-0.356745	-1.063466	-0.163379
C161	C	-0.023411	-0.730133	0.169954
C162	C	0.309922	-0.396799	0.503288
C163	C	-0.356558	-1.063590	-0.081580
C164	C	-0.023225	-0.730256	0.251753
C165	C	0.310109	-0.396923	0.585086
H166	H	-0.919798	-1.019834	-0.469325
H167	H	-0.586465	-0.686501	-0.135992
H168	H	-0.253131	-0.353167	0.197342
C169	C	-0.257151	-1.162470	-0.935697
C170	C	0.076182	-0.829137	-0.602364
C171	C	0.409515	-0.495803	-0.269030
H172	H	-0.263917	-1.155731	-0.986972
H173	H	0.069417	-0.822398	-0.653638
H174	H	0.402750	-0.489064	-0.320305
H175	H	-0.268001	-1.211906	-0.923106
H176	H	0.065332	-0.878573	-0.589773
H177	H	0.398666	-0.545239	-0.256439
H178	H	-0.207391	-1.151729	-0.923111
H179	H	0.125942	-0.818396	-0.589778
H180	H	0.459276	-0.485062	-0.256445
H181	H	-0.442792	-0.494126	-0.439845
H182	H	-0.109458	-0.160792	-0.106511
H183	H	0.223875	0.172541	0.226822
C184	C	-0.456053	-0.964675	-0.935612
C185	C	-0.122719	-0.631342	-0.602279
C186	C	0.210614	-0.298008	-0.268945
H187	H	-0.484261	-0.936619	-0.901705
H188	H	-0.150928	-0.603286	-0.568372
H189	H	0.182405	-0.269953	-0.235038
H190	H	-0.488314	-0.992813	-0.965591
H191	H	-0.154981	-0.659480	-0.632258
H192	H	0.178353	-0.326146	-0.298925
H193	H	-0.427712	-0.932628	-0.965595
H194	H	-0.094379	-0.599294	-0.632261
H195	H	0.238954	-0.265961	-0.298928
H196	H	-0.920455	-1.160552	-0.430081
H197	H	-0.587122	-0.827219	-0.096748
H198	H	-0.253788	-0.493885	0.236586
H199	H	-0.270712	-1.148992	-0.785278
H200	H	0.062622	-0.815659	-0.451945
H201	H	0.395955	-0.482325	-0.118611
C202	C	-0.784454	-0.966412	-0.253890
C203	C	-0.451121	-0.633079	0.079443
C204	C	-0.117787	-0.299745	0.412777
H205	H	-0.803610	-0.954193	-0.206879
H206	H	-0.470277	-0.620860	0.126454
H207	H	-0.136944	-0.287527	0.459787
H208	H	-0.799910	-0.930715	-0.288657
H209	H	-0.466577	-0.597382	0.044677
H210	H	-0.133243	-0.264049	0.378010
H211	H	-0.732022	-0.967404	-0.251843
H212	H	-0.398689	-0.634070	0.081490
H213	H	-0.065355	-0.300737	0.414824
C214	C	-0.785173	-1.024278	-0.489145
C215	C	-0.451839	-0.690945	-0.155812
C216	C	-0.118506	-0.357612	0.177521
H217	H	-0.825954	-1.031706	-0.521103
H218	H	-0.492621	-0.698373	-0.187769
H219	H	-0.159288	-0.365039	0.145564
H220	H	-0.755868	-1.067529	-0.487650
H221	H	-0.422535	-0.734196	-0.154316
H222	H	-0.089201	-0.400862	0.179017
H223	H	-0.756149	-0.984513	-0.506626
H224	H	-0.422816	-0.651179	-0.173293
H225	H	-0.089483	-0.317846	0.160040
C226	C	-0.928401	-0.929344	-0.394072
C227	C	-0.595068	-0.596010	-0.060739
C228	C	-0.261734	-0.262677	0.272595
H229	H	-0.959570	-0.931416	-0.352149
H230	H	-0.626237	-0.598083	-0.018815
H231	H	-0.292904	-0.264749	0.314518
H232	H	-0.955646	-0.911263	-0.434799
H233	H	-0.622312	-0.577930	-0.101466
H234	H	-0.288979	-0.244596	0.231868
H235	H	-0.887966	-0.897552	-0.384421
H236	H	-0.554633	-0.564219	-0.051088
H237	H	-0.221299	-0.230885	0.282246
H238	H	-0.270707	-0.633566	-0.269346
H239	H	0.062627	-0.300232	0.063987
H240	H	0.395960	0.033101	0.397320
C241	C	-0.926186	-1.198490	-0.318347
C242	C	-0.592853	-0.865157	0.014986
C243	C	-0.259520	-0.531824	0.348320
H244	H	-0.956729	-1.175035	-0.282975
H245	H	-0.623396	-0.841701	0.050358
H246	H	-0.290063	-0.508368	0.383691
H247	H	-0.884954	-1.220183	-0.294476
H248	H	-0.551621	-0.886850	0.038858
H249	H	-0.218287	-0.553517	0.372191
H250	H	-0.953701	-1.235456	-0.342941
H251	H	-0.620368	-0.902123	-0.009608
H252	H	-0.287034	-0.568789	0.323726
C253	C	-0.257179	-0.483150	-0.255932
C254	C	0.076155	-0.149816	0.077401
C255	C	0.409488	0.183517	0.410734
H256	H	-0.263979	-0.431872	-0.262658
H257	H	0.069354	-0.098539	0.070676
H258	H	0.402688	0.234795	0.404009
H259	H	-0.207432	-0.495771	-0.266782
H260	H	0.125902	-0.162438	0.066551
H261	H	0.459235	0.170896	0.399885
H262	H	-0.267962	-0.495723	-0.206465
H263	H	0.065371	-0.162390	0.126868
H264	H	0.398704	0.170944	0.460202
H265	H	-0.792893	-1.156785	-0.433269
H266	H	-0.459560	-0.823452	-0.099936
H267	H	-0.126226	-0.490118	0.233398
H268	H	-0.442556	-0.978100	-0.785204
H269	H	-0.109223	-0.644766	-0.451871
H270	H	0.224111	-0.311433	-0.118537
H271	H	-0.793209	-0.948852	-0.398289
H272	H	-0.459875	-0.615519	-0.064955
H273	H	-0.126542	-0.282185	0.268378
H274	H	-0.919019	-0.985204	-0.260549
H275	H	-0.585686	-0.651870	0.072785
H276	H	-0.252352	-0.318537	0.406118
C277	C	-0.926966	-1.095495	-0.218033
C278	C	-0.593633	-0.762162	0.115301
C279	C	-0.260300	-0.428828	0.448634
H280	H	-0.885992	-1.117304	-0.193818
H281	H	-0.552659	-0.783971	0.139516
H282	H	-0.219326	-0.450638	0.472849
H283	H	-0.956078	-1.132712	-0.240312
H284	H	-0.622744	-0.799379	0.093021
H285	H	-0.289411	-0.466046	0.426355
H286	H	-0.956086	-1.069389	-0.183341
H287	H	-0.622753	-0.736056	0.149992
H288	H	-0.289420	-0.402722	0.483325
H289	H	-0.792959	-1.082498	-0.233404
H290	H	-0.459626	-0.749164	0.099930
H291	H	-0.126293	-0.415831	0.433263
H292	H	-0.791842	-1.185453	-0.337692
H293	H	-0.458508	-0.852119	-0.004359
H294	H	-0.125175	-0.518786	0.328975
H295	H	-0.442789	-0.633553	-0.439829
H296	H	-0.109456	-0.300220	-0.106495
H297	H	0.223877	0.033114	0.226838
