data_functionalizedCrystal
_audit_creation_method	'MofGen! by Chris Wilmer'
_symmetry_space_group_name_H-M	'P1'
_symmetry_Int_Tables_number	1
_symmetry_cell_setting	triclinic
loop_
_symmetry_equiv_pos_as_xyz
  x,y,z
_cell_length_a	19.805405
_cell_length_b	19.805407
_cell_length_c	19.805398
_cell_angle_alpha	90.017356
_cell_angle_beta	89.972363
_cell_angle_gamma	89.974605
loop_
_atom_site_label
_atom_site_type_symbol
_atom_site_fract_x
_atom_site_fract_y
_atom_site_fract_z
Zn1	Zn	-0.269508	-1.034711	-0.382738
Zn2	Zn	-0.382693	-1.034633	-0.269547
Zn3	Zn	-0.269522	-0.921533	-0.269560
Zn4	Zn	-0.382659	-0.921489	-0.382691
O5	O	-0.326096	-0.978091	-0.326134
O6	O	-0.284531	-1.129417	-0.367738
O7	O	-0.367701	-1.019616	-0.174832
O8	O	-0.174803	-0.936597	-0.284599
O9	O	-0.367688	-1.129360	-0.284576
O10	O	-0.174793	-1.019748	-0.367751
O11	O	-0.284554	-0.936522	-0.174842
O12	O	-0.284521	-0.826810	-0.284553
O13	O	-0.367629	-0.936522	-0.477414
O14	O	-0.367642	-0.826778	-0.367669
O15	O	-0.284498	-1.019706	-0.477449
O16	O	-0.477405	-1.019573	-0.284530
O17	O	-0.477380	-0.936447	-0.367656
C18	C	-0.326079	-0.802235	-0.326108
C19	C	-0.326089	-0.727003	-0.326112
C20	C	-0.369435	-0.691660	-0.369320
C21	C	-0.369435	-0.620972	-0.369328
C22	C	-0.326092	-0.585628	-0.326124
C23	C	-0.282741	-0.620976	-0.282914
C24	C	-0.282738	-0.691663	-0.282910
C25	C	-0.282751	-0.335903	-0.282929
C26	C	-0.282759	-0.265211	-0.282935
C27	C	-0.369447	-0.265211	-0.369346
C28	C	-0.369445	-0.335899	-0.369343
C29	C	-0.326092	-0.371241	-0.326136
C30	C	-0.326091	-0.447889	-0.326129
C31	C	-0.326095	-0.508981	-0.326127
C32	C	-0.501952	-0.978015	-0.326101
C33	C	-0.577184	-0.978045	-0.326110
C34	C	-0.612518	-1.021371	-0.282871
C35	C	-0.683207	-1.021399	-0.282886
C36	C	-0.718559	-0.978098	-0.326137
C37	C	-0.683219	-0.934770	-0.369380
C38	C	-0.612532	-0.934746	-0.369368
C39	C	-0.968292	-0.934870	-0.369430
C40	C	-1.038985	-0.934897	-0.369438
C41	C	-1.038967	-1.021524	-0.282949
C42	C	-0.968280	-1.021499	-0.282936
C43	C	-0.932946	-0.978174	-0.326182
C44	C	-0.856298	-0.978144	-0.326166
C45	C	-0.795206	-0.978124	-0.326150
C46	C	-0.149553	-0.978186	-0.326182
C47	C	-0.074321	-0.978227	-0.326202
C48	C	-0.326058	-0.978118	-0.502677
C49	C	-0.326042	-0.978129	-0.577909
C50	C	-0.326108	-0.154634	-0.326154
C51	C	-0.326102	-0.229866	-0.326146
C52	C	-0.282636	-1.021525	-1.039719
C53	C	-0.282657	-1.021514	-0.969031
C54	C	-0.325948	-0.978199	-0.933671
C55	C	-0.369226	-0.934896	-0.969003
C56	C	-0.369208	-0.934911	-1.039690
C57	C	-0.369300	-0.934837	-0.683929
C58	C	-0.369313	-0.934825	-0.613237
C59	C	-0.282748	-1.021441	-0.613270
C60	C	-0.282730	-1.021455	-0.683958
C61	C	-0.326010	-0.978155	-0.719283
C62	C	-0.325988	-0.978168	-0.795932
C63	C	-0.325967	-0.978182	-0.857024
C64	C	-0.326084	-0.978104	-0.150278
C65	C	-0.325909	-0.978224	-0.075046
H66	H	-0.247459	-0.236436	-0.247753
H67	H	-0.247456	-0.364670	-0.247742
H68	H	-0.247448	-0.592193	-0.247740
F69	F	-0.236683	-1.067524	-0.575669
F70	F	-1.076608	-0.888809	-0.415474
H71	H	-0.404732	-0.592199	-0.404511
H72	H	-0.711974	-1.056679	-0.247677
F73	F	-0.236602	-0.729278	-0.236924
F74	F	-0.415587	-0.227592	-0.415332
H75	H	-0.404478	-0.899631	-0.940207
F76	F	-0.574900	-1.067454	-0.236833
F77	F	-0.930660	-1.067585	-0.236903
F78	F	-1.076578	-1.067638	-0.236925
F79	F	-0.930697	-0.888759	-0.415455
F80	F	-0.720846	-0.888690	-0.415415
F81	F	-0.574926	-0.888634	-0.415390
F82	F	-0.415267	-0.888825	-1.077287
H83	H	-0.247379	-1.056793	-1.068505
F84	F	-0.236599	-1.067601	-0.931437
F85	F	-0.236658	-1.067562	-0.721587
F86	F	-0.415392	-0.888721	-0.575605
F87	F	-0.415578	-0.373510	-0.415324
H88	H	-0.404540	-0.899579	-0.712683
H89	H	-0.404732	-0.720432	-0.404500
