data_functionalizedCrystal
_audit_creation_method	'MofGen! by Chris Wilmer'
_symmetry_space_group_name_H-M	'P1'
_symmetry_Int_Tables_number	1
_symmetry_cell_setting	triclinic
loop_
_symmetry_equiv_pos_as_xyz
  x,y,z
_cell_length_a	16.992694
_cell_length_b	15.995350
_cell_length_c	15.455313
_cell_angle_alpha	92.667328
_cell_angle_beta	87.142206
_cell_angle_gamma	87.080299
loop_
_atom_site_label
_atom_site_type_symbol
_atom_site_fract_x
_atom_site_fract_y
_atom_site_fract_z
O1	O	1.043823	0.174116	-0.072015
O2	O	0.815539	0.172167	-0.072041
O3	O	0.935921	0.051671	-0.072026
O4	O	0.923440	0.294611	-0.072029
O5	O	0.929037	0.058531	0.072235
O6	O	0.808655	0.179027	0.072221
O7	O	1.036939	0.180976	0.072246
Cu8	Cu	0.922168	0.180628	0.085406
Cu9	Cu	0.930309	0.172515	-0.085200
O10	O	0.916556	0.301471	0.072232
C11	C	0.782884	0.173091	0.000087
C12	C	0.695840	0.165614	0.000077
C13	C	0.645600	0.237750	0.000077
C14	C	0.563813	0.230720	0.000089
C15	C	0.532268	0.151555	0.000095
C16	C	0.582515	0.079414	0.000098
C17	C	0.664300	0.086445	0.000092
C18	C	0.288669	0.122418	0.000118
C19	C	0.206878	0.115393	0.000122
C20	C	0.188181	0.266700	0.000114
C21	C	0.269969	0.273723	0.000103
C22	C	0.320208	0.201582	0.000111
N23	N	0.448669	0.144368	0.000104
N24	N	0.403806	0.208770	0.000107
C25	C	0.931963	0.023872	0.000103
C26	C	0.930416	-0.069182	0.000098
C27	C	0.924861	-0.407301	0.000100
C28	C	0.839142	-0.365620	-0.000233
C29	C	0.840674	-0.268811	0.000092
C30	C	0.927617	-0.239556	0.000098
C31	C	0.965973	-0.273887	0.082482
C32	C	0.963816	-0.370663	0.082550
C33	C	0.973415	-0.378704	-0.081501
C34	C	0.973447	-0.281812	-0.082590
C35	C	0.929178	-0.144754	0.000100
C36	C	0.923301	-0.502103	0.000104
C37	C	1.069593	0.180052	0.000117
C38	C	1.156637	0.187528	0.000121
C39	C	0.920514	0.329271	0.000101
C40	C	0.922061	0.422324	0.000101
N41	N	0.916448	0.186334	0.205401
N42	N	0.936036	0.166802	-0.205195
C43	C	0.967608	0.135164	0.250801
C44	C	0.963289	0.139488	0.341608
C45	C	0.907813	0.194986	0.387014
C46	C	0.856647	0.246157	0.341607
C47	C	0.860963	0.241829	0.250801
C48	C	0.889185	0.213646	0.658593
C49	C	0.884875	0.217972	0.749405
C50	C	0.991517	0.111301	0.749400
C51	C	0.995831	0.106981	0.658592
C52	C	0.944662	0.158150	0.613194
N53	N	0.903399	0.199408	0.479833
N54	N	0.949073	0.153722	0.520376
H55	H	0.295647	0.338187	0.000088
H56	H	0.802224	-0.384703	0.058509
C57	C	1.084506	-0.280387	0.160766
C58	C	1.052004	-0.248854	0.086633
H59	H	1.137619	-0.264935	0.163323
H60	H	1.054830	-0.257871	0.210954
H61	H	1.083122	-0.339743	0.158287
H62	H	1.053382	-0.189497	0.089115
H63	H	1.081688	-0.271366	0.036432
C64	C	0.792828	-0.142912	0.080631
C65	C	0.791694	-0.230411	0.079943
H66	H	0.762584	-0.119208	0.129928
H67	H	0.845700	-0.126686	0.083053
H68	H	0.770954	-0.123502	0.029382
H69	H	0.813573	-0.249821	0.131189
H70	H	0.738811	-0.246644	0.077529
C71	C	1.036228	-0.029209	0.777363
C72	C	1.047749	0.055049	0.799305
H73	H	1.070946	-0.063939	0.808169
H74	H	0.983197	-0.041115	0.792255
H75	H	1.046740	-0.039717	0.716783
H76	H	1.037231	0.065558	0.859884
H77	H	1.100792	0.066959	0.784419
H78	H	0.522910	0.289461	0.000087
H79	H	0.329565	0.063675	0.000125
C80	C	0.504923	-0.019797	-0.074057
C81	C	0.547843	-0.007607	0.000102
H82	H	0.483524	-0.073524	-0.074057
H83	H	0.463299	0.022153	-0.074050
H84	H	0.538842	-0.016301	-0.124359
H85	H	0.513922	-0.011097	0.050404
H86	H	0.589473	-0.049569	0.000103
C87	C	0.233569	-0.033469	0.000138
C88	C	0.172202	0.028367	0.000130
H89	H	0.212159	-0.087190	0.000145
H90	H	0.267475	-0.029977	-0.050166
H91	H	0.262683	-0.025182	0.050449
H92	H	0.143091	0.020084	-0.050185
H93	H	0.138283	0.024873	0.050439
C94	C	0.893089	-0.321177	0.214939
C95	C	0.918212	-0.394208	0.165671
H96	H	0.864929	-0.335712	0.266252
H97	H	0.937656	-0.291174	0.229991
H98	H	0.859630	-0.287124	0.181991
H99	H	0.951676	-0.428259	0.198618
H100	H	0.873639	-0.424225	0.150621
H101	H	0.933677	-0.244555	0.143784
C102	C	0.674572	-0.063821	0.000084
C103	C	0.719528	0.007151	0.000084
H104	H	0.708669	-0.112774	0.000076
H105	H	0.639893	-0.061025	0.050391
H106	H	0.644674	-0.065802	-0.050224
H107	H	0.749422	0.009135	0.050395
H108	H	0.754221	0.004354	-0.050228
H109	H	1.026582	-0.398522	0.086293
H110	H	0.810251	-0.245421	-0.058964
C111	C	0.054508	0.323110	0.000128
C112	C	0.132956	0.345993	0.000118
H113	H	0.020416	0.372067	0.000138
H114	H	0.047341	0.288491	-0.050176
H115	H	0.042562	0.293265	0.050439
H116	H	0.144904	0.375833	-0.050197
H117	H	0.140126	0.380627	0.050427
C118	C	0.874656	-0.460247	-0.145508
C119	C	0.939596	-0.412964	-0.165798
H120	H	0.853770	-0.481392	-0.197547
H121	H	0.890856	-0.505645	-0.111883
H122	H	0.835296	-0.425766	-0.113345
H123	H	0.978959	-0.447447	-0.197956
H124	H	0.923398	-0.367560	-0.199437
C125	C	1.107071	0.090590	0.555955
C126	C	1.056445	0.045734	0.608453
H127	H	1.144388	0.052707	0.524937
H128	H	1.077189	0.120654	0.516112
H129	H	1.133981	0.128821	0.591218
H130	H	1.029530	0.007507	0.573189
H131	H	1.086331	0.015655	0.648301
C132	C	0.938915	-0.164480	-0.167092
C133	C	0.935697	-0.251658	-0.164869
H134	H	0.915612	-0.145862	-0.217890
H135	H	0.910936	-0.138717	-0.117298
H136	H	0.992383	-0.149741	-0.167612
H137	H	0.882228	-0.266397	-0.164344
H138	H	0.963674	-0.277430	-0.214677
H139	H	0.807694	-0.389254	-0.059312
H140	H	1.012786	0.089976	0.213838
H141	H	1.004948	0.097821	0.378573
H142	H	0.819302	0.283495	0.213837
H143	H	0.839698	0.263168	0.786370
H144	H	0.847523	0.255311	0.621636
C145	C	1.098014	-0.294575	-0.163805
C146	C	1.059344	-0.255622	-0.089341
H147	H	1.151039	-0.278387	-0.167979
H148	H	1.097483	-0.353676	-0.160335
H149	H	1.071752	-0.278067	-0.213604
H150	H	1.085602	-0.272134	-0.039541
H151	H	1.059880	-0.196508	-0.092804
H152	H	1.036653	-0.406261	-0.082051
C153	C	0.802687	0.300163	0.480806
C154	C	0.795668	0.307164	0.391515
H155	H	0.765044	0.337833	0.511614
H156	H	0.793464	0.244423	0.495694
H157	H	0.854311	0.313501	0.495668
H158	H	0.744046	0.293821	0.376652
H159	H	0.804885	0.362917	0.376621
H160	H	0.671277	0.302214	0.000071
