data_functionalizedCrystal
_audit_creation_method	'MofGen! by Chris Wilmer'
_symmetry_space_group_name_H-M	'P1'
_symmetry_Int_Tables_number	1
_symmetry_cell_setting	triclinic
loop_
_symmetry_equiv_pos_as_xyz
  x,y,z
_cell_length_a	12.837943
_cell_length_b	23.532407
_cell_length_c	11.892095
_cell_angle_alpha	93.859970
_cell_angle_beta	85.689438
_cell_angle_gamma	88.838809
loop_
_atom_site_label
_atom_site_type_symbol
_atom_site_fract_x
_atom_site_fract_y
_atom_site_fract_z
O1	O	1.380592	0.144688	-0.094007
O2	O	1.078862	0.137379	-0.094012
O3	O	1.238824	0.058625	-0.093989
O4	O	1.220630	0.223442	-0.094030
O5	O	1.225487	0.065180	0.094017
O6	O	1.065525	0.143934	0.093993
O7	O	1.367255	0.151243	0.093999
Zn8	Zn	1.214272	0.148629	0.123846
Zn9	Zn	1.231845	0.139993	-0.123859
O10	O	1.207293	0.229998	0.093975
C11	C	1.033599	0.138187	-0.000010
C12	C	0.918597	0.130823	-0.000011
C13	C	0.676728	0.219356	-0.000017
C14	C	0.568673	0.212439	-0.000017
C15	C	0.594431	0.110073	-0.000004
C16	C	0.702485	0.116990	-0.000003
C17	C	0.743630	0.171633	-0.000012
C18	C	0.851687	0.178549	-0.000020
C19	C	0.877442	0.076184	0.000002
C20	C	0.769387	0.069267	0.000002
C21	C	1.231692	0.040660	0.000017
C22	C	1.230298	-0.022637	0.000026
C23	C	1.316227	-0.416812	-0.000035
C24	C	1.314934	-0.476287	-0.000043
O25	O	1.394590	-0.508463	-0.000084
N26	N	1.219835	-0.504370	-0.000044
C27	C	1.126025	-0.472975	-0.000048
O28	O	1.045018	-0.502322	-0.000051
C29	C	1.127321	-0.413501	-0.000047
C30	C	1.222424	-0.385421	-0.000035
C31	C	1.411324	-0.388732	-0.000024
C32	C	1.412617	-0.329261	-0.000013
C33	C	1.318813	-0.297871	-0.000013
C34	C	1.223717	-0.325951	-0.000024
C35	C	1.033512	-0.382108	-0.000059
C36	C	1.034816	-0.322631	-0.000060
C37	C	1.129920	-0.294551	-0.000047
C38	C	1.131207	-0.235089	-0.000014
N39	N	1.226306	-0.207006	-0.000013
C40	C	1.320109	-0.238397	-0.000013
C41	C	1.123312	-0.597873	-0.000051
C42	C	1.122015	-0.657345	-0.000043
C43	C	1.310925	-0.660653	-0.000041
C44	C	1.312220	-0.601180	-0.000040
C45	C	1.218411	-0.569790	-0.000050
C46	C	1.322817	-0.113504	0.000011
C47	C	1.324101	-0.054028	0.000026
C48	C	1.135193	-0.050725	0.000018
C49	C	1.133908	-0.110196	0.000008
C50	C	1.227729	-0.141584	0.000001
O51	O	1.051594	-0.202877	0.000022
O52	O	1.401104	-0.209042	-0.000025
C53	C	1.412519	0.150435	-0.000006
C54	C	1.527521	0.157799	-0.000012
C55	C	1.214425	0.247962	-0.000033
C56	C	1.215820	0.311259	-0.000049
N57	N	1.202287	0.154524	0.292898
N58	N	1.243838	0.134094	-0.292912
C59	C	1.327236	0.093046	0.529565
C60	C	1.318866	0.097171	0.647905
C61	C	1.177173	0.166894	0.647922
C62	C	1.185543	0.162770	0.529582
C63	C	1.260578	0.125845	0.470407
C64	C	1.268952	0.121724	0.352064
C65	C	1.127255	0.191444	0.352084
C66	C	1.118885	0.195569	0.470424
H67	H	0.931927	0.037324	-0.000001
O68	O	1.383473	0.065249	0.705424
C69	C	1.323507	0.029504	0.773919
H70	H	1.244337	0.022844	0.738275
H71	H	1.366145	-0.013384	0.775263
H72	H	1.311551	0.050149	0.863604
O73	O	1.416585	-0.026843	-0.000017
C74	C	1.499095	-0.067307	0.000005
H75	H	1.473002	-0.110453	-0.035595
H76	H	1.569402	-0.053181	-0.054575
H77	H	1.521602	-0.071007	0.090200
H78	H	1.072980	0.218153	0.303904
O79	O	0.503835	0.258855	-0.000078
C80	C	0.563325	0.308566	-0.000055
H81	H	0.646650	0.297251	-0.035644
H82	H	0.526970	0.340463	-0.054644
H83	H	0.564458	0.328181	0.090139
O84	O	1.404548	-0.573847	-0.000189
C85	C	1.417875	-0.542947	-0.097576
H86	H	1.338367	-0.533726	-0.130040
H87	H	1.457216	-0.501066	-0.075681
H88	H	1.468819	-0.569062	-0.165755
O89	O	1.045951	0.231360	0.528038
C90	C	0.977490	0.199775	0.596489
H91	H	1.017952	0.158103	0.614213
H92	H	0.954974	0.225538	0.679708
H93	H	0.904186	0.190145	0.550900
H94	H	1.056465	-0.133059	0.000030
H95	H	0.885184	0.223042	-0.000025
H96	H	1.046916	-0.572319	-0.000049
H97	H	1.116074	0.196954	0.696118
H98	H	1.399215	-0.139054	0.000000
O99	O	1.400250	0.057272	0.472038
C100	C	1.468666	0.088868	0.403561
H101	H	1.467391	0.135095	0.439216
H102	H	1.551358	0.070109	0.402225
H103	H	1.442577	0.086949	0.313871
O104	O	0.716768	0.272413	-0.000230
C105	C	0.785429	0.276076	-0.097585
H106	H	0.764999	0.242575	-0.165634
H107	H	0.777588	0.320283	-0.130281
H108	H	0.869219	0.268333	-0.075566
H109	H	1.487714	-0.414284	-0.000027
H110	H	0.560905	0.065588	0.000097
H111	H	0.735872	0.024778	0.000022
H112	H	1.490060	-0.306404	-0.000007
H113	H	1.387304	-0.686223	-0.000045
O114	O	1.029618	-0.684599	-0.000244
C115	C	0.979373	-0.672427	-0.097598
H116	H	1.039826	-0.659417	-0.165650
H117	H	0.937988	-0.711921	-0.130290
H118	H	0.919677	-0.636104	-0.075580
O119	O	0.941040	-0.409287	-0.000127
C120	C	0.858538	-0.368816	-0.000106
H121	H	0.889695	-0.328147	-0.035688
H122	H	0.795976	-0.386732	-0.054702
H123	H	0.823227	-0.358843	0.090086
O124	O	0.943728	-0.292121	-0.000266
C125	C	0.945743	-0.260994	-0.097617
H126	H	1.003785	-0.282221	-0.165671
H127	H	0.864540	-0.259995	-0.130307
H128	H	0.970531	-0.215599	-0.075593
O129	O	1.044176	-0.020142	-0.000034
C130	C	1.065721	0.038372	-0.000000
H131	H	1.149602	0.043828	-0.035582
H132	H	1.009775	0.060138	-0.054590
H133	H	1.055209	0.058466	0.090196
O134	O	1.341729	0.085763	0.294655
C135	C	1.323401	0.029519	0.323647
H136	H	1.238148	0.025867	0.356180
H137	H	1.341119	-0.001125	0.245848
H138	H	1.376114	0.018333	0.392354
