data_functionalizedCrystal
_audit_creation_method	'MofGen! by Chris Wilmer'
_symmetry_space_group_name_H-M	'P1'
_symmetry_Int_Tables_number	1
_symmetry_cell_setting	triclinic
loop_
_symmetry_equiv_pos_as_xyz
  x,y,z
_cell_length_a	11.169417
_cell_length_b	16.959454
_cell_length_c	11.169409
_cell_angle_alpha	89.968012
_cell_angle_beta	90.019824
_cell_angle_gamma	89.976186
loop_
_atom_site_label
_atom_site_type_symbol
_atom_site_fract_x
_atom_site_fract_y
_atom_site_fract_z
Zn1	Zn	1.834857	0.314599	0.678546
Zn2	Zn	1.834703	0.446806	0.477864
Zn3	Zn	1.634143	0.314647	0.477880
Zn4	Zn	1.634107	0.446741	0.678509
O5	O	1.734452	0.380698	0.578199
O6	O	2.002786	0.332143	0.651933
O7	O	1.808048	0.429322	0.309916
O8	O	1.660848	0.204030	0.504521
O9	O	2.002673	0.429275	0.504493
O10	O	1.808312	0.203995	0.651949
O11	O	1.660698	0.332225	0.309928
O12	O	1.466189	0.332163	0.504485
O13	O	1.660786	0.429165	0.846463
O14	O	1.466162	0.429212	0.651886
O15	O	1.808277	0.332081	0.846491
O16	O	1.808013	0.557408	0.504457
O17	O	1.660636	0.557361	0.651870
C18	C	1.422628	0.380686	0.578184
C19	C	1.289228	0.380700	0.578206
C20	C	1.734336	0.586065	0.578184
C21	C	1.734396	0.673921	0.578218
C22	C	1.657774	1.045402	0.654966
C23	C	1.811364	1.045391	0.501589
C24	C	1.811329	0.962846	0.501576
C25	C	1.734513	0.921574	0.578258
C26	C	1.657734	0.962849	0.654953
C27	C	1.888098	0.921565	0.424873
C28	C	1.888065	0.839014	0.424856
C29	C	1.811254	0.797741	0.501545
C30	C	1.734473	0.839021	0.578244
C31	C	1.657657	0.797749	0.654926
C32	C	1.580881	0.839027	0.731632
C33	C	1.580923	0.921576	0.731642
C34	C	1.811212	0.715193	0.501536
C35	C	1.657617	0.715196	0.654913
C36	C	2.047495	0.380711	0.578216
C37	C	2.180895	0.380716	0.578223
C38	C	1.734583	1.174530	0.578247
C39	C	1.734589	1.086674	0.578284
C40	C	1.734545	0.380611	0.891242
C41	C	1.734584	0.380573	1.024642
C42	C	1.734430	0.380729	0.266375
C43	C	1.734623	0.380543	0.132975
H44	H	1.595069	0.681597	0.717362
C45	C	1.496384	0.793623	0.815979
C46	C	1.402162	0.736943	0.763870
C47	C	1.317668	0.691534	0.848213
C48	C	1.327396	0.702806	0.984664
C49	C	1.421622	0.759489	1.036779
C50	C	1.506117	0.804897	0.952437
H51	H	1.394957	0.728596	0.662855
H52	H	1.247915	0.649574	0.809633
H53	H	1.264848	0.669192	1.047099
H54	H	1.428827	0.767835	1.137795
H55	H	1.575869	0.846858	0.991017
C56	C	1.895654	0.669785	0.417170
C57	C	1.885929	0.681196	0.280725
C58	C	1.970378	0.635788	0.196356
C59	C	2.064552	0.578970	0.248432
C60	C	2.074281	0.567557	0.384884
C61	C	1.989832	0.612964	0.469253
H62	H	1.816213	0.723258	0.242169
H63	H	1.963176	0.644237	0.095345
H64	H	2.127066	0.545356	0.185977
H65	H	2.143997	0.525494	0.423440
H66	H	1.997034	0.604515	0.570264
C67	C	1.496473	0.966985	0.816006
C68	C	1.402304	1.023802	0.763921
C69	C	1.317855	1.069216	0.848282
C70	C	1.327575	1.057812	0.984728
C71	C	1.421748	1.000992	1.036821
C72	C	1.506197	0.955578	0.952460
H73	H	1.395106	1.032246	0.662908
H74	H	1.248142	1.111278	0.809719
H75	H	1.265061	1.091431	1.047177
H76	H	1.428947	0.992548	1.137833
H77	H	1.575910	0.913516	0.991023
C78	C	1.573325	1.090804	0.739340
C79	C	1.479153	1.147626	0.687272
C80	C	1.394704	1.193029	0.771647
C81	C	1.404427	1.181610	0.908090
C82	C	1.498603	1.124785	0.960166
C83	C	1.583052	1.079382	0.875790
H84	H	1.471951	1.156082	0.586262
H85	H	1.324989	1.235095	0.733097
H86	H	1.341914	1.215220	0.970550
H87	H	1.505805	1.116329	1.061175
H88	H	1.652767	1.037316	0.914340
C89	C	1.895853	1.090790	0.417242
C90	C	1.843918	1.147606	0.322982
C91	C	1.928411	1.193010	0.238633
C92	C	2.064840	1.181597	0.248543
C93	C	2.116782	1.124778	0.342807
C94	C	2.032289	1.079375	0.427156
H95	H	1.742919	1.156057	0.315643
H96	H	1.889959	1.235071	0.168853
H97	H	2.127387	1.215208	0.186103
H98	H	2.217782	1.116328	0.350146
H99	H	2.070741	1.037314	0.496936
H100	H	1.950628	0.955174	0.362434
H101	H	1.950581	0.805410	0.362400
