data_functionalizedCrystal
_audit_creation_method	'MofGen! by Chris Wilmer'
_symmetry_space_group_name_H-M	'P1'
_symmetry_Int_Tables_number	1
_symmetry_cell_setting	triclinic
loop_
_symmetry_equiv_pos_as_xyz
  x,y,z
_cell_length_a	17.639617
_cell_length_b	25.639239
_cell_length_c	17.640968
_cell_angle_alpha	78.768889
_cell_angle_beta	70.333968
_cell_angle_gamma	101.222911
loop_
_atom_site_label
_atom_site_type_symbol
_atom_site_fract_x
_atom_site_fract_y
_atom_site_fract_z
Zn1	Zn	1.354419	0.069163	-0.721260
Zn2	Zn	1.326398	-0.040454	-0.583392
Zn3	Zn	1.188687	0.024849	-0.555521
Zn4	Zn	1.216487	-0.040403	-0.693275
O5	O	1.271498	0.003289	-0.638362
O6	O	1.466059	0.073146	-0.726347
O7	O	1.284769	-0.050359	-0.464346
O8	O	1.210765	0.103912	-0.577554
O9	O	1.445472	-0.007389	-0.625056
O10	O	1.332527	0.136469	-0.699322
O11	O	1.183593	-0.002380	-0.443869
O12	O	1.077018	-0.002331	-0.550418
O13	O	1.258146	-0.007302	-0.812336
O14	O	1.097442	-0.050272	-0.651625
O15	O	1.359484	0.073196	-0.832896
O16	O	1.311725	-0.113632	-0.597921
O17	O	1.230974	-0.113594	-0.678651
C18	C	1.057319	-0.031105	-0.594961
C19	C	0.965696	-0.045828	-0.576413
C20	C	0.718001	0.115182	-0.779469
C21	C	0.631904	0.101332	-0.762024
C22	C	0.610458	0.017556	-0.656398
C23	C	0.696555	0.031398	-0.673837
C24	C	0.750320	0.080212	-0.735373
C25	C	0.728875	-0.003571	-0.629741
C26	C	0.814964	0.010271	-0.647176
C27	C	0.868734	0.059083	-0.708707
C28	C	0.836410	0.094055	-0.752808
C29	C	0.675107	-0.052383	-0.568202
C30	C	0.707426	-0.087353	-0.524105
C31	C	0.793518	-0.073513	-0.541544
C32	C	0.847288	-0.024700	-0.603075
C33	C	0.825842	-0.108484	-0.497443
C34	C	0.911931	-0.094641	-0.514878
C35	C	0.933377	-0.010858	-0.620510
C36	C	1.271352	-0.132582	-0.638296
C37	C	1.271370	-0.190692	-0.638311
C38	C	1.313700	-0.551001	-0.596443
C39	C	1.313735	-0.605599	-0.596461
O40	O	1.349573	-0.633820	-0.560793
N41	N	1.271654	-0.632918	-0.638446
C42	C	1.229543	-0.605636	-0.680423
O43	O	1.193754	-0.633886	-0.716137
C44	C	1.229514	-0.551038	-0.680410
C45	C	1.271591	-0.523723	-0.638415
C46	C	1.355774	-0.523686	-0.554452
C47	C	1.355739	-0.469093	-0.554434
C48	C	1.313629	-0.441815	-0.596406
C49	C	1.271555	-0.469130	-0.638397
C50	C	1.187409	-0.523755	-0.722392
C51	C	1.187385	-0.469153	-0.722376
C52	C	1.229461	-0.441839	-0.680381
C53	C	1.229410	-0.387258	-0.680350
N54	N	1.271491	-0.359939	-0.638365
C55	C	1.313601	-0.387217	-0.596393
C56	C	1.229608	-0.720294	-0.680448
C57	C	1.229631	-0.774892	-0.680457
C58	C	1.313824	-0.774851	-0.596495
C59	C	1.313795	-0.720254	-0.596482
C60	C	1.271689	-0.692975	-0.638463
C61	C	1.313522	-0.272567	-0.596356
C62	C	1.313480	-0.217970	-0.596338
C63	C	1.229290	-0.218015	-0.680303
C64	C	1.229329	-0.272608	-0.680318
C65	C	1.271451	-0.299883	-0.638343
O66	O	1.193592	-0.359002	-0.716002
O67	O	1.349393	-0.358957	-0.560694
C68	C	1.486513	0.037816	-0.681932
C69	C	1.578140	0.052529	-0.700500
C70	C	1.315041	0.037896	-0.853361
C71	C	1.333597	0.052643	-0.944980
C72	C	1.271671	0.139697	-0.638450
C73	C	1.271744	0.197826	-0.638488
C74	C	1.130849	-0.108410	-1.192789
C75	C	1.148302	-0.094543	-1.278883
C76	C	1.253817	-0.010728	-1.300280
C77	C	1.236369	-0.024586	-1.214186
C78	C	1.174885	-0.073428	-1.160446
C79	C	1.280406	0.010396	-1.181843
C80	C	1.262963	-0.003463	-1.095757
C81	C	1.201483	-0.052304	-1.042012
C82	C	1.157442	-0.087287	-1.074360
C83	C	1.341894	0.059236	-1.235585
C84	C	1.385930	0.094218	-1.203242
C85	C	1.368483	0.080361	-1.117154
C86	C	1.307004	0.031520	-1.063409
C87	C	1.412524	0.115344	-1.084806
C88	C	1.395081	0.101485	-0.998720
C89	C	1.289561	0.017661	-0.977323
C90	C	1.228171	-0.031138	-0.424209
C91	C	1.209775	-0.045712	-0.332622
H92	H	0.880190	0.133802	-0.802919
H93	H	1.239474	-0.022102	-0.933561
Br94	Br	0.752864	-0.174723	-0.413922
Br95	Br	0.955800	-0.142103	-0.455039
Br96	Br	1.073989	-0.153569	-1.001418
Br97	Br	1.172201	-0.309686	-0.737287
H98	H	1.348115	-0.797070	-0.562323
H99	H	1.195002	-0.195797	-0.714473
Br100	Br	0.790978	0.181426	-0.862992
Br101	Br	1.454850	0.148958	-0.954822
Br102	Br	1.130240	-0.432134	-0.779357
Br103	Br	1.469374	0.160499	-1.276182
H104	H	1.303879	0.029039	-1.344047
Br105	Br	0.558268	-0.071166	-0.544532
Br106	Br	1.412933	-0.560696	-0.497485
H107	H	0.605594	0.129814	-0.797933
H108	H	1.347743	-0.195732	-0.562138
Br109	Br	1.047395	-0.174692	-1.119847
H110	H	1.462590	0.155109	-1.128574
Br111	Br	1.172510	-0.811960	-0.737438
Br112	Br	0.634452	-0.153596	-0.440591
H113	H	1.348058	-0.698017	-0.562287
H114	H	1.112438	-0.123033	-1.305211
H115	H	1.347824	-0.294767	-0.562179
Br116	Br	1.412860	-0.432027	-0.497452
H117	H	0.938832	0.070354	-0.722898
Br118	Br	1.365572	0.078043	-1.352420
Br119	Br	1.172451	-0.683280	-0.737422
H120	H	1.153141	-0.545987	-0.756584
Br121	Br	1.177814	-0.071118	-0.925180
H122	H	0.566671	-0.022186	-0.606294
Br123	Br	1.006354	0.055386	-0.704033
