data_functionalizedCrystal
_audit_creation_method	'MofGen! by Chris Wilmer'
_symmetry_space_group_name_H-M	'P1'
_symmetry_Int_Tables_number	1
_symmetry_cell_setting	triclinic
loop_
_symmetry_equiv_pos_as_xyz
  x,y,z
_cell_length_a	6.817900
_cell_length_b	9.109307
_cell_length_c	9.170709
_cell_angle_alpha	89.144140
_cell_angle_beta	112.460645
_cell_angle_gamma	111.764999
loop_
_atom_site_label
_atom_site_type_symbol
_atom_site_fract_x
_atom_site_fract_y
_atom_site_fract_z
V1	V	-4.150291	-0.152525	-0.506779
O2	O	-4.074222	0.077898	-0.466671
O3	O	-4.159852	-0.370301	-0.532609
O4	O	-4.128898	-0.119214	-0.714436
O5	O	-4.105390	-0.174927	-0.283584
V6	V	-4.622909	-0.128622	-0.476524
O7	O	-4.435470	-0.204957	-0.573145
O8	O	-4.787926	-0.076190	-0.410158
O9	O	-4.390140	0.089154	-0.450694
O10	O	-4.816374	-0.359045	-0.516632
O11	O	-4.785206	-0.106220	-0.699718
O12	O	-4.421095	-0.161933	-0.268866
C13	C	-4.018080	-0.424358	-0.532173
C14	C	-4.107364	-0.602193	-0.554677
C15	C	-3.978593	-0.104070	-0.764111
C16	C	-4.042769	-0.078276	-0.934064
C17	C	-4.195257	0.143202	-0.451126
C18	C	-4.085212	0.321037	-0.428633
C19	C	-4.234742	-0.177083	-0.219184
C20	C	-4.149802	-0.202869	-0.049228
H21	H	-4.194620	-0.672525	-0.679846
C22	C	-3.967348	-0.583962	-0.259541
N23	N	-3.878562	-0.512396	-0.132178
H24	H	-4.192354	-0.329278	-1.017807
H25	H	-4.000236	0.048140	-0.965492
