data_functionalizedCrystal
_audit_creation_method	'MofGen! by Chris Wilmer'
_symmetry_space_group_name_H-M	'P1'
_symmetry_Int_Tables_number	1
_symmetry_cell_setting	triclinic
loop_
_symmetry_equiv_pos_as_xyz
  x,y,z
_cell_length_a	17.077404
_cell_length_b	19.076808
_cell_length_c	19.077579
_cell_angle_alpha	94.529153
_cell_angle_beta	92.312182
_cell_angle_gamma	92.321444
loop_
_atom_site_label
_atom_site_type_symbol
_atom_site_fract_x
_atom_site_fract_y
_atom_site_fract_z
Zn1	Zn	1.205504	-0.264708	0.387291
Zn2	Zn	1.194425	-0.387340	0.264662
Zn3	Zn	1.068750	-0.269459	0.269418
Zn4	Zn	1.068703	-0.382563	0.382514
O5	O	1.134345	-0.326018	0.325971
O6	O	1.313881	-0.280986	0.371032
O7	O	1.173137	-0.375691	0.166641
O8	O	1.091547	-0.170172	0.289044
O9	O	1.305741	-0.371084	0.280937
O10	O	1.192019	-0.166681	0.375644
O11	O	1.080804	-0.289085	0.170135
O12	O	0.958897	-0.284452	0.284412
O13	O	1.091467	-0.362941	0.481800
O14	O	0.958863	-0.367549	0.367504
O15	O	1.191974	-0.276353	0.485309
O16	O	1.173091	-0.485363	0.276306
O17	O	1.080724	-0.481853	0.362891
C18	C	0.930398	-0.325998	0.325956
C19	C	0.843148	-0.326006	0.325966
C20	C	0.806396	-0.279170	0.372944
C21	C	0.724416	-0.279174	0.372947
C22	C	0.679188	-0.326019	0.325975
C23	C	0.715946	-0.372858	0.278992
C24	C	0.797925	-0.372849	0.278986
C25	C	0.545076	-0.372873	0.279009
C26	C	0.463091	-0.372883	0.279015
C27	C	0.471567	-0.279198	0.372970
C28	C	0.553546	-0.279189	0.372964
C29	C	0.590297	-0.326029	0.325981
C30	C	1.125723	-0.509188	0.318579
C31	C	1.122107	-0.587548	0.315441
C32	C	1.172683	-0.622483	0.359091
C33	C	1.169282	-0.696110	0.356143
C34	C	1.115308	-0.734803	0.309541
C35	C	1.064727	-0.699863	0.265889
C36	C	1.068125	-0.626237	0.268841
C37	C	1.099539	-0.955204	0.295876
C38	C	1.096146	-1.028836	0.292926
C39	C	1.200700	-1.025077	0.383182
C40	C	1.204096	-0.951450	0.386126
C41	C	1.153512	-0.916517	0.342477
N42	N	1.111833	-0.810062	0.306525
N43	N	1.156985	-0.841258	0.345497
C44	C	1.339089	-0.326038	0.325987
C45	C	1.426339	-0.326046	0.325993
C46	C	1.142951	-0.318584	0.509849
C47	C	1.146618	-0.315417	0.588207
C48	C	1.143024	-0.142131	0.333408
C49	C	1.146722	-0.063770	0.336576
C50	C	1.125821	-0.333371	0.142811
C51	C	1.122315	-0.336340	0.064462
C52	C	1.172918	-0.292749	1.029474
C53	C	1.169467	-0.295729	0.955848
C54	C	1.115409	-0.342296	0.917212
C55	C	1.064805	-0.385892	0.952205
C56	C	1.068260	-0.382915	1.025829
C57	C	1.099468	-0.356036	0.696824
C58	C	1.096016	-0.359008	0.623195
C59	C	1.200679	-0.268845	0.626843
C60	C	1.204126	-0.265869	0.700468
C61	C	1.153524	-0.309468	0.735455
N62	N	1.111879	-0.345342	0.841955
N63	N	1.157059	-0.306426	0.810710
H64	H	0.590368	-0.241048	0.411217
O65	O	1.255259	-0.221827	0.589108
H66	H	1.316956	-0.233357	0.602756
O67	O	0.855173	-0.228637	0.423604
H68	H	0.841462	-0.238572	0.478424
O69	O	0.431931	-0.228674	0.423642
H70	H	0.449709	-0.173808	0.413878
H71	H	1.210675	-0.260234	0.927364
H72	H	0.694497	-0.241036	0.411203
H73	H	1.020778	-0.731373	0.227947
O74	O	1.006491	-0.436112	0.910536
H75	H	1.018000	-0.490878	0.922420
H76	H	1.248149	-0.227952	0.731921
O77	O	0.584717	-0.423389	0.228332
H78	H	0.621868	-0.458025	0.258373
H79	H	0.679115	-0.410996	0.240743
O80	O	1.231225	-0.242525	1.071145
H81	H	1.265838	-0.212720	1.034443
O82	O	1.013582	-0.588552	0.221756
H83	H	0.975486	-0.627826	0.188848
H84	H	0.426269	-0.411028	0.240767
O85	O	1.255253	-1.062753	0.430263
H86	H	1.244982	-1.046368	0.486146
H87	H	1.051977	-0.396915	0.591739
O88	O	1.223832	-0.733787	0.403225
H89	H	1.260769	-0.768594	0.370362
O90	O	1.262334	-0.909717	0.436367
H91	H	1.296939	-0.946380	0.466220
H92	H	0.827846	-0.410988	0.240731
H93	H	1.058264	-0.391536	0.725301
H94	H	1.216637	-0.590984	0.397036
O95	O	1.013674	-0.429925	1.063570
H96	H	1.023852	-0.485830	1.047199
O97	O	1.037924	-1.070573	0.242666
H98	H	1.003314	-1.033913	0.212815
H99	H	1.058352	-0.926767	0.260334
