data_functionalizedCrystal
_audit_creation_method	'MofGen! by Chris Wilmer'
_symmetry_space_group_name_H-M	'P1'
_symmetry_Int_Tables_number	1
_symmetry_cell_setting	triclinic
loop_
_symmetry_equiv_pos_as_xyz
  x,y,z
_cell_length_a	35.288113
_cell_length_b	35.277611
_cell_length_c	35.277682
_cell_angle_alpha	89.997327
_cell_angle_beta	59.999432
_cell_angle_gamma	60.000166
loop_
_atom_site_label
_atom_site_type_symbol
_atom_site_fract_x
_atom_site_fract_y
_atom_site_fract_z
O1	O	-0.271232	-0.323090	0.011273
O2	O	-0.193633	-0.267966	-0.011225
O3	O	-0.271230	-0.267965	0.066395
O4	O	-0.193635	-0.323091	-0.066346
O5	O	-0.334254	-0.204920	0.066390
O6	O	-0.256658	-0.204921	-0.011230
O7	O	-0.334256	-0.260045	0.011268
Cu8	Cu	-0.301211	-0.226727	0.000019
Cu9	Cu	-0.226678	-0.301284	0.000025
O10	O	-0.256659	-0.260046	-0.066351
C11	C	-0.139921	-0.094839	-0.023515
C12	C	-0.166526	-0.044836	-0.020291
C13	C	-0.162510	-0.117863	-0.023839
C14	C	-0.071295	-0.163484	-0.023521
C15	C	-0.024525	-0.186877	-0.020303
C16	C	-0.093988	-0.186403	-0.023845
C17	C	-0.139916	-0.163485	-0.023523
C18	C	-0.166517	-0.186877	-0.020308
C19	C	-0.093993	-0.117863	-0.023837
C20	C	-0.188008	-0.205776	-0.017709
C21	C	-0.188021	-0.004439	-0.017686
C22	C	0.013260	-0.205775	-0.017702
C23	C	-0.214969	-0.229485	-0.014449
C24	C	-0.214987	0.046242	-0.014418
C25	C	0.060663	-0.229485	-0.014440
C26	C	-0.466057	-0.500369	0.034182
C27	C	-0.511983	-0.477348	0.034501
C28	C	-0.466054	-0.431728	0.034177
C29	C	-0.511980	-0.408811	0.034496
C30	C	-0.534676	-0.431729	0.034177
C31	C	-0.443465	-0.477347	0.034501
C32	C	-0.342486	-0.665896	0.021768
C33	C	-0.317224	-0.712772	0.018258
C34	C	-0.338910	-0.736288	0.016496
C35	C	-0.311516	-0.787116	0.012682
C36	C	-0.385862	-0.712923	0.018248
C37	C	-0.411124	-0.666049	0.021764
C38	C	-0.389434	-0.642536	0.023524
C39	C	-0.687733	-0.389815	0.021747
C40	C	-0.731082	-0.368211	0.018231
C41	C	-0.752825	-0.323007	0.016462
C42	C	-0.799821	-0.299581	0.012644
C43	C	-0.731219	-0.299405	0.018214
C44	C	-0.687878	-0.321006	0.021737
C45	C	-0.666135	-0.366216	0.023501
C46	C	-0.342474	-0.389811	0.021746
C47	C	-0.317205	-0.368208	0.018224
C48	C	-0.338888	-0.323002	0.016457
C49	C	-0.311491	-0.299577	0.012637
C50	C	-0.385836	-0.299403	0.018207
C51	C	-0.411101	-0.321009	0.021727
C52	C	-0.389418	-0.366213	0.023500
C53	C	-0.416828	-0.591710	0.027333
C54	C	-0.438663	-0.551196	0.030370
C55	C	-0.438657	-0.408305	0.030359
C56	C	-0.416819	-0.389634	0.027316
C57	C	-0.581672	-0.408306	0.030359
C58	C	-0.619135	-0.389636	0.027317
C59	C	-0.061850	-0.432022	-0.438498
C60	C	-0.015925	-0.477641	-0.461414
C61	C	-0.061850	-0.432022	-0.369855
C62	C	-0.015924	-0.477642	-0.392875
C63	C	0.006770	-0.500664	-0.438494
C64	C	-0.084440	-0.409104	-0.392879
C65	C	-0.185425	-0.320835	-0.480419
C66	C	-0.210689	-0.299078	-0.502026
C67	C	-0.189005	-0.322533	-0.547232
C68	C	-0.216400	-0.298947	-0.570658
C69	C	-0.142053	-0.367745	-0.570831
C70	C	-0.116790	-0.389496	-0.549227
C71	C	-0.138478	-0.366040	-0.504019
C72	C	0.159822	-0.666191	-0.549673
C73	C	0.203170	-0.713067	-0.571429
C74	C	0.224915	-0.736585	-0.547974
C75	C	0.271910	-0.787411	-0.571555
C76	C	0.203311	-0.713220	-0.502762
C77	C	0.159971	-0.666344	-0.481011
C78	C	0.138226	-0.642833	-0.504471
C79	C	-0.185423	-0.320837	-0.204330
C80	C	-0.210690	-0.299082	-0.157452
C81	C	-0.189006	-0.322537	-0.133935
C82	C	-0.216401	-0.298952	-0.083107
C83	C	-0.142058	-0.367748	-0.157296
C84	C	-0.116795	-0.389501	-0.204172
C85	C	-0.138480	-0.366040	-0.227687
C86	C	-0.111082	-0.389631	-0.480594
C87	C	-0.089245	-0.408434	-0.461922
C88	C	-0.089244	-0.408435	-0.319029
C89	C	-0.111081	-0.389633	-0.278515
C90	C	0.053765	-0.551490	-0.462079
C91	C	0.091227	-0.592004	-0.480880
O92	O	0.184792	-0.260049	0.011276
O93	O	0.074572	-0.204918	-0.011214
O94	O	0.074577	-0.204931	0.066402
O95	O	0.184787	-0.260036	-0.066340
O96	O	0.074580	-0.267979	0.066395
O97	O	0.074575	-0.267967	-0.011221
O98	O	0.184796	-0.323098	0.011268
Cu99	Cu	0.129686	-0.301289	0.000023
Cu100	Cu	0.129682	-0.226727	0.000031
O101	O	0.184791	-0.323085	-0.066347
O102	O	-0.334280	0.196123	0.011311
O103	O	-0.256678	0.063379	-0.011194
O104	O	-0.334272	0.140988	0.066428
O105	O	-0.256685	0.118515	-0.066311
O106	O	-0.271246	0.140988	0.066430
O107	O	-0.193651	0.063380	-0.011192
O108	O	-0.271253	0.196124	0.011313
Cu109	Cu	-0.226697	0.129752	0.000060
Cu110	Cu	-0.301234	0.129751	0.000058
O111	O	-0.193659	0.118515	-0.066309
O112	O	0.397507	-0.936914	-0.602533
O113	O	0.287295	-0.804173	-0.547413
O114	O	0.287292	-0.881789	-0.547409
O115	O	0.397511	-0.859297	-0.602537
O116	O	0.287290	-0.881788	-0.610455
O117	O	0.287294	-0.804171	-0.610459
O118	O	0.397506	-0.936912	-0.665578
Cu119	Cu	0.342400	-0.870542	-0.643775
Cu120	Cu	0.342402	-0.870543	-0.569216
O121	O	0.397510	-0.859295	-0.665583
O122	O	-0.271230	-0.267964	-0.665316
O123	O	-0.193638	-0.323088	-0.610187
O124	O	-0.271233	-0.323088	-0.610187
O125	O	-0.193635	-0.267964	-0.665317
O126	O	-0.334259	-0.260042	-0.547144
O127	O	-0.256663	-0.260042	-0.547145
O128	O	-0.334256	-0.204919	-0.602274
Cu129	Cu	-0.301214	-0.226724	-0.568953
Cu130	Cu	-0.226679	-0.301282	-0.643508
O131	O	-0.256660	-0.204919	-0.602274
C132	C	-0.456595	-0.094848	0.293242
C133	C	-0.503362	-0.044847	0.316630
C134	C	-0.433901	-0.117870	0.316162
C135	C	-0.387976	-0.163489	0.224603
C136	C	-0.361374	-0.186880	0.174603
C137	C	-0.365386	-0.186407	0.247627
C138	C	-0.387976	-0.163489	0.293246
C139	C	-0.361374	-0.186880	0.316639
C140	C	-0.433901	-0.117870	0.247623
C141	C	-0.339882	-0.205777	0.335538
C142	C	-0.541144	-0.004451	0.335525
C143	C	-0.339882	-0.205778	0.134207
C144	C	-0.312920	-0.229485	0.359247
C145	C	-0.588544	0.046227	0.359230
C146	C	-0.312919	-0.229485	0.083529
C147	C	-0.139914	-0.163526	0.293243
C148	C	-0.166515	-0.186921	0.316629
C149	C	-0.162508	-0.117907	0.316165
C150	C	-0.071292	-0.163518	0.224608
C151	C	-0.024521	-0.186904	0.174608
C152	C	-0.093990	-0.117899	0.247633
C153	C	-0.139918	-0.094881	0.293251
C154	C	-0.166524	-0.044881	0.316645
C155	C	-0.093985	-0.186440	0.247625
C156	C	-0.188019	-0.004485	0.335545
C157	C	-0.188006	-0.205822	0.335522
C158	C	0.013264	-0.205797	0.134213
C159	C	-0.214985	0.046193	0.359256
C160	C	-0.214967	-0.229534	0.359225
C161	C	0.060667	-0.229500	0.083535
C162	C	-0.387977	0.153259	0.293278
C163	C	-0.361372	0.150036	0.316669
C164	C	-0.433902	0.153576	0.316195
C165	C	-0.387982	0.153270	0.224638
C166	C	-0.361384	0.150059	0.174638
C167	C	-0.433907	0.153586	0.247659
C168	C	-0.456599	0.153258	0.293277
C169	C	-0.503365	0.150035	0.316666
C170	C	-0.365390	0.153587	0.247660
C171	C	-0.541147	0.147430	0.335562
C172	C	-0.339878	0.147432	0.335565
C173	C	-0.339894	0.147463	0.134243
C174	C	-0.588546	0.144163	0.359268
C175	C	-0.312913	0.144165	0.359273
C176	C	-0.312935	0.144208	0.083566
C177	C	0.533962	-0.500327	-0.438490
C178	C	0.556552	-0.477301	-0.461404
C179	C	0.465336	-0.431691	-0.369847
C180	C	0.488030	-0.408769	-0.392865
C181	C	0.533958	-0.431682	-0.438483
C182	C	0.488034	-0.477309	-0.392872
C183	C	0.588298	-0.665858	-0.480419
C184	C	0.613412	-0.712734	-0.502027
C185	C	0.660370	-0.736245	-0.547233
C186	C	0.687609	-0.787073	-0.570661
C187	C	0.682211	-0.712876	-0.570830
C188	C	0.657092	-0.666002	-0.549224
C189	C	0.610134	-0.642493	-0.504016
C190	C	0.657534	-0.389751	-0.549653
C191	C	0.682796	-0.368142	-0.571405
C192	C	0.661112	-0.322938	-0.547949
C193	C	0.688502	-0.299507	-0.571527
C194	C	0.614158	-0.299341	-0.502738
C195	C	0.588891	-0.320946	-0.480989
C196	C	0.610587	-0.366156	-0.504452
C197	C	0.312274	-0.389793	-0.204326
C198	C	0.268926	-0.368195	-0.157448
C199	C	0.247178	-0.322989	-0.133930
C200	C	0.200179	-0.299569	-0.083102
C201	C	0.268782	-0.299385	-0.157288
C202	C	0.312130	-0.320986	-0.204163
C203	C	0.333870	-0.366190	-0.227680
C204	C	0.582904	-0.591667	-0.480590
C205	C	0.561197	-0.551153	-0.461917
C206	C	0.418337	-0.408273	-0.319021
C207	C	0.380873	-0.389606	-0.278508
C208	C	0.561353	-0.408255	-0.462065
C209	C	0.583189	-0.389581	-0.480864
O210	O	-0.271267	0.196079	0.389818
O211	O	-0.193655	0.063337	0.334690
O212	O	-0.271264	0.140949	0.334697
O213	O	-0.193658	0.118467	0.389810
O214	O	-0.334279	0.140936	0.397745
O215	O	-0.256670	0.063324	0.397738
O216	O	-0.334282	0.196067	0.452865
Cu217	Cu	-0.301230	0.129694	0.431058
Cu218	Cu	-0.226708	0.129709	0.356497
O219	O	-0.256673	0.118454	0.452858
C220	C	0.006425	0.095680	-0.438452
C221	C	-0.016272	0.095363	-0.461370
C222	C	-0.062191	0.095669	-0.369813
C223	C	-0.084784	0.095352	-0.392834
C224	C	-0.062197	0.095680	-0.438452
C225	C	-0.016266	0.095352	-0.392834
C226	C	0.159478	0.108116	-0.480364
C227	C	0.202826	0.111633	-0.501968
C228	C	0.224567	0.113404	-0.547173
C229	C	0.271562	0.117227	-0.570597
C230	C	0.202961	0.111654	-0.570774
C231	C	0.159621	0.108130	-0.549172
C232	C	0.137880	0.106361	-0.503965
C233	C	-0.116535	0.108125	-0.549635
C234	C	-0.141649	0.111642	-0.571391
C235	C	-0.188604	0.113404	-0.547939
C236	C	-0.215842	0.117224	-0.571521
C237	C	-0.210441	0.111643	-0.502728
C238	C	-0.185323	0.108118	-0.480975
C239	C	-0.138368	0.106362	-0.504434
C240	C	-0.116504	0.108070	-0.204288
C241	C	-0.141615	0.111582	-0.157411
C242	C	-0.188570	0.113342	-0.133896
C243	C	-0.215802	0.117153	-0.083069
C244	C	-0.210414	0.111594	-0.157259
C245	C	-0.185302	0.108084	-0.204134
C246	C	-0.138343	0.106318	-0.227646
C247	C	0.090881	0.102545	-0.480543
C248	C	0.053420	0.099501	-0.461874
C249	C	-0.089418	0.099477	-0.318987
C250	C	-0.111120	0.102512	-0.278474
C251	C	-0.089431	0.099500	-0.462039
C252	C	-0.111138	0.102544	-0.480841
H253	H	-0.530969	-0.371329	0.035006
C254	C	-0.318845	-0.438929	0.023565
C255	C	-0.266953	-0.468991	-0.016916
C256	C	-0.245173	-0.514243	-0.015262
H257	H	-0.317526	-0.439724	0.049815
H258	H	-0.340588	-0.448441	0.025889
H259	H	-0.245215	-0.459482	-0.019234
H260	H	-0.268257	-0.468211	-0.043172
H261	H	-0.266917	-0.523755	-0.012938
H262	H	-0.243858	-0.515033	0.010990
H263	H	-0.209965	-0.534646	-0.042729
C264	C	0.537302	-0.640410	-0.431347
C265	C	0.523542	-0.670901	-0.415314
C266	C	0.476565	-0.647472	-0.370114
H267	H	0.542991	-0.629233	-0.411562
H268	H	0.509074	-0.615012	-0.431350
H269	H	0.551763	-0.696291	-0.415308
H270	H	0.517842	-0.682080	-0.435086
H271	H	0.448337	-0.622074	-0.370117
H272	H	0.482259	-0.636296	-0.350333
H273	H	0.467221	-0.668155	-0.359231
C274	C	-0.266258	-0.738213	0.016366
C275	C	-0.248783	-0.784294	0.012921
C276	C	-0.201837	-0.807743	0.011182
H277	H	-0.239267	-0.737666	-0.009911
H278	H	-0.273262	-0.723411	0.043807
H279	H	-0.241776	-0.799093	-0.014516
H280	H	-0.275759	-0.784855	0.039195
H281	H	-0.208841	-0.792940	0.038622
H282	H	-0.174851	-0.807192	-0.015095
H283	H	-0.189977	-0.839010	0.008849
H284	H	-0.748926	-0.262597	0.016776
H285	H	-0.328434	0.154105	0.229179
C286	C	-0.068751	-0.093194	0.222984
C287	C	-0.105981	-0.053475	0.220709
C288	C	-0.082749	-0.030709	0.198001
H289	H	-0.058385	-0.084464	0.239653
H290	H	-0.038106	-0.113424	0.192446
H291	H	-0.136616	-0.033249	0.251241
H292	H	-0.116351	-0.062191	0.204036
H293	H	-0.052104	-0.050939	0.167464
H294	H	-0.072383	-0.021983	0.214673
H295	H	-0.108004	-0.003760	0.196451
H296	H	0.720442	-0.732021	-0.607636
H297	H	-0.328426	-0.223888	0.229142
C298	C	-0.459237	0.154183	0.366148
C299	C	-0.459460	0.114676	0.368619
C300	C	-0.482802	0.115222	0.414628
H301	H	-0.439167	0.154298	0.376614
H302	H	-0.494998	0.181236	0.385217
H303	H	-0.423706	0.087630	0.349558
H304	H	-0.479533	0.114552	0.358164
H305	H	-0.518563	0.142275	0.433696
H306	H	-0.462730	0.115338	0.425089
H307	H	-0.482961	0.088419	0.416311
H308	H	0.142032	0.106705	-0.568391
C309	C	0.462611	-0.358784	-0.368146
C310	C	0.417446	-0.343554	-0.323185
C311	C	0.394016	-0.297512	-0.300405
H312	H	0.487746	-0.356960	-0.366515
H313	H	0.452209	-0.339705	-0.384820
H314	H	0.427849	-0.362629	-0.306515
H315	H	0.392299	-0.345367	-0.324803
H316	H	0.383614	-0.278432	-0.317079
H317	H	0.419155	-0.295692	-0.298777
H318	H	0.363366	-0.287171	-0.269898
H319	H	0.003073	-0.496120	-0.498899
C320	C	0.605861	-0.502034	-0.511366
C321	C	0.620902	-0.547007	-0.526595
C322	C	0.666332	-0.569808	-0.572610
H323	H	0.597933	-0.485400	-0.530490
H324	H	0.634411	-0.503635	-0.513125
H325	H	0.592359	-0.545404	-0.524840
H326	H	0.628841	-0.563654	-0.507484
H327	H	0.694882	-0.571409	-0.574368
H328	H	0.658399	-0.553171	-0.591729
H329	H	0.676546	-0.600326	-0.582947
C330	C	-0.459198	-0.093151	0.222980
C331	C	-0.459384	-0.053440	0.220711
C332	C	-0.482672	-0.030658	0.198008
H333	H	-0.439109	-0.113361	0.192444
H334	H	-0.494964	-0.084417	0.239662
H335	H	-0.423624	-0.062174	0.204029
H336	H	-0.479476	-0.033219	0.251241
H337	H	-0.518438	-0.021924	0.214690
H338	H	-0.462580	-0.050871	0.167473
H339	H	-0.482806	-0.003709	0.196469
C340	C	-0.459288	-0.093140	0.366132
C341	C	-0.504436	-0.048171	0.381358
C342	C	-0.527830	-0.025376	0.427384
H343	H	-0.469706	-0.109782	0.385243
H344	H	-0.434112	-0.091532	0.367913
H345	H	-0.529607	-0.049780	0.379581
H346	H	-0.494033	-0.031516	0.362260
H347	H	-0.502654	-0.023768	0.429165
H348	H	-0.538245	-0.042022	0.446490
H349	H	-0.558462	0.005140	0.437719
H350	H	-0.199462	-0.099431	0.353648
C351	C	-0.068717	-0.236426	0.223062
C352	C	-0.098434	-0.251666	0.253000
C353	C	-0.075168	-0.297710	0.230390
H354	H	-0.068515	-0.238251	0.196090
H355	H	-0.032977	-0.255499	0.214395
H356	H	-0.134164	-0.232597	0.261660
H357	H	-0.098638	-0.249852	0.279971
H358	H	-0.039428	-0.316784	0.221723
H359	H	-0.074967	-0.299531	0.203420
H360	H	-0.095324	-0.308057	0.250701
C361	C	0.462774	-0.502030	-0.368315
C362	C	0.492496	-0.546991	-0.398259
C363	C	0.469240	-0.569773	-0.375654
H364	H	0.462576	-0.503658	-0.341346
H365	H	0.427033	-0.485358	-0.359645
H366	H	0.528227	-0.563659	-0.406922
H367	H	0.492696	-0.545376	-0.425229
H368	H	0.433500	-0.553101	-0.366984
H369	H	0.469044	-0.571399	-0.348686
H370	H	0.489401	-0.600280	-0.395969
C371	C	-0.754627	-0.393777	0.016418
C372	C	-0.808621	-0.368829	0.054024
C373	C	-0.830326	-0.392368	0.052372
H374	H	-0.751853	-0.396655	-0.011782
H375	H	-0.735502	-0.423789	0.017997
H376	H	-0.827740	-0.338824	0.052442
H377	H	-0.811410	-0.365949	0.082230
H378	H	-0.811201	-0.422381	0.053951
H379	H	-0.827548	-0.395246	0.024170
H380	H	-0.866961	-0.375447	0.077889
C381	C	-0.261374	0.113482	-0.477347
C382	C	-0.252751	0.075889	-0.502405
C383	C	-0.299661	0.077573	-0.479042
H384	H	-0.270827	0.111908	-0.447309
H385	H	-0.289591	0.141699	-0.474547
H386	H	-0.224542	0.047679	-0.505200
H387	H	-0.243305	0.077456	-0.532442
H388	H	-0.327879	0.105791	-0.476242
H389	H	-0.309111	0.076000	-0.449005
H390	H	-0.293818	0.052070	-0.496042
H391	H	0.674876	-0.646978	-0.568440
H392	H	-0.123867	0.113078	-0.608200
C393	C	-0.068672	-0.236408	-0.024611
C394	C	-0.053457	-0.264380	-0.064542
C395	C	-0.030143	-0.310443	-0.065261
H396	H	-0.037991	-0.246888	-0.024776
H397	H	-0.093865	-0.238201	0.002152
H398	H	-0.028266	-0.262589	-0.091298
H399	H	-0.084128	-0.253914	-0.064386
H400	H	-0.055337	-0.312236	-0.038498
H401	H	0.000535	-0.320919	-0.065424
H402	H	-0.019822	-0.329427	-0.092351
H403	H	0.675201	-0.426561	-0.568760
H404	H	0.251343	-0.387419	-0.138431
H405	H	0.251073	-0.262575	-0.138136
H406	H	-0.452905	0.154112	0.229176
C407	C	-0.068567	-0.093303	-0.024565
C408	C	-0.015890	-0.117996	-0.064481
C409	C	0.007547	-0.095393	-0.065150
H410	H	-0.088605	-0.062772	-0.024717
H411	H	-0.068356	-0.091759	0.002209
H412	H	-0.016105	-0.119534	-0.091248
H413	H	0.004161	-0.148526	-0.064337
H414	H	0.007759	-0.093849	-0.038376
H415	H	-0.012494	-0.064862	-0.065301
H416	H	0.043293	-0.112145	-0.092230
C417	C	0.335825	-0.438884	-0.229770
C418	C	0.307643	-0.454939	-0.199278
C419	C	0.329331	-0.500162	-0.222701
H420	H	0.333011	-0.438929	-0.255175
H421	H	0.372472	-0.458630	-0.240930
H422	H	0.271006	-0.435199	-0.188125
H423	H	0.310455	-0.454907	-0.173873
H424	H	0.365977	-0.519908	-0.233861
H425	H	0.326515	-0.500202	-0.248105
H426	H	0.310216	-0.511063	-0.202015
C427	C	0.589810	-0.738181	-0.476435
C428	C	0.627279	-0.775591	-0.472279
C429	C	0.605559	-0.799047	-0.448710
H430	H	0.558259	-0.717525	-0.446401
H431	H	0.581218	-0.749381	-0.493308
H432	H	0.635864	-0.764391	-0.455405
H433	H	0.658832	-0.796257	-0.502305
H434	H	0.596967	-0.810246	-0.465583
H435	H	0.574008	-0.778387	-0.418677
H436	H	0.630980	-0.824434	-0.445890
H437	H	0.721026	-0.387358	-0.608215
C438	C	-0.211805	-0.093130	-0.024499
C439	C	-0.226840	-0.048158	-0.024686
C440	C	-0.272252	-0.025360	-0.025286
H441	H	-0.203858	-0.109768	-0.051562
H442	H	-0.240365	-0.091528	0.002291
H443	H	-0.198287	-0.049763	-0.051474
H444	H	-0.234798	-0.031509	0.002374
H445	H	-0.300811	-0.023758	0.001504
H446	H	-0.264300	-0.042001	-0.052349
H447	H	-0.282461	0.005157	-0.025409
H448	H	0.142386	-0.647324	-0.444201
C449	C	0.590706	-0.250272	-0.477337
C450	C	0.622886	-0.236403	-0.506053
C451	C	0.601305	-0.191207	-0.482666
H452	H	0.555493	-0.229757	-0.469533
H453	H	0.589461	-0.249540	-0.449798
H454	H	0.624126	-0.237132	-0.533584
H455	H	0.658100	-0.256906	-0.513858
H456	H	0.600060	-0.190474	-0.455127
H457	H	0.566092	-0.170696	-0.474864
H458	H	0.623139	-0.181792	-0.502145
C459	C	-0.462064	-0.295471	0.023615
C460	C	-0.479542	-0.324071	0.027064
C461	C	-0.526484	-0.300563	0.028798
H462	H	-0.489056	-0.267924	0.049888
H463	H	-0.455056	-0.287677	-0.003829
H464	H	-0.486553	-0.331858	0.054505
H465	H	-0.452565	-0.351617	0.000793
H466	H	-0.519476	-0.292769	0.001355
H467	H	-0.553471	-0.273017	0.055072
H468	H	-0.538346	-0.319966	0.031134
C469	C	-0.537229	-0.502072	0.035185
C470	C	-0.507503	-0.547039	0.035389
C471	C	-0.530745	-0.569826	0.036020
H472	H	-0.572968	-0.485422	0.062252
H473	H	-0.537412	-0.503685	0.008400
H474	H	-0.507327	-0.545424	0.062172
H475	H	-0.471766	-0.563701	0.008325
H476	H	-0.530927	-0.571438	0.009235
H477	H	-0.566482	-0.553172	0.063087
H478	H	-0.510576	-0.600339	0.036154
H479	H	0.550661	-0.301730	-0.444180
H480	H	-0.324821	-0.646755	0.023202
H481	H	-0.124402	-0.386846	-0.138146
C482	C	0.335489	-0.295273	-0.229449
C483	C	0.307157	-0.251057	-0.198825
C484	C	0.328656	-0.227354	-0.222103
H485	H	0.372126	-0.312083	-0.240619
H486	H	0.332645	-0.292370	-0.254842
H487	H	0.310007	-0.253961	-0.173441
H488	H	0.270521	-0.234234	-0.187654
H489	H	0.325812	-0.224451	-0.247495
H490	H	0.365293	-0.244168	-0.233272
H491	H	0.309433	-0.197349	-0.201330
H492	H	-0.078569	-0.426312	-0.223190
C493	C	0.226187	0.113556	-0.476258
C494	C	0.197861	0.111266	-0.432042
C495	C	0.219360	0.113043	-0.408342
H496	H	0.262826	0.088082	-0.493071
H497	H	0.223337	0.141796	-0.473356
H498	H	0.200716	0.083029	-0.434946
H499	H	0.161223	0.136737	-0.415217
H500	H	0.216510	0.141283	-0.405440
H501	H	0.255998	0.087568	-0.425158
H502	H	0.200141	0.111493	-0.378337
H503	H	-0.121738	0.094833	-0.374350
C504	C	0.009086	0.094743	-0.511327
C505	C	0.054224	0.094570	-0.526549
C506	C	0.077580	0.094022	-0.572558
H507	H	0.019509	0.067694	-0.530461
H508	H	-0.016112	0.121547	-0.513075
H509	H	0.079418	0.067769	-0.524805
H510	H	0.043815	0.121617	-0.507428
H511	H	0.052382	0.120826	-0.574306
H512	H	0.088000	0.066972	-0.591688
H513	H	0.108205	0.093909	-0.582891
H514	H	0.002707	0.094870	-0.374340
H515	H	-0.123834	0.113018	-0.138389
C516	C	-0.664479	-0.295316	0.023609
C517	C	-0.692786	-0.251108	0.021296
C518	C	-0.671241	-0.227431	0.023011
H519	H	-0.667300	-0.292393	0.051829
H520	H	-0.627839	-0.312164	-0.001887
H521	H	-0.729417	-0.234263	0.046790
H522	H	-0.689968	-0.254016	-0.006922
H523	H	-0.634600	-0.244280	-0.002485
H524	H	-0.674062	-0.224512	0.051231
H525	H	-0.690441	-0.197436	0.021437
H526	H	-0.078269	0.106635	-0.223429
C527	C	0.135881	0.106113	-0.431314
C528	C	0.140098	0.064476	-0.431466
C529	C	0.118357	0.062618	-0.386290
H530	H	0.154927	0.107629	-0.420308
H531	H	0.099220	0.131579	-0.411572
H532	H	0.176752	0.039017	-0.451201
H533	H	0.121050	0.062950	-0.442464
H534	H	0.081696	0.088084	-0.366548
H535	H	0.137406	0.064136	-0.375287
H536	H	0.121211	0.034370	-0.386386
H537	H	0.220667	0.113094	-0.607580
H538	H	-0.078302	0.106692	-0.568739
H539	H	-0.406508	-0.495833	0.035015
H540	H	-0.203104	0.106681	-0.444166
H541	H	-0.278976	-0.387428	0.016796
C542	C	-0.409309	-0.738540	0.016307
C543	C	-0.377130	-0.784594	0.012842
C544	C	-0.398711	-0.808207	0.011047
H545	H	-0.444523	-0.723830	0.043726
H546	H	-0.410552	-0.738032	-0.009987
H547	H	-0.375893	-0.785099	0.039134
H548	H	-0.341915	-0.799317	-0.014576
H549	H	-0.399954	-0.807699	-0.015247
H550	H	-0.433925	-0.793493	0.038467
H551	H	-0.376878	-0.839458	0.008692
H552	H	-0.248917	-0.262271	-0.138434
H553	H	-0.449352	-0.647029	0.023192
C554	C	-0.209058	-0.295295	-0.229776
C555	C	-0.255586	-0.251051	-0.199284
C556	C	-0.277371	-0.227511	-0.222710
H557	H	-0.183700	-0.292434	-0.255176
H558	H	-0.217642	-0.312199	-0.240944
H559	H	-0.247000	-0.234151	-0.188122
H560	H	-0.280955	-0.253898	-0.173883
H561	H	-0.285955	-0.244415	-0.233878
H562	H	-0.252009	-0.224654	-0.248109
H563	H	-0.308944	-0.197491	-0.202023
H564	H	-0.670034	-0.426625	0.023186
C565	C	-0.261609	-0.249965	-0.476384
C566	C	-0.251114	-0.219984	-0.464931
C567	C	-0.298009	-0.174738	-0.441307
H568	H	-0.273584	-0.240307	-0.495689
H569	H	-0.288562	-0.249266	-0.448816
H570	H	-0.224170	-0.220681	-0.492495
H571	H	-0.239146	-0.229627	-0.445620
H572	H	-0.324962	-0.174039	-0.413739
H573	H	-0.309981	-0.165084	-0.460615
H574	H	-0.290896	-0.154391	-0.433529
C575	C	-0.209088	0.106171	-0.229422
C576	C	-0.255576	0.108454	-0.198801
C577	C	-0.277500	0.106691	-0.222080
H578	H	-0.217751	0.131653	-0.240588
H579	H	-0.183761	0.077938	-0.254817
H580	H	-0.280897	0.136684	-0.173415
H581	H	-0.246927	0.082974	-0.187633
H582	H	-0.252174	0.078458	-0.247475
H583	H	-0.286161	0.132173	-0.233246
H584	H	-0.309042	0.108235	-0.201309
C585	C	-0.409318	-0.250312	0.016313
C586	C	-0.377156	-0.236434	0.012871
C587	C	-0.398776	-0.191213	0.011134
H588	H	-0.410585	-0.249527	-0.009964
H589	H	-0.444533	-0.229833	0.043753
H590	H	-0.341950	-0.256908	-0.014566
H591	H	-0.375886	-0.237208	0.039146
H592	H	-0.433991	-0.170734	0.038575
H593	H	-0.400042	-0.190433	-0.015143
H594	H	-0.376960	-0.181790	0.008804
H595	H	0.003067	-0.496124	-0.374389
C596	C	-0.261330	0.113403	-0.131739
C597	C	-0.252691	0.075786	-0.115340
C598	C	-0.299577	0.077431	-0.091837
H599	H	-0.289581	0.141597	-0.106302
H600	H	-0.270739	0.111832	-0.152362
H601	H	-0.243289	0.077361	-0.094717
H602	H	-0.224449	0.047586	-0.140767
H603	H	-0.308986	0.075860	-0.112461
H604	H	-0.327824	0.105627	-0.066403
H605	H	-0.293720	0.051907	-0.080712
C606	C	-0.133698	-0.359118	-0.368321
C607	C	-0.148713	-0.343883	-0.398264
C608	C	-0.194081	-0.297838	-0.375660
H609	H	-0.162287	-0.357291	-0.341351
H610	H	-0.125694	-0.340043	-0.359652
H611	H	-0.156720	-0.362952	-0.406926
H612	H	-0.120137	-0.345698	-0.425235
H613	H	-0.186076	-0.278763	-0.366991
H614	H	-0.222666	-0.296015	-0.348690
H615	H	-0.204271	-0.287493	-0.395974
H616	H	-0.203088	-0.301731	-0.443610
H617	H	-0.124400	-0.386837	-0.607639
C618	C	-0.065835	-0.438589	-0.574916
C619	C	-0.052256	-0.454479	-0.619125
C620	C	-0.005323	-0.499703	-0.642802
H621	H	-0.037525	-0.438685	-0.577837
H622	H	-0.071523	-0.458394	-0.558069
H623	H	-0.046564	-0.434679	-0.635969
H624	H	-0.080553	-0.454393	-0.616218
H625	H	-0.011012	-0.519508	-0.625954
H626	H	0.022983	-0.499795	-0.645720
H627	H	0.003893	-0.510491	-0.672799
C628	C	0.136311	-0.640738	-0.575231
C629	C	0.164517	-0.671226	-0.619483
C630	C	0.142876	-0.647792	-0.643039
H631	H	0.099667	-0.629560	-0.558358
H632	H	0.139152	-0.615341	-0.578072
H633	H	0.161670	-0.696615	-0.616640
H634	H	0.201160	-0.682406	-0.636368
H635	H	0.145717	-0.622395	-0.645880
H636	H	0.106233	-0.636615	-0.626163
H637	H	0.162013	-0.668473	-0.673068
C638	C	0.226620	-0.738512	-0.620481
C639	C	0.222391	-0.775920	-0.620404
C640	C	0.243992	-0.799374	-0.665583
H641	H	0.207492	-0.717854	-0.631383
H642	H	0.263276	-0.749712	-0.640278
H643	H	0.185741	-0.764719	-0.600614
H644	H	0.241520	-0.796588	-0.609510
H645	H	0.280648	-0.810574	-0.685380
H646	H	0.224862	-0.778713	-0.676482
H647	H	0.241130	-0.824760	-0.665538
H648	H	0.221021	-0.732367	-0.483667
