data_functionalizedCrystal
_audit_creation_method	'MofGen! by Chris Wilmer'
_symmetry_space_group_name_H-M	'P1'
_symmetry_Int_Tables_number	1
_symmetry_cell_setting	triclinic
loop_
_symmetry_equiv_pos_as_xyz
  x,y,z
_cell_length_a	15.538191
_cell_length_b	17.038272
_cell_length_c	14.185569
_cell_angle_alpha	75.875097
_cell_angle_beta	97.875798
_cell_angle_gamma	69.191825
loop_
_atom_site_label
_atom_site_type_symbol
_atom_site_fract_x
_atom_site_fract_y
_atom_site_fract_z
O1	O	1.210508	-0.225025	-0.083426
O2	O	0.943323	-0.136755	-0.083427
O3	O	1.075329	-0.294257	-0.083419
O4	O	1.078502	-0.067523	-0.083435
O5	O	1.114326	-0.340781	0.083418
O6	O	0.982319	-0.183279	0.083410
O7	O	1.249504	-0.271549	0.083411
Cu8	Cu	1.119472	-0.231662	0.098644
Cu9	Cu	1.073355	-0.176642	-0.098660
O10	O	1.117498	-0.114046	0.083402
C11	C	0.928466	-0.150781	-0.000008
C12	C	0.826096	-0.123272	-0.000009
C13	C	1.091939	-0.345828	-0.000000
C14	C	1.083321	-0.430177	-0.000001
C15	C	0.516405	-0.396569	-0.000005
C16	C	0.420212	-0.370700	-0.000008
C17	C	0.409427	-0.225194	-0.000017
C18	C	0.505622	-0.251052	-0.000010
C19	C	0.559104	-0.336740	-0.000005
C20	C	0.548321	-0.191224	-0.000010
C21	C	0.644507	-0.217079	-0.000008
C22	C	0.697994	-0.302762	-0.000006
C23	C	0.655290	-0.362595	-0.000003
C24	C	0.494836	-0.105534	-0.000022
C25	C	0.537535	-0.045706	-0.000022
C26	C	0.633725	-0.071563	-0.000013
C27	C	0.687212	-0.157246	-0.000011
C28	C	0.676429	-0.011729	-0.000016
C29	C	0.772615	-0.037584	-0.000014
C30	C	0.783398	-0.183101	-0.000009
C31	C	1.162445	-0.502729	0.000001
C32	C	1.154339	-0.581979	-0.000009
C33	C	1.067111	-0.588678	-0.000012
C34	C	0.987981	-0.516117	-0.000017
C35	C	0.996085	-0.436867	-0.000014
C36	C	1.038478	-0.826313	-0.000026
C37	C	1.030380	-0.905572	-0.000026
C38	C	1.196740	-0.971428	-0.000020
C39	C	1.204838	-0.892175	-0.000011
C40	C	1.125706	-0.819620	-0.000021
C41	C	1.058825	-0.669684	-0.000019
C42	C	1.133991	-0.738614	-0.000021
C43	C	1.264361	-0.257521	-0.000010
C44	C	1.366729	-0.285029	-0.000016
C45	C	1.100888	-0.062475	-0.000018
C46	C	1.109504	0.021876	-0.000024
N47	N	1.151915	-0.270362	0.237417
N48	N	1.040918	-0.137950	-0.237433
C49	C	0.945597	-0.024281	0.605054
C50	C	0.970180	-0.053593	0.710077
C51	C	1.087100	-0.193030	0.710045
C52	C	1.062524	-0.163731	0.605020
C53	C	0.991773	-0.079356	0.552533
C54	C	1.108700	-0.218806	0.552499
C55	C	1.084130	-0.189508	0.447483
C56	C	1.013383	-0.105135	0.394988
C57	C	0.967203	-0.050058	0.447517
C58	C	1.179455	-0.303179	0.604988
C59	C	1.225631	-0.358254	0.552467
C60	C	1.201056	-0.328958	0.447449
C61	C	1.130310	-0.244585	0.394954
C62	C	1.247237	-0.384035	0.394921
C63	C	1.222666	-0.354737	0.289904
C64	C	1.105740	-0.215287	0.289938
H65	H	0.826947	-0.252878	0.000002
Cl66	Cl	0.938996	-0.735111	-0.000041
H67	H	1.218771	-0.641051	-0.000006
Cl68	Cl	0.818914	-0.335266	-0.000009
H69	H	0.493977	0.024062	-0.000030
Cl70	Cl	1.243645	-0.730188	-0.000022
H71	H	0.909583	0.018645	0.404779
Cl72	Cl	0.878318	-0.524535	-0.000034
H73	H	1.048120	-0.146584	0.247201
H74	H	1.260269	-0.399585	0.247141
Cl75	Cl	0.722534	-0.470323	0.000016
Cl76	Cl	1.314575	-0.464321	0.618458
H77	H	0.807383	0.011131	-0.000004
H78	H	0.559954	-0.466346	0.000005
Cl79	Cl	0.896610	-0.345656	-0.000020
H80	H	1.275868	-0.886730	-0.000008
Cl81	Cl	0.920715	-0.913991	-0.000024
Cl82	Cl	1.336188	-0.490099	0.460915
H83	H	0.932572	-0.008736	0.752835
Cl84	Cl	0.366540	-0.445927	0.000009
H85	H	1.199461	-0.327028	0.690499
H86	H	0.365868	-0.155426	-0.000026
Cl87	Cl	0.949168	-0.678112	-0.000029
Cl88	Cl	0.373915	-0.073031	-0.000025
Cl89	Cl	0.609180	0.095993	-0.000040
H90	H	1.233477	-0.497286	0.000010
Cl91	Cl	1.296212	-1.062641	-0.000011
H92	H	0.993382	-0.081280	0.309477
H93	H	0.887978	0.044422	0.562317
H94	H	1.144709	-0.261728	0.752793
