data_functionalizedCrystal
_audit_creation_method	'MofGen! by Chris Wilmer'
_symmetry_space_group_name_H-M	'P1'
_symmetry_Int_Tables_number	1
_symmetry_cell_setting	triclinic
loop_
_symmetry_equiv_pos_as_xyz
  x,y,z
_cell_length_a	12.759401
_cell_length_b	16.120484
_cell_length_c	12.759393
_cell_angle_alpha	92.862621
_cell_angle_beta	89.982620
_cell_angle_gamma	92.925560
loop_
_atom_site_label
_atom_site_type_symbol
_atom_site_fract_x
_atom_site_fract_y
_atom_site_fract_z
Zn1	Zn	1.584960	-0.331851	-0.615146
Zn2	Zn	1.575915	-0.471289	-0.448359
Zn3	Zn	1.409262	-0.331895	-0.439488
Zn4	Zn	1.400312	-0.471225	-0.623996
O5	O	1.492612	-0.401565	-0.531747
O6	O	1.730780	-0.350357	-0.593029
O7	O	1.553768	-0.452844	-0.300164
O8	O	1.440101	-0.215224	-0.455373
O9	O	1.724135	-0.452801	-0.470492
O10	O	1.569185	-0.215192	-0.584428
O11	O	1.431330	-0.350432	-0.293646
O12	O	1.261055	-0.350369	-0.463955
O13	O	1.424845	-0.452691	-0.769840
O14	O	1.254478	-0.452734	-0.599512
O15	O	1.560505	-0.350294	-0.763338
O16	O	1.545089	-0.587946	-0.479074
O17	O	1.416074	-0.587899	-0.608114
C18	C	1.219646	-0.401550	-0.531732
C19	C	1.102868	-0.401563	-0.531751
C20	C	1.044604	-0.454950	-0.602230
C21	C	0.934879	-0.454961	-0.602242
C22	C	0.941693	-0.348196	-0.461287
C23	C	1.051416	-0.348181	-0.461281
C24	C	1.040669	-0.516593	-0.683607
C25	C	0.930944	-0.516603	-0.683619
C26	C	1.478657	-0.618172	-0.545539
C27	C	1.472783	-0.710838	-0.551475
C28	C	1.462065	-0.880498	-0.562333
C29	C	1.523347	-0.921791	-0.501178
C30	C	1.517384	-1.016197	-0.507219
C31	C	1.468028	-0.786085	-0.556293
C32	C	1.766644	-0.401581	-0.531763
C33	C	1.883421	-0.401588	-0.531770
C34	C	1.492686	-0.401480	-0.805775
C35	C	1.492717	-0.401444	-0.922549
C36	C	1.506650	-0.184112	-0.517924
C37	C	1.512632	-0.091447	-0.512033
C38	C	1.428993	-0.348108	-0.974023
C39	C	1.429026	-0.348083	-1.083746
C40	C	1.556517	-0.454733	-1.090511
C41	C	1.556478	-0.454761	-0.980791
C42	C	1.355390	-0.286533	-0.970118
C43	C	1.355423	-0.286508	-1.079841
C44	C	1.492603	-0.401590	-0.258781
C45	C	1.492790	-0.401391	-0.141992
H46	H	1.071580	-0.499373	-0.763915
C47	C	1.390525	-0.199274	-1.114537
N48	N	1.416968	-0.133573	-1.140670
H49	H	1.388487	-0.225210	-0.932191
H50	H	1.405125	-0.916045	-0.619223
C51	C	0.887005	-0.485456	-0.786124
N52	N	0.853909	-0.461991	-0.863325
C53	C	1.626503	-0.513489	-1.154594
N54	N	1.679164	-0.557786	-1.202862
H55	H	1.272891	-0.303823	-0.941443
C56	C	1.600268	-0.873769	-0.424307
N57	N	1.658199	-0.837595	-0.366406
H58	H	1.608352	-0.498204	-0.938886
H59	H	1.070752	-0.577894	-0.658232
H60	H	0.897009	-0.581156	-0.665804
C61	C	1.115503	-0.289445	-0.383758
N62	N	1.163774	-0.245202	-0.325364
H63	H	0.899787	-0.304733	-0.403914
H64	H	1.276643	-0.309620	-1.115341
