data_functionalizedCrystal
_audit_creation_method	'MofGen! by Chris Wilmer'
_symmetry_space_group_name_H-M	'P1'
_symmetry_Int_Tables_number	1
_symmetry_cell_setting	triclinic
loop_
_symmetry_equiv_pos_as_xyz
  x,y,z
_cell_length_a	17.699083
_cell_length_b	11.792241
_cell_length_c	16.776229
_cell_angle_alpha	90.006781
_cell_angle_beta	90.001114
_cell_angle_gamma	83.738215
loop_
_atom_site_label
_atom_site_type_symbol
_atom_site_fract_x
_atom_site_fract_y
_atom_site_fract_z
O1	O	1.004843	0.143527	0.066177
O2	O	0.784565	0.162200	0.066203
O3	O	0.900050	-0.012371	0.066184
O4	O	0.889358	0.318098	0.066196
O5	O	0.900034	-0.012382	-0.066393
O6	O	0.784549	0.162189	-0.066374
O7	O	1.004828	0.143516	-0.066400
Zn8	Zn	0.894686	0.152851	-0.087436
Zn9	Zn	0.894706	0.152865	0.087239
O10	O	0.889343	0.318087	-0.066381
C11	C	0.756356	0.161525	-0.000082
C12	C	0.672328	0.159518	-0.000072
C13	C	0.899370	-0.054660	-0.000104
C14	C	0.897360	-0.180649	-0.000103
C15	C	0.624253	0.261988	-0.000069
C16	C	0.545299	0.260095	-0.000079
C17	C	0.514422	0.155731	-0.000087
C18	C	0.562503	0.053254	-0.000093
C19	C	0.641455	0.055148	-0.000089
C20	C	0.244099	0.045613	-0.000113
C21	C	0.165141	0.043727	-0.000116
C22	C	0.147944	0.250560	-0.000104
C23	C	0.226896	0.252454	-0.000099
C24	C	0.274970	0.149977	-0.000109
C25	C	0.360580	0.152031	-0.000099
C26	C	0.428814	0.153676	-0.000091
C27	C	0.893664	-0.411317	-0.000090
C28	C	0.895718	-0.282956	-0.000097
C29	C	1.033036	0.144190	-0.000113
C30	C	1.117065	0.146198	-0.000118
C31	C	0.890022	0.360375	-0.000091
C32	C	0.892032	0.486365	-0.000087
N33	N	0.894678	0.152841	-0.206647
C34	C	0.945830	0.075572	-0.248373
C35	C	0.945834	0.075571	-0.331825
C36	C	0.894689	0.152845	-0.373550
C37	C	0.843531	0.230117	-0.331819
C38	C	0.843524	0.230112	-0.248368
C39	C	0.843559	0.230139	-0.668366
C40	C	0.843571	0.230141	-0.751822
C41	C	0.945869	0.075599	-0.751823
C42	C	0.945862	0.075593	-0.668372
C43	C	0.894702	0.152861	-0.626648
C44	C	0.894697	0.152860	-0.536160
C45	C	0.894697	0.152853	-0.464037
N46	N	0.894721	0.152866	0.206450
H47	H	0.649386	0.346973	-0.000061
H48	H	0.537357	-0.031721	-0.000112
H49	H	0.801869	0.293030	-0.214396
C50	C	0.787877	0.313881	-0.377078
C51	C	0.713431	0.295586	-0.356808
C52	C	0.662142	0.372719	-0.398492
H53	H	0.796296	0.389665	-0.363427
H54	H	0.795158	0.302812	-0.432762
H55	H	0.706153	0.306664	-0.301136
H56	H	0.704987	0.219818	-0.370461
H57	H	0.669423	0.361651	-0.454175
H58	H	0.670569	0.448498	-0.384837
H59	H	0.611625	0.360310	-0.384750
H60	H	0.506159	0.343536	-0.000075
C61	C	1.001467	-0.008357	-0.376983
C62	C	1.046277	-0.076000	-0.322581
C63	C	1.097545	-0.153316	-0.364151
H64	H	0.974152	-0.055670	-0.409552
H65	H	1.033176	0.032400	-0.409508
H66	H	1.014572	-0.116755	-0.290070
H67	H	1.073608	-0.028719	-0.290010
H68	H	1.129254	-0.112559	-0.396676
H69	H	1.070224	-0.200620	-0.396718
H70	H	1.127959	-0.199214	-0.327245
C71	C	0.260272	0.365880	-0.000132
C72	C	0.201270	0.455217	-0.000153
C73	C	0.231986	0.559722	-0.000198
H74	H	0.290702	0.371086	0.046089
H75	H	0.290693	0.370972	-0.046382
H76	H	0.170862	0.450127	0.046092
H77	H	0.170835	0.450049	-0.046371
H78	H	0.262408	0.564814	-0.046448
H79	H	0.262416	0.564916	0.046024
H80	H	0.191959	0.620349	-0.000220
H81	H	0.680598	-0.028294	-0.000091
H82	H	0.987482	0.012652	-0.214406
H83	H	0.801903	0.293055	-0.634401
C84	C	0.131720	-0.069672	-0.000006
C85	C	0.156128	-0.131624	0.068184
C86	C	0.125364	-0.236091	0.068307
H87	H	0.077816	-0.056281	0.000036
H88	H	0.148213	-0.111914	-0.046220
H89	H	0.139632	-0.089391	0.114385
H90	H	0.210028	-0.145045	0.068156
H91	H	0.141856	-0.278333	0.022094
H92	H	0.071461	-0.222689	0.068348
H93	H	0.141926	-0.278143	0.114569
H94	H	0.987512	0.012674	-0.634402
C95	C	1.001287	-0.008435	-0.797170
C96	C	0.960694	-0.077859	-0.845073
C97	C	1.011718	-0.155288	-0.886848
H98	H	1.032978	0.032201	-0.829783
H99	H	1.031737	-0.054520	-0.760394
H100	H	0.930257	-0.031779	-0.881845
H101	H	0.929006	-0.118520	-0.812480
H102	H	1.042168	-0.201374	-0.850072
H103	H	1.043406	-0.114642	-0.919456
H104	H	0.984183	-0.202408	-0.919349
H105	H	0.108792	0.334002	-0.000100
C106	C	0.787948	0.314086	-0.796982
C107	C	0.743127	0.381731	-0.742582
C108	C	0.691875	0.459057	-0.784153
H109	H	0.815277	0.361396	-0.829530
H110	H	0.756246	0.273337	-0.829529
H111	H	0.774825	0.422477	-0.710049
H112	H	0.715782	0.334452	-0.710032
H113	H	0.660173	0.418308	-0.816700
H114	H	0.719210	0.506359	-0.816700
H115	H	0.661453	0.504957	-0.747249
H116	H	0.283232	-0.037830	-0.000122
