data_functionalizedCrystal
_audit_creation_method	'MofGen! by Chris Wilmer'
_symmetry_space_group_name_H-M	'P1'
_symmetry_Int_Tables_number	1
_symmetry_cell_setting	triclinic
loop_
_symmetry_equiv_pos_as_xyz
  x,y,z
_cell_length_a	16.109318
_cell_length_b	9.065218
_cell_length_c	8.140239
_cell_angle_alpha	90.001305
_cell_angle_beta	90.000068
_cell_angle_gamma	95.757776
loop_
_atom_site_label
_atom_site_type_symbol
_atom_site_fract_x
_atom_site_fract_y
_atom_site_fract_z
O1	O	1.104580	-0.189749	-0.136470
O2	O	0.862701	-0.213321	-0.136502
O3	O	0.988640	0.013228	-0.136482
O4	O	0.978641	-0.416298	-0.136490
O5	O	0.988631	0.013228	0.136745
O6	O	0.862692	-0.213321	0.136725
O7	O	1.104571	-0.189748	0.136757
Zn8	Zn	0.983630	-0.201535	0.180122
Zn9	Zn	0.983642	-0.201535	-0.179867
O10	O	0.978632	-0.416297	0.136737
C11	C	0.831714	-0.212362	0.000107
C12	C	0.739398	-0.209486	0.000094
C13	C	0.440258	-0.200197	-0.148813
C14	C	0.526999	-0.202889	-0.148823
C15	C	0.527008	-0.202868	0.149064
C16	C	0.440269	-0.200165	0.149073
C17	C	0.396895	-0.198837	0.000129
C18	C	0.570377	-0.204233	0.000111
C19	C	0.664426	-0.207152	0.000101
C20	C	0.302840	-0.195915	0.000139
C21	C	0.987674	0.068191	0.000129
C22	C	0.984801	0.231965	0.000120
C23	C	1.135557	-0.190708	0.000144
C24	C	1.227874	-0.193584	0.000146
C25	C	0.979597	-0.471261	0.000123
C26	C	0.982471	-0.635035	0.000120
N27	N	0.983628	-0.201533	0.425804
N28	N	0.983643	-0.201532	0.574451
H29	H	0.404962	-0.199057	0.270367
H30	H	0.562302	-0.203994	-0.270106
C31	C	0.392549	-0.198731	-0.312642
H32	H	0.430802	-0.199917	-0.401347
H33	H	0.353021	-0.283659	-0.318825
H34	H	0.364404	-0.111690	-0.318839
C35	C	0.574720	-0.204350	0.312888
H36	H	0.632589	-0.206171	0.291554
H37	H	0.566202	-0.117927	0.374090
H38	H	0.554811	-0.289896	0.374082
