data_functionalizedCrystal
_audit_creation_method	'MofGen! by Chris Wilmer'
_symmetry_space_group_name_H-M	'P1'
_symmetry_Int_Tables_number	1
_symmetry_cell_setting	triclinic
loop_
_symmetry_equiv_pos_as_xyz
  x,y,z
_cell_length_a	10.654541
_cell_length_b	10.654545
_cell_length_c	15.186229
_cell_angle_alpha	89.998599
_cell_angle_beta	89.997986
_cell_angle_gamma	84.484678
loop_
_atom_site_label
_atom_site_type_symbol
_atom_site_fract_x
_atom_site_fract_y
_atom_site_fract_z
O1	O	1.667843	0.176383	-0.073197
O2	O	1.302364	0.193192	-0.073204
O3	O	1.493506	0.002048	-0.073199
O4	O	1.476701	0.367527	-0.073201
O5	O	1.493493	0.002045	0.073258
O6	O	1.302351	0.193189	0.073253
O7	O	1.667830	0.176380	0.073261
Zn8	Zn	1.485088	0.184784	0.096510
Zn9	Zn	1.485105	0.184788	-0.096453
O10	O	1.476688	0.367524	0.073256
C11	C	1.255559	0.191957	0.000024
C12	C	1.116116	0.188266	0.000021
C13	C	1.088146	0.416831	0.000009
C14	C	1.008652	0.529374	-0.000001
C15	C	0.877634	0.525898	-0.000001
C16	C	0.826108	0.409867	0.000010
C17	C	0.905602	0.297324	0.000019
C18	C	1.036622	0.300812	0.000018
C19	C	0.933572	0.068763	0.000038
C20	C	1.064590	0.072235	0.000032
C21	C	0.882046	-0.047269	0.000049
C22	C	0.961540	-0.159814	0.000052
C23	C	1.092565	-0.156334	0.000052
C24	C	1.144084	-0.040308	0.000042
C25	C	1.492265	-0.044751	0.000027
C26	C	1.488572	-0.184195	0.000022
C27	C	1.488601	-0.184200	-0.159650
C28	C	1.486886	-0.249713	-0.239486
C29	C	1.483417	-0.380731	-0.239487
C30	C	1.481659	-0.446240	-0.159644
C31	C	1.483375	-0.380727	-0.079808
C32	C	1.486848	-0.249706	-0.079815
C33	C	1.483337	-0.380721	0.079863
C34	C	1.486815	-0.249703	0.079866
C35	C	1.481579	-0.446230	0.159706
C36	C	1.483304	-0.380718	0.239543
C37	C	1.486775	-0.249692	0.239541
C38	C	1.488530	-0.184191	0.159701
C39	C	1.714634	0.177615	0.000031
C40	C	1.854078	0.181306	0.000028
C41	C	1.477929	0.414323	0.000027
C42	C	1.481621	0.553766	0.000027
N43	N	1.485086	0.184781	0.228203
N44	N	1.485118	0.184781	-0.228146
C45	C	1.569753	0.100171	0.453928
C46	C	1.569757	0.100168	0.546117
C47	C	1.400442	0.269395	0.546123
C48	C	1.400433	0.269391	0.453935
C49	C	1.485095	0.184780	0.407840
C50	C	1.485108	0.184782	0.592217
C51	C	1.485112	0.184779	0.692173
C52	C	1.485090	0.184781	0.307877
H53	H	0.775363	-0.050090	0.000053
H54	H	1.491441	-0.077519	-0.159657
N55	N	1.229455	0.420593	0.000006
H56	H	1.266506	0.376573	0.054301
H57	H	1.266405	0.376577	-0.054318
N58	N	0.905969	-0.284950	0.000079
H59	H	0.810908	-0.270074	0.000085
H60	H	0.934967	-0.334261	-0.054211
H61	H	1.050619	0.623844	-0.000008
H62	H	1.491362	-0.077509	0.159692
H63	H	1.157283	-0.247981	0.000063
N64	N	1.661079	0.008921	0.595825
H65	H	1.648240	0.021756	0.661220
H66	H	1.645802	-0.080311	0.579713
H67	H	1.488152	-0.196357	0.304554
N68	N	0.684798	0.406114	0.000034
H69	H	0.642258	0.495015	0.000036
H70	H	0.658819	0.360347	-0.054252
H71	H	1.478819	-0.552921	-0.159652
H72	H	1.250764	-0.037463	0.000031
H73	H	1.488315	-0.196361	-0.304492
H74	H	1.331488	0.338290	0.416407
N75	N	1.309131	0.360650	0.595839
H76	H	1.321983	0.347817	0.661234
H77	H	1.324410	0.449880	0.579719
N78	N	1.481580	-0.451402	-0.325592
H79	H	1.483224	-0.390029	-0.376172
H80	H	1.557869	-0.515258	-0.329048
N81	N	1.477868	-0.587545	0.159703
H82	H	1.399336	-0.609627	0.128345
H83	H	1.554825	-0.628482	0.128382
H84	H	0.812909	0.617541	-0.000003
H85	H	1.638688	0.031275	0.416399
N86	N	1.481415	-0.451370	0.325652
H87	H	1.478953	-0.544310	0.313536
H88	H	1.559741	-0.437977	0.360513
