data_functionalizedCrystal
_audit_creation_method	'MofGen! by Chris Wilmer'
_symmetry_space_group_name_H-M	'P1'
_symmetry_Int_Tables_number	1
_symmetry_cell_setting	triclinic
loop_
_symmetry_equiv_pos_as_xyz
  x,y,z
_cell_length_a	17.639617
_cell_length_b	17.637651
_cell_length_c	17.639306
_cell_angle_alpha	92.131371
_cell_angle_beta	65.670249
_cell_angle_gamma	109.613464
loop_
_atom_site_label
_atom_site_type_symbol
_atom_site_fract_x
_atom_site_fract_y
_atom_site_fract_z
Zn1	Zn	1.306842	-0.187122	-0.673678
Zn2	Zn	1.806842	0.312878	-0.173678
Zn3	Zn	1.251044	-0.297097	-0.507954
Zn4	Zn	1.751044	0.202903	-0.007954
Zn5	Zn	1.141172	-0.187093	-0.507978
Zn6	Zn	1.641172	0.312907	-0.007978
Zn7	Zn	1.129875	-0.341458	-0.606568
Zn8	Zn	1.629875	0.158542	-0.106568
O9	O	1.207233	-0.253193	-0.574045
O10	O	1.707233	0.246807	-0.074045
O11	O	1.419483	-0.183158	-0.679770
O12	O	1.919483	0.316842	-0.179770
O13	O	1.217846	-0.263927	-0.397341
O14	O	1.717846	0.236073	0.102659
O15	O	1.191228	-0.076469	-0.558055
O16	O	1.691228	0.423531	-0.058055
O17	O	1.378489	-0.263956	-0.558013
O18	O	1.878489	0.236044	-0.058013
O19	O	1.312945	-0.076491	-0.679794
O20	O	1.812945	0.423509	-0.179794
O21	O	1.137124	-0.183107	-0.397359
O22	O	1.637124	0.316893	0.102641
O23	O	1.019630	-0.226122	-0.492981
O24	O	1.519630	0.273878	0.007019
O25	O	1.171973	-0.339563	-0.726086
O26	O	1.671973	0.160437	-0.226086
O27	O	1.011330	-0.339534	-0.565414
O28	O	1.511330	0.160466	-0.065414
O29	O	1.301990	-0.226173	-0.775392
O30	O	1.801990	0.273827	-0.275392
O31	O	1.206892	-0.413609	-0.492939
O32	O	1.706892	0.086391	0.007061
O33	O	1.117869	-0.446201	-0.565390
O34	O	1.617869	0.053799	-0.065390
C35	C	0.984355	-0.287640	-0.521918
C36	C	1.484355	0.212360	-0.021918
C37	C	0.889004	-0.302398	-0.499632
C38	C	1.389004	0.197602	0.000368
C39	C	0.682050	-0.141088	-0.743549
C40	C	1.182050	0.358912	-0.243549
C41	C	0.592446	-0.154973	-0.722586
C42	C	1.092446	0.345027	-0.222586
C43	C	0.549799	-0.238916	-0.595698
C44	C	1.049799	0.261084	-0.095698
C45	C	0.639401	-0.225041	-0.616651
C46	C	1.139401	0.274959	-0.116651
C47	C	0.705520	-0.176125	-0.690577
C48	C	1.205520	0.323875	-0.190577
C49	C	0.662871	-0.260078	-0.563680
C50	C	1.162871	0.239922	-0.063680
C51	C	0.752465	-0.246201	-0.584630
C52	C	1.252465	0.253799	-0.084630
C53	C	0.818589	-0.197286	-0.658551
C54	C	1.318589	0.302714	-0.158551
C55	C	0.795114	-0.162248	-0.711527
C56	C	1.295114	0.337752	-0.211527
C57	C	0.596751	-0.308988	-0.489751
C58	C	1.096751	0.191012	0.010249
C59	C	0.620221	-0.344026	-0.436780
C60	C	1.120221	0.155974	0.063220
C61	C	0.709816	-0.330153	-0.457732
C62	C	1.209816	0.169847	0.042268
C63	C	0.775940	-0.281238	-0.531654
C64	C	1.275940	0.218762	-0.031654
C65	C	0.733291	-0.365191	-0.404756
C66	C	1.233291	0.134809	0.095244
C67	C	0.822885	-0.351314	-0.425706
C68	C	1.322885	0.148686	0.074294
C69	C	0.865534	-0.267361	-0.552604
C70	C	1.365534	0.232639	-0.052604
C71	C	1.155126	-0.458589	-0.521902
C72	C	1.655126	0.041411	-0.021902
C73	C	1.132917	-0.546451	-0.499640
C74	C	1.632917	-0.046451	0.000360
C75	C	1.376551	-0.835258	-0.743545
C76	C	1.876551	-0.335258	-0.243545
C77	C	1.355653	-0.917819	-0.722607
C78	C	1.855653	-0.417819	-0.222607
C79	C	1.228966	-0.917876	-0.595760
C80	C	1.728966	-0.417876	-0.095760
C81	C	1.249856	-0.835312	-0.616685
C82	C	1.749856	-0.335312	-0.116685
C83	C	1.323649	-0.794009	-0.690580
C84	C	1.823649	-0.294009	-0.190580
C85	C	1.196954	-0.794064	-0.563720
C86	C	1.696954	-0.294064	-0.063720
C87	C	1.217840	-0.711508	-0.584647
C88	C	1.717840	-0.211508	-0.084647
C89	C	1.291628	-0.670200	-0.658539
C90	C	1.791628	-0.170200	-0.158539
C91	C	1.344535	-0.711454	-0.711507
C92	C	1.844535	-0.211454	-0.211507
C93	C	1.123158	-0.835369	-0.489829
C94	C	1.623158	-0.335369	0.010171
C95	C	1.070256	-0.794121	-0.436863
C96	C	1.570256	-0.294121	0.063137
C97	C	1.091145	-0.711562	-0.457787
C98	C	1.591145	-0.211562	0.042213
C99	C	1.164933	-0.670254	-0.531679
C100	C	1.664933	-0.170254	-0.031679
C101	C	1.038238	-0.670309	-0.404819
C102	C	1.538238	-0.170309	0.095181
C103	C	1.059124	-0.587753	-0.425746
C104	C	1.559124	-0.087753	0.074254
C105	C	1.185819	-0.587699	-0.552606
C106	C	1.685819	-0.087699	-0.052606
C107	C	1.430982	-0.218612	-0.626375
C108	C	1.930982	0.281388	-0.126375
C109	C	1.526331	-0.203875	-0.648675
C110	C	2.026331	0.296125	-0.148675
C111	C	1.241945	-0.287820	-0.780223
C112	C	1.741945	0.212180	-0.280223
C113	C	1.256738	-0.302576	-0.868084
C114	C	1.756738	0.197424	-0.368084
C115	C	1.259570	-0.046994	-0.626413
C116	C	1.759570	0.453006	-0.126413
C117	C	1.281873	0.040876	-0.648730
C118	C	1.781873	0.540876	-0.148730
C119	C	1.095266	-0.140745	-1.157116
C120	C	1.595266	0.359255	-0.657116
C121	C	1.109181	-0.154625	-1.239675
C122	C	1.609181	0.345375	-0.739675
C123	C	1.193229	-0.238774	-1.239636
C124	C	1.693229	0.261226	-0.739636
C125	C	1.179325	-0.224898	-1.157077
C126	C	1.679325	0.275102	-0.657077
C127	C	1.130342	-0.175884	-1.115823
C128	C	1.630342	0.324116	-0.615823
C129	C	1.214400	-0.260037	-1.115784
C130	C	1.714400	0.239963	-0.615784
C131	C	1.200493	-0.246166	-1.033230
C132	C	1.700493	0.253834	-0.533230
C133	C	1.151511	-0.197156	-0.991969
C134	C	1.651511	0.302844	-0.491969
C135	C	1.116435	-0.162013	-1.033269
C136	C	1.616435	0.337987	-0.533269
C137	C	1.263378	-0.309055	-1.157037
C138	C	1.763378	0.190945	-0.657037
C139	C	1.298453	-0.344194	-1.115744
C140	C	1.798453	0.155806	-0.615744
C141	C	1.284552	-0.330318	-1.033191
C142	C	1.784552	0.169682	-0.533191
C143	C	1.235569	-0.281309	-0.991930
C144	C	1.735569	0.218691	-0.491930
C145	C	1.319628	-0.365461	-0.991891
C146	C	1.819628	0.134539	-0.491891
C147	C	1.305720	-0.351590	-0.909338
C148	C	1.805720	0.148410	-0.409338
C149	C	1.221662	-0.267437	-0.909377
C150	C	1.721662	0.232563	-0.409377
C151	C	1.172720	-0.218635	-0.368694
C152	C	1.672720	0.281365	0.131306
C153	C	1.158150	-0.203631	-0.280929
C154	C	1.658150	0.296369	0.219071
H155	H	0.891542	-0.185984	-0.675605
H156	H	1.391542	0.314016	-0.175605
H157	H	0.841993	-0.379845	-0.382572
H158	H	1.341993	0.120155	0.117428
Br159	Br	0.970104	-0.850183	-0.336587
Br160	Br	1.470104	-0.350183	0.163413
Br161	Br	0.643550	-0.431560	-0.304424
Br162	Br	1.143550	0.068440	0.195576
H163	H	1.436646	-0.801626	-0.803714
H164	H	1.936646	-0.301626	-0.303714
H165	H	1.168882	-0.951516	-0.535596
H166	H	1.668882	-0.451516	-0.035596
H167	H	1.398727	-0.951404	-0.765752
H168	H	1.898727	-0.451404	-0.265752
Br169	Br	0.771791	-0.074712	-0.843885
Br170	Br	1.271791	0.425288	-0.343885
H171	H	0.848953	-0.122419	-0.771727
H172	H	1.348953	0.377581	-0.271727
Br173	Br	0.475157	-0.327814	-0.461313
Br174	Br	0.975157	0.172186	0.038687
Br175	Br	1.386085	-0.431992	-1.047882
Br176	Br	1.886085	0.068008	-0.547882
Br177	Br	1.094931	-0.947366	-0.461331
Br178	Br	1.594931	-0.447366	0.038669
Br179	Br	0.530482	-0.410404	-0.336452
Br180	Br	1.030482	0.089596	0.163548
Br181	Br	0.955275	-0.200985	-0.652940
Br182	Br	1.455275	0.299015	-0.152940
Br183	Br	0.560599	-0.107408	-0.794480
Br184	Br	1.060599	0.392592	-0.294480
Br185	Br	1.028803	-0.074213	-1.101126
Br186	Br	1.528803	0.425787	-0.601126
H187	H	0.495954	-0.278740	-0.535505
H188	H	0.995954	0.221260	-0.035505
H189	H	1.245914	-0.554067	-0.612774
H190	H	1.745914	-0.054067	-0.112774
Br191	Br	1.353315	-0.399286	-0.853288
Br192	Br	1.853315	0.100714	-0.353288
Br193	Br	1.132623	-0.178339	-0.879926
Br194	Br	1.632623	0.321661	-0.379926
Br195	Br	0.987329	-0.531768	-0.353863
Br196	Br	1.487329	-0.031768	0.146137
H197	H	1.308632	-0.602978	-0.675576
H198	H	1.808632	-0.102978	-0.175576
Br199	Br	1.444695	-0.655388	-0.811784
Br200	Br	1.944695	-0.155388	-0.311784
Br201	Br	1.282253	-0.327880	-1.269076
Br202	Br	1.782253	0.172120	-0.769076
H203	H	0.978151	-0.703951	-0.344659
H204	H	1.478151	-0.203951	0.155341
H205	H	1.181786	-0.227516	-0.875790
H206	H	1.681786	0.272484	-0.375790
Br207	Br	1.049972	-0.095480	-0.977279
Br208	Br	1.549972	0.404520	-0.477279
H209	H	1.233107	-0.278684	-1.273235
H210	H	1.733107	0.221316	-0.773235
Br211	Br	1.061606	-0.106901	-1.295727
Br212	Br	1.561606	0.393099	-0.795727
Br213	Br	1.364921	-0.410716	-1.171736
Br214	Br	1.864921	0.089284	-0.671736
