data_functionalizedCrystal
_audit_creation_method	'MofGen! by Chris Wilmer'
_symmetry_space_group_name_H-M	'P1'
_symmetry_Int_Tables_number	1
_symmetry_cell_setting	triclinic
loop_
_symmetry_equiv_pos_as_xyz
  x,y,z
_cell_length_a	17.699077
_cell_length_b	14.519709
_cell_length_c	16.176319
_cell_angle_alpha	89.992256
_cell_angle_beta	89.993140
_cell_angle_gamma	83.480361
loop_
_atom_site_label
_atom_site_type_symbol
_atom_site_fract_x
_atom_site_fract_y
_atom_site_fract_z
O1	O	1.004415	0.116598	-0.068737
O2	O	1.504415	0.616598	0.431263
O3	O	0.784080	0.131777	-0.068742
O4	O	1.284080	0.631777	0.431258
O5	O	0.900090	-0.010076	-0.068732
O6	O	1.400090	0.489924	0.431268
O7	O	0.888406	0.258451	-0.068747
O8	O	1.388406	0.758451	0.431253
O9	O	0.900074	-0.010085	0.068761
O10	O	1.400074	0.489915	0.568761
O11	O	0.784064	0.131768	0.068752
O12	O	1.284064	0.631768	0.568752
O13	O	1.004399	0.116589	0.068756
O14	O	1.504399	0.616589	0.568756
Cu15	Cu	0.894230	0.124178	0.081308
Cu16	Cu	1.394230	0.624178	0.581308
Cu17	Cu	0.894249	0.124188	-0.081294
Cu18	Cu	1.394249	0.624188	0.418706
O19	O	0.888390	0.258442	0.068746
O20	O	1.388390	0.758442	0.568746
C21	C	0.755873	0.131230	0.000005
C22	C	1.255873	0.631230	0.500005
C23	C	0.671850	0.129601	0.000003
C24	C	1.171850	0.629601	0.500003
C25	C	0.632372	0.128828	0.074952
C26	C	1.132372	0.628828	0.574952
C27	C	0.553425	0.127283	0.074953
C28	C	1.053425	0.627283	0.574953
C29	C	0.513957	0.126517	0.000004
C30	C	1.013957	0.626517	0.500004
C31	C	0.553441	0.127287	-0.074950
C32	C	1.053441	0.627287	0.425050
C33	C	0.632387	0.128825	-0.074950
C34	C	1.132387	0.628825	0.425050
C35	C	0.235060	0.121081	-0.074951
C36	C	0.735060	0.621081	0.425049
C37	C	0.156108	0.119545	-0.074945
C38	C	0.656108	0.619545	0.425055
C39	C	0.156098	0.119538	0.074951
C40	C	0.656098	0.619538	0.574951
C41	C	0.235044	0.121077	0.074951
C42	C	0.735044	0.621077	0.574951
C43	C	0.274522	0.121842	-0.000002
C44	C	0.774522	0.621842	0.499998
C45	C	0.360125	0.123515	-0.000003
C46	C	0.860125	0.623515	0.499997
C47	C	0.428354	0.124850	0.000003
C48	C	0.928354	0.624850	0.500003
C49	C	0.899537	-0.044438	0.000015
C50	C	1.399537	0.455562	0.500015
C51	C	0.897905	-0.146812	0.000015
C52	C	1.397905	0.353188	0.500015
C53	C	0.891898	-0.521682	-0.000006
C54	C	1.391898	-0.021682	0.499994
C55	C	0.893566	-0.417381	-0.000000
C56	C	1.393566	0.082619	0.500000
C57	C	0.894902	-0.334250	0.000005
C58	C	1.394902	0.165750	0.500005
C59	C	0.896570	-0.229943	0.000010
C60	C	1.396570	0.270057	0.500010
C61	C	1.032606	0.117137	0.000008
C62	C	1.532606	0.617137	0.500008
C63	C	1.116629	0.118766	0.000004
C64	C	1.616629	0.618766	0.500004
C65	C	0.888942	0.292804	-0.000002
C66	C	1.388942	0.792804	0.499998
C67	C	0.890574	0.395178	-0.000008
C68	C	1.390574	0.895178	0.499992
N69	N	0.894222	0.124170	0.195673
N70	N	1.394222	0.624170	0.695673
N71	N	0.894263	0.124189	-0.195659
N72	N	1.394263	0.624189	0.304341
C73	C	0.945607	0.061383	0.238942
C74	C	1.445607	0.561383	0.738942
C75	C	0.945611	0.061382	0.325489
C76	C	1.445611	0.561382	0.825489
C77	C	0.894233	0.124173	0.368766
C78	C	1.394233	0.624173	0.868766
C79	C	0.842843	0.186963	0.325491
C80	C	1.342843	0.686963	0.825491
C81	C	0.842836	0.186959	0.238946
C82	C	1.342836	0.686959	0.738946
C83	C	0.842869	0.186980	0.674519
C84	C	1.342869	0.686980	1.174519
C85	C	0.842881	0.186981	0.761071
C86	C	1.342881	0.686981	1.261071
C87	C	0.945644	0.061403	0.761062
C88	C	1.445644	0.561403	1.261062
C89	C	0.945637	0.061399	0.674517
C90	C	1.445637	0.561399	1.174517
C91	C	0.894244	0.124185	0.631250
C92	C	1.394244	0.624185	1.131250
C93	C	0.894240	0.124184	0.537406
C94	C	1.394240	0.624184	1.037406
C95	C	0.894241	0.124179	0.462608
C96	C	1.394241	0.624179	0.962608
H97	H	0.123946	0.118911	0.135982
H98	H	0.623946	0.618911	0.635982
H99	H	0.521287	0.126639	0.135983
H100	H	1.021287	0.626639	0.635983
Cl101	Cl	0.778232	0.265891	0.184552
Cl102	Cl	1.278232	0.765891	0.684552
Cl103	Cl	0.681980	0.129797	0.169178
Cl104	Cl	1.181980	0.629797	0.669178
H105	H	0.987476	0.010272	0.639284
H106	H	1.487476	0.510272	1.139284
H107	H	0.267174	0.121705	0.135982
H108	H	0.767174	0.621705	0.635982
H109	H	0.267194	0.121700	-0.135983
H110	H	0.767194	0.621700	0.364017
H111	H	0.521301	0.126656	-0.135974
H112	H	1.021301	0.626656	0.364026
Cl113	Cl	0.106492	0.118580	-0.169174
Cl114	Cl	0.606492	0.618580	0.330826
H115	H	0.801006	0.238085	0.360732
H116	H	1.301006	0.738085	0.860732
Cl117	Cl	1.010209	-0.017552	0.379885
Cl118	Cl	1.510209	0.482448	0.879885
H119	H	0.801025	0.238104	0.639298
H120	H	1.301025	0.738104	1.139298
H121	H	0.664529	0.129456	-0.135981
H122	H	1.164529	0.629456	0.364019
Cl123	Cl	1.010204	-0.017555	0.184545
Cl124	Cl	1.510204	0.482445	0.684545
H125	H	0.987488	0.010276	0.796300
H126	H	1.487488	0.510276	1.296300
H127	H	0.801040	0.238115	0.796306
H128	H	1.301040	0.738115	1.296306
