data_functionalizedCrystal
_audit_creation_method	'MofGen! by Chris Wilmer'
_symmetry_space_group_name_H-M	'P1'
_symmetry_Int_Tables_number	1
_symmetry_cell_setting	triclinic
loop_
_symmetry_equiv_pos_as_xyz
  x,y,z
_cell_length_a	23.532361
_cell_length_b	23.532407
_cell_length_c	13.448316
_cell_angle_alpha	89.988737
_cell_angle_beta	89.997511
_cell_angle_gamma	82.839173
loop_
_atom_site_label
_atom_site_type_symbol
_atom_site_fract_x
_atom_site_fract_y
_atom_site_fract_z
O1	O	0.755278	0.069010	-0.082602
O2	O	1.255278	0.569010	0.417398
O3	O	0.589411	0.079041	-0.082627
O4	O	1.089411	0.579041	0.417373
O5	O	0.677347	-0.008907	-0.082596
O6	O	1.177347	0.491093	0.417404
O7	O	0.667343	0.156958	-0.082634
O8	O	1.167343	0.656958	0.417366
O9	O	0.677336	-0.008913	0.082788
O10	O	1.177336	0.491087	0.582788
O11	O	0.589400	0.079035	0.082756
O12	O	1.089400	0.579035	0.582756
O13	O	0.755267	0.069005	0.082782
O14	O	1.255267	0.569005	0.582782
Cu15	Cu	0.672333	0.074020	0.097870
Cu16	Cu	1.172333	0.574020	0.597870
Cu17	Cu	0.672346	0.074026	-0.097716
Cu18	Cu	1.172346	0.574026	0.402284
O19	O	0.667332	0.156953	0.082750
O20	O	1.167332	0.656953	0.582750
C21	C	0.568189	0.078787	0.000062
C22	C	1.068189	0.578787	0.500062
C23	C	0.504971	0.078032	0.000053
C24	C	1.004971	0.578032	0.500053
C25	C	0.231733	0.074731	-0.090091
C26	C	0.731733	0.574731	0.409909
C27	C	0.291133	0.075446	-0.090094
C28	C	0.791133	0.575446	0.409906
O29	O	0.321864	0.075799	-0.166762
O30	O	0.821864	0.575799	0.333238
N31	N	0.320832	0.075804	0.000057
N32	N	0.820832	0.575804	0.500057
C33	C	0.291130	0.075442	0.090217
C34	C	0.791130	0.575442	0.590217
O35	O	0.321846	0.075812	0.166897
O36	O	0.821846	0.575812	0.666897
C37	C	0.231732	0.074723	0.090218
C38	C	0.731732	0.574723	0.590218
C39	C	0.202035	0.074370	0.000061
C40	C	0.702035	0.574370	0.500061
C41	C	0.202036	0.074378	-0.180241
C42	C	0.702036	0.574378	0.319759
C43	C	0.142640	0.073664	-0.180238
C44	C	0.642640	0.573664	0.319762
C45	C	0.112941	0.073303	-0.090085
C46	C	0.612941	0.573303	0.409915
C47	C	0.142639	0.073657	0.000064
C48	C	0.642639	0.573657	0.500064
C49	C	0.202031	0.074356	0.180377
C50	C	0.702031	0.574356	0.680377
C51	C	0.142629	0.073637	0.180370
C52	C	0.642629	0.573637	0.680370
C53	C	0.112932	0.073284	0.090214
C54	C	0.612932	0.573284	0.590214
C55	C	0.053545	0.072582	0.090220
C56	C	0.553545	0.572582	0.590220
N57	N	0.023845	0.072224	0.000069
N58	N	0.523845	0.572224	0.500069
C59	C	0.053543	0.072584	-0.090084
C60	C	0.553543	0.572584	0.409916
C61	C	0.415870	0.076951	0.090206
C62	C	0.915870	0.576951	0.590206
C63	C	0.475267	0.077674	0.090206
C64	C	0.975267	0.577674	0.590206
C65	C	0.475265	0.077677	-0.090105
C66	C	0.975265	0.577677	0.409895
C67	C	0.415867	0.076958	-0.090103
C68	C	0.915867	0.576958	0.409897
C69	C	0.386171	0.076593	0.000055
C70	C	0.886171	0.576593	0.500055
C71	C	-0.071192	0.071086	-0.090071
C72	C	0.428808	0.571086	0.409929
C73	C	-0.130594	0.070374	-0.090060
C74	C	0.369406	0.570374	0.409940
C75	C	-0.130587	0.070368	0.090251
C76	C	0.369413	0.570368	0.590251
C77	C	-0.071191	0.071083	0.090240
C78	C	0.428809	0.571083	0.590240
C79	C	-0.041495	0.071440	0.000071
C80	C	0.458505	0.571440	0.500071
O81	O	0.022776	0.072227	0.166849
O82	O	0.522776	0.572227	0.666849
O83	O	0.022821	0.072207	-0.166751
O84	O	0.522821	0.572207	0.333249
C85	C	0.677086	-0.030126	0.000099
C86	C	1.177086	0.469874	0.500099
C87	C	0.676320	-0.093343	0.000106
C88	C	1.176320	0.406657	0.500106
C89	C	0.723555	-0.492454	0.000059
C90	C	1.223555	0.007546	0.500059
C91	C	0.722844	-0.551854	0.000051
C92	C	1.222844	-0.051854	0.500051
O93	O	0.766630	-0.588606	0.000021
O94	O	1.266630	-0.088606	0.500021
N95	N	0.670566	-0.574471	0.000044
N96	N	1.170566	-0.074471	0.500044
C97	C	0.618997	-0.537685	0.000034
C98	C	1.118997	-0.037685	0.500034
O99	O	0.574465	-0.562377	0.000026
O100	O	1.074465	-0.062377	0.500026
C101	C	0.619709	-0.478286	0.000035
C102	C	1.119709	0.021714	0.500035
C103	C	0.671990	-0.455672	0.000052
C104	C	1.171990	0.044328	0.500052
C105	C	0.775832	-0.469839	0.000075
C106	C	1.275832	0.030161	0.500075
C107	C	0.776543	-0.410443	0.000085
C108	C	1.276543	0.089557	0.500085
C109	C	0.724977	-0.373662	0.000078
C110	C	1.224977	0.126338	0.500078
C111	C	0.672701	-0.396276	0.000062
C112	C	1.172701	0.103724	0.500062
C113	C	0.568140	-0.441501	0.000018
C114	C	1.068140	0.058499	0.500018
C115	C	0.568857	-0.382099	0.000018
C116	C	1.068857	0.117901	0.500018
C117	C	0.621137	-0.359485	0.000035
C118	C	1.121137	0.140515	0.500035
C119	C	0.621847	-0.300099	0.000064
C120	C	1.121847	0.199901	0.500064
N121	N	0.674124	-0.277481	0.000072
N122	N	1.174124	0.222519	0.500072
C123	C	0.725690	-0.314263	0.000078
C124	C	1.225690	0.185737	0.500078
C125	C	0.617505	-0.662427	0.000031
C126	C	1.117505	-0.162427	0.500031
C127	C	0.616793	-0.721825	0.000038
C128	C	1.116793	-0.221825	0.500038
C129	C	0.720640	-0.735990	0.000053
C130	C	1.220640	-0.235990	0.500053
C131	C	0.721352	-0.676591	0.000054
C132	C	1.221352	-0.176591	0.500054
C133	C	0.669783	-0.639810	0.000039
C134	C	1.169783	-0.139810	0.500039
C135	C	0.727179	-0.189526	0.000099
C136	C	1.227179	0.310474	0.500099
C137	C	0.727886	-0.130124	0.000113
C138	C	1.227886	0.369876	0.500113
C139	C	0.624039	-0.115965	0.000093
C140	C	1.124039	0.384035	0.500093
C141	C	0.623332	-0.175361	0.000084
C142	C	1.123332	0.324639	0.500084
C143	C	0.674907	-0.212141	0.000084
C144	C	1.174907	0.287859	0.500084
O145	O	0.578083	-0.263312	0.000090
O146	O	1.078083	0.236688	0.500090
O147	O	0.770214	-0.289562	0.000073
O148	O	1.270214	0.210438	0.500073
C149	C	0.776489	0.069258	0.000091
C150	C	1.276489	0.569258	0.500091
C151	C	0.839708	0.070014	0.000093
C152	C	1.339708	0.570014	0.500093
C153	C	0.667592	0.178171	0.000053
C154	C	1.167592	0.678171	0.500053
C155	C	0.668358	0.241388	0.000039
C156	C	1.168358	0.741388	0.500039
N157	N	0.672328	0.074015	0.235434
N158	N	1.172328	0.574015	0.735434
N159	N	0.672355	0.074026	-0.235280
N160	N	1.172355	0.574026	0.264720
C161	C	0.711278	0.035087	0.287489
C162	C	1.211278	0.535087	0.787489
C163	C	0.711281	0.035087	0.391592
C164	C	1.211281	0.535087	0.891592
C165	C	0.672337	0.074017	0.443639
C166	C	1.172337	0.574017	0.943639
C167	C	0.633384	0.112946	0.391577
C168	C	1.133384	0.612946	0.891577
C169	C	0.633378	0.112944	0.287476
C170	C	1.133378	0.612944	0.787476
C171	C	0.633399	0.112950	0.608557
C172	C	1.133399	0.612950	1.108557
C173	C	0.633406	0.112954	0.712666
C174	C	1.133406	0.612954	1.212666
C175	C	0.711303	0.035093	0.712673
C176	C	1.211303	0.535093	1.212673
C177	C	0.711297	0.035090	0.608572
C178	C	1.211297	0.535090	1.108572
C179	C	0.672344	0.074021	0.556517
C180	C	1.172344	0.574021	1.056517
H181	H	0.391694	0.076661	0.163629
H182	H	0.891694	0.576661	0.663629
H183	H	0.525567	-0.459902	-0.000002
H184	H	1.025567	0.040098	0.499998
C185	C	0.512131	-0.341640	0.000002
C186	C	1.012131	0.158360	0.500002
H187	H	0.520038	-0.303024	0.000001
H188	H	1.020038	0.196976	0.500001
H189	H	0.490673	-0.348473	0.057667
H190	H	0.990673	0.151527	0.557667
H191	H	0.490689	-0.348459	-0.057687
H192	H	0.990689	0.151541	0.442313
H193	H	0.580761	-0.193774	0.000098
H194	H	1.080761	0.306226	0.500098
C195	C	0.754134	-0.007732	0.551322
C196	C	1.254134	0.492268	1.051322
H197	H	0.777330	-0.030921	0.597231
H198	H	1.277330	0.469079	1.097231
H199	H	0.777719	0.012630	0.510694
H200	H	1.277719	0.512630	1.010694
H201	H	0.733774	-0.031334	0.510730
H202	H	1.233774	0.468666	1.010730
H203	H	0.601660	0.144642	0.245094
H204	H	1.101660	0.644642	0.745094
C205	C	0.567322	-0.075498	0.000079
C206	C	1.067322	0.424502	0.500079
H207	H	0.575238	-0.036885	0.000075
H208	H	1.075238	0.463115	0.500075
H209	H	0.545860	-0.082324	0.057743
H210	H	1.045860	0.417676	0.557743
H211	H	0.545880	-0.082314	-0.057611
H212	H	1.045880	0.417686	0.442389
H213	H	0.763923	-0.658183	0.000067
H214	H	1.263923	-0.158183	0.500067
H215	H	0.742992	0.003388	0.245119
H216	H	1.242992	0.503388	0.745119
C217	C	0.777361	-0.776457	0.000042
C218	C	1.277361	-0.276457	0.500042
H219	H	0.769445	-0.815070	0.000025
H220	H	1.269445	-0.315070	0.500025
H221	H	0.798816	-0.769648	0.057713
H222	H	1.298816	-0.269648	0.557713
H223	H	0.798810	-0.769625	-0.057640
H224	H	1.298810	-0.269625	0.442360
C225	C	0.234694	0.074780	-0.279418
C226	C	0.734694	0.574780	0.220582
H227	H	0.208492	0.074471	-0.333098
H228	H	0.708492	0.574471	0.166902
H229	H	0.262404	0.041847	-0.283176
H230	H	0.762404	0.541847	0.216824
H231	H	0.253325	0.108283	-0.283175
H232	H	0.753325	0.608283	0.216825
C233	C	0.383206	0.076569	-0.189275
C234	C	0.883206	0.576569	0.310725
H235	H	0.409405	0.076886	-0.242962
H236	H	0.909405	0.576886	0.257038
H237	H	0.355498	0.109504	-0.193032
H238	H	0.855498	0.609504	0.306968
H239	H	0.364572	0.043069	-0.193022
H240	H	0.864572	0.543069	0.306978
H241	H	0.118466	0.073375	-0.253653
H242	H	0.618466	0.573375	0.246347
C243	C	-0.038536	0.071485	-0.189254
C244	C	0.461464	0.571485	0.310746
H245	H	-0.064737	0.071178	-0.242936
H246	H	0.435263	0.571178	0.257064
H247	H	-0.010829	0.038550	-0.193010
H248	H	0.489171	0.538550	0.306990
H249	H	-0.019902	0.104986	-0.193010
H250	H	0.480098	0.604986	0.306990
C251	C	0.754146	-0.007734	0.769928
C252	C	1.254146	0.492266	1.269928
H253	H	0.748568	-0.002163	0.839381
H254	H	1.248568	0.497837	1.339381
H255	H	0.792119	-0.001748	0.752859
H256	H	1.292119	0.498252	1.252859
H257	H	0.748174	-0.045713	0.752880
H258	H	1.248174	0.454287	1.252880
C259	C	0.590533	0.155740	0.769916
C260	C	1.090533	0.655740	1.269916
H261	H	0.567317	0.178909	0.724007
H262	H	1.067317	0.678909	1.224007
H263	H	0.610850	0.179357	0.810542
H264	H	1.110850	0.679357	1.310542
H265	H	0.566962	0.135335	0.810509
H266	H	1.066962	0.635335	1.310509
H267	H	0.118453	0.073344	0.253790
H268	H	0.618453	0.573344	0.753790
C269	C	-0.163256	0.069923	0.189410
C270	C	0.336744	0.569923	0.689410
H271	H	-0.202881	0.069426	0.176492
H272	H	0.297119	0.569426	0.676492
H273	H	-0.158075	0.103238	0.226507
H274	H	0.341925	0.603238	0.726507
H275	H	-0.148970	0.036803	0.226402
H276	H	0.351030	0.536803	0.726402
H277	H	0.499457	0.077970	-0.163512
H278	H	0.999457	0.577970	0.336488
C279	C	0.507927	0.078064	0.189378
C280	C	1.007927	0.578064	0.689378
H281	H	0.481728	0.077742	0.243065
H282	H	0.981728	0.577742	0.743065
H283	H	0.526568	0.111556	0.193127
H284	H	1.026568	0.611556	0.693127
H285	H	0.535630	0.045121	0.193133
H286	H	1.035630	0.545121	0.693133
C287	C	0.590554	0.155775	0.551299
C288	C	1.090554	0.655775	1.051299
H289	H	0.567366	0.178966	0.597204
H290	H	1.067366	0.678966	1.097204
H291	H	0.566961	0.135414	0.510701
H292	H	1.066961	0.635414	1.010701
H293	H	0.610909	0.179375	0.510678
H294	H	1.110909	0.679375	1.010678
H295	H	0.226201	0.074641	0.253792
H296	H	0.726201	0.574641	0.753792
H297	H	0.742997	0.003389	0.433974
H298	H	1.242997	0.503389	0.933974
H299	H	0.601672	0.144642	0.433960
H300	H	1.101672	0.644642	0.933960
C301	C	-0.038520	0.071452	0.189409
C302	C	0.461480	0.571452	0.689409
H303	H	-0.064716	0.071127	0.243100
H304	H	0.435284	0.571127	0.743100
H305	H	-0.019868	0.104937	0.193177
H306	H	0.480132	0.604937	0.693177
H307	H	-0.010826	0.038501	0.193138
H308	H	0.489174	0.538501	0.693138
H309	H	-0.154771	0.070089	-0.163480
H310	H	0.345229	0.570089	0.336520
H311	H	0.770461	-0.111716	0.000130
H312	H	1.270461	0.388284	0.500130
H313	H	0.769176	-0.219466	0.000095
H314	H	1.269176	0.280534	0.500095
H315	H	0.819115	-0.392037	0.000095
H316	H	1.319115	0.107963	0.500095
C317	C	0.832557	-0.510293	0.000080
C318	C	1.332557	-0.010293	0.500080
H319	H	0.824656	-0.548911	0.000070
H320	H	1.324656	-0.048911	0.500070
H321	H	0.854002	-0.503470	0.057756
H322	H	1.354002	-0.003470	0.557756
H323	H	0.854009	-0.503458	-0.057597
H324	H	1.354009	-0.003458	0.442403
C325	C	0.559285	-0.746697	0.000030
C326	C	1.059285	-0.246697	0.500030
H327	H	0.566241	-0.787341	0.000033
H328	H	1.066241	-0.287341	0.500033
H329	H	0.538072	-0.734040	-0.057644
H330	H	1.038072	-0.234040	0.442356
H331	H	0.538067	-0.734058	0.057709
H332	H	1.038067	-0.234058	0.557709
C333	C	0.560775	-0.621973	0.000034
C334	C	1.060775	-0.121973	0.500034
H335	H	0.529543	-0.643954	0.000039
H336	H	1.029543	-0.143954	0.500039
H337	H	0.558892	-0.598498	-0.057636
H338	H	1.058892	-0.098498	0.442364
H339	H	0.558891	-0.598516	0.057717
H340	H	1.058891	-0.098516	0.557717
