data_functionalizedCrystal
_audit_creation_method	'MofGen! by Chris Wilmer'
_symmetry_space_group_name_H-M	'P1'
_symmetry_Int_Tables_number	1
_symmetry_cell_setting	triclinic
loop_
_symmetry_equiv_pos_as_xyz
  x,y,z
_cell_length_a	15.500227
_cell_length_b	14.853567
_cell_length_c	14.853554
_cell_angle_alpha	83.632187
_cell_angle_beta	92.834256
_cell_angle_gamma	87.154502
loop_
_atom_site_label
_atom_site_type_symbol
_atom_site_fract_x
_atom_site_fract_y
_atom_site_fract_z
O1	O	0.071880	-1.200544	-0.113529
O2	O	0.071894	-0.938085	-0.127549
O3	O	0.071886	-1.076331	0.010692
O4	O	0.071888	-1.062297	-0.251769
O5	O	-0.072002	-1.067942	0.002336
O6	O	-0.071994	-0.929695	-0.135905
O7	O	-0.072008	-1.192155	-0.121884
Cu8	Cu	-0.085139	-1.060159	-0.129658
Cu9	Cu	0.085025	-1.070080	-0.119776
O10	O	-0.072000	-1.053908	-0.260125
C11	C	-0.000048	-0.900301	-0.131092
C12	C	-0.000042	-0.800218	-0.129188
N13	N	-0.204824	-1.053188	-0.136607
C14	C	-0.000056	-1.071503	0.040103
C15	C	-0.000051	-1.069604	0.140187
C16	C	-0.250104	-1.111788	-0.078052
C17	C	-0.340676	-1.106524	-0.083316
C18	C	-0.385967	-1.042663	-0.147141
C19	C	-0.340681	-0.984057	-0.205699
C20	C	-0.250110	-0.989317	-0.200430
C21	C	-0.659433	-1.023713	-0.166108
C22	C	-0.750010	-1.018459	-0.171375
C23	C	-0.750000	-1.140925	-0.048990
C24	C	-0.659427	-1.146184	-0.043730
C25	C	-0.614148	-1.087574	-0.102285
C26	C	-0.478547	-1.037283	-0.152525
C27	C	-0.521570	-1.092951	-0.096895
N28	N	0.204710	-1.077059	-0.112819
C29	C	-0.000064	-1.229938	-0.118342
C30	C	-0.000064	-1.330022	-0.120246
C31	C	-0.000063	-0.387688	-0.039022
C32	C	-0.000060	-0.366399	-0.203256
C33	C	-0.000058	-0.460433	-0.205046
C34	C	-0.000056	-0.518098	-0.123823
C35	C	-0.000057	-0.481731	-0.040810
C36	C	-0.000048	-0.496808	-0.288057
C37	C	-0.000044	-0.590847	-0.289851
C38	C	-0.000048	-0.648515	-0.208627
C39	C	-0.000051	-0.612141	-0.125610
C40	C	-0.000049	-0.669807	-0.044387
C41	C	-0.000057	-0.633435	0.038630
C42	C	-0.000062	-0.539398	0.040414
C43	C	-0.000044	-0.742552	-0.210411
C44	C	-0.000044	-0.763850	-0.046174
C45	C	0.078383	-1.066121	0.567918
C46	C	-0.078489	-1.056975	0.558803
C47	C	-0.078490	-1.058766	0.464769
C48	C	-0.000053	-1.064234	0.422306
C49	C	0.078385	-1.067910	0.473876
C50	C	-0.156927	-1.055081	0.413191
C51	C	-0.156931	-1.056872	0.319152
C52	C	-0.078493	-1.062346	0.276687
C53	C	-0.000052	-1.066023	0.328263
C54	C	0.078385	-1.071491	0.285800
C55	C	0.156827	-1.075175	0.337375
C56	C	0.156823	-1.073385	0.431411
C57	C	-0.078488	-1.064137	0.182651
C58	C	0.078387	-1.073280	0.191757
C59	C	-0.000055	-1.058741	0.710464
C60	C	-0.000054	-1.060653	0.610382
H61	H	-0.213234	-1.163794	-0.026082
C62	C	0.073920	-0.755850	0.136182
C63	C	-0.000054	-0.696831	0.127908
H64	H	0.073918	-0.794993	0.191294
H65	H	0.124082	-0.721636	0.136391
H66	H	0.073917	-0.790957	0.086478
H67	H	-0.000048	-0.661718	0.177609
H68	H	-0.050229	-0.731048	0.127707
C69	C	-0.000058	-0.404700	0.116074
C70	C	-0.000061	-0.499416	0.131660
H71	H	-0.000050	-0.380017	0.172407
H72	H	-0.050233	-0.381999	0.079721
H73	H	0.050122	-0.387848	0.085537
H74	H	-0.050245	-0.516268	0.162192
H75	H	0.050119	-0.522125	0.168028
C76	C	-0.740928	-0.897904	-0.291801
C77	C	-0.799796	-0.948245	-0.241524
H78	H	-0.771666	-0.854555	-0.335099
H79	H	-0.705596	-0.937508	-0.322257
H80	H	-0.705608	-0.867496	-0.252143
H81	H	-0.835112	-0.978658	-0.281182
H82	H	-0.835143	-0.908635	-0.211067
H83	H	-0.786874	-1.188642	-0.001316
C84	C	-0.331569	-1.228127	0.038159
C85	C	-0.390448	-1.170953	-0.018963
H86	H	-0.362297	-1.267911	0.077883
H87	H	-0.296259	-1.192623	0.072723
H88	H	-0.296227	-1.262634	0.002609
H89	H	-0.425786	-1.136441	0.016587
H90	H	-0.425773	-1.206461	-0.053530
C91	C	-0.557585	-1.010212	-0.282852
C92	C	-0.609674	-0.959301	-0.230487
H93	H	-0.526861	-0.970445	-0.322597
H94	H	-0.592910	-1.045722	-0.317392
H95	H	-0.517646	-1.048985	-0.244076
H96	H	-0.649616	-0.920532	-0.269262
H97	H	-0.574346	-0.923775	-0.195943
H98	H	-0.000040	-0.449851	-0.354184
C99	C	0.226472	-1.074687	0.579607
C100	C	0.243040	-1.077421	0.488102
H101	H	0.279699	-1.077171	0.614605
H102	H	0.194250	-1.125044	0.599954
H103	H	0.194242	-1.019980	0.586318
H104	H	0.275265	-1.132131	0.481390
H105	H	0.275276	-1.027060	0.467748
H106	H	-0.142355	-1.061117	0.140660
C107	C	-0.000070	-0.212794	-0.273434
C108	C	-0.000065	-0.303015	-0.292534
H109	H	-0.000080	-0.173663	-0.328555
H110	H	0.050106	-0.204683	-0.236497
H111	H	-0.050249	-0.198848	-0.242310
H112	H	0.050118	-0.316964	-0.323652
H113	H	-0.050245	-0.311130	-0.329485
H114	H	0.220691	-1.079620	0.302788
H115	H	0.142249	-1.069124	0.609915
H116	H	-0.000037	-0.620453	-0.357448
H117	H	-0.622553	-1.198184	0.008242
C118	C	-0.000034	-0.712060	-0.372567
C119	C	-0.000036	-0.782533	-0.301654
H120	H	-0.000034	-0.736743	-0.428899
H121	H	0.050140	-0.678749	-0.365537
H122	H	-0.050215	-0.672901	-0.371365
H123	H	0.050149	-0.821689	-0.302852
H124	H	-0.050214	-0.815859	-0.308686
H125	H	0.142260	-1.077737	0.157191
H126	H	-0.377562	-0.932055	-0.257664
C127	C	-0.148140	-1.050190	0.698910
C128	C	-0.164704	-1.050979	0.605479
H129	H	-0.201369	-1.046498	0.727727
H130	H	-0.115926	-0.999240	0.709377
H131	H	-0.115904	-1.104305	0.722991
H132	H	-0.196935	-0.996860	0.581396
H133	H	-0.196932	-1.101933	0.595006
H134	H	-0.213244	-0.941597	-0.248111
C135	C	-0.290650	-0.972200	0.272398
C136	C	-0.243153	-1.052836	0.262470
H137	H	-0.343882	-0.969717	0.237409
H138	H	-0.258425	-0.921850	0.252035
H139	H	-0.301865	-0.970357	0.334484
H140	H	-0.231932	-1.054677	0.200385
H141	H	-0.275385	-1.103200	0.282828
C142	C	-0.290640	-1.124176	0.444388
C143	C	-0.243148	-1.049076	0.459853
H144	H	-0.343876	-1.120466	0.473191
H145	H	-0.258416	-1.178283	0.468485
H146	H	-0.301849	-1.124700	0.380997
H147	H	-0.231934	-1.048556	0.523244
H148	H	-0.275379	-0.994955	0.435760
H149	H	-0.515430	-0.985287	-0.204495
C150	C	0.073931	-0.886258	0.051392
C151	C	-0.000041	-0.827237	0.043109
H152	H	0.073928	-0.925393	0.106510
H153	H	0.124094	-0.852046	0.051595
H154	H	0.073928	-0.921374	0.001695
H155	H	-0.000035	-0.792116	0.092804
H156	H	-0.050217	-0.861453	0.042914
H157	H	-0.484692	-1.144943	-0.044926
H158	H	-0.000073	-0.358069	0.028568
