data_functionalizedCrystal
_audit_creation_method	'MofGen! by Chris Wilmer'
_symmetry_space_group_name_H-M	'P1'
_symmetry_Int_Tables_number	1
_symmetry_cell_setting	triclinic
loop_
_symmetry_equiv_pos_as_xyz
  x,y,z
_cell_length_a	12.837943
_cell_length_b	10.654541
_cell_length_c	11.295483
_cell_angle_alpha	94.135029
_cell_angle_beta	85.461227
_cell_angle_gamma	89.656434
loop_
_atom_site_label
_atom_site_type_symbol
_atom_site_fract_x
_atom_site_fract_y
_atom_site_fract_z
O1	O	1.384727	0.319125	-0.099003
O2	O	1.082806	0.302983	-0.099010
O3	O	1.240709	0.129073	-0.098999
O4	O	1.226824	0.493035	-0.099014
O5	O	1.226840	0.144321	0.099051
O6	O	1.068937	0.318232	0.099040
O7	O	1.370858	0.334373	0.099047
Cu8	Cu	1.218631	0.327695	0.117127
Cu9	Cu	1.235033	0.309662	-0.117090
O10	O	1.212955	0.508284	0.099036
C11	C	1.037211	0.305155	0.000014
C12	C	0.922018	0.288892	0.000012
C13	C	0.682463	0.484397	0.000021
C14	C	0.574227	0.469123	0.000019
C15	C	0.597309	0.243071	0.000016
C16	C	0.705544	0.258345	0.000017
C17	C	0.748117	0.379012	0.000018
C18	C	0.856355	0.394285	0.000011
C19	C	0.879434	0.168234	0.000016
C20	C	0.771198	0.152960	0.000014
C21	C	1.232755	0.089788	0.000025
C22	C	1.229706	-0.049989	0.000023
C23	C	1.418522	-0.057353	0.000043
C24	C	1.511493	-0.126701	0.000055
C25	C	1.508622	-0.258033	0.000051
C26	C	1.412770	-0.320020	0.000031
C27	C	1.319799	-0.250672	0.000019
C28	C	1.322680	-0.119337	0.000027
C29	C	1.130987	-0.243308	-0.000009
C30	C	1.133855	-0.111975	0.000004
C31	C	1.035135	-0.305294	-0.000028
C32	C	0.942161	-0.235946	-0.000032
C33	C	0.945036	-0.104606	-0.000027
C34	C	1.040884	-0.042627	-0.000008
C35	C	1.416452	0.332202	0.000020
C36	C	1.531646	0.348464	0.000015
C37	C	1.220908	0.547569	0.000009
C38	C	1.223958	0.687344	0.000003
N39	N	1.207102	0.340379	0.281862
N40	N	1.246569	0.296969	-0.281825
C41	C	1.329558	0.205592	0.531160
C42	C	1.320854	0.215188	0.655823
C43	C	1.180983	0.369157	0.655854
C44	C	1.189688	0.359562	0.531191
C45	C	1.263979	0.277778	0.468848
C46	C	1.272688	0.268191	0.344183
C47	C	1.132814	0.422153	0.344216
C48	C	1.124109	0.431748	0.468879
H49	H	0.717126	0.582649	0.000019
O50	O	1.100841	0.457341	0.723097
H51	H	1.116416	0.555079	0.699170
O52	O	1.062067	0.500012	0.277012
H53	H	1.080593	0.479597	0.179851
H54	H	0.869327	-0.048151	-0.000042
O55	O	0.902281	0.524426	0.000027
H56	H	0.838437	0.595141	0.000046
O57	O	0.503408	0.582785	0.000025
H58	H	0.524292	0.633701	-0.080700
O59	O	1.043981	0.099023	-0.000007
H60	H	1.126250	0.130469	-0.000001
H61	H	0.562620	0.144837	0.000113
O62	O	1.614870	-0.059839	0.000070
H63	H	1.679035	-0.130127	0.000065
O64	O	0.725280	0.022816	0.000014
H65	H	0.638987	0.029897	0.000008
H66	H	0.932903	0.082421	0.000006
H67	H	1.420868	0.049585	0.000062
O68	O	1.608892	-0.332842	0.000072
H69	H	1.676026	-0.267681	0.000095
O70	O	1.352806	0.179978	0.276934
H71	H	1.396935	0.131384	0.341213
H72	H	0.864127	-0.286427	-0.000055
O73	O	1.409680	-0.461671	0.000022
H74	H	1.373834	-0.500919	-0.080711
O75	O	1.032028	-0.446944	-0.000020
H76	H	1.112777	-0.484754	0.000008
O77	O	1.409681	0.117390	0.463907
H78	H	1.453820	0.068802	0.528181
O79	O	1.391595	0.137347	0.723037
H80	H	1.444722	0.078880	0.658739
H81	H	1.063619	0.498331	0.519652
