data_functionalizedCrystal
_audit_creation_method	'MofGen! by Chris Wilmer'
_symmetry_space_group_name_H-M	'P1'
_symmetry_Int_Tables_number	1
_symmetry_cell_setting	triclinic
loop_
_symmetry_equiv_pos_as_xyz
  x,y,z
_cell_length_a	10.654550
_cell_length_b	14.519709
_cell_length_c	9.130313
_cell_angle_alpha	89.997798
_cell_angle_beta	89.996220
_cell_angle_gamma	84.082524
loop_
_atom_site_label
_atom_site_type_symbol
_atom_site_fract_x
_atom_site_fract_y
_atom_site_fract_z
O1	O	1.666589	0.129528	-0.121923
O2	O	1.300991	0.141869	-0.121900
O3	O	1.493483	0.001510	-0.121899
O4	O	1.474097	0.269887	-0.121924
O5	O	1.493481	0.001514	0.121700
O6	O	1.300989	0.141873	0.121699
O7	O	1.666586	0.129532	0.121676
Cu8	Cu	1.483787	0.135703	0.143930
Cu9	Cu	1.483790	0.135698	-0.144154
O10	O	1.474094	0.269891	0.121675
C11	C	1.254201	0.140965	-0.000098
C12	C	1.114784	0.138254	-0.000088
C13	C	1.034504	0.220895	-0.000117
C14	C	0.903507	0.218342	-0.000143
C15	C	0.933085	0.050500	-0.000116
C16	C	1.064078	0.053054	-0.000080
C17	C	1.017426	0.317797	-0.000139
C18	C	0.886430	0.315244	-0.000164
C19	C	1.492579	-0.032852	-0.000099
C20	C	1.489871	-0.135247	-0.000098
C21	C	1.479904	-0.510195	-0.000136
C22	C	1.482672	-0.405873	-0.000125
C23	C	1.484887	-0.322725	-0.000116
C24	C	1.487656	-0.218396	-0.000108
C25	C	1.713377	0.130436	-0.000130
C26	C	1.852794	0.133147	-0.000149
C27	C	1.474999	0.304253	-0.000128
C28	C	1.477707	0.406648	-0.000139
N29	N	1.483795	0.135705	0.346552
N30	N	1.483793	0.135688	-0.346777
C31	C	1.569052	0.073576	0.423205
C32	C	1.569048	0.073565	0.576542
C33	C	1.398527	0.197821	0.576560
C34	C	1.398525	0.197827	0.423226
C35	C	1.667505	0.001840	0.423195
C36	C	1.667502	0.001829	0.576532
H37	H	1.052786	0.348651	-0.105314
C38	C	1.725018	-0.131441	0.727086
C39	C	1.627199	-0.088593	0.640774
H40	H	1.700133	-0.187257	0.766761
H41	H	1.798269	-0.144997	0.668511
H42	H	1.742974	-0.091130	0.804538
H43	H	1.609248	-0.128901	0.563315
H44	H	1.553926	-0.075040	0.699352
C45	C	1.228510	-0.041433	0.125216
C46	C	1.152326	-0.037787	-0.000033
H47	H	1.282985	-0.097519	0.125247
H48	H	1.277452	0.009666	0.125207
H49	H	1.176756	-0.038933	0.210139
H50	H	1.204080	-0.040279	-0.084956
H51	H	1.103380	-0.088899	-0.000037
C52	C	1.783629	0.103743	0.717933
C53	C	1.797577	0.023160	0.632716
H54	H	1.863929	0.116906	0.752622
H55	H	1.747417	0.154021	0.660140
H56	H	1.730094	0.094943	0.798846
H57	H	1.851105	0.031962	0.551796
H58	H	1.833807	-0.027131	0.690512
H59	H	1.758473	0.024302	0.375629
H60	H	0.891784	-0.018867	-0.000131
C61	C	0.949247	0.397423	0.220928
C62	C	1.056543	0.368954	0.137485
H63	H	0.973401	0.428997	0.305893
H64	H	0.892612	0.437780	0.164274
H65	H	0.908974	0.344794	0.249226
H66	H	1.096811	0.421584	0.109177
H67	H	1.113200	0.328595	0.194149
H68	H	0.840476	0.344531	0.105001
H69	H	1.329091	0.248409	0.360817
C70	C	1.229964	0.320635	0.561176
C71	C	1.304800	0.266102	0.660843
H72	H	1.172095	0.362785	0.613210
H73	H	1.282305	0.354174	0.501379
H74	H	1.184721	0.281927	0.501362
H75	H	1.350050	0.304809	0.720651
H76	H	1.252452	0.232561	0.720666
H77	H	0.844347	0.351754	-0.102121
H78	H	1.646744	-0.069045	0.381583
