data_functionalizedCrystal
_audit_creation_method	'MofGen! by Chris Wilmer'
_symmetry_space_group_name_H-M	'P1'
_symmetry_Int_Tables_number	1
_symmetry_cell_setting	triclinic
loop_
_symmetry_equiv_pos_as_xyz
  x,y,z
_cell_length_a	10.723023
_cell_length_b	12.837942
_cell_length_c	9.798715
_cell_angle_alpha	90.002852
_cell_angle_beta	90.002993
_cell_angle_gamma	89.648244
loop_
_atom_site_label
_atom_site_type_symbol
_atom_site_fract_x
_atom_site_fract_y
_atom_site_fract_z
O1	O	1.672991	0.145509	0.113476
O2	O	1.311351	0.159439	0.113482
O3	O	1.484152	0.001514	0.113471
O4	O	1.500190	0.303434	0.113487
O5	O	1.484139	0.001513	-0.113511
O6	O	1.311338	0.159437	-0.113500
O7	O	1.672978	0.145508	-0.113506
Zn8	Zn	1.492156	0.152473	-0.149541
Zn9	Zn	1.492173	0.152474	0.149517
O10	O	1.500177	0.303433	-0.113495
C11	C	1.264735	0.158425	-0.000008
C12	C	1.125851	0.155392	-0.000006
C13	C	0.920403	0.150907	0.117577
C14	C	1.063947	0.154041	0.117578
C15	C	1.478728	-0.037146	-0.000019
C16	C	1.462569	-0.152338	-0.000017
C17	C	1.656825	-0.391915	0.000009
C18	C	1.641649	-0.500149	0.000011
C19	C	1.417040	-0.477041	0.000000
C20	C	1.432217	-0.368807	-0.000002
C21	C	1.552113	-0.326248	-0.000000
C22	C	1.567289	-0.218013	-0.000012
C23	C	1.342681	-0.194907	-0.000013
C24	C	1.327505	-0.303140	-0.000011
C25	C	1.719594	0.146522	-0.000012
C26	C	1.858478	0.149554	-0.000006
C27	C	1.505601	0.342092	-0.000001
C28	C	1.521760	0.457284	0.000005
N29	N	1.492153	0.152471	-0.353641
C30	C	1.564889	0.086019	-0.578577
C31	C	1.564872	0.086020	-0.421415
N32	N	1.492185	0.152468	0.353617
H33	H	0.911730	0.150712	-0.100672
C34	C	1.697383	-0.171659	0.000209
C35	C	1.712641	-0.110169	0.116968
C36	C	1.832464	-0.067443	0.117214
H37	H	1.757693	-0.226164	0.000289
H38	H	1.707995	-0.129863	-0.078905
H39	H	1.702041	-0.151962	0.196061
H40	H	1.652360	-0.055647	0.116912
H41	H	1.843076	-0.025647	0.038101
H42	H	1.892764	-0.121955	0.117291
H43	H	1.842828	-0.025710	0.196426
H44	H	1.257417	-0.141429	-0.000031
H45	H	1.754449	-0.357263	-0.000003
C46	C	1.647704	0.009947	-0.343815
C47	C	1.615253	-0.092148	-0.378540
C48	C	1.691519	-0.162276	-0.307097
H49	H	1.732455	0.021657	-0.367109
H50	H	1.636681	0.019913	-0.248491
H51	H	1.626287	-0.102110	-0.473843
H52	H	1.530515	-0.103891	-0.355243
H53	H	1.680496	-0.152311	-0.211773
H54	H	1.776266	-0.150558	-0.330396
H55	H	1.669504	-0.231556	-0.330638
C56	C	1.755493	-0.571271	-0.000053
C57	C	1.863734	-0.510829	-0.000084
C58	C	1.968635	-0.576311	-0.000158
H59	H	1.754417	-0.613992	0.079080
H60	H	1.754311	-0.613962	-0.079237
H61	H	1.864915	-0.468156	0.079093
H62	H	1.864851	-0.468110	-0.079211
H63	H	1.967454	-0.619002	-0.079343
H64	H	1.967547	-0.619029	0.078976
H65	H	2.042089	-0.535311	-0.000192
H66	H	1.319426	-0.511712	0.000013
C67	C	1.055085	0.153898	-0.134392
C68	C	1.140024	0.155777	-0.242869
C69	C	1.074869	0.154415	-0.366683
H70	H	1.006500	0.092408	-0.139661
H71	H	1.001867	0.213208	-0.139536
H72	H	1.193220	0.096473	-0.237727
H73	H	1.188612	0.217263	-0.237645
H74	H	1.021651	0.213725	-0.371828
H75	H	1.026286	0.092924	-0.371938
H76	H	1.132490	0.155700	-0.440299
C77	C	1.197309	-0.349296	0.000268
C78	C	1.133256	-0.316011	0.117055
C79	C	1.013320	-0.358518	0.117364
H80	H	1.153499	-0.326848	-0.078798
H81	H	1.203214	-0.423166	0.000347
H82	H	1.127345	-0.242157	0.116963
H83	H	1.177028	-0.338458	0.196140
H84	H	1.019226	-0.432387	0.117444
H85	H	0.969522	-0.336067	0.038293
H86	H	0.969850	-0.335948	0.196609
H87	H	1.117201	0.155210	0.218244
C88	C	1.409067	0.228167	-0.431547
C89	C	1.326122	0.172279	-0.513622
C90	C	1.249576	0.241974	-0.585432
H91	H	1.363324	0.269886	-0.368797
H92	H	1.459156	0.271628	-0.487358
H93	H	1.276038	0.128836	-0.457815
H94	H	1.371831	0.130563	-0.576397
H95	H	1.299666	0.285434	-0.641244
H96	H	1.203841	0.283690	-0.522672
H97	H	1.193297	0.204064	-0.641138
C98	C	0.849333	0.149572	0.251770
C99	C	0.770989	0.237052	0.258908
C100	C	0.705514	0.235865	0.382516
H101	H	0.800651	0.088133	0.256971
H102	H	0.906754	0.150883	0.325583
H103	H	0.713574	0.235732	0.185115
H104	H	0.819639	0.298505	0.253730
H105	H	0.762935	0.237177	0.456329
H106	H	0.656839	0.174423	0.387706
H107	H	0.652359	0.295224	0.387381
H108	H	1.627152	0.029132	-0.636876
H109	H	1.429933	0.209362	-0.588083
