data_functionalizedCrystal
_audit_creation_method	'MofGen! by Chris Wilmer'
_symmetry_space_group_name_H-M	'P1'
_symmetry_Int_Tables_number	1
_symmetry_cell_setting	triclinic
loop_
_symmetry_equiv_pos_as_xyz
  x,y,z
_cell_length_a	14.044220
_cell_length_b	12.503572
_cell_length_c	14.044220
_cell_angle_alpha	93.849209
_cell_angle_beta	86.811122
_cell_angle_gamma	93.847148
loop_
_atom_site_label
_atom_site_type_symbol
_atom_site_fract_x
_atom_site_fract_y
_atom_site_fract_z
O1	O	1.272120	-0.089212	-0.235211
O2	O	1.772120	0.410788	0.264789
O3	O	0.995447	-0.089239	-0.226907
O4	O	1.495447	0.410761	0.273093
O5	O	1.129631	-0.089215	-0.092722
O6	O	1.629631	0.410785	0.407278
O7	O	1.137936	-0.089236	-0.369395
O8	O	1.637936	0.410764	0.130605
O9	O	1.139726	0.089429	-0.082618
O10	O	1.639726	0.589429	0.417382
O11	O	1.005542	0.089405	-0.216802
O12	O	1.505542	0.589405	0.283198
O13	O	1.282215	0.089432	-0.225106
O14	O	1.782215	0.589432	0.274894
Cu15	Cu	1.144800	0.105730	-0.220031
Cu16	Cu	1.644800	0.605730	0.279969
Cu17	Cu	1.132862	-0.105537	-0.231981
Cu18	Cu	1.632862	0.394463	0.268019
O19	O	1.148031	0.089408	-0.359290
O20	O	1.648031	0.589408	0.140710
C21	C	0.964873	0.000080	-0.218219
C22	C	1.464873	0.500080	0.281781
C23	C	0.858729	0.000070	-0.207375
C24	C	1.358729	0.500070	0.292625
C25	C	0.664393	0.000092	-0.187547
C26	C	1.164393	0.500092	0.312453
C27	C	0.613263	0.000091	-0.264462
C28	C	1.113263	0.500091	0.235538
C29	C	0.505127	0.000104	-0.253429
C30	C	1.005127	0.500104	0.246571
C31	C	0.772538	0.000080	-0.198578
C32	C	1.272538	0.500080	0.301422
N33	N	1.124465	-0.254131	-0.240379
N34	N	1.624465	0.245869	0.259621
C35	C	1.112105	-0.473248	-0.252732
C36	C	1.612105	0.026752	0.247268
C37	C	1.165562	-0.526566	-0.199276
C38	C	1.665562	-0.026566	0.300724
C39	C	1.158684	-0.648490	-0.206150
C40	C	1.658684	-0.148490	0.293850
C41	C	1.118981	-0.351313	-0.245860
C42	C	1.618981	0.148687	0.254140
C43	C	1.312790	0.000111	-0.233794
C44	C	1.812790	0.500111	0.266206
C45	C	1.418932	0.000114	-0.244639
C46	C	1.918932	0.500114	0.255361
C47	C	1.131043	0.000107	-0.052048
C48	C	1.631043	0.500107	0.447952
C49	C	1.120199	0.000107	0.054094
C50	C	1.620199	0.500107	0.554094
N51	N	1.153204	0.254324	-0.211627
N52	N	1.653204	0.754324	0.288373
C53	C	1.146619	0.000084	-0.399965
C54	C	1.646619	0.500084	0.100035
C55	C	1.157463	0.000077	-0.506108
C56	C	1.657463	0.500077	-0.006108
C57	C	1.100371	0.000090	0.248431
C58	C	1.600371	0.500090	0.748431
C59	C	1.177286	0.000094	0.299561
C60	C	1.677286	0.500094	0.799561
C61	C	1.166254	0.000084	0.407697
C62	C	1.666254	0.500084	0.907697
C63	C	1.111402	0.000099	0.140286
C64	C	1.611402	0.500099	0.640286
H65	H	0.626957	0.000104	-0.113419
H66	H	1.126957	0.500104	0.386581
H67	H	0.650702	0.000081	-0.338596
H68	H	1.150702	0.500081	0.161404
C69	C	1.234355	-0.464537	-0.130467
C70	C	1.734355	0.035463	0.369533
H71	H	1.230005	-0.389540	-0.134804
H72	H	1.730005	0.110460	0.365196
H73	H	1.297935	-0.482893	-0.147248
H74	H	1.797935	0.017107	0.352752
H75	H	1.217546	-0.482897	-0.066889
H76	H	1.717546	0.017103	0.433111
C77	C	1.043296	-0.535276	-0.321517
C78	C	1.543296	-0.035276	0.178483
H79	H	1.047636	-0.610273	-0.317161
H80	H	1.547636	-0.110273	0.182839
H81	H	1.060074	-0.516929	-0.385099
H82	H	1.560074	-0.016929	0.114901
H83	H	0.979718	-0.516914	-0.304708
H84	H	1.479718	-0.016914	0.195292
H85	H	1.026243	0.000080	0.285868
H86	H	1.526243	0.500080	0.785868
H87	H	1.251416	0.000029	0.262118
H88	H	1.751416	0.500029	0.762118
