data_functionalizedCrystal
_audit_creation_method	'MofGen! by Chris Wilmer'
_symmetry_space_group_name_H-M	'P1'
_symmetry_Int_Tables_number	1
_symmetry_cell_setting	triclinic
loop_
_symmetry_equiv_pos_as_xyz
  x,y,z
_cell_length_a	10.654559
_cell_length_b	10.654551
_cell_length_c	9.730223
_cell_angle_alpha	90.001469
_cell_angle_beta	89.999563
_cell_angle_gamma	84.487023
loop_
_atom_site_label
_atom_site_type_symbol
_atom_site_fract_x
_atom_site_fract_y
_atom_site_fract_z
O1	O	1.667828	0.176448	-0.114288
O2	O	1.302351	0.193242	-0.114288
O3	O	1.493492	0.002107	-0.114289
O4	O	1.476687	0.367584	-0.114287
O5	O	1.493490	0.002111	0.114291
O6	O	1.302349	0.193247	0.114292
O7	O	1.667826	0.176453	0.114292
Zn8	Zn	1.485087	0.184851	0.150584
Zn9	Zn	1.485090	0.184845	-0.150580
O10	O	1.476685	0.367589	0.114292
C11	C	1.255552	0.192009	0.000002
C12	C	1.116109	0.188313	0.000001
C13	C	1.064569	0.072301	0.000004
C14	C	0.933547	0.068835	-0.000006
C15	C	0.905616	0.297404	-0.000017
C16	C	1.036636	0.300868	-0.000016
C17	C	1.144043	-0.040255	0.000022
C18	C	1.092504	-0.156277	0.000026
C19	C	0.961482	-0.159742	0.000016
C20	C	0.881999	-0.047186	0.000001
C21	C	1.492256	-0.044689	-0.000002
C22	C	1.488564	-0.184132	-0.000011
C23	C	1.486833	-0.249647	-0.124608
C24	C	1.483353	-0.380667	-0.124601
C25	C	1.483340	-0.380648	0.124609
C26	C	1.486811	-0.249629	0.124601
C27	C	1.488586	-0.184151	-0.249220
C28	C	1.486856	-0.249666	-0.373827
C29	C	1.483376	-0.380686	-0.373821
C30	C	1.481625	-0.446192	-0.249208
C31	C	1.714625	0.177686	-0.000001
C32	C	1.854067	0.181383	-0.000010
C33	C	1.477920	0.414385	0.000003
C34	C	1.481613	0.553828	0.000003
N35	N	1.485094	0.184855	0.356120
N36	N	1.485092	0.184831	-0.356117
C37	C	1.569753	0.100249	0.428046
C38	C	1.569750	0.100233	0.571929
C39	C	1.400424	0.269441	0.571948
C40	C	1.400423	0.269449	0.428067
C41	C	1.654425	0.015654	0.356099
C42	C	1.739092	-0.068958	0.428025
C43	C	1.739088	-0.068973	0.571908
C44	C	1.654418	0.015623	0.643865
H45	H	0.775313	-0.050018	-0.000019
H46	H	1.808021	-0.137841	0.369430
H47	H	1.808019	-0.137876	0.630468
H48	H	1.481916	-0.433993	0.226063
H49	H	1.331484	0.338342	0.369505
H50	H	1.478773	-0.552875	-0.249213
Br51	Br	0.891537	-0.317196	-0.000009
H52	H	1.250729	-0.037446	0.000034
H53	H	1.078600	0.395336	-0.000006
Br54	Br	0.797748	0.450148	-0.000036
H55	H	1.157227	-0.247915	0.000027
Br56	Br	1.489164	-0.160708	0.293699
Br57	Br	1.493321	-0.006339	-0.249236
Br58	Br	1.489224	-0.160769	-0.542935
Br59	Br	1.654405	0.015583	0.839136
Br60	Br	1.481010	-0.469595	-0.542925
Br61	Br	1.654440	0.015679	0.160830
Br62	Br	1.285524	0.384246	0.669601
