data_functionalizedCrystal
_audit_creation_method	'MofGen! by Chris Wilmer'
_symmetry_space_group_name_H-M	'P1'
_symmetry_Int_Tables_number	1
_symmetry_cell_setting	triclinic
loop_
_symmetry_equiv_pos_as_xyz
  x,y,z
_cell_length_a	13.033293
_cell_length_b	14.908178
_cell_length_c	13.033388
_cell_angle_alpha	86.530735
_cell_angle_beta	90.907614
_cell_angle_gamma	100.025217
loop_
_atom_site_label
_atom_site_type_symbol
_atom_site_fract_x
_atom_site_fract_y
_atom_site_fract_z
Zn1	Zn	1.482148	-0.280436	0.760637
Zn2	Zn	1.982148	0.219564	1.260637
Zn3	Zn	1.496513	-0.409791	0.579072
Zn4	Zn	1.996513	0.090209	1.079072
Zn5	Zn	1.332338	-0.275615	0.567179
Zn6	Zn	1.832338	0.224385	1.067179
Zn7	Zn	1.300564	-0.447382	0.726316
Zn8	Zn	1.800564	0.052618	1.226316
O9	O	1.402891	-0.353306	0.658301
O10	O	1.902891	0.146694	1.158301
O11	O	1.628754	-0.283880	0.755893
O12	O	2.128754	0.216120	1.255893
O13	O	1.494044	-0.374243	0.434909
O14	O	1.994044	0.125757	0.934909
O15	O	1.359497	-0.150233	0.602228
O16	O	1.859497	0.349767	1.102228
O17	O	1.639308	-0.378917	0.622498
O18	O	2.139308	0.121083	1.122498
O19	O	1.469561	-0.153775	0.744361
O20	O	1.969561	0.346225	1.244361
O21	O	1.373426	-0.275664	0.426171
O22	O	1.873426	0.224336	0.926171
O23	O	1.183423	-0.312115	0.568948
O24	O	1.683423	0.187885	1.068948
O25	O	1.305342	-0.442986	0.873454
O26	O	1.805342	0.057014	1.373454
O27	O	1.160078	-0.438312	0.685865
O28	O	1.660078	0.061688	1.185865
O29	O	1.438751	-0.320331	0.898670
O30	O	1.938751	0.179669	1.398670
O31	O	1.463234	-0.540799	0.589217
O32	O	1.963234	-0.040799	1.089217
O33	O	1.319272	-0.568417	0.697397
O34	O	1.819272	-0.068417	1.197397
C35	C	1.134231	-0.378770	0.622392
C36	C	1.634231	0.121230	1.122392
C37	C	1.019293	-0.389688	0.607053
C38	C	1.519293	0.110312	1.107053
C39	C	0.962809	-0.347630	0.666305
C40	C	1.462809	0.152370	1.166305
C41	C	0.844014	-0.358914	0.650452
C42	C	1.344014	0.141086	1.150452
C43	C	1.389389	-0.587284	0.640899
C44	C	1.889389	-0.087284	1.140899
C45	C	1.383703	-0.687376	0.633501
C46	C	1.883703	-0.187376	1.133501
C47	C	1.487508	-0.879024	0.767730
C48	C	1.987508	-0.379024	1.267730
C49	C	1.482169	-0.973070	0.760783
C50	C	1.982169	-0.473070	1.260783
C51	C	1.367679	-0.969515	0.612666
C52	C	1.867679	-0.469515	1.112666
C53	C	1.373018	-0.875469	0.619613
C54	C	1.873018	-0.375469	1.119613
C55	C	1.432936	-0.830227	0.697146
C56	C	1.932936	-0.330227	1.197146
C57	C	1.438281	-0.736179	0.704088
C58	C	1.938281	-0.236179	1.204088
C59	C	1.323786	-0.732627	0.555976
C60	C	1.823786	-0.232627	1.055976
C61	C	1.318446	-0.826672	0.549029
C62	C	1.818446	-0.326672	1.049029
C63	C	1.672599	-0.327743	0.694351
C64	C	2.172599	0.172257	1.194351
C65	C	1.787533	-0.316850	0.709713
C66	C	2.287533	0.183150	1.209713
C67	C	1.366900	-0.386390	0.924066
C68	C	1.866900	0.113610	1.424066
C69	C	1.351562	-0.400488	1.037319
C70	C	1.851562	0.099512	1.537319
C71	C	1.416470	-0.118415	0.675797
C72	C	1.916470	0.381585	1.175797
C73	C	1.422257	-0.018318	0.683252
C74	C	1.922257	0.481682	1.183252
C75	C	1.394895	-0.360661	1.217343
C76	C	1.894895	0.139339	1.717343
C77	C	1.410742	-0.346083	1.100289
C78	C	1.910742	0.153917	1.600289
C79	C	1.438732	-0.320369	1.393567
C80	C	1.938732	0.179631	1.893567
C81	C	1.454066	-0.306263	1.280314
C82	C	1.954066	0.193737	1.780314
H83	H	1.487073	-0.699343	0.767217
H84	H	1.987073	-0.199343	1.267217
H85	H	0.827118	-0.272481	0.772177
H86	H	1.327118	0.227519	1.272177
H87	H	0.804429	-0.403275	0.587982
H88	H	1.304429	0.096725	1.087982
C89	C	1.016276	-0.287702	0.750693
C90	C	1.516276	0.212298	1.250693
H91	H	0.965435	-0.262774	0.785807
H92	H	1.465435	0.237226	1.285807
H93	H	1.050435	-0.323755	0.798040
H94	H	1.550435	0.176245	1.298040
H95	H	1.065934	-0.239590	0.720285
H96	H	1.565934	0.260410	1.220285
C97	C	1.538349	-0.228762	1.236092
C98	C	2.038349	0.271238	1.736092
H99	H	1.573412	-0.196519	1.290778
H100	H	2.073412	0.303481	1.790778
H101	H	1.586994	-0.253802	1.198016
H102	H	2.086994	0.246198	1.698016
H103	H	1.506631	-0.188138	1.192213
H104	H	2.006631	0.311862	1.692213
H105	H	1.279353	-0.692885	0.498500
H106	H	1.779353	-0.192885	0.998500
C107	C	0.965820	-0.449620	0.522671
C108	C	1.465820	0.050380	1.022671
H109	H	0.892990	-0.449348	0.523092
H110	H	1.392990	0.050652	1.023092
H111	H	0.993486	-0.426171	0.457556
H112	H	1.493486	0.073829	0.957556
H113	H	0.977983	-0.510329	0.535321
H114	H	1.477983	-0.010329	1.035321
H115	H	1.473132	-0.288710	1.067548
H116	H	1.973132	0.211290	1.567548
H117	H	1.526601	-1.012798	0.818263
H118	H	2.026601	-0.512798	1.318263
C119	C	1.553398	-0.829258	0.853021
C120	C	2.053398	-0.329258	1.353021
H121	H	1.585127	-0.871792	0.894071
H122	H	2.085127	-0.371792	1.394071
H123	H	1.605844	-0.783419	0.822836
H124	H	2.105844	-0.283419	1.322836
H125	H	1.509856	-0.801875	0.894797
H126	H	2.009856	-0.301875	1.394797
C127	C	1.301781	-1.019291	0.527386
C128	C	1.801781	-0.519291	1.027386
H129	H	1.306424	-1.082288	0.533358
H130	H	1.806424	-0.582288	1.033358
H131	H	1.231151	-1.012367	0.534075
H132	H	1.731151	-0.512367	1.034075
H133	H	1.327131	-0.993932	0.462104
H134	H	1.827131	-0.493932	0.962104
H135	H	1.269660	-0.863522	0.485906
H136	H	1.769660	-0.363522	0.985906
C137	C	1.310610	-0.438158	1.261569
C138	C	1.810610	0.061842	1.761569
H139	H	1.311021	-0.437793	1.334441
H140	H	1.811021	0.062207	1.834441
H141	H	1.244232	-0.429416	1.235874
H142	H	1.744232	0.070584	1.735874
H143	H	1.324592	-0.495082	1.241688
H144	H	1.824592	0.004918	1.741688
C145	C	1.267280	-0.477996	1.081539
C146	C	1.767280	0.022004	1.581539
H147	H	1.267691	-0.477635	1.154411
H148	H	1.767691	0.022365	1.654411
H149	H	1.200899	-0.469261	1.055846
H150	H	1.700899	0.030739	1.555846
H151	H	1.281271	-0.534916	1.061653
H152	H	1.781271	-0.034916	1.561653
