data_functionalizedCrystal
_audit_creation_method	'MofGen! by Chris Wilmer'
_symmetry_space_group_name_H-M	'P1'
_symmetry_Int_Tables_number	1
_symmetry_cell_setting	triclinic
loop_
_symmetry_equiv_pos_as_xyz
  x,y,z
_cell_length_a	15.500369
_cell_length_b	16.109301
_cell_length_c	16.109301
_cell_angle_alpha	83.461481
_cell_angle_beta	87.162514
_cell_angle_gamma	92.829776
loop_
_atom_site_label
_atom_site_type_symbol
_atom_site_fract_x
_atom_site_fract_y
_atom_site_fract_z
O1	O	0.071891	-1.099276	-0.110723
O2	O	0.571891	-0.599276	0.389277
O3	O	0.071905	-0.857213	-0.124023
O4	O	0.571905	-0.357213	0.375977
O5	O	0.071889	-0.984894	0.003658
O6	O	0.571889	-0.484894	0.503658
O7	O	0.071907	-0.971594	-0.238405
O8	O	0.571907	-0.471594	0.261595
O9	O	-0.071997	-0.992601	0.011380
O10	O	0.428003	-0.492601	0.511380
O11	O	-0.071981	-0.864920	-0.116302
O12	O	0.428019	-0.364920	0.383698
O13	O	-0.071995	-1.106983	-0.103002
O14	O	0.428005	-0.606983	0.396998
Cu15	Cu	-0.085126	-0.986655	-0.108947
Cu16	Cu	0.414874	-0.486655	0.391053
Cu17	Cu	0.085036	-0.977541	-0.118078
Cu18	Cu	0.585036	-0.477541	0.381922
O19	O	-0.071979	-0.979301	-0.230683
O20	O	0.428021	-0.479301	0.269317
C21	C	-0.000036	-0.830091	-0.119624
C22	C	0.499964	-0.330091	0.380376
C23	C	-0.000031	-0.737796	-0.118009
C24	C	0.499969	-0.237796	0.381991
C25	C	-0.000055	-0.988209	0.038494
C26	C	0.499945	-0.488209	0.538494
C27	C	-0.000056	-0.986594	0.130789
C28	C	0.499944	-0.486594	0.630789
N29	N	-0.204809	-0.993072	-0.102523
N30	N	0.295191	-0.493072	0.397477
C31	C	-0.749988	-1.025243	-0.070413
C32	C	-0.249988	-0.525243	0.429587
C33	C	-0.659417	-1.020371	-0.075281
C34	C	-0.159417	-0.520371	0.424719
C35	C	-0.614139	-0.961382	-0.134227
C36	C	-0.114139	-0.461382	0.365773
C37	C	-0.659438	-0.907267	-0.188315
C38	C	-0.159438	-0.407267	0.311685
C39	C	-0.750008	-0.912143	-0.183450
C40	C	-0.250008	-0.412143	0.316550
C41	C	-0.340678	-0.943833	-0.151746
C42	C	0.159322	-0.443833	0.348254
C43	C	-0.250101	-0.938959	-0.156605
C44	C	0.249899	-0.438959	0.343395
C45	C	-0.250087	-1.052065	-0.043572
C46	C	0.249913	-0.552065	0.456428
C47	C	-0.340658	-1.056933	-0.038709
C48	C	0.159342	-0.556933	0.461291
C49	C	-0.385949	-1.002821	-0.092799
C50	C	0.114051	-0.502821	0.407201
C51	C	-0.521561	-0.956399	-0.139203
C52	C	-0.021561	-0.456399	0.360797
C53	C	-0.478526	-1.007808	-0.087827
C54	C	0.021474	-0.507808	0.412173
N55	N	0.204719	-0.971130	-0.124495
N56	N	0.704719	-0.471130	0.375505
C57	C	-0.000052	-1.134104	-0.107401
C58	C	0.499948	-0.634104	0.392599
C59	C	-0.000051	-1.226399	-0.109016
C60	C	0.499949	-0.726399	0.390984
C61	C	-0.000036	-0.515524	-0.190016
C62	C	0.499964	-0.015524	0.309984
C63	C	-0.000041	-0.428804	-0.188492
C64	C	0.499959	0.071196	0.311508
C65	C	-0.000049	-0.448678	-0.037003
C66	C	0.499951	0.051322	0.462997
C67	C	-0.000050	-0.535397	-0.038528
C68	C	0.499950	-0.035397	0.461472
C69	C	-0.000039	-0.568817	-0.115037
C70	C	0.499961	-0.068817	0.384963
C71	C	-0.000044	-0.395378	-0.111988
C72	C	0.499956	0.104622	0.388012
C73	C	-0.000050	-0.301352	-0.110335
C74	C	0.499950	0.198648	0.389665
C75	C	-0.000034	-0.662849	-0.116691
C76	C	0.499966	-0.162849	0.383309
C77	C	-0.000033	-0.975986	-0.265519
C78	C	0.499967	-0.475986	0.234481
C79	C	-0.000027	-0.977601	-0.357815
C80	C	0.499973	-0.477601	0.142185
C81	C	-0.000046	-1.058601	0.353061
C82	C	0.499954	-0.558601	0.853061
C83	C	-0.000039	-1.057077	0.439781
C84	C	0.499961	-0.557077	0.939781
C85	C	-0.000034	-0.905588	0.419907
C86	C	0.499966	-0.405588	0.919907
C87	C	-0.000035	-0.907113	0.333188
C88	C	0.499965	-0.407113	0.833188
C89	C	-0.000045	-0.983622	0.299768
C90	C	0.499955	-0.483622	0.799768
C91	C	-0.000037	-0.980573	0.473207
C92	C	0.499963	-0.480573	0.973207
C93	C	-0.000029	-0.978919	0.567232
C94	C	0.499971	-0.478919	1.067232
C95	C	-0.000051	-0.985276	0.205736
C96	C	0.499949	-0.485276	0.705736
H97	H	-0.786847	-1.073275	-0.022409
H98	H	-0.286847	-0.573275	0.477591
H99	H	-0.213203	-1.096121	0.000465
H100	H	0.286797	-0.596121	0.500465
H101	H	-0.000027	-0.843297	0.447128
H102	H	0.499973	-0.343297	0.947128
H103	H	-0.000031	-0.846052	0.289794
H104	H	0.499969	-0.346052	0.789794
H105	H	-0.000055	-0.578791	0.022533
H106	H	0.499945	-0.078791	0.522533
Br107	Br	-0.000023	-0.560877	-0.293850
Br108	Br	0.499977	-0.060877	0.206150
H109	H	-0.000038	-1.118132	0.483170
H110	H	0.499962	-0.618132	0.983170
H111	H	-0.622540	-1.064435	-0.031244
H112	H	-0.122540	-0.564435	0.468756
H113	H	-0.000053	-1.120900	0.325854
H114	H	0.499947	-0.620900	0.825854
H115	H	-0.213241	-0.890919	-0.204609
H116	H	0.286759	-0.390919	0.295391
Br117	Br	-0.402108	-1.136987	0.041293
Br118	Br	0.097892	-0.636987	0.541293
Br119	Br	-0.000061	-0.403317	0.066826
Br120	Br	0.499939	0.096683	0.566826
Br121	Br	-0.402139	-0.870396	-0.225151
Br122	Br	0.097861	-0.370396	0.274849
H123	H	-0.786884	-0.868080	-0.227491
H124	H	-0.286884	-0.368080	0.272509
Br125	Br	-0.539974	-1.087868	-0.007835
Br126	Br	-0.039974	-0.587868	0.492165
Br127	Br	-0.597993	-0.827214	-0.268322
Br128	Br	-0.097993	-0.327214	0.231678
H129	H	-0.484689	-0.908367	-0.187197
H130	H	0.015311	-0.408367	0.312803
Br131	Br	-0.000042	-0.356479	-0.290254
Br132	Br	0.499958	0.143521	0.209746
