data_functionalizedCrystal
_audit_creation_method	'MofGen! by Chris Wilmer'
_symmetry_space_group_name_H-M	'P1'
_symmetry_Int_Tables_number	1
_symmetry_cell_setting	triclinic
loop_
_symmetry_equiv_pos_as_xyz
  x,y,z
_cell_length_a	10.654549
_cell_length_b	8.140239
_cell_length_c	9.065218
_cell_angle_alpha	90.001330
_cell_angle_beta	84.750331
_cell_angle_gamma	90.000456
loop_
_atom_site_label
_atom_site_type_symbol
_atom_site_fract_x
_atom_site_fract_y
_atom_site_fract_z
O1	O	1.668657	0.136568	0.207230
O2	O	1.303257	0.136579	0.226974
O3	O	1.493510	0.136570	0.002418
O4	O	1.478404	0.136577	0.431786
O5	O	1.493503	-0.136657	0.002417
O6	O	1.303250	-0.136648	0.226973
O7	O	1.668651	-0.136659	0.207228
Zn8	Zn	1.485950	-0.180034	0.217100
Zn9	Zn	1.485958	0.179955	0.217102
O10	O	1.478398	-0.136650	0.431784
C11	C	1.256450	-0.000033	0.225524
C12	C	1.116989	-0.000028	0.221187
C13	C	0.906982	-0.000033	0.349315
C14	C	1.038019	-0.000023	0.353402
C15	C	1.064917	-0.000027	0.084876
C16	C	0.933883	-0.000025	0.080792
C17	C	1.200940	0.095706	0.520283
C18	C	1.253007	0.095681	0.656590
C19	C	1.198604	-0.000058	0.773803
C20	C	1.092134	-0.095813	0.754716
C21	C	1.040073	-0.095803	0.618407
C22	C	1.094474	-0.000025	0.501198
C23	C	0.770959	-0.095768	-0.086080
C24	C	0.718896	-0.095769	-0.222391
C25	C	0.773298	-0.000040	-0.339617
C26	C	0.879773	0.095690	-0.320544
C27	C	0.931836	0.095692	-0.184233
C28	C	0.877425	-0.000035	-0.067006
N29	N	1.485953	-0.425717	0.217098
C30	C	1.715458	-0.000043	0.208679
C31	C	1.854918	-0.000037	0.213016
C32	C	1.492055	-0.000041	-0.052561
C33	C	1.487714	-0.000033	-0.216380
N34	N	1.485964	0.425637	0.217093
C35	C	1.479853	-0.000035	0.486764
C36	C	1.484193	-0.000032	0.650583
H37	H	1.245237	0.173687	0.424852
F38	F	1.148967	-0.000027	-0.055837
F39	F	1.366316	0.197593	0.676900
H40	H	0.842692	-0.000041	0.456981
H41	H	0.730898	-0.000055	-0.450609
F42	F	1.034251	-0.197729	0.879469
F43	F	1.045161	0.197576	-0.163937
H44	H	0.924072	0.173638	-0.416000
F45	F	1.254023	-0.000083	0.918870
F46	F	0.713048	-0.197657	0.038685
F47	F	0.926770	-0.197705	0.598087
F48	F	0.605583	-0.197675	-0.242693
