data_functionalizedCrystal
_audit_creation_method	'MofGen! by Chris Wilmer'
_symmetry_space_group_name_H-M	'P1'
_symmetry_Int_Tables_number	1
_symmetry_cell_setting	triclinic
loop_
_symmetry_equiv_pos_as_xyz
  x,y,z
_cell_length_a	12.827893
_cell_length_b	12.827893
_cell_length_c	12.827885
_cell_angle_alpha	89.974949
_cell_angle_beta	90.021189
_cell_angle_gamma	89.998281
loop_
_atom_site_label
_atom_site_type_symbol
_atom_site_fract_x
_atom_site_fract_y
_atom_site_fract_z
Zn1	Zn	-1.597756	-0.416032	-0.590937
Zn2	Zn	-1.097756	0.083968	-0.090937
Zn3	Zn	-1.597686	-0.590810	-0.416211
Zn4	Zn	-1.097686	-0.090810	0.083789
Zn5	Zn	-1.422997	-0.416078	-0.416204
Zn6	Zn	-0.922997	0.083922	0.083796
Zn7	Zn	-1.423019	-0.590727	-0.590905
Zn8	Zn	-0.923019	-0.090727	-0.090905
O9	O	-1.510365	-0.503412	-0.503564
O10	O	-1.010365	-0.003412	-0.003564
O11	O	-1.743983	-0.439233	-0.567775
O12	O	-1.243983	0.060767	-0.067775
O13	O	-1.574475	-0.567685	-0.269974
O14	O	-1.074475	-0.067685	0.230026
O15	O	-1.446200	-0.269836	-0.439393
O16	O	-0.946200	0.230164	0.060607
O17	O	-1.743932	-0.567641	-0.439405
O18	O	-1.243932	-0.067641	0.060595
O19	O	-1.574594	-0.269802	-0.567768
O20	O	-1.074594	0.230198	-0.067768
O21	O	-1.446132	-0.439310	-0.269969
O22	O	-0.946132	0.060690	0.230031
O23	O	-1.276764	-0.439230	-0.439363
O24	O	-0.776764	0.060770	0.060637
O25	O	-1.446236	-0.567499	-0.737146
O26	O	-0.946236	-0.067499	-0.237146
O27	O	-1.276780	-0.567543	-0.567715
O28	O	-0.776780	-0.067543	-0.067715
O29	O	-1.574615	-0.439152	-0.737169
O30	O	-1.074615	0.060848	-0.237169
O31	O	-1.574496	-0.737035	-0.439375
O32	O	-1.074496	-0.237035	0.060625
O33	O	-1.446169	-0.736974	-0.567722
O34	O	-0.946169	-0.236974	-0.067722
C35	C	-1.238855	-0.503383	-0.503535
C36	C	-0.738855	-0.003383	-0.003535
C37	C	-1.122702	-0.503396	-0.503548
C38	C	-0.622702	-0.003396	-0.003548
C39	C	-1.070942	-0.439967	-0.567167
C40	C	-0.570942	0.060033	-0.067167
C41	C	-0.950892	-0.439978	-0.567181
C42	C	-0.450892	0.060022	-0.067181
C43	C	-1.510356	-0.774921	-0.503568
C44	C	-1.010356	-0.274921	-0.003568
C45	C	-1.510447	-0.891075	-0.503605
C46	C	-1.010447	-0.391075	-0.003605
C47	C	-1.510436	-0.503311	-0.776135
C48	C	-1.010436	-0.003311	-0.276135
C49	C	-1.510466	-0.503268	-0.892288
C50	C	-1.010466	-0.003268	-0.392288
C51	C	-0.782935	-0.503432	-0.503586
C52	C	-0.282935	-0.003432	-0.003586
C53	C	-0.899088	-0.503419	-0.503573
C54	C	-0.399088	-0.003419	-0.003573
C55	C	-1.510402	-0.230841	-0.503583
C56	C	-1.010402	0.269159	-0.003583
C57	C	-1.510418	-0.114688	-0.503591
C58	C	-1.010418	0.385312	-0.003591
C59	C	-1.446898	-0.062920	-0.440077
C60	C	-0.946898	0.437080	0.059923
C61	C	-1.446913	0.057130	-0.440084
C62	C	-0.946913	0.557130	0.059916
C63	C	-1.573999	-0.439746	-0.944084
C64	C	-1.073999	0.060254	-0.444084
C65	C	-1.574031	-0.439700	-1.064134
C66	C	-1.074031	0.060300	-0.564134
C67	C	-1.510354	-0.503436	-0.232054
C68	C	-1.010354	-0.003436	0.267946
C69	C	-1.510526	-0.503184	-0.115902
C70	C	-1.010526	-0.003184	0.384098
H71	H	-0.906380	-0.385678	-0.621651
H72	H	-0.406380	0.114322	-0.121651
H73	H	-1.115505	-0.385650	-0.621618
H74	H	-0.615505	0.114350	-0.121618
H75	H	-1.564836	0.064413	-0.557981
H76	H	-1.064836	0.564413	-0.057981
H77	H	-1.078138	-0.557707	-0.449090
H78	H	-0.578138	-0.057707	0.050910
H79	H	-1.564807	-0.070133	-0.557977
H80	H	-1.064807	0.429867	-0.057977
Cl81	Cl	-0.967798	-0.587274	-0.419480
Cl82	Cl	-0.467798	-0.087274	0.080520
Cl83	Cl	-1.362904	-0.131702	-0.356123
Cl84	Cl	-0.862904	0.368298	0.143877
H85	H	-1.628363	-0.385392	-0.899552
H86	H	-1.128363	0.114608	-0.399552
H87	H	-1.392535	0.101649	-0.385703
H88	H	-0.892535	0.601649	0.114297
Cl89	Cl	-1.658020	-0.355736	-1.132900
Cl90	Cl	-1.158020	0.144264	-0.632900
Cl91	Cl	-1.426515	-0.587180	-0.961033
Cl92	Cl	-0.926515	-0.087180	-0.461033
Cl93	Cl	-1.426546	-0.587163	-1.047143
Cl94	Cl	-0.926546	-0.087163	-0.547143
