data_functionalizedCrystal
_audit_creation_method	'MofGen! by Chris Wilmer'
_symmetry_space_group_name_H-M	'P1'
_symmetry_Int_Tables_number	1
_symmetry_cell_setting	triclinic
loop_
_symmetry_equiv_pos_as_xyz
  x,y,z
_cell_length_a	8.559649
_cell_length_b	13.596369
_cell_length_c	8.597249
_cell_angle_alpha	82.296473
_cell_angle_beta	77.625029
_cell_angle_gamma	90.005140
loop_
_atom_site_label
_atom_site_type_symbol
_atom_site_fract_x
_atom_site_fract_y
_atom_site_fract_z
O1	O	2.119303	0.086280	-0.053154
O2	O	1.655362	0.079428	0.027747
O3	O	1.896465	0.102307	-0.242273
O4	O	1.878199	0.063402	0.216866
O5	O	1.896435	-0.061277	-0.242256
O6	O	1.655332	-0.084156	0.027764
O7	O	2.119273	-0.077304	-0.053137
Zn8	Zn	1.887298	-0.106703	-0.012684
Zn9	Zn	1.887337	0.108827	-0.012706
O10	O	1.878169	-0.100183	0.216883
C11	C	1.595913	-0.002883	0.033886
C12	C	1.418817	-0.004428	0.052136
N13	N	1.887282	-0.253795	-0.012671
C14	C	1.887290	-0.342794	-0.012668
C15	C	1.887306	-0.454444	-0.012681
C16	C	1.887326	-0.543433	-0.012701
C17	C	1.887344	-0.655090	-0.012713
C18	C	2.178722	0.005009	-0.059276
C19	C	2.355817	0.006561	-0.077526
C20	C	1.894490	0.025452	-0.300500
C21	C	1.888629	0.040161	-0.474022
N22	N	1.887365	0.255921	-0.012733
C23	C	1.880145	-0.023325	0.275110
C24	C	1.886006	-0.038028	0.448632
H25	H	1.337262	-0.015012	0.177114
F26	F	1.885726	0.142369	-0.560990
H27	H	1.888243	-0.116217	-0.484839
H28	H	1.437363	0.017155	-0.202496
