data_functionalizedCrystal
_audit_creation_method	'MofGen! by Chris Wilmer'
_symmetry_space_group_name_H-M	'P1'
_symmetry_Int_Tables_number	1
_symmetry_cell_setting	triclinic
loop_
_symmetry_equiv_pos_as_xyz
  x,y,z
_cell_length_a	18.050590
_cell_length_b	18.050590
_cell_length_c	17.077396
_cell_angle_alpha	89.970225
_cell_angle_beta	89.996080
_cell_angle_gamma	90.007719
loop_
_atom_site_label
_atom_site_type_symbol
_atom_site_fract_x
_atom_site_fract_y
_atom_site_fract_z
Zn1	Zn	1.135377	-0.295874	-0.443509
Zn2	Zn	1.468710	0.037459	-0.110176
Zn3	Zn	1.802043	0.370792	0.223157
Zn4	Zn	1.135298	-0.420071	-0.312240
Zn5	Zn	1.468632	-0.086738	0.021093
Zn6	Zn	1.801965	0.246595	0.354426
Zn7	Zn	1.011186	-0.295876	-0.312293
Zn8	Zn	1.344519	0.037457	0.021040
Zn9	Zn	1.677852	0.370790	0.354374
Zn10	Zn	1.011165	-0.420003	-0.443500
Zn11	Zn	1.344498	-0.086670	-0.110166
Zn12	Zn	1.677832	0.246663	0.223167
O13	O	1.073256	-0.357956	-0.377885
O14	O	1.406590	-0.024623	-0.044552
O15	O	1.739923	0.308710	0.288781
O16	O	1.239291	-0.312377	-0.426078
O17	O	1.572624	0.020956	-0.092745
O18	O	1.905958	0.354290	0.240589
O19	O	1.118810	-0.403626	-0.202400
O20	O	1.452144	-0.070293	0.130933
O21	O	1.785477	0.263041	0.464266
O22	O	1.027702	-0.191951	-0.329725
O23	O	1.361035	0.141382	0.003608
O24	O	1.694368	0.474715	0.336942
O25	O	1.239233	-0.403624	-0.329635
O26	O	1.572566	-0.070291	0.003698
O27	O	1.905900	0.263043	0.337031
O28	O	1.118944	-0.191950	-0.426129
O29	O	1.452277	0.141383	-0.092796
O30	O	1.785611	0.474717	0.240538
O31	O	1.027625	-0.312380	-0.202439
O32	O	1.360959	0.020953	0.130894
O33	O	1.694292	0.354286	0.464228
O34	O	0.907258	-0.312314	-0.329716
O35	O	1.240592	0.021019	0.003618
O36	O	1.573925	0.354352	0.336951
O37	O	1.027666	-0.403508	-0.553348
O38	O	1.360999	-0.070175	-0.220014
O39	O	1.694333	0.263159	0.113319
O40	O	0.907243	-0.403510	-0.426113
O41	O	1.240576	-0.070177	-0.092779
O42	O	1.573910	0.263157	0.240554
O43	O	1.118924	-0.312311	-0.553355
O44	O	1.452257	0.021022	-0.220022
O45	O	1.785590	0.354356	0.113312
O46	O	1.118790	-0.523987	-0.329626
O47	O	1.452123	-0.190654	0.003707
O48	O	1.785457	0.142680	0.337041
O49	O	1.027590	-0.523937	-0.426062
O50	O	1.360923	-0.190604	-0.092728
O51	O	1.694256	0.142730	0.240605
C52	C	0.880304	-0.357906	-0.377919
C53	C	1.213638	-0.024572	-0.044586
C54	C	1.546971	0.308761	0.288747
C55	C	0.797758	-0.357902	-0.377952
C56	C	1.131092	-0.024569	-0.044619
C57	C	1.464425	0.308765	0.288714
C58	C	0.598321	-0.407636	-0.430249
C59	C	0.931654	-0.074303	-0.096915
C60	C	1.264988	0.259031	0.236418
C61	C	0.548918	-0.339919	-0.449566
C62	C	0.882251	-0.006586	-0.116233
C63	C	1.215585	0.326748	0.217101
C64	C	0.646628	-0.357943	-0.377914
C65	C	0.979961	-0.024610	-0.044581
C66	C	1.313295	0.308723	0.288753
C67	C	0.548949	-0.425699	-0.358596
C68	C	0.882283	-0.092366	-0.025262
C69	C	1.215616	0.240968	0.308071
C70	C	0.500643	-0.357989	-0.377878
C71	C	0.833976	-0.024656	-0.044545
C72	C	1.167310	0.308677	0.288788
C73	C	0.598312	-0.290190	-0.397269
C74	C	0.931646	0.043143	-0.063936
C75	C	1.264979	0.376476	0.269398
C76	C	0.598348	-0.376016	-0.306265
C77	C	0.931681	-0.042683	0.027068
C78	C	1.265015	0.290651	0.360401
C79	C	0.548967	-0.308252	-0.325556
C80	C	0.882301	0.025081	0.007778
C81	C	1.215634	0.358414	0.341111
C82	C	0.730726	-0.357918	-0.377937
C83	C	1.064060	-0.024584	-0.044603
C84	C	1.397393	0.308749	0.288730
C85	C	0.416546	-0.358007	-0.377856
C86	C	0.749880	-0.024674	-0.044523
C87	C	1.083213	0.308659	0.288811
C88	C	1.073199	-0.550909	-0.377854
C89	C	1.406533	-0.217575	-0.044521
C90	C	1.739866	0.115758	0.288812
C91	C	1.073243	-0.633454	-0.377867
C92	C	1.406576	-0.300121	-0.044534
C93	C	1.739909	0.033212	0.288800
C94	C	1.122941	-0.832905	-0.325498
C95	C	1.456274	-0.499572	0.007835
C96	C	1.789607	-0.166238	0.341168
C97	C	1.141082	-0.882240	-0.397136
C98	C	1.474415	-0.548906	-0.063803
C99	C	1.807748	-0.215573	0.269531
C100	C	1.073285	-0.784585	-0.377898
C101	C	1.406618	-0.451251	-0.044565
C102	C	1.739952	-0.117918	0.288768
C103	C	1.055220	-0.882332	-0.306293
C104	C	1.388553	-0.548999	0.027040
C105	C	1.721886	-0.215665	0.360374
C106	C	1.073327	-0.930570	-0.377922
C107	C	1.406660	-0.597236	-0.044589
C108	C	1.739994	-0.263903	0.288744
C109	C	1.091461	-0.832832	-0.449573
C110	C	1.424794	-0.499498	-0.116240
C111	C	1.758127	-0.166165	0.217093
C112	C	1.005567	-0.832920	-0.358682
C113	C	1.338900	-0.499586	-0.025349
C114	C	1.672234	-0.166253	0.307984
C115	C	1.023682	-0.882232	-0.430369
C116	C	1.357016	-0.548899	-0.097036
C117	C	1.690349	-0.215565	0.236298
C118	C	1.073263	-0.700486	-0.377884
C119	C	1.406596	-0.367153	-0.044550
C120	C	1.739929	-0.033820	0.288783
C121	C	1.073349	-1.014666	-0.377945
C122	C	1.406683	-0.681333	-0.044612
C123	C	1.740016	-0.348000	0.288722
C124	C	1.266962	-0.358008	-0.377852
C125	C	1.600295	-0.024675	-0.044519
C126	C	1.933629	0.308659	0.288815
C127	C	1.349508	-0.358030	-0.377838
C128	C	1.682841	-0.024696	-0.044504
C129	C	2.016174	0.308637	0.288829
C130	C	1.073301	-0.357902	-0.582630
C131	C	1.406635	-0.024568	-0.249296
C132	C	1.739968	0.308765	0.084037
C133	C	1.073320	-0.357878	-0.669880
C134	C	1.406654	-0.024545	-0.336546
C135	C	1.739987	0.308788	-0.003213
C136	C	1.073334	-0.164251	-0.377934
C137	C	1.406667	0.169083	-0.044601
C138	C	1.740001	0.502416	0.288733
C139	C	1.073367	-0.081705	-0.377955
C140	C	1.406700	0.251628	-0.044621
C141	C	1.740034	0.584962	0.288712
C142	C	1.120840	-0.310388	-0.710875
C143	C	1.454173	0.022945	-0.377541
C144	C	1.787507	0.356279	-0.044208
C145	C	1.120849	-0.310363	-0.792855
C146	C	1.454182	0.022970	-0.459522
C147	C	1.787516	0.356303	-0.126189
C148	C	1.073342	-0.357833	-0.833839
C149	C	1.406675	-0.024500	-0.500506
C150	C	1.740008	0.308833	-0.167172
C151	C	1.025817	-0.405326	-0.792838
C152	C	1.359150	-0.071992	-0.459505
C153	C	1.692483	0.261341	-0.126172
C154	C	1.025804	-0.405346	-0.710859
C155	C	1.359138	-0.072013	-0.377526
C156	C	1.692471	0.261321	-0.044193
C157	C	1.025846	-0.405281	-0.963708
C158	C	1.359180	-0.071948	-0.630375
C159	C	1.692513	0.261386	-0.297042
C160	C	1.025859	-0.405262	-1.045693
C161	C	1.359193	-0.071928	-0.712360
C162	C	1.692526	0.261405	-0.379026
C163	C	1.120891	-0.310298	-1.045704
C164	C	1.454224	0.023035	-0.712371
C165	C	1.787558	0.356368	-0.379038
C166	C	1.120879	-0.310319	-0.963725
C167	C	1.454212	0.023015	-0.630392
C168	C	1.787546	0.356348	-0.297059
C169	C	1.073355	-0.357812	-0.922730
C170	C	1.406688	-0.024479	-0.589397
C171	C	1.740021	0.308854	-0.256064
C172	C	1.073254	-0.357957	-0.173938
C173	C	1.406588	-0.024624	0.159396
C174	C	1.739921	0.308709	0.492729
C175	C	1.073379	-0.357771	-0.086688
C176	C	1.406712	-0.024438	0.246645
C177	C	1.740046	0.308895	0.579978
H178	H	0.527434	-0.266200	-0.281283
H179	H	0.860767	0.067133	0.052050
H180	H	1.194101	0.400467	0.385384
O181	O	0.929712	-0.804185	-0.337103
O182	O	1.263046	-0.470852	-0.003770
O183	O	1.596379	-0.137519	0.329563
H184	H	0.892061	-0.851620	-0.325795
H185	H	1.225394	-0.518287	0.007538
H186	H	1.558727	-0.184953	0.340871
H187	H	0.987132	-0.443974	-0.826214
H188	H	1.320466	-0.110640	-0.492881
H189	H	1.653799	0.222693	-0.159547
H190	H	0.619993	-0.449586	-0.474556
H191	H	0.953327	-0.116253	-0.141222
H192	H	1.286660	0.217081	0.192111
H193	H	0.987101	-0.444010	-0.677482
H194	H	1.320435	-0.110677	-0.344149
H195	H	1.653768	0.222657	-0.010815
O196	O	0.520226	-0.501573	-0.336969
O197	O	0.853560	-0.168240	-0.003636
O198	O	1.186893	0.165094	0.329697
H199	H	0.486408	-0.497548	-0.282854
H200	H	0.819742	-0.164215	0.050480
H201	H	1.153075	0.169118	0.383813
H202	H	0.620077	-0.391308	-0.245706
H203	H	0.953410	-0.057974	0.087627
H204	H	1.286743	0.275359	0.420961
O205	O	1.172106	-0.259147	-0.837075
O206	O	1.505440	0.074187	-0.503741
O207	O	1.838773	0.407520	-0.170408
H208	H	1.205147	-0.226150	-0.794803
H209	H	1.538480	0.107184	-0.461470
H210	H	1.871814	0.440517	-0.128137
H211	H	1.164947	-0.811246	-0.281231
H212	H	1.498280	-0.477912	0.052102
H213	H	1.831614	-0.144579	0.385435
O214	O	1.216959	-0.910941	-0.418695
O215	O	1.550292	-0.577607	-0.085362
O216	O	1.883626	-0.244274	0.247972
H217	H	1.258064	-0.891190	-0.375107
H218	H	1.591397	-0.557857	-0.041774
H219	H	1.924731	-0.224523	0.291559
H220	H	0.981708	-0.903754	-0.474743
H221	H	1.315042	-0.570421	-0.141410
H222	H	1.648375	-0.237087	0.191923
O223	O	1.034944	-0.911129	-0.226070
O224	O	1.368278	-0.577796	0.107263
O225	O	1.701611	-0.244462	0.440597
H226	H	1.076227	-0.891364	-0.182677
H227	H	1.409560	-0.558031	0.150656
H228	H	1.742893	-0.224697	0.483989
O229	O	1.172081	-0.259188	-0.666671
O230	O	1.505414	0.074145	-0.333338
O231	O	1.838748	0.407479	-0.000005
H232	H	1.205120	-0.226156	-0.708954
H233	H	1.538454	0.107177	-0.375621
H234	H	1.871787	0.440510	-0.042288
O235	O	1.111821	-0.804164	-0.529824
O236	O	1.445154	-0.470831	-0.196490
O237	O	1.778488	-0.137497	0.136843
H238	H	1.111673	-0.742677	-0.529175
H239	H	1.445007	-0.409343	-0.195841
H240	H	1.778340	-0.076010	0.137492
O241	O	0.520152	-0.319759	-0.529823
O242	O	0.853485	0.013575	-0.196490
O243	O	1.186818	0.346908	0.136844
H244	H	0.540759	-0.263945	-0.546282
H245	H	0.874093	0.069389	-0.212949
H246	H	1.207426	0.402722	0.120384
O247	O	0.626903	-0.214292	-0.418994
O248	O	0.960237	0.119041	-0.085661
O249	O	1.293570	0.452374	0.247672
H250	H	0.688391	-0.214877	-0.418870
H251	H	1.021724	0.118456	-0.085537
H252	H	1.355058	0.451790	0.247797
H253	H	1.159568	-0.271669	-0.930359
H254	H	1.492901	0.061665	-0.597025
H255	H	1.826235	0.394998	-0.263692
O256	O	1.172145	-0.259064	-1.089913
O257	O	1.505478	0.074270	-0.756580
O258	O	1.838812	0.407603	-0.423246
H259	H	1.164166	-0.267014	-1.153804
H260	H	1.497499	0.066319	-0.820470
H261	H	1.830833	0.399652	-0.487137
H262	H	0.987173	-0.443914	-1.079060
H263	H	1.320506	-0.110581	-0.745727
H264	H	1.653840	0.222752	-0.412393
O265	O	0.974585	-0.456500	-0.919487
O266	O	1.307918	-0.123166	-0.586154
O267	O	1.641252	0.210167	-0.252821
H268	H	0.941555	-0.489509	-0.961757
H269	H	1.274888	-0.156176	-0.628424
H270	H	1.608222	0.177157	-0.295090
