data_functionalizedCrystal
_audit_creation_method	'MofGen! by Chris Wilmer'
_symmetry_space_group_name_H-M	'P1'
_symmetry_Int_Tables_number	1
_symmetry_cell_setting	triclinic
loop_
_symmetry_equiv_pos_as_xyz
  x,y,z
_cell_length_a	11.169417
_cell_length_b	18.101397
_cell_length_c	11.169409
_cell_angle_alpha	89.959136
_cell_angle_beta	90.019824
_cell_angle_gamma	89.975395
loop_
_atom_site_label
_atom_site_type_symbol
_atom_site_fract_x
_atom_site_fract_y
_atom_site_fract_z
Zn1	Zn	1.834851	0.294752	0.678472
Zn2	Zn	2.334851	0.794752	1.178472
Zn3	Zn	1.834693	0.418619	0.477759
Zn4	Zn	2.334693	0.918619	0.977759
Zn5	Zn	1.634137	0.294797	0.477806
Zn6	Zn	2.134137	0.794797	0.977806
Zn7	Zn	1.634097	0.418558	0.678404
Zn8	Zn	2.134097	0.918558	1.178404
O9	O	1.734444	0.356682	0.578110
O10	O	2.234444	0.856682	1.078110
O11	O	2.002779	0.311190	0.651855
O12	O	2.502779	0.811190	1.151855
O13	O	1.808039	0.402238	0.309815
O14	O	2.308039	0.902238	0.809815
O15	O	1.660844	0.191159	0.504473
O16	O	2.160844	0.691159	1.004473
O17	O	2.002664	0.402194	0.504392
O18	O	2.502664	0.902194	1.004392
O19	O	1.808308	0.191125	0.651901
O20	O	2.308308	0.691125	1.151901
O21	O	1.660691	0.311267	0.309850
O22	O	2.160691	0.811267	0.809850
O23	O	1.466182	0.311208	0.504407
O24	O	1.966182	0.811208	1.004407
O25	O	1.660777	0.402091	0.846362
O26	O	2.160777	0.902091	1.346362
O27	O	1.466153	0.402135	0.651785
O28	O	1.966153	0.902135	1.151785
O29	O	1.808270	0.311131	0.846412
O30	O	2.308270	0.811131	1.346412
O31	O	1.808001	0.522244	0.504326
O32	O	2.308001	1.022244	1.004326
O33	O	1.660624	0.522199	0.651739
O34	O	2.160624	1.022199	1.151739
C35	C	1.422620	0.356670	0.578095
C36	C	1.922620	0.856670	1.078095
C37	C	1.289220	0.356683	0.578116
C38	C	1.789220	0.856683	1.078116
C39	C	1.734324	0.549092	0.578046
C40	C	2.234324	1.049092	1.078046
C41	C	1.734382	0.631406	0.578059
C42	C	2.234382	1.131406	1.078059
C43	C	1.734438	0.782115	0.578085
C44	C	2.234438	1.282115	1.078085
C45	C	1.827252	0.813465	0.485423
C46	C	2.327252	1.313465	0.985423
C47	C	1.827011	0.899084	0.485073
C48	C	2.327011	1.399084	0.985073
C49	C	1.734495	0.930497	0.578109
C50	C	2.234495	1.430497	1.078109
C51	C	1.607923	0.899485	0.544075
C52	C	2.107923	1.399485	1.044075
C53	C	1.608427	0.813841	0.543388
C54	C	2.108427	1.313841	1.043388
C55	C	1.767103	0.813596	0.705018
C56	C	2.267103	1.313596	1.205018
C57	C	1.769927	0.899246	0.704356
C58	C	2.269927	1.399246	1.204356
C59	C	1.734520	1.014357	0.578125
C60	C	2.234520	1.514357	1.078125
C61	C	1.734405	0.698255	0.578066
C62	C	2.234405	1.198255	1.078066
C63	C	2.047487	0.356693	0.578126
C64	C	2.547487	0.856693	1.078126
C65	C	2.180887	0.356699	0.578133
C66	C	2.680887	0.856699	1.078133
C67	C	1.734537	0.356599	0.891153
C68	C	2.234537	0.856599	1.391153
C69	C	1.734576	0.356564	1.024553
C70	C	2.234576	0.856564	1.524553
C71	C	1.734570	1.163520	0.578174
C72	C	2.234570	1.663520	1.078174
C73	C	1.734551	1.081206	0.578134
C74	C	2.234551	1.581206	1.078134
C75	C	1.734422	0.356710	0.266285
C76	C	2.234422	0.856710	0.766285
C77	C	1.734615	0.356537	0.132886
C78	C	2.234615	0.856537	0.632886
H79	H	1.921375	0.792823	0.506438
H80	H	2.421375	1.292823	1.006438
C81	C	1.511810	0.785822	0.630621
C82	C	2.011810	1.285822	1.130621
H83	H	1.472418	0.826785	0.666313
H84	H	1.972418	1.326785	1.166313
H85	H	1.548262	0.756615	0.691209
H86	H	2.048262	1.256615	1.191209
H87	H	1.455127	0.756793	0.588143
H88	H	1.955127	1.256793	1.088143
C89	C	1.889648	0.784350	0.746927
C90	C	2.389648	1.284350	1.246927
H91	H	1.922039	0.752663	0.687395
H92	H	2.422039	1.252663	1.187395
H93	H	1.880060	0.757637	0.819527
H94	H	2.380060	1.257637	1.319527
H95	H	1.942460	0.824711	0.759684
H96	H	2.442460	1.324711	1.259684
C97	C	1.569949	0.928540	0.420129
C98	C	2.069949	1.428540	0.920129
H99	H	1.493232	0.909468	0.400331
H100	H	1.993232	1.409468	0.900331
H101	H	1.626524	0.913111	0.361786
H102	H	2.126524	1.413111	0.861786
H103	H	1.566645	0.980973	0.421812
H104	H	2.066645	1.480973	0.921812
H105	H	1.580787	0.793928	0.450611
H106	H	2.080787	1.293928	0.950611
C107	C	1.675803	0.786202	0.798289
C108	C	2.175803	1.286202	1.298289
H109	H	1.696005	0.805410	0.874804
H110	H	2.196005	1.305410	1.374804
H111	H	1.677133	0.733756	0.801067
H112	H	2.177133	1.233756	1.301067
H113	H	1.597938	0.802549	0.776536
H114	H	2.097938	1.302549	1.276536
C115	C	1.511972	0.926971	0.632451
C116	C	2.011972	1.426971	1.132451
H117	H	1.548338	0.957681	0.691025
H118	H	2.048338	1.457681	1.191025
H119	H	1.475465	0.885840	0.670631
H120	H	1.975465	1.385840	1.170631
H121	H	1.452925	0.954362	0.590216
H122	H	1.952925	1.454362	1.090216
H123	H	1.805380	0.919634	0.391028
H124	H	2.305380	1.419634	0.891028
C125	C	1.895522	0.926906	0.739292
C126	C	2.395522	1.426906	1.239292
H127	H	1.926271	0.957344	0.677183
H128	H	2.426271	1.457344	1.177183
H129	H	1.947303	0.885891	0.751039
H130	H	2.447303	1.385891	1.251039
H131	H	1.890398	0.954649	0.811277
H132	H	2.390398	1.454649	1.311277
H133	H	1.707301	0.920625	0.777075
H134	H	2.207301	1.420625	1.277075
H135	H	1.805872	0.792001	0.391907
H136	H	2.305872	1.292001	0.891907
C137	C	1.953784	0.927410	0.513791
C138	C	2.453784	1.427410	1.013791
H139	H	2.005898	0.886574	0.525771
H140	H	2.505898	1.386574	1.025771
H141	H	1.951474	0.956629	0.584366
H142	H	2.451474	1.456629	1.084366
H143	H	1.982206	0.956493	0.448930
H144	H	2.482206	1.456493	0.948930
