data_functionalizedCrystal
_audit_creation_method	'MofGen! by Chris Wilmer'
_symmetry_space_group_name_H-M	'P1'
_symmetry_Int_Tables_number	1
_symmetry_cell_setting	triclinic
loop_
_symmetry_equiv_pos_as_xyz
  x,y,z
_cell_length_a	16.992695
_cell_length_b	16.974897
_cell_length_c	14.586319
_cell_angle_alpha	93.655081
_cell_angle_beta	90.002484
_cell_angle_gamma	92.972379
loop_
_atom_site_label
_atom_site_type_symbol
_atom_site_fract_x
_atom_site_fract_y
_atom_site_fract_z
O1	O	-0.099985	1.055450	0.154456
O2	O	0.400015	1.555450	0.654456
O3	O	-0.112701	0.826050	0.137453
O4	O	0.387299	1.326050	0.637453
O5	O	0.007799	0.939830	0.145895
O6	O	0.507799	1.439830	0.645895
O7	O	-0.220484	0.941669	0.146015
O8	O	0.279516	1.441669	0.646015
O9	O	0.007801	0.939822	-0.006587
O10	O	0.507801	1.439822	0.493413
O11	O	-0.112699	0.826041	-0.015028
O12	O	0.387301	1.326041	0.484972
O13	O	-0.099983	1.055441	0.001974
O14	O	0.400017	1.555441	0.501974
Cu15	Cu	-0.106341	0.940740	-0.020450
Cu16	Cu	0.393659	1.440740	0.479550
Cu17	Cu	-0.106343	0.940750	0.159877
Cu18	Cu	0.393657	1.440750	0.659877
O19	O	-0.220483	0.941661	-0.006467
O20	O	0.279517	1.441661	0.493533
C21	C	-0.112214	0.796557	0.059027
C22	C	0.387786	1.296557	0.559027
C23	C	-0.110757	0.708689	0.052516
C24	C	0.389243	1.208689	0.552516
C25	C	-0.110076	0.667406	0.132567
C26	C	0.389924	1.167406	0.632567
C27	C	-0.108720	0.584845	0.126435
C28	C	0.391280	1.084845	0.626435
C29	C	-0.108039	0.543568	0.040251
C30	C	0.391961	1.043568	0.540251
C31	C	-0.108723	0.584856	-0.039807
C32	C	0.391277	1.084856	0.460193
C33	C	-0.110085	0.667416	-0.033674
C34	C	0.389915	1.167416	0.466326
C35	C	-0.103972	0.296650	0.012996
C36	C	0.396028	0.796650	0.512996
C37	C	-0.102608	0.214085	0.006869
C38	C	0.397392	0.714085	0.506869
C39	C	-0.102606	0.214079	0.173112
C40	C	0.397394	0.714079	0.673112
C41	C	-0.103963	0.296640	0.179237
C42	C	0.396037	0.796640	0.679237
C43	C	-0.104651	0.337921	0.099179
C44	C	0.395349	0.837921	0.599179
N45	N	-0.106651	0.459176	0.033981
N46	N	0.393349	0.959176	0.533981
N47	N	-0.106045	0.422311	0.105450
N48	N	0.393955	0.922311	0.605450
C49	C	-0.249694	0.944031	0.069947
C50	C	0.250306	1.444031	0.569947
C51	C	-0.336731	0.951091	0.070465
C52	C	0.163269	1.451091	0.570465
C53	C	-0.387041	0.882976	0.065417
C54	C	0.112959	1.382976	0.565417
C55	C	-0.468821	0.889614	0.065920
C56	C	0.031179	1.389614	0.565920
C57	C	-0.500289	0.964367	0.071465
C58	C	-0.000289	1.464367	0.571465
C59	C	-0.449972	1.032487	0.076516
C60	C	0.050028	1.532487	0.576516
C61	C	-0.368194	1.025848	0.076019
C62	C	0.131806	1.525848	0.576019
C63	C	-0.743858	0.991882	0.073525
C64	C	-0.243858	1.491882	0.573525
C65	C	-0.825643	0.998515	0.074019
C66	C	-0.325643	1.498515	0.574019
C67	C	-0.844486	0.855641	0.063425
C68	C	-0.344486	1.355641	0.563425
C69	C	-0.762705	0.849009	0.062923
C70	C	-0.262705	1.349009	0.562923
C71	C	-0.712396	0.917129	0.067979
C72	C	-0.212396	1.417129	0.567979
N73	N	-0.583880	0.971154	0.071977
N74	N	-0.083880	1.471154	0.571977
N75	N	-0.628806	0.910341	0.067473
N76	N	-0.128806	1.410341	0.567473
C77	C	0.037010	0.937460	0.069482
C78	C	0.537010	1.437460	0.569482
C79	C	0.124047	0.930400	0.068971
C80	C	0.624047	1.430400	0.568971
C81	C	-0.100470	1.084934	0.080403
C82	C	0.399530	1.584934	0.580403
C83	C	-0.101926	1.172802	0.086920
C84	C	0.398074	1.672802	0.586920
N85	N	-0.106339	0.940739	-0.147281
N86	N	0.393661	1.440739	0.352719
C87	C	-0.052999	0.991140	-0.378549
C88	C	0.447001	1.491140	0.121451
C89	C	-0.052997	0.991142	-0.474530
C90	C	0.447003	1.491142	0.025470
C91	C	-0.159681	0.890351	-0.482017
C92	C	0.340319	1.390351	0.017983
C93	C	-0.159678	0.890346	-0.386038
C94	C	0.340322	1.390346	0.113962
C95	C	-0.106338	0.940744	-0.334306
C96	C	0.393662	1.440744	0.165694
C97	C	-0.106339	0.940752	-0.526266
C98	C	0.393661	1.440752	-0.026266
C99	C	-0.106337	0.940754	-0.630333
C100	C	0.393663	1.440754	-0.130333
C101	C	-0.106339	0.940742	-0.230232
C102	C	0.393661	1.440742	0.269768
N103	N	-0.106339	0.940758	0.286710
N104	N	0.393661	1.440758	0.786710
H105	H	-0.110627	0.701008	0.202748
H106	H	0.389373	1.201008	0.702748
O107	O	-0.483906	1.113117	0.082498
O108	O	0.016094	1.613117	0.582498
H109	H	-0.549224	1.106292	0.081986
H110	H	-0.049224	1.606292	0.581986
H111	H	-0.102047	0.180458	0.238290
H112	H	0.397953	0.680458	0.738290
O113	O	-0.108354	0.540136	-0.132659
O114	O	0.391646	1.040136	0.367341
H115	H	-0.054447	0.506012	-0.139348
H116	H	0.445553	1.006012	0.360652
O117	O	-0.728764	0.768382	0.056939
O118	O	-0.228764	1.268382	0.556939
H119	H	-0.777488	0.722131	0.053517
H120	H	-0.277488	1.222131	0.553517
O121	O	-0.110827	0.711942	-0.120019
O122	O	0.389173	1.211942	0.379981
H123	H	-0.058042	0.753233	-0.120931
H124	H	0.441958	1.253233	0.379069
H125	H	-0.108165	0.551236	0.191622
H126	H	0.391835	1.051236	0.691622
O127	O	0.004553	1.045475	-0.322757
O128	O	0.504553	1.545475	0.177243
H129	H	-0.004403	1.037005	-0.248583
H130	H	0.495597	1.537005	0.251417
H131	H	-0.885456	0.800182	0.059309
H132	H	-0.385456	1.300182	0.559309
O133	O	-0.101882	0.169559	-0.086091
O134	O	0.398118	0.669559	0.413909
H135	H	-0.102598	0.212133	-0.140731
H136	H	0.397402	0.712133	0.359269
H137	H	-0.851260	1.059391	0.078534
H138	H	-0.351260	1.559391	0.578534
O139	O	-0.217213	0.835991	-0.338307
O140	O	0.282787	1.335991	0.161693
H141	H	-0.254312	0.800956	-0.390402
H142	H	0.245688	1.300956	0.109598
O143	O	0.004522	1.045507	-0.522252
O144	O	0.504522	1.545507	-0.022252
H145	H	0.041604	1.080555	-0.470151
H146	H	0.541604	1.580555	0.029849
H147	H	-0.361427	0.822104	0.060891
H148	H	0.138573	1.322104	0.560891
O149	O	-0.104700	0.341161	0.272193
O150	O	0.395300	0.841161	0.772193
H151	H	-0.104005	0.298583	0.326829
H152	H	0.395995	0.798583	0.826829
H153	H	-0.104527	0.330251	-0.052193
H154	H	0.395473	0.830251	0.447807
H155	H	-0.509781	0.834147	0.061812
H156	H	-0.009781	1.334147	0.561812
O157	O	-0.689600	1.065350	0.078958
O158	O	-0.189600	1.565350	0.578958
H159	H	-0.725223	1.118443	0.082881
H160	H	-0.225223	1.618443	0.582881
H161	H	-0.327231	1.081315	0.080134
H162	H	0.172769	1.581315	0.580134
H163	H	-0.203110	0.849319	-0.524146
H164	H	0.296890	1.349319	-0.024146
