data_functionalizedCrystal
_audit_creation_method	'MofGen! by Chris Wilmer'
_symmetry_space_group_name_H-M	'P1'
_symmetry_Int_Tables_number	1
_symmetry_cell_setting	triclinic
loop_
_symmetry_equiv_pos_as_xyz
  x,y,z
_cell_length_a	18.101398
_cell_length_b	29.839131
_cell_length_c	18.101389
_cell_angle_alpha	89.978713
_cell_angle_beta	89.975673
_cell_angle_gamma	90.036686
loop_
_atom_site_label
_atom_site_type_symbol
_atom_site_fract_x
_atom_site_fract_y
_atom_site_fract_z
Zn1	Zn	1.132068	-0.178957	-0.418824
Zn2	Zn	1.131941	-0.254074	-0.294976
Zn3	Zn	1.008227	-0.178952	-0.294985
Zn4	Zn	1.008155	-0.254055	-0.418765
O5	O	1.070098	-0.216510	-0.356887
O6	O	1.235684	-0.188932	-0.402416
O7	O	1.115507	-0.244115	-0.191344
O8	O	1.024737	-0.116086	-0.311441
O9	O	1.235591	-0.244119	-0.311426
O10	O	1.115723	-0.116089	-0.402425
O11	O	1.024615	-0.188924	-0.191351
O12	O	0.904584	-0.188905	-0.311384
O13	O	1.024615	-0.244087	-0.522406
O14	O	0.904532	-0.244082	-0.402324
O15	O	1.115654	-0.188913	-0.522449
O16	O	1.115438	-0.316938	-0.311369
O17	O	1.024493	-0.316924	-0.402315
C18	C	0.877687	-0.216491	-0.356849
C19	C	0.795373	-0.216494	-0.356850
C20	C	0.496282	-0.216522	-0.356912
C21	C	0.527616	-0.181633	-0.299974
C22	C	0.613234	-0.181726	-0.299731
C23	C	0.644665	-0.216508	-0.356881
C24	C	0.613533	-0.263830	-0.335553
C25	C	0.527888	-0.263636	-0.335157
C26	C	0.527900	-0.204501	-0.435313
C27	C	0.613552	-0.203447	-0.434885
C28	C	0.728524	-0.216503	-0.356865
C29	C	0.412423	-0.216531	-0.356926
C30	C	1.069964	-0.333232	-0.356851
C31	C	1.069975	-0.383167	-0.356860
C32	C	1.117539	-0.692805	-0.309601
C33	C	1.117631	-0.880478	-0.309629
O34	O	1.157965	-0.904738	-0.269420
N35	N	1.070251	-0.903952	-0.356943
C36	C	1.022849	-0.880504	-0.404257
O37	O	0.982558	-0.904777	-0.444506
C38	C	1.022762	-0.692832	-0.404231
C39	C	1.070139	-0.669361	-0.356909
C40	C	1.164913	-0.669333	-0.262283
C41	C	1.164887	-0.622418	-0.262273
C42	C	1.117487	-0.598974	-0.309582
C43	C	1.070113	-0.622445	-0.356899
C44	C	0.975365	-0.669386	-0.451548
C45	C	0.975348	-0.622465	-0.451539
C46	C	1.022725	-0.598993	-0.404217
C47	C	1.022687	-0.552086	-0.404198
N48	N	1.070066	-0.528612	-0.356884
C49	C	1.117466	-0.552056	-0.309576
C50	C	1.022898	-0.979035	-0.404266
C51	C	1.022918	-1.025953	-0.404272
C52	C	1.117700	-1.025923	-0.309645
C53	C	1.117675	-0.979004	-0.309636
C54	C	1.070277	-0.955561	-0.356952
C55	C	1.117407	-0.453530	-0.309559
C56	C	1.117374	-0.406610	-0.309551
C57	C	1.022595	-0.406645	-0.404181
C58	C	1.022625	-0.453560	-0.404186
C59	C	1.070037	-0.477002	-0.356872
O60	O	0.982379	-0.527797	-0.444393
O61	O	1.157763	-0.527776	-0.269344
C62	C	1.117565	-0.739720	-0.309610
C63	C	1.070192	-0.763192	-0.356928
C64	C	1.022792	-0.739748	-0.404236
C65	C	1.070212	-0.810109	-0.356934
C66	C	1.117612	-0.833553	-0.309625
C67	C	1.164991	-0.810079	-0.262311
C68	C	1.164965	-0.763164	-0.262302
C69	C	0.975413	-0.763222	-0.451550
C70	C	0.975442	-0.810137	-0.451556
C71	C	1.022842	-0.833581	-0.404247
C72	C	1.263260	-0.216528	-0.356927
C73	C	1.345574	-0.216536	-0.356943
C74	C	1.070141	-0.216498	-0.550049
C75	C	1.070159	-0.216493	-0.632364
C76	C	1.070252	-0.099331	-0.356941
C77	C	1.070318	-0.049397	-0.356963
C78	C	1.070202	-0.216409	-0.931455
C79	C	1.012726	-0.251013	-0.900102
C80	C	1.012881	-0.251173	-0.814484
C81	C	1.070180	-0.216451	-0.783072
C82	C	1.148202	-0.229306	-0.814177
C83	C	1.147881	-0.229533	-0.899822
C84	C	1.050335	-0.168874	-0.899883
C85	C	1.048599	-0.169148	-0.814232
C86	C	1.070172	-0.216474	-0.699213
C87	C	1.070215	-0.216387	-1.015314
C88	C	1.070098	-0.216488	-0.164477
C89	C	1.070223	-0.216367	-0.082163
H90	H	0.506064	-0.189489	-0.242218
N91	N	0.638885	-0.191696	-0.226851
N92	N	0.593533	-0.198609	-0.176009
H93	H	0.611648	-0.205652	-0.124534
H94	H	1.025997	-0.286408	-0.793999
H95	H	0.507873	-0.273832	-0.277842
N96	N	0.639636	-0.137700	-0.316481
N97	N	0.594809	-0.106689	-0.328431
H98	H	0.613451	-0.075591	-0.340251
N99	N	1.165772	-0.382643	-0.261202
N100	N	1.208089	-0.403584	-0.218967
H101	H	1.242269	-0.386658	-0.184821
H102	H	1.203584	-0.829176	-0.223789
H103	H	0.507056	-0.146434	-0.313196
N104	N	1.165839	-0.477464	-0.261224
N105	N	1.208128	-0.456494	-0.218981
H106	H	1.242330	-0.473396	-0.184840
N107	N	0.926962	-0.693352	-0.499882
N108	N	0.858627	-0.688148	-0.494905
H109	H	0.824440	-0.705073	-0.529044
H110	H	1.156295	-1.045019	-0.271125
N111	N	0.927053	-0.834110	-0.499907
N112	N	0.953100	-0.860257	-0.547134
H113	H	0.918931	-0.877186	-0.581286
N114	N	0.939919	-0.241027	-0.925909
N115	N	0.889658	-0.232402	-0.880735
H116	H	0.838235	-0.225349	-0.898965
H117	H	0.936815	-0.744137	-0.490076
N118	N	1.166082	-0.955030	-0.261311
N119	N	1.213251	-0.928819	-0.287409
H120	H	1.247441	-0.911889	-0.253279
H121	H	1.025711	-0.286032	-0.921625
H122	H	0.991182	-0.159454	-0.793901
H123	H	1.164725	-0.264282	-0.919802
H124	H	0.984332	-1.045059	-0.442799
H125	H	1.087408	-0.141998	-0.792850
N126	N	0.940305	-0.241074	-0.788096
N127	N	0.910531	-0.204644	-0.804638
H128	H	0.859270	-0.197513	-0.786005
N129	N	1.203423	-0.199287	-0.925837
N130	N	1.242302	-0.178080	-0.880738
H131	H	1.281529	-0.156720	-0.899107
H132	H	0.984049	-0.472671	-0.442722
N133	N	0.974474	-0.955099	-0.452607
N134	N	0.932178	-0.976069	-0.494844
H135	H	0.897976	-0.959166	-0.528984
N136	N	0.502466	-0.236375	-0.488534
N137	N	0.464880	-0.223654	-0.542517
H138	H	0.446912	-0.246167	-0.580098
H139	H	0.634950	-0.227008	-0.479581
N140	N	1.203361	-0.198679	-0.788655
N141	N	1.185742	-0.166961	-0.747156
H142	H	1.224697	-0.145330	-0.729130
H143	H	1.203467	-0.603310	-0.223741
H144	H	0.507158	-0.290511	-0.374819
H145	H	0.936751	-0.603380	-0.490072
N146	N	1.169694	-0.272434	-0.787268
N147	N	1.127686	-0.293777	-0.745192
H148	H	1.142861	-0.324237	-0.726187
N149	N	0.974184	-0.382699	-0.452516
N150	N	0.931889	-0.403657	-0.494769
H151	H	0.897702	-0.386745	-0.528912
H152	H	0.994431	-0.157163	-0.921470
N153	N	1.213332	-0.693268	-0.213941
N154	N	1.208450	-0.688039	-0.145603
H155	H	1.242647	-0.704940	-0.111454
H156	H	1.203544	-0.744057	-0.223768
N157	N	0.639070	-0.297312	-0.385954
N158	N	0.680601	-0.286644	-0.438279
H159	H	0.698638	-0.310289	-0.473877
N160	N	0.640396	-0.276839	-0.264429
N161	N	0.682460	-0.251341	-0.229325
H162	H	0.701432	-0.260526	-0.179092
N163	N	1.102847	-0.136533	-0.925334
N164	N	1.110747	-0.129780	-0.993034
H165	H	1.147836	-0.106943	-1.011013
N166	N	0.500842	-0.161968	-0.459635
N167	N	0.457920	-0.139996	-0.419475
H168	H	0.438808	-0.109956	-0.436645
N169	N	0.639084	-0.159760	-0.455052
N170	N	0.680046	-0.138298	-0.412177
H171	H	0.698083	-0.107443	-0.426417
