data_functionalizedCrystal
_audit_creation_method	'MofGen! by Chris Wilmer'
_symmetry_space_group_name_H-M	'P1'
_symmetry_Int_Tables_number	1
_symmetry_cell_setting	triclinic
loop_
_symmetry_equiv_pos_as_xyz
  x,y,z
_cell_length_a	19.288864
_cell_length_b	19.188930
_cell_length_c	18.366186
_cell_angle_alpha	89.988632
_cell_angle_beta	89.977106
_cell_angle_gamma	83.140512
loop_
_atom_site_label
_atom_site_type_symbol
_atom_site_fract_x
_atom_site_fract_y
_atom_site_fract_z
O1	O	0.921359	0.087099	-0.060791
O2	O	1.421359	0.587099	0.439209
O3	O	0.719099	0.098849	-0.060743
O4	O	1.219099	0.598849	0.439257
O5	O	0.826066	-0.008682	-0.060754
O6	O	1.326066	0.491318	0.439246
O7	O	0.814393	0.194630	-0.060780
O8	O	1.314393	0.694630	0.439220
O9	O	0.826048	-0.008687	0.060345
O10	O	1.326048	0.491313	0.560345
O11	O	0.719081	0.098843	0.060357
O12	O	1.219081	0.598843	0.560357
O13	O	0.921341	0.087094	0.060308
O14	O	1.421341	0.587094	0.560308
Zn15	Zn	0.820208	0.092968	0.079560
Zn16	Zn	1.320208	0.592968	0.579560
Zn17	Zn	0.820232	0.092975	-0.079994
Zn18	Zn	1.320232	0.592975	0.420006
O19	O	0.814374	0.194625	0.060320
O20	O	1.314374	0.694625	0.560320
C21	C	0.693214	0.098468	-0.000186
C22	C	1.193214	0.598468	0.499814
C23	C	0.616110	0.097333	-0.000167
C24	C	1.116110	0.597333	0.499833
C25	C	0.571419	0.160427	-0.000187
C26	C	1.071419	0.660427	0.499813
C27	C	0.498972	0.159361	-0.000195
C28	C	0.998972	0.659361	0.499805
C29	C	0.471219	0.095197	-0.000198
C30	C	0.971219	0.595197	0.499802
C31	C	0.515921	0.032095	-0.000174
C32	C	1.015921	0.532095	0.499826
C33	C	0.588366	0.033163	-0.000159
C34	C	1.088366	0.533163	0.499841
C35	C	0.362960	0.044759	-0.042642
C36	C	0.862960	0.544759	0.457358
C37	C	0.290515	0.043694	-0.042662
C38	C	0.790515	0.543694	0.457338
C39	C	0.247773	0.091900	-0.000241
C40	C	0.747773	0.591900	0.499759
C41	C	0.277483	0.141184	0.042190
C42	C	0.777483	0.641184	0.542190
C43	C	0.349929	0.142253	0.042205
C44	C	0.849929	0.642253	0.542205
C45	C	0.392665	0.094032	-0.000214
C46	C	0.892665	0.594032	0.499786
C47	C	0.124526	0.153843	-0.000268
C48	C	0.624526	0.653843	0.499732
C49	C	0.052078	0.152774	-0.000272
C50	C	0.552078	0.652774	0.499728
C51	C	0.069028	0.025506	-0.000259
C52	C	0.569028	0.525506	0.499741
C53	C	0.141475	0.026576	-0.000248
C54	C	0.641475	0.526576	0.499752
C55	C	0.169219	0.090747	-0.000256
C56	C	0.669219	0.590747	0.499744
C57	C	0.825679	-0.034696	-0.000202
C58	C	1.325679	0.465304	0.499798
C59	C	0.824544	-0.112200	-0.000196
C60	C	1.324544	0.387800	0.499804
C61	C	0.887309	-0.157129	-0.000207
C62	C	1.387309	0.342871	0.499793
C63	C	0.886243	-0.229953	-0.000219
C64	C	1.386243	0.270047	0.499781
C65	C	0.822408	-0.257844	-0.000204
C66	C	1.322408	0.242156	0.499796
C67	C	0.759636	-0.212906	-0.000196
C68	C	1.259636	0.287094	0.499804
C69	C	0.760704	-0.140084	-0.000192
C70	C	1.260704	0.359916	0.499808
N71	N	0.773609	-0.365847	0.041020
N72	N	1.273609	0.134153	0.541020
N73	N	0.772598	-0.435026	0.041018
N74	N	1.272598	0.064974	0.541018
C75	C	0.819187	-0.477253	-0.000218
C76	C	1.319187	0.022747	0.499782
N77	N	0.866835	-0.447689	-0.041442
N78	N	1.366835	0.052311	0.458558
N79	N	0.867847	-0.378504	-0.041436
N80	N	1.367847	0.121496	0.458564
C81	C	0.821243	-0.336807	-0.000209
C82	C	1.321243	0.163193	0.499791
C83	C	0.880800	-0.601146	-0.000243
C84	C	1.380800	-0.101146	0.499757
C85	C	0.879731	-0.673971	-0.000259
C86	C	1.379731	-0.173971	0.499741
C87	C	0.753122	-0.656922	-0.000229
C88	C	1.253122	-0.156922	0.499771
C89	C	0.754193	-0.584099	-0.000220
C90	C	1.254193	-0.084099	0.499780
C91	C	0.818034	-0.556216	-0.000224
C92	C	1.318034	-0.056216	0.499776
C93	C	0.947227	0.087475	-0.000250
C94	C	1.447227	0.587475	0.499750
C95	C	1.024330	0.088609	-0.000274
C96	C	1.524330	0.588609	0.499726
C97	C	0.814762	0.220638	-0.000234
C98	C	1.314762	0.720638	0.499766
C99	C	0.815896	0.298143	-0.000245
C100	C	1.315896	0.798143	0.499755
N101	N	0.820197	0.092963	0.188451
N102	N	1.320197	0.592963	0.688451
N103	N	0.820249	0.092974	-0.188885
N104	N	1.320249	0.592974	0.311115
C105	C	0.867577	0.045371	0.226546
C106	C	1.367577	0.545371	0.726546
C107	C	0.867582	0.045368	0.302774
C108	C	1.367582	0.545368	0.802774
C109	C	0.820213	0.092968	0.340903
C110	C	1.320213	0.592968	0.840903
C111	C	0.772823	0.140563	0.302799
C112	C	1.272823	0.640563	0.802799
C113	C	0.772816	0.140560	0.226573
C114	C	1.272816	0.640560	0.726573
C115	C	0.810919	0.156585	0.461657
C116	C	1.310919	0.656585	0.961657
C117	C	0.810932	0.156589	0.537882
C118	C	1.310932	0.656589	1.037882
C119	C	0.820232	0.092977	0.576011
C120	C	1.320232	0.592977	1.076011
C121	C	0.829535	0.029359	0.537906
C122	C	1.329535	0.529359	1.037906
C123	C	0.829527	0.029356	0.461679
C124	C	1.329527	0.529356	0.961679
C125	C	0.820215	0.092977	0.423558
C126	C	1.320215	0.592977	0.923558
C127	C	0.867620	0.045378	0.696761
C128	C	1.367620	0.545378	1.196761
C129	C	0.867620	0.045374	0.772990
C130	C	1.367620	0.545374	1.272990
C131	C	0.772864	0.140576	0.773014
C132	C	1.272864	0.640576	1.273014
C133	C	0.772862	0.140574	0.696786
C134	C	1.272862	0.640574	1.196786
C135	C	0.820243	0.092976	0.658664
C136	C	1.320243	0.592976	1.158664
H137	H	0.147116	0.206094	-0.000264
H138	H	0.647116	0.706094	0.499736
H139	H	0.046433	-0.026738	-0.000306
H140	H	0.546433	0.473262	0.499694
C141	C	-0.039256	0.225410	0.061952
C142	C	0.460744	0.725410	0.561952
C143	C	0.002948	0.222133	-0.000293
C144	C	0.502948	0.722133	0.499707
H145	H	-0.069584	0.268232	0.061938
H146	H	0.430416	0.768232	0.561938
H147	H	-0.066147	0.187047	0.061951
H148	H	0.433853	0.687047	0.561951
H149	H	-0.010658	0.223185	0.104182
H150	H	0.489342	0.723185	0.604182
H151	H	-0.025651	0.224352	-0.042524
H152	H	0.474349	0.724352	0.457476
H153	H	0.029841	0.260506	-0.000299
H154	H	0.529841	0.760506	0.499701
C155	C	0.274219	-0.001174	-0.162680
C156	C	0.774219	0.498826	0.337320
C157	C	0.257865	-0.010480	-0.089302
C158	C	0.757865	0.489520	0.410698
H159	H	0.254068	-0.034623	-0.191472
H160	H	0.754068	0.465377	0.308528
H161	H	0.256200	0.044837	-0.177605
H162	H	0.756200	0.544837	0.322395
H163	H	0.323483	-0.007437	-0.168728
H164	H	0.823483	0.492563	0.331272
H165	H	0.208601	-0.004212	-0.083253
H166	H	0.708601	0.495788	0.416747
H167	H	0.275882	-0.056502	-0.074371
H168	H	0.775882	0.443498	0.425629
C169	C	0.685002	-0.284905	-0.062430
C170	C	1.185002	0.215095	0.437570
C171	C	0.689469	-0.243564	-0.000179
C172	C	1.189469	0.256436	0.499821
H173	H	0.641684	-0.303834	-0.062418
H174	H	1.141684	0.196166	0.437582
H175	H	0.688053	-0.256841	-0.104652
H176	H	1.188053	0.243159	0.395348
H177	H	0.722235	-0.322084	-0.062430
H178	H	1.222235	0.177916	0.437570
H179	H	0.652238	-0.206381	-0.000181
H180	H	1.152238	0.293619	0.499819
H181	H	0.686410	-0.271629	0.042054
H182	H	1.186410	0.228371	0.542054
H183	H	0.709591	-0.103502	-0.000183
H184	H	1.209591	0.396498	0.499817
H185	H	0.462577	0.210742	-0.000208
H186	H	0.962577	0.710742	0.499792
H187	H	0.837100	-0.022445	0.430657
H188	H	1.337100	0.477555	0.930657
H189	H	0.701147	-0.679631	-0.000221
H190	H	1.201147	-0.179631	0.499779
H191	H	0.906200	0.006616	0.804008
H192	H	1.406200	0.506616	1.304008
H193	H	0.703083	-0.547517	-0.000207
H194	H	1.203083	-0.047517	0.499793
C195	C	0.150950	-0.099326	-0.000245
C196	C	0.650950	0.400674	0.499755
C197	C	0.190605	-0.042780	-0.000238
C198	C	0.690605	0.457220	0.499762
H199	H	0.181283	-0.142144	-0.000242
H200	H	0.681283	0.357856	0.499758
H201	H	0.122320	-0.097099	0.041977
H202	H	0.622320	0.402901	0.541977
H203	H	0.122362	-0.097087	-0.042483
H204	H	0.622362	0.402913	0.457517
H205	H	0.219190	-0.045016	0.042003
H206	H	0.719190	0.454984	0.542003
H207	H	0.219247	-0.045008	-0.042464
H208	H	0.719247	0.454992	0.457536
H209	H	0.397755	0.005502	-0.077191
H210	H	0.897755	0.505502	0.422809
C211	C	0.908752	-0.075606	0.326265
C212	C	1.408752	0.424394	0.826265
C213	C	0.919663	-0.006948	0.344663
C214	C	1.419663	0.493052	0.844663
H215	H	0.940906	-0.107902	0.352122
H216	H	1.440906	0.392098	0.852122
H217	H	0.862427	-0.083065	0.338783
H218	H	1.362427	0.416935	0.838783
H219	H	0.915534	-0.082415	0.275411
H220	H	1.415534	0.417585	0.775411
H221	H	0.912876	-0.000137	0.395516
H222	H	1.412876	0.499863	0.895516
H223	H	0.965999	0.000514	0.332149
H224	H	1.465999	0.500514	0.832149
H225	H	0.906157	0.006613	0.195509
H226	H	1.406157	0.506613	0.695509
H227	H	0.837108	-0.022440	0.568948
H228	H	1.337108	0.477560	1.068948
H229	H	0.906199	0.006619	0.665721
H230	H	1.406199	0.506619	1.165721
C231	C	0.678303	0.155972	0.858778
C232	C	1.178303	0.655972	1.358778
C233	C	0.720793	0.192898	0.814918
C234	C	1.220793	0.692898	1.314918
H235	H	0.646158	0.188274	0.884652
H236	H	1.146158	0.688274	1.384652
H237	H	0.653410	0.126978	0.829060
H238	H	1.153410	0.626978	1.329060
H239	H	0.706529	0.127628	0.892376
H240	H	1.206529	0.627628	1.392376
H241	H	0.692568	0.221238	0.781316
H242	H	1.192568	0.721238	1.281316
H243	H	0.745689	0.221905	0.844638
H244	H	1.245689	0.721905	1.344638
H245	H	0.939293	-0.134431	-0.000213
H246	H	1.439293	0.365569	0.499787
C247	C	0.508102	-0.076707	-0.062422
C248	C	1.008102	0.423293	0.437578
C249	C	0.485420	-0.038437	-0.000180
C250	C	0.985420	0.461563	0.499820
H251	H	0.489276	-0.120253	-0.062420
H252	H	0.989276	0.379747	0.437580
H253	H	0.492770	-0.050736	-0.104650
H254	H	0.992770	0.449264	0.395350
H255	H	0.557645	-0.085095	-0.062400
H256	H	1.057645	0.414905	0.437600
H257	H	0.435877	-0.030044	-0.000204
H258	H	0.935877	0.469956	0.499796
H259	H	0.500749	-0.064414	0.042059
H260	H	1.000749	0.435586	0.542059
H261	H	0.734283	0.179330	0.665767
H262	H	1.234283	0.679330	1.165767
C263	C	1.005839	-0.625309	-0.000291
C264	C	1.505839	-0.125309	0.499709
C265	C	0.950971	-0.570490	-0.000264
C266	C	1.450971	-0.070490	0.499736
H267	H	1.049159	-0.606383	-0.000311
H268	H	1.549159	-0.106383	0.499689
H269	H	1.002789	-0.653366	0.041937
H270	H	1.502789	-0.153366	0.541937
H271	H	1.002784	-0.653348	-0.042524
H272	H	1.502784	-0.153348	0.457476
H273	H	0.954023	-0.542454	0.041972
H274	H	1.454023	-0.042454	0.541972
H275	H	0.954023	-0.542421	-0.042496
H276	H	1.454023	-0.042421	0.457504
H277	H	0.624755	-0.018218	-0.000144
H278	H	1.124755	0.481782	0.499856
H279	H	0.803361	0.208391	0.568902
H280	H	1.303361	0.708391	1.068902
C281	C	0.792559	0.282353	0.469291
C282	C	1.292559	0.782353	0.969291
C283	C	0.800708	0.226515	0.419750
C284	C	1.300708	0.726515	0.919750
H285	H	0.786262	0.325521	0.443418
H286	H	1.286262	0.825521	0.943418
H287	H	0.752886	0.278589	0.499037
H288	H	1.252886	0.778589	0.999037
H289	H	0.833011	0.280821	0.499007
H290	H	1.333011	0.780821	0.999007
H291	H	0.760254	0.228043	0.390038
H292	H	1.260254	0.728043	0.890038
H293	H	0.840385	0.230280	0.389991
H294	H	1.340385	0.730280	0.889991
C295	C	1.011497	-0.239497	-0.000229
C296	C	1.511497	0.260503	0.499771
C297	C	0.955238	-0.279350	-0.000226
C298	C	1.455238	0.220650	0.499774
H299	H	1.054091	-0.269993	-0.000228
H300	H	1.554091	0.230007	0.499772
H301	H	1.009294	-0.210734	-0.042455
H302	H	1.509294	0.289266	0.457545
H303	H	1.009266	-0.210744	0.042005
H304	H	1.509266	0.289256	0.542005
H305	H	0.957467	-0.308099	-0.042463
H306	H	1.457467	0.191901	0.457537
H307	H	0.957442	-0.308125	0.042005
H308	H	1.457442	0.191875	0.542005
H309	H	0.734253	0.179319	0.333848
H310	H	1.234253	0.679319	0.833848
H311	H	0.734232	0.179316	0.195555
H312	H	1.234232	0.679316	0.695555
H313	H	0.374116	0.182379	0.076756
H314	H	0.874116	0.682379	0.576756
H315	H	0.930844	-0.710552	-0.000272
H316	H	1.430844	-0.210552	0.499728
H317	H	0.594003	0.212680	-0.000195
H318	H	1.094003	0.712680	0.499805
C319	C	0.239125	0.262549	0.066739
C320	C	0.739125	0.762549	0.566739
C321	C	0.230578	0.194247	0.088813
C322	C	0.730578	0.694247	0.588813
H323	H	0.210181	0.295326	0.095514
H324	H	0.710181	0.795326	0.595514
H325	H	0.286541	0.270163	0.072779
H326	H	0.786541	0.770163	0.572779
H327	H	0.226436	0.268482	0.016954
H328	H	0.726436	0.768482	0.516954
H329	H	0.243271	0.188312	0.138596
H330	H	0.743271	0.688312	0.638596
H331	H	0.183151	0.186631	0.082778
H332	H	0.683151	0.686631	0.582778
