data_functionalizedCrystal
_audit_creation_method	'MofGen! by Chris Wilmer'
_symmetry_space_group_name_H-M	'P1'
_symmetry_Int_Tables_number	1
_symmetry_cell_setting	triclinic
loop_
_symmetry_equiv_pos_as_xyz
  x,y,z
_cell_length_a	15.995300
_cell_length_b	14.971506
_cell_length_c	13.448316
_cell_angle_alpha	89.994977
_cell_angle_beta	89.991653
_cell_angle_gamma	83.547098
loop_
_atom_site_label
_atom_site_type_symbol
_atom_site_fract_x
_atom_site_fract_y
_atom_site_fract_z
O1	O	1.111137	0.115080	-0.082725
O2	O	1.611137	0.615080	0.417275
O3	O	0.867372	0.129364	-0.082718
O4	O	1.367372	0.629364	0.417282
O5	O	0.995779	-0.007985	-0.082719
O6	O	1.495779	0.492015	0.417281
O7	O	0.982730	0.252430	-0.082724
O8	O	1.482730	0.752430	0.417276
O9	O	0.995763	-0.007994	0.082665
O10	O	1.495763	0.492006	0.582665
O11	O	0.867355	0.129356	0.082665
O12	O	1.367355	0.629356	0.582665
O13	O	1.111121	0.115072	0.082659
O14	O	1.611121	0.615072	0.582659
Cu15	Cu	0.989237	0.122213	0.097763
Cu16	Cu	1.489237	0.622213	0.597763
Cu17	Cu	0.989256	0.122223	-0.097822
Cu18	Cu	1.489256	0.622223	0.402178
O19	O	0.982714	0.252421	0.082660
O20	O	1.482714	0.752421	0.582660
C21	C	0.836167	0.128777	-0.000026
C22	C	1.336167	0.628777	0.499974
C23	C	0.743213	0.127031	-0.000023
C24	C	1.243213	0.627031	0.499977
C25	C	0.573026	0.123805	-0.000031
C26	C	1.073026	0.623805	0.499969
C27	C	0.525665	0.221601	-0.000030
C28	C	1.025665	0.721601	0.499970
C29	C	0.428975	0.219817	-0.000408
C30	C	0.928975	0.719817	0.499592
C31	C	0.405466	0.120631	-0.000037
C32	C	0.905466	0.620631	0.499963
C33	C	0.446556	0.072115	-0.094292
C34	C	0.946556	0.572115	0.405708
C35	C	0.543192	0.074590	-0.094369
C36	C	1.043192	0.574590	0.405631
C37	C	0.543452	0.073133	0.093710
C38	C	1.043452	0.573133	0.593710
C39	C	0.446507	0.073142	0.094946
C40	C	0.946507	0.573142	0.594946
C41	C	0.310769	0.118831	-0.000044
C42	C	0.810769	0.618831	0.499956
C43	C	0.667724	0.125602	-0.000031
C44	C	1.167724	0.625602	0.499969
C45	C	0.995185	-0.041313	-0.000029
C46	C	1.495185	0.458687	0.499971
C47	C	0.993427	-0.140607	-0.000033
C48	C	1.493427	0.359393	0.499967
C49	C	1.142325	0.115658	-0.000036
C50	C	1.642325	0.615658	0.499964
C51	C	1.235280	0.117405	-0.000045
C52	C	1.735280	0.617405	0.499955
C53	C	1.062155	-0.578981	-0.000034
C54	C	1.562155	-0.078981	0.499966
C55	C	1.063800	-0.485683	-0.000028
C56	C	1.563800	0.014317	0.499972
C57	C	0.988356	-0.428363	-0.000029
C58	C	1.488356	0.071637	0.499971
C59	C	0.911261	-0.464344	-0.000027
C60	C	1.411261	0.035656	0.499973
C61	C	0.909617	-0.557641	-0.000026
C62	C	1.409617	-0.057641	0.499974
C63	C	0.914694	-0.269886	-0.000031
C64	C	1.414694	0.230114	0.499969
C65	C	0.916338	-0.176583	-0.000034
C66	C	1.416338	0.323417	0.499966
C67	C	1.068877	-0.197928	-0.000033
C68	C	1.568877	0.302072	0.499967
C69	C	1.067233	-0.291225	-0.000032
C70	C	1.567233	0.208775	0.499968
C71	C	0.990138	-0.327200	-0.000032
C72	C	1.490138	0.172800	0.499968
C73	C	0.983308	0.285749	-0.000033
C74	C	1.483308	0.785749	0.499967
C75	C	0.985066	0.385043	-0.000035
C76	C	1.485066	0.885043	0.499965
N77	N	0.989230	0.122205	0.235327
N78	N	1.489230	0.622205	0.735327
N79	N	0.989270	0.122223	-0.235387
N80	N	1.489270	0.622223	0.264613
C81	C	1.046106	0.061412	0.287367
C82	C	1.546106	0.561412	0.787367
C83	C	1.046111	0.061411	0.391471
C84	C	1.546111	0.561411	0.891471
C85	C	0.989243	0.122209	0.443532
C86	C	1.489243	0.622209	0.943532
C87	C	0.932361	0.183005	0.391485
C88	C	1.432361	0.683005	0.891485
C89	C	0.932352	0.183001	0.287383
C90	C	1.432352	0.683001	0.787383
C91	C	0.932384	0.183011	0.608465
C92	C	1.432384	0.683011	1.108465
C93	C	0.932393	0.183017	0.712573
C94	C	1.432393	0.683017	1.212573
C95	C	1.046143	0.061421	0.712552
C96	C	1.546143	0.561421	1.212552
C97	C	1.046135	0.061417	0.608451
C98	C	1.546135	0.561417	1.108451
C99	C	0.989253	0.122215	0.556411
C100	C	1.489253	0.622215	1.056411
H101	H	0.561556	0.109562	-0.165094
H102	H	1.061556	0.609562	0.334906
H103	H	0.886085	0.232524	0.754956
H104	H	1.386085	0.732524	1.254956
C105	C	0.828271	-0.401288	-0.000031
C106	C	1.328271	0.098712	0.499969
N107	N	0.765762	-0.353795	-0.000040
N108	N	1.265762	0.146205	0.499960
H109	H	1.126573	-0.456397	-0.000026
H110	H	1.626573	0.043603	0.499974
H111	H	0.419199	0.108570	0.164678
H112	H	0.919199	0.608570	0.664678
H113	H	0.846843	-0.586930	-0.000019
H114	H	1.346843	-0.086930	0.499981
H115	H	1.123591	-0.625646	-0.000041
H116	H	1.623591	-0.125646	0.499959
C117	C	1.108692	-0.005463	0.551185
C118	C	1.608692	0.494537	1.051185
N119	N	1.155809	-0.055841	0.508053
N120	N	1.655809	0.444159	1.008053
H121	H	0.854904	-0.129914	-0.000029
H122	H	1.354904	0.370086	0.499971
C123	C	1.150225	-0.354276	-0.000025
C124	C	1.650225	0.145724	0.499975
N125	N	1.212737	-0.401767	-0.000013
N126	N	1.712737	0.098233	0.499987
C127	C	1.108711	-0.005460	0.769798
C128	C	1.608711	0.494540	1.269798
N129	N	1.155836	-0.055832	0.812920
N130	N	1.655836	0.444168	1.312920
C131	C	0.869802	0.249883	0.551223
C132	C	1.369802	0.749883	1.051223
N133	N	0.822666	0.300250	0.508109
N134	N	1.322666	0.800250	1.008109
H135	H	0.886053	0.232505	0.433879
H136	H	1.386053	0.732505	0.933879
C137	C	0.425674	-0.024551	0.103022
C138	C	0.925674	0.475449	0.603022
N139	N	0.409982	-0.098136	0.109098
N140	N	0.909982	0.401864	0.609098
H141	H	1.092424	0.011908	0.433841
H142	H	1.592424	0.511908	0.933841
H143	H	1.092418	0.011907	0.244986
H144	H	1.592418	0.511907	0.744986
C145	C	0.869790	0.249886	0.230140
C146	C	1.369790	0.749886	0.730140
N147	N	0.822667	0.300266	0.187025
N148	N	1.322667	0.800266	0.687025
C149	C	0.586285	-0.024274	0.094940
C150	C	1.086285	0.475726	0.594940
N151	N	0.618550	-0.097639	0.095858
N152	N	1.118550	0.402361	0.595858
H153	H	0.544192	0.260899	0.067550
H154	H	1.044192	0.760899	0.567550
C155	C	0.390563	0.271350	0.090827
C156	C	0.890563	0.771350	0.590827
N157	N	0.361633	0.310182	0.159539
N158	N	0.861633	0.810182	0.659539
H159	H	0.545322	0.260321	-0.067521
H160	H	1.045322	0.760321	0.432479
H161	H	1.131651	-0.168633	-0.000124
H162	H	1.631651	0.331367	0.499876
H163	H	0.575389	0.002778	-0.098395
H164	H	1.075389	0.502778	0.401605
H165	H	0.851915	-0.299173	-0.000017
H166	H	1.351915	0.200827	0.499983
H167	H	0.401175	0.257781	-0.068369
H168	H	0.901175	0.757781	0.431631
H169	H	0.432379	-0.000764	-0.097531
H170	H	0.932379	0.499236	0.402469
H171	H	0.563979	0.105326	0.165173
H172	H	1.063979	0.605326	0.665173
H173	H	0.418213	0.105383	-0.164702
H174	H	0.918213	0.605383	0.335298
