data_functionalizedCrystal
_audit_creation_method	'MofGen! by Chris Wilmer'
_symmetry_space_group_name_H-M	'P1'
_symmetry_Int_Tables_number	1
_symmetry_cell_setting	triclinic
loop_
_symmetry_equiv_pos_as_xyz
  x,y,z
_cell_length_a	10.654550
_cell_length_b	14.472311
_cell_length_c	10.654559
_cell_angle_alpha	90.010071
_cell_angle_beta	84.486774
_cell_angle_gamma	90.007605
loop_
_atom_site_label
_atom_site_type_symbol
_atom_site_fract_x
_atom_site_fract_y
_atom_site_fract_z
O1	O	1.667845	0.076918	0.176407
O2	O	1.302367	0.076903	0.193213
O3	O	1.493503	0.076904	0.002072
O4	O	1.476709	0.076917	0.367549
O5	O	1.493490	-0.076778	0.002047
O6	O	1.302354	-0.076779	0.193189
O7	O	1.667832	-0.076764	0.176383
Cu8	Cu	1.485092	-0.090804	0.184784
Cu9	Cu	1.485108	0.090943	0.184812
O10	O	1.476696	-0.076765	0.367524
C11	C	1.255563	0.000060	0.191967
C12	C	1.116119	0.000055	0.188275
C13	C	1.036637	0.000072	0.300816
C14	C	0.905616	0.000088	0.297340
C15	C	0.933572	0.000072	0.068771
C16	C	1.064591	0.000050	0.072249
C17	C	1.020496	0.000085	0.432779
C18	C	0.889475	0.000101	0.429302
N19	N	1.485090	-0.218635	0.184763
C20	C	1.485109	-0.592726	0.184803
C21	C	1.587720	-0.553531	0.082875
C22	C	1.587447	-0.446443	0.082493
C23	C	1.485100	-0.407135	0.184783
C24	C	1.353818	-0.446032	0.155021
C25	C	1.354424	-0.553154	0.154300
C26	C	1.512602	-0.553224	0.316786
C27	C	1.515569	-0.446096	0.315930
C28	C	1.485087	-0.302247	0.184774
C29	C	1.485113	-0.697614	0.184809
C30	C	1.714637	0.000081	0.177629
C31	C	1.854080	0.000093	0.181321
C32	C	1.492261	0.000063	-0.044738
C33	C	1.488565	0.000063	-0.184181
N34	N	1.485120	0.218774	0.184823
C35	C	1.483371	0.083852	-0.380685
C36	C	1.486841	0.083842	-0.249663
C37	C	1.486832	-0.083711	-0.249729
C38	C	1.483371	-0.083700	-0.380749
C39	C	1.483371	0.180587	-0.380645
C40	C	1.486840	0.180577	-0.249624
C41	C	1.477938	0.000078	0.414334
C42	C	1.481635	0.000084	0.553777
H43	H	1.684997	-0.420143	0.100384
H44	H	0.891601	0.000083	-0.025694
H45	H	1.578439	0.210598	-0.220037
C46	C	1.152017	0.000018	-0.051555
N47	N	1.217868	-0.000007	-0.144809
H48	H	1.275716	-0.579083	0.225657
C49	C	1.564161	-0.589908	-0.048666
N50	N	1.546411	-0.617307	-0.147742
H51	H	1.685595	-0.579281	0.100493
H52	H	1.400046	0.217709	-0.203330
H53	H	1.569762	-0.420830	-0.015429
C54	C	1.359635	0.221134	-0.420596
N55	N	1.266436	0.251672	-0.450687
C56	C	1.068684	0.089731	0.489535
N57	N	1.104981	0.157257	0.532273
C58	C	0.827759	-0.089520	0.483191
N59	N	0.781273	-0.157018	0.523787
C60	C	1.060122	-0.086804	0.502484
N61	N	1.089969	-0.152249	0.554981
H62	H	0.847750	0.064423	0.479034
H63	H	1.330368	-0.578153	0.058011
H64	H	1.275574	-0.420572	0.227237
C65	C	1.320567	-0.409819	0.026402
N66	N	1.295531	-0.382548	-0.070479
H67	H	1.488247	-0.151925	-0.196404
C68	C	1.639256	-0.589697	0.355042
N69	N	1.734659	-0.617168	0.383841
C70	C	1.421266	-0.409944	0.423323
N71	N	1.350229	-0.382713	0.504210
C72	C	1.646047	-0.411749	0.346408
N73	N	1.744324	-0.385874	0.369360
C74	C	1.600633	0.230765	-0.443148
N75	N	1.688956	0.268554	-0.490224
H76	H	1.437790	-0.578576	0.392653
C77	C	1.481471	-0.175850	-0.452838
N78	N	1.480037	-0.245262	-0.507134
