data_functionalizedCrystal
_audit_creation_method	'MofGen! by Chris Wilmer'
_symmetry_space_group_name_H-M	'P1'
_symmetry_Int_Tables_number	1
_symmetry_cell_setting	triclinic
loop_
_symmetry_equiv_pos_as_xyz
  x,y,z
_cell_length_a	12.759401
_cell_length_b	14.908520
_cell_length_c	12.759393
_cell_angle_alpha	93.263453
_cell_angle_beta	89.981287
_cell_angle_gamma	93.322137
loop_
_atom_site_label
_atom_site_type_symbol
_atom_site_fract_x
_atom_site_fract_y
_atom_site_fract_z
Zn1	Zn	1.582056	-0.359078	-0.618119
Zn2	Zn	1.571791	-0.509962	-0.452566
Zn3	Zn	1.406359	-0.359126	-0.442458
Zn4	Zn	1.396188	-0.509898	-0.628199
O5	O	1.489098	-0.434516	-0.535335
O6	O	1.727715	-0.379099	-0.596170
O7	O	1.549806	-0.489999	-0.304207
O8	O	1.438218	-0.232875	-0.457311
O9	O	1.720173	-0.489953	-0.474539
O10	O	1.567302	-0.232839	-0.586369
O11	O	1.428264	-0.379181	-0.296781
O12	O	1.257989	-0.379120	-0.467085
O13	O	1.420883	-0.489845	-0.773880
O14	O	1.250516	-0.489892	-0.603548
O15	O	1.557440	-0.379038	-0.766474
O16	O	1.539944	-0.636198	-0.484313
O17	O	1.410929	-0.636151	-0.613349
C18	C	1.216132	-0.434505	-0.535314
C19	C	1.099354	-0.434522	-0.535331
C20	C	1.040623	-0.492289	-0.606288
C21	C	0.930898	-0.492292	-0.606309
C22	C	0.938646	-0.376759	-0.464407
C23	C	1.048369	-0.376752	-0.464392
C24	C	0.778817	-0.524663	-0.732342
C25	C	0.720081	-0.582444	-0.803290
C26	C	0.749748	-0.670486	-0.825147
C27	C	0.838148	-0.700764	-0.776041
C28	C	0.896878	-0.642988	-0.705085
C29	C	0.867213	-0.554934	-0.683248
C30	C	1.200452	-0.344390	-0.338358
C31	C	1.259183	-0.286618	-0.267397
C32	C	1.229519	-0.198575	-0.245529
C33	C	1.141115	-0.168300	-0.294617
C34	C	1.082384	-0.226072	-0.365578
C35	C	1.112056	-0.314114	-0.387447
C36	C	1.473248	-0.668908	-0.551045
C37	C	1.466563	-0.769182	-0.557800
C38	C	1.588482	-0.957595	-0.436237
C39	C	1.582205	-1.051812	-0.442581
C40	C	1.447736	-1.051833	-0.576837
C41	C	1.454014	-0.957617	-0.570493
C42	C	1.524388	-0.910501	-0.500189
C43	C	1.530660	-0.816283	-0.493841
C44	C	1.396197	-0.816306	-0.628101
C45	C	1.389919	-0.910523	-0.634445
C46	C	1.763131	-0.434528	-0.535358
C47	C	1.879907	-0.434533	-0.535367
C48	C	1.489172	-0.434429	-0.809363
C49	C	1.489204	-0.434392	-0.926137
C50	C	1.505040	-0.199208	-0.519588
C51	C	1.511833	-0.098934	-0.512877
C52	C	1.418123	-0.492063	-0.984855
C53	C	1.418163	-0.492029	-1.094577
C54	C	1.560367	-0.376647	-1.086853
C55	C	1.560332	-0.376686	-0.977134
C56	C	1.373463	-0.598369	-1.251648
C57	C	1.302366	-0.656032	-1.310369
C58	C	1.198902	-0.669889	-1.275684
C59	C	1.166515	-0.626071	-1.182278
C60	C	1.237606	-0.568402	-1.123562
C61	C	1.341084	-0.554562	-1.158247
C62	C	1.605020	-0.270344	-0.820060
C63	C	1.676108	-0.212670	-0.761342
C64	C	1.779574	-0.198803	-0.796025
C65	C	1.811959	-0.242605	-0.889433
C66	C	1.740872	-0.300280	-0.948151
C67	C	1.637406	-0.314148	-0.913461
C68	C	1.489090	-0.434537	-0.262369
C69	C	1.489279	-0.434320	-0.145579
H70	H	1.082131	-0.539326	-0.664053
C71	C	1.652703	-1.103612	-0.372228
H72	H	1.695506	-1.062055	-0.329447
H73	H	1.696010	-1.140308	-0.414928
H74	H	1.610080	-1.140422	-0.328887
C75	C	1.108482	-0.071452	-0.270570
H76	H	1.156127	-0.041378	-0.221286
H77	H	1.039635	-0.072975	-0.242120
H78	H	1.109572	-0.040246	-0.333470
C79	C	0.685145	-0.734040	-0.903193
H80	H	0.628255	-0.703398	-0.929310
H81	H	0.658692	-0.785322	-0.868545
H82	H	0.728634	-0.752592	-0.959891
H83	H	0.862288	-0.772460	-0.793834
C84	C	0.882564	-0.313221	-0.386374
H85	H	0.933261	-0.278810	-0.344119
H86	H	0.837410	-0.347685	-0.342845
H87	H	0.842436	-0.273955	-0.424020
H88	H	1.390448	-1.090211	-0.634081
H89	H	1.332625	-0.948897	-0.691687
H90	H	1.344004	-0.777952	-0.680173
C91	C	1.337994	-0.704237	-1.413102
H92	H	1.409804	-0.687741	-1.425342
H93	H	1.296716	-0.687208	-1.469827
H94	H	1.329453	-0.767509	-1.407506
C95	C	1.356420	-0.319922	-0.213393
H96	H	1.365686	-0.380630	-0.236587
H97	H	1.346816	-0.316214	-0.139475
H98	H	1.416755	-0.283475	-0.230819
C99	C	1.339895	-0.555541	-0.928758
H100	H	1.350045	-0.547300	-0.855002
H101	H	1.351168	-0.616150	-0.950799
H102	H	1.270202	-0.542322	-0.945854
H103	H	1.767247	-0.335942	-1.024212
C104	C	0.622855	-0.549137	-0.857311
H105	H	0.613607	-0.488419	-0.834150
H106	H	0.562517	-0.585571	-0.839885
H107	H	0.632470	-0.552861	-0.931233
C108	C	1.120696	-0.733317	-1.340270
H109	H	1.054432	-0.735289	-1.306241
H110	H	1.146075	-0.792045	-1.346058
H111	H	1.113323	-0.711736	-1.408358
C112	C	1.201998	-0.520205	-1.020824
H113	H	1.259157	-0.483875	-0.990824
H114	H	1.178809	-0.563650	-0.972983
H115	H	1.146065	-0.483341	-1.035286
H116	H	1.082259	-0.637350	-1.154051
C117	C	1.487279	-0.583136	-1.289795
H118	H	1.524987	-0.542526	-1.241442
H119	H	1.487166	-0.558590	-1.356882
H120	H	1.519909	-0.638898	-1.294577
H121	H	1.618276	-0.329663	-1.128388
H122	H	0.968850	-0.667640	-0.665104
H123	H	1.896208	-0.231309	-0.917677
H124	H	1.837449	-0.151828	-0.748213
C125	C	1.233082	-0.441240	-0.362416
H126	H	1.185450	-0.471307	-0.411716
H127	H	1.231993	-0.472448	-0.299523
H128	H	1.301934	-0.439712	-0.390867
H129	H	1.649728	-0.176997	-0.685289
C130	C	0.746193	-0.427812	-0.708310
H131	H	0.793838	-0.397732	-0.659031
H132	H	0.677346	-0.429330	-0.679861
H133	H	0.747285	-0.396616	-0.771217
C134	C	1.608060	-0.764452	-0.416508
H135	H	1.602613	-0.701595	-0.421878
H136	H	1.677618	-0.779826	-0.432982
H137	H	1.591685	-0.779953	-0.346945
H138	H	1.520770	-0.281634	-0.791809
H139	H	1.010407	-0.201412	-0.405555
H140	H	1.645777	-0.919233	-0.378986
C141	C	1.294123	-0.135027	-0.167470
H142	H	1.351022	-0.165664	-0.141364
H143	H	1.250638	-0.116471	-0.110778
H144	H	1.320580	-0.083745	-0.202126
