data_functionalizedCrystal
_audit_creation_method	'MofGen! by Chris Wilmer'
_symmetry_space_group_name_H-M	'P1'
_symmetry_Int_Tables_number	1
_symmetry_cell_setting	triclinic
loop_
_symmetry_equiv_pos_as_xyz
  x,y,z
_cell_length_a	15.712078
_cell_length_b	10.654550
_cell_length_c	9.730223
_cell_angle_alpha	89.993470
_cell_angle_beta	90.001107
_cell_angle_gamma	77.966974
loop_
_atom_site_label
_atom_site_type_symbol
_atom_site_fract_x
_atom_site_fract_y
_atom_site_fract_z
O1	O	0.121737	-1.722218	0.114404
O2	O	0.133335	-1.361921	0.114382
O3	O	0.001421	-1.494137	0.114383
O4	O	0.253651	-1.590001	0.114403
O5	O	0.001421	-1.494126	-0.114196
O6	O	0.133336	-1.361909	-0.114198
O7	O	0.121737	-1.722206	-0.114176
Zn8	Zn	0.127537	-1.542056	-0.150479
Zn9	Zn	0.127536	-1.542071	0.150685
O10	O	0.253652	-1.589989	-0.114177
C11	C	0.132484	-1.314736	0.000090
C12	C	0.129936	-1.174155	0.000081
C13	C	-0.030876	-1.478471	0.000094
C14	C	-0.127111	-1.431791	0.000094
C15	C	0.122589	-1.769391	0.000120
C16	C	0.125137	-1.909972	0.000138
C17	C	-0.491831	-1.828112	0.000132
C18	C	-0.582256	-1.784220	0.000129
C19	C	-0.562958	-1.564291	0.000116
C20	C	-0.472530	-1.608164	0.000113
C21	C	-0.436974	-1.740076	0.000122
C22	C	-0.417673	-1.520128	0.000103
C23	C	-0.327253	-1.563998	0.000106
C24	C	-0.291689	-1.695905	0.000120
C25	C	-0.346554	-1.783946	0.000126
C26	C	-0.453231	-1.388217	0.000103
C27	C	-0.398374	-1.300181	0.000093
C28	C	-0.307951	-1.344051	0.000087
C29	C	-0.272388	-1.475957	0.000101
C30	C	-0.253087	-1.256009	0.000081
C31	C	-0.162667	-1.299880	0.000085
C32	C	-0.181968	-1.519827	0.000104
C33	C	0.285949	-1.605656	0.000116
C34	C	0.382183	-1.652336	0.000125
N35	N	0.127537	-1.542054	-0.356015
C36	C	0.207605	-1.129364	0.000107
C37	C	0.205206	-0.997271	0.000131
C38	C	0.047462	-0.954771	0.000108
C39	C	0.049862	-1.086861	0.000074
C40	C	0.298678	-1.153900	0.000126
C41	C	0.296278	-1.021807	0.000150
C42	C	0.069139	-1.600644	-0.571825
C43	C	0.069144	-1.600635	-0.427942
C44	C	0.185933	-1.483489	-0.427979
C45	C	0.185931	-1.483506	-0.571859
C46	C	0.001709	-1.668272	-0.571802
C47	C	0.001715	-1.668264	-0.427919
N48	N	0.127529	-1.542080	0.356222
H49	H	-0.153017	-1.627243	0.000098
H50	H	0.016553	-1.771422	-0.610820
H51	H	-0.317602	-1.891361	0.000119
H52	H	0.233485	-1.435833	-0.630443
H53	H	-0.218063	-1.731622	0.000123
H54	H	-0.013384	-1.123323	0.000033
H55	H	-0.061239	-1.609636	-0.616442
H56	H	0.233483	-1.435801	-0.369407
Br57	Br	0.036907	-1.835951	-0.353485
H58	H	0.334296	-1.199136	-0.095537
Br59	Br	-0.443568	-2.007138	0.000090
Br60	Br	-0.656705	-1.903713	0.000158
Br61	Br	-0.611221	-1.385273	0.000121
H62	H	-0.064905	-1.617047	-0.388879
Br63	Br	-0.061205	-0.836295	0.000094
H64	H	-0.526857	-1.352502	0.000108
H65	H	-0.427336	-1.192777	0.000091
Br66	Br	-0.088212	-1.180403	0.000077
Br67	Br	-0.301353	-1.076993	0.000103
Br68	Br	0.347006	-1.234939	0.164614
H69	H	0.323802	-0.988425	-0.098532
H70	H	0.330593	-0.995407	0.095820
