data_functionalizedCrystal
_audit_creation_method	'MofGen! by Chris Wilmer'
_symmetry_space_group_name_H-M	'P1'
_symmetry_Int_Tables_number	1
_symmetry_cell_setting	triclinic
loop_
_symmetry_equiv_pos_as_xyz
  x,y,z
_cell_length_a	19.188925
_cell_length_b	19.188930
_cell_length_c	16.776229
_cell_angle_alpha	90.011775
_cell_angle_beta	90.008094
_cell_angle_gamma	83.143665
loop_
_atom_site_label
_atom_site_type_symbol
_atom_site_fract_x
_atom_site_fract_y
_atom_site_fract_z
O1	O	0.926150	0.087151	0.066314
O2	O	1.259483	0.420484	0.399648
O3	O	1.592816	0.753818	0.732981
O4	O	0.722838	0.098889	0.066313
O5	O	1.056171	0.432223	0.399647
O6	O	1.389505	0.765556	0.732980
O7	O	0.830361	-0.008636	0.066298
O8	O	1.163694	0.324698	0.399632
O9	O	1.497028	0.658031	0.732965
O10	O	0.818627	0.194676	0.066329
O11	O	1.151960	0.528009	0.399663
O12	O	1.485293	0.861343	0.732996
O13	O	0.830347	-0.008642	-0.066278
O14	O	1.163680	0.324691	0.267055
O15	O	1.497013	0.658025	0.600388
O16	O	0.722824	0.098883	-0.066263
O17	O	1.056157	0.432216	0.267070
O18	O	1.389490	0.765549	0.600403
O19	O	0.926135	0.087145	-0.066262
O20	O	1.259469	0.420478	0.267071
O21	O	1.592802	0.753811	0.600404
Zn22	Zn	0.824477	0.093013	-0.087312
Zn23	Zn	1.157811	0.426346	0.246021
Zn24	Zn	1.491144	0.759679	0.579355
Zn25	Zn	0.824496	0.093021	0.087363
Zn26	Zn	1.157829	0.426355	0.420696
Zn27	Zn	1.491163	0.759688	0.754030
O28	O	0.818612	0.194669	-0.066247
O29	O	1.151946	0.528003	0.267086
O30	O	1.485279	0.861336	0.600419
C31	C	0.696820	0.098507	0.000025
C32	C	1.030153	0.431840	0.333358
C33	C	1.363486	0.765173	0.666691
C34	C	0.619315	0.097367	0.000024
C35	C	0.952648	0.430701	0.333357
C36	C	1.285982	0.764034	0.666690
C37	C	0.057545	0.152831	0.000034
C38	C	0.390878	0.486165	0.333367
C39	C	0.724211	0.819498	0.666701
C40	C	0.130368	0.153908	0.000038
C41	C	0.463701	0.487241	0.333372
C42	C	0.797035	0.820575	0.666705
C43	C	0.175302	0.090816	0.000027
C44	C	0.508636	0.424149	0.333361
C45	C	0.841969	0.757482	0.666694
C46	C	0.147408	0.026642	0.000032
C47	C	0.480742	0.359976	0.333366
C48	C	0.814075	0.693309	0.666699
C49	C	0.074586	0.025568	0.000036
C50	C	0.407920	0.358901	0.333369
C51	C	0.741253	0.692234	0.666702
N52	N	0.295975	0.045137	-0.045110
N53	N	0.629308	0.378471	0.288224
N54	N	0.962641	0.711804	0.621557
N55	N	0.365152	0.046163	-0.045115
N56	N	0.698485	0.379496	0.288219
N57	N	1.031819	0.712829	0.621552
C58	C	0.394712	0.094050	0.000018
C59	C	0.728045	0.427383	0.333352
C60	C	1.061378	0.760716	0.666685
N61	N	0.352479	0.140884	0.045147
N62	N	0.685812	0.474217	0.378480
N63	N	1.019146	0.807550	0.711814
N64	N	0.283295	0.139861	0.045148
N65	N	0.616628	0.473194	0.378482
N66	N	0.949962	0.806527	0.711815
C67	C	0.254267	0.091974	0.000024
C68	C	0.587600	0.425307	0.333357
C69	C	0.920933	0.758641	0.666691
C70	C	0.501561	0.159386	0.000024
C71	C	0.834894	0.492720	0.333357
C72	C	1.168227	0.826053	0.666691
C73	C	0.574385	0.160460	0.000033
C74	C	0.907719	0.493794	0.333367
C75	C	1.241052	0.827127	0.666700
C76	C	0.591425	0.033193	0.000019
C77	C	0.924758	0.366526	0.333353
C78	C	1.258091	0.699859	0.666686
C79	C	0.518601	0.032121	0.000018
C80	C	0.851934	0.365454	0.333351
C81	C	1.185268	0.698787	0.666685
C82	C	0.473673	0.095220	0.000016
C83	C	0.807006	0.428553	0.333350
C84	C	1.140340	0.761886	0.666683
C85	C	0.829974	-0.034650	0.000008
C86	C	1.163307	0.298683	0.333341
C87	C	1.496640	0.632017	0.666674
C88	C	0.828833	-0.112154	0.000001
C89	C	1.162166	0.221179	0.333334
C90	C	1.495500	0.554512	0.666667
C91	C	0.891924	-0.157079	-0.000003
C92	C	1.225257	0.176254	0.333331
C93	C	1.558591	0.509587	0.666664
C94	C	0.890852	-0.229903	0.000010
C95	C	1.224186	0.103430	0.333343
C96	C	1.557519	0.436763	0.666677
C97	C	0.826686	-0.257799	0.000010
C98	C	1.160020	0.075535	0.333344
C99	C	1.493353	0.408868	0.666677
C100	C	0.763587	-0.212864	0.000018
C101	C	1.096920	0.120470	0.333352
C102	C	1.430254	0.453803	0.666685
C103	C	0.764660	-0.140041	0.000014
C104	C	1.097994	0.193292	0.333347
C105	C	1.431327	0.526625	0.666680
N106	N	0.777634	-0.365805	-0.045108
N107	N	1.110967	-0.032472	0.288225
N108	N	1.444301	0.300862	0.621558
N109	N	0.776618	-0.434983	-0.045105
N110	N	1.109952	-0.101650	0.288228
N111	N	1.443285	0.231683	0.621561
C112	C	0.823448	-0.477207	0.000026
C113	C	1.156781	-0.143874	0.333360
C114	C	1.490115	0.189459	0.666693
N115	N	0.871342	-0.447640	0.045145
N116	N	1.204675	-0.114307	0.378479
N117	N	1.538009	0.219026	0.711812
N118	N	0.872360	-0.378456	0.045139
N119	N	1.205693	-0.045122	0.378472
N120	N	1.539026	0.288211	0.711806
C121	C	0.825515	-0.336761	0.000016
C122	C	1.158848	-0.003428	0.333349
C123	C	1.492182	0.329906	0.666683
C124	C	0.885381	-0.601097	0.000038
C125	C	1.218715	-0.267763	0.333371
C126	C	1.552048	0.065570	0.666705
C127	C	0.884307	-0.673922	0.000056
C128	C	1.217640	-0.340588	0.333389
C129	C	1.550974	-0.007255	0.666722
C130	C	0.757040	-0.656880	0.000056
C131	C	1.090373	-0.323547	0.333389
C132	C	1.423706	0.009786	0.666723
C133	C	0.758116	-0.584057	0.000046
C134	C	1.091449	-0.250724	0.333380
C135	C	1.424782	0.082610	0.666713
C136	C	0.822289	-0.556170	0.000033
C137	C	1.155622	-0.222837	0.333367
C138	C	1.488955	0.110497	0.666700
C139	C	0.952154	0.087527	0.000028
C140	C	1.285487	0.420861	0.333361
C141	C	1.618820	0.754194	0.666695
C142	C	1.029658	0.088666	0.000034
C143	C	1.362992	0.422000	0.333368
C144	C	1.696325	0.755333	0.666701
C145	C	0.819000	0.220684	0.000045
C146	C	1.152333	0.554017	0.333378
C147	C	1.485666	0.887350	0.666712
C148	C	0.820140	0.298188	0.000057
C149	C	1.153474	0.631522	0.333391
C150	C	1.486807	0.964855	0.666724
N151	N	0.824470	0.093006	-0.206523
N152	N	1.157803	0.426340	0.126810
N153	N	1.491136	0.759673	0.460143
C154	C	0.872095	0.045414	-0.248247
C155	C	1.205429	0.378747	0.085086
C156	C	1.538762	0.712080	0.418420
C157	C	0.872099	0.045413	-0.331699
C158	C	1.205432	0.378746	0.001634
C159	C	1.538766	0.712080	0.334967
C160	C	0.824480	0.093009	-0.373426
C161	C	1.157813	0.426342	-0.040093
C162	C	1.491147	0.759676	0.293240
C163	C	0.776849	0.140604	-0.331697
C164	C	1.110183	0.473937	0.001637
C165	C	1.443516	0.807270	0.334970
C166	C	0.776843	0.140601	-0.248246
C167	C	1.110176	0.473934	0.085087
C168	C	1.443509	0.807267	0.418421
C169	C	0.776875	0.140617	-0.668244
C170	C	1.110208	0.473951	-0.334910
C171	C	1.443541	0.807284	-0.001577
C172	C	0.776886	0.140618	-0.751700
C173	C	1.110220	0.473952	-0.418367
C174	C	1.443553	0.807285	-0.085034
C175	C	0.872131	0.045430	-0.751697
C176	C	1.205464	0.378763	-0.418364
C177	C	1.538798	0.712097	-0.085030
C178	C	0.872124	0.045427	-0.668246
C179	C	1.205458	0.378760	-0.334913
C180	C	1.538791	0.712093	-0.001580
C181	C	0.824492	0.093019	-0.626524
C182	C	1.157825	0.426352	-0.293191
C183	C	1.491158	0.759685	0.040143
C184	C	0.824487	0.093018	-0.536036
C185	C	1.157820	0.426351	-0.202702
C186	C	1.491154	0.759685	0.130631
C187	C	0.824487	0.093014	-0.463913
C188	C	1.157821	0.426347	-0.130580
C189	C	1.491154	0.759680	0.202754
N190	N	0.824509	0.093022	0.206574
N191	N	1.157843	0.426355	0.539908
N192	N	1.491176	0.759689	0.873241
H193	H	0.051883	-0.026685	0.000036
H194	H	0.385216	0.306649	0.333370
H195	H	0.718549	0.639982	0.666703
H196	H	0.597088	0.212713	0.000040
H197	H	0.930421	0.546046	0.333373
H198	H	1.263755	0.879380	0.666706
O199	O	0.488524	-0.037090	0.000003
O200	O	0.821857	0.296243	0.333337
O201	O	1.155191	0.629576	0.666670
H202	H	0.455766	-0.040626	0.054043
H203	H	0.789100	0.292707	0.387376
H204	H	1.122433	0.626040	0.720710
O205	O	0.725463	0.191924	-0.203244
O206	O	1.058796	0.525257	0.130089
O207	O	1.392129	0.858590	0.463423
H208	H	0.733448	0.183917	-0.138206
H209	H	1.066782	0.517250	0.195127
H210	H	1.400115	0.850584	0.528461
H211	H	0.944179	-0.134379	-0.000010
H212	H	1.277512	0.198954	0.333323
H213	H	1.610845	0.532288	0.666656
H214	H	0.910914	0.006676	-0.785676
H215	H	1.244248	0.340009	-0.452343
H216	H	1.577581	0.673342	-0.119010
H217	H	0.937635	-0.578390	0.000031
H218	H	1.270968	-0.245057	0.333365
H219	H	1.604301	0.088277	0.666698
O220	O	0.725509	0.191952	-0.623247
O221	O	1.058842	0.525286	-0.289914
O222	O	1.392175	0.858619	0.043420
H223	H	0.692405	0.225054	-0.666285
H224	H	1.025739	0.558387	-0.332952
H225	H	1.359072	0.891720	0.000382
H226	H	0.935686	-0.710500	0.000057
H227	H	1.269019	-0.377166	0.333391
H228	H	1.602352	-0.043833	0.666724
O229	O	0.690063	-0.535602	0.000035
O230	O	1.023396	-0.202269	0.333368
O231	O	1.356730	0.131065	0.666702
H232	H	0.687507	-0.502007	0.054071
H233	H	1.020840	-0.168674	0.387404
H234	H	1.354173	0.164659	0.720738
H235	H	0.020968	0.204211	0.000037
H236	H	0.354302	0.537545	0.333370
H237	H	0.687635	0.870878	0.666703
H238	H	0.183999	-0.024728	0.000026
H239	H	0.517332	0.308606	0.333359
H240	H	0.850665	0.641939	0.666692
O241	O	0.958903	-0.278371	-0.000008
O242	O	1.292236	0.054962	0.333325
O243	O	1.625570	0.388295	0.666659
H244	H	0.989641	-0.268473	0.054018
H245	H	1.322975	0.064861	0.387351
H246	H	1.656308	0.398194	0.720684
O247	O	0.160459	0.223116	0.000026
O248	O	0.493793	0.556450	0.333360
O249	O	0.827126	0.889783	0.666693
H250	H	0.116984	0.266811	0.000019
H251	H	0.450317	0.600145	0.333353
H252	H	0.783650	0.933478	0.666686
H253	H	0.464978	0.210765	0.000024
H254	H	0.798311	0.544098	0.333358
H255	H	1.131645	0.877432	0.666691
O256	O	0.694376	-0.242944	0.000010
O257	O	1.027710	0.090389	0.333343
O258	O	1.361043	0.423723	0.666676
H259	H	0.704229	-0.301130	0.000001
H260	H	1.037562	0.032203	0.333335
H261	H	1.370895	0.365537	0.666668
O262	O	0.923469	-0.005921	-0.376698
O263	O	1.256802	0.327412	-0.043365
O264	O	1.590135	0.660746	0.289969
H265	H	0.915469	0.002069	-0.441736
H266	H	1.248802	0.335402	-0.108403
H267	H	1.582135	0.668735	0.224930
H268	H	0.738074	0.179355	-0.365676
H269	H	1.071407	0.512688	-0.032342
H270	H	1.404740	0.846022	0.300991
O271	O	0.923453	-0.005925	-0.203242
O272	O	1.256787	0.327409	0.130091
O273	O	1.590120	0.660742	0.463425
H274	H	0.956565	-0.039024	-0.246279
H275	H	1.289899	0.294309	0.087054
H276	H	1.623232	0.627643	0.420388
O277	O	0.923480	-0.005912	-0.623239
O278	O	1.256814	0.327422	-0.289905
O279	O	1.590147	0.660755	0.043428
H280	H	0.956594	-0.039013	-0.666273
H281	H	1.289927	0.294321	-0.332939
H282	H	1.623260	0.627654	0.000394
O283	O	0.725535	0.191966	-0.796711
O284	O	1.058868	0.525300	-0.463378
O285	O	1.392201	0.858633	-0.130044
H286	H	0.692411	0.225061	-0.753680
H287	H	1.025745	0.558394	-0.420347
H288	H	1.359078	0.891727	-0.087013
O289	O	0.687830	-0.686957	0.000050
O290	O	1.021163	-0.353624	0.333383
O291	O	1.354496	-0.020291	0.666717
H292	H	0.684302	-0.719720	0.054085
H293	H	1.017635	-0.386387	0.387418
H294	H	1.350968	-0.053053	0.720751
O295	O	0.639880	-0.034859	0.000001
O296	O	0.973213	0.298474	0.333334
O297	O	1.306546	0.631807	0.666667
H298	H	0.673478	-0.037410	0.054031
H299	H	1.006811	0.295923	0.387365
H300	H	1.340144	0.629256	0.720698
O301	O	0.696610	-0.091579	0.000004
O302	O	1.029943	0.241754	0.333337
O303	O	1.363277	0.575088	0.666670
H304	H	0.651809	-0.123207	0.000000
H305	H	0.985142	0.210126	0.333333
H306	H	1.318476	0.543460	0.666667
