data_functionalizedCrystal
_audit_creation_method	'MofGen! by Chris Wilmer'
_symmetry_space_group_name_H-M	'P1'
_symmetry_Int_Tables_number	1
_symmetry_cell_setting	triclinic
loop_
_symmetry_equiv_pos_as_xyz
  x,y,z
_cell_length_a	9.065215
_cell_length_b	9.065215
_cell_length_c	18.366186
_cell_angle_alpha	89.994788
_cell_angle_beta	89.991514
_cell_angle_gamma	85.014697
loop_
_atom_site_label
_atom_site_type_symbol
_atom_site_fract_x
_atom_site_fract_y
_atom_site_fract_z
O1	O	1.960411	0.216339	-0.060540
O2	O	1.531126	0.234090	-0.060543
O3	O	1.754644	0.010572	-0.060538
O4	O	1.736893	0.439857	-0.060544
O5	O	1.754605	0.010560	0.060561
O6	O	1.531087	0.234078	0.060557
O7	O	1.960373	0.216327	0.060560
Zn8	Zn	1.745724	0.225201	0.079785
Zn9	Zn	1.745775	0.225216	-0.079768
O10	O	1.736854	0.439845	0.060555
C11	C	1.476120	0.232379	0.000007
C12	C	1.312277	0.227281	0.000005
C13	C	1.752920	-0.044421	0.000011
C14	C	1.747822	-0.208264	0.000009
C15	C	2.015379	0.218038	0.000009
C16	C	2.179222	0.223136	0.000005
C17	C	1.738579	0.494838	0.000005
C18	C	1.743677	0.658681	0.000002
N19	N	1.745700	0.225189	0.188676
N20	N	1.745810	0.225216	-0.188659
C21	C	1.844707	0.126265	0.226779
C22	C	1.844716	0.126259	0.303007
C23	C	1.745733	0.225202	0.341129
C24	C	1.646706	0.324134	0.303018
C25	C	1.646690	0.324127	0.226791
C26	C	1.728195	0.359329	0.461887
C27	C	1.728221	0.359338	0.538112
C28	C	1.745775	0.225221	0.576237
C29	C	1.763333	0.091091	0.538127
C30	C	1.763316	0.091085	0.461900
C31	C	1.745739	0.225220	0.423784
C32	C	1.844798	0.126282	0.696994
C33	C	1.844797	0.126274	0.773223
C34	C	1.646794	0.324161	0.773233
C35	C	1.646788	0.324157	0.697005
C36	C	1.745797	0.225219	0.658890
H37	H	1.925323	0.045701	0.195748
F38	F	1.782025	-0.051656	0.578695
H39	H	1.566172	0.404716	0.665980
F40	F	1.950166	0.020978	0.656429
H41	H	1.925343	0.045700	0.334036
F42	F	1.781990	-0.051662	0.421344
F43	F	1.709618	0.502089	0.421320
H44	H	1.566110	0.404692	0.334061
H45	H	1.925416	0.045710	0.804247
F46	F	1.541439	0.429455	0.813802
H47	H	1.713934	0.468554	0.569136
H48	H	1.566064	0.404685	0.195767
