data_functionalizedCrystal
_audit_creation_method	'MofGen! by Chris Wilmer'
_symmetry_space_group_name_H-M	'P1'
_symmetry_Int_Tables_number	1
_symmetry_cell_setting	triclinic
loop_
_symmetry_equiv_pos_as_xyz
  x,y,z
_cell_length_a	15.072220
_cell_length_b	14.519709
_cell_length_c	14.519709
_cell_angle_alpha	96.319855
_cell_angle_beta	90.002063
_cell_angle_gamma	89.993111
loop_
_atom_site_label
_atom_site_type_symbol
_atom_site_fract_x
_atom_site_fract_y
_atom_site_fract_z
O1	O	0.073669	-1.223879	0.120885
O2	O	0.073696	-0.955402	0.135122
O3	O	0.073674	-1.096759	-0.006235
O4	O	0.073691	-1.082522	0.262242
O5	O	-0.073891	-1.096724	-0.006227
O6	O	-0.073869	-0.955367	0.135129
O7	O	-0.073896	-1.223844	0.120893
Zn8	Zn	-0.097312	-1.089600	0.128012
Zn9	Zn	0.097112	-1.089646	0.128002
O10	O	-0.073874	-1.082487	0.262250
C11	C	-0.000083	-0.921025	0.134462
C12	C	-0.000073	-0.818643	0.132474
C13	C	-0.000109	-1.096078	-0.040591
C14	C	-0.000109	-1.094089	-0.142972
N15	N	-0.230000	-1.089575	0.128019
C16	C	-0.589202	-1.089644	0.127999
C17	C	-0.551583	-1.013752	0.203381
C18	C	-0.448757	-1.013927	0.203657
C19	C	-0.410998	-1.089609	0.128009
C20	C	-0.448297	-1.185870	0.149184
C21	C	-0.551155	-1.185445	0.149720
C22	C	-0.551306	-1.070133	0.031218
C23	C	-0.448442	-1.067926	0.031859
C24	C	-0.310285	-1.089595	0.128013
C25	C	-0.689915	-1.089664	0.127997
N26	N	0.229801	-1.089678	0.127988
C27	C	-0.000115	-1.258221	0.121553
C28	C	-0.000119	-1.360602	0.123541
C29	C	-0.000114	-0.443748	0.125154
C30	C	-0.000102	-0.548056	0.127187
C31	C	-0.000092	-0.631192	0.128814
C32	C	-0.000082	-0.735507	0.130847
C33	C	-0.000085	-1.086770	-0.517868
C34	C	-0.000092	-1.088803	-0.413560
C35	C	-0.000098	-1.090430	-0.330423
C36	C	-0.000103	-1.092463	-0.226109
C37	C	-0.000089	-1.083168	0.296606
C38	C	-0.000083	-1.085156	0.398987
H39	H	-0.576338	-0.941974	0.190947
H40	H	-0.422743	-1.119599	-0.026877
H41	H	-0.424140	-1.026402	0.275473
O42	O	-0.580946	-1.254898	0.086836
C43	C	-0.632711	-1.316970	0.132299
H44	H	-0.659433	-1.279906	0.199922
H45	H	-0.590045	-1.378230	0.147845
C46	C	-0.677971	-1.397613	-0.013447
C47	C	-0.710798	-1.352088	0.069606
H48	H	-0.726137	-1.419279	-0.052119
H49	H	-0.643094	-1.355796	-0.044076
H50	H	-0.642416	-1.448656	-0.000479
H51	H	-0.746342	-1.301039	0.056639
H52	H	-0.745683	-1.393897	0.100232
H53	H	-0.423540	-0.942380	0.191017
O54	O	-0.580441	-1.136199	-0.035605
C55	C	-0.634770	-1.199800	0.004845
H56	H	-0.662864	-1.165429	0.073024
H57	H	-0.593787	-1.262880	0.018514
C58	C	-0.677022	-1.272711	-0.145271
C59	C	-0.711534	-1.230492	-0.061536
H60	H	-0.724371	-1.291647	-0.186219
H61	H	-0.640416	-1.229864	-0.172524
H62	H	-0.642870	-1.325272	-0.133868
H63	H	-0.745675	-1.177926	-0.072939
H64	H	-0.748147	-1.273331	-0.034287
O65	O	-0.419321	-0.983516	0.012530
C66	C	-0.369820	-0.993848	-0.070359
H67	H	-0.390007	-1.060864	-0.113627
H68	H	-0.296088	-0.996440	-0.053310
C69	C	-0.363283	-0.828794	-0.072345
C70	C	-0.388083	-0.911101	-0.125490
H71	H	-0.374545	-0.777751	-0.106351
H72	H	-0.396630	-0.821833	-0.016499
H73	H	-0.301841	-0.830967	-0.058141
H74	H	-0.449525	-0.908932	-0.139683
H75	H	-0.354746	-0.918061	-0.181340
H76	H	-0.577418	-1.026057	0.274793
H77	H	-0.422526	-1.203445	0.218967
H78	H	-0.575134	-1.202614	0.220307
O79	O	-0.419005	-1.254760	0.085387
C80	C	-0.364246	-1.216833	0.020451
H81	H	-0.336142	-1.147820	0.052700
H82	H	-0.404871	-1.205335	-0.043522
C83	C	-0.322030	-1.368922	-0.047234
C84	C	-0.287507	-1.284162	-0.007623
H85	H	-0.274695	-1.410455	-0.064556
H86	H	-0.358925	-1.394475	-0.003488
H87	H	-0.355884	-1.359328	-0.100541
H88	H	-0.253663	-1.293755	0.045689
H89	H	-0.250604	-1.258612	-0.051361
O90	O	-0.582222	-0.988228	0.006823
C91	C	-0.547002	-0.972845	-0.080132
H92	H	-0.526820	-1.041898	-0.119595
H93	H	-0.486395	-0.925892	-0.069641
C94	C	-0.642448	-0.841378	-0.087512
C95	C	-0.617668	-0.926190	-0.135985
H96	H	-0.686036	-0.812595	-0.121964
H97	H	-0.666175	-0.851738	-0.028927
H98	H	-0.591936	-0.802261	-0.078772
H99	H	-0.668177	-0.965309	-0.144713
H100	H	-0.593951	-0.915835	-0.194573
