data_functionalizedCrystal
_audit_creation_method	'MofGen! by Chris Wilmer'
_symmetry_space_group_name_H-M	'P1'
_symmetry_Int_Tables_number	1
_symmetry_cell_setting	triclinic
loop_
_symmetry_equiv_pos_as_xyz
  x,y,z
_cell_length_a	15.538191
_cell_length_b	14.519709
_cell_length_c	14.750779
_cell_angle_alpha	77.332886
_cell_angle_beta	97.572172
_cell_angle_gamma	65.476119
loop_
_atom_site_label
_atom_site_type_symbol
_atom_site_fract_x
_atom_site_fract_y
_atom_site_fract_z
O1	O	1.229003	-0.272518	-0.079831
O2	O	0.954923	-0.166092	-0.079833
O3	O	1.099232	-0.355991	-0.079824
O4	O	1.084694	-0.082619	-0.079841
O5	O	1.140026	-0.409668	0.079829
O6	O	0.995717	-0.219769	0.079820
O7	O	1.269797	-0.326196	0.079821
Zn8	Zn	1.139234	-0.281505	0.105169
Zn9	Zn	1.085486	-0.210782	-0.105181
O10	O	1.125488	-0.136297	0.079812
C11	C	0.940243	-0.181796	-0.000007
C12	C	0.835725	-0.148628	-0.000007
C13	C	1.118952	-0.416961	0.000003
C14	C	1.116922	-0.518660	0.000004
C15	C	0.547381	-0.478139	-0.000001
C16	C	0.449167	-0.446949	-0.000004
C17	C	0.427017	-0.271514	-0.000015
C18	C	0.525232	-0.302691	-0.000007
C19	C	0.585407	-0.406004	-0.000002
C20	C	0.563258	-0.230557	-0.000008
C21	C	0.661464	-0.261730	-0.000005
C22	C	0.721643	-0.365037	-0.000003
C23	C	0.683612	-0.437177	0.000001
C24	C	0.503080	-0.127242	-0.000020
C25	C	0.541106	-0.055108	-0.000021
C26	C	0.639315	-0.086282	-0.000012
C27	C	0.699494	-0.189590	-0.000009
C28	C	0.677346	-0.014142	-0.000015
C29	C	0.775551	-0.045315	-0.000013
C30	C	0.797700	-0.220763	-0.000006
C31	C	1.109444	-0.891034	-0.000021
C32	C	1.111521	-0.787427	-0.000014
C33	C	1.113183	-0.704851	-0.000008
C34	C	1.115260	-0.601236	-0.000003
C35	C	1.284476	-0.310491	-0.000007
C36	C	1.388993	-0.343656	-0.000013
C37	C	1.105768	-0.075325	-0.000017
C38	C	1.107796	0.026375	-0.000024
N39	N	1.175923	-0.329774	0.248727
N40	N	1.048805	-0.162523	-0.248739
C41	C	0.946338	-0.027755	0.600530
C42	C	0.972054	-0.061575	0.701031
C43	C	1.099866	-0.229693	0.701002
C44	C	1.074158	-0.195889	0.600499
C45	C	0.997394	-0.094918	0.550271
C46	C	1.125213	-0.263052	0.550240
C47	C	1.099510	-0.229248	0.449746
C48	C	1.022751	-0.128281	0.399511
C49	C	0.971690	-0.061114	0.449777
C50	C	1.201982	-0.364019	0.600470
C51	C	1.253037	-0.431183	0.550211
C52	C	1.227330	-0.397382	0.449715
C53	C	1.150571	-0.296415	0.399480
C54	C	1.278390	-0.464549	0.399449
C55	C	1.252687	-0.430745	0.298955
C56	C	1.124867	-0.262611	0.298986
H57	H	0.846699	-0.304892	0.000004
O58	O	0.412064	-0.516882	-0.000039
C59	C	0.312489	-0.467228	-0.000015
H60	H	0.281834	-0.377417	-0.030246
H61	H	0.270395	-0.495822	-0.046363
H62	H	0.304717	-0.488292	0.076579
O63	O	1.050399	-0.164448	0.250227
C64	C	1.072111	-0.086569	0.274791
H65	H	1.154544	-0.120587	0.302406
H66	H	1.044457	-0.014467	0.208700
H67	H	1.034888	-0.061678	0.333130
H68	H	1.222909	-0.391537	0.682299
H69	H	1.162371	-0.311903	0.741909
O70	O	1.327549	-0.529247	0.599155
C71	C	1.339307	-0.544673	0.698632
H72	H	1.268034	-0.489829	0.712377
H73	H	1.359430	-0.630821	0.736824
H74	H	1.399964	-0.525843	0.727134
O75	O	0.922309	0.003633	0.749814
C76	C	0.822813	0.028062	0.725262
H77	H	0.815169	-0.036286	0.697631
H78	H	0.792490	0.032210	0.791363
H79	H	0.780325	0.108015	0.666940
H80	H	0.596381	-0.562268	0.000009
O81	O	1.352838	-0.562687	0.448293
C82	C	1.317204	-0.622247	0.506462
H83	H	1.235216	-0.588814	0.476195
H84	H	1.355785	-0.708729	0.507603
H85	H	1.331795	-0.617359	0.582621
H86	H	1.294263	-0.485437	0.258034
H87	H	0.378009	-0.187395	-0.000023
H88	H	0.801605	-0.390412	-0.000014
H89	H	0.423115	-0.101863	-0.000025
O90	O	0.482526	0.045191	0.000019
C91	C	0.387686	0.057249	-0.000010
H92	H	0.391511	-0.024047	0.030213
H93	H	0.355133	0.109531	0.046342
H94	H	0.339723	0.096012	-0.076605
H95	H	0.732612	-0.521307	0.000011
H96	H	0.806514	0.013421	-0.000004
O97	O	0.618757	0.086227	-0.000154
C98	C	0.540182	0.137313	-0.082859
H99	H	0.528048	0.075084	-0.110422
H100	H	0.471183	0.190109	-0.064274
H101	H	0.557775	0.188055	-0.140757
H102	H	0.883822	0.054461	0.559633
O103	O	0.997679	-0.095255	0.301891
C104	C	0.918963	0.008253	0.268339
H105	H	0.917449	0.049163	0.326257
H106	H	0.928337	0.055593	0.201100
H107	H	0.847451	0.003702	0.250528
O108	O	0.897222	0.037049	0.401018
C109	C	0.918934	0.114927	0.425583
H110	H	1.001367	0.080910	0.453197
H111	H	0.891280	0.187030	0.359491
H112	H	0.881711	0.139818	0.483921
