data_functionalizedCrystal
_audit_creation_method	'MofGen! by Chris Wilmer'
_symmetry_space_group_name_H-M	'P1'
_symmetry_Int_Tables_number	1
_symmetry_cell_setting	triclinic
loop_
_symmetry_equiv_pos_as_xyz
  x,y,z
_cell_length_a	14.971486
_cell_length_b	10.967829
_cell_length_c	10.065907
_cell_angle_alpha	86.901068
_cell_angle_beta	81.225050
_cell_angle_gamma	84.175477
loop_
_atom_site_label
_atom_site_type_symbol
_atom_site_fract_x
_atom_site_fract_y
_atom_site_fract_z
O1	O	1.204549	0.139083	-0.146042
O2	O	1.704549	0.639083	0.353958
O3	O	0.944763	0.157840	-0.150490
O4	O	1.444763	0.657840	0.349510
O5	O	1.075943	-0.026547	-0.107100
O6	O	1.575943	0.473453	0.392900
O7	O	1.073370	0.323470	-0.189431
O8	O	1.573370	0.823470	0.310569
O9	O	1.050878	0.008688	0.111597
O10	O	1.550878	0.508688	0.611597
O11	O	0.919699	0.193075	0.068208
O12	O	1.419699	0.693075	0.568208
O13	O	1.179485	0.174318	0.072656
O14	O	1.679485	0.674318	0.572656
Zn15	Zn	1.045612	0.189291	0.105155
Zn16	Zn	1.545612	0.689291	0.605155
Zn17	Zn	1.078636	0.142867	-0.182989
Zn18	Zn	1.578636	0.642867	0.317011
O19	O	1.048305	0.358705	0.029266
O20	O	1.548305	0.858705	0.529266
C21	C	0.898880	0.174618	-0.040948
C22	C	1.398880	0.674618	0.459052
C23	C	0.799502	0.172101	-0.040370
C24	C	1.299502	0.672101	0.459630
C25	C	0.745800	0.280425	-0.065848
C26	C	1.245800	0.780425	0.434152
C27	C	0.652422	0.278058	-0.065271
C28	C	1.152422	0.778058	0.434729
C29	C	0.612748	0.167365	-0.039225
C30	C	1.112748	0.667365	0.460775
C31	C	0.666456	0.059033	-0.013742
C32	C	1.166456	0.559033	0.486258
C33	C	0.759832	0.061402	-0.014310
C34	C	1.259832	0.561402	0.485690
C35	C	0.471831	0.054101	-0.012563
C36	C	0.971831	0.554101	0.487437
C37	C	0.378449	0.051731	-0.011997
C38	C	0.878449	0.551731	0.488003
C39	C	0.364421	0.270757	-0.063525
C40	C	0.864421	0.770757	0.436475
C41	C	0.457796	0.273127	-0.064093
C42	C	0.957796	0.773127	0.435907
C43	C	0.511499	0.164794	-0.038611
C44	C	1.011499	0.664794	0.461389
C45	C	1.061330	-0.053723	0.012781
C46	C	1.561330	0.446277	0.512781
C47	C	1.055118	-0.187195	0.044167
C48	C	1.555118	0.312805	0.544167
C49	C	1.065333	-0.264947	-0.055134
C50	C	1.565333	0.235053	0.444866
C51	C	1.058914	-0.402898	-0.022698
C52	C	1.558914	0.097102	0.477302
C53	C	1.225369	0.157540	-0.036889
C54	C	1.725369	0.657540	0.463111
C55	C	1.324747	0.160055	-0.037475
C56	C	1.824747	0.660055	0.462525
C57	C	1.062919	0.385881	-0.090618
C58	C	1.562919	0.885881	0.409382
C59	C	1.069131	0.519351	-0.122012
C60	C	1.569131	1.019351	0.377988
N61	N	1.023081	0.220973	0.301805
N62	N	1.523081	0.720973	0.801805
C63	C	1.053461	0.178270	0.536796
C64	C	1.553461	0.678270	1.036796
C65	C	1.070794	0.153878	0.385369
C66	C	1.570794	0.653878	0.885369
N67	N	1.101167	0.111185	0.620361
N68	N	1.601167	0.611185	1.120361
H69	H	0.608701	0.366267	-0.086020
H70	H	1.108701	0.866267	0.413980
H71	H	1.045410	-0.438452	0.086337
H72	H	1.545410	0.061548	0.586337
H73	H	1.082619	-0.445093	-0.231049
H74	H	1.582619	0.054907	0.268951
H75	H	0.515553	-0.034115	0.008189
H76	H	1.015553	0.465885	0.508189
H77	H	0.490097	0.363261	-0.085314
H78	H	0.990097	0.863261	0.414686
H79	H	0.320691	0.358967	-0.084267
H80	H	0.820691	0.858967	0.415733
H81	H	0.346149	-0.038405	0.009213
H82	H	0.846149	0.461595	0.509213
H83	H	1.041615	-0.222755	0.153194
H84	H	1.541615	0.277245	0.653194
H85	H	0.999782	0.253760	0.577356
H86	H	1.499782	0.753760	1.077356
H87	H	0.634144	-0.031093	0.007484
H88	H	1.134144	0.468907	0.507484
H89	H	1.124469	0.078375	0.344815
H90	H	1.624469	0.578375	0.844815
H91	H	1.154839	0.035688	0.579801
H92	H	1.654839	0.535688	1.079801
H93	H	0.969399	0.296467	0.342361
H94	H	1.469399	0.796467	0.842361
H95	H	0.803556	-0.026807	0.006437
H96	H	1.303556	0.473193	0.506437
H97	H	0.778096	0.370565	-0.087059
H98	H	1.278096	0.870565	0.412941
H99	H	1.078827	-0.229385	-0.164162
H100	H	1.578827	0.270615	0.335838
