data_functionalizedCrystal
_audit_creation_method	'MofGen! by Chris Wilmer'
_symmetry_space_group_name_H-M	'P1'
_symmetry_Int_Tables_number	1
_symmetry_cell_setting	triclinic
loop_
_symmetry_equiv_pos_as_xyz
  x,y,z
_cell_length_a	14.971506
_cell_length_b	14.044220
_cell_length_c	14.048226
_cell_angle_alpha	90.004491
_cell_angle_beta	90.005155
_cell_angle_gamma	88.405633
loop_
_atom_site_label
_atom_site_type_symbol
_atom_site_fract_x
_atom_site_fract_y
_atom_site_fract_z
O1	O	1.196673	0.123626	0.079170
O2	O	1.696673	0.623626	0.579170
O3	O	0.937439	0.138400	0.079171
O4	O	1.437439	0.638400	0.579171
O5	O	1.063165	-0.006976	0.079161
O6	O	1.563165	0.493024	0.579161
O7	O	1.070947	0.269002	0.079180
O8	O	1.570947	0.769002	0.579180
O9	O	1.063152	-0.006977	-0.079160
O10	O	1.563152	0.493023	0.420840
O11	O	0.937426	0.138399	-0.079150
O12	O	1.437426	0.638399	0.420850
O13	O	1.196660	0.123625	-0.079151
O14	O	1.696660	0.623625	0.420849
Zn15	Zn	1.067041	0.131012	-0.104288
Zn16	Zn	1.567041	0.631012	0.395712
Zn17	Zn	1.067058	0.131013	0.104307
Zn18	Zn	1.567058	0.631013	0.604307
O19	O	1.070934	0.269001	-0.079141
O20	O	1.570934	0.769001	0.420859
C21	C	0.904056	0.137735	0.000010
C22	C	1.404056	0.637735	0.500010
C23	C	0.804603	0.135745	0.000010
C24	C	1.304603	0.635745	0.500010
C25	C	1.059752	-0.042295	0.000000
C26	C	1.559752	0.457705	0.500000
C27	C	1.049591	-0.147533	-0.000001
C28	C	1.549591	0.352467	0.499999
C29	C	0.372450	0.213556	0.000025
C30	C	0.872450	0.713556	0.500025
C31	C	0.465897	0.215418	0.000030
C32	C	0.965897	0.715418	0.500030
C33	C	0.516388	0.130004	0.000019
C34	C	1.016388	0.630004	0.500019
C35	C	0.473428	0.042722	0.000015
C36	C	0.973428	0.542722	0.500015
C37	C	0.379983	0.040860	0.000017
C38	C	0.879983	0.540860	0.500017
C39	C	0.668197	0.046608	0.000007
C40	C	1.168197	0.546608	0.500007
C41	C	0.761649	0.048469	0.000003
C42	C	1.261649	0.548469	0.500003
C43	C	0.754112	0.221166	0.000019
C44	C	1.254112	0.721166	0.500019
C45	C	0.660666	0.219305	0.000022
C46	C	1.160666	0.719305	0.500022
C47	C	0.617712	0.132022	0.000015
C48	C	1.117712	0.632022	0.500015
C49	C	1.031014	-0.340217	0.000013
C50	C	1.531014	0.159783	0.500013
C51	C	1.103081	-0.397763	0.000015
C52	C	1.603081	0.102237	0.500015
C53	C	1.092745	-0.504979	0.000023
C54	C	1.592745	-0.004979	0.500023
C55	C	1.041349	-0.232991	0.000005
C56	C	1.541349	0.267009	0.500005
C57	C	1.230043	0.124290	0.000012
C58	C	1.730043	0.624290	0.500012
C59	C	1.329496	0.126280	0.000018
C60	C	1.829496	0.626280	0.500018
C61	C	1.074347	0.304320	0.000022
C62	C	1.574347	0.804320	0.500022
C63	C	1.084508	0.409558	0.000029
C64	C	1.584508	0.909558	0.500029
N65	N	1.067035	0.131010	-0.246648
N66	N	1.567035	0.631010	0.253352
C67	C	1.125875	0.188606	-0.296458
C68	C	1.625875	0.688606	0.203542
C69	C	1.125886	0.188602	-0.396116
C70	C	1.625886	0.688602	0.103884
C71	C	1.067053	0.131006	-0.445962
C72	C	1.567053	0.631006	0.054038
C73	C	1.008211	0.073403	-0.396145
C74	C	1.508211	0.573403	0.103855
C75	C	1.008205	0.073403	-0.296489
C76	C	1.508205	0.573403	0.203511
C77	C	1.008226	0.073410	-0.603859
C78	C	1.508226	0.573410	-0.103859
C79	C	1.008231	0.073411	-0.703522
C80	C	1.508231	0.573411	-0.203522
C81	C	1.125907	0.188609	-0.703486
C82	C	1.625907	0.688609	-0.203486
C83	C	1.125901	0.188609	-0.603830
C84	C	1.625901	0.688609	-0.103830
C85	C	1.067058	0.131007	-0.554020
C86	C	1.567058	0.631007	-0.054020
N87	N	1.067070	0.131007	0.246668
N88	N	1.567070	0.631007	0.746668
H89	H	0.331347	0.283110	0.000026
H90	H	0.831347	0.783110	0.500026
Br91	Br	0.830173	-0.067451	-0.000005
Br92	Br	1.330173	0.432549	0.499995
Br93	Br	1.205743	0.266772	-0.463712
Br94	Br	1.705743	0.766772	0.036288
H95	H	0.789089	0.292235	0.000024
H96	H	1.289089	0.792235	0.500024
H97	H	1.172542	-0.366508	0.000079
H98	H	1.672542	0.133492	0.500079
H99	H	0.633227	-0.024467	0.000007
H100	H	1.133227	0.475533	0.500007
Br101	Br	1.205768	0.266782	-0.771084
Br102	Br	1.705768	0.766782	-0.271084
H103	H	0.961559	-0.371471	0.000015
H104	H	1.461559	0.128529	0.500015
H105	H	1.173779	0.235514	-0.255881
H106	H	1.673779	0.735514	0.244119
Br107	Br	0.928368	-0.004768	-0.463792
Br108	Br	1.428368	0.495232	0.036208
H109	H	0.514545	-0.026824	0.000012
H110	H	1.014545	0.473176	0.500012
H111	H	1.173805	0.235513	-0.563248
H112	H	1.673805	0.735513	-0.063248
Br113	Br	0.321687	-0.077590	0.000011
Br114	Br	0.821687	0.422410	0.500011
H115	H	0.960323	0.026512	-0.744104
H116	H	1.460323	0.526512	-0.244104
H117	H	0.960291	0.026502	-0.255935
H118	H	1.460291	0.526502	0.244065
Br119	Br	0.524189	0.333869	0.000049
Br120	Br	1.024189	0.833869	0.500049
Br121	Br	0.928383	-0.004784	-0.536260
Br122	Br	1.428383	0.495216	-0.036260
Br123	Br	0.592142	0.335225	0.000027
Br124	Br	1.092142	0.835225	0.500027
