data_functionalizedCrystal
_audit_creation_method	'MofGen! by Chris Wilmer'
_symmetry_space_group_name_H-M	'P1'
_symmetry_Int_Tables_number	1
_symmetry_cell_setting	triclinic
loop_
_symmetry_equiv_pos_as_xyz
  x,y,z
_cell_length_a	19.805407
_cell_length_b	19.805405
_cell_length_c	18.215399
_cell_angle_alpha	90.027923
_cell_angle_beta	90.018864
_cell_angle_gamma	90.024042
loop_
_atom_site_label
_atom_site_type_symbol
_atom_site_fract_x
_atom_site_fract_y
_atom_site_fract_z
Zn1	Zn	1.034741	-0.269519	0.416097
Zn2	Zn	1.534741	0.230481	0.916097
Zn3	Zn	1.034653	-0.382710	0.293031
Zn4	Zn	1.534653	0.117290	0.793031
Zn5	Zn	0.921554	-0.269535	0.293046
Zn6	Zn	1.421554	0.230465	0.793046
Zn7	Zn	0.921519	-0.382666	0.416058
Zn8	Zn	1.421519	0.117334	0.916058
O9	O	0.978117	-0.326107	0.354558
O10	O	1.478117	0.173893	0.854558
O11	O	1.129446	-0.284545	0.399782
O12	O	1.629446	0.215455	0.899782
O13	O	1.019628	-0.367722	0.190048
O14	O	1.519628	0.132278	0.690048
O15	O	0.936620	-0.174816	0.309392
O16	O	1.436620	0.325184	0.809392
O17	O	1.129382	-0.367706	0.309366
O18	O	1.629382	0.132294	0.809366
O19	O	1.019778	-0.174804	0.399797
O20	O	1.519778	0.325196	0.899797
O21	O	0.936535	-0.284572	0.190060
O22	O	1.436535	0.215428	0.690060
O23	O	0.826833	-0.284530	0.309354
O24	O	1.326833	0.215470	0.809354
O25	O	0.936560	-0.367631	0.519047
O26	O	1.436560	0.132369	1.019047
O27	O	0.826807	-0.367647	0.399730
O28	O	1.326807	0.132353	0.899730
O29	O	1.019744	-0.284503	0.519076
O30	O	1.519744	0.215497	1.019076
O31	O	1.019594	-0.477420	0.309328
O32	O	1.519594	0.022580	0.809328
O33	O	0.936475	-0.477388	0.399715
O34	O	1.436475	0.022612	0.899715
C35	C	0.802261	-0.326086	0.354540
C36	C	1.302261	0.173914	0.854540
C37	C	0.727029	-0.326093	0.354550
C38	C	1.227029	0.173907	0.854550
C39	C	0.691719	-0.282868	0.401701
C40	C	1.191719	0.217132	0.901701
C41	C	0.621030	-0.282871	0.401704
C42	C	1.121030	0.217129	0.901704
C43	C	0.585653	-0.326104	0.354559
C44	C	1.085653	0.173896	0.854559
C45	C	0.620968	-0.369331	0.307402
C46	C	1.120968	0.130669	0.807402
C47	C	0.691655	-0.369324	0.307396
C48	C	1.191655	0.130676	0.807396
C49	C	0.335895	-0.369362	0.307425
C50	C	0.835895	0.130638	0.807425
C51	C	0.265203	-0.369367	0.307436
C52	C	0.765203	0.130633	0.807436
C53	C	0.265270	-0.282909	0.401733
C54	C	0.765270	0.217091	0.901733
C55	C	0.335957	-0.282902	0.401727
C56	C	0.835957	0.217098	0.901727
C57	C	0.371266	-0.326126	0.354568
C58	C	0.871266	0.173874	0.854568
C59	C	0.447914	-0.326121	0.354564
C60	C	0.947914	0.173879	0.854564
C61	C	0.509006	-0.326113	0.354565
C62	C	1.009006	0.173887	0.854565
C63	C	0.978040	-0.501963	0.354531
C64	C	1.478040	-0.001963	0.854531
C65	C	0.978069	-0.577195	0.354545
C66	C	1.478069	-0.077195	0.854545
C67	C	1.021344	-0.612475	0.401655
C68	C	1.521344	-0.112475	0.901655
C69	C	1.021368	-0.683163	0.401669
C70	C	1.521368	-0.183163	0.901669
C71	C	0.978120	-0.718571	0.354568
C72	C	1.478120	-0.218571	0.854568
C73	C	0.934841	-0.683286	0.307455
C74	C	1.434841	-0.183286	0.807455
C75	C	0.934813	-0.612599	0.307445
C76	C	1.434813	-0.112599	0.807445
C77	C	0.934949	-0.968359	0.307493
C78	C	1.434949	-0.468359	0.807493
C79	C	0.934981	-1.039051	0.307504
C80	C	1.434981	-0.539051	0.807504
C81	C	1.021504	-1.038924	0.401716
C82	C	1.521504	-0.538924	0.901716
C83	C	1.021477	-0.968237	0.401707
C84	C	1.521477	-0.468237	0.901707
C85	C	0.978195	-0.932958	0.354597
C86	C	1.478195	-0.432958	0.854597
C87	C	0.978168	-0.856310	0.354584
C88	C	1.478168	-0.356310	0.854584
C89	C	0.978150	-0.795218	0.354577
C90	C	1.478150	-0.295218	0.854577
C91	C	1.154659	-0.326129	0.354576
C92	C	1.654659	0.173871	0.854576
C93	C	1.229891	-0.326138	0.354584
C94	C	1.729891	0.173862	0.854584
C95	C	0.978158	-0.326060	0.546511
C96	C	1.478158	0.173940	1.046511
C97	C	0.978176	-0.326041	0.628310
C98	C	1.478176	0.173959	1.128310
C99	C	0.978213	-0.149564	0.354601
C100	C	1.478213	0.350436	0.854601
C101	C	0.978254	-0.074332	0.354619
C102	C	1.478254	0.425668	0.854619
C103	C	0.978115	-0.326105	0.163352
C104	C	1.478115	0.173895	0.663352
C105	C	0.978228	-0.325934	0.081553
C106	C	1.478228	0.174066	0.581553
C107	C	1.021505	-0.282715	0.816520
C108	C	1.521505	0.217285	1.316520
C109	C	1.021513	-0.282695	0.893379
C110	C	1.521513	0.217305	1.393379
C111	C	0.934894	-0.369261	0.893338
C112	C	1.434894	0.130739	1.393338
C113	C	0.934883	-0.369277	0.816480
C114	C	1.434883	0.130723	1.316480
C115	C	0.978192	-0.326005	0.778073
C116	C	1.478192	0.173995	1.278073
C117	C	0.978211	-0.325969	0.931790
C118	C	1.478211	0.174031	1.431790
C119	C	0.978220	-0.325948	1.015123
C120	C	1.478220	0.174052	1.515123
C121	C	0.978183	-0.326025	0.694734
C122	C	1.478183	0.173975	1.194734
H123	H	0.720518	-0.247664	0.440094
H124	H	1.220518	0.252336	0.940094
H125	H	0.899608	-0.404529	0.785176
H126	H	1.399608	0.095471	1.285176
O127	O	0.370352	-0.241002	0.447602
O128	O	0.870352	0.258998	0.947602
C129	C	0.411259	-0.279587	0.495044
C130	C	0.911259	0.220413	0.995044
H131	H	0.389942	-0.332903	0.499491
H132	H	0.889942	0.167097	0.999491
H133	H	0.464822	-0.281887	0.472280
H134	H	0.964822	0.218113	0.972280
C135	C	0.438568	-0.181125	0.566150
C136	C	0.938568	0.318875	1.066150
C137	C	0.412382	-0.246607	0.571617
C138	C	0.912382	0.253393	1.071617
H139	H	0.439264	-0.160780	0.613382
H140	H	0.939264	0.339220	1.113382
H141	H	0.411010	-0.155128	0.534185
H142	H	0.911010	0.344872	1.034185
H143	H	0.483201	-0.183050	0.547176
H144	H	0.983201	0.316950	1.047176
H145	H	0.367747	-0.244680	0.590581
H146	H	0.867747	0.255320	1.090581
H147	H	0.439933	-0.272602	0.603586
H148	H	0.939933	0.227398	1.103586
H149	H	1.056769	-0.247478	0.785252
H150	H	1.556769	0.252522	1.285252
H151	H	1.056695	-0.939410	0.440058
H152	H	1.556695	-0.439410	0.940058
O153	O	0.892767	-0.411321	0.930534
O154	O	1.392767	0.088679	1.430534
C155	C	0.854547	-0.449545	0.880116
C156	C	1.354547	0.050455	1.380116
H157	H	0.852207	-0.421831	0.825338
H158	H	1.352207	0.078169	1.325338
H159	H	0.879308	-0.500953	0.871929
H160	H	1.379308	-0.000953	1.371929
C161	C	0.785385	-0.493331	0.977376
C162	C	1.285385	0.006669	1.477376
C163	C	0.782506	-0.459290	0.910098
C164	C	1.282506	0.040710	1.410098
H165	H	0.740947	-0.499346	0.995872
H166	H	1.240947	0.000654	1.495872
H167	H	0.811136	-0.467581	1.011345
H168	H	1.311136	0.032419	1.511345
H169	H	0.806022	-0.536168	0.970545
H170	H	1.306022	-0.036168	1.470545
H171	H	0.761877	-0.416451	0.916932
H172	H	1.261877	0.083549	1.416932
H173	H	0.756750	-0.485033	0.876132
H174	H	1.256750	0.014967	1.376132
O175	O	0.892733	-0.717649	0.261779
O176	O	1.392733	-0.217649	0.761779
C177	C	0.825258	-0.700411	0.277782
C178	C	1.325258	-0.200411	0.777782
H179	H	0.821801	-0.680950	0.336568
H180	H	1.321801	-0.180950	0.836568
H181	H	0.807569	-0.659417	0.238304
H182	H	1.307569	-0.159417	0.738304
C183	C	0.784363	-0.787150	0.196978
C184	C	1.284363	-0.287150	0.696978
C185	C	0.780116	-0.763253	0.269183
C186	C	1.280116	-0.263253	0.769183
H187	H	0.756516	-0.825912	0.191671
H188	H	1.256516	-0.325912	0.691671
H189	H	0.829821	-0.798762	0.186194
H190	H	1.329821	-0.298762	0.686194
H191	H	0.769623	-0.752982	0.164088
H192	H	1.269623	-0.252982	0.664088
H193	H	0.794863	-0.797417	0.302071
H194	H	1.294863	-0.297417	0.802071
H195	H	0.734658	-0.751648	0.279972
H196	H	1.234658	-0.251648	0.779972
H197	H	1.056782	-0.247443	0.924679
H198	H	1.556782	0.252557	1.424679
H199	H	0.592284	-0.247674	0.440101
H200	H	1.092284	0.252326	0.940101
O201	O	0.370220	-0.411256	0.261546
O202	O	0.870220	0.088744	0.761546
C203	C	0.411116	-0.372664	0.214093
C204	C	0.911116	0.127336	0.714093
H205	H	0.389829	-0.319353	0.209648
H206	H	0.889829	0.180647	0.709648
H207	H	0.464698	-0.370353	0.236847
H208	H	0.964698	0.129647	0.736847
C209	C	0.438306	-0.471124	0.142987
C210	C	0.938306	0.028876	0.642987
C211	C	0.412158	-0.405648	0.137522
C212	C	0.912158	0.094352	0.637522
H213	H	0.438953	-0.491471	0.095755
H214	H	0.938953	0.008529	0.595755
H215	H	0.410757	-0.497125	0.174958
H216	H	0.910757	0.002875	0.674958
H217	H	0.482956	-0.469189	0.161951
H218	H	0.982956	0.030811	0.661951
H219	H	0.367507	-0.407584	0.118567
H220	H	0.867507	0.092416	0.618567
H221	H	0.439701	-0.379648	0.105546
H222	H	0.939701	0.120352	0.605546
O223	O	0.230895	-0.241009	0.447575
O224	O	0.730895	0.258991	0.947575
C225	C	0.190024	-0.279606	0.495047
C226	C	0.690024	0.220394	0.995047
H227	H	0.179405	-0.330868	0.468990
H228	H	0.679405	0.169132	0.968990
H229	H	0.217284	-0.287108	0.549567
H230	H	0.717284	0.212892	1.049567
C231	C	0.135939	-0.179424	0.540456
C232	C	0.635939	0.320576	1.040456
C233	C	0.122892	-0.242383	0.508450
C234	C	0.622892	0.257617	1.008450
H235	H	0.094530	-0.156462	0.548727
H236	H	0.594530	0.343538	1.048727
H237	H	0.163477	-0.153419	0.508475
H238	H	0.663477	0.346581	1.008475
H239	H	0.158658	-0.185685	0.585886
H240	H	0.658658	0.314315	1.085886
H241	H	0.100182	-0.236121	0.463017
H242	H	0.600182	0.263879	0.963017
H243	H	0.095349	-0.268385	0.540423
H244	H	0.595349	0.231615	1.040423
O245	O	0.892705	-0.578294	0.261787
O246	O	1.392705	-0.078294	0.761787
C247	C	0.848964	-0.537407	0.303641
C248	C	1.348964	-0.037407	0.803641
H249	H	0.844762	-0.558683	0.361600
H250	H	1.344762	-0.058683	0.861600
H251	H	0.869869	-0.483816	0.306191
H252	H	1.369869	0.016184	0.806191
C253	C	0.783778	-0.510265	0.196433
C254	C	1.283778	-0.010265	0.696433
C255	C	0.778614	-0.536399	0.267619
C256	C	1.278614	-0.036399	0.767619
H257	H	0.740384	-0.509640	0.174212
H258	H	1.240384	-0.009640	0.674212
H259	H	0.813249	-0.537809	0.168235
H260	H	1.313249	-0.037809	0.668235
H261	H	0.801202	-0.465608	0.198568
H262	H	1.301202	0.034392	0.698568
H263	H	0.761198	-0.581058	0.265482
H264	H	1.261198	-0.081058	0.765482
H265	H	0.749138	-0.508862	0.295816
H266	H	1.249138	-0.008862	0.795816
H267	H	0.236400	-0.404574	0.269042
H268	H	0.736400	0.095426	0.769042
H269	H	0.720404	-0.404522	0.269000
H270	H	1.220404	0.095478	0.769000
O271	O	1.063375	-0.578188	0.447481
O272	O	1.563375	-0.078188	0.947481
C273	C	1.101585	-0.624489	0.489054
C274	C	1.601585	-0.124489	0.989054
H275	H	1.073880	-0.674898	0.491577
H276	H	1.573880	-0.174898	0.991577
H277	H	1.153010	-0.631979	0.462160
H278	H	1.653010	-0.131979	0.962160
C279	C	1.145311	-0.534938	0.564288
C280	C	1.645311	-0.034938	1.064288
C281	C	1.111280	-0.596850	0.567392
C282	C	1.611280	-0.096850	1.067392
H283	H	1.151295	-0.517889	0.612610
H284	H	1.651295	-0.017889	1.112610
H285	H	1.119571	-0.503744	0.536278
H286	H	1.619571	-0.003744	1.036278
H287	H	1.188162	-0.541188	0.541873
H288	H	1.688162	-0.041188	1.041873
H289	H	1.068428	-0.590598	0.589798
H290	H	1.568428	-0.090598	1.089798
H291	H	1.137014	-0.628043	0.595407
H292	H	1.637014	-0.128043	1.095407
O293	O	1.063315	-0.717459	0.447508
O294	O	1.563315	-0.217459	0.947508
C295	C	1.024782	-0.758364	0.495007
C296	C	1.524782	-0.258364	0.995007
H297	H	0.971461	-0.737108	0.499503
H298	H	1.471461	-0.237108	0.999503
H299	H	1.022486	-0.811954	0.472264
H300	H	1.522486	-0.311954	0.972264
C301	C	1.123309	-0.785475	0.566018
C302	C	1.623309	-0.285475	1.066018
C303	C	1.057820	-0.759365	0.571544
C304	C	1.557820	-0.259365	1.071544
H305	H	1.143689	-0.786096	0.613229
H306	H	1.643689	-0.286096	1.113229
H307	H	1.149270	-0.757919	0.534016
H308	H	1.649270	-0.257919	1.034016
H309	H	1.121387	-0.830131	0.547063
H310	H	1.621387	-0.330131	1.047063
H311	H	1.059744	-0.714707	0.590490
H312	H	1.559744	-0.214707	1.090490
H313	H	1.031860	-0.786914	0.603551
H314	H	1.531860	-0.286914	1.103551
H315	H	1.056744	-1.067656	0.440077
H316	H	1.556744	-0.567656	0.940077
O317	O	0.892894	-0.934200	0.261654
O318	O	1.392894	-0.434200	0.761654
C319	C	0.854724	-0.980612	0.220093
C320	C	1.354724	-0.480612	0.720093
H321	H	0.882470	-1.030979	0.217588
H322	H	1.382470	-0.530979	0.717588
H323	H	0.803303	-0.988155	0.246986
H324	H	1.303303	-0.488155	0.746986
C325	C	0.810931	-0.891221	0.144827
C326	C	1.310931	-0.391221	0.644827
C327	C	0.845012	-0.953081	0.141745
C328	C	1.345012	-0.453081	0.641745
H329	H	0.804937	-0.874239	0.096500
H330	H	1.304937	-0.374239	0.596500
H331	H	0.836645	-0.859952	0.172829
H332	H	1.336645	-0.359952	0.672829
H333	H	0.768084	-0.897516	0.167241
H334	H	1.268084	-0.397516	0.667241
H335	H	0.887860	-0.946784	0.119341
H336	H	1.387860	-0.446784	0.619341
H337	H	0.819305	-0.984349	0.113738
H338	H	1.319305	-0.484349	0.613738
O339	O	0.893060	-1.073478	0.261675
O340	O	1.393060	-0.573478	0.761675
C341	C	0.931632	-1.114375	0.214195
C342	C	1.431632	-0.614375	0.714195
H343	H	0.984933	-1.093028	0.209688
H344	H	1.484933	-0.593028	0.709688
H345	H	0.933980	-1.167931	0.236962
H346	H	1.433980	-0.667931	0.736962
C347	C	0.833130	-1.141757	0.143199
C348	C	1.333130	-0.641757	0.643199
C349	C	0.898593	-1.115535	0.137658
C350	C	1.398593	-0.615535	0.637658
H351	H	0.812750	-1.142475	0.095988
H352	H	1.312750	-0.642475	0.595988
H353	H	0.807143	-1.114206	0.175188
H354	H	1.307143	-0.614206	0.675188
H355	H	0.835096	-1.186384	0.162175
H356	H	1.335096	-0.686384	0.662175
H357	H	0.896626	-1.070905	0.118692
H358	H	1.396626	-0.570905	0.618692
H359	H	0.924580	-1.143078	0.105664
H360	H	1.424580	-0.643078	0.605664
H361	H	0.592158	-0.404529	0.269012
H362	H	1.092158	0.095471	0.769012
