data_functionalizedCrystal
_audit_creation_method	'MofGen! by Chris Wilmer'
_symmetry_space_group_name_H-M	'P1'
_symmetry_Int_Tables_number	1
_symmetry_cell_setting	triclinic
loop_
_symmetry_equiv_pos_as_xyz
  x,y,z
_cell_length_a	11.169417
_cell_length_b	11.169416
_cell_length_c	11.169409
_cell_angle_alpha	89.971970
_cell_angle_beta	90.019824
_cell_angle_gamma	89.986033
loop_
_atom_site_label
_atom_site_type_symbol
_atom_site_fract_x
_atom_site_fract_y
_atom_site_fract_z
Zn1	Zn	1.834939	0.477682	0.678579
Zn2	Zn	1.834819	0.678422	0.477911
Zn3	Zn	1.634225	0.477755	0.477913
Zn4	Zn	1.634223	0.678325	0.678556
O5	O	1.734552	0.578046	0.578239
O6	O	2.002873	0.504321	0.651968
O7	O	1.808161	0.651875	0.309961
O8	O	1.660902	0.309796	0.504542
O9	O	2.002785	0.651804	0.504538
O10	O	1.808365	0.309742	0.651971
O11	O	1.660785	0.504445	0.309963
O12	O	1.466275	0.504351	0.504520
O13	O	1.660898	0.651637	0.846508
O14	O	1.466274	0.651708	0.651931
O15	O	1.808363	0.504226	0.846525
O16	O	1.808158	0.846359	0.504516
O17	O	1.660781	0.846287	0.651929
C18	C	1.422727	0.578028	0.578224
C19	C	1.289327	0.578049	0.578246
C20	C	1.734489	0.889871	0.578246
C21	C	1.734572	1.023271	0.578289
C22	C	2.047594	0.578065	0.578256
C23	C	2.180994	0.578073	0.578263
C24	C	1.734644	0.577913	0.891282
C25	C	1.734683	0.577856	1.024682
C26	C	1.734635	1.265004	0.578272
C27	C	1.734640	1.131604	0.578317
C28	C	1.734529	0.578092	0.266415
C29	C	1.734722	0.577811	0.133015
