data_functionalizedCrystal
_audit_creation_method	'MofGen! by Chris Wilmer'
_symmetry_space_group_name_H-M	'P1'
_symmetry_Int_Tables_number	1
_symmetry_cell_setting	triclinic
loop_
_symmetry_equiv_pos_as_xyz
  x,y,z
_cell_length_a	10.723023
_cell_length_b	9.198806
_cell_length_c	10.723023
_cell_angle_alpha	89.994178
_cell_angle_beta	95.532452
_cell_angle_gamma	90.000787
loop_
_atom_site_label
_atom_site_type_symbol
_atom_site_fract_x
_atom_site_fract_y
_atom_site_fract_z
O1	O	-1.657181	-0.120906	0.175027
O2	O	-1.294028	-0.120905	0.191782
O3	O	-1.483981	-0.120900	0.001828
O4	O	-1.467227	-0.120911	0.364981
O5	O	-1.483981	0.120885	0.001813
O6	O	-1.294027	0.120880	0.191766
O7	O	-1.657180	0.120879	0.175012
Cu8	Cu	-1.475604	0.142956	0.183388
Cu9	Cu	-1.475604	-0.142982	0.183406
O10	O	-1.467227	0.120874	0.364965
C11	C	-1.247528	-0.000012	0.190555
C12	C	-1.108974	-0.000012	0.186908
C13	C	-0.904006	0.125237	0.181504
C14	C	-1.047209	0.125240	0.185274
C15	C	-1.482762	-0.000009	-0.044679
C16	C	-1.479115	-0.000013	-0.183233
C17	C	-0.703680	-0.000014	0.176239
C18	C	-0.842234	-0.000014	0.179886
N19	N	-1.475605	-0.344096	0.183409
C20	C	-1.555536	-0.416291	0.103475
C21	C	-1.555540	-0.583703	0.103456
N22	N	-1.475612	0.344070	0.183374
C23	C	-1.477489	-0.125267	-0.244991
C24	C	-1.473720	-0.125275	-0.388194
C25	C	-1.468446	-0.000021	0.411473
C26	C	-1.472093	-0.000026	0.550027
H27	H	-1.055860	-0.107250	0.185513
H28	H	-1.472328	-0.232509	-0.441306
O29	O	-1.637111	-0.342336	0.021669
C30	C	-1.708203	-0.295341	-0.194632
C31	C	-1.615770	-0.379210	-0.102120
H32	H	-1.690964	-0.325099	-0.294736
H33	H	-1.808353	-0.325204	-0.177634
H34	H	-1.693663	-0.173537	-0.180005
H35	H	-1.630196	-0.501033	-0.116692
H36	H	-1.515654	-0.349226	-0.119141
H37	H	-1.473497	0.107214	-0.396871
O38	O	-1.477266	0.127828	-0.246733
C39	C	-1.365411	0.280625	-0.380607
C40	C	-1.367366	0.135773	-0.308785
H41	H	-1.276552	0.287109	-0.430773
H42	H	-1.450919	0.287156	-0.452319
H43	H	-1.367280	0.374903	-0.311814
H44	H	-1.365455	0.041412	-0.377483
H45	H	-1.281866	0.129369	-0.237055
O46	O	-0.905527	-0.127984	0.181785
C47	C	-0.932345	-0.353267	0.290741
C48	C	-0.860595	-0.208375	0.288758
H49	H	-0.896027	-0.418318	0.377205
H50	H	-1.036551	-0.330556	0.293565
H51	H	-0.917517	-0.418239	0.202853
H52	H	-0.875320	-0.143331	0.376627
H53	H	-0.756414	-0.231189	0.285868
H54	H	-1.623967	-0.645788	0.035016
H55	H	-1.407173	-0.593855	0.251809
H56	H	-1.478883	-0.232496	-0.191846
O57	O	-0.840787	0.253262	0.179664
C58	C	-0.813856	0.478467	0.070630
C59	C	-0.885563	0.333543	0.072576
H60	H	-0.850012	0.543402	-0.015956
H61	H	-0.828739	0.543601	0.158418
H62	H	-0.709653	0.455633	0.067951
H63	H	-0.989788	0.356245	0.075211
H64	H	-0.870576	0.268453	-0.015207
H65	H	-1.100331	0.232472	0.186660
O66	O	-1.394092	-0.418139	0.265213
C67	C	-1.322869	-0.464981	0.481508
C68	C	-1.415276	-0.381070	0.389001
H69	H	-1.339946	-0.435018	0.581610
H70	H	-1.337418	-0.586812	0.467060
H71	H	-1.222762	-0.435155	0.464325
H72	H	-1.515419	-0.410774	0.406128
H73	H	-1.400618	-0.259259	0.403471
