data_functionalizedCrystal
_audit_creation_method	'MofGen! by Chris Wilmer'
_symmetry_space_group_name_H-M	'P1'
_symmetry_Int_Tables_number	1
_symmetry_cell_setting	triclinic
loop_
_symmetry_equiv_pos_as_xyz
  x,y,z
_cell_length_a	14.971482
_cell_length_b	14.519731
_cell_length_c	13.448316
_cell_angle_alpha	89.992415
_cell_angle_beta	89.993798
_cell_angle_gamma	83.650731
loop_
_atom_site_label
_atom_site_type_symbol
_atom_site_fract_x
_atom_site_fract_y
_atom_site_fract_z
O1	O	1.187026	0.120166	-0.082681
O2	O	1.687026	0.620166	0.417319
O3	O	0.926634	0.134562	-0.082686
O4	O	1.426634	0.634562	0.417314
O5	O	1.063724	-0.006877	-0.082675
O6	O	1.563724	0.493123	0.417325
O7	O	1.049936	0.261606	-0.082693
O8	O	1.549936	0.761606	0.417307
O9	O	1.063707	-0.006886	0.082709
O10	O	1.563707	0.493114	0.582709
O11	O	0.926617	0.134553	0.082697
O12	O	1.426617	0.634553	0.582697
O13	O	1.187009	0.120158	0.082703
O14	O	1.687009	0.620158	0.582703
Cu15	Cu	1.056811	0.127355	0.097801
Cu16	Cu	1.556811	0.627355	0.597801
Cu17	Cu	1.056832	0.127365	-0.097785
Cu18	Cu	1.556832	0.627365	0.402215
O19	O	1.049919	0.261597	0.082691
O20	O	1.549919	0.761597	0.582691
C21	C	0.893301	0.133915	0.000005
C22	C	1.393301	0.633915	0.500005
C23	C	0.794002	0.131987	0.000003
C24	C	1.294002	0.631987	0.500003
C25	C	0.747348	0.131075	0.090155
C26	C	1.247348	0.631075	0.590155
C27	C	0.654048	0.129249	0.090156
C28	C	1.154048	0.629249	0.590156
C29	C	0.607404	0.128342	0.000005
C30	C	1.107404	0.628342	0.500005
C31	C	0.654065	0.129252	-0.090154
C32	C	1.154065	0.629252	0.409846
C33	C	0.747364	0.131071	-0.090154
C34	C	1.247364	0.631071	0.409846
C35	C	0.459601	0.125463	-0.090147
C36	C	0.959601	0.625463	0.409853
C37	C	0.366296	0.123645	-0.090148
C38	C	0.866296	0.623645	0.409852
C39	C	0.366285	0.123640	0.090163
C40	C	0.866285	0.623640	0.590163
C41	C	0.459584	0.125459	0.090163
C42	C	0.959584	0.625459	0.590163
C43	C	0.506238	0.126371	0.000004
C44	C	1.006238	0.626371	0.500004
C45	C	1.063069	-0.041241	0.000018
C46	C	1.563069	0.458759	0.500018
C47	C	1.061134	-0.143620	0.000018
C48	C	1.561134	0.356380	0.500018
C49	C	1.059560	-0.226763	0.000016
C50	C	1.559560	0.273237	0.500016
C51	C	1.057595	-0.331070	0.000008
C52	C	1.557595	0.168930	0.500008
C53	C	1.056035	-0.414208	0.000002
C54	C	1.556035	0.085792	0.500002
C55	C	1.054070	-0.518523	-0.000004
C56	C	1.554070	-0.018523	0.499996
C57	C	1.220342	0.120805	0.000009
C58	C	1.720342	0.620805	0.500009
C59	C	1.319641	0.122733	0.000004
C60	C	1.819641	0.622733	0.500004
C61	C	1.050574	0.295960	-0.000003
C62	C	1.550574	0.795960	0.499997
C63	C	1.052510	0.398339	-0.000011
C64	C	1.552510	0.898339	0.499989
N65	N	1.056804	0.127347	0.235365
N66	N	1.556804	0.627347	0.735365
N67	N	1.056847	0.127366	-0.235349
N68	N	1.556847	0.627366	0.264651
C69	C	1.117526	0.064743	0.287411
C70	C	1.617526	0.564743	0.787411
C71	C	1.117531	0.064743	0.391514
C72	C	1.617531	0.564743	0.891514
C73	C	1.056818	0.127351	0.443570
C74	C	1.556818	0.627351	0.943570
C75	C	0.996090	0.189957	0.391517
C76	C	1.496090	0.689957	0.891517
C77	C	0.996080	0.189953	0.287416
C78	C	1.496080	0.689953	0.787416
C79	C	0.996114	0.189963	0.608497
C80	C	1.496114	0.689963	1.108497
C81	C	0.996124	0.189969	0.712606
C82	C	1.496124	0.689969	1.212606
C83	C	1.117565	0.064753	0.712595
C84	C	1.617565	0.564753	1.212595
C85	C	1.117556	0.064749	0.608494
C86	C	1.617556	0.564749	1.108494
C87	C	1.056828	0.127357	0.556448
C88	C	1.556828	0.627357	1.056448
H89	H	0.785349	0.131816	-0.163565
H90	H	1.285349	0.631816	0.336435
H91	H	0.785318	0.131820	0.163567
H92	H	1.285318	0.631820	0.663567
Br93	Br	0.913662	0.274912	0.216782
Br94	Br	1.413662	0.774912	0.716782
Br95	Br	1.199984	-0.020209	0.783232
Br96	Br	1.699984	0.479791	1.283232
Br97	Br	0.913724	0.274941	0.783245
Br98	Br	1.413724	0.774941	1.283245
H99	H	0.946660	0.240942	0.566125
H100	H	1.446660	0.740942	1.066125
H101	H	1.166969	0.013765	0.245034
H102	H	1.666969	0.513765	0.745034
Br103	Br	0.590732	0.128026	0.212511
Br104	Br	1.090732	0.628026	0.712511
Br105	Br	0.590769	0.127981	-0.212505
Br106	Br	1.090769	0.627981	0.287495
Br107	Br	1.199960	-0.020210	0.537843
Br108	Br	1.699960	0.479790	1.037843
H109	H	0.497558	0.126203	0.163573
H110	H	0.997558	0.626203	0.663573
H111	H	1.166975	0.013766	0.433889
H112	H	1.666975	0.513766	0.933889
H113	H	0.497584	0.126205	-0.163565
H114	H	0.997584	0.626205	0.336435
Br115	Br	0.913684	0.274921	0.462160
Br116	Br	1.413684	0.774921	0.962160
H117	H	0.328294	0.122898	0.163574
H118	H	0.828294	0.622898	0.663574
H119	H	0.328320	0.122908	-0.163557
H120	H	0.828320	0.622908	0.336443
