data_functionalizedCrystal
_audit_creation_method	'MofGen! by Chris Wilmer'
_symmetry_space_group_name_H-M	'P1'
_symmetry_Int_Tables_number	1
_symmetry_cell_setting	triclinic
loop_
_symmetry_equiv_pos_as_xyz
  x,y,z
_cell_length_a	14.908571
_cell_length_b	16.959454
_cell_length_c	14.909227
_cell_angle_alpha	86.677455
_cell_angle_beta	83.209827
_cell_angle_gamma	86.716421
loop_
_atom_site_label
_atom_site_type_symbol
_atom_site_fract_x
_atom_site_fract_y
_atom_site_fract_z
Zn1	Zn	1.413376	-0.356324	-0.591543
Zn2	Zn	1.913376	0.143676	-0.091543
Zn3	Zn	1.404537	-0.495722	-0.440181
Zn4	Zn	1.904537	0.004278	0.059819
Zn5	Zn	1.253269	-0.356342	-0.431474
Zn6	Zn	1.753269	0.143658	0.068526
Zn7	Zn	1.261976	-0.481241	-0.582782
Zn8	Zn	1.761976	0.018759	-0.082782
O9	O	1.333289	-0.422407	-0.511495
O10	O	1.833289	0.077593	-0.011495
O11	O	1.538871	-0.380868	-0.578774
O12	O	2.038871	0.119132	-0.078774
O13	O	1.377128	-0.483300	-0.312357
O14	O	1.877128	0.016700	0.187643
O15	O	1.274563	-0.245730	-0.452729
O16	O	1.774563	0.254270	0.047271
O17	O	1.532377	-0.483283	-0.467570
O18	O	2.032377	0.016717	0.032430
O19	O	1.392192	-0.245717	-0.570331
O20	O	1.892192	0.254283	-0.070331
O21	O	1.265992	-0.380898	-0.305960
O22	O	1.765992	0.119102	0.194040
O23	O	1.127757	-0.366857	-0.444235
O24	O	1.627757	0.133143	0.055765
O25	O	1.289403	-0.458603	-0.710613
O26	O	1.789403	0.041397	-0.210613
O27	O	1.134154	-0.458620	-0.555401
O28	O	1.634154	0.041380	-0.055401
O29	O	1.400635	-0.366827	-0.717049
O30	O	1.900635	0.133173	-0.217049
O31	O	1.385571	-0.604410	-0.459075
O32	O	1.885571	-0.104410	0.040925
O33	O	1.280832	-0.593771	-0.563844
O34	O	1.780832	-0.093771	-0.063844
C35	C	1.098112	-0.411170	-0.497923
C36	C	1.598112	0.088830	0.002077
C37	C	0.997503	-0.406381	-0.492138
C38	C	1.497503	0.093619	0.007862
C39	C	0.815149	-0.493098	-0.596869
C40	C	1.315149	0.006902	-0.096869
C41	C	0.720618	-0.488601	-0.591437
C42	C	1.220618	0.011399	-0.091437
C43	C	0.713910	-0.392884	-0.475847
C44	C	1.213910	0.107116	0.024153
C45	C	0.808440	-0.397382	-0.481279
C46	C	1.308440	0.102618	0.018721
C47	C	0.859057	-0.447491	-0.541791
C48	C	1.359057	0.052509	-0.041791
C49	C	0.953589	-0.451993	-0.547218
C50	C	1.453589	0.048007	-0.047218
C51	C	0.946879	-0.356272	-0.431633
C52	C	1.446879	0.143728	0.068367
C53	C	0.852348	-0.351775	-0.426201
C54	C	1.352348	0.148225	0.073799
C55	C	1.333213	-0.627771	-0.511475
C56	C	1.833213	-0.127771	-0.011475
C57	C	1.333264	-0.715628	-0.511502
C58	C	1.833264	-0.215628	-0.011502
C59	C	1.278836	-1.081600	-0.566047
C60	C	1.778836	-0.581600	-0.066047
C61	C	1.388001	-1.092618	-0.457050
C62	C	1.888001	-0.592618	0.042950
C63	C	1.387969	-1.010071	-0.457040
C64	C	1.887969	-0.510071	0.042960
C65	C	1.333368	-0.963285	-0.511533
C66	C	1.833368	-0.463285	-0.011533
C67	C	1.278800	-0.999045	-0.566036
C68	C	1.778800	-0.499045	-0.066036
C69	C	1.442529	-0.974305	-0.402531
C70	C	1.942529	-0.474305	0.097469
C71	C	1.442499	-0.891753	-0.402518
C72	C	1.942499	-0.391753	0.097482
C73	C	1.387902	-0.844965	-0.457016
C74	C	1.887902	-0.344965	0.042984
C75	C	1.333332	-0.880730	-0.511522
C76	C	1.833332	-0.380730	-0.011522
C77	C	1.278732	-0.833944	-0.566015
C78	C	1.778732	-0.333944	-0.066015
C79	C	1.224166	-0.869707	-0.620527
C80	C	1.724166	-0.369707	-0.120527
C81	C	1.224203	-0.952257	-0.620535
C82	C	1.724203	-0.452257	-0.120535
C83	C	1.387865	-0.762415	-0.457009
C84	C	1.887865	-0.262415	0.042991
C85	C	1.278696	-0.751389	-0.566005
C86	C	1.778696	-0.251389	-0.066005
C87	C	1.569385	-0.433689	-0.525121
C88	C	2.069385	0.066311	-0.025121
C89	C	1.669995	-0.438496	-0.530927
C90	C	2.169995	0.061504	-0.030927
C91	C	1.346976	-0.411098	-0.747593
C92	C	1.846976	0.088902	-0.247593
C93	C	1.352808	-0.406278	-0.848204
C94	C	1.852808	0.093722	-0.348204
C95	C	1.333392	-0.216242	-0.511536
C96	C	1.833392	0.283758	-0.011536
C97	C	1.333436	-0.128387	-0.511553
C98	C	1.833436	0.371613	-0.011553
C99	C	1.418935	-0.351708	-0.993363
C100	C	1.918935	0.148292	-0.493363
C101	C	1.413460	-0.356233	-0.898830
C102	C	1.913460	0.143767	-0.398830
C103	C	1.297630	-0.451803	-0.892118
C104	C	1.797630	0.048197	-0.392118
C105	C	1.303106	-0.447278	-0.986651
C106	C	1.803106	0.052722	-0.486651
C107	C	1.363759	-0.397228	-1.037270
C108	C	1.863759	0.102772	-0.537270
C109	C	1.369229	-0.392698	-1.131804
C110	C	1.869229	0.107302	-0.631804
C111	C	1.253405	-0.488272	-1.125091
C112	C	1.753405	0.011728	-0.625091
C113	C	1.247930	-0.492797	-1.030558
C114	C	1.747930	0.007203	-0.530558
C115	C	1.319708	-0.433618	-0.276318
C116	C	1.819708	0.066382	0.223682
C117	C	1.314051	-0.438223	-0.175718
C118	C	1.814051	0.061777	0.324282
H119	H	0.982638	-0.319138	-0.386782
H120	H	1.482638	0.180862	0.113218
Cl121	Cl	1.155611	-0.997223	-0.689055
Cl122	Cl	1.655611	-0.497223	-0.189055
H123	H	0.672682	-0.352082	-0.426586
H124	H	1.172682	0.147918	0.073414
H125	H	0.684873	-0.525737	-0.636289
H126	H	1.184873	-0.025737	-0.136289
H127	H	0.811123	-0.310975	-0.376936
H128	H	1.311123	0.189025	0.123064
H129	H	1.208467	-0.525328	-1.160849
H130	H	1.708467	-0.025328	-0.660849
Cl131	Cl	1.210247	-1.126558	-0.634576
Cl132	Cl	1.710247	-0.626558	-0.134576
H133	H	1.179706	-0.831604	-0.664891
H134	H	1.679706	-0.331604	-0.164891
Cl135	Cl	1.456638	-1.151436	-0.388549
Cl136	Cl	1.956638	-0.651436	0.111451
H137	H	1.234237	-0.713299	-0.610384
H138	H	1.734237	-0.213299	-0.110384
Cl139	Cl	1.456446	-0.717458	-0.388476
Cl140	Cl	1.956446	-0.217458	0.111524
Cl141	Cl	1.511171	-1.033124	-0.334036
Cl142	Cl	2.011171	-0.533124	0.165964
Cl143	Cl	1.495158	-0.288768	-1.057000
Cl144	Cl	1.995158	0.211232	-0.557000
H145	H	1.486929	-0.862639	-0.358133
H146	H	1.986929	-0.362639	0.141867
Cl147	Cl	1.445471	-0.329773	-1.195438
Cl148	Cl	1.945471	0.170227	-0.695438
H149	H	1.248256	-0.492557	-0.850888
H150	H	1.748256	0.007443	-0.350888
H151	H	1.198550	-0.533548	-0.989331
H152	H	1.698550	-0.033548	-0.489331
Cl153	Cl	1.482829	-0.299008	-0.843635
Cl154	Cl	1.982829	0.200992	-0.343635
Cl155	Cl	1.017220	-0.514989	-0.623288
Cl156	Cl	1.517220	-0.014989	-0.123288
Cl157	Cl	0.878784	-0.556100	-0.672930
Cl158	Cl	1.378784	-0.056100	-0.172930
