data_functionalizedCrystal
_audit_creation_method	'MofGen! by Chris Wilmer'
_symmetry_space_group_name_H-M	'P1'
_symmetry_Int_Tables_number	1
_symmetry_cell_setting	triclinic
loop_
_symmetry_equiv_pos_as_xyz
  x,y,z
_cell_length_a	22.010155
_cell_length_b	17.699083
_cell_length_c	17.699104
_cell_angle_alpha	96.712734
_cell_angle_beta	89.990213
_cell_angle_gamma	89.997584
loop_
_atom_site_label
_atom_site_type_symbol
_atom_site_fract_x
_atom_site_fract_y
_atom_site_fract_z
O1	O	0.050433	-1.004089	0.095700
O2	O	0.050451	-0.783711	0.108152
O3	O	0.050446	-0.900118	-0.008262
O4	O	0.050438	-0.887682	0.212114
O5	O	-0.050604	-0.900097	-0.008245
O6	O	-0.050599	-0.783690	0.108170
O7	O	-0.050618	-1.004067	0.095717
Cu8	Cu	-0.059835	-0.893877	0.101945
Cu9	Cu	0.059669	-0.893902	0.101924
O10	O	-0.050612	-0.887661	0.212131
C11	C	-0.000071	-0.755503	0.107715
C12	C	-0.000064	-0.671485	0.106376
N13	N	-0.143888	-0.893865	0.101959
C14	C	-0.000077	-0.899659	-0.036450
C15	C	-0.000069	-0.898314	-0.120467
C16	C	-0.563669	-0.945450	0.050383
C17	C	-0.627277	-0.945453	0.050378
O18	O	-0.660170	-0.989282	0.006537
N19	N	-0.659095	-0.893901	0.101909
C20	C	-0.627301	-0.842337	0.153442
O21	O	-0.660206	-0.798488	0.197272
C22	C	-0.563695	-0.842331	0.153443
C23	C	-0.531881	-0.893891	0.101915
C24	C	-0.531855	-0.997005	-0.001142
C25	C	-0.468252	-0.997002	-0.001135
C26	C	-0.436463	-0.945444	0.050396
C27	C	-0.468277	-0.893888	0.101921
C28	C	-0.531903	-0.790764	0.204973
C29	C	-0.468292	-0.790762	0.204969
C30	C	-0.436478	-0.842322	0.153440
C31	C	-0.372885	-0.842327	0.153459
N32	N	-0.341068	-0.893879	0.101928
C33	C	-0.372856	-0.945438	0.050397
C34	C	-0.760879	-0.842354	0.153435
C35	C	-0.824485	-0.842364	0.153439
C36	C	-0.824456	-0.945479	0.050373
C37	C	-0.760849	-0.945472	0.050374
C38	C	-0.729062	-0.893906	0.101905
C39	C	-0.239285	-0.945428	0.050415
C40	C	-0.175676	-0.945423	0.050428
C41	C	-0.175711	-0.842306	0.153490
C42	C	-0.239314	-0.842313	0.153480
C43	C	-0.271100	-0.893877	0.101936
O44	O	-0.339952	-0.798519	0.197276
O45	O	-0.339945	-0.989273	0.006568
N46	N	0.143721	-0.893920	0.101904
C47	C	-0.000094	-1.032275	0.096155
C48	C	-0.000097	-1.116293	0.097493
C49	C	-0.000066	-0.622869	0.174709
C50	C	-0.000074	-0.543926	0.173447
C51	C	-0.000075	-0.513600	0.103851
C52	C	-0.000074	-0.562222	0.035513
C53	C	-0.000071	-0.641164	0.036776
C54	C	-0.000089	-0.243859	0.030418
C55	C	-0.000090	-0.164911	0.029160
C56	C	-0.000092	-0.146621	0.167088
C57	C	-0.000089	-0.225563	0.168351
C58	C	-0.000091	-0.274178	0.100014
C59	C	-0.000084	-0.359777	0.101383
C60	C	-0.000078	-0.428002	0.102480
C61	C	-0.000088	-0.888120	0.240319
C62	C	-0.000092	-0.889464	0.324337
C63	C	-0.000063	-0.828721	0.849208
C64	C	-0.000070	-0.827461	0.770264
C65	C	-0.000077	-0.895797	0.721646
C66	C	-0.000085	-0.965395	0.751976
C67	C	-0.000083	-0.966654	0.830919
C68	C	-0.000093	-0.960322	0.433610
C69	C	-0.000093	-0.959059	0.354663
C70	C	-0.000080	-0.821130	0.372956
C71	C	-0.000078	-0.822388	0.451898
C72	C	-0.000089	-0.891987	0.482221
C73	C	-0.000083	-0.893351	0.567821
C74	C	-0.000079	-0.894433	0.636048
H75	H	-0.265158	-0.987416	0.008442
H76	H	-0.000089	-1.023324	0.855607
H77	H	-0.000083	-0.537525	-0.021153
H78	H	-0.000095	-1.021035	0.712385
H79	H	-0.000068	-0.680747	-0.018868
H80	H	-0.000092	-0.140223	-0.027517
O81	O	-0.000081	-0.762269	0.896324
C82	C	-0.000062	-0.700574	0.852625
H83	H	-0.019197	-0.719893	0.793678
H84	H	-0.029394	-0.652696	0.881837
H85	H	0.048418	-0.679246	0.847026
O86	O	-0.730031	-0.792342	0.203609
C87	C	-0.745603	-0.804506	0.278512
H88	H	-0.763078	-0.865103	0.278798
H89	H	-0.703784	-0.795725	0.316517
H90	H	-0.782536	-0.762526	0.300790
O91	O	-0.000122	-1.027861	0.463185
C92	C	-0.000104	-1.014326	0.543287
H93	H	-0.019234	-0.955227	0.561937
H94	H	-0.029441	-1.058849	0.567454
H95	H	0.048376	-1.017958	0.565242
H96	H	-0.000100	-1.014709	0.315079
O97	O	-0.144867	-0.995538	0.000296
C98	C	-0.186569	-1.041054	-0.045176
H99	H	-0.231910	-1.010026	-0.045993
H100	H	-0.168181	-1.052710	-0.105634
H101	H	-0.193337	-1.097232	-0.020671
H102	H	-0.442352	-1.038985	-0.043096
H103	H	-0.557732	-1.038990	-0.043108
O104	O	-0.437442	-0.740745	0.255134
C105	C	-0.453013	-0.752898	0.330040
H106	H	-0.470492	-0.813493	0.330334
H107	H	-0.411192	-0.744118	0.368043
H108	H	-0.489943	-0.710912	0.352316
O109	O	0.000021	-0.291043	-0.035985
C110	C	0.052349	-0.277301	-0.078264
H111	H	0.088927	-0.250255	-0.038262
H112	H	0.069917	-0.333363	-0.108727
H113	H	0.040517	-0.237174	-0.121990
O114	O	-0.730041	-0.995582	0.000243
C115	C	-0.771746	-1.041101	-0.045221
H116	H	-0.817089	-1.010075	-0.046031
H117	H	-0.753365	-1.052757	-0.105682
H118	H	-0.778509	-1.097278	-0.020714
O119	O	0.000010	-0.755957	0.499047
C120	C	0.052355	-0.713711	0.485320
H121	H	0.069801	-0.732409	0.425398
H122	H	0.040588	-0.650575	0.490988
H123	H	0.089001	-0.723986	0.528473
H124	H	-0.000094	-0.107028	0.222732
O125	O	-0.000054	-0.255146	0.235890
C126	C	-0.000061	-0.335247	0.222352
H127	H	0.019066	-0.353888	0.163247
H128	H	0.029284	-0.359406	0.266865
H129	H	-0.048537	-0.357220	0.225996
H130	H	-0.000074	-0.764460	0.348258
O131	O	-0.855452	-0.792252	0.203395
C132	C	-0.892227	-0.745620	0.162920
H133	H	-0.901749	-0.775870	0.103657
H134	H	-0.936959	-0.733585	0.194527
H135	H	-0.867712	-0.689697	0.157847
O136	O	-0.562769	-0.740570	0.254952
C137	C	-0.547208	-0.665679	0.242742
H138	H	-0.529719	-0.665431	0.182141
H139	H	-0.589035	-0.627672	0.251498
H140	H	-0.510287	-0.643376	0.284713
O141	O	0.000022	-0.759904	0.740720
C142	C	0.052364	-0.755055	0.695604
H143	H	0.069801	-0.814750	0.675828
H144	H	0.040597	-0.724973	0.643968
H145	H	0.089018	-0.721523	0.730531
H146	H	-0.850350	-0.987459	0.008413
H147	H	-0.149818	-0.800330	0.195448
H148	H	-0.265218	-0.800336	0.195446
O149	O	0.000034	-0.496735	0.239847
C150	C	0.052364	-0.510475	0.282104
H151	H	0.088943	-0.537524	0.242086
H152	H	0.069927	-0.454412	0.312557
H153	H	0.040536	-0.550599	0.325838
O154	O	-0.000036	-0.652450	0.242249
C155	C	-0.000046	-0.732552	0.228715
H156	H	0.019086	-0.751197	0.169614
H157	H	0.029293	-0.756710	0.273235
H158	H	-0.048524	-0.754521	0.232353
