data_functionalizedCrystal
_audit_creation_method	'MofGen! by Chris Wilmer'
_symmetry_space_group_name_H-M	'P1'
_symmetry_Int_Tables_number	1
_symmetry_cell_setting	triclinic
loop_
_symmetry_equiv_pos_as_xyz
  x,y,z
_cell_length_a	14.044220
_cell_length_b	8.965430
_cell_length_c	14.044220
_cell_angle_alpha	89.999476
_cell_angle_beta	86.811122
_cell_angle_gamma	89.999271
loop_
_atom_site_label
_atom_site_type_symbol
_atom_site_fract_x
_atom_site_fract_y
_atom_site_fract_z
O1	O	1.277167	0.123887	-0.230160
O2	O	1.000496	0.123924	-0.221855
O3	O	1.134679	0.123891	-0.087672
O4	O	1.142984	0.123920	-0.364343
O5	O	1.134667	-0.124188	-0.087680
O6	O	1.000484	-0.124155	-0.221863
O7	O	1.277156	-0.124192	-0.230169
Cu8	Cu	1.138819	-0.146825	-0.226017
Cu9	Cu	1.138833	0.146557	-0.226007
O10	O	1.142973	-0.124159	-0.364352
C11	C	0.964868	-0.000111	-0.218223
C12	C	0.858725	-0.000097	-0.207379
N13	N	1.138816	-0.353174	-0.226024
C14	C	0.664388	-0.000128	-0.187553
C15	C	0.613258	-0.000127	-0.264467
C16	C	0.505122	-0.000144	-0.253435
C17	C	0.772534	-0.000111	-0.198583
C18	C	1.076738	-0.450465	-0.288055
C19	C	1.164577	-0.549888	-0.313875
C20	C	1.051015	-0.549878	-0.200216
C21	C	1.226701	-0.450409	-0.251891
C22	C	1.113080	-0.450390	-0.138189
C23	C	1.200977	-0.549768	-0.163977
C24	C	1.312783	-0.000154	-0.233800
C25	C	1.418926	-0.000158	-0.244645
C26	C	1.131037	-0.000148	-0.052054
C27	C	1.120193	-0.000149	0.054088
N28	N	1.138842	0.352906	-0.225993
C29	C	1.146614	-0.000116	-0.399969
C30	C	1.157459	-0.000106	-0.506112
C31	C	1.100366	-0.000125	0.248426
C32	C	1.177281	-0.000130	0.299556
C33	C	1.166249	-0.000117	0.407692
C34	C	1.111397	-0.000138	0.140280
H35	H	0.650697	-0.000112	-0.338600
H36	H	1.251414	-0.000040	0.262117
O37	O	1.012000	-0.000185	0.293233
C38	C	1.020521	-0.000141	0.392791
H39	H	1.093084	-0.047103	0.409751
H40	H	1.013595	0.118876	0.420907
C41	C	0.852039	-0.039750	0.419819
C42	C	0.941160	-0.097442	0.440651
H43	H	0.803083	-0.099763	0.449343
H44	H	0.846297	-0.039774	0.352746
H45	H	0.846281	0.059430	0.443250
H46	H	0.946921	-0.196612	0.417210
H47	H	0.946901	-0.097437	0.507722
H48	H	0.626951	-0.000144	-0.113425
O49	O	1.014068	-0.398359	-0.350565
C50	C	0.943542	-0.311831	-0.301154
H51	H	0.938442	-0.345695	-0.222796
H52	H	0.963329	-0.188752	-0.307343
C53	C	0.852929	-0.296234	-0.440906
C54	C	0.846660	-0.337835	-0.344668
H55	H	0.793168	-0.312268	-0.467750
H56	H	0.900445	-0.354525	-0.474197
H57	H	0.869422	-0.193671	-0.446052
H58	H	0.830180	-0.440400	-0.339525
H59	H	0.799139	-0.279562	-0.311377
H60	H	1.300988	-0.406899	-0.273794
O61	O	1.190432	-0.602220	-0.402460
C62	C	1.116329	-0.690913	-0.435735
H63	H	1.070149	-0.734504	-0.372435
H64	H	1.070758	-0.620959	-0.483450
C65	C	1.216045	-0.769868	-0.570884
C66	C	1.159330	-0.823418	-0.493137
H67	H	1.242568	-0.851600	-0.606296
H68	H	1.265969	-0.710110	-0.548469
H69	H	1.178060	-0.711573	-0.610635
H70	H	1.197317	-0.881695	-0.453381
H71	H	1.109413	-0.883189	-0.515547
O72	O	1.263821	-0.601404	-0.101493
C73	C	1.356256	-0.550413	-0.129024
H74	H	1.360252	-0.522670	-0.208361
H75	H	1.372811	-0.446209	-0.086458
C76	C	1.424561	-0.707029	-0.011980
C77	C	1.429470	-0.672966	-0.109426
H78	H	1.469723	-0.782621	0.000112
H79	H	1.362285	-0.741379	0.006571
H80	H	1.438354	-0.620181	0.023479
H81	H	1.415665	-0.759808	-0.144882
H82	H	1.491745	-0.638634	-0.127982
O83	O	1.086898	-0.398266	-0.049639
C84	C	0.994234	-0.448889	-0.022706
H85	H	0.954871	-0.476846	-0.089259
H86	H	0.998999	-0.552888	0.023497
C87	C	0.988095	-0.291599	0.115945
C88	C	0.939746	-0.325924	0.034203
H89	H	0.954485	-0.215753	0.151053
H90	H	1.050526	-0.257497	0.097803
H91	H	0.992062	-0.378275	0.154436
H92	H	0.935790	-0.239254	-0.004292
H93	H	0.877313	-0.360009	0.052340
H94	H	0.976752	-0.593575	-0.178401
