data_functionalizedCrystal
_audit_creation_method	'MofGen! by Chris Wilmer'
_symmetry_space_group_name_H-M	'P1'
_symmetry_Int_Tables_number	1
_symmetry_cell_setting	triclinic
loop_
_symmetry_equiv_pos_as_xyz
  x,y,z
_cell_length_a	19.188931
_cell_length_b	11.792241
_cell_length_c	10.868271
_cell_angle_alpha	90.005281
_cell_angle_beta	89.997213
_cell_angle_gamma	96.330902
loop_
_atom_site_label
_atom_site_type_symbol
_atom_site_fract_x
_atom_site_fract_y
_atom_site_fract_z
O1	O	0.926947	-0.141694	-0.102278
O2	O	0.723744	-0.160769	-0.102291
O3	O	0.830277	0.014013	-0.102276
O4	O	0.820414	-0.316476	-0.102293
O5	O	0.830268	0.014020	0.102369
O6	O	0.723735	-0.160762	0.102354
O7	O	0.926938	-0.141688	0.102366
Zn8	Zn	0.825335	-0.151224	0.134852
Zn9	Zn	0.825347	-0.151233	-0.134776
O10	O	0.820405	-0.316469	0.102351
C11	C	0.829653	0.056298	0.000046
C12	C	0.827798	0.182284	0.000045
C13	C	0.697725	-0.160148	0.000030
C14	C	0.620210	-0.158293	0.000026
C15	C	0.952957	-0.142309	0.000043
C16	C	1.030472	-0.144163	0.000039
C17	C	1.074815	-0.041607	0.000034
C18	C	1.147649	-0.043349	0.000041
C19	C	1.176136	-0.147653	0.000029
C20	C	1.131783	-0.250222	0.000041
C21	C	1.058951	-0.248477	0.000046
N22	N	1.284586	-0.227383	-0.069640
N23	N	1.353774	-0.229033	-0.069648
C24	C	1.395575	-0.152916	0.000016
N25	N	1.365576	-0.075069	0.069673
N26	N	1.296382	-0.073415	0.069675
C27	C	1.255110	-0.149556	0.000024
C28	C	1.518893	-0.052242	0.000021
C29	C	1.591728	-0.053988	0.000036
C30	C	1.575861	-0.260865	0.000023
C31	C	1.503027	-0.259116	0.000021
C32	C	1.474548	-0.154801	0.000014
C33	C	0.821029	-0.358754	0.000027
C34	C	0.822884	-0.484740	0.000020
N35	N	0.825332	-0.151217	0.318866
C36	C	0.824389	0.412945	0.000024
C37	C	0.826283	0.284588	0.000035
N38	N	0.825355	-0.151230	-0.318790
C39	C	0.825343	-0.151230	0.569872
C40	C	0.825335	-0.151226	0.430194
H41	H	1.051633	0.043334	0.000033
H42	H	1.627832	0.029529	0.000040
H43	H	1.154983	-0.335147	0.000034
Cl44	Cl	1.203405	0.085589	0.000031
Cl45	Cl	1.483087	0.078893	0.000039
Cl46	Cl	1.003203	-0.377416	0.000049
H47	H	1.599054	-0.345791	0.000021
Cl48	Cl	1.447279	-0.388051	0.000013
