data_functionalizedCrystal
_audit_creation_method	'MofGen! by Chris Wilmer'
_symmetry_space_group_name_H-M	'P1'
_symmetry_Int_Tables_number	1
_symmetry_cell_setting	triclinic
loop_
_symmetry_equiv_pos_as_xyz
  x,y,z
_cell_length_a	16.959455
_cell_length_b	12.594516
_cell_length_c	16.959447
_cell_angle_alpha	89.974854
_cell_angle_beta	89.979626
_cell_angle_gamma	90.013073
loop_
_atom_site_label
_atom_site_type_symbol
_atom_site_fract_x
_atom_site_fract_y
_atom_site_fract_z
Zn1	Zn	1.208406	-0.423806	-0.447065
Zn2	Zn	1.208338	-0.601813	-0.314898
Zn3	Zn	1.076234	-0.423839	-0.314888
Zn4	Zn	1.076208	-0.601733	-0.447023
O5	O	1.142297	-0.512798	-0.380968
O6	O	1.319008	-0.447438	-0.429554
O7	O	1.190796	-0.578251	-0.204286
O8	O	1.093807	-0.274889	-0.332435
O9	O	1.318958	-0.578219	-0.332452
O10	O	1.190913	-0.274864	-0.429545
O11	O	1.093741	-0.447495	-0.204279
O12	O	0.965620	-0.447418	-0.332395
O13	O	1.093762	-0.578084	-0.557639
O14	O	0.965601	-0.578116	-0.429473
O15	O	1.190887	-0.447361	-0.557670
O16	O	1.190771	-0.750748	-0.332411
O17	O	1.093696	-0.750690	-0.429483
C18	C	0.936930	-0.512763	-0.380929
C19	C	0.849074	-0.512774	-0.380930
C20	C	0.477561	-0.580828	-0.330382
C21	C	0.477635	-0.444856	-0.431652
C22	C	0.560181	-0.444838	-0.431632
C23	C	0.601421	-0.512818	-0.380988
C24	C	0.560115	-0.580815	-0.330362
C25	C	0.601493	-0.376850	-0.482263
C26	C	0.684044	-0.376831	-0.482246
C27	C	0.725285	-0.444806	-0.431597
C28	C	0.683974	-0.512805	-0.380969
C29	C	0.725214	-0.580784	-0.330324
C30	C	0.683905	-0.648778	-0.279691
C31	C	0.601356	-0.648790	-0.279713
C32	C	0.807834	-0.444794	-0.431575
C33	C	0.807768	-0.580771	-0.330305
C34	C	1.142245	-0.789339	-0.380961
C35	C	1.142295	-0.907644	-0.380984
C36	C	1.089491	-0.976904	-0.433744
C37	C	1.070239	-1.047766	-0.361616
C38	C	1.161619	-1.047581	-0.453124
C39	C	1.123005	-0.976948	-0.308818
C40	C	1.214418	-0.976756	-0.400374
C41	C	1.195194	-1.047587	-0.328197
C42	C	1.348465	-0.512833	-0.381009
C43	C	1.436321	-0.512849	-0.381026
C44	C	1.142329	-0.512710	-0.587137
C45	C	1.142343	-0.512672	-0.674993
C46	C	1.142370	-0.235177	-0.380994
C47	C	1.142401	-0.116871	-0.381004
C48	C	1.091869	-0.580621	-1.046456
C49	C	1.193007	-0.444499	-1.046483
C50	C	1.192985	-0.444521	-0.963937
C51	C	1.142406	-0.512596	-0.922647
C52	C	1.091848	-0.580648	-0.963902
C53	C	1.243548	-0.376478	-0.922675
C54	C	1.243530	-0.376499	-0.840124
C55	C	1.192946	-0.444569	-0.798832
C56	C	1.142385	-0.512623	-0.840093
C57	C	1.091806	-0.580697	-0.798803
C58	C	1.041241	-0.648747	-0.840062
C59	C	1.041265	-0.648718	-0.922610
C60	C	1.192923	-0.444597	-0.716284
C61	C	1.091785	-0.580724	-0.716249
C62	C	1.142309	-0.512809	-0.175602
C63	C	1.142448	-0.512546	-0.087746
H64	H	0.717493	-0.704133	-0.238461
F65	F	1.031022	-0.936335	-0.491978
H66	H	1.177920	-1.078607	-0.514124
F67	F	0.851795	-0.372440	-0.485462
F68	F	0.557387	-0.721149	-0.225833
F69	F	0.557599	-0.304520	-0.536167
F70	F	0.433742	-0.372522	-0.485555
H71	H	1.000063	-0.704178	-0.806432
H72	H	1.000100	-0.704124	-0.956211
H73	H	1.050590	-0.636150	-0.682636
H74	H	0.443924	-0.636184	-0.289156
F75	F	1.297343	-0.304073	-0.796221
F76	F	1.038055	-0.653037	-1.090366
H77	H	1.234094	-0.389196	-0.682694
F78	F	1.246838	-0.372060	-1.090429
H79	H	0.841340	-0.636125	-0.289061
H80	H	1.284732	-0.321062	-0.956300
H81	H	1.106633	-0.946050	-0.247802
F82	F	0.728001	-0.304466	-0.536132
H83	H	1.275348	-0.945545	-0.416793
H84	H	1.009295	-1.078981	-0.345232
H85	H	1.239894	-1.078426	-0.283537
