data_functionalizedCrystal
_audit_creation_method	'MofGen! by Chris Wilmer'
_symmetry_space_group_name_H-M	'P1'
_symmetry_Int_Tables_number	1
_symmetry_cell_setting	triclinic
loop_
_symmetry_equiv_pos_as_xyz
  x,y,z
_cell_length_a	17.699083
_cell_length_b	12.811415
_cell_length_c	16.776229
_cell_angle_alpha	84.562504
_cell_angle_beta	89.998886
_cell_angle_gamma	83.665490
loop_
_atom_site_label
_atom_site_type_symbol
_atom_site_fract_x
_atom_site_fract_y
_atom_site_fract_z
O1	O	1.004673	0.132732	-0.075770
O2	O	0.784372	0.150001	-0.077044
O3	O	0.900064	-0.011441	-0.065357
O4	O	0.888981	0.294174	-0.087457
O5	O	0.900049	-0.011451	0.067221
O6	O	0.784357	0.149991	0.055533
O7	O	1.004658	0.132722	0.056807
Zn8	Zn	0.894505	0.141355	0.077220
Zn9	Zn	0.894525	0.141368	-0.097456
O10	O	0.888966	0.294164	0.045120
C11	C	0.756165	0.149377	-0.010714
C12	C	0.672138	0.147521	-0.010590
C13	C	0.623942	0.242284	-0.017442
C14	C	0.544991	0.240533	-0.017305
C15	C	0.514238	0.144019	-0.010322
C16	C	0.562440	0.049249	-0.003466
C17	C	0.641390	0.051000	-0.003597
C18	C	0.244045	0.042183	-0.002935
C19	C	0.165090	0.040438	-0.002807
C20	C	0.147646	0.231715	-0.016643
C21	C	0.226596	0.233467	-0.016775
C22	C	0.274792	0.138698	-0.009915
C23	C	0.360399	0.140597	-0.010062
C24	C	0.428631	0.142118	-0.010180
C25	C	0.899435	-0.050549	0.003758
C26	C	0.897574	-0.167062	0.012178
C27	C	0.894081	-0.385982	-0.116552
C28	C	0.892333	-0.495457	-0.108645
C29	C	0.892324	-0.495489	0.035899
C30	C	0.894072	-0.386014	0.027992
C31	C	0.894952	-0.331264	-0.048237
C32	C	0.896706	-0.221788	-0.056143
C33	C	0.896692	-0.221821	0.088400
C34	C	0.894943	-0.331296	0.096308
C35	C	1.032865	0.133346	-0.009524
C36	C	1.116892	0.135202	-0.009654
C37	C	0.889595	0.333271	-0.023996
C38	C	0.891456	0.449785	-0.032422
N39	N	0.894496	0.141345	0.196432
N40	N	0.894540	0.141369	-0.216668
C41	C	0.945741	0.069888	0.243322
C42	C	0.945745	0.069887	0.326774
C43	C	0.894508	0.141349	0.363334
C44	C	0.843258	0.212810	0.316438
C45	C	0.843251	0.212805	0.232988
C46	C	0.843286	0.212831	0.652984
C47	C	0.843298	0.212832	0.736440
C48	C	0.945780	0.069913	0.746770
C49	C	0.945772	0.069908	0.663320
C50	C	0.894520	0.141364	0.616431
C51	C	0.894515	0.141363	0.525943
C52	C	0.894516	0.141357	0.453821
H53	H	0.537395	-0.029335	0.002232
N54	N	0.897633	-0.162798	0.162087
H55	H	0.850467	-0.173226	0.194437
H56	H	0.944220	-0.190519	0.195620
N57	N	0.095651	0.333925	-0.024017
H58	H	0.105584	0.376031	0.022086
H59	H	0.105587	0.375974	-0.076235
H60	H	0.140054	-0.038160	0.002881
H61	H	0.801536	0.270992	0.346210
H62	H	0.987467	0.011700	0.213560
N63	N	0.787977	0.289871	0.182409
H64	H	0.755519	0.335143	0.218231
H65	H	0.817088	0.336222	0.144423
N66	N	0.657101	0.346388	-0.024975
H67	H	0.689471	0.351377	0.023808
H68	H	0.689427	0.351323	-0.074513
N69	N	0.493007	0.342741	-0.024606
H70	H	0.524469	0.404147	-0.029026
H71	H	0.459825	0.346262	-0.073976
N72	N	1.001055	-0.007166	0.797346
H73	H	1.033515	-0.052431	0.761521
H74	H	1.034638	0.032967	0.829059
H75	H	0.251631	0.312059	-0.022465
H76	H	0.891602	-0.540084	0.097961
H77	H	0.283277	-0.034985	0.002651
H78	H	0.680631	-0.026166	0.001982
H79	H	0.987471	0.011701	0.364952
N80	N	0.788023	0.289901	0.775873
H81	H	0.795808	0.279060	0.835854
H82	H	0.796987	0.364350	0.755897
N83	N	0.897604	-0.162689	-0.138344
H84	H	0.945176	-0.125866	-0.144244
H85	H	0.896739	-0.213996	-0.180393
H86	H	0.987497	0.011721	0.633555
N87	N	0.895042	-0.326925	-0.198764
H88	H	0.894229	-0.378202	-0.240844
H89	H	0.848906	-0.272873	-0.205824
N90	N	0.891424	-0.554482	-0.182327
H91	H	0.892258	-0.503185	-0.231814
H92	H	0.937573	-0.608514	-0.181546
N93	N	0.894004	-0.390351	0.178522
H94	H	0.892768	-0.468007	0.173167
H95	H	0.941177	-0.379845	0.209313
H96	H	0.801556	0.271015	0.614813
