data_functionalizedCrystal
_audit_creation_method	'MofGen! by Chris Wilmer'
_symmetry_space_group_name_H-M	'P1'
_symmetry_Int_Tables_number	1
_symmetry_cell_setting	triclinic
loop_
_symmetry_equiv_pos_as_xyz
  x,y,z
_cell_length_a	16.992695
_cell_length_b	10.654550
_cell_length_c	9.730223
_cell_angle_alpha	90.000242
_cell_angle_beta	89.996725
_cell_angle_gamma	92.423423
loop_
_atom_site_label
_atom_site_type_symbol
_atom_site_fract_x
_atom_site_fract_y
_atom_site_fract_z
O1	O	0.110188	-1.677362	-0.114188
O2	O	0.610188	-1.177362	0.385812
O3	O	0.120686	-1.312791	-0.114214
O4	O	0.620686	-0.812791	0.385786
O5	O	0.001287	-1.493615	-0.114190
O6	O	0.501287	-0.993615	0.385810
O7	O	0.229588	-1.496538	-0.114212
O8	O	0.729588	-0.996538	0.385788
O9	O	0.001287	-1.493601	0.114390
O10	O	0.501287	-0.993601	0.614390
O11	O	0.120686	-1.312777	0.114366
O12	O	0.620686	-0.812777	0.614366
O13	O	0.110188	-1.677348	0.114391
O14	O	0.610188	-1.177348	0.614391
Zn15	Zn	0.115437	-1.495060	0.150671
Zn16	Zn	0.615437	-0.995060	0.650671
Zn17	Zn	0.115437	-1.495078	-0.150493
Zn18	Zn	0.615437	-0.995078	0.349507
O19	O	0.229588	-1.496524	0.114368
O20	O	0.729588	-0.996524	0.614368
C21	C	-0.027946	-1.489848	0.000099
C22	C	0.472054	-0.989848	0.500099
C23	C	-0.115051	-1.478628	0.000098
C24	C	0.384949	-0.978628	0.500098
C25	C	0.119916	-1.265919	0.000073
C26	C	0.619916	-0.765919	0.500073
C27	C	0.117609	-1.126277	0.000064
C28	C	0.617609	-0.626277	0.500064
C29	C	0.110959	-1.724220	0.000102
C30	C	0.610959	-1.224220	0.500102
C31	C	0.113265	-1.863862	0.000102
C32	C	0.613265	-1.363862	0.500102
C33	C	-0.164703	-1.586879	0.000107
C34	C	0.335297	-1.086879	0.500107
C35	C	-0.246547	-1.576330	0.000093
C36	C	0.253453	-1.076330	0.500093
C37	C	-0.278738	-1.457529	0.000080
C38	C	0.221262	-0.957529	0.500080
C39	C	-0.229080	-1.349270	0.000067
C40	C	0.270920	-0.849270	0.500067
C41	C	-0.147237	-1.359820	0.000071
C42	C	0.352763	-0.859820	0.500071
C43	C	-0.522573	-1.413802	0.000058
C44	C	-0.022573	-0.913802	0.500058
C45	C	-0.604422	-1.403260	0.000059
C46	C	-0.104422	-0.903260	0.500059
C47	C	-0.621884	-1.630321	0.000082
C48	C	-0.121884	-1.130321	0.500082
C49	C	-0.540039	-1.640861	0.000094
C50	C	-0.040039	-1.140861	0.500094
C51	C	-0.490388	-1.532602	0.000074
C52	C	0.009612	-1.032602	0.500074
N53	N	-0.362395	-1.446743	0.000071
N54	N	0.137605	-0.946743	0.500071
N55	N	-0.406733	-1.543389	0.000074
N56	N	0.093267	-1.043389	0.500074
C57	C	0.258821	-1.500291	0.000075
C58	C	0.758821	-1.000291	0.500075
C59	C	0.345926	-1.511510	0.000068
C60	C	0.845926	-1.011510	0.500068
C61	C	0.187910	-1.052866	0.000061
C62	C	0.687910	-0.552866	0.500061
C63	C	0.185738	-0.921658	0.000085
C64	C	0.685738	-0.421658	0.500085
C65	C	0.042959	-0.937282	0.000109
C66	C	0.542959	-0.437282	0.500109
C67	C	0.045132	-1.068488	0.000095
C68	C	0.545132	-0.568488	0.500095
N69	N	0.115437	-1.495057	0.356207
N70	N	0.615437	-0.995057	0.856207
N71	N	0.115432	-1.495091	-0.356029
N72	N	0.615432	-0.995091	0.143971
C73	C	0.163462	-1.576039	0.428129
C74	C	0.663462	-1.076039	0.928129
C75	C	0.163458	-1.576059	0.572012
C76	C	0.663458	-1.076059	1.072012
C77	C	0.067401	-1.414105	0.572039
C78	C	0.567401	-0.914105	1.072039
C79	C	0.067401	-1.414092	0.428158
C80	C	0.567401	-0.914092	0.928158
H81	H	-0.138501	-1.683620	0.000126
H82	H	0.361499	-1.183620	0.500126
Cl83	Cl	-0.644889	-1.253898	0.000051
Cl84	Cl	-0.144889	-0.753898	0.500051
Cl85	Cl	0.223834	-1.677872	0.662422
Cl86	Cl	0.723834	-1.177872	1.162422
H87	H	-0.255296	-1.252539	0.000048
H88	H	0.244704	-0.752539	0.500048
H89	H	0.028293	-1.348185	0.630639
H90	H	0.528293	-0.848185	1.130639
H91	H	0.028289	-1.348146	0.369598
H92	H	0.528289	-0.848146	0.869598
Cl93	Cl	0.279024	-1.125510	0.000031
Cl94	Cl	0.779024	-0.625510	0.500031
Cl95	Cl	-0.499578	-1.790217	0.000066
Cl96	Cl	0.000422	-1.290217	0.500066
Cl97	Cl	-0.308964	-1.712424	0.000109
Cl98	Cl	0.191036	-1.212424	0.500109
H99	H	-0.106811	-1.271671	0.000064
H100	H	0.393189	-0.771671	0.500064
Cl101	Cl	0.274121	-0.829375	0.000083
Cl102	Cl	0.774121	-0.329375	0.500083
H103	H	-0.012119	-1.128262	0.000101
H104	H	0.487881	-0.628262	0.500101
H105	H	-0.662318	-1.718458	0.000096
H106	H	-0.162318	-1.218458	0.500096
Cl107	Cl	-0.460166	-1.277703	0.000029
Cl108	Cl	0.039834	-0.777703	0.500029
Cl109	Cl	-0.048150	-0.864625	0.000139
Cl110	Cl	0.451850	-0.364625	0.500139
H111	H	0.202576	-1.641966	0.369551
H112	H	0.702576	-1.141966	0.869551
