data_functionalizedCrystal
_audit_creation_method	'MofGen! by Chris Wilmer'
_symmetry_space_group_name_H-M	'P1'
_symmetry_Int_Tables_number	1
_symmetry_cell_setting	triclinic
loop_
_symmetry_equiv_pos_as_xyz
  x,y,z
_cell_length_a	9.065215
_cell_length_b	19.188930
_cell_length_c	7.540329
_cell_angle_alpha	90.008296
_cell_angle_beta	90.001076
_cell_angle_gamma	84.079739
loop_
_atom_site_label
_atom_site_type_symbol
_atom_site_fract_x
_atom_site_fract_y
_atom_site_fract_z
O1	O	1.956847	0.102360	0.147485
O2	O	2.456847	0.602360	0.647485
O3	O	1.527270	0.110759	0.147495
O4	O	2.027270	0.610759	0.647495
O5	O	1.754455	0.005000	0.147455
O6	O	2.254455	0.505000	0.647455
O7	O	1.729662	0.208118	0.147525
O8	O	2.229662	0.708118	0.647525
O9	O	1.754447	0.004999	-0.147510
O10	O	2.254447	0.504999	0.352490
O11	O	1.527262	0.110758	-0.147470
O12	O	2.027262	0.610758	0.352530
O13	O	1.956839	0.102359	-0.147480
O14	O	2.456839	0.602359	0.352520
Cu15	Cu	1.742050	0.106558	-0.174407
Cu16	Cu	2.242050	0.606558	0.325593
Cu17	Cu	1.742059	0.106559	0.174423
Cu18	Cu	2.242059	0.606559	0.674423
O19	O	1.729654	0.208118	-0.147440
O20	O	2.229654	0.708118	0.352560
C21	C	1.472308	0.109951	0.000013
C22	C	1.972308	0.609951	0.500013
C23	C	1.308548	0.107539	0.000016
C24	C	1.808548	0.607539	0.500016
C25	C	1.753648	-0.021018	-0.000032
C26	C	2.253648	0.478982	0.499968
C27	C	1.751238	-0.098541	-0.000047
C28	C	2.251238	0.401459	0.499953
C29	C	1.884543	-0.142430	-0.000059
C30	C	2.384543	0.357570	0.499941
C31	C	1.882279	-0.215272	-0.000031
C32	C	2.382279	0.284728	0.499969
C33	C	1.746702	-0.244221	-0.000026
C34	C	2.246702	0.255779	0.499974
C35	C	1.613380	-0.200322	-0.000005
C36	C	2.113380	0.299678	0.499995
C37	C	1.615648	-0.127482	-0.000015
C38	C	2.115648	0.372518	0.499985
N39	N	1.643067	-0.353031	-0.100406
N40	N	2.143067	0.146969	0.399594
N41	N	1.640922	-0.422226	-0.100400
N42	N	2.140922	0.077774	0.399600
C43	C	1.739860	-0.463683	0.000010
C44	C	2.239860	0.036317	0.500010
N45	N	1.841048	-0.433331	0.100391
N46	N	2.341048	0.066669	0.600391
N47	N	1.843198	-0.364130	0.100376
N48	N	2.343198	0.135870	0.600376
C49	C	1.744228	-0.323202	-0.000013
C50	C	2.244228	0.176798	0.499987
C51	C	1.870719	-0.586555	0.000032
C52	C	2.370719	-0.086555	0.500032
C53	C	1.868449	-0.659397	0.000071
C54	C	2.368449	-0.159397	0.500071
C55	C	1.599546	-0.644446	0.000079
C56	C	2.099546	-0.144446	0.500079
C57	C	1.601820	-0.571605	0.000058
C58	C	2.101820	-0.071605	0.500058
C59	C	1.737410	-0.542664	0.000025
C60	C	2.237410	-0.042664	0.500025
C61	C	2.011802	0.103166	0.000006
C62	C	2.511802	0.603166	0.500006
C63	C	2.175561	0.105578	0.000015
C64	C	2.675561	0.605578	0.500015
C65	C	1.730461	0.234135	0.000052
C66	C	2.230461	0.734135	0.500052
C67	C	1.732871	0.311659	0.000079
C68	C	2.232871	0.811659	0.500079
N69	N	1.742054	0.106557	-0.419756
N70	N	2.242054	0.606557	0.080244
N71	N	1.742067	0.106555	0.419771
N72	N	2.242067	0.606555	0.919771
H73	H	1.994951	-0.118871	-0.000079
H74	H	2.494951	0.381129	0.499921
H75	H	1.502992	-0.223897	0.000003
H76	H	2.002992	0.276103	0.500003
H77	H	1.990835	-0.251013	-0.000033
H78	H	2.490835	0.248987	0.499967
N79	N	1.471864	-0.080139	-0.000002
N80	N	1.971864	0.419861	0.499998
H81	H	1.385629	-0.109528	0.000012
H82	H	1.885629	0.390472	0.500012
H83	H	1.466944	-0.049603	-0.109357
H84	H	1.966944	0.450397	0.390643
H85	H	1.489157	-0.668016	0.000092
H86	H	1.989157	-0.168016	0.500092
H87	H	1.981125	-0.562990	0.000014
H88	H	2.481125	-0.062990	0.500014
N89	N	2.012241	-0.706734	0.000053
N90	N	2.512241	-0.206734	0.500053
H91	H	2.017277	-0.737299	-0.109282
H92	H	2.517277	-0.237299	0.390718
H93	H	2.017224	-0.737234	0.109477
H94	H	2.517224	-0.237234	0.609477
H95	H	1.493268	-0.535870	0.000057
H96	H	1.993268	-0.035870	0.500057
