data_functionalizedCrystal
_audit_creation_method	'MofGen! by Chris Wilmer'
_symmetry_space_group_name_H-M	'P1'
_symmetry_Int_Tables_number	1
_symmetry_cell_setting	triclinic
loop_
_symmetry_equiv_pos_as_xyz
  x,y,z
_cell_length_a	15.698487
_cell_length_b	12.970454
_cell_length_c	12.970454
_cell_angle_alpha	59.999702
_cell_angle_beta	89.999561
_cell_angle_gamma	60.001054
loop_
_atom_site_label
_atom_site_type_symbol
_atom_site_fract_x
_atom_site_fract_y
_atom_site_fract_z
Zr1	Zr	0.820619	1.128536	-0.135312
O2	O	0.684606	1.343622	-0.299933
O3	O	0.862313	0.913448	-0.084847
O4	O	0.862315	1.128538	-0.299937
O5	O	0.684604	1.128531	0.084825
O6	O	1.002496	1.128542	-0.299940
O7	O	0.684604	1.128532	-0.084843
O8	O	1.002492	0.743785	0.084817
O9	O	0.684607	1.513288	-0.299932
O10	O	0.984712	1.001921	-0.063326
O11	O	0.880096	1.001917	0.063297
O12	O	0.880098	1.255158	-0.189944
O13	O	0.775482	1.255154	-0.063321
Zr14	Zr	1.044191	1.128541	0.135284
Zr15	Zr	1.044191	1.128543	-0.135316
Zr16	Zr	0.820618	1.128535	0.135288
Zr17	Zr	0.820620	1.399134	-0.135311
Zr18	Zr	1.044189	0.857943	0.135283
O19	O	1.002497	1.343629	0.084819
O20	O	1.002497	1.343631	-0.299939
O21	O	0.684605	1.343620	0.084825
O22	O	1.180204	0.913455	0.299906
O23	O	1.180204	0.913457	-0.084853
O24	O	0.862312	0.913446	0.299911
O25	O	1.180206	1.128546	-0.084852
O26	O	1.002495	1.128539	0.299910
O27	O	0.862314	1.128535	0.299912
O28	O	1.180206	1.128545	0.084815
O29	O	0.862317	1.513293	-0.299936
O30	O	1.002492	0.743784	0.299908
O31	O	1.180203	0.743789	0.299905
O32	O	1.180203	0.743790	0.084814
O33	O	0.684606	1.513287	-0.084842
O34	O	0.862317	1.513292	-0.084845
O35	O	0.984711	1.001919	0.189916
O36	O	1.089327	1.001923	0.063293
O37	O	0.984713	1.255160	-0.063325
O38	O	0.880098	1.255157	0.063298
C39	C	0.652749	1.128530	-0.000008
C40	C	0.557837	1.128528	-0.000007
C41	C	0.932404	1.128537	0.338466
C42	C	0.932404	1.128536	0.453342
C43	C	0.932407	1.467015	-0.000013
C44	C	0.932408	1.581891	-0.000012
C45	C	0.384052	1.128553	-0.000019
C46	C	0.480755	1.128545	-0.000015
C47	C	1.212060	1.128547	-0.000019
C48	C	1.306972	1.128550	-0.000021
C49	C	0.932402	0.790062	-0.000015
C50	C	0.932401	0.675186	-0.000015
C51	C	0.932405	1.128540	-0.338493
C52	C	0.932405	1.128541	-0.453370
C53	C	1.212058	0.790070	-0.000020
C54	C	1.306969	0.675197	-0.000022
C55	C	0.932402	0.790060	0.338464
C56	C	0.932401	0.675184	0.453341
C57	C	1.212057	0.790069	0.338459
C58	C	1.306969	0.675195	0.453334
C59	C	0.652752	1.467009	-0.338487
C60	C	0.557841	1.581882	-0.453361
C61	C	0.652752	1.467007	-0.000007
C62	C	0.557840	1.581880	-0.000005
C63	C	0.932408	1.467017	-0.338492
C64	C	0.932408	1.581893	-0.453368
C65	C	1.296933	0.621250	-0.066128
C66	C	1.386104	0.513330	-0.066156
C67	C	1.485310	0.459351	-0.000069
C68	C	1.495345	0.513308	0.066040
C69	C	1.406175	0.621234	0.066059
C70	C	1.406158	0.621251	0.441184
C71	C	1.495346	0.513330	0.549111
C72	C	1.485342	0.459348	0.669186
C73	C	1.386143	0.513302	0.681333
C74	C	1.296957	0.621229	0.573408
C75	C	0.458651	1.635839	-0.441212
C76	C	0.369464	1.743794	-0.549138
C77	C	0.379467	1.797782	-0.669213
C78	C	0.478667	1.743820	-0.681360
C79	C	0.567852	1.635875	-0.573435
C80	C	0.567877	1.635838	0.066090
C81	C	0.478706	1.743788	0.066087
C82	C	0.379499	1.797771	-0.000004
C83	C	0.369464	1.743809	-0.066107
C84	C	0.458634	1.635868	-0.066111
H85	H	1.377913	0.469411	-0.119988
O86	O	1.376297	0.460838	0.797907
C87	C	1.321318	0.398349	0.811775
H88	H	1.272083	0.447110	0.714619
H89	H	1.379088	0.275418	0.863347
C90	C	1.310203	0.370392	1.007823
C91	C	1.249725	0.430290	0.888496
H92	H	1.266044	0.390088	1.055153
H93	H	1.347247	0.412486	0.998484
H94	H	1.358341	0.267954	1.050785
H95	H	1.201597	0.532728	0.845531
H96	H	1.212671	0.388213	0.897830
O97	O	1.200584	0.673840	0.585155
C98	C	1.145698	0.825090	0.526660
H99	H	1.203545	0.854671	0.521652
H100	H	1.092767	0.886810	0.427111
C101	C	1.008057	0.830643	0.610152
C102	C	1.079106	0.866973	0.604011
H103	H	0.966975	0.856481	0.657861
H104	H	1.045032	0.728744	0.649558
H105	H	0.963957	0.882080	0.527189
H106	H	1.123212	0.815523	0.686972
H107	H	1.042136	0.968864	0.564621
H108	H	0.450486	1.591888	-0.343451
O109	O	0.488561	1.795998	-0.797910
C110	C	0.595231	1.725125	-0.785511
H111	H	0.642822	1.680822	-0.689287
H112	H	0.621475	1.631248	-0.794150
C113	C	0.553562	1.888777	-1.008461
C114	C	0.612013	1.834374	-0.890282
H115	H	0.563915	1.956164	-1.073092
H116	H	0.481696	1.936523	-1.016817
H117	H	0.575439	1.810535	-1.015643
H118	H	0.590128	1.912613	-0.883096
H119	H	0.683877	1.786644	-0.881928
H120	H	1.216162	0.665199	-0.119960
O121	O	0.664221	1.583620	-0.585196
C122	C	0.719093	1.609962	-0.526702
H123	H	0.661237	1.704529	-0.521678
H124	H	0.772040	1.508066	-0.427159
C125	C	0.856723	1.532491	-0.610229
C126	C	0.785663	1.648648	-0.604068
H127	H	0.897790	1.556348	-0.657948
H128	H	0.819757	1.514738	-0.649634
H129	H	0.900835	1.447588	-0.527272
H130	H	0.741544	1.733543	-0.687023
H131	H	0.822623	1.666416	-0.564679
H132	H	1.557910	0.371470	-0.000093
H133	H	1.576110	0.469411	0.539198
O134	O	0.664263	1.583185	0.130453
C135	C	0.719128	1.431938	0.223206
H136	H	0.661265	1.402388	0.247782
H137	H	0.772042	1.370208	0.185372
C138	C	0.856810	1.426321	0.312245
C139	C	0.785742	1.390030	0.342438
H140	H	0.897905	1.400467	0.385792
H141	H	0.819849	1.528218	0.249754
H142	H	0.900895	1.374877	0.280716
H143	H	0.741651	1.441488	0.373952
H144	H	0.822697	1.288140	0.404938
H145	H	1.557972	0.371467	0.757055
H146	H	1.576131	0.469343	0.119845
H147	H	0.288678	1.787778	-0.119916
H148	H	1.414362	0.665144	0.119898
H149	H	0.288700	1.787711	-0.539223
H150	H	0.306838	1.885677	-0.757083
H151	H	0.486896	1.787706	0.119921
H152	H	1.414323	0.665188	0.343423
H153	H	0.306899	1.885664	0.000010
H154	H	0.450448	1.591938	-0.119930
