data_functionalizedCrystal
_audit_creation_method	'MofGen! by Chris Wilmer'
_symmetry_space_group_name_H-M	'P1'
_symmetry_Int_Tables_number	1
_symmetry_cell_setting	triclinic
loop_
_symmetry_equiv_pos_as_xyz
  x,y,z
_cell_length_a	21.395364
_cell_length_b	14.908579
_cell_length_c	21.395355
_cell_angle_alpha	86.717056
_cell_angle_beta	89.975448
_cell_angle_gamma	86.663015
loop_
_atom_site_label
_atom_site_type_symbol
_atom_site_fract_x
_atom_site_fract_y
_atom_site_fract_z
Zn1	Zn	0.943506	0.358914	-0.368658
Zn2	Zn	1.443506	0.858914	0.131342
Zn3	Zn	0.937377	0.509758	-0.269931
Zn4	Zn	1.437377	1.009758	0.230069
Zn5	Zn	0.838720	0.358953	-0.263896
Zn6	Zn	1.338720	0.858953	0.236104
Zn7	Zn	0.832658	0.509774	-0.374672
Zn8	Zn	1.332658	1.009774	0.125328
O9	O	0.888065	0.434350	-0.319289
O10	O	1.388065	0.934350	0.180711
O11	O	1.030372	0.378900	-0.355570
O12	O	1.530372	0.878900	0.144430
O13	O	0.924261	0.489764	-0.181453
O14	O	1.424261	0.989764	0.318547
O15	O	0.857722	0.232700	-0.272751
O16	O	1.357722	0.732700	0.227249
O17	O	1.025869	0.489725	-0.283036
O18	O	1.525869	0.989725	0.216964
O19	O	0.934709	0.232671	-0.349719
O20	O	1.434709	0.732671	0.150281
O21	O	0.851778	0.378968	-0.177019
O22	O	1.351778	0.878968	0.322981
O23	O	0.750237	0.378983	-0.278582
O24	O	1.250237	0.878983	0.221418
O25	O	0.847390	0.489753	-0.461552
O26	O	1.347390	0.989753	0.038448
O27	O	0.745783	0.489791	-0.359969
O28	O	1.245783	0.989791	0.140031
O29	O	0.928830	0.378916	-0.457133
O30	O	1.428830	0.878916	0.042867
O31	O	0.918383	0.636009	-0.288868
O32	O	1.418383	1.136009	0.211132
O33	O	0.841446	0.636021	-0.365820
O34	O	1.341446	1.136021	0.134180
C35	C	0.725276	0.434394	-0.319274
C36	C	1.225276	0.934394	0.180726
C37	C	0.655633	0.434434	-0.319283
C38	C	1.155633	0.934434	0.180717
C39	C	0.625283	0.376822	-0.357117
C40	C	1.125283	0.876822	0.142883
C41	C	0.559849	0.376798	-0.357118
C42	C	1.059849	0.876798	0.142882
C43	C	0.524766	0.434402	-0.319293
C44	C	1.024766	0.934402	0.180707
C45	C	0.555123	0.492019	-0.281451
C46	C	1.055123	0.992019	0.218549
C47	C	0.620557	0.492034	-0.281446
C48	C	1.120557	0.992034	0.218554
C49	C	0.417792	0.515649	-0.317514
C50	C	0.917792	1.015649	0.182486
C51	C	0.352360	0.515634	-0.317524
C52	C	0.852360	1.015634	0.182476
C53	C	0.322947	0.434353	-0.319305
C54	C	0.822947	0.934353	0.180695
C55	C	0.358975	0.353083	-0.321089
C56	C	0.858975	0.853083	0.178911
C57	C	0.424408	0.353099	-0.321084
C58	C	0.924408	0.853099	0.178916
C59	C	0.453814	0.434391	-0.319294
C60	C	0.953814	0.934391	0.180706
C61	C	0.221646	0.376710	-0.357142
C62	C	0.721646	0.876710	0.142858
C63	C	0.156211	0.376684	-0.357139
C64	C	0.656211	0.876684	0.142861
C65	C	0.151486	0.491913	-0.281476
C66	C	0.651486	0.991913	0.218524
C67	C	0.216920	0.491930	-0.281475
C68	C	0.716920	0.991930	0.218525
C69	C	0.251997	0.434330	-0.319312
C70	C	0.751997	0.934330	0.180688
C71	C	0.878609	0.668749	-0.328665
C72	C	1.378609	1.168749	0.171335
C73	C	0.874621	0.769027	-0.332697
C74	C	1.374621	1.269027	0.167303
C75	C	0.947323	0.957384	-0.260208
C76	C	1.447323	1.457384	0.239792
C77	C	0.943578	1.051604	-0.263994
C78	C	1.443578	1.551604	0.236006
C79	C	0.863389	1.051686	-0.344059
C80	C	1.363389	1.551686	0.155941
C81	C	0.867134	0.957467	-0.340273
C82	C	1.367134	1.457467	0.159727
C83	C	0.909102	0.910319	-0.298345
C84	C	1.409102	1.410319	0.201655
C85	C	0.912843	0.816098	-0.294556
C86	C	1.412843	1.316098	0.205444
C87	C	0.832658	0.816182	-0.374624
C88	C	1.332658	1.316182	0.125376
C89	C	0.828913	0.910402	-0.378410
C90	C	1.328913	1.410402	0.121590
C91	C	1.051490	0.434306	-0.319306
C92	C	1.551490	0.934306	0.180694
C93	C	1.121132	0.434288	-0.319313
C94	C	1.621132	0.934288	0.180687
C95	C	0.888118	0.434332	-0.482712
C96	C	1.388118	0.934332	0.017288
C97	C	0.888140	0.434324	-0.552353
C98	C	1.388140	0.934324	-0.052353
C99	C	0.897571	1.199035	-0.309899
C100	C	1.397571	1.699035	0.190101
C101	C	0.901612	1.098758	-0.305918
C102	C	1.401612	1.598758	0.194082
C103	C	0.930544	0.376609	-0.582766
C104	C	1.430544	0.876609	-0.082766
C105	C	0.930545	0.376570	-0.648200
C106	C	1.430545	0.876570	-0.148200
C107	C	0.888148	0.434262	-0.683219
C108	C	1.388148	0.934262	-0.183219
C109	C	0.845735	0.491982	-0.652798
C110	C	1.345735	0.991982	-0.152798
C111	C	0.845732	0.492012	-0.587365
C112	C	1.345732	0.992012	-0.087365
C113	C	0.879923	0.515497	-0.790143
C114	C	1.379923	1.015497	-0.290143
C115	C	0.879931	0.515468	-0.855575
C116	C	1.379931	1.015468	-0.355575
C117	C	0.888155	0.434167	-0.885036
C118	C	1.388155	0.934167	-0.385036
C119	C	0.896385	0.352893	-0.849057
C120	C	1.396385	0.852893	-0.349057
C121	C	0.896381	0.352924	-0.783624
C122	C	1.396381	0.852924	-0.283624
C123	C	0.888147	0.434235	-0.754170
C124	C	1.388147	0.934235	-0.254170
C125	C	0.930563	0.376405	-0.986400
C126	C	1.430563	0.876405	-0.486400
C127	C	0.930559	0.376365	-1.051835
C128	C	1.430559	0.876365	-0.551835
C129	C	0.845752	0.491784	-1.056432
C130	C	1.345752	0.991784	-0.556432
C131	C	0.845753	0.491817	-0.990998
C132	C	1.345753	0.991817	-0.490998
C133	C	0.888161	0.434128	-0.955986
C134	C	1.388161	0.934128	-0.455986
C135	C	0.888051	0.434303	-0.156500
C136	C	1.388051	0.934303	0.343500
C137	C	0.888160	0.434057	-0.086849
C138	C	1.388160	0.934057	0.413151
H139	H	0.250207	0.329802	-0.387947
H140	H	0.750207	0.829802	0.112053
H141	H	0.947014	0.777712	-0.260414
H142	H	1.447014	1.277712	0.239586
N143	N	0.992578	0.906525	-0.214982
N144	N	1.492578	1.406525	0.285018
H145	H	1.016221	0.950639	-0.191394
H146	H	1.516221	1.450639	0.308606
H147	H	1.023118	0.867368	-0.238939
H148	H	1.523118	1.367368	0.261061
H149	H	0.903080	0.286747	-0.754333
H150	H	1.403080	0.786747	-0.254333
H151	H	0.974703	1.089921	-0.232940
H152	H	1.474703	1.589921	0.267060
H153	H	0.645266	0.538951	-0.250636
H154	H	1.145266	1.038951	0.249364
N155	N	0.449513	0.603323	-0.315593
N156	N	0.949513	1.103323	0.184407
H157	H	0.476692	0.602034	-0.276929
H158	H	0.976692	1.102034	0.223071
H159	H	0.416724	0.654753	-0.314492
H160	H	0.916724	1.154753	0.185508
H161	H	0.535133	0.329879	-0.387926
H162	H	1.035133	0.829879	0.112074
N163	N	0.799985	0.554262	-0.554566
N164	N	1.299985	1.054262	-0.054566
H165	H	0.807105	0.618716	-0.568544
H166	H	1.307105	1.118716	-0.068544
H167	H	0.806433	0.545456	-0.507809
H168	H	1.306433	1.045456	-0.007809
N169	N	0.113657	0.554047	-0.240677
N170	N	0.613657	1.054047	0.259323
H171	H	0.125597	0.539940	-0.195361
H172	H	0.625597	1.039940	0.304639
H173	H	0.067612	0.545267	-0.246470
H174	H	0.567612	1.045267	0.253530
H175	H	0.241631	0.538848	-0.250669
H176	H	0.741631	1.038848	0.249331
N177	N	0.976285	0.314316	-0.681010
N178	N	1.476285	0.814316	-0.181010
H179	H	1.020484	0.328329	-0.670202
H180	H	1.520484	0.828329	-0.170202
H181	H	0.969798	0.323080	-0.727764
H182	H	1.469798	0.823080	-0.227764
N183	N	0.517291	0.554156	-0.240654
N184	N	1.017291	1.054156	0.259346
H185	H	0.529228	0.540049	-0.195339
H186	H	1.029228	1.040049	0.304661
H187	H	0.471245	0.545381	-0.246450
H188	H	0.971245	1.045381	0.253550
H189	H	0.903083	0.286690	-0.873043
H190	H	1.403083	0.786690	-0.373043
H191	H	0.453739	0.286926	-0.322535
H192	H	0.953739	0.786926	0.177465
N193	N	0.976267	0.314374	-0.544996
N194	N	1.476267	0.814374	-0.044996
H195	H	1.003820	0.351035	-0.519325
H196	H	1.503820	0.851035	-0.019325
H197	H	1.003088	0.277809	-0.574230
H198	H	1.503088	0.777809	-0.074230
H199	H	0.811213	0.538952	-0.681314
H200	H	1.311213	1.038952	-0.181314
N201	N	0.818131	1.102545	-0.389281
N202	N	1.318131	1.602545	0.110719
H203	H	0.821561	1.169374	-0.385892
H204	H	1.321561	1.669374	0.114108
H205	H	0.774039	1.086162	-0.378826
H206	H	1.274039	1.586162	0.121174
N207	N	0.800007	0.554053	-0.958189
N208	N	1.300007	1.054053	-0.458189
H209	H	0.773144	0.590590	-0.990300
H210	H	1.273144	1.090590	-0.490300
H211	H	0.823810	0.595816	-0.932718
H212	H	1.323810	1.095816	-0.432718
N213	N	0.783650	0.961255	-0.423631
N214	N	1.283650	1.461255	0.076369
H215	H	0.787077	1.028085	-0.420243
H216	H	1.287077	1.528085	0.079757
H217	H	0.739561	0.944866	-0.413172
H218	H	1.239561	1.444866	0.086828
H219	H	0.801534	0.777851	-0.405676
H220	H	1.301534	1.277851	0.094324
H221	H	0.131502	0.329764	-0.387947
H222	H	0.631502	0.829764	0.112053
H223	H	0.965091	0.329426	-0.957892
H224	H	1.465091	0.829426	-0.457892
H225	H	0.653838	0.329919	-0.387926
H226	H	1.153838	0.829919	0.112074
H227	H	0.335028	0.286896	-0.322540
H228	H	0.835028	0.786896	0.177460
H229	H	0.323031	0.581809	-0.316073
H230	H	0.823031	1.081809	0.183927
H231	H	0.965089	0.329361	-1.076596
H232	H	1.465089	0.829361	-0.576596
N233	N	0.800017	0.554004	-1.094192
N234	N	1.300017	1.054004	-0.594192
H235	H	0.806452	0.545226	-1.140259
H236	H	1.306452	1.045226	-0.640259
H237	H	0.807163	0.618441	-1.085345
H238	H	1.307163	1.118441	-0.585345
N239	N	0.871058	0.603121	-0.894379
N240	N	1.371058	1.103121	-0.394379
H241	H	0.905651	0.643496	-0.884623
H242	H	1.405651	1.143496	-0.384623
H243	H	0.829246	0.633755	-0.884193
H244	H	1.329246	1.133755	-0.384193
H245	H	0.873059	0.581685	-0.766161
H246	H	1.373059	1.081685	-0.266161
