data_functionalizedCrystal
_audit_creation_method	'MofGen! by Chris Wilmer'
_symmetry_space_group_name_H-M	'P1'
_symmetry_Int_Tables_number	1
_symmetry_cell_setting	triclinic
loop_
_symmetry_equiv_pos_as_xyz
  x,y,z
_cell_length_a	10.489741
_cell_length_b	16.109302
_cell_length_c	14.586319
_cell_angle_alpha	89.994552
_cell_angle_beta	90.000242
_cell_angle_gamma	95.999523
loop_
_atom_site_label
_atom_site_type_symbol
_atom_site_fract_x
_atom_site_fract_y
_atom_site_fract_z
O1	O	-0.163951	1.104141	-0.076274
O2	O	-0.184353	0.862205	-0.076266
O3	O	0.011525	0.988678	-0.076273
O4	O	-0.359830	0.977668	-0.076268
O5	O	0.011528	0.988669	0.076208
O6	O	-0.184350	0.862196	0.076215
O7	O	-0.163948	1.104132	0.076207
Cu8	Cu	-0.174149	0.983163	0.090133
Cu9	Cu	-0.174153	0.983174	-0.090193
O10	O	-0.359827	0.977659	0.076213
C11	C	-0.183525	0.831220	-0.000025
C12	C	-0.181047	0.738910	-0.000022
C13	C	-0.175315	0.526529	0.083086
C14	C	-0.172973	0.439794	0.083083
C15	C	-0.172983	0.439815	-0.083160
C16	C	-0.175316	0.526548	-0.083156
C17	C	-0.176489	0.569903	-0.000030
C18	C	-0.171813	0.396434	-0.000038
C19	C	-0.169274	0.302393	-0.000042
C20	C	-0.179026	0.663950	-0.000026
C21	C	-0.407348	0.978495	-0.000027
C22	C	-0.548942	0.980983	-0.000026
C23	C	-0.615914	1.061454	-0.000035
C24	C	-0.708585	1.023436	0.075146
C25	C	-0.708566	1.023426	-0.075188
C26	C	-0.639747	0.942931	0.075218
C27	C	-0.639719	0.942932	-0.075184
C28	C	-0.732363	0.904856	0.000016
C29	C	0.059046	0.987842	-0.000035
C30	C	0.200640	0.985354	-0.000042
C31	C	-0.164776	1.135117	-0.000037
C32	C	-0.167255	1.227427	-0.000046
N33	N	-0.174146	0.983162	0.216965
N34	N	-0.174146	0.983182	-0.217025
C35	C	-0.087440	1.039183	0.451969
C36	C	-0.087437	1.039186	0.547950
C37	C	-0.260856	0.927154	0.547965
C38	C	-0.260852	0.927149	0.451985
C39	C	-0.174145	0.983168	0.403990
C40	C	-0.174146	0.983176	0.595951
C41	C	-0.174144	0.983178	0.700018
C42	C	-0.174146	0.983165	0.299916
H43	H	-0.176268	0.561864	-0.150843
H44	H	-0.172029	0.404505	-0.150838
C45	C	-0.481649	0.879647	0.422427
C46	C	-0.356170	0.865574	0.399239
H47	H	-0.540487	0.841637	0.389859
H48	H	-0.494056	0.871630	0.486449
H49	H	-0.495506	0.935217	0.406683
H50	H	-0.342310	0.810006	0.414990
H51	H	-0.343758	0.873584	0.335203
C52	C	-0.010430	1.088934	0.695070
C53	C	0.007871	1.100760	0.600689
H54	H	0.048420	1.126946	0.727627
H55	H	-0.095550	1.098474	0.710794
H56	H	0.003451	1.033365	0.710798
H57	H	-0.006019	1.156328	0.584960
H58	H	0.093012	1.091227	0.584959
H59	H	-0.782747	0.838633	0.000060
H60	H	-0.176270	0.561825	0.150772
C61	C	-0.538403	0.827290	0.134624
C62	C	-0.598802	0.896999	0.161121
H63	H	-0.513118	0.798939	0.187657
H64	H	-0.596182	0.790740	0.099487
H65	H	-0.464930	0.844920	0.098768
H66	H	-0.672280	0.879369	0.196971
H67	H	-0.541019	0.933556	0.196273
H68	H	-0.609171	0.908915	-0.138746
C69	C	-0.582085	1.192700	0.078889
C70	C	-0.547578	1.150767	0.000060
H71	H	-0.539889	1.247834	0.078952
H72	H	-0.672215	1.194895	0.079425
H73	H	-0.557533	1.163813	0.131751
H74	H	-0.572140	1.179651	-0.052802
H75	H	-0.457429	1.148576	-0.000484
C76	C	0.133361	1.086653	0.422467
C77	C	0.007907	1.100749	0.399234
H78	H	0.192234	1.124658	0.389914
H79	H	0.145727	1.094661	0.486492
H80	H	0.147207	1.031081	0.406734
H81	H	-0.005943	1.156319	0.414972
H82	H	-0.004464	1.092748	0.335194
C83	C	-0.173217	0.448491	0.247404
C84	C	-0.171692	0.392117	0.174447
H85	H	-0.172434	0.419055	0.303810
H86	H	-0.099798	0.488215	0.243948
H87	H	-0.248469	0.476424	0.243940
H88	H	-0.096435	0.364189	0.177907
H89	H	-0.245119	0.352378	0.177905
C90	C	-0.713340	1.028026	0.239633
C91	C	-0.749786	1.069393	0.160947
H92	H	-0.738765	1.056406	0.292600
H93	H	-0.753614	0.972406	0.239713
H94	H	-0.622919	1.027223	0.239957
H95	H	-0.840209	1.070190	0.160620
H96	H	-0.709516	1.125028	0.160868
H97	H	-0.739057	1.057493	-0.138746
C98	C	-0.337875	0.877425	0.695102
C99	C	-0.356173	0.865588	0.600725
H100	H	-0.396730	0.839420	0.727671
H101	H	-0.252757	0.867884	0.710833
H102	H	-0.351751	0.932998	0.710809
H103	H	-0.342287	0.810017	0.585017
H104	H	-0.441311	0.875123	0.584988
