data_functionalizedCrystal
_audit_creation_method	'MofGen! by Chris Wilmer'
_symmetry_space_group_name_H-M	'P1'
_symmetry_Int_Tables_number	1
_symmetry_cell_setting	triclinic
loop_
_symmetry_equiv_pos_as_xyz
  x,y,z
_cell_length_a	16.120530
_cell_length_b	12.759399
_cell_length_c	12.759393
_cell_angle_alpha	90.030906
_cell_angle_beta	87.079999
_cell_angle_gamma	92.889229
loop_
_atom_site_label
_atom_site_type_symbol
_atom_site_fract_x
_atom_site_fract_y
_atom_site_fract_z
Zn1	Zn	1.274633	0.499768	-0.675423
Zn2	Zn	1.274545	0.675478	-0.499736
Zn3	Zn	1.135207	0.490899	-0.490853
Zn4	Zn	1.135200	0.666484	-0.666474
O5	O	1.204896	0.583157	-0.583121
O6	O	1.391288	0.530552	-0.659580
O7	O	1.256028	0.651045	-0.351534
O8	O	1.153742	0.345057	-0.515364
O9	O	1.391224	0.659645	-0.530504
O10	O	1.256177	0.351573	-0.650967
O11	O	1.153657	0.515435	-0.345008
O12	O	1.018539	0.506715	-0.506687
O13	O	1.153729	0.644317	-0.814684
O14	O	1.018534	0.635717	-0.635715
O15	O	1.256170	0.521831	-0.821259
O16	O	1.256021	0.821303	-0.521826
O17	O	1.153644	0.814696	-0.644328
C18	C	0.988286	0.569278	-0.569266
C19	C	0.895619	0.563366	-0.563364
C20	C	1.204845	0.856121	-0.583094
C21	C	1.204900	0.972901	-0.583123
C22	C	1.204959	0.583060	-0.857159
C23	C	1.204985	0.583019	-0.973937
C24	C	0.725956	0.552547	-0.552597
C25	C	0.684677	0.613845	-0.613722
C26	C	0.590271	0.607825	-0.607731
C27	C	0.820371	0.558565	-0.558587
C28	C	1.422352	0.597091	-0.597031
C29	C	1.515019	0.603029	-0.602958
C30	C	1.204970	0.309129	-0.583173
C31	C	1.205002	0.192354	-0.583195
C32	C	1.258268	1.031173	-0.519416
C33	C	1.258322	1.140900	-0.519455
C34	C	1.151631	1.134075	-0.646909
C35	C	1.151582	1.024349	-0.646875
C36	C	1.258330	0.519230	-1.032225
C37	C	1.258344	0.519186	-1.141950
C38	C	1.151666	0.646728	-1.135090
C39	C	1.151648	0.646766	-1.025367
C40	C	1.204882	0.583181	-0.310153
C41	C	1.205017	0.582937	-0.193386
H42	H	0.720239	0.670842	-0.670553
C43	C	1.092962	0.716931	-0.961237
C44	C	1.129046	0.801748	-0.888090
C45	C	1.070358	0.871901	-0.823957
C46	C	0.975586	0.857237	-0.832971
C47	C	0.939497	0.772416	-0.906121
C48	C	0.998185	0.702263	-0.970254
H49	H	1.199206	0.812607	-0.881414
H50	H	1.097074	0.934691	-0.769807
H51	H	0.932142	0.909168	-0.785496
H52	H	0.869337	0.761557	-0.912797
H53	H	0.971469	0.639473	-1.024405
H54	H	1.301758	0.467320	-0.990354
C55	C	1.317027	0.449021	-1.206067
C56	C	1.280939	0.364189	-1.279196
C57	C	1.339624	0.294020	-1.343314
C58	C	1.434396	0.308682	-1.334303
C59	C	1.470489	0.393517	-1.261172
C60	C	1.411804	0.463686	-1.197054
H61	H	1.210779	0.353332	-1.285869
H62	H	1.312905	0.231219	-1.397450
H63	H	1.477838	0.256738	-1.381767
H64	H	1.540649	0.404374	-1.254499
H65	H	1.438523	0.526487	-1.142917
H66	H	0.690396	0.495553	-0.495772
C67	C	1.316922	0.974578	-0.449300
C68	C	1.310179	0.989341	-0.329430
C69	C	1.368837	0.932749	-0.259315
C70	C	1.434237	0.861396	-0.309070
C71	C	1.440983	0.846630	-0.428947
C72	C	1.382325	0.903221	-0.499062
H73	H	1.261763	1.042164	-0.292593
H74	H	1.363843	0.943680	-0.170575
H75	H	1.477659	0.819503	-0.257167
H76	H	1.489398	0.793807	-0.465785
H77	H	1.387319	0.892290	-0.587803
H78	H	1.301781	1.188340	-0.467580
H79	H	1.108221	1.175977	-0.698812
H80	H	1.108123	0.976901	-0.698757
C81	C	1.093004	0.716856	-1.191666
C82	C	1.093024	0.716823	-1.312357
C83	C	1.034363	0.786955	-1.368930
C84	C	0.975682	0.857120	-1.304812
C85	C	0.975661	0.857156	-1.184114
C86	C	1.034322	0.787024	-1.127541
H87	H	1.136465	0.664880	-1.359828
H88	H	1.034380	0.786928	-1.458280
H89	H	0.932258	0.909036	-1.346691
H90	H	0.932220	0.909099	-1.136644
H91	H	1.034305	0.787050	-1.038192
