data_functionalizedCrystal
_audit_creation_method	'MofGen! by Chris Wilmer'
_symmetry_space_group_name_H-M	'P1'
_symmetry_Int_Tables_number	1
_symmetry_cell_setting	triclinic
loop_
_symmetry_equiv_pos_as_xyz
  x,y,z
_cell_length_a	10.654550
_cell_length_b	17.699083
_cell_length_c	9.130313
_cell_angle_alpha	89.994594
_cell_angle_beta	89.999724
_cell_angle_gamma	83.883973
loop_
_atom_site_label
_atom_site_type_symbol
_atom_site_fract_x
_atom_site_fract_y
_atom_site_fract_z
O1	O	1.665979	0.106303	-0.121693
O2	O	1.300323	0.116430	-0.121721
O3	O	1.493481	0.001243	-0.121693
O4	O	1.472820	0.221490	-0.121721
O5	O	1.493468	0.001240	0.121906
O6	O	1.300310	0.116427	0.121878
O7	O	1.665966	0.106299	0.121906
Cu8	Cu	1.483136	0.111363	0.144134
Cu9	Cu	1.483152	0.111367	-0.143949
O10	O	1.472807	0.221487	0.121878
C11	C	1.253531	0.115685	0.000076
C12	C	1.114127	0.113460	0.000066
C13	C	1.033454	0.181281	0.000061
C14	C	0.902470	0.179186	0.000087
C15	C	0.932844	0.041444	0.000115
C16	C	1.063826	0.043539	0.000100
C17	C	1.492735	-0.026960	0.000106
C18	C	1.490514	-0.110993	0.000107
C19	C	1.603894	-0.158893	0.000117
C20	C	1.601799	-0.237849	0.000104
C21	C	1.486323	-0.268904	0.000091
C22	C	1.372935	-0.220998	0.000076
C23	C	1.375030	-0.142043	0.000079
C24	C	1.364481	-0.539415	0.000064
C25	C	1.362394	-0.618376	0.000065
C26	C	1.591249	-0.635221	0.000089
C27	C	1.593345	-0.556266	0.000092
C28	C	1.479957	-0.508367	0.000069
C29	C	1.482229	-0.422753	0.000080
C30	C	1.484050	-0.354516	0.000090
C31	C	1.712757	0.107045	0.000106
C32	C	1.852161	0.109269	0.000107
C33	C	1.473554	0.249690	0.000075
C34	C	1.475775	0.333722	0.000065
N35	N	1.483135	0.111360	0.346757
N36	N	1.483164	0.111364	-0.346572
C37	C	1.568694	0.060376	0.423421
C38	C	1.568706	0.060376	0.576758
C39	C	1.397596	0.162350	0.576753
C40	C	1.397579	0.162345	0.423419
H41	H	1.697927	-0.133614	0.000137
O42	O	1.142149	-0.022366	-0.000158
C43	C	1.208135	-0.139473	-0.126294
C44	C	1.119385	-0.064861	-0.126209
H45	H	1.189744	-0.173858	-0.228179
H46	H	1.310415	-0.126008	-0.126399
H47	H	1.189887	-0.173815	-0.024293
H48	H	1.137520	-0.030482	-0.228193
H49	H	1.017135	-0.078379	-0.126027
H50	H	1.268354	-0.643657	0.000058
O51	O	1.314324	0.211801	0.651164
C52	C	1.095840	0.254951	0.698044
C53	C	1.190007	0.198891	0.613712
H54	H	0.995310	0.244544	0.667772
H55	H	1.110443	0.246196	0.820822
H56	H	1.112068	0.315657	0.667893
H57	H	1.173836	0.138163	0.643740
H58	H	1.175381	0.207712	0.490954
H59	H	1.282705	-0.103043	0.000070
H60	H	1.327900	0.203862	0.360995
O61	O	0.884041	-0.026493	0.000391
C62	C	0.869997	-0.144885	0.126558
C63	C	0.925321	-0.067964	0.126454
H64	H	0.903372	-0.178442	0.228454
H65	H	0.762518	-0.134781	0.126656
H66	H	0.903216	-0.178400	0.024567
H67	H	0.892200	-0.034409	0.228428
H68	H	1.032795	-0.078121	0.126280
O69	O	1.254426	-0.492813	0.000246
C70	C	1.123923	-0.393927	0.126473
C71	C	1.248624	-0.446654	0.126432
H72	H	1.119180	-0.356605	0.228499
H73	H	1.119172	-0.356486	0.024593
H74	H	1.041051	-0.429700	0.126397
H75	H	1.331567	-0.410940	0.126559
H76	H	1.253265	-0.484098	0.228302
H77	H	1.683575	-0.674231	0.000100
O78	O	1.082110	0.249264	0.000105
C79	C	1.038152	0.385663	0.000003
C80	C	0.982888	0.308723	-0.000018
H81	H	0.957958	0.433757	-0.000128
H82	H	1.098677	0.390139	0.101964
H83	H	1.098749	0.390049	-0.101927
H84	H	0.922234	0.304285	0.101843
H85	H	0.922434	0.304281	-0.102047
O86	O	1.712053	-0.284271	0.000189
C87	C	1.939276	-0.292647	0.000150
C88	C	1.814502	-0.239989	0.000087
H89	H	2.022138	-0.256867	0.000036
H90	H	1.944090	-0.330025	0.102118
H91	H	1.943963	-0.330043	-0.101774
H92	H	1.809731	-0.202545	0.101941
H93	H	1.809740	-0.202663	-0.101949
H94	H	1.687377	-0.530986	0.000109
O95	O	1.651942	0.010825	0.651002
C96	C	1.821610	-0.090348	0.634814
C97	C	1.727432	-0.034256	0.550553
H98	H	1.882651	-0.126821	0.553638
H99	H	1.884330	-0.057356	0.706545
H100	H	1.767501	-0.128430	0.706657
H101	H	1.781439	0.003840	0.478630
H102	H	1.664713	-0.067295	0.478914
H103	H	1.278912	-0.246289	0.000056
H104	H	0.836791	0.234412	0.000087
H105	H	1.638357	0.018859	0.361006
