data_functionalizedCrystal
_audit_creation_method	'MofGen! by Chris Wilmer'
_symmetry_space_group_name_H-M	'P1'
_symmetry_Int_Tables_number	1
_symmetry_cell_setting	triclinic
loop_
_symmetry_equiv_pos_as_xyz
  x,y,z
_cell_length_a	15.995350
_cell_length_b	12.811445
_cell_length_c	11.892095
_cell_angle_alpha	80.666316
_cell_angle_beta	86.106675
_cell_angle_gamma	96.229367
loop_
_atom_site_label
_atom_site_type_symbol
_atom_site_fract_x
_atom_site_fract_y
_atom_site_fract_z
O1	O	-0.099283	1.409701	-0.238497
O2	O	-0.113329	1.101864	-0.206943
O3	O	0.015601	1.264198	-0.223587
O4	O	-0.228214	1.247367	-0.221853
O5	O	0.004868	1.250663	-0.034192
O6	O	-0.124063	1.088329	-0.017548
O7	O	-0.110017	1.396166	-0.049102
Zn8	Zn	-0.118744	1.240098	-0.003254
Zn9	Zn	-0.104602	1.257931	-0.252791
O10	O	-0.238947	1.233832	-0.032458
C11	C	-0.118237	1.055704	-0.108208
C12	C	-0.116859	0.938327	-0.096176
C13	C	-0.102583	0.732517	-0.280069
C14	C	-0.101289	0.622231	-0.268769
C15	C	-0.112982	0.607468	-0.062279
C16	C	-0.114276	0.717753	-0.073579
C17	C	-0.109075	0.780274	-0.182477
C18	C	-0.110364	0.890563	-0.193775
C19	C	-0.122063	0.875797	0.012714
C20	C	-0.120768	0.765511	0.024013
C21	C	-0.264774	1.241295	-0.127226
C22	C	-0.357719	1.243381	-0.127436
C23	C	-0.695448	1.250873	-0.128222
C24	C	-0.647721	1.366514	-0.140495
C25	C	-0.551060	1.364397	-0.139848
C26	C	-0.527897	1.247157	-0.127833
C27	C	-0.575242	1.182405	-0.013838
C28	C	-0.671876	1.185303	-0.014051
C29	C	-0.660023	1.198307	-0.229184
C30	C	-0.562997	1.198436	-0.230610
C31	C	-0.433205	1.245050	-0.127609
C32	C	-0.790141	1.252976	-0.128438
C33	C	0.041428	1.256735	-0.128822
C34	C	0.134374	1.254649	-0.128618
C35	C	-0.105109	1.442326	-0.147840
C36	C	-0.106486	1.559703	-0.159878
N37	N	-0.128395	1.227936	0.167047
N38	N	-0.094945	1.270103	-0.423093
C39	C	-0.027741	1.354737	0.390694
C40	C	-0.034493	1.346243	0.509907
C41	C	-0.148646	1.202449	0.524688
C42	C	-0.141894	1.210943	0.405475
C43	C	-0.081441	1.287091	0.338482
C44	C	-0.074693	1.295589	0.219266
C45	C	-0.188842	1.151790	0.234050
C46	C	-0.195594	1.143296	0.353263
H47	H	-0.125005	0.714591	0.112675
O48	O	-0.129070	0.927302	0.117986
H49	H	-0.129101	1.014494	0.091838
O50	O	-0.702302	1.085467	-0.218571
H51	H	-0.653859	1.029524	-0.210065
O52	O	-0.519842	1.416807	-0.043095
H53	H	-0.472564	1.486421	-0.078278
H54	H	-0.518135	1.414767	-0.221965
H55	H	0.009235	1.401327	0.552414
H56	H	-0.197861	1.140444	0.579250
O57	O	-0.715235	1.072412	0.003994
H58	H	-0.667154	1.015992	0.012843
H59	H	-0.694666	1.221109	0.062532
H60	H	-0.096004	0.583351	-0.348239
H61	H	-0.232570	1.096711	0.191526
H62	H	-0.106129	0.941466	-0.282446
H63	H	-0.098344	0.783423	-0.368738
H64	H	-0.661734	1.418261	-0.222800
O65	O	-0.119422	0.539895	0.055176
H66	H	-0.117732	0.455135	0.046634
O67	O	-0.679324	1.420166	-0.044593
H68	H	-0.728874	1.364826	0.011779
H69	H	-0.561546	1.095984	-0.000989
H70	H	-0.551342	1.216268	0.062589
H71	H	-0.675829	1.241960	-0.315033
O72	O	-0.520691	1.261142	-0.342252
H73	H	-0.474852	1.326735	-0.324627
O74	O	0.037457	1.436862	0.318425
H75	H	0.073666	1.482474	0.374761
O76	O	-0.542436	1.085798	-0.227660
H77	H	-0.506724	1.062677	-0.152553
H78	H	-0.025471	1.357595	0.164721
H79	H	-0.244812	1.081295	0.407823
