data_functionalizedCrystal
_audit_creation_method	'MofGen! by Chris Wilmer'
_symmetry_space_group_name_H-M	'P1'
_symmetry_Int_Tables_number	1
_symmetry_cell_setting	triclinic
loop_
_symmetry_equiv_pos_as_xyz
  x,y,z
_cell_length_a	14.853567
_cell_length_b	9.065218
_cell_length_c	7.540329
_cell_angle_alpha	90.003038
_cell_angle_beta	90.000203
_cell_angle_gamma	95.674592
loop_
_atom_site_label
_atom_site_type_symbol
_atom_site_fract_x
_atom_site_fract_y
_atom_site_fract_z
O1	O	0.132191	-1.957778	-0.147470
O2	O	0.143034	-1.528279	-0.147471
O3	O	0.006468	-1.754501	-0.147476
O4	O	0.268757	-1.731556	-0.147465
O5	O	0.006466	-1.754488	0.147489
O6	O	0.143032	-1.528265	0.147494
O7	O	0.132189	-1.957765	0.147495
Cu8	Cu	0.137611	-1.743014	0.174427
Cu9	Cu	0.137613	-1.743030	-0.174403
O10	O	0.268756	-1.731542	0.147500
C11	C	0.141991	-1.473306	0.000011
C12	C	0.138875	-1.309525	0.000010
C13	C	-0.027130	-1.753455	0.000001
C14	C	-0.127236	-1.750339	-0.000014
C15	C	0.133232	-2.012738	0.000009
C16	C	0.136348	-2.176519	-0.000002
C17	C	-0.540862	-1.602788	0.000019
C18	C	-0.560154	-1.871546	0.000020
C19	C	-0.466099	-1.874475	0.000010
C20	C	-0.409421	-1.741559	0.000007
C21	C	-0.446798	-1.605714	0.000014
C22	C	-0.428714	-2.010318	0.000020
C23	C	-0.334654	-2.013253	0.000012
C24	C	-0.277974	-1.880335	-0.000004
C25	C	-0.315356	-1.744484	0.000002
C26	C	-0.258678	-1.611568	-0.000001
C27	C	-0.296059	-1.475716	-0.000008
C28	C	-0.390118	-1.472796	-0.000001
C29	C	-0.183915	-1.883255	-0.000011
C30	C	-0.164614	-1.614494	-0.000006
C31	C	0.302353	-1.732589	0.000019
C32	C	0.402460	-1.735704	0.000022
N33	N	0.137609	-1.743013	0.419776
N34	N	0.137608	-1.743042	-0.419752
H35	H	-0.118471	-1.506255	-0.000016
H36	H	-0.474868	-2.118531	0.000039
Cl37	Cl	-0.631407	-2.038630	0.000053
H38	H	-0.420562	-1.362192	-0.000005
Cl39	Cl	-0.136925	-2.054026	0.000031
Cl40	Cl	-0.224796	-1.308629	0.000003
Cl41	Cl	-0.587852	-1.432011	-0.000007
H42	H	-0.304227	-2.123872	0.000015
