data_functionalizedCrystal
_audit_creation_method	'MofGen! by Chris Wilmer'
_symmetry_space_group_name_H-M	'P1'
_symmetry_Int_Tables_number	1
_symmetry_cell_setting	triclinic
loop_
_symmetry_equiv_pos_as_xyz
  x,y,z
_cell_length_a	18.215407
_cell_length_b	18.050590
_cell_length_c	18.215399
_cell_angle_alpha	90.028735
_cell_angle_beta	90.019833
_cell_angle_gamma	90.019000
loop_
_atom_site_label
_atom_site_type_symbol
_atom_site_fract_x
_atom_site_fract_y
_atom_site_fract_z
Zn1	Zn	1.125104	-0.295658	0.416112
Zn2	Zn	1.458438	0.037675	0.749445
Zn3	Zn	1.791771	0.371009	1.082779
Zn4	Zn	1.125026	-0.419853	0.293044
Zn5	Zn	1.458360	-0.086520	0.626377
Zn6	Zn	1.791693	0.246814	0.959711
Zn7	Zn	1.002037	-0.295682	0.293059
Zn8	Zn	1.335370	0.037651	0.626393
Zn9	Zn	1.668704	0.370984	0.959726
Zn10	Zn	1.002016	-0.419812	0.416069
Zn11	Zn	1.335350	-0.086478	0.749402
Zn12	Zn	1.668683	0.246855	1.082735
O13	O	1.063546	-0.357751	0.354571
O14	O	1.396879	-0.024418	0.687904
O15	O	1.730213	0.308915	1.021238
O16	O	1.228078	-0.312140	0.399798
O17	O	1.561412	0.021193	0.733132
O18	O	1.894745	0.354527	1.066465
O19	O	1.108687	-0.403409	0.190062
O20	O	1.442021	-0.070076	0.523395
O21	O	1.775354	0.263258	0.856728
O22	O	1.018403	-0.191755	0.309407
O23	O	1.351737	0.141579	0.642740
O24	O	1.685070	0.474912	0.976074
O25	O	1.228021	-0.403386	0.309381
O26	O	1.561354	-0.070052	0.642714
O27	O	1.894688	0.263281	0.976047
O28	O	1.108820	-0.191737	0.399813
O29	O	1.442154	0.141597	0.733146
O30	O	1.775487	0.474930	1.066480
O31	O	1.018328	-0.312181	0.190073
O32	O	1.351661	0.021152	0.523406
O33	O	1.684994	0.354485	0.856740
O34	O	0.899050	-0.312141	0.309365
O35	O	1.232383	0.021192	0.642698
O36	O	1.565717	0.354525	0.976032
O37	O	1.018368	-0.403315	0.519059
O38	O	1.351702	-0.069982	0.852392
O39	O	1.685035	0.263352	1.185725
O40	O	0.899035	-0.403339	0.399740
O41	O	1.232368	-0.070005	0.733073
O42	O	1.565702	0.263328	1.066406
O43	O	1.108801	-0.312100	0.519090
O44	O	1.442134	0.021233	0.852424
O45	O	1.775467	0.354567	1.185757
O46	O	1.108668	-0.523772	0.309339
O47	O	1.442001	-0.190439	0.642672
O48	O	1.775334	0.142894	0.976006
O49	O	1.018293	-0.523742	0.399725
O50	O	1.351626	-0.190409	0.733058
O51	O	1.684959	0.142925	1.066392
C52	C	0.872340	-0.357739	0.354550
C53	C	1.205673	-0.024405	0.687883
C54	C	1.539006	0.308928	1.021216
C55	C	0.790541	-0.357751	0.354558
C56	C	1.123874	-0.024418	0.687892
C57	C	1.457207	0.308916	1.021225
C58	C	0.602358	-0.405312	0.401557
C59	C	0.935692	-0.071979	0.734891
C60	C	1.269025	0.261354	1.068224
C61	C	0.525500	-0.405315	0.401566
C62	C	0.858833	-0.071981	0.734900
C63	C	1.192166	0.261352	1.068233
C64	C	0.525486	-0.310204	0.307601
C65	C	0.858819	0.023129	0.640934
C66	C	1.192152	0.356463	0.974267
C67	C	0.602343	-0.310199	0.307596
C68	C	0.935676	0.023135	0.640929
C69	C	1.269010	0.356468	0.974262
C70	C	0.640777	-0.357757	0.354573
C71	C	0.974111	-0.024423	0.687906
C72	C	1.307444	0.308910	1.021240
C73	C	0.487061	-0.357765	0.354587
C74	C	0.820395	-0.024431	0.687920
C75	C	1.153728	0.308902	1.021254
C76	C	0.403728	-0.357767	0.354597
C77	C	0.737061	-0.024434	0.687930
C78	C	1.070394	0.308900	1.021263
C79	C	0.724116	-0.357754	0.354565
C80	C	1.057450	-0.024421	0.687898
C81	C	1.390783	0.308913	1.021231
C82	C	1.063489	-0.550704	0.354542
C83	C	1.396823	-0.217370	0.687875
C84	C	1.730156	0.115963	1.021208
C85	C	1.063533	-0.633249	0.354554
C86	C	1.396866	-0.299916	0.687887
C87	C	1.730199	0.033417	1.021220
C88	C	1.112781	-0.832689	0.305470
C89	C	1.446114	-0.499356	0.638804
C90	C	1.779447	-0.166023	0.972137
C91	C	1.130758	-0.882022	0.372637
C92	C	1.464091	-0.548688	0.705971
C93	C	1.797424	-0.215355	1.039304
C94	C	1.063574	-0.784380	0.354583
C95	C	1.396908	-0.451046	0.687916
C96	C	1.730241	-0.117713	1.021250
C97	C	1.045672	-0.882129	0.287446
C98	C	1.379006	-0.548796	0.620780
C99	C	1.712339	-0.215463	0.954113
C100	C	1.063616	-0.930365	0.354605
C101	C	1.396949	-0.597031	0.687939
C102	C	1.730283	-0.263698	1.021272
C103	C	1.081586	-0.832624	0.421785
C104	C	1.414919	-0.499291	0.755119
C105	C	1.748252	-0.165958	1.088452
C106	C	0.996469	-0.832728	0.336549
C107	C	1.329802	-0.499394	0.669882
C108	C	1.663136	-0.166061	1.003216
C109	C	1.014421	-0.882038	0.403762
C110	C	1.347754	-0.548704	0.737095
C111	C	1.681087	-0.215371	1.070429
C112	C	1.063552	-0.700281	0.354569
C113	C	1.396885	-0.366948	0.687902
C114	C	1.730219	-0.033615	1.021236
C115	C	1.063638	-1.014461	0.354627
C116	C	1.396971	-0.681128	0.687960
C117	C	1.730305	-0.347795	1.021294
C118	C	1.255499	-0.357765	0.354593
C119	C	1.588832	-0.024431	0.687926
C120	C	1.922166	0.308902	1.021259
C121	C	1.337298	-0.357770	0.354602
C122	C	1.670631	-0.024437	0.687935
C123	C	2.003964	0.308896	1.021268
C124	C	1.063591	-0.357700	0.546524
C125	C	1.396924	-0.024367	0.879857
C126	C	1.730257	0.308966	1.213191
C127	C	1.063610	-0.357678	0.628323
C128	C	1.396943	-0.024345	0.961656
C129	C	1.730277	0.308988	1.294990
C130	C	1.063623	-0.164046	0.354616
C131	C	1.396956	0.169288	0.687950
C132	C	1.730290	0.502621	1.021283
C133	C	1.063656	-0.081500	0.354636
C134	C	1.396989	0.251833	0.687969
C135	C	1.730322	0.585167	1.021303
C136	C	1.063544	-0.357749	0.163365
C137	C	1.396877	-0.024415	0.496698
C138	C	1.730210	0.308918	0.830031
C139	C	1.063667	-0.357561	0.081566
C140	C	1.397000	-0.024228	0.414900
C141	C	1.730334	0.309105	0.748233
C142	C	1.110715	-0.310138	0.816535
C143	C	1.444048	0.023195	1.149868
C144	C	1.777382	0.356528	1.483201
C145	C	1.110724	-0.310117	0.893393
C146	C	1.444057	0.023217	1.226727
C147	C	1.777390	0.356550	1.560060
C148	C	1.016557	-0.405104	0.893349
C149	C	1.349890	-0.071770	1.226682
C150	C	1.683224	0.261563	1.560016
C151	C	1.016545	-0.405121	0.816492
C152	C	1.349878	-0.071788	1.149825
C153	C	1.683212	0.261546	1.483158
C154	C	1.063628	-0.357639	0.778086
C155	C	1.396962	-0.024306	1.111420
C156	C	1.730295	0.309027	1.444753
C157	C	1.063649	-0.357600	0.931803
C158	C	1.396982	-0.024267	1.265136
C159	C	1.730316	0.309066	1.598469
C160	C	1.063658	-0.357577	1.015136
C161	C	1.396991	-0.024244	1.348470
C162	C	1.730325	0.309089	1.681803
C163	C	1.063618	-0.357661	0.694747
C164	C	1.396952	-0.024328	1.028081
C165	C	1.730285	0.309005	1.361414
H166	H	0.494183	-0.271485	0.269352
H167	H	0.827516	0.061848	0.602686
H168	H	1.160850	0.395182	0.936019
N169	N	1.161498	-0.258932	0.775110
N170	N	1.494831	0.074402	1.108443
N171	N	1.828164	0.407735	1.441777
H172	H	1.131604	-0.224523	0.743219
H173	H	1.464937	0.108810	1.076552
H174	H	1.798270	0.442144	1.409886
H175	H	1.195573	-0.289183	0.743268
H176	H	1.528907	0.044150	1.076602
H177	H	1.862240	0.377483	1.409935
N178	N	1.161501	-0.258875	0.934863
N179	N	1.494835	0.074458	1.268197
N180	N	1.828168	0.407792	1.601530
H181	H	1.191322	-0.228798	0.898869
H182	H	1.524655	0.104535	1.232202
H183	H	1.857988	0.437869	1.565536
H184	H	1.195554	-0.289091	0.966756
H185	H	1.528887	0.044242	1.300090
H186	H	1.862220	0.377575	1.633423
H187	H	0.633649	-0.444035	0.439811
H188	H	0.966983	-0.110702	0.773144
H189	H	1.300316	0.222631	1.106478
H190	H	0.939718	-0.811057	0.321261
H191	H	1.273051	-0.477724	0.654594
H192	H	1.606385	-0.144391	0.987928
N193	N	1.025588	-0.910936	0.212231
N194	N	1.358921	-0.577603	0.545565
N195	N	1.692254	-0.244270	0.878898
H196	H	1.062778	-0.892985	0.175168
H197	H	1.396112	-0.559652	0.508502
H198	H	1.729445	-0.226318	0.841835
H199	H	0.975233	-0.892229	0.198283
H200	H	1.308566	-0.558896	0.531617
H201	H	1.641900	-0.225563	0.864950
H202	H	1.187525	-0.903676	0.387905
H203	H	1.520858	-0.570343	0.721238
H204	H	1.854192	-0.237010	1.054572
N205	N	0.965766	-0.456303	0.934772
N206	N	1.299099	-0.122969	1.268105
N207	N	1.632432	0.210364	1.601439
H208	H	0.972915	-0.449082	0.989295
H209	H	1.306248	-0.115749	1.322629
H210	H	1.639581	0.217584	1.655962
H211	H	0.977186	-0.509350	0.921331
H212	H	1.310519	-0.176017	1.254664
H213	H	1.643853	0.157317	1.587998
N214	N	1.167918	-0.803979	0.250517
N215	N	1.501252	-0.470646	0.583851
N216	N	1.834585	-0.137312	0.917184
H217	H	1.167181	-0.748031	0.250567
H218	H	1.500515	-0.414697	0.583901
H219	H	1.833848	-0.081364	0.917234
H220	H	1.154871	-0.822811	0.199948
H221	H	1.488204	-0.489478	0.533281
H222	H	1.821538	-0.156144	0.866615
N223	N	0.959329	-0.910571	0.458850
N224	N	1.292663	-0.577238	0.792183
N225	N	1.625996	-0.243905	1.125517
H226	H	0.921089	-0.941423	0.432779
H227	H	1.254423	-0.608090	0.766112
H228	H	1.587756	-0.274756	1.099446
H229	H	0.934762	-0.867328	0.484036
H230	H	1.268096	-0.533994	0.817369
H231	H	1.601429	-0.200661	1.150702
N232	N	0.965741	-0.456342	0.775016
N233	N	1.299075	-0.123008	1.108349
N234	N	1.632408	0.210325	1.441683
H235	H	0.935916	-0.486418	0.811007
H236	H	1.269249	-0.153085	1.144340
H237	H	1.602583	0.180248	1.477673
H238	H	0.995668	-0.490721	0.743115
H239	H	1.329002	-0.157388	1.076449
H240	H	1.662335	0.175946	1.409782
H241	H	0.633625	-0.271469	0.269335
H242	H	0.966958	0.061865	0.602669
H243	H	1.300291	0.395198	0.936002
H244	H	0.494222	-0.444038	0.439827
H245	H	0.827556	-0.110705	0.773160
H246	H	1.160889	0.222629	1.106493
H247	H	1.096688	-0.810972	0.478620
H248	H	1.430022	-0.477639	0.811953
H249	H	1.763355	-0.144305	1.145287
