data_functionalizedCrystal
_audit_creation_method	'MofGen! by Chris Wilmer'
_symmetry_space_group_name_H-M	'P1'
_symmetry_Int_Tables_number	1
_symmetry_cell_setting	triclinic
loop_
_symmetry_equiv_pos_as_xyz
  x,y,z
_cell_length_a	19.805407
_cell_length_b	25.639233
_cell_length_c	25.639239
_cell_angle_alpha	89.980699
_cell_angle_beta	90.038531
_cell_angle_gamma	89.981028
loop_
_atom_site_label
_atom_site_type_symbol
_atom_site_fract_x
_atom_site_fract_y
_atom_site_fract_z
Zn1	Zn	1.034640	-0.295696	-0.208225
Zn2	Zn	1.034540	-0.208259	-0.295644
Zn3	Zn	0.921465	-0.208265	-0.208223
Zn4	Zn	0.921393	-0.295654	-0.295630
O5	O	0.978010	-0.251968	-0.251930
O6	O	1.129343	-0.284112	-0.219828
O7	O	1.019529	-0.135095	-0.284052
O8	O	0.936550	-0.219882	-0.135058
O9	O	1.129270	-0.219873	-0.284054
O10	O	1.019699	-0.284118	-0.135059
O11	O	0.936453	-0.135099	-0.219824
O12	O	0.826739	-0.219842	-0.219811
O13	O	0.936427	-0.368825	-0.284031
O14	O	0.826686	-0.284046	-0.284029
O15	O	1.019629	-0.368855	-0.219814
O16	O	1.019459	-0.219833	-0.368807
O17	O	0.936330	-0.284041	-0.368797
C18	C	0.802154	-0.251940	-0.251919
C19	C	0.726922	-0.251941	-0.251926
C20	C	0.265121	-0.285381	-0.285431
C21	C	0.335809	-0.285370	-0.285430
C22	C	0.371160	-0.251989	-0.251943
C23	C	0.335818	-0.218613	-0.218458
C24	C	0.265131	-0.218622	-0.218462
C25	C	0.620892	-0.218576	-0.218442
C26	C	0.691584	-0.218571	-0.218440
C27	C	0.691569	-0.285324	-0.285411
C28	C	0.620882	-0.285333	-0.285414
C29	C	0.585547	-0.251955	-0.251932
C30	C	0.508899	-0.251967	-0.251934
C31	C	0.447807	-0.251979	-0.251938
C32	C	0.978031	-0.388341	-0.251921
C33	C	0.978041	-0.446455	-0.251917
C34	C	1.021419	-0.806840	-0.218381
C35	C	1.021427	-0.861445	-0.218366
O36	O	1.058255	-0.889700	-0.189914
N37	N	0.978115	-0.888738	-0.251795
C38	C	0.934787	-0.861425	-0.285236
O39	O	0.897947	-0.889654	-0.313668
C40	C	0.934776	-0.806821	-0.285248
C41	C	0.978096	-0.779530	-0.251821
C42	C	1.064735	-0.779550	-0.184956
C43	C	1.064727	-0.724949	-0.184971
C44	C	1.021404	-0.697639	-0.218411
C45	C	0.978088	-0.724930	-0.251836
C46	C	0.891445	-0.779509	-0.318686
C47	C	0.891437	-0.724901	-0.318694
C48	C	0.934757	-0.697611	-0.285267
C49	C	0.934757	-0.643020	-0.285291
N50	N	0.978069	-0.615726	-0.251863
C51	C	1.021392	-0.643036	-0.218423
C52	C	0.934813	-0.976095	-0.285209
C53	C	0.934827	-1.030698	-0.285201
C54	C	1.021467	-1.030714	-0.218330
C55	C	1.021456	-0.976111	-0.218341
C56	C	0.978125	-0.948802	-0.251780
C57	C	1.021374	-0.528371	-0.218458
C58	C	1.021364	-0.473765	-0.218477
C59	C	0.934722	-0.473754	-0.285346
C60	C	0.934734	-0.528354	-0.285328
C61	C	0.978062	-0.555661	-0.251880
O62	O	0.897947	-0.614730	-0.313728
O63	O	1.058220	-0.614800	-0.189991
C64	C	1.154552	-0.251997	-0.251943
C65	C	1.229784	-0.252009	-0.251948
C66	C	0.977894	-0.251943	-0.387773
C67	C	0.977906	-0.251950	-0.445887
C68	C	0.978027	-0.116126	-0.251902
C69	C	0.978149	-0.058012	-0.251758
C70	C	0.934716	-0.285391	-0.697088
C71	C	0.934691	-0.285385	-0.642483
O72	O	0.897858	-0.313801	-0.614253
N73	N	0.977991	-0.251977	-0.615161
C74	C	1.021324	-0.218577	-0.642446
O75	O	1.058153	-0.190161	-0.614192
C76	C	1.021352	-0.218586	-0.697049
C77	C	0.978045	-0.251992	-0.724368
C78	C	0.891412	-0.318795	-0.724407
C79	C	0.891437	-0.318800	-0.779008
C80	C	0.934765	-0.285402	-0.806289
C81	C	0.978069	-0.251998	-0.778969
C82	C	1.064688	-0.185189	-0.724333
C83	C	1.064713	-0.185201	-0.778940
C84	C	1.021405	-0.218607	-0.806259
C85	C	1.021421	-0.218604	-0.860850
N86	N	0.978121	-0.252012	-0.888173
C87	C	0.934793	-0.285411	-0.860892
C88	C	1.021263	-0.218561	-0.527775
C89	C	1.021232	-0.218549	-0.473173
C90	C	0.934600	-0.285358	-0.473214
C91	C	0.934628	-0.285367	-0.527817
C92	C	0.977963	-0.251969	-0.555097
C93	C	0.934847	-0.285419	-0.975557
C94	C	0.934873	-0.285420	-1.030162
C95	C	1.021508	-0.218613	-1.030116
C96	C	1.021480	-0.218610	-0.975516
C97	C	0.978147	-0.252017	-0.948237
O98	O	1.058237	-0.190204	-0.889116
O99	O	0.897977	-0.313827	-0.889152
C100	C	0.978144	-0.252005	-0.115557
C101	C	0.978201	-0.252021	-0.057443
H102	H	0.364577	-0.312543	-0.312697
O103	O	0.586561	-0.186077	-0.186003
C104	C	0.545643	-0.152266	-0.215742
H105	H	0.566909	-0.148998	-0.256919
H106	H	0.492064	-0.168407	-0.217555
C107	C	0.518476	-0.101954	-0.139581
C108	C	0.544598	-0.097938	-0.190154
H109	H	0.517829	-0.068443	-0.123796
H110	H	0.546041	-0.124735	-0.119545
H111	H	0.473829	-0.115407	-0.141099
H112	H	0.589247	-0.084491	-0.188635
H113	H	0.517040	-0.075154	-0.210190
H114	H	1.056742	-1.052959	-0.191100
O115	O	1.063277	-0.186106	-0.554342
C116	C	1.024813	-0.152300	-0.585981
H117	H	0.973494	-0.170682	-0.594189
H118	H	1.017427	-0.113532	-0.564980
C119	C	1.125129	-0.120331	-0.627745
C120	C	1.062100	-0.142910	-0.637829
H121	H	1.148130	-0.114537	-0.659727
H122	H	1.151043	-0.143105	-0.606428
H123	H	1.118965	-0.088027	-0.610242
H124	H	1.068265	-0.175216	-0.655326
H125	H	1.036188	-0.120141	-0.659151
O126	O	0.892688	-1.057124	-0.317693
C127	C	0.854465	-1.021303	-0.347218
H128	H	0.852141	-0.982383	-0.325810
H129	H	0.879213	-1.015496	-0.386930
C130	C	0.785276	-1.090398	-0.381040
C131	C	0.782417	-1.042597	-0.354744
H132	H	0.740833	-1.103533	-0.385685
H133	H	0.811029	-1.114532	-0.361150
H134	H	0.805901	-1.085552	-0.414130
H135	H	0.761799	-1.047444	-0.321652
H136	H	0.756658	-1.018465	-0.374629
H137	H	1.056643	-0.451548	-0.191257
H138	H	1.056653	-0.550598	-0.191219
O139	O	0.849335	-0.806071	-0.351086
C140	C	0.805641	-0.837645	-0.321312
H141	H	0.829551	-0.845837	-0.281689
H142	H	0.755484	-0.816594	-0.315568
C143	C	0.763999	-0.879444	-0.398736
C144	C	0.793369	-0.889509	-0.350072
H145	H	0.756426	-0.911435	-0.416477
H146	H	0.793435	-0.858171	-0.418796
H147	H	0.722205	-0.861900	-0.393943
H148	H	0.835166	-0.907046	-0.354866
H149	H	0.763939	-0.910786	-0.330013
O150	O	0.230752	-0.317863	-0.317886
C151	C	0.189896	-0.351683	-0.288171
H152	H	0.211234	-0.354985	-0.246996
H153	H	0.136315	-0.335527	-0.286348
C154	C	0.162617	-0.401934	-0.364367
C155	C	0.188828	-0.405993	-0.313796
H156	H	0.161955	-0.435435	-0.380174
H157	H	0.190140	-0.379148	-0.384387
H158	H	0.117969	-0.388469	-0.362841
H159	H	0.233478	-0.419452	-0.315323
H160	H	0.161312	-0.428783	-0.293777
O161	O	1.106859	-0.698413	-0.152564
C162	C	1.150538	-0.666810	-0.182321
H163	H	1.154709	-0.683255	-0.223498
H164	H	1.129591	-0.625427	-0.184132
C165	C	1.215788	-0.645779	-0.106185
C166	C	1.220915	-0.665979	-0.156758
H167	H	1.259199	-0.645264	-0.090416
H168	H	1.186359	-0.667068	-0.086136
H169	H	1.198329	-0.611295	-0.107701
H170	H	1.238365	-0.700465	-0.155241
H171	H	1.250348	-0.644696	-0.176806
H172	H	0.899466	-0.550576	-0.312552
O173	O	1.106719	-0.152735	-0.805499
C174	C	1.068237	-0.118927	-0.837123
H175	H	1.016927	-0.137320	-0.845336
H176	H	1.060834	-0.080170	-0.816106
C177	C	1.168536	-0.086914	-0.878878
C178	C	1.105517	-0.109507	-0.888969
H179	H	1.191533	-0.081101	-0.910858
H180	H	1.194463	-0.109689	-0.857571
H181	H	1.162358	-0.054619	-0.861362
H182	H	1.111696	-0.141804	-0.906478
H183	H	1.079593	-0.086736	-0.910280
O184	O	0.849254	-0.351257	-0.697993
C185	C	0.811058	-0.380747	-0.733825
H186	H	0.808766	-0.359331	-0.772759
H187	H	0.835809	-0.420478	-0.739593
C188	C	0.741812	-0.414523	-0.664764
C189	C	0.738992	-0.388218	-0.712581
H190	H	0.697360	-0.419134	-0.651659
H191	H	0.767547	-0.394657	-0.640622
H192	H	0.762441	-0.447629	-0.669577
H193	H	0.718372	-0.355110	-0.707767
H194	H	0.713253	-0.408079	-0.736722
O195	O	1.106854	-0.806132	-0.152542
C196	C	1.150563	-0.837708	-0.182303
H197	H	1.126654	-0.845887	-0.221921
H198	H	1.200709	-0.816666	-0.188059
C199	C	1.192233	-0.879531	-0.104861
C200	C	1.162865	-0.889580	-0.153519
H201	H	1.199824	-0.911527	-0.087104
H202	H	1.162787	-0.858256	-0.084809
H203	H	1.234018	-0.861994	-0.109664
H204	H	1.121077	-0.907110	-0.148714
H205	H	1.192304	-0.910859	-0.173568
H206	H	0.592103	-0.312517	-0.312682
O207	O	1.063558	-0.186208	-1.056703
C208	C	1.054270	-0.193367	-1.110754
H209	H	1.032085	-0.233705	-1.118209
H210	H	1.018241	-0.162336	-1.126284
C211	C	1.150007	-0.139069	-1.129593
C212	C	1.122765	-0.188615	-1.138750
H213	H	1.192256	-0.136135	-1.146863
H214	H	1.156264	-0.134244	-1.093178
H215	H	1.119977	-0.113215	-1.142534
H216	H	1.152791	-0.214466	-1.125803
H217	H	1.116514	-0.193444	-1.175164
O218	O	0.849331	-0.698455	-0.351234
C219	C	0.811095	-0.734257	-0.380725
H220	H	0.838821	-0.773185	-0.382518
H221	H	0.759705	-0.740052	-0.361578
C222	C	0.767239	-0.665135	-0.434178
C223	C	0.801296	-0.712947	-0.436384
H224	H	0.761191	-0.651990	-0.468510
H225	H	0.792997	-0.641015	-0.414308
H226	H	0.724418	-0.669972	-0.418220
H227	H	0.844119	-0.708109	-0.452335
H228	H	0.775544	-0.737066	-0.456257
O229	O	0.892738	-0.447157	-0.317853
C230	C	0.931243	-0.415585	-0.351636
H231	H	0.982557	-0.407427	-0.333202
H232	H	0.938636	-0.436619	-0.390382
C233	C	0.830974	-0.373721	-0.383742
C234	C	0.893997	-0.363698	-0.361099
H235	H	0.807998	-0.341716	-0.389582
H236	H	0.805032	-0.394993	-0.360983
H237	H	0.837144	-0.391251	-0.416028
H238	H	0.887826	-0.346174	-0.328810
H239	H	0.919937	-0.342422	-0.383852
H240	H	0.899528	-0.953864	-0.312442
O241	O	0.725820	-0.186090	-0.185895
C242	C	0.679476	-0.156640	-0.156335
H243	H	0.629068	-0.154797	-0.177748
H244	H	0.672002	-0.175853	-0.116652
C245	C	0.768951	-0.103267	-0.122424
C246	C	0.707041	-0.101001	-0.148726
H247	H	0.785955	-0.068947	-0.117728
H248	H	0.800175	-0.123110	-0.142337
H249	H	0.762714	-0.119281	-0.089357
H250	H	0.713280	-0.084993	-0.181795
H251	H	0.675819	-0.081154	-0.128818
O252	O	0.892782	-0.317923	-1.056619
C253	C	0.854526	-0.347391	-1.020827
H254	H	0.882232	-0.349217	-0.981882
H255	H	0.803134	-0.328204	-1.015068
C256	C	0.810700	-0.400791	-1.089950
C257	C	0.844733	-0.403037	-1.042119
H258	H	0.804657	-0.435115	-1.103084
H259	H	0.836472	-0.380937	-1.114065
H260	H	0.767878	-0.384800	-1.085144
H261	H	0.887558	-0.419022	-1.046926
H262	H	0.818968	-0.422895	-1.018005
H263	H	1.056738	-0.191402	-0.953271
O264	O	1.106731	-0.152668	-0.697862
C265	C	1.091989	-0.100547	-0.711235
H266	H	1.065978	-0.099449	-0.750898
H267	H	1.057205	-0.082896	-0.680536
C268	C	1.189957	-0.070287	-0.665022
C269	C	1.158015	-0.068938	-0.713738
H270	H	1.230684	-0.050788	-0.666564
H271	H	1.199888	-0.105401	-0.656010
H272	H	1.160964	-0.055578	-0.639444
H273	H	1.187005	-0.083652	-0.739313
H274	H	1.148090	-0.033825	-0.722754
H275	H	0.364607	-0.191432	-0.191194
H276	H	0.899366	-0.312572	-0.550058
O277	O	0.849468	-0.351284	-0.805598
C278	C	0.887991	-0.385099	-0.837122
H279	H	0.939301	-0.366696	-0.845278
H280	H	0.895393	-0.423843	-0.816046
C281	C	0.787742	-0.417161	-0.878993
C282	C	0.850760	-0.394557	-0.889014
H283	H	0.764776	-0.422998	-0.911002
H284	H	0.761788	-0.394381	-0.857754
H285	H	0.793920	-0.449445	-0.861429
H286	H	0.844581	-0.362271	-0.906572
H287	H	0.876713	-0.417332	-0.910257
O288	O	1.063360	-0.186077	-0.446718
C289	C	1.101591	-0.156592	-0.482513
H290	H	1.103929	-0.178017	-0.521423
H291	H	1.076840	-0.116865	-0.488359
C292	C	1.170755	-0.122793	-0.413365
C293	C	1.173632	-0.149109	-0.461153
H294	H	1.215193	-0.118174	-0.400189
H295	H	1.144997	-0.142655	-0.389249
H296	H	1.150127	-0.089690	-0.418243
H297	H	1.194252	-0.182214	-0.456273
H298	H	1.199395	-0.129252	-0.485268
H299	H	0.899320	-0.312554	-0.450992
H300	H	0.720348	-0.312500	-0.312675
H301	H	0.236361	-0.191448	-0.191195
H302	H	0.899562	-0.312623	-0.953353
H303	H	1.056729	-0.953894	-0.191121
