data_functionalizedCrystal
_audit_creation_method	'MofGen! by Chris Wilmer'
_symmetry_space_group_name_H-M	'P1'
_symmetry_Int_Tables_number	1
_symmetry_cell_setting	triclinic
loop_
_symmetry_equiv_pos_as_xyz
  x,y,z
_cell_length_a	18.050590
_cell_length_b	18.050591
_cell_length_c	18.050582
_cell_angle_alpha	89.979078
_cell_angle_beta	89.976663
_cell_angle_gamma	90.014558
loop_
_atom_site_label
_atom_site_type_symbol
_atom_site_fract_x
_atom_site_fract_y
_atom_site_fract_z
Zn1	Zn	-0.295786	1.135342	-0.420027
Zn2	Zn	0.037548	1.468676	-0.086694
Zn3	Zn	0.370881	1.802009	0.246639
Zn4	Zn	-0.419969	1.135274	-0.295836
Zn5	Zn	-0.086636	1.468607	0.037498
Zn6	Zn	0.246698	1.801941	0.370831
Zn7	Zn	-0.295789	1.011162	-0.295839
Zn8	Zn	0.037545	1.344495	0.037495
Zn9	Zn	0.370878	1.677828	0.370828
Zn10	Zn	-0.419930	1.011131	-0.419971
Zn11	Zn	-0.086596	1.344464	-0.086638
Zn12	Zn	0.246737	1.677797	0.246695
O13	O	-0.357868	1.073227	-0.357918
O14	O	-0.024535	1.406561	-0.024585
O15	O	0.308798	1.739894	0.308748
O16	O	-0.312274	1.239258	-0.403576
O17	O	0.021059	1.572591	-0.070242
O18	O	0.354393	1.905925	0.263091
O19	O	-0.403514	1.118795	-0.191912
O20	O	-0.070181	1.452128	0.141422
O21	O	0.263153	1.785461	0.474755
O22	O	-0.191864	1.027676	-0.312337
O23	O	0.141470	1.361009	0.020996
O24	O	0.474803	1.694343	0.354329
O25	O	-0.403511	1.239208	-0.312332
O26	O	-0.070178	1.572541	0.021001
O27	O	0.263156	1.905874	0.354334
O28	O	-0.191862	1.118911	-0.403578
O29	O	0.141472	1.452245	-0.070245
O30	O	0.474805	1.785578	0.263088
O31	O	-0.312279	1.027610	-0.191914
O32	O	0.021054	1.360943	0.141420
O33	O	0.354388	1.694276	0.474753
O34	O	-0.312241	0.907233	-0.312283
O35	O	0.021092	1.240566	0.021051
O36	O	0.354426	1.573900	0.354384
O37	O	-0.403444	1.027623	-0.523903
O38	O	-0.070111	1.360956	-0.190570
O39	O	0.263223	1.694290	0.142763
O40	O	-0.403447	0.907210	-0.403482
O41	O	-0.070114	1.240543	-0.070149
O42	O	0.263220	1.573877	0.263184
O43	O	-0.312236	1.118881	-0.523945
O44	O	0.021097	1.452214	-0.190611
O45	O	0.354431	1.785548	0.142722
O46	O	-0.523888	1.118765	-0.312278
O47	O	-0.190555	1.452098	0.021055
O48	O	0.142778	1.785431	0.354389
O49	O	-0.523860	1.027557	-0.403480
O50	O	-0.190526	1.360890	-0.070146
O51	O	0.142807	1.694224	0.263187
C52	C	-0.357841	0.880275	-0.357877
C53	C	-0.024507	1.213608	-0.024544
C54	C	0.308826	1.546942	0.308789
C55	C	-0.357847	0.797729	-0.357877
C56	C	-0.024513	1.131063	-0.024544
C57	C	0.308820	1.464396	0.308789
C58	C	-0.308191	0.598269	-0.308397
C59	C	0.025142	0.931603	0.024936
C60	C	0.358475	1.264936	0.358270
C61	C	-0.375927	0.548861	-0.290120
C62	C	-0.042594	0.882195	0.043213
C63	C	0.290739	1.215528	0.376547
C64	C	-0.357869	0.646599	-0.357911
C65	C	-0.024536	0.979932	-0.024578
C66	C	0.308797	1.313266	0.308756
C67	C	-0.290157	0.548925	-0.376186
C68	C	0.043176	0.882259	-0.042853
C69	C	0.376510	1.215592	0.290481
C70	C	-0.357885	0.500614	-0.357942
C71	C	-0.024552	0.833947	-0.024609
C72	C	0.308782	1.167280	0.308725
C73	C	-0.425641	0.598278	-0.339598
C74	C	-0.092307	0.931611	-0.006265
C75	C	0.241026	1.264945	0.327068
C76	C	-0.339825	0.598346	-0.425696
C77	C	-0.006491	0.931680	-0.092363
C78	C	0.326842	1.265013	0.240971
C79	C	-0.407607	0.548961	-0.407445
C80	C	-0.074274	0.882294	-0.074111
C81	C	0.259059	1.215627	0.259222
C82	C	-0.357859	0.730697	-0.357891
C83	C	-0.024526	1.064031	-0.024558
C84	C	0.308808	1.397364	0.308776
C85	C	-0.357903	0.416517	-0.357962
C86	C	-0.024569	0.749851	-0.024628
C87	C	0.308764	1.083184	0.308705
C88	C	-0.550820	1.073170	-0.357889
C89	C	-0.217487	1.406503	-0.024555
C90	C	0.115846	1.739837	0.308778
C91	C	-0.633366	1.073214	-0.357901
C92	C	-0.300033	1.406547	-0.024568
C93	C	0.033300	1.739880	0.308766
C94	C	-0.832806	1.122916	-0.308375
C95	C	-0.499472	1.456249	0.024959
C96	C	-0.166139	1.789582	0.358292
C97	C	-0.882145	1.141051	-0.376157
C98	C	-0.548812	1.474384	-0.042823
C99	C	-0.215479	1.807718	0.290510
C100	C	-0.784497	1.073256	-0.357930
C101	C	-0.451163	1.406589	-0.024597
C102	C	-0.117830	1.739922	0.308736
C103	C	-0.882238	1.055196	-0.290179
C104	C	-0.548905	1.388529	0.043154
C105	C	-0.215572	1.721863	0.376488
C106	C	-0.930482	1.073298	-0.357953
C107	C	-0.597148	1.406631	-0.024620
C108	C	-0.263815	1.739965	0.308714
C109	C	-0.832749	1.091426	-0.425748
C110	C	-0.499416	1.424759	-0.092415
C111	C	-0.166082	1.758093	0.240918
C112	C	-0.832838	1.005539	-0.339725
C113	C	-0.499504	1.338873	-0.006391
C114	C	-0.166171	1.672206	0.326942
C115	C	-0.882155	1.023649	-0.407554
C116	C	-0.548822	1.356982	-0.074220
C117	C	-0.215489	1.690316	0.259113
C118	C	-0.700398	1.073233	-0.357916
C119	C	-0.367065	1.406567	-0.024583
C120	C	-0.033732	1.739900	0.308750
C121	C	-1.014578	1.073320	-0.357975
C122	C	-0.681245	1.406653	-0.024641
C123	C	-0.347911	1.739987	0.308692
C124	C	-0.164163	1.073305	-0.357964
C125	C	0.169171	1.406638	-0.024631
C126	C	0.502504	1.739971	0.308702
C127	C	-0.081617	1.073338	-0.357984
C128	C	0.251716	1.406671	-0.024651
C129	C	0.585050	1.740004	0.308683
C130	C	-0.357835	1.073256	-0.551624
C131	C	-0.024502	1.406590	-0.218291
C132	C	0.308831	1.739923	0.115043
C133	C	-0.357821	1.073269	-0.634170
C134	C	-0.024488	1.406602	-0.300836
C135	C	0.308845	1.739935	0.032497
C136	C	-0.357897	1.266933	-0.357960
C137	C	-0.024563	1.600266	-0.024627
C138	C	0.308770	1.933599	0.308707
C139	C	-0.357909	1.349479	-0.357978
C140	C	-0.024575	1.682812	-0.024644
C141	C	0.308758	2.016145	0.308689
C142	C	-0.407353	1.023681	-0.833598
C143	C	-0.074019	1.357014	-0.500265
C144	C	0.259314	1.690347	-0.166931
C145	C	-0.425511	1.091439	-0.882996
C146	C	-0.092177	1.424772	-0.549663
C147	C	0.241156	1.758106	-0.216330
C148	C	-0.357765	1.073305	-0.785300
C149	C	-0.024431	1.406639	-0.451967
C150	C	0.308902	1.739972	-0.118634
C151	C	-0.339586	1.005584	-0.882984
C152	C	-0.006253	1.338918	-0.549651
C153	C	0.327081	1.672251	-0.216317
C154	C	-0.357711	1.073335	-0.931285
C155	C	-0.024378	1.406668	-0.597952
C156	C	0.308955	1.740001	-0.264619
C157	C	-0.375958	1.141099	-0.833611
C158	C	-0.042625	1.474432	-0.500278
C159	C	0.290708	1.807766	-0.166945
C160	C	-0.290002	1.055199	-0.833594
C161	C	0.043331	1.388532	-0.500261
C162	C	0.376665	1.721865	-0.166928
C163	C	-0.308134	1.123004	-0.882970
C164	C	0.025199	1.456337	-0.549637
C165	C	0.358532	1.789671	-0.216304
C166	C	-0.357797	1.073287	-0.701202
C167	C	-0.024464	1.406621	-0.367869
C168	C	0.308869	1.739954	-0.034535
C169	C	-0.357679	1.073360	-1.015382
C170	C	-0.024345	1.406694	-0.682049
C171	C	0.308988	1.740027	-0.348715
C172	C	-0.357848	1.073241	-0.164966
C173	C	-0.024514	1.406574	0.168367
C174	C	0.308819	1.739908	0.501700
C175	C	-0.357652	1.073372	-0.082421
C176	C	-0.024319	1.406706	0.250912
C177	C	0.309014	1.740039	0.584246
H178	H	-0.449673	0.527446	-0.449330
H179	H	-0.116340	0.860779	-0.115997
H180	H	0.216993	1.194113	0.217337
H181	H	-0.482928	0.619866	-0.324091
H182	H	-0.149594	0.953199	0.009242
H183	H	0.183739	1.286533	0.342576
C184	C	-0.911601	1.034533	-0.212761
C185	C	-0.578268	1.367866	0.120573
C186	C	-0.244934	1.701199	0.453906
N187	N	-0.933713	1.018974	-0.154448
N188	N	-0.600380	1.352308	0.178886
N189	N	-0.267047	1.685641	0.512219
C190	C	-0.803544	0.928176	-0.318871
C191	C	-0.470210	1.261510	0.014463
C192	C	-0.136877	1.594843	0.347796
N193	N	-0.781475	0.869907	-0.303154
N194	N	-0.448142	1.203241	0.030179
N195	N	-0.114809	1.536574	0.363512
H196	H	-0.482794	1.106771	-0.904696
H197	H	-0.149460	1.440105	-0.571363
H198	H	0.183873	1.773438	-0.238030
H199	H	-0.391377	1.198399	-0.812015
H200	H	-0.058043	1.531732	-0.478681
H201	H	0.275290	1.865066	-0.145348
C202	C	-0.251500	0.627525	-0.251770
C203	C	0.081833	0.960858	0.081564
C204	C	0.415167	1.294191	0.414897
N205	N	-0.208804	0.649561	-0.209116
N206	N	0.124529	0.982895	0.124217
N207	N	0.457863	1.316228	0.457550
H208	H	-0.903806	1.198335	-0.391570
H209	H	-0.570473	1.531669	-0.058236
H210	H	-0.237139	1.865002	0.275097
C211	C	-0.396559	0.519491	-0.212697
C212	C	-0.063226	0.852825	0.120636
C213	C	0.270108	1.186158	0.453970
N214	N	-0.412093	0.497371	-0.154381
N215	N	-0.078760	0.830704	0.178953
N216	N	0.254574	1.164038	0.512286
H217	H	-0.324530	0.620100	-0.482990
H218	H	0.008804	0.953433	-0.149656
H219	H	0.342137	1.286766	0.183677
C220	C	-0.911244	0.966937	-0.464246
C221	C	-0.577911	1.300271	-0.130912
C222	C	-0.244578	1.633604	0.202421
N223	N	-0.933155	0.924224	-0.506948
N224	N	-0.599821	1.257558	-0.173615
N225	N	-0.266488	1.590891	0.159719
C226	C	-0.464079	0.967051	-0.804294
C227	C	-0.130746	1.300384	-0.470961
C228	C	0.202587	1.633717	-0.137628
N229	N	-0.506808	0.924404	-0.782217
N230	N	-0.173475	1.257737	-0.448883
N231	N	0.159858	1.591070	-0.115550
H232	H	-0.232894	0.527208	-0.391604
H233	H	0.100439	0.860541	-0.058271
H234	H	0.433772	1.193875	0.275062
C235	C	-0.803521	1.179668	-0.251822
C236	C	-0.470188	1.513001	0.081511
C237	C	-0.136855	1.846335	0.414844
N238	N	-0.781461	1.222416	-0.209232
N239	N	-0.448128	1.555749	0.124101
N240	N	-0.114794	1.889083	0.457434
H241	H	-0.266177	1.165031	-0.904511
H242	H	0.067157	1.498364	-0.571178
H243	H	0.400490	1.831698	-0.237845
C244	C	-0.803509	1.112181	-0.503188
C245	C	-0.470176	1.445514	-0.169854
C246	C	-0.136842	1.778848	0.163479
N247	N	-0.781483	1.127817	-0.561513
N248	N	-0.448150	1.461150	-0.228180
N249	N	-0.114817	1.794484	0.105154
H250	H	-0.232736	1.039846	-0.811878
H251	H	0.100598	1.373180	-0.478545
H252	H	0.433931	1.706513	-0.145211
H253	H	-0.324232	0.948301	-0.904672
H254	H	0.009101	1.281634	-0.571339
H255	H	0.342434	1.614968	-0.238005
