data_functionalizedCrystal
_audit_creation_method	'MofGen! by Chris Wilmer'
_symmetry_space_group_name_H-M	'P1'
_symmetry_Int_Tables_number	1
_symmetry_cell_setting	triclinic
loop_
_symmetry_equiv_pos_as_xyz
  x,y,z
_cell_length_a	15.995343
_cell_length_b	15.995350
_cell_length_c	9.730217
_cell_angle_alpha	89.998981
_cell_angle_beta	90.002911
_cell_angle_gamma	83.490779
loop_
_atom_site_label
_atom_site_type_symbol
_atom_site_fract_x
_atom_site_fract_y
_atom_site_fract_z
O1	O	1.110986	0.107894	-0.114145
O2	O	0.867210	0.121228	-0.114177
O3	O	0.995762	-0.007327	-0.114159
O4	O	0.982434	0.236449	-0.114163
O5	O	0.995758	-0.007328	0.114421
O6	O	0.867206	0.121227	0.114403
O7	O	1.110982	0.107893	0.114435
Zn8	Zn	0.989093	0.114560	0.150711
Zn9	Zn	0.989099	0.114561	-0.150453
O10	O	0.982430	0.236448	0.114417
C11	C	0.836013	0.120678	0.000109
C12	C	0.743062	0.119028	0.000096
C13	C	0.572876	0.116035	0.000114
C14	C	0.549530	0.023238	0.000116
C15	C	0.452852	0.021492	0.000643
C16	C	0.405316	0.113086	0.000131
C17	C	0.434405	0.159746	0.130401
C18	C	0.531198	0.160846	0.130502
C19	C	0.531113	0.162206	-0.129445
C20	C	0.434618	0.158780	-0.131149
C21	C	0.310618	0.111425	0.000145
C22	C	0.667574	0.117699	0.000110
C23	C	0.995209	-0.038522	0.000128
C24	C	0.993557	-0.131472	0.000120
C25	C	0.987625	-0.469220	0.000124
C26	C	0.896072	-0.421783	-0.000401
C27	C	0.897725	-0.325093	0.000115
C28	C	0.990567	-0.301659	0.000121
C29	C	1.035722	-0.342739	0.130655
C30	C	1.033422	-0.439374	0.130764
C31	C	1.035318	-0.439731	-0.129174
C32	C	1.035296	-0.342786	-0.130899
C33	C	0.992235	-0.206962	0.000125
C34	C	0.985960	-0.563917	0.000130
C35	C	1.142179	0.108444	0.000146
C36	C	1.235130	0.110093	0.000150
C37	C	0.982983	0.267643	0.000126
C38	C	0.984635	0.360594	0.000125
N39	N	0.989096	0.114558	0.356247
N40	N	0.989103	0.114556	-0.355990
C41	C	1.102975	0.000756	0.356254
C42	C	1.159920	-0.056143	0.428197
C43	C	1.159928	-0.056144	0.572077
C44	C	1.102984	0.000759	0.644017
C45	C	1.046039	0.057658	0.572074
C46	C	1.046038	0.057654	0.428191
C47	C	0.932158	0.171455	0.572067
C48	C	0.932152	0.171461	0.428187
C49	C	0.875213	0.228358	0.644007
C50	C	0.818271	0.285262	0.572063
C51	C	0.818265	0.285261	0.428175
C52	C	0.875207	0.228360	0.356244
H53	H	0.414312	0.127730	0.227717
H54	H	1.005386	-0.460269	-0.228110
F55	F	0.427992	-0.026247	-0.121392
F56	F	1.121276	-0.481530	0.138526
H57	H	1.103931	-0.328615	0.135515
F58	F	0.549399	0.251494	-0.131060
F59	F	1.220532	-0.116706	0.648645
H60	H	1.002282	-0.315536	-0.227464
H61	H	1.004356	-0.314357	0.227789
F62	F	1.102986	0.000747	0.797147
H63	H	0.559385	0.132929	-0.228217
F64	F	0.391549	0.246140	-0.141955
H65	H	0.416062	0.124801	-0.227525
F66	F	1.123791	-0.322705	-0.141203
H67	H	0.771907	0.331585	0.630646
F68	F	0.757651	0.345818	0.351619
F69	F	0.848330	-0.447674	0.120925
F70	F	1.123546	-0.481248	-0.130317
H71	H	0.545771	0.228896	0.136072
F72	F	0.587410	-0.023013	0.122040
H73	H	1.206282	-0.102475	0.369612
H74	H	1.102981	0.000757	0.239100
F75	F	0.875218	0.228354	0.797137
F76	F	0.875209	0.228357	0.203114
F77	F	0.428746	-0.026012	0.123431
F78	F	0.586139	-0.023779	-0.121970
H79	H	0.557982	0.128909	0.228253
H80	H	0.402559	0.227156	0.134879
H81	H	0.861988	-0.297228	0.093837
F82	F	0.851330	-0.287939	-0.122190
F83	F	0.848242	-0.446001	-0.122756
H84	H	1.000492	-0.457675	0.228336
