data_functionalizedCrystal
_audit_creation_method	'MofGen! by Chris Wilmer'
_symmetry_space_group_name_H-M	'P1'
_symmetry_Int_Tables_number	1
_symmetry_cell_setting	triclinic
loop_
_symmetry_equiv_pos_as_xyz
  x,y,z
_cell_length_a	14.519709
_cell_length_b	14.519709
_cell_length_c	15.455322
_cell_angle_alpha	92.669304
_cell_angle_beta	87.319028
_cell_angle_gamma	83.680145
loop_
_atom_site_label
_atom_site_type_symbol
_atom_site_fract_x
_atom_site_fract_y
_atom_site_fract_z
O1	O	1.227897	0.116870	-0.072019
O2	O	1.477897	0.366870	0.177981
O3	O	1.727897	0.616870	0.427981
O4	O	1.977897	0.866870	0.677981
O5	O	0.959422	0.131105	-0.072046
O6	O	1.209422	0.381105	0.177954
O7	O	1.459422	0.631105	0.427954
O8	O	1.709422	0.881105	0.677954
O9	O	1.100778	-0.010251	-0.072024
O10	O	1.350778	0.239749	0.177976
O11	O	1.600778	0.489749	0.427976
O12	O	1.850778	0.739749	0.677976
O13	O	1.086542	0.258225	-0.072041
O14	O	1.336542	0.508225	0.177959
O15	O	1.586542	0.758225	0.427959
O16	O	1.836542	1.008225	0.677959
O17	O	1.092693	-0.002200	0.072237
O18	O	1.342693	0.247800	0.322237
O19	O	1.592693	0.497800	0.572237
O20	O	1.842693	0.747800	0.822237
O21	O	0.951338	0.139156	0.072215
O22	O	1.201338	0.389156	0.322215
O23	O	1.451338	0.639156	0.572215
O24	O	1.701338	0.889156	0.822215
O25	O	1.219813	0.124921	0.072242
O26	O	1.469813	0.374921	0.322242
O27	O	1.719813	0.624921	0.572242
O28	O	1.969813	0.874921	0.822242
Cu29	Cu	1.084837	0.132773	0.085400
Cu30	Cu	1.334837	0.382773	0.335400
Cu31	Cu	1.584837	0.632773	0.585400
Cu32	Cu	1.834837	0.882773	0.835400
Cu33	Cu	1.094398	0.123252	-0.085205
Cu34	Cu	1.344398	0.373252	0.164795
Cu35	Cu	1.594398	0.623252	0.414795
Cu36	Cu	1.844398	0.873252	0.664795
O37	O	1.078457	0.266276	0.072220
O38	O	1.328457	0.516276	0.322220
O39	O	1.578457	0.766276	0.572220
O40	O	1.828457	1.016276	0.822220
C41	C	1.096072	-0.040585	0.000106
C42	C	1.346072	0.209415	0.250106
C43	C	1.596072	0.459415	0.500106
C44	C	1.846072	0.709415	0.750106
C45	C	1.094084	-0.142966	0.000107
C46	C	1.344084	0.107034	0.250107
C47	C	1.594084	0.357034	0.500107
C48	C	1.844084	0.607034	0.750107
C49	C	0.921020	0.134467	0.000081
C50	C	1.171020	0.384467	0.250081
C51	C	1.421020	0.634467	0.500081
C52	C	1.671020	0.884467	0.750081
C53	C	0.818639	0.132478	0.000071
C54	C	1.068639	0.382478	0.250071
C55	C	1.318639	0.632478	0.500071
C56	C	1.568639	0.882478	0.750071
C57	C	0.443741	0.125161	0.000111
C58	C	0.693741	0.375161	0.250111
C59	C	0.943741	0.625161	0.500111
C60	C	1.193741	0.875161	0.750111
C61	C	0.548050	0.127193	0.000100
C62	C	0.798050	0.377193	0.250100
C63	C	1.048050	0.627193	0.500100
C64	C	1.298050	0.877193	0.750100
C65	C	0.631187	0.128819	0.000090
C66	C	0.881187	0.378819	0.250090
C67	C	1.131187	0.628819	0.500090
C68	C	1.381187	0.878819	0.750090
C69	C	0.735502	0.130851	0.000080
C70	C	0.985502	0.380851	0.250080
C71	C	1.235502	0.630851	0.500080
C72	C	1.485502	0.880851	0.750080
C73	C	1.086765	-0.517863	0.000083
C74	C	1.336765	-0.267863	0.250083
C75	C	1.586765	-0.017863	0.500083
C76	C	1.836765	0.232137	0.750083
C77	C	1.088798	-0.413555	0.000090
C78	C	1.338798	-0.163555	0.250090
C79	C	1.588798	0.086445	0.500090
C80	C	1.838798	0.336445	0.750090
C81	C	1.090424	-0.330418	0.000096
C82	C	1.340424	-0.080418	0.250096
C83	C	1.590424	0.169582	0.500096
C84	C	1.840424	0.419582	0.750096
C85	C	1.092457	-0.226103	0.000101
C86	C	1.342457	0.023897	0.250101
C87	C	1.592457	0.273897	0.500101
C88	C	1.842457	0.523897	0.750101
C89	C	1.258215	0.121559	0.000113
C90	C	1.508215	0.371559	0.250113
C91	C	1.758215	0.621559	0.500113
C92	C	2.008215	0.871559	0.750113
C93	C	1.360596	0.123547	0.000117
C94	C	1.610596	0.373547	0.250117
C95	C	1.860596	0.623547	0.500117
C96	C	2.110596	0.873547	0.750117
C97	C	1.083163	0.296610	0.000087
C98	C	1.333163	0.546610	0.250087
C99	C	1.583163	0.796610	0.500087
C100	C	1.833163	1.046610	0.750087
C101	C	1.085152	0.398991	0.000081
C102	C	1.335152	0.648991	0.250081
C103	C	1.585152	0.898991	0.500081
C104	C	1.835152	1.148991	0.750081
N105	N	1.078119	0.139469	0.205395
N106	N	1.328119	0.389469	0.455395
N107	N	1.578119	0.639469	0.705395
N108	N	1.828119	0.889469	0.955395
C109	C	1.138193	0.079439	0.250798
C110	C	1.388193	0.329439	0.500798
C111	C	1.638193	0.579439	0.750798
C112	C	1.888193	0.829439	1.000798
C113	C	1.133121	0.084511	0.341605
C114	C	1.383121	0.334511	0.591605
C115	C	1.633121	0.584511	0.841605
C116	C	1.883121	0.834511	1.091605
C117	C	1.067979	0.149619	0.387007
C118	C	1.317979	0.399619	0.637007
C119	C	1.567979	0.649619	0.887007
C120	C	1.817979	0.899619	1.137007
C121	C	1.007899	0.209652	0.341598
C122	C	1.257899	0.459652	0.591598
C123	C	1.507899	0.709652	0.841598
C124	C	1.757899	0.959652	1.091598
C125	C	1.012968	0.204575	0.250792
C126	C	1.262968	0.454575	0.500792
C127	C	1.512968	0.704575	0.750792
C128	C	1.762968	0.954575	1.000792
C129	C	1.046104	0.171510	0.658585
C130	C	1.296104	0.421510	0.908585
C131	C	1.546104	0.671510	1.158585
C132	C	1.796104	0.921510	1.408585
C133	C	1.041042	0.176585	0.749397
C134	C	1.291042	0.426585	0.999397
C135	C	1.541042	0.676585	1.249397
C136	C	1.791042	0.926585	1.499397
C137	C	1.166263	0.051442	0.749399
C138	C	1.416263	0.301442	0.999399
C139	C	1.666263	0.551442	1.249399
C140	C	1.916263	0.801442	1.499399
C141	C	1.171329	0.046374	0.658592
C142	C	1.421329	0.296374	0.908592
C143	C	1.671329	0.546374	1.158592
C144	C	1.921329	0.796374	1.408592
C145	C	1.111246	0.106404	0.613190
C146	C	1.361246	0.356404	0.863190
C147	C	1.611246	0.606404	1.113190
C148	C	1.861246	0.856404	1.363190
N149	N	1.062795	0.154807	0.479827
N150	N	1.312795	0.404807	0.729827
N151	N	1.562795	0.654807	0.979827
N152	N	1.812795	0.904807	1.229827
N153	N	1.116426	0.101210	0.520372
N154	N	1.366426	0.351210	0.770372
N155	N	1.616426	0.601210	1.020372
N156	N	1.866426	0.851210	1.270372
N157	N	1.101115	0.116554	0.794801
N158	N	1.351115	0.366554	1.044801
N159	N	1.601115	0.616554	1.294801
N160	N	1.851115	0.866554	1.544801
H161	H	1.191241	0.026425	0.213838
H162	H	1.441241	0.276425	0.463838
H163	H	1.691241	0.526425	0.713838
H164	H	1.941241	0.776425	0.963838
F165	F	1.197056	0.020619	0.389927
F166	F	1.447056	0.270619	0.639927
F167	F	1.697056	0.520619	0.889927
F168	F	1.947056	0.770619	1.139927
F169	F	1.230201	-0.012444	0.797724
F170	F	1.480201	0.237556	1.047724
F171	F	1.730201	0.487556	1.297724
F172	F	1.980201	0.737556	1.547724
H173	H	1.224372	-0.006642	0.621627
H174	H	1.474372	0.243358	0.871627
H175	H	1.724372	0.493358	1.121627
H176	H	1.974372	0.743358	1.371627
H177	H	0.987993	0.229607	0.786359
H178	H	1.237993	0.479607	1.036359
H179	H	1.487993	0.729607	1.286359
H180	H	1.737993	0.979607	1.536359
H181	H	0.997183	0.220390	0.621626
H182	H	1.247183	0.470390	0.871626
H183	H	1.497183	0.720390	1.121626
H184	H	1.747183	0.970390	1.371626
F185	F	0.938565	0.278941	0.389918
F186	F	1.188565	0.528941	0.639918
F187	F	1.438565	0.778941	0.889918
F188	F	1.688565	1.028941	1.139918
H189	H	0.964048	0.253457	0.213825
H190	H	1.214048	0.503457	0.463825
H191	H	1.464048	0.753457	0.713825
H192	H	1.714048	1.003457	0.963825
