data_functionalizedCrystal
_audit_creation_method	'MofGen! by Chris Wilmer'
_symmetry_space_group_name_H-M	'P1'
_symmetry_Int_Tables_number	1
_symmetry_cell_setting	triclinic
loop_
_symmetry_equiv_pos_as_xyz
  x,y,z
_cell_length_a	12.759401
_cell_length_b	16.959454
_cell_length_c	12.759393
_cell_angle_alpha	89.969082
_cell_angle_beta	89.982620
_cell_angle_gamma	90.020236
loop_
_atom_site_label
_atom_site_type_symbol
_atom_site_fract_x
_atom_site_fract_y
_atom_site_fract_z
Zn1	Zn	1.606205	-0.314630	-0.593988
Zn2	Zn	1.606086	-0.446832	-0.418310
Zn3	Zn	1.430510	-0.314672	-0.418327
Zn4	Zn	1.430479	-0.446771	-0.593952
O5	O	1.518320	-0.380726	-0.506144
O6	O	1.753210	-0.332175	-0.570692
O7	O	1.582759	-0.429344	-0.271291
O8	O	1.453879	-0.204055	-0.441651
O9	O	1.753123	-0.429303	-0.441622
O10	O	1.582961	-0.204025	-0.570708
O11	O	1.453764	-0.332246	-0.271304
O12	O	1.283485	-0.332187	-0.441616
O13	O	1.453826	-0.429199	-0.740978
O14	O	1.283462	-0.429239	-0.570647
O15	O	1.582931	-0.332116	-0.741004
O16	O	1.582728	-0.557435	-0.441588
O17	O	1.453711	-0.557390	-0.570631
C18	C	1.245352	-0.380712	-0.506130
C19	C	1.128576	-0.380724	-0.506149
C20	C	1.073729	-0.431341	-0.573224
C21	C	0.964005	-0.431351	-0.573235
C22	C	0.963984	-0.330126	-0.439087
C23	C	1.073706	-0.330113	-0.439082
C24	C	1.073741	-0.489784	-0.650670
C25	C	0.964017	-0.489794	-0.650681
C26	C	1.518232	-0.586092	-0.506126
C27	C	1.518290	-0.673949	-0.506154
C28	C	1.451238	-1.045431	-0.573330
C29	C	1.585695	-1.045418	-0.439066
C30	C	1.585658	-0.962872	-0.439056
C31	C	1.518409	-0.921602	-0.506183
C32	C	1.451197	-0.962878	-0.573320
C33	C	1.652861	-0.921590	-0.371913
C34	C	1.652826	-0.839039	-0.371900
C35	C	1.585582	-0.797768	-0.439033
C36	C	1.518368	-0.839048	-0.506173
C37	C	1.451119	-0.797778	-0.573300
C38	C	1.383909	-0.839057	-0.640447
C39	C	1.383952	-0.921606	-0.640453
C40	C	1.585539	-0.715219	-0.439027
C41	C	1.451078	-0.715225	-0.573291
C42	C	1.792353	-0.380741	-0.506159
C43	C	1.909130	-0.380748	-0.506165
C44	C	1.518388	-0.380646	-0.780178
C45	C	1.518417	-0.380611	-0.896954
C46	C	1.518437	-0.174558	-0.506185
C47	C	1.518487	-0.086701	-0.506203
C48	C	1.451278	-0.330043	-0.951829
C49	C	1.451310	-0.330020	-1.061553
C50	C	1.585629	-0.431135	-1.061518
C51	C	1.585591	-0.431161	-0.951796
C52	C	1.373733	-0.271663	-0.951850
C53	C	1.373765	-0.271639	-1.061574
C54	C	1.518312	-0.380749	-0.233177
C55	C	1.518487	-0.380561	-0.116401
H56	H	0.934214	-0.550997	-0.628750
O57	O	1.718215	-0.961556	-0.306611
C58	C	1.851617	-0.952843	-0.173477
C59	C	1.777636	-0.907479	-0.247362
H60	H	1.899693	-0.909141	-0.125570
H61	H	1.803481	-0.991524	-0.118439
H62	H	1.906500	-0.991456	-0.221785
H63	H	1.722738	-0.868823	-0.199138
H64	H	1.825837	-0.868847	-0.302402
H65	H	1.396520	-1.079044	-0.628001
O66	O	0.923329	-0.463841	-0.742960
C67	C	0.815234	-0.494212	-0.892422
C68	C	0.861222	-0.523698	-0.787929
H69	H	0.765028	-0.542597	-0.928821
H70	H	0.764887	-0.439822	-0.877625
H71	H	0.881811	-0.478398	-0.948217
H72	H	0.794711	-0.539556	-0.732083
H73	H	0.911597	-0.578060	-0.802807
H74	H	1.107748	-0.547905	-0.621387
O75	O	1.281466	-0.297761	-1.102004
C76	C	1.108048	-0.346982	-1.065578
C77	C	1.212507	-0.317395	-1.019650
H78	H	1.052275	-0.362880	-0.999018
H79	H	1.071526	-0.298671	-1.115845
H80	H	1.123045	-0.401354	-1.115886
H81	H	1.197600	-0.263038	-0.969295
H82	H	1.248997	-0.365754	-0.969442
H83	H	1.707553	-0.805435	-0.317227
O84	O	1.650942	-1.085627	-0.373921
C85	C	1.710453	-1.212796	-0.314294
C86	C	1.636545	-1.167354	-0.388168
H87	H	1.698822	-1.278880	-0.325771
H88	H	1.795194	-1.196595	-0.332766
H89	H	1.692005	-1.196544	-0.229590
H90	H	1.654898	-1.183582	-0.472896
H91	H	1.551826	-1.183558	-0.369606
H92	H	1.396319	-0.681627	-0.627958
H93	H	1.292342	-0.288056	-0.922072
H94	H	1.402904	-0.213523	-0.917832
H95	H	0.919295	-0.288919	-0.384485
H96	H	1.395590	-0.210412	-1.091370
H97	H	1.640255	-0.681613	-0.384352
H98	H	1.118358	-0.288891	-0.384470
H99	H	1.329233	-0.955223	-0.695119
O100	O	1.109136	-0.470259	-0.747830
C101	C	1.063389	-0.434801	-0.924903
C102	C	1.023162	-0.456885	-0.814918
H103	H	0.993901	-0.423998	-0.979179
H104	H	1.112999	-0.379016	-0.919787
H105	H	1.113061	-0.485101	-0.957183
H106	H	0.973447	-0.406636	-0.782573
H107	H	0.973609	-0.512695	-0.820099
H108	H	1.329150	-0.805446	-0.695097
H109	H	1.640247	-0.472350	-0.907122
O110	O	1.650850	-0.480157	-1.114957
C111	C	1.710392	-0.524965	-1.283974
C112	C	1.636490	-0.469394	-1.223590
H113	H	1.698792	-0.516293	-1.371814
H114	H	1.795133	-0.511093	-1.262481
H115	H	1.691911	-0.588696	-1.262317
H116	H	1.654877	-0.405644	-1.245214
H117	H	1.551771	-0.483334	-1.245087
