data_functionalizedCrystal
_audit_creation_method	'MofGen! by Chris Wilmer'
_symmetry_space_group_name_H-M	'P1'
_symmetry_Int_Tables_number	1
_symmetry_cell_setting	triclinic
loop_
_symmetry_equiv_pos_as_xyz
  x,y,z
_cell_length_a	10.654556
_cell_length_b	16.109304
_cell_length_c	9.130313
_cell_angle_alpha	89.998292
_cell_angle_beta	89.998135
_cell_angle_gamma	83.975087
loop_
_atom_site_label
_atom_site_type_symbol
_atom_site_fract_x
_atom_site_fract_y
_atom_site_fract_z
O1	O	1.666252	0.116799	-0.121734
O2	O	1.300624	0.127919	-0.121748
O3	O	1.493480	0.001388	-0.121741
O4	O	1.473396	0.243330	-0.121741
O5	O	1.493467	0.001384	0.121857
O6	O	1.300611	0.127915	0.121851
O7	O	1.666239	0.116795	0.121865
Cu8	Cu	1.483424	0.122355	0.144100
Cu9	Cu	1.483439	0.122359	-0.143984
O10	O	1.473383	0.243326	0.121858
C11	C	1.253831	0.127099	0.000049
C12	C	1.114421	0.124653	0.000044
C13	C	0.917929	0.121211	-0.132731
C14	C	1.048921	0.123505	-0.132740
C15	C	1.048925	0.123500	0.132845
C16	C	0.917937	0.121201	0.132853
C17	C	1.492660	-0.029594	0.000055
C18	C	1.490218	-0.121903	0.000045
C19	C	1.484586	-0.334272	-0.132736
C20	C	1.482281	-0.421006	-0.132735
C21	C	1.482273	-0.421007	0.132850
C22	C	1.484569	-0.334274	0.132847
C23	C	1.485732	-0.290909	0.000050
C24	C	1.481131	-0.464376	0.000054
C25	C	1.478631	-0.558417	0.000056
C26	C	1.488229	-0.196863	0.000047
C27	C	1.713032	0.117615	0.000064
C28	C	1.852442	0.120061	0.000060
C29	C	1.474203	0.274308	0.000059
C30	C	1.476644	0.366617	0.000059
N31	N	1.483422	0.122351	0.346723
N32	N	1.483451	0.122356	-0.346606
C33	C	1.568847	0.066347	0.423378
C34	C	1.568859	0.066347	0.576715
C35	C	1.398016	0.178363	0.576728
C36	C	1.397999	0.178358	0.423394
H37	H	0.864607	0.120282	-0.240859
Cl38	Cl	1.131269	0.124943	0.299774
Cl39	Cl	1.290638	0.248772	0.673122
H40	H	1.102235	0.124440	-0.240872
Cl41	Cl	0.835604	0.119753	0.299804
H42	H	1.485530	-0.298967	-0.240868
Cl43	Cl	1.290593	0.248765	0.327019
H44	H	1.638402	0.020742	0.360956
H45	H	1.481345	-0.456308	-0.240862
H46	H	1.481329	-0.456326	0.240969
H47	H	1.485495	-0.298967	0.240984
H48	H	1.638419	0.020743	0.639123
