data_functionalizedCrystal
_audit_creation_method	'MofGen! by Chris Wilmer'
_symmetry_space_group_name_H-M	'P1'
_symmetry_Int_Tables_number	1
_symmetry_cell_setting	triclinic
loop_
_symmetry_equiv_pos_as_xyz
  x,y,z
_cell_length_a	14.853566
_cell_length_b	14.519709
_cell_length_c	13.930277
_cell_angle_alpha	89.994503
_cell_angle_beta	89.995631
_cell_angle_gamma	83.657280
loop_
_atom_site_label
_atom_site_type_symbol
_atom_site_fract_x
_atom_site_fract_y
_atom_site_fract_z
O1	O	1.196416	0.120399	-0.079770
O2	O	1.696416	0.620399	0.420230
O3	O	0.933962	0.134743	-0.079786
O4	O	1.433962	0.634743	0.420214
O5	O	1.072147	-0.006670	-0.079768
O6	O	1.572147	0.493330	0.420232
O7	O	1.058230	0.261813	-0.079787
O8	O	1.558230	0.761813	0.420213
O9	O	1.072128	-0.006673	0.079893
O10	O	1.572128	0.493327	0.579893
O11	O	0.933943	0.134740	0.079876
O12	O	1.433943	0.634740	0.579876
O13	O	1.196397	0.120396	0.079892
O14	O	1.696397	0.620396	0.579892
Zn15	Zn	1.065167	0.127568	0.105234
Zn16	Zn	1.565167	0.627568	0.605234
Zn17	Zn	1.065192	0.127572	-0.105127
Zn18	Zn	1.565192	0.627572	0.394873
O19	O	1.058211	0.261810	0.079875
O20	O	1.558211	0.761810	0.579875
C21	C	0.900363	0.134092	0.000043
C22	C	1.400363	0.634092	0.500043
C23	C	0.800279	0.132145	0.000037
C24	C	1.300279	0.632145	0.500037
C25	C	0.377101	0.123911	-0.086977
C26	C	0.877101	0.623911	0.413023
C27	C	0.377101	0.123909	0.087093
C28	C	0.877101	0.623909	0.587093
C29	C	0.471136	0.125737	0.087090
C30	C	0.971136	0.625737	0.587090
C31	C	0.518158	0.126654	0.000052
C32	C	1.018158	0.626654	0.500052
C33	C	0.471144	0.125743	-0.086983
C34	C	0.971144	0.625743	0.413017
C35	C	0.518156	0.126658	0.174123
C36	C	1.018156	0.626658	0.674123
C37	C	0.612196	0.128488	0.174123
C38	C	1.112196	0.628488	0.674123
C39	C	0.659220	0.129398	0.087084
C40	C	1.159220	0.629398	0.587084
C41	C	0.612201	0.128485	0.000046
C42	C	1.112201	0.628485	0.500046
C43	C	0.659222	0.129402	-0.086991
C44	C	1.159222	0.629402	0.413009
C45	C	0.612206	0.128483	-0.174030
C46	C	1.112206	0.628483	0.325970
C47	C	0.518168	0.126653	-0.174021
C48	C	1.018168	0.626653	0.325979
C49	C	0.753257	0.131228	0.087075
C50	C	1.253257	0.631228	0.587075
C51	C	0.753265	0.131234	-0.086997
C52	C	1.253265	0.631234	0.413003
C53	C	1.071489	-0.041031	0.000063
C54	C	1.571489	0.458969	0.500063
C55	C	1.069546	-0.143412	0.000063
C56	C	1.569546	0.356588	0.500063
C57	C	1.062390	-0.518304	0.000038
C58	C	1.562390	-0.018304	0.500038
C59	C	1.064377	-0.413997	0.000045
C60	C	1.564377	0.086003	0.500045
C61	C	1.065968	-0.330861	0.000051
C62	C	1.565968	0.169139	0.500051
C63	C	1.067955	-0.226548	0.000057
C64	C	1.567955	0.273452	0.500057
C65	C	1.229995	0.121047	0.000061
C66	C	1.729995	0.621047	0.500061
C67	C	1.330080	0.122994	0.000061
C68	C	1.830080	0.622994	0.500061
C69	C	1.058869	0.296171	0.000042
C70	C	1.558869	0.796171	0.500042
C71	C	1.060813	0.398551	0.000035
C72	C	1.560813	0.898551	0.500035
N73	N	1.065156	0.127564	0.248800
N74	N	1.565156	0.627564	0.748800
N75	N	1.065210	0.127568	-0.248693
N76	N	1.565210	0.627568	0.251307
C77	C	1.004001	0.190165	0.701062
C78	C	1.504001	0.690165	1.201062
C79	C	1.126408	0.064971	0.701046
C80	C	1.626408	0.564971	1.201046
C81	C	1.126397	0.064968	0.600551
C82	C	1.626397	0.564968	1.100551
C83	C	1.065188	0.127566	0.550306
C84	C	1.565188	0.627566	1.050306
C85	C	1.003990	0.190166	0.600557
C86	C	1.503990	0.690166	1.100557
C87	C	1.187600	0.002376	0.550292
C88	C	1.687600	0.502376	1.050292
C89	C	1.187592	0.002371	0.449790
C90	C	1.687592	0.502371	0.949790
C91	C	1.126379	0.064965	0.399544
C92	C	1.626379	0.564965	0.899544
C93	C	1.065177	0.127567	0.449801
C94	C	1.565177	0.627567	0.949801
C95	C	1.003969	0.190164	0.399556
C96	C	1.503969	0.690164	0.899556
C97	C	0.942762	0.252762	0.449811
C98	C	1.442762	0.752762	0.949811
C99	C	0.942776	0.252760	0.550310
C100	C	1.442776	0.752760	1.050310
C101	C	1.126365	0.064967	0.299045
C102	C	1.626365	0.564967	0.799045
C103	C	1.003958	0.190165	0.299051
C104	C	1.503958	0.690165	0.799051
H105	H	0.479879	0.125904	-0.244884
H106	H	0.979879	0.625904	0.255116
H107	H	0.650469	0.129234	0.244996
H108	H	1.150469	0.629234	0.744996
O109	O	0.326395	0.122907	-0.180849
O110	O	0.826395	0.622907	0.319151
H111	H	0.374895	0.123842	-0.241369
H112	H	0.874895	0.623842	0.258631
O113	O	0.803965	0.132222	0.180943
O114	O	1.303965	0.632222	0.680943
H115	H	0.838868	0.195868	0.185094
H116	H	1.338868	0.695868	0.685094
O117	O	0.937941	0.257684	0.244858
O118	O	1.437941	0.757684	0.744858
H119	H	0.895392	0.301212	0.296690
H120	H	1.395392	0.801212	0.796690
O121	O	0.876772	0.320277	0.604515
O122	O	1.376772	0.820277	1.104515
H123	H	0.888368	0.392190	0.585206
H124	H	1.388368	0.892190	1.085206
H125	H	0.338810	0.123168	0.157955
H126	H	0.838810	0.623168	0.657955
H127	H	0.479863	0.125917	0.244984
H128	H	0.979863	0.625917	0.744984
H129	H	1.237439	-0.048585	0.591205
H130	H	1.737439	0.451415	1.091205
O131	O	1.253593	-0.065151	0.395587
O132	O	1.753593	0.434849	0.895587
H133	H	1.296151	-0.108683	0.447411
H134	H	1.796151	0.391317	0.947411
H135	H	0.954165	0.241129	0.741982
H136	H	1.454165	0.741129	1.241982
O137	O	0.803983	0.132211	-0.180875
O138	O	1.303983	0.632211	0.319125
H139	H	0.838898	0.195848	-0.185049
H140	H	1.338898	0.695848	0.314951
O141	O	1.192368	-0.002542	0.244837
O142	O	1.692368	0.497458	0.744837
H143	H	1.234930	-0.046072	0.296660
H144	H	1.734930	0.453928	0.796660
O145	O	0.876736	0.320260	0.395604
O146	O	1.376736	0.820260	0.895604
H147	H	0.914747	0.365150	0.349795
H148	H	1.414747	0.865150	0.849795
H149	H	0.650502	0.129236	-0.244896
H150	H	1.150502	0.629236	0.255104
O151	O	1.192425	-0.002542	0.755231
O152	O	1.692425	0.497458	1.255231
H153	H	1.182149	0.007972	0.833558
H154	H	1.682149	0.507972	1.333558
