data_functionalizedCrystal
_audit_creation_method	'MofGen! by Chris Wilmer'
_symmetry_space_group_name_H-M	'P1'
_symmetry_Int_Tables_number	1
_symmetry_cell_setting	triclinic
loop_
_symmetry_equiv_pos_as_xyz
  x,y,z
_cell_length_a	12.827892
_cell_length_b	12.827893
_cell_length_c	18.215399
_cell_angle_alpha	89.985494
_cell_angle_beta	89.973753
_cell_angle_gamma	90.015363
loop_
_atom_site_label
_atom_site_type_symbol
_atom_site_fract_x
_atom_site_fract_y
_atom_site_fract_z
Zn1	Zn	-0.416020	1.597622	-0.416091
Zn2	Zn	0.083980	2.097622	0.083909
Zn3	Zn	-0.590786	1.597530	-0.293034
Zn4	Zn	-0.090786	2.097530	0.206966
Zn5	Zn	-0.416060	1.422878	-0.293044
Zn6	Zn	0.083940	1.922878	0.206956
Zn7	Zn	-0.590719	1.422849	-0.416064
Zn8	Zn	-0.090719	1.922849	0.083936
O9	O	-0.503396	1.510220	-0.354558
O10	O	-0.003396	2.010220	0.145442
O11	O	-0.439214	1.743846	-0.399775
O12	O	0.060786	2.243846	0.100225
O13	O	-0.567653	1.574336	-0.190051
O14	O	-0.067653	2.074336	0.309949
O15	O	-0.269818	1.446108	-0.309382
O16	O	0.230182	1.946108	0.190618
O17	O	-0.567614	1.743779	-0.309365
O18	O	-0.067614	2.243779	0.190635
O19	O	-0.269789	1.574493	-0.399784
O20	O	0.230211	2.074493	0.100216
O21	O	-0.439282	1.446019	-0.190058
O22	O	0.060718	1.946019	0.309942
O23	O	-0.439218	1.276638	-0.309355
O24	O	0.060782	1.776638	0.190645
O25	O	-0.567500	1.446060	-0.519052
O26	O	-0.067500	1.946060	-0.019052
O27	O	-0.567539	1.276617	-0.399737
O28	O	-0.067539	1.776617	0.100263
O29	O	-0.439149	1.574465	-0.519072
O30	O	0.060851	2.074465	-0.019072
O31	O	-0.737013	1.574308	-0.309338
O32	O	-0.237013	2.074308	0.190662
O33	O	-0.736964	1.445970	-0.399728
O34	O	-0.236964	1.945970	0.100272
C35	C	-0.503376	1.238710	-0.354545
C36	C	-0.003376	1.738710	0.145455
C37	C	-0.503393	1.122557	-0.354557
C38	C	-0.003393	1.622557	0.145443
C39	C	-0.439987	0.950761	-0.399375
C40	C	0.060013	1.450761	0.100625
C41	C	-0.439969	1.070811	-0.399364
C42	C	0.060031	1.570811	0.100636
C43	C	-0.774906	1.510155	-0.354545
C44	C	-0.274906	2.010155	0.145455
C45	C	-0.891059	1.510222	-0.354564
C46	C	-0.391059	2.010222	0.145436
C47	C	-0.942834	1.573803	-0.309886
C48	C	-0.442834	2.073803	0.190114
C49	C	-1.062884	1.573874	-0.309905
C50	C	-0.562884	2.073874	0.190095
C51	C	-0.230826	1.510314	-0.354587
C52	C	0.269174	2.010314	0.145413
C53	C	-0.114673	1.510354	-0.354600
C54	C	0.385327	2.010354	0.145400
C55	C	-0.503313	1.510269	-0.546511
C56	C	-0.003313	2.010269	-0.046511
C57	C	-0.503277	1.510290	-0.628310
C58	C	-0.003277	2.010290	-0.128310
C59	C	-0.503417	1.782790	-0.354572
C60	C	-0.003417	2.282790	0.145428
C61	C	-0.503426	1.898943	-0.354578
C62	C	-0.003426	2.398943	0.145422
C63	C	-0.436389	1.443532	-0.816509
C64	C	0.063611	1.943532	-0.316509
C65	C	-0.436368	1.443550	-0.893368
C66	C	0.063632	1.943550	-0.393368
C67	C	-0.570040	1.577173	-0.893349
C68	C	-0.070040	2.077173	-0.393349
C69	C	-0.570066	1.577149	-0.816492
C70	C	-0.070066	2.077149	-0.316492
C71	C	-0.503235	1.510330	-0.778074
C72	C	-0.003235	2.010330	-0.278074
C73	C	-0.503188	1.510372	-0.931790
C74	C	-0.003188	2.010372	-0.431790
C75	C	-0.503166	1.510393	-1.015124
C76	C	-0.003166	2.010393	-0.515124
C77	C	-0.503258	1.510308	-0.694735
C78	C	-0.003258	2.010308	-0.194735
C79	C	-0.503404	1.510231	-0.163352
C80	C	-0.003404	2.010231	0.336648
C81	C	-0.503145	1.510412	-0.081553
C82	C	-0.003145	2.010412	0.418447
H83	H	-0.557730	0.943457	-0.316222
H84	H	-0.057730	1.443457	0.183778
H85	H	-1.107409	1.628306	-0.271653
H86	H	-0.607409	2.128306	0.228347
H87	H	-1.070156	1.455913	-0.392850
H88	H	-0.570156	1.955913	0.107150
H89	H	-0.935610	1.455845	-0.392831
H90	H	-0.435610	1.955845	0.107169
H91	H	-0.898286	1.628189	-0.271624
H92	H	-0.398286	2.128189	0.228376
H93	H	-0.381971	1.389124	-0.785231
H94	H	0.118029	1.889124	-0.285231
H95	H	-0.381937	1.389156	-0.924658
H96	H	0.118063	1.889156	-0.424658
N97	N	-0.642124	1.649235	-0.934786
N98	N	-0.142124	2.149235	-0.434786
H99	H	-0.631966	1.639116	-0.989308
H100	H	-0.131966	2.139116	-0.489308
H101	H	-0.625873	1.723871	-0.921357
H102	H	-0.125873	2.223871	-0.421357
N103	N	-0.642172	1.649200	-0.775036
N104	N	-0.142172	2.149200	-0.275036
H105	H	-0.625941	1.723875	-0.788413
H106	H	-0.125941	2.223875	-0.288413
H107	H	-0.632018	1.638954	-0.720531
H108	H	-0.132018	2.138954	-0.220531
N109	N	-0.368057	0.891817	-0.450194
N110	N	0.131943	1.391817	0.049806
H111	H	-0.410633	0.846545	-0.484223
H112	H	0.089367	1.346545	0.015777
H113	H	-0.319637	0.846580	-0.420268
H114	H	0.180363	1.346580	0.079732
N115	N	-0.368027	1.129827	-0.450174
N116	N	0.131973	1.629827	0.049826
H117	H	-0.378215	1.207221	-0.442966
H118	H	0.121785	1.707221	0.057034
H119	H	-0.384382	1.110825	-0.502725
H120	H	0.115618	1.610825	-0.002725
H121	H	-0.557706	1.078002	-0.316201
H122	H	-0.057706	1.578002	0.183799
