data_functionalizedCrystal
_audit_creation_method	'MofGen! by Chris Wilmer'
_symmetry_space_group_name_H-M	'P1'
_symmetry_Int_Tables_number	1
_symmetry_cell_setting	triclinic
loop_
_symmetry_equiv_pos_as_xyz
  x,y,z
_cell_length_a	19.077399
_cell_length_b	18.215404
_cell_length_c	18.215399
_cell_angle_alpha	89.972485
_cell_angle_beta	87.724914
_cell_angle_gamma	87.676682
loop_
_atom_site_label
_atom_site_type_symbol
_atom_site_fract_x
_atom_site_fract_y
_atom_site_fract_z
Zn1	Zn	1.075974	0.247799	0.371016
Zn2	Zn	1.075889	0.370874	0.247954
Zn3	Zn	0.958278	0.252765	0.252897
Zn4	Zn	0.958248	0.375773	0.375910
O5	O	1.017097	0.311803	0.311944
O6	O	1.174452	0.259996	0.350575
O7	O	1.060264	0.355235	0.145626
O8	O	0.973939	0.149120	0.268586
O9	O	1.174390	0.350419	0.260162
O10	O	1.060410	0.145471	0.355367
O11	O	0.973856	0.268461	0.149258
O12	O	0.859784	0.273212	0.273332
O13	O	0.973887	0.358769	0.478244
O14	O	0.859762	0.363585	0.363709
O15	O	1.060381	0.264747	0.474648
O16	O	1.060235	0.474510	0.264907
O17	O	0.973804	0.478109	0.358916
C18	C	0.834236	0.319469	0.319588
C19	C	0.756007	0.322767	0.322876
C20	C	0.719246	0.277192	0.277443
C21	C	0.645742	0.280297	0.280532
C22	C	0.609000	0.328973	0.329058
C23	C	0.645766	0.374552	0.374492
C24	C	0.719269	0.371451	0.371399
C25	C	0.389170	0.343305	0.343342
C26	C	0.315662	0.346402	0.346434
C27	C	0.315643	0.252147	0.252472
C28	C	0.389147	0.249047	0.249386
C29	C	0.425907	0.294629	0.294818
N30	N	0.533867	0.332146	0.332218
N31	N	0.501039	0.291459	0.291654
C32	C	1.017026	0.503012	0.311922
C33	C	1.017060	0.584809	0.311934
C34	C	1.017140	0.311750	0.503895
C35	C	1.017158	0.311728	0.585694
C36	C	1.200672	0.304107	0.304271
C37	C	1.278901	0.300827	0.301001
C38	C	1.062174	0.771100	0.263076
C39	C	1.062206	0.847957	0.263096
C40	C	0.972128	0.851749	0.360914
C41	C	0.972100	0.774893	0.360896
C42	C	1.017121	0.734570	0.311973
C43	C	1.017183	0.888284	0.312011
C44	C	1.017218	0.971616	0.312034
C45	C	1.017087	0.651233	0.311951
C46	C	1.017192	1.119846	0.311995
C47	C	1.017244	1.038045	0.312050
C48	C	1.017095	0.311800	0.120738
C49	C	1.017213	0.311610	0.038935
C50	C	1.062212	0.262726	0.772016
C51	C	1.062220	0.262704	0.848874
C52	C	0.972155	0.360614	0.852607
C53	C	0.972143	0.360632	0.775750
C54	C	1.017176	0.311688	0.735456
C55	C	1.017196	0.311649	0.889172
C56	C	1.017204	0.311626	0.972505
C57	C	1.017166	0.311711	0.652118
H58	H	0.419058	0.209415	0.209866
C59	C	0.962347	0.460001	0.939420
C60	C	0.922662	0.414416	0.896900
H61	H	0.931792	0.493220	0.966760
H62	H	0.989164	0.430838	0.972191
H63	H	0.992992	0.486869	0.908142
H64	H	0.892021	0.387544	0.928179
H65	H	0.895834	0.443582	0.864126
C66	C	0.962309	0.460053	0.689694
C67	C	0.922638	0.414455	0.735556
H68	H	0.931746	0.493275	0.664876
H69	H	0.992957	0.486912	0.718391
H70	H	0.989122	0.430896	0.654702
H71	H	0.895829	0.443613	0.770551
H72	H	0.891978	0.387594	0.706857
H73	H	1.098878	0.222871	0.739211
C74	C	1.096526	0.746060	0.137048
C75	C	1.111665	0.726777	0.209305
H76	H	1.127086	0.718701	0.103853
H77	H	1.049246	0.735494	0.128212
H78	H	1.102993	0.797062	0.130071
H79	H	1.105194	0.675776	0.216283
H80	H	1.158957	0.737338	0.218143
C81	C	1.151250	0.165935	0.837459
C82	C	1.111728	0.208886	0.889060
H83	H	1.181818	0.132712	0.862269
H84	H	1.120595	0.139079	0.808768
H85	H	1.178150	0.196889	0.806351
H86	H	1.084824	0.177933	0.920164
H87	H	1.142387	0.235745	0.917763
H88	H	0.749156	0.237550	0.237933
H89	H	0.285749	0.386039	0.385954
C90	C	0.932169	0.971248	0.404368
C91	C	0.922635	0.896074	0.414681
H92	H	0.901608	0.998610	0.437558
H93	H	0.979449	0.981808	0.413211
H94	H	0.921903	0.984310	0.355341
H95	H	0.932906	0.883012	0.463707
H96	H	0.875344	0.885509	0.405843
H97	H	0.615814	0.243190	0.243531
H98	H	0.935412	0.745148	0.400718
C99	C	0.232947	0.245288	0.156972
C100	C	0.275238	0.202053	0.202525
H101	H	0.208008	0.214361	0.126132
H102	H	0.200548	0.274710	0.186316
H103	H	0.261610	0.276107	0.127567
H104	H	0.246574	0.171238	0.231935
H105	H	0.307641	0.172618	0.173179
C106	C	0.381796	0.436775	0.436534
C107	C	0.429571	0.393403	0.393286
H108	H	0.406741	0.467701	0.467372
H109	H	0.353106	0.466092	0.405627
H110	H	0.353148	0.405946	0.465944
H111	H	0.458215	0.424233	0.363873
H112	H	0.458272	0.364084	0.424197
C113	C	0.533101	0.421152	0.420961
C114	C	0.605381	0.428056	0.427835
H115	H	0.508172	0.454180	0.453898
H116	H	0.521032	0.432370	0.372009
H117	H	0.521081	0.372224	0.432325
H118	H	0.617402	0.476984	0.416465
H119	H	0.617456	0.416843	0.476797
H120	H	0.749199	0.408562	0.408396
H121	H	1.098894	0.877696	0.223280
