data_functionalizedCrystal
_audit_creation_method	'MofGen! by Chris Wilmer'
_symmetry_space_group_name_H-M	'P1'
_symmetry_Int_Tables_number	1
_symmetry_cell_setting	triclinic
loop_
_symmetry_equiv_pos_as_xyz
  x,y,z
_cell_length_a	15.538191
_cell_length_b	16.992694
_cell_length_c	16.053833
_cell_angle_alpha	92.723321
_cell_angle_beta	86.458157
_cell_angle_gamma	111.029842
loop_
_atom_site_label
_atom_site_type_symbol
_atom_site_fract_x
_atom_site_fract_y
_atom_site_fract_z
O1	O	0.191874	-0.982833	0.069317
O2	O	0.691874	-0.482833	0.569317
O3	O	0.189728	-0.755157	0.069342
O4	O	0.689728	-0.255157	0.569342
O5	O	0.057008	-0.913314	0.069329
O6	O	0.557008	-0.413314	0.569329
O7	O	0.324594	-0.824676	0.069330
O8	O	0.824594	-0.324676	0.569330
O9	O	0.064374	-0.917116	-0.069530
O10	O	0.564374	-0.417116	0.430470
O11	O	0.197094	-0.758960	-0.069517
O12	O	0.697094	-0.258960	0.430483
O13	O	0.199241	-0.986635	-0.069542
O14	O	0.699241	-0.486635	0.430458
Zn15	Zn	0.199337	-0.873401	-0.091576
Zn16	Zn	0.699337	-0.373401	0.408424
Zn17	Zn	0.189631	-0.868391	0.091376
Zn18	Zn	0.689631	-0.368391	0.591376
O19	O	0.331960	-0.828479	-0.069528
O20	O	0.831960	-0.328479	0.430472
C21	C	0.026294	-0.924489	-0.000099
C22	C	0.526294	-0.424489	0.499901
C23	C	-0.076201	-0.952112	-0.000094
C24	C	0.423799	-0.452112	0.499906
C25	C	0.190651	-0.728631	-0.000084
C26	C	0.690651	-0.228631	0.499916
C27	C	0.182416	-0.643931	-0.000075
C28	C	0.682416	-0.143931	0.499925
C29	C	0.198317	-1.013161	-0.000114
C30	C	0.698317	-0.513161	0.499886
C31	C	0.206552	-1.097862	-0.000118
C32	C	0.706552	-0.597862	0.499882
C33	C	-0.384652	-0.677678	-0.000082
C34	C	0.115348	-0.177678	0.499918
C35	C	-0.480962	-0.703654	-0.000086
C36	C	0.019038	-0.203654	0.499914
C37	C	-0.492405	-0.849764	-0.000102
C38	C	0.007595	-0.349764	0.499898
C39	C	-0.396094	-0.823800	-0.000093
C40	C	0.103906	-0.323800	0.499907
C41	C	-0.342225	-0.737756	-0.000084
C42	C	0.157775	-0.237756	0.499916
C43	C	-0.353667	-0.883877	-0.000095
C44	C	0.146333	-0.383877	0.499905
C45	C	-0.257364	-0.857915	-0.000091
C46	C	0.242636	-0.357915	0.499909
C47	C	-0.203488	-0.771875	-0.000084
C48	C	0.296512	-0.271875	0.499916
C49	C	-0.245922	-0.711794	-0.000080
C50	C	0.254078	-0.211794	0.499920
C51	C	-0.407537	-0.969921	-0.000110
C52	C	0.092463	-0.469921	0.499890
C53	C	-0.365110	-1.029998	-0.000113
C54	C	0.134890	-0.529998	0.499887
C55	C	-0.268806	-1.004037	-0.000102
C56	C	0.231194	-0.504037	0.499898
C57	C	-0.214931	-0.917997	-0.000096
C58	C	0.285069	-0.417997	0.499904
C59	C	-0.226373	-1.064118	-0.000107
C60	C	0.273627	-0.564118	0.499893
C61	C	-0.130070	-1.038156	-0.000103
C62	C	0.369930	-0.538156	0.499897
C63	C	-0.118628	-0.892035	-0.000091
C64	C	0.381372	-0.392035	0.499909
C65	C	0.362675	-0.817304	-0.000099
C66	C	0.862675	-0.317304	0.499901
C67	C	0.465169	-0.789680	-0.000099
C68	C	0.965169	-0.289680	0.499901
N69	N	0.205961	-0.876826	-0.216436
N70	N	0.705961	-0.376826	0.283564
C71	C	0.261869	-0.571077	-0.000075
C72	C	0.761869	-0.071077	0.499925
C73	C	0.254127	-0.491494	-0.000086
C74	C	0.754127	0.008506	0.499914
C75	C	0.166930	-0.484767	-0.000092
C76	C	0.666930	0.015233	0.499908
C77	C	0.087471	-0.557629	-0.000094
C78	C	0.587471	-0.057629	0.499906
C79	C	0.095214	-0.637210	-0.000089
C80	C	0.595214	-0.137210	0.499911
C81	C	0.134837	-0.250304	-0.000114
C82	C	0.634837	0.249696	0.499886
C83	C	0.127099	-0.170715	-0.000117
C84	C	0.627099	0.329285	0.499883
C85	C	0.293756	-0.104586	-0.000111
C86	C	0.793756	0.395414	0.499889
C87	C	0.301491	-0.184172	-0.000101
C88	C	0.801491	0.315828	0.499899
C89	C	0.222032	-0.257026	-0.000107
C90	C	0.722032	0.242974	0.499893
N91	N	0.159014	-0.403421	-0.000101
N92	N	0.659014	0.096579	0.499899
N93	N	0.229949	-0.338370	-0.000104
N94	N	0.729949	0.161630	0.499896
C95	C	0.240154	-0.894403	-0.740068
C96	C	0.740154	-0.394403	-0.240068
C97	C	0.235514	-0.892013	-0.652662
C98	C	0.735514	-0.392013	-0.152662
C99	C	0.173716	-0.860199	-0.608952
C100	C	0.673716	-0.360199	-0.108952
C101	C	0.116560	-0.830766	-0.652653
C102	C	0.616560	-0.330766	-0.152653
C103	C	0.121206	-0.833151	-0.740058
C104	C	0.621206	-0.333151	-0.240058
C105	C	0.153450	-0.849778	-0.347543
C106	C	0.653450	-0.349778	0.152457
C107	C	0.148807	-0.847398	-0.260131
C108	C	0.648807	-0.347398	0.239869
C109	C	0.267763	-0.908643	-0.260146
C110	C	0.767763	-0.408643	0.239854
C111	C	0.272399	-0.911030	-0.347553
C112	C	0.772399	-0.411030	0.152447
C113	C	0.215247	-0.881593	-0.391246
C114	C	0.715247	-0.381593	0.108754
N115	N	0.168970	-0.857758	-0.519608
N116	N	0.668970	-0.357758	-0.019608
N117	N	0.219998	-0.884029	-0.480588
N118	N	0.719998	-0.384029	0.019412
N119	N	0.183001	-0.864974	0.216237
N120	N	0.683001	-0.364974	0.716237
H121	H	-0.074764	-0.821969	-0.000078
H122	H	0.425236	-0.321969	0.499922
H123	H	0.056089	-0.165245	-0.000121
H124	H	0.556089	0.334755	0.499879
F125	F	-0.100993	-0.744244	-0.000087
F126	F	0.399007	-0.244244	0.499913
F127	F	-0.188585	-0.620215	-0.000062
F128	F	0.311415	-0.120215	0.499938
H129	H	0.066247	-0.804859	-0.617058
H130	H	0.566247	-0.304859	-0.117058
F131	F	0.060378	-0.801827	-0.786562
F132	F	0.560378	-0.301827	-0.286562
F133	F	-0.526112	-0.639704	-0.000089
F134	F	-0.026112	-0.139704	0.499911
H135	H	0.030514	-0.696529	-0.000088
H136	H	0.530514	-0.196529	0.499912
F137	F	-0.283715	-1.155689	-0.000131
F138	F	0.216285	-0.655689	0.499869
F139	F	-0.084913	-1.102098	-0.000117
F140	F	0.415087	-0.602098	0.499883
F141	F	-0.549745	-0.941335	-0.000118
F142	F	-0.049745	-0.441335	0.499882
F143	F	0.296368	-0.923307	-0.606162
F144	F	0.796368	-0.423307	-0.106162
H145	H	0.098484	-0.821487	-0.224545
H146	H	0.598484	-0.321487	0.275455
H147	H	-0.340788	-0.607613	-0.000068
H148	H	0.159212	-0.107613	0.499932
F149	F	0.378316	-0.027046	-0.000106
F150	F	0.878316	0.472954	0.499894
F151	F	0.394298	-0.191324	-0.000090
F152	F	0.894298	0.308676	0.499910
F153	F	0.050268	-0.327832	-0.000121
F154	F	0.550268	0.172168	0.499879
F155	F	-0.005331	-0.550467	-0.000105
F156	F	0.494669	-0.050467	0.499895
H157	H	0.332874	-0.576545	-0.000070
H158	H	0.832874	-0.076545	0.499930
H159	H	0.290473	-0.920313	-0.775650
H160	H	0.790473	-0.420313	-0.275650
H161	H	0.106910	-0.825812	-0.383108
H162	H	0.606910	-0.325812	0.116892
F163	F	0.338692	-0.413960	-0.000083
F164	F	0.838692	0.086040	0.499917
F165	F	-0.510032	-0.997550	-0.000121
F166	F	-0.010032	-0.497550	0.499879
F167	F	0.338175	-0.944888	-0.394066
F168	F	0.838175	-0.444888	0.105934
H169	H	0.314294	-0.932607	-0.224561
H170	H	0.814294	-0.432607	0.275439
F171	F	-0.422451	-1.121570	-0.000129
F172	F	0.077549	-0.621570	0.499871
