data_functionalizedCrystal
_audit_creation_method	'MofGen! by Chris Wilmer'
_symmetry_space_group_name_H-M	'P1'
_symmetry_Int_Tables_number	1
_symmetry_cell_setting	triclinic
loop_
_symmetry_equiv_pos_as_xyz
  x,y,z
_cell_length_a	18.050590
_cell_length_b	14.908520
_cell_length_c	14.908308
_cell_angle_alpha	96.360765
_cell_angle_beta	93.294283
_cell_angle_gamma	93.309000
loop_
_atom_site_label
_atom_site_type_symbol
_atom_site_fract_x
_atom_site_fract_y
_atom_site_fract_z
Zn1	Zn	1.091530	-0.390107	-0.532224
Zn2	Zn	1.091446	-0.532752	-0.389595
Zn3	Zn	0.974945	-0.381384	-0.380919
Zn4	Zn	0.959709	-0.541397	-0.540945
O5	O	1.029407	-0.461410	-0.460921
O6	O	1.195443	-0.409062	-0.513285
O7	O	1.082333	-0.505405	-0.261781
O8	O	0.996822	-0.255878	-0.393709
O9	O	1.195381	-0.513862	-0.408496
O10	O	1.082477	-0.262286	-0.504873
O11	O	0.996740	-0.394195	-0.255407
O12	O	0.869000	-0.402578	-0.402165
O13	O	0.970854	-0.528596	-0.666451
O14	O	0.857806	-0.520139	-0.519736
O15	O	1.067703	-0.417444	-0.660044
O16	O	1.067559	-0.660562	-0.416952
O17	O	0.970772	-0.666914	-0.528149
C18	C	1.017522	-0.696581	-0.474458
C19	C	1.012504	-0.797190	-0.480279
C20	C	0.836456	-0.461351	-0.460956
C21	C	0.753909	-0.461348	-0.460994
C22	C	1.103952	-0.979576	-0.375523
C23	C	1.099240	-1.074107	-0.380990
C24	C	0.998372	-1.080785	-0.496684
C25	C	1.003084	-0.986254	-0.491217
C26	C	1.055875	-0.935653	-0.430634
C27	C	1.060583	-0.841120	-0.425163
C28	C	0.959719	-0.847800	-0.540861
C29	C	0.955007	-0.942331	-0.546328
C30	C	0.548391	-0.525442	-0.524795
C31	C	0.502020	-0.444192	-0.542307
C32	C	0.602778	-0.461396	-0.460953
C33	C	0.502065	-0.542693	-0.443443
C34	C	0.456792	-0.461450	-0.460915
C35	C	0.557495	-0.380104	-0.478505
C36	C	0.557543	-0.478659	-0.379606
C37	C	0.511199	-0.397350	-0.397083
C38	C	0.686877	-0.461366	-0.460977
C39	C	0.372696	-0.461470	-0.460890
C40	C	1.223112	-0.461471	-0.460886
C41	C	1.305657	-0.461496	-0.460871
C42	C	1.017588	-0.474957	-0.697008
C43	C	1.012552	-0.480731	-0.797614
C44	C	1.041358	-0.225322	-0.447350
C45	C	1.046451	-0.124715	-0.441567
C46	C	1.103935	-0.375815	-0.979992
C47	C	1.099205	-0.381236	-1.074521
C48	C	0.998359	-0.496989	-1.081200
C49	C	1.003089	-0.491568	-0.986672
C50	C	1.055879	-0.430980	-0.936071
C51	C	1.060612	-0.425564	-0.841541
C52	C	0.959763	-0.541311	-0.848222
C53	C	0.955034	-0.546733	-0.942751
C54	C	1.041227	-0.447850	-0.225748
C55	C	1.046420	-0.441822	-0.125128
H56	H	1.103567	-0.799921	-0.375830
H57	H	0.912052	-0.596060	-0.983962
O58	O	0.913182	-0.594942	-0.805464
C59	C	0.955241	-0.650298	-0.754160
H60	H	1.013844	-0.617577	-0.738145
H61	H	0.958186	-0.719464	-0.794452
C62	C	0.846064	-0.701726	-0.684991
C63	C	0.918040	-0.661533	-0.665316
H64	H	0.823116	-0.708660	-0.630190
H65	H	0.817727	-0.664434	-0.719558
H66	H	0.848528	-0.759360	-0.718570
H67	H	0.915574	-0.603896	-0.631748
H68	H	0.946375	-0.698815	-0.630741
H69	H	1.146932	-0.938375	-0.326187
O70	O	0.586330	-0.298158	-0.496409
C71	C	0.625507	-0.309155	-0.575618
H72	H	0.603947	-0.374538	-0.618480
H73	H	0.687293	-0.312342	-0.556528
C74	C	0.640447	-0.148234	-0.577388
C75	C	0.613962	-0.228536	-0.630035
H76	H	0.633329	-0.098504	-0.610953
H77	H	0.614055	-0.140825	-0.524021
H78	H	0.691933	-0.150903	-0.561483
H79	H	0.562475	-0.225871	-0.645929
H80	H	0.640345	-0.235943	-0.683406
O81	O	1.145911	-0.327782	-1.117294
C82	C	1.188549	-0.382459	-1.174910
H83	H	1.158182	-0.451862	-1.193022
H84	H	1.244906	-0.390325	-1.139041
C85	C	1.237316	-0.252569	-1.239591
C86	C	1.200015	-0.337807	-1.261842
H87	H	1.244393	-0.225024	-1.293213
H88	H	1.208593	-0.215730	-1.200771
H89	H	1.284276	-0.259135	-1.209698
H90	H	1.153053	-0.331239	-1.291724
H91	H	1.228732	-0.374644	-1.300669
O92	O	0.586496	-0.496244	-0.297617
C93	C	0.557093	-0.581290	-0.278676
H94	H	0.537243	-0.624223	-0.344672
H95	H	0.508273	-0.571624	-0.234101
C96	C	0.642116	-0.576522	-0.147994
C97	C	0.617742	-0.629256	-0.229052
H98	H	0.679525	-0.606109	-0.117380
H99	H	0.661924	-0.519223	-0.160752
H100	H	0.601427	-0.568471	-0.110859
H101	H	0.658429	-0.637297	-0.266190
H102	H	0.597942	-0.686558	-0.216298
O103	O	1.155140	-0.316841	-0.930866
C104	C	1.142336	-0.227948	-0.948794
H105	H	1.081939	-0.224846	-0.974531
H106	H	1.180607	-0.207446	-1.002291
C107	C	1.232418	-0.166540	-0.829731
C108	C	1.158236	-0.162728	-0.861335
H109	H	1.242228	-0.126308	-0.775785
H110	H	1.241046	-0.226429	-0.817655
H111	H	1.264301	-0.149458	-0.874320
H112	H	1.126354	-0.179821	-0.816751
H113	H	1.149602	-0.102841	-0.873402
H114	H	0.955396	-1.122001	-0.546014
O115	O	0.903824	-0.991592	-0.605223
C116	C	0.940411	-1.049555	-0.666898
H117	H	0.997608	-1.061850	-0.635845
H118	H	0.946977	-1.016942	-0.731874
C119	C	0.823993	-1.125218	-0.726582
C120	C	0.894241	-1.140325	-0.688439
H121	H	0.795512	-1.181208	-0.739873
H122	H	0.799342	-1.086165	-0.685033
H123	H	0.829474	-1.098038	-0.780724
H124	H	0.888758	-1.167493	-0.634292
H125	H	0.918889	-1.179385	-0.729979
H126	H	0.494810	-0.343152	-0.343074
O127	O	0.473135	-0.426667	-0.624354
C128	C	0.502496	-0.341601	-0.643293
H129	H	0.557675	-0.323565	-0.602364
H130	H	0.461723	-0.288092	-0.624329
C131	C	0.447335	-0.367473	-0.795158
C132	C	0.515111	-0.345326	-0.744894
H133	H	0.455113	-0.369768	-0.857830
H134	H	0.427551	-0.424783	-0.782398
H135	H	0.413364	-0.322879	-0.779344
H136	H	0.549077	-0.389925	-0.760700
H137	H	0.534900	-0.288023	-0.757659
O138	O	0.568085	-0.589859	-0.589378
C139	C	0.539692	-0.571347	-0.675013
H140	H	0.529509	-0.496381	-0.672517
H141	H	0.485108	-0.613224	-0.694261
C142	C	0.608676	-0.687898	-0.748993
C143	C	0.596175	-0.595822	-0.745929
H144	H	0.643515	-0.702999	-0.792739
H145	H	0.627803	-0.700373	-0.691299
H146	H	0.563185	-0.722784	-0.765030
H147	H	0.641664	-0.560937	-0.729881
H148	H	0.577057	-0.583342	-0.803622
H149	H	1.138390	-1.109866	-0.336115
H150	H	0.920570	-0.812027	-0.585733
H151	H	0.955380	-0.546316	-1.122415
H152	H	1.103598	-0.376231	-0.800344
O153	O	0.473209	-0.624758	-0.425900
C154	C	0.491929	-0.692040	-0.493415
H155	H	0.543538	-0.667241	-0.526404
H156	H	0.443690	-0.706989	-0.546788
C157	C	0.444440	-0.809296	-0.409984
C158	C	0.507830	-0.778842	-0.450496
H159	H	0.454245	-0.862842	-0.383512
H160	H	0.431825	-0.763968	-0.364499
H161	H	0.404246	-0.821747	-0.454469
H162	H	0.548019	-0.766381	-0.406009
H163	H	0.520452	-0.824170	-0.495972
