data_functionalizedCrystal
_audit_creation_method	'MofGen! by Chris Wilmer'
_symmetry_space_group_name_H-M	'P1'
_symmetry_Int_Tables_number	1
_symmetry_cell_setting	triclinic
loop_
_symmetry_equiv_pos_as_xyz
  x,y,z
_cell_length_a	21.295417
_cell_length_b	19.121141
_cell_length_c	19.121175
_cell_angle_alpha	94.788888
_cell_angle_beta	92.410242
_cell_angle_gamma	92.416218
loop_
_atom_site_label
_atom_site_type_symbol
_atom_site_fract_x
_atom_site_fract_y
_atom_site_fract_z
Zn1	Zn	-0.309440	-1.092590	-0.443682
Zn2	Zn	0.190560	-0.592590	0.056318
Zn3	Zn	-0.410016	-1.087480	-0.326007
Zn4	Zn	0.089984	-0.587480	0.173993
Zn5	Zn	-0.300069	-0.969916	-0.321016
Zn6	Zn	0.199931	-0.469916	0.178984
Zn7	Zn	-0.409972	-0.974880	-0.438615
Zn8	Zn	0.090028	-0.474880	0.061385
O9	O	-0.357374	-1.031216	-0.382330
O10	O	0.142626	-0.531216	0.117670
O11	O	-0.326722	-1.190375	-0.432281
O12	O	0.173278	-0.690375	0.067719
O13	O	-0.391527	-1.067669	-0.226882
O14	O	0.108473	-0.567669	0.273118
O15	O	-0.213227	-0.986250	-0.337320
O16	O	0.286773	-0.486250	0.162680
O17	O	-0.400614	-1.186621	-0.345826
O18	O	0.099386	-0.686621	0.154174
O19	O	-0.220111	-1.076378	-0.427442
O20	O	0.279889	-0.576378	0.072558
O21	O	-0.310750	-0.981295	-0.223216
O22	O	0.189250	-0.481295	0.276784
O23	O	-0.310708	-0.872111	-0.332407
O24	O	0.189292	-0.372111	0.167593
O25	O	-0.400540	-0.994710	-0.537750
O26	O	0.099460	-0.494710	-0.037750
O27	O	-0.391454	-0.875758	-0.418807
O28	O	0.108546	-0.375758	0.081193
O29	O	-0.326680	-1.081192	-0.541473
O30	O	0.173320	-0.581192	-0.041473
O31	O	-0.498096	-1.072482	-0.340913
O32	O	0.001904	-0.572482	0.159087
O33	O	-0.498064	-0.989755	-0.423646
O34	O	0.001936	-0.489755	0.076354
C35	C	-0.350060	-0.848404	-0.374516
C36	C	0.149940	-0.348404	0.125484
C37	C	-0.346947	-0.770197	-0.371190
C38	C	0.153053	-0.270197	0.128810
C39	C	-0.387582	-0.735369	-0.414540
C40	C	0.112418	-0.235369	0.085460
C41	C	-0.384648	-0.661885	-0.411418
C42	C	0.115352	-0.161885	0.088582
C43	C	-0.341082	-0.623230	-0.364942
C44	C	0.158918	-0.123230	0.135058
C45	C	-0.300443	-0.658063	-0.321590
C46	C	0.199557	-0.158063	0.178410
C47	C	-0.303374	-0.731546	-0.324716
C48	C	0.196626	-0.231546	0.175284
C49	C	-0.330124	-0.401265	-0.353259
C50	C	0.169876	0.098735	0.146741
C51	C	-0.327198	-0.327777	-0.350135
C52	C	0.172802	0.172223	0.149865
C53	C	-0.411402	-0.331604	-0.439965
C54	C	0.088598	0.168396	0.060035
C55	C	-0.414332	-0.405088	-0.443084
C56	C	0.085668	0.094912	0.056916
C57	C	-0.373690	-0.439914	-0.399734
C58	C	0.126310	0.060086	0.100266
C59	C	-0.338084	-0.548118	-0.361748
C60	C	0.161916	-0.048118	0.138252
C61	C	-0.376686	-0.515026	-0.402932
C62	C	0.123314	-0.015026	0.097068
C63	C	-0.520921	-1.031122	-0.382287
C64	C	-0.020921	-0.531122	0.117713
C65	C	-0.590890	-1.031148	-0.382295
C66	C	-0.090890	-0.531148	0.117705
C67	C	-0.623756	-1.074265	-0.339264
C68	C	-0.123756	-0.574265	0.160736
C69	C	-0.689500	-1.074299	-0.339281
C70	C	-0.189500	-0.574299	0.160719
C71	C	-0.722376	-1.031202	-0.382322
C72	C	-0.222376	-0.531202	0.117678
C73	C	-0.689502	-0.988081	-0.425362
C74	C	-0.189502	-0.488081	0.074638
C75	C	-0.623760	-0.988054	-0.425348
C76	C	-0.123760	-0.488054	0.074652
N77	N	-0.823397	-0.969878	-0.385055
N78	N	-0.323397	-0.469878	0.114945
N79	N	-0.885850	-0.969906	-0.385063
N80	N	-0.385850	-0.469906	0.114937
C81	C	-0.920455	-1.031283	-0.382366
C82	C	-0.420455	-0.531283	0.117634
N83	N	-0.890248	-1.092632	-0.379645
N84	N	-0.390248	-0.592632	0.120355
N85	N	-0.827790	-1.092603	-0.379633
N86	N	-0.327790	-0.592603	0.120367
C87	C	-0.793663	-1.031227	-0.382341
C88	C	-0.293663	-0.531227	0.117659
C89	C	-1.024609	-1.074441	-0.339351
C90	C	-0.524609	-0.574441	0.160649
C91	C	-1.090354	-1.074476	-0.339373
C92	C	-0.590354	-0.574476	0.160627
C93	C	-1.090355	-0.988252	-0.425449
C94	C	-0.590355	-0.488252	0.074551
C95	C	-1.024611	-0.988223	-0.425431
C96	C	-0.524611	-0.488223	0.074569
C97	C	-0.991741	-1.031316	-0.382378
C98	C	-0.491741	-0.531316	0.117622
C99	C	-0.193191	-1.031330	-0.382390
C100	C	0.306809	-0.531330	0.117610
C101	C	-0.123225	-1.031379	-0.382415
C102	C	0.376775	-0.531379	0.117585
C103	C	-0.364651	-1.039075	-0.565856
C104	C	0.135349	-0.539075	-0.065856
C105	C	-0.367751	-1.042423	-0.644064
C106	C	0.132249	-0.542423	-0.144064
C107	C	-0.364714	-0.214742	-0.390167
C108	C	0.135286	0.285258	0.109833
C109	C	-0.367833	-0.292949	-0.393485
C110	C	0.132167	0.207051	0.106515
C111	C	-0.327153	-0.999028	-0.678896
C112	C	0.172847	-0.499028	-0.178896
C113	C	-0.330071	-1.002172	-0.752381
C114	C	0.169929	-0.502172	-0.252381
C115	C	-0.373586	-1.048715	-0.791031
C116	C	0.126414	-0.548715	-0.291031
C117	C	-0.414189	-1.092112	-0.756193
C118	C	0.085811	-0.592112	-0.256193
C119	C	-0.411273	-1.088964	-0.682710
C120	C	0.088727	-0.588964	-0.182710
C121	C	-0.384497	-1.060466	-1.012998
C122	C	0.115503	-0.560466	-0.512998
C123	C	-0.387409	-1.063612	-1.086486
C124	C	0.112591	-0.563612	-0.586486
C125	C	-0.303292	-0.973671	-1.082668
C126	C	0.196708	-0.473671	-0.582668
C127	C	-0.300377	-0.970530	-1.009184
C128	C	0.199623	-0.470530	-0.509184
C129	C	-0.340982	-1.013924	-0.974353
C130	C	0.159018	-0.513924	-0.474353
C131	C	-0.376569	-1.051931	-0.866144
C132	C	0.123431	-0.551931	-0.366144
C133	C	-0.338002	-1.010704	-0.899241
C134	C	0.161998	-0.510704	-0.399241
C135	C	-0.350083	-1.023429	-0.199520
C136	C	0.149917	-0.523429	0.300480
C137	C	-0.346810	-1.020217	-0.121319
C138	C	0.153190	-0.520217	0.378681
H139	H	-0.297035	-0.429611	-0.317956
H140	H	0.202965	0.070389	0.182044
H141	H	-0.716265	-1.109413	-0.304240
H142	H	-0.216265	-0.609413	0.195760
H143	H	-0.449809	-0.436556	-0.480928
H144	H	0.050191	0.063444	0.019072
F145	F	-0.291691	-0.961172	-0.858105
F146	F	0.208309	-0.461172	-0.358105
F147	F	-1.125333	-1.120375	-0.293576
F148	F	-0.625333	-0.620375	0.206424
H149	H	-0.417567	-1.095793	-0.984647
H150	H	0.082433	-0.595793	-0.484647
H151	H	-0.412155	-0.546502	-0.440776
H152	H	0.087845	-0.046502	0.059224
F153	F	-0.254073	-0.616922	-0.272130
F154	F	0.245927	-0.116922	0.227870
F155	F	-0.254062	-0.920994	-0.968055
F156	F	0.245938	-0.420994	-0.468055
H157	H	-0.411999	-1.089826	-0.897621
H158	H	0.088001	-0.589826	-0.397621
H159	H	-0.270281	-0.759902	-0.289419
H160	H	0.229719	-0.259902	0.210581
H161	H	-0.597000	-0.952942	-0.460390
H162	H	-0.097000	-0.452942	0.039610
H163	H	-0.716274	-0.952993	-0.460407
H164	H	-0.216274	-0.452993	0.039593
H165	H	-0.302614	-0.516637	-0.323905
H166	H	0.197386	-0.016637	0.176095
H167	H	-0.997845	-1.109532	-0.304297
H168	H	-0.497845	-0.609532	0.195703
F169	F	-0.427898	-0.624822	-0.457558
F170	F	0.072102	-0.124822	0.042442
F171	F	-0.433954	-0.776502	-0.464003
F172	F	0.066046	-0.276502	0.035997
F173	F	-1.125339	-0.942388	-0.471261
F174	F	-0.625339	-0.442388	0.028739
H175	H	-0.297014	-0.966833	-0.780738
H176	H	0.202986	-0.466833	-0.280738
F177	F	-0.454654	-0.294534	-0.486095
F178	F	0.045346	0.205466	0.013905
H179	H	-0.997849	-0.953109	-0.460468
H180	H	-0.497849	-0.453109	0.039532
H181	H	-0.291715	-0.961132	-0.647432
H182	H	0.208285	-0.461132	-0.147432
H183	H	-0.291714	-0.296306	-0.312293
H184	H	0.208286	0.203694	0.187707
H185	H	-0.270234	-0.938341	-1.111036
H186	H	0.229766	-0.438341	-0.611036
F187	F	-0.433721	-1.113156	-1.127620
F188	F	0.066279	-0.613156	-0.627620
H189	H	-0.449623	-1.130004	-0.787668
H190	H	0.050377	-0.630004	-0.287668
H191	H	-0.444328	-1.124306	-0.654351
H192	H	0.055672	-0.624306	-0.154351
F193	F	-0.588778	-1.120138	-0.293451
F194	F	-0.088778	-0.620138	0.206549
