data_functionalizedCrystal
_audit_creation_method	'MofGen! by Chris Wilmer'
_symmetry_space_group_name_H-M	'P1'
_symmetry_Int_Tables_number	1
_symmetry_cell_setting	triclinic
loop_
_symmetry_equiv_pos_as_xyz
  x,y,z
_cell_length_a	19.077068
_cell_length_b	11.169417
_cell_length_c	11.169409
_cell_angle_alpha	89.980487
_cell_angle_beta	92.259065
_cell_angle_gamma	92.328150
loop_
_atom_site_label
_atom_site_type_symbol
_atom_site_fract_x
_atom_site_fract_y
_atom_site_fract_z
Zn1	Zn	-0.280119	1.815630	-0.697655
Zn2	Zn	0.219881	2.315630	-0.197655
Zn3	Zn	-0.397840	1.807395	-0.505008
Zn4	Zn	0.102160	2.307395	-0.005008
Zn5	Zn	-0.280163	1.614913	-0.496993
Zn6	Zn	0.219837	2.114913	0.003007
Zn7	Zn	-0.397783	1.606803	-0.705650
Zn8	Zn	0.102217	2.106803	-0.205650
O9	O	-0.338976	1.711185	-0.601326
O10	O	0.161024	2.211185	-0.101326
O11	O	-0.295741	1.982487	-0.672108
O12	O	0.204259	2.482487	-0.172108
O13	O	-0.382271	1.781810	-0.335998
O14	O	0.117729	2.281810	0.164002
O15	O	-0.181667	1.648379	-0.516911
O16	O	0.318333	2.148379	-0.016911
O17	O	-0.382229	1.976437	-0.530571
O18	O	0.117771	2.476437	-0.030571
O19	O	-0.181635	1.795845	-0.664337
O20	O	0.318365	2.295845	-0.164337
O21	O	-0.295815	1.640394	-0.330109
O22	O	0.204185	2.140394	0.169891
O23	O	-0.295760	1.445888	-0.524664
O24	O	0.204240	1.945888	-0.024664
O25	O	-0.382133	1.634557	-0.872536
O26	O	0.117867	2.134557	-0.372536
O27	O	-0.382175	1.439929	-0.677963
O28	O	0.117825	1.939929	-0.177963
O29	O	-0.295686	1.787981	-0.866662
O30	O	0.204314	2.287981	-0.366662
O31	O	-0.496323	1.773946	-0.538323
O32	O	0.003677	2.273946	-0.038323
O33	O	-0.496281	1.626572	-0.685734
O34	O	0.003719	2.126572	-0.185734
C35	C	-0.338967	1.399361	-0.601312
C36	C	0.161033	1.899361	-0.101312
C37	C	-0.338980	1.265960	-0.601335
C38	C	0.161020	1.765960	-0.101335
C39	C	-0.521839	1.698518	-0.613792
C40	C	-0.021839	2.198518	-0.113792
C41	C	-0.600069	1.693208	-0.619165
C42	C	-0.100069	2.193208	-0.119165
C43	C	-0.636820	1.767503	-0.545004
C44	C	-0.136820	2.267503	-0.045004
C45	C	-0.710325	1.762516	-0.550065
C46	C	-0.210325	2.262516	-0.050065
C47	C	-0.747077	1.683228	-0.629281
C48	C	-0.247077	2.183228	-0.129281
C49	C	-0.710322	1.608930	-0.703451
C50	C	-0.210322	2.108930	-0.203451
C51	C	-0.636818	1.613923	-0.698395
C52	C	-0.136818	2.113923	-0.198395
C53	C	-0.966910	1.660064	-0.652630
C54	C	-0.466910	2.160064	-0.152630
C55	C	-1.040419	1.655073	-0.657677
C56	C	-0.540419	2.155073	-0.157677
C57	C	-1.040417	1.808662	-0.504293
C58	C	-0.540417	2.308662	-0.004293
C59	C	-0.966912	1.813644	-0.499239
C60	C	-0.466912	2.313644	0.000761
C61	C	-0.930162	1.739350	-0.573413
C62	C	-0.430162	2.239350	-0.073413
N63	N	-0.822211	1.678126	-0.634453
N64	N	-0.322211	2.178126	-0.134453
N65	N	-0.855030	1.744459	-0.568246
N66	N	-0.355030	2.244459	-0.068246
C67	C	-0.155399	1.723935	-0.588838
C68	C	0.344601	2.223935	-0.088838
C69	C	-0.077170	1.729368	-0.583516
C70	C	0.422830	2.229368	-0.083516
C71	C	-0.338898	1.711283	-0.914364
C72	C	0.161102	2.211283	-0.414364
C73	C	-0.338865	1.711324	-1.047761
C74	C	0.161135	2.211324	-0.547761
C75	C	-0.338986	2.024227	-0.601342
C76	C	0.161014	2.524227	-0.101342
C77	C	-0.338991	2.157627	-0.601348
C78	C	0.161009	2.657627	-0.101348
C79	C	-0.339003	1.711161	-0.289503
C80	C	0.160997	2.211161	0.210497
C81	C	-0.338838	1.711365	-0.156093
C82	C	0.161162	2.211365	0.343907
H83	H	-0.606900	1.832063	-0.480493
H84	H	-0.106900	2.332063	0.019507
N85	N	-1.080048	1.888805	-0.424304
N86	N	-0.580048	2.388805	0.075696
H87	H	-1.067307	1.871075	-0.337661
H88	H	-0.567307	2.371075	0.162339
H89	H	-1.132177	1.873584	-0.439621
H90	H	-0.632177	2.373584	0.060379
N91	N	-1.080062	1.569550	-0.743121
N92	N	-0.580062	2.069550	-0.243121
H93	H	-1.045629	1.523245	-0.789345
H94	H	-0.545629	2.023245	-0.289345
H95	H	-1.110510	1.616313	-0.800789
H96	H	-0.610510	2.116313	-0.300789
H97	H	-0.936989	1.878207	-0.434735
H98	H	-0.436989	2.378207	0.065265
N99	N	-0.749964	1.842648	-0.470077
N100	N	-0.249964	2.342648	0.029923
H101	H	-0.715527	1.893628	-0.419122
H102	H	-0.215527	2.393628	0.080878
H103	H	-0.780514	1.791744	-0.416600
H104	H	-0.280514	2.291744	0.083400
H105	H	-0.606896	1.553426	-0.758786
H106	H	-0.106896	2.053426	-0.258786
N107	N	-0.927278	1.579927	-0.732617
N108	N	-0.427278	2.079927	-0.232617
H109	H	-0.961717	1.528936	-0.783558
H110	H	-0.461717	2.028936	-0.283558
H111	H	-0.896835	1.526481	-0.681617
H112	H	-0.396835	2.026481	-0.181617
H113	H	-0.740252	1.544376	-0.767955
H114	H	-0.240252	2.044376	-0.267955
