data_functionalizedCrystal
_audit_creation_method	'MofGen! by Chris Wilmer'
_symmetry_space_group_name_H-M	'P1'
_symmetry_Int_Tables_number	1
_symmetry_cell_setting	triclinic
loop_
_symmetry_equiv_pos_as_xyz
  x,y,z
_cell_length_a	10.968094
_cell_length_b	15.538191
_cell_length_c	10.065875
_cell_angle_alpha	95.296196
_cell_angle_beta	93.118877
_cell_angle_gamma	66.440016
loop_
_atom_site_label
_atom_site_type_symbol
_atom_site_fract_x
_atom_site_fract_y
_atom_site_fract_z
O1	O	1.542270	0.161763	0.249210
O2	O	1.191073	0.164418	0.166619
O3	O	1.435036	0.028362	0.223985
O4	O	1.298306	0.297819	0.191843
O5	O	1.388468	0.054415	0.440024
O6	O	1.144504	0.190471	0.382657
O7	O	1.495702	0.187816	0.465248
Zn8	Zn	1.312709	0.193280	0.458253
Zn9	Zn	1.374065	0.158954	0.173613
O10	O	1.251738	0.323872	0.407882
C11	C	1.123939	0.175284	0.264325
C12	C	0.993285	0.168835	0.233599
C13	C	0.775873	0.172781	0.300050
C14	C	0.910904	0.179454	0.331820
C15	C	1.426058	0.006795	0.335364
C16	C	1.468672	-0.096283	0.345372
C17	C	1.045340	-0.398943	0.245846
C18	C	1.085409	-0.495801	0.255272
C19	C	1.310788	-0.510325	0.308274
C20	C	1.270740	-0.413468	0.298846
C21	C	1.138014	-0.357784	0.267633
C22	C	1.363413	-0.372308	0.320633
C23	C	1.323366	-0.275458	0.311213
C24	C	1.190646	-0.219768	0.280005
C25	C	1.097967	-0.260934	0.258213
C26	C	1.496136	-0.427993	0.351855
C27	C	1.588810	-0.386833	0.373642
C28	C	1.548766	-0.289983	0.364213
C29	C	1.416045	-0.234292	0.333005
C30	C	1.641444	-0.248817	0.386005
C31	C	1.601397	-0.151967	0.376585
C32	C	1.375998	-0.137442	0.323585
C33	C	1.562837	0.176950	0.367538
C34	C	1.693492	0.183398	0.398257
C35	C	1.260717	0.345438	0.296500
C36	C	1.218105	0.448516	0.286483
N37	N	1.270845	0.216706	0.652515
N38	N	1.415942	0.135521	-0.020645
C39	C	1.359494	0.167099	0.741139
C40	C	1.327280	0.185136	0.890731
H41	H	0.963854	0.154805	0.125993
Cl42	Cl	0.968887	-0.547540	0.227887
H43	H	0.940338	0.193481	0.439425
Cl44	Cl	1.116837	0.302892	0.706342
Cl45	Cl	0.931111	-0.190925	0.218960
H46	H	1.227525	0.240960	0.925596
H47	H	0.722933	0.197423	0.505855
H48	H	0.746439	0.158745	0.192453
H49	H	1.267922	-0.092102	0.298159
H50	H	1.158040	-0.140906	0.272343
Cl51	Cl	0.878485	-0.328935	0.206593
Cl52	Cl	1.477635	-0.580335	0.347522
Cl53	Cl	1.546479	-0.549748	0.363707
Cl54	Cl	1.755657	-0.456843	0.412890
H55	H	1.749507	-0.294167	0.411432
Cl56	Cl	1.717897	-0.100216	0.403999
H57	H	1.459237	0.111271	0.706269
H58	H	1.515691	0.079689	0.944489
