data_functionalizedCrystal
_audit_creation_method	'MofGen! by Chris Wilmer'
_symmetry_space_group_name_H-M	'P1'
_symmetry_Int_Tables_number	1
_symmetry_cell_setting	triclinic
loop_
_symmetry_equiv_pos_as_xyz
  x,y,z
_cell_length_a	16.120530
_cell_length_b	14.908932
_cell_length_c	14.908308
_cell_angle_alpha	90.209830
_cell_angle_beta	89.451626
_cell_angle_gamma	90.229812
loop_
_atom_site_label
_atom_site_type_symbol
_atom_site_fract_x
_atom_site_fract_y
_atom_site_fract_z
Zn1	Zn	1.220888	-0.457999	0.550637
Zn2	Zn	1.720888	0.042001	1.050637
Zn3	Zn	1.221756	-0.599750	0.391669
Zn4	Zn	1.721756	-0.099750	0.891669
Zn5	Zn	1.090708	-0.441820	0.393592
Zn6	Zn	1.590708	0.058180	0.893592
Zn7	Zn	1.074782	-0.599854	0.534417
Zn8	Zn	1.574782	-0.099854	1.034417
O9	O	1.152034	-0.524856	0.467579
O10	O	1.652034	-0.024856	0.967579
O11	O	1.336993	-0.483531	0.535533
O12	O	1.836993	0.016469	1.035533
O13	O	1.211400	-0.571986	0.266461
O14	O	1.711400	-0.071986	0.766461
O15	O	1.114279	-0.318505	0.422017
O16	O	1.614279	0.181495	0.922017
O17	O	1.337631	-0.587674	0.418740
O18	O	1.837631	-0.087674	0.918740
O19	O	1.209922	-0.330392	0.537397
O20	O	1.709922	0.169608	1.037397
O21	O	1.115120	-0.455955	0.267873
O22	O	1.615120	0.044045	0.767873
O23	O	0.972606	-0.456056	0.406290
O24	O	1.472606	0.043944	0.906290
O25	O	1.087135	-0.587851	0.662032
O26	O	1.587135	-0.087851	1.162032
O27	O	0.960905	-0.572162	0.509753
O28	O	1.460905	-0.072162	1.009753
O29	O	1.194479	-0.483631	0.673949
O30	O	1.694479	0.016369	1.173949
O31	O	1.195957	-0.725225	0.403012
O32	O	1.695957	-0.225225	0.903012
O33	O	1.087976	-0.725301	0.507888
O34	O	1.587976	-0.225301	1.007888
C35	C	1.140354	-0.757796	0.453502
C36	C	1.640354	-0.257796	0.953502
C37	C	1.135432	-0.857454	0.447514
C38	C	1.635432	-0.357454	0.947514
C39	C	0.936680	-0.512365	0.456470
C40	C	1.436680	-0.012365	0.956470
C41	C	0.844549	-0.507045	0.451738
C42	C	1.344549	-0.007045	0.951738
C43	C	1.138934	-0.537557	0.701432
C44	C	1.638934	-0.037557	1.201432
C45	C	1.133351	-0.542970	0.801086
C46	C	1.633351	-0.042970	1.301086
C47	C	0.675864	-0.497310	0.443107
C48	C	1.175864	0.002690	0.943107
C49	C	0.629037	-0.552471	0.492112
C50	C	1.129037	-0.052471	0.992112
C51	C	0.535175	-0.547055	0.487309
C52	C	1.035175	-0.047055	0.987309
C53	C	0.769735	-0.502725	0.447908
C54	C	1.269735	-0.002725	0.947908
C55	C	1.368228	-0.537396	0.478731
C56	C	1.868228	-0.037396	0.978731
C57	C	1.460357	-0.542739	0.483483
C58	C	1.960357	-0.042739	0.983483
C59	C	1.163780	-0.291009	0.481731
C60	C	1.663780	0.208991	0.981731
C61	C	1.168786	-0.191357	0.487762
C62	C	1.668786	0.308643	0.987762
C63	C	1.078580	0.008280	0.378951
C64	C	1.578580	0.508280	0.878951
C65	C	1.083281	0.101912	0.384615
C66	C	1.583281	0.601912	0.884615
C67	C	1.182883	0.089541	0.504756
C68	C	1.682883	0.589541	1.004756
C69	C	1.178183	-0.004091	0.499093
C70	C	1.678183	0.495909	0.999093
C71	C	1.126030	-0.044718	0.436187
C72	C	1.626030	0.455282	0.936187
C73	C	1.121335	-0.138352	0.430520
C74	C	1.621335	0.361648	0.930520
C75	C	1.220932	-0.150721	0.550665
C76	C	1.720932	0.349279	1.050665
C77	C	1.225633	-0.057089	0.556329
C78	C	1.725633	0.442911	1.056329
C79	C	1.165134	-0.512142	0.234642
C80	C	1.665134	-0.012142	0.734642
C81	C	1.170889	-0.506486	0.135012
C82	C	1.670889	-0.006486	0.635012
C83	C	1.234637	-0.444596	1.000758
C84	C	1.734637	0.055404	1.500758
C85	C	1.229395	-0.449678	1.094392
C86	C	1.729395	0.050322	1.594392
C87	C	1.117621	-0.558213	1.081990
C88	C	1.617621	-0.058213	1.581990
C89	C	1.122863	-0.553130	0.988356
C90	C	1.622863	-0.053130	1.488356
C91	C	1.181374	-0.496321	0.947743
C92	C	1.681374	0.003679	1.447743
C93	C	1.186620	-0.491243	0.854107
C94	C	1.686620	0.008757	1.354107
C95	C	1.074843	-0.599772	0.841707
C96	C	1.574843	-0.099772	1.341707
C97	C	1.069600	-0.604855	0.935342
C98	C	1.569600	-0.104855	1.435342
H99	H	0.659440	-0.603763	0.537674
H100	H	1.159440	-0.103763	1.037674
Cl101	Cl	1.308200	-0.373191	0.949699
Cl102	Cl	1.808200	0.126809	1.449699
Cl103	Cl	1.248419	0.140631	0.583851
Cl104	Cl	1.748419	0.640631	1.083851
Cl105	Cl	0.628926	-0.418124	0.372767
Cl106	Cl	1.128926	0.081876	0.872767
H107	H	1.272765	-0.407556	1.137554
H108	H	1.772765	0.092444	1.637554
H109	H	1.031474	-0.641893	0.798532
H110	H	1.531474	-0.141893	1.298532
Cl111	Cl	1.023625	0.168535	0.312660
Cl112	Cl	1.523625	0.668535	0.812660
Cl113	Cl	1.044065	-0.629617	1.133062
Cl114	Cl	1.544065	-0.129617	1.633062
H115	H	1.078871	-0.171429	0.379298
H116	H	1.578871	0.328571	0.879298
H117	H	1.036121	-0.024799	0.327726
H118	H	1.536121	0.475201	0.827726
H119	H	1.268092	-0.024000	0.607547
H120	H	1.768092	0.476000	1.107547
Cl121	Cl	1.280593	-0.217353	0.622617
Cl122	Cl	1.780593	0.282647	1.122617
Cl123	Cl	1.260177	-0.419829	0.803052
Cl124	Cl	1.760177	0.080171	1.303052
H125	H	1.021961	-0.651105	0.968421
H126	H	1.521961	-0.151105	1.468421
