data_functionalizedCrystal
_audit_creation_method	'MofGen! by Chris Wilmer'
_symmetry_space_group_name_H-M	'P1'
_symmetry_Int_Tables_number	1
_symmetry_cell_setting	triclinic
loop_
_symmetry_equiv_pos_as_xyz
  x,y,z
_cell_length_a	25.639242
_cell_length_b	25.639240
_cell_length_c	19.077237
_cell_angle_alpha	92.274109
_cell_angle_beta	87.679396
_cell_angle_gamma	90.026961
loop_
_atom_site_label
_atom_site_type_symbol
_atom_site_fract_x
_atom_site_fract_y
_atom_site_fract_z
Zn1	Zn	0.811127	-0.220105	-0.398122
Zn2	Zn	0.807549	-0.304030	-0.280432
Zn3	Zn	0.720192	-0.216602	-0.280423
Zn4	Zn	0.723657	-0.307502	-0.398072
O5	O	0.765631	-0.262060	-0.339262
O6	O	0.883818	-0.231251	-0.382535
O7	O	0.793014	-0.289513	-0.181941
O8	O	0.732301	-0.143902	-0.296053
O9	O	0.881190	-0.292910	-0.296069
O10	O	0.799111	-0.146476	-0.382526
O11	O	0.728832	-0.225281	-0.181934
O12	O	0.647485	-0.228647	-0.296004
O13	O	0.738207	-0.298828	-0.496569
O14	O	0.650031	-0.295431	-0.382441
O15	O	0.802471	-0.234618	-0.496606
O16	O	0.796374	-0.377655	-0.296021
O17	O	0.734738	-0.380206	-0.382450
C18	C	0.629787	-0.262036	-0.339217
C19	C	0.571673	-0.262039	-0.339214
C20	C	0.319149	-0.227232	-0.294333
C21	C	0.373753	-0.227227	-0.294324
O22	O	0.400857	-0.197600	-0.256125
N23	N	0.402400	-0.262047	-0.339249
C24	C	0.376441	-0.296871	-0.384191
O25	O	0.405821	-0.326487	-0.422403
C26	C	0.321838	-0.296873	-0.384203
C27	C	0.293193	-0.262054	-0.339270
C28	C	0.290504	-0.192416	-0.249404
C29	C	0.235904	-0.192422	-0.249412
C30	C	0.209948	-0.227244	-0.294349
C31	C	0.238593	-0.262060	-0.339278
C32	C	0.295880	-0.331694	-0.429148
C33	C	0.241273	-0.331693	-0.429157
C34	C	0.212628	-0.296874	-0.384224
C35	C	0.158037	-0.296888	-0.384224
N36	N	0.129390	-0.262068	-0.339298
C37	C	0.155345	-0.227246	-0.294361
C38	C	0.491111	-0.296863	-0.384164
C39	C	0.545712	-0.296864	-0.384149
C40	C	0.543021	-0.227219	-0.294282
C41	C	0.488418	-0.227221	-0.294294
C42	C	0.462463	-0.262043	-0.339238
C43	C	0.040681	-0.227261	-0.294381
C44	C	-0.013924	-0.227272	-0.294392
C45	C	-0.011228	-0.296914	-0.384260
C46	C	0.043372	-0.296906	-0.384248
C47	C	0.069325	-0.262075	-0.339306
O48	O	0.130898	-0.326498	-0.422405
O49	O	0.125959	-0.197630	-0.256162
C50	C	0.765558	-0.397902	-0.339246
C51	C	0.765576	-0.456016	-0.339263
C52	C	0.800417	-0.708500	-0.384335
C53	C	0.800401	-0.653896	-0.384330
O54	O	0.829964	-0.626755	-0.422628
N55	N	0.765633	-0.625291	-0.339272
C56	C	0.730882	-0.651293	-0.294211
O57	O	0.701308	-0.621948	-0.255885
C58	C	0.730901	-0.705896	-0.294213
C59	C	0.765668	-0.734498	-0.339279
C60	C	0.835182	-0.737102	-0.429397
C61	C	0.835197	-0.791703	-0.429403
C62	C	0.800447	-0.817702	-0.384347
C63	C	0.765683	-0.789099	-0.339285
C64	C	0.696153	-0.731897	-0.249150
C65	C	0.696175	-0.786504	-0.249155
C66	C	0.730942	-0.815107	-0.294221
C67	C	0.730949	-0.869698	-0.294236
N68	N	0.765717	-0.898303	-0.339294
C69	C	0.800466	-0.872305	-0.384349
C70	C	0.730846	-0.536622	-0.294209
C71	C	0.730824	-0.482020	-0.294209
C72	C	0.800344	-0.484626	-0.384327
C73	C	0.800363	-0.539230	-0.384330
C74	C	0.765614	-0.565227	-0.339267
C75	C	0.800495	-0.986970	-0.384359
C76	C	0.800505	-1.041576	-0.384363
C77	C	0.730988	-1.038964	-0.294243
C78	C	0.730975	-0.984364	-0.294241
C79	C	0.765733	-0.958368	-0.339302
O80	O	0.701403	-0.896874	-0.255955
O81	O	0.830040	-0.901656	-0.422663
C82	C	0.902005	-0.262084	-0.339309
C83	C	0.960120	-0.262094	-0.339329
C84	C	0.771125	-0.267501	-0.522839
C85	C	0.773466	-0.269819	-0.601068
C86	C	0.765719	-0.125688	-0.339294
C87	C	0.765756	-0.067574	-0.339308
C88	C	0.790260	-0.286488	-1.041416
C89	C	0.788053	-0.284306	-0.967911
C90	C	0.753537	-0.249770	-0.931163
C91	C	0.721222	-0.217417	-0.967924
C92	C	0.723427	-0.219602	-1.041427
C93	C	0.743356	-0.239652	-0.711332
C94	C	0.741155	-0.237468	-0.637823
C95	C	0.807985	-0.304358	-0.637816
C96	C	0.810190	-0.306537	-0.711321
C97	C	0.777873	-0.274187	-0.748075
N98	N	0.751281	-0.247538	-0.856030
N99	N	0.780127	-0.276422	-0.823207
C100	C	0.760189	-0.256602	-0.156400
C101	C	0.757949	-0.254136	-0.078171
H102	H	0.569030	-0.325222	-0.420730
F103	F	0.693813	-0.451585	-0.246254
H104	H	-0.037244	-0.198917	-0.257799
F105	F	0.463492	-0.333931	-0.431998
H106	H	0.311632	-0.164056	-0.212811
F107	F	0.205425	-0.155358	-0.201593
H108	H	0.693116	-0.189300	-0.937997
F109	F	0.837509	-1.072014	-0.432333
H110	H	0.319193	-0.360047	-0.465738
H111	H	0.818370	-0.314608	-1.071331
F112	F	0.689039	-0.185168	-1.080544
F113	F	0.842376	-0.338785	-0.598695
F114	F	0.704417	-0.200708	-0.598715
F115	F	0.659191	-0.814169	-0.201190
F116	F	0.822444	-0.318738	-0.928797
H117	H	0.702660	-0.961075	-0.257552
F118	F	0.570655	-0.190158	-0.246456
H119	H	0.863481	-0.715939	-0.466086
H120	H	0.717041	-0.213311	-0.741248
H121	H	0.061805	-0.198896	-0.257789
H122	H	0.702695	-1.060142	-0.257562
H123	H	0.465099	-0.198867	-0.257708
F124	F	0.846923	-0.343299	-0.750426
F125	F	0.872200	-0.822137	-0.477370
H126	H	0.828640	-0.463449	-0.421013
H127	H	0.066696	-0.325262	-0.420831
F128	F	0.213653	-0.368755	-0.476996
F129	F	0.837488	-0.959312	-0.432318
H130	H	0.702545	-0.557786	-0.257515
F131	F	0.659146	-0.701468	-0.201187
F132	F	-0.038862	-0.333978	-0.432075
H133	H	0.828671	-0.562514	-0.421030
