data_functionalizedCrystal
_audit_creation_method	'MofGen! by Chris Wilmer'
_symmetry_space_group_name_H-M	'P1'
_symmetry_Int_Tables_number	1
_symmetry_cell_setting	triclinic
loop_
_symmetry_equiv_pos_as_xyz
  x,y,z
_cell_length_a	25.639243
_cell_length_b	25.639240
_cell_length_c	12.759393
_cell_angle_alpha	89.967915
_cell_angle_beta	89.975794
_cell_angle_gamma	90.034783
loop_
_atom_site_label
_atom_site_type_symbol
_atom_site_fract_x
_atom_site_fract_y
_atom_site_fract_z
Zn1	Zn	0.799292	-0.208082	-0.594139
Zn2	Zn	1.299292	0.291918	-0.094139
Zn3	Zn	0.799213	-0.295528	-0.418458
Zn4	Zn	1.299213	0.204472	0.081542
Zn5	Zn	0.711855	-0.208113	-0.418461
Zn6	Zn	1.211855	0.291887	0.081539
Zn7	Zn	0.711823	-0.295492	-0.594082
Zn8	Zn	1.211823	0.204508	-0.094082
O9	O	0.755546	-0.251804	-0.506285
O10	O	1.255546	0.248196	-0.006285
O11	O	0.872446	-0.219684	-0.570857
O12	O	1.372446	0.280316	-0.070857
O13	O	0.787605	-0.283961	-0.271437
O14	O	1.287605	0.216039	0.228563
O15	O	0.723501	-0.134944	-0.441790
O16	O	1.223501	0.365056	0.058210
O17	O	0.872388	-0.283931	-0.441785
O18	O	1.372388	0.216069	0.058215
O19	O	0.787740	-0.134921	-0.570860
O20	O	1.287740	0.365079	-0.070860
O21	O	0.723424	-0.219737	-0.271439
O22	O	1.223424	0.280263	0.228561
O23	O	0.638686	-0.219702	-0.441735
O24	O	1.138686	0.280298	0.058265
O25	O	0.723446	-0.283868	-0.741110
O26	O	1.223446	0.216132	-0.241110
O27	O	0.638662	-0.283899	-0.570762
O28	O	1.138662	0.216101	-0.070762
O29	O	0.787708	-0.219648	-0.741153
O30	O	1.287708	0.280352	-0.241153
O31	O	0.787574	-0.368689	-0.441729
O32	O	1.287574	0.131311	0.058271
O33	O	0.723369	-0.368662	-0.570759
O34	O	1.223369	0.131338	-0.070759
C35	C	0.619703	-0.251800	-0.506243
C36	C	1.119703	0.248200	-0.006243
C37	C	0.561589	-0.251811	-0.506250
C38	C	1.061589	0.248189	-0.006250
C39	C	0.755474	-0.387646	-0.506261
C40	C	1.255474	0.112354	-0.006261
C41	C	0.755491	-0.445760	-0.506285
C42	C	1.255491	0.054240	-0.006285
C43	C	0.201251	-0.218403	-0.573605
C44	C	0.701251	0.281597	-0.073605
C45	C	0.146646	-0.218403	-0.573611
C46	C	0.646646	0.281597	-0.073611
O47	O	0.118431	-0.189988	-0.630827
O48	O	0.618431	0.310012	-0.130827
N49	N	0.119307	-0.251802	-0.506314
N50	N	0.619307	0.248198	-0.006314
C51	C	0.146574	-0.285201	-0.438998
C52	C	0.646574	0.214799	0.061002
O53	O	0.118306	-0.313609	-0.381756
O54	O	0.618306	0.186391	0.118244
C55	C	0.201177	-0.285198	-0.438987
C56	C	0.701177	0.214802	0.061013
C57	C	0.228514	-0.251800	-0.506296
C58	C	0.728514	0.248200	-0.006296
C59	C	0.228588	-0.185007	-0.640908
C60	C	0.728588	0.314993	-0.140908
C61	C	0.283188	-0.185008	-0.640903
C62	C	0.783188	0.314992	-0.140903
C63	C	0.310452	-0.218406	-0.573594
C64	C	0.810452	0.281594	-0.073594
C65	C	0.283115	-0.251801	-0.506291
C66	C	0.783115	0.248199	-0.006291
C67	C	0.228444	-0.318594	-0.371666
C68	C	0.728444	0.181406	0.128334
C69	C	0.283051	-0.318588	-0.371660
C70	C	0.783051	0.181412	0.128340
C71	C	0.310388	-0.285190	-0.438970
C72	C	0.810388	0.214810	0.061030
C73	C	0.364979	-0.285200	-0.438977
C74	C	0.864979	0.214800	0.061023
N75	N	0.392319	-0.251800	-0.506274
N76	N	0.892319	0.248200	-0.006274
C77	C	0.365055	-0.218403	-0.573583
C78	C	0.865055	0.281597	-0.073583
C79	C	0.031904	-0.285203	-0.439025
C80	C	0.531904	0.214797	0.060975
C81	C	-0.022699	-0.285209	-0.439040
C82	C	0.477301	0.214791	0.060960
C83	C	-0.022623	-0.218410	-0.573653
C84	C	0.477377	0.281590	-0.073653
C85	C	0.031981	-0.218407	-0.573642
C86	C	0.531981	0.281593	-0.073642
C87	C	0.059243	-0.251803	-0.506322
C88	C	0.559243	0.248197	-0.006322
C89	C	0.479720	-0.218408	-0.573567
C90	C	0.979720	0.281592	-0.073567
C91	C	0.534326	-0.218414	-0.573559
C92	C	1.034326	0.281586	-0.073559
C93	C	0.534245	-0.285211	-0.438943
C94	C	1.034245	0.214789	0.061057
C95	C	0.479644	-0.285208	-0.438955
C96	C	0.979644	0.214792	0.061045
C97	C	0.452383	-0.251802	-0.506270
C98	C	0.952383	0.248198	-0.006270
O99	O	0.393230	-0.313598	-0.381788
O100	O	0.893230	0.186402	0.118212
O101	O	0.393330	-0.189994	-0.630806
O102	O	0.893330	0.310006	-0.130806
C103	C	0.788992	-0.696891	-0.573560
C104	C	1.288992	-0.196891	-0.073560
C105	C	0.788976	-0.642286	-0.573552
C106	C	1.288976	-0.142286	-0.073552
O107	O	0.817401	-0.613996	-0.630717
O108	O	1.317401	-0.113996	-0.130717
N109	N	0.755548	-0.615034	-0.506299
N110	N	1.255548	-0.115034	-0.006299
C111	C	0.722136	-0.642389	-0.439041
C112	C	1.222136	-0.142389	0.060959
O113	O	0.693702	-0.614195	-0.381835
O114	O	1.193702	-0.114195	0.118165
C115	C	0.722155	-0.696993	-0.439044
C116	C	1.222155	-0.196993	0.060956
C117	C	0.755582	-0.724242	-0.506310
C118	C	1.255582	-0.224242	-0.006310
C119	C	0.822417	-0.724140	-0.640820
C120	C	1.322417	-0.224140	-0.140820
C121	C	0.822432	-0.778740	-0.640829
C122	C	1.322432	-0.278740	-0.140829
C123	C	0.789022	-0.806092	-0.573578
C124	C	1.289022	-0.306092	-0.073578
C125	C	0.755597	-0.778842	-0.506319
C126	C	1.255597	-0.278842	-0.006319
C127	C	0.688747	-0.724347	-0.371782
C128	C	1.188747	-0.224347	0.128218
C129	C	0.688769	-0.778954	-0.371791
C130	C	1.188769	-0.278954	0.128209
C131	C	0.722196	-0.806203	-0.439056
C132	C	1.222196	-0.306203	0.060944
C133	C	0.722202	-0.860794	-0.439078
C134	C	1.222202	-0.360794	0.060922
N135	N	0.755631	-0.888046	-0.506332
N136	N	1.255631	-0.388046	-0.006332
C137	C	0.789041	-0.860695	-0.573582
C138	C	1.289041	-0.360695	-0.073582
C139	C	0.722100	-0.527719	-0.439038
C140	C	1.222100	-0.027719	0.060962
C141	C	0.722078	-0.473116	-0.439039
C142	C	1.222078	0.026884	0.060961
C143	C	0.788919	-0.473017	-0.573549
C144	C	1.288919	0.026983	-0.073549
C145	C	0.788938	-0.527620	-0.573552
C146	C	1.288938	-0.027620	-0.073552
C147	C	0.755529	-0.554971	-0.506291
C148	C	1.255529	-0.054971	-0.006291
C149	C	0.789069	-0.975360	-0.573597
C150	C	1.289069	-0.475360	-0.073597
C151	C	0.789079	-1.029965	-0.573603
C152	C	1.289079	-0.529965	-0.073603
C153	C	0.722241	-1.030060	-0.439089
C154	C	1.222241	-0.530060	0.060911
C155	C	0.722228	-0.975459	-0.439086
C156	C	1.222228	-0.475459	0.060914
C157	C	0.755647	-0.948111	-0.506343
C158	C	1.255647	-0.448111	-0.006343
O159	O	0.693794	-0.889119	-0.381940
O160	O	1.193794	-0.389119	0.118060
O161	O	0.817475	-0.888895	-0.630769
O162	O	1.317475	-0.388895	-0.130769
C163	C	0.891919	-0.251808	-0.506327
C164	C	1.391919	0.248192	-0.006327
C165	C	0.950033	-0.251809	-0.506345
C166	C	1.450033	0.248191	-0.006345
C167	C	0.755582	-0.251751	-0.780318
C168	C	1.255582	0.248249	-0.280318
C169	C	0.755598	-0.251728	-0.897095
C170	C	1.255598	0.248272	-0.397095
C171	C	0.755633	-0.115431	-0.506332
C172	C	1.255633	0.384569	-0.006332
C173	C	0.755670	-0.057317	-0.506352
C174	C	1.255670	0.442683	-0.006352
C175	C	0.722191	-0.218281	-0.951958
C176	C	1.222191	0.281719	-0.451958
C177	C	0.722203	-0.218265	-1.061682
C178	C	1.222203	0.281735	-0.561682
C179	C	0.789034	-0.285145	-1.061671
C180	C	1.289034	0.214855	-0.561671
C181	C	0.789019	-0.285163	-0.951949
C182	C	1.289019	0.214837	-0.451949
C183	C	0.755540	-0.251819	-0.233318
C184	C	1.255540	0.248181	0.266682
C185	C	0.755625	-0.251694	-0.116541
C186	C	1.255625	0.248306	0.383459
H187	H	0.556581	-0.191217	-0.628374
H188	H	1.056581	0.308783	-0.128374
H189	H	0.816155	-0.549803	-0.628331
H190	H	1.316155	-0.049803	-0.128331
H191	H	0.816124	-0.450738	-0.628306
H192	H	1.316124	0.049262	-0.128306
H193	H	0.694999	-0.191029	-1.106346
H194	H	1.194999	0.308971	-0.606346
H195	H	0.695038	-1.052339	-0.384338
H196	H	1.195038	-0.552339	0.115662
C197	C	0.656022	-0.522324	-0.306092
C198	C	1.156022	-0.022324	0.193908
C199	C	0.685366	-0.557780	-0.365112
C200	C	1.185366	-0.057780	0.134888
H201	H	0.633342	-0.540881	-0.260460
H202	H	1.133342	-0.040881	0.239540
H203	H	0.678806	-0.501020	-0.265948
H204	H	1.178806	-0.001020	0.234052
H205	H	0.636009	-0.501030	-0.351845
H206	H	1.136009	-0.001030	0.148155
H207	H	0.705381	-0.579072	-0.319359
H208	H	1.205381	-0.079072	0.180641
H209	H	0.662578	-0.579093	-0.405259
H210	H	1.162578	-0.079093	0.094741
C211	C	0.656127	-0.152178	-0.962994
C212	C	1.156127	0.347822	-0.462994
C213	C	0.685449	-0.181536	-0.891662
C214	C	1.185449	0.318464	-0.391662
H215	H	0.633440	-0.129497	-0.925769
H216	H	1.133440	0.370503	-0.425769
H217	H	0.678924	-0.132172	-1.005800
H218	H	1.178924	0.367828	-0.505800
H219	H	0.636123	-0.174958	-1.005777
H220	H	1.136123	0.325042	-0.505777
H221	H	0.705456	-0.158757	-0.848883
H222	H	1.205456	0.341243	-0.348883
H223	H	0.662648	-0.201545	-0.848837
H224	H	1.162648	0.298455	-0.348837
C225	C	0.855090	-0.351256	-1.050639
C226	C	1.355090	0.148744	-0.550639
C227	C	0.825772	-0.321892	-1.121969
C228	C	1.325772	0.178108	-0.621969
H229	H	0.877770	-0.373944	-1.087865
H230	H	1.377770	0.126056	-0.587865
H231	H	0.875097	-0.328484	-1.007860
H232	H	1.375097	0.171516	-0.507860
H233	H	0.832285	-0.371261	-1.007827
H234	H	1.332285	0.128739	-0.507827
H235	H	0.848577	-0.301884	-1.164776
H236	H	1.348577	0.198116	-0.664776
H237	H	0.805764	-0.344667	-1.164765
H238	H	1.305764	0.155333	-0.664765
H239	H	0.816224	-0.312402	-0.907278
H240	H	1.316224	0.187598	-0.407278
C241	C	0.366719	-0.348250	-0.311858
C242	C	0.866719	0.151750	0.188142
C243	C	0.313018	-0.355300	-0.297660
C244	C	0.813018	0.144700	0.202340
H245	H	0.385217	-0.370913	-0.266170
H246	H	0.885217	0.129087	0.233830
H247	H	0.375678	-0.355947	-0.382411
H248	H	0.875678	0.144053	0.117589
H249	H	0.375681	-0.313110	-0.296604
H250	H	0.875681	0.186890	0.203396
H251	H	0.304055	-0.390439	-0.312922
H252	H	0.804055	0.109561	0.187078
H253	H	0.304055	-0.347607	-0.227092
H254	H	0.804055	0.152393	0.272908
H255	H	0.457531	-0.191205	-0.628379
H256	H	0.957531	0.308795	-0.128379
H257	H	0.661528	-0.702168	-0.317008
H258	H	1.161528	-0.202168	0.182992
C259	C	-0.017276	-0.351235	-0.305982
C260	C	0.482724	0.148765	0.194018
C261	C	-0.052744	-0.321924	-0.365058
C262	C	0.447256	0.178076	0.134942
H263	H	-0.035824	-0.373898	-0.260300
H264	H	0.464176	0.126102	0.239700
H265	H	0.004018	-0.371259	-0.351689
H266	H	0.504018	0.128741	0.148311
H267	H	0.004028	-0.328424	-0.265878
H268	H	0.504028	0.171576	0.234122
H269	H	-0.074045	-0.344735	-0.405168
H270	H	0.425955	0.155265	0.094832
H271	H	-0.074046	-0.301899	-0.319345
H272	H	0.425954	0.198101	0.180655
H273	H	0.305441	-0.157811	-0.695712
H274	H	0.805441	0.342189	-0.195712
H275	H	0.206396	-0.157808	-0.695719
H276	H	0.706396	0.342192	-0.195719
H277	H	0.661563	-0.801220	-0.317016
H278	H	1.161563	-0.301220	0.182984
C279	C	0.026559	-0.152382	-0.706701
C280	C	0.526559	0.347618	-0.206701
C281	C	0.062027	-0.181692	-0.647624
C282	C	0.562027	0.318308	-0.147624
H283	H	0.045107	-0.129713	-0.752370
H284	H	0.545107	0.370287	-0.252370
H285	H	0.005262	-0.175189	-0.746809
H286	H	0.505262	0.324811	-0.246809
H287	H	0.005259	-0.132360	-0.660986
H288	H	0.505259	0.367640	-0.160986
H289	H	0.083324	-0.201717	-0.693338
H290	H	0.583324	0.298283	-0.193338
H291	H	0.083333	-0.158882	-0.607513
H292	H	0.583333	0.341118	-0.107513
H293	H	-0.044831	-0.191214	-0.628457
H294	H	0.455169	0.308786	-0.128457
H295	H	0.054097	-0.312403	-0.384208
H296	H	0.554097	0.187597	0.115792
C297	C	0.233877	-0.384605	-0.238584
C298	C	0.733877	0.115395	0.261416
C299	C	0.198405	-0.355301	-0.297665
C300	C	0.698405	0.144699	0.202335
H301	H	0.215331	-0.407264	-0.192890
H302	H	0.715331	0.092736	0.307110
H303	H	0.255169	-0.404632	-0.284287
H304	H	0.755169	0.095368	0.215713
H305	H	0.255181	-0.361789	-0.198493
H306	H	0.755181	0.138211	0.301507
H307	H	0.177103	-0.378117	-0.337762
H308	H	0.677103	0.121883	0.162238
H309	H	0.177103	-0.335273	-0.251956
H310	H	0.677103	0.164727	0.248044
H311	H	0.457385	-0.312409	-0.384158
H312	H	0.957385	0.187591	0.115842
C313	C	0.617919	-0.314857	-0.379163
C314	C	1.117919	0.185143	0.120837
C315	C	0.564220	-0.321917	-0.364953
C316	C	1.064220	0.178083	0.135047
H317	H	0.636424	-0.337514	-0.333475
H318	H	1.136424	0.162486	0.166525
H319	H	0.626876	-0.322555	-0.449716
H320	H	1.126876	0.177445	0.050284
H321	H	0.626875	-0.279715	-0.363918
H322	H	1.126875	0.220285	0.136082
H323	H	0.555264	-0.357059	-0.380206
H324	H	1.055264	0.142941	0.119794
H325	H	0.555260	-0.314223	-0.294384
H326	H	1.055260	0.185777	0.205616
C327	C	0.692364	-0.389463	-0.379296
C328	C	1.192364	0.110537	0.120704
C329	C	0.685329	-0.443167	-0.365110
C330	C	1.185329	0.056833	0.134890
H331	H	0.669674	-0.370976	-0.333655
H332	H	1.169674	0.129024	0.166345
H333	H	0.727489	-0.380488	-0.363980
H334	H	1.227489	0.119512	0.136020
H335	H	0.684690	-0.380502	-0.449872
H336	H	1.184690	0.119498	0.050128
H337	H	0.693007	-0.452129	-0.294535
H338	H	1.193007	0.047871	0.205465
H339	H	0.650195	-0.452146	-0.380419
H340	H	1.150195	0.047854	0.119581
H341	H	0.816299	-1.052149	-0.628385
H342	H	1.316299	-0.552149	-0.128385
H343	H	0.816282	-0.953099	-0.628362
H344	H	1.316282	-0.453099	-0.128362
H345	H	0.849655	-0.800922	-0.695596
H346	H	1.349655	-0.300922	-0.195596
H347	H	0.849626	-0.701875	-0.695583
H348	H	1.349626	-0.201875	-0.195583
C349	C	0.656154	-0.981045	-0.306143
C350	C	1.156154	-0.481045	0.193857
C351	C	0.685478	-0.945504	-0.365162
C352	C	1.185478	-0.445504	0.134838
H353	H	0.633470	-0.962554	-0.260499
H354	H	1.133470	-0.462554	0.239501
H355	H	0.636152	-1.002343	-0.351889
H356	H	1.136152	-0.502343	0.148111
H357	H	0.678954	-1.002337	-0.266002
H358	H	1.178954	-0.502337	0.233998
H359	H	0.662678	-0.924215	-0.405309
H360	H	1.162678	-0.424215	0.094691
H361	H	0.705482	-0.924197	-0.319410
H362	H	1.205482	-0.424197	0.180590
