data_functionalizedCrystal
_audit_creation_method	'MofGen! by Chris Wilmer'
_symmetry_space_group_name_H-M	'P1'
_symmetry_Int_Tables_number	1
_symmetry_cell_setting	triclinic
loop_
_symmetry_equiv_pos_as_xyz
  x,y,z
_cell_length_a	21.395362
_cell_length_b	14.908520
_cell_length_c	21.395356
_cell_angle_alpha	93.272765
_cell_angle_beta	89.964230
_cell_angle_gamma	93.337688
loop_
_atom_site_label
_atom_site_type_symbol
_atom_site_fract_x
_atom_site_fract_y
_atom_site_fract_z
Zn1	Zn	0.943463	-0.358826	-0.368962
Zn2	Zn	1.443463	0.141174	0.131038
Zn3	Zn	0.937350	-0.509688	-0.270229
Zn4	Zn	1.437350	-0.009688	0.229771
Zn5	Zn	0.838691	-0.358886	-0.264166
Zn6	Zn	1.338691	0.141114	0.235834
Zn7	Zn	0.832616	-0.509688	-0.374934
Zn8	Zn	1.332616	-0.009688	0.125066
O9	O	0.888030	-0.434272	-0.319573
O10	O	1.388030	0.065728	0.180427
O11	O	1.030331	-0.378813	-0.355904
O12	O	1.530331	0.121187	0.144096
O13	O	0.924246	-0.489709	-0.181748
O14	O	1.424246	0.010291	0.318252
O15	O	0.857690	-0.232631	-0.273031
O16	O	1.357690	0.267369	0.226969
O17	O	1.025839	-0.489651	-0.283365
O18	O	1.525839	0.010349	0.216635
O19	O	0.934666	-0.232586	-0.350024
O20	O	1.434666	0.267414	0.149976
O21	O	0.851762	-0.378916	-0.177293
O22	O	1.351762	0.121084	0.322707
O23	O	0.750206	-0.378916	-0.278821
O24	O	1.250206	0.121084	0.221179
O25	O	0.847337	-0.489650	-0.461819
O26	O	1.347337	0.010350	0.038181
O27	O	0.745743	-0.489709	-0.360202
O28	O	1.245743	0.010291	0.139798
O29	O	0.928776	-0.378812	-0.457431
O30	O	1.428776	0.121188	0.042569
O31	O	0.918355	-0.635936	-0.289155
O32	O	1.418355	-0.135936	0.210845
O33	O	0.841408	-0.635936	-0.366081
O34	O	1.341408	-0.135936	0.133919
C35	C	0.725240	-0.434320	-0.319502
C36	C	1.225240	0.065680	0.180498
C37	C	0.655597	-0.434362	-0.319488
C38	C	1.155597	0.065638	0.180512
C39	C	0.620574	-0.492128	-0.361806
C40	C	1.120574	0.007872	0.138194
C41	C	0.555139	-0.492106	-0.361833
C42	C	1.055139	0.007894	0.138167
C43	C	0.524731	-0.434327	-0.319531
C44	C	1.024731	0.065673	0.180469
C45	C	0.559763	-0.376549	-0.277210
C46	C	1.059763	0.123451	0.222790
C47	C	0.625196	-0.376567	-0.277188
C48	C	1.125196	0.123433	0.222812
C49	C	0.421304	-0.427069	-0.262835
C50	C	0.921304	0.072931	0.237165
C51	C	0.355872	-0.427058	-0.262856
C52	C	0.855872	0.072942	0.237144
C53	C	0.322912	-0.434268	-0.319598
C54	C	0.822912	0.065732	0.180402
C55	C	0.355393	-0.441508	-0.376321
C56	C	0.855393	0.058492	0.123679
C57	C	0.420826	-0.441526	-0.376300
C58	C	0.920826	0.058474	0.123700
C59	C	0.453779	-0.434301	-0.319550
C60	C	0.953779	0.065699	0.180450
C61	C	0.216937	-0.492014	-0.361949
C62	C	0.716937	0.007986	0.138051
C63	C	0.151501	-0.491986	-0.361976
C64	C	0.651501	0.008014	0.138024
C65	C	0.156126	-0.376433	-0.277348
C66	C	0.656126	0.123567	0.222652
C67	C	0.221560	-0.376457	-0.277325
C68	C	0.721560	0.123543	0.222675
C69	C	0.251962	-0.434252	-0.319625
C70	C	0.751962	0.065748	0.180375
C71	C	0.878576	-0.668670	-0.328938
C72	C	1.378576	-0.168670	0.171062
C73	C	0.874589	-0.768947	-0.332965
C74	C	1.374589	-0.268947	0.167035
C75	C	0.947305	-0.957316	-0.260495
C76	C	1.447305	-0.457316	0.239505
C77	C	0.943561	-1.051534	-0.264277
C78	C	1.443561	-0.551534	0.235723
C79	C	0.863361	-1.051604	-0.344314
C80	C	1.363361	-0.551604	0.155686
C81	C	0.867105	-0.957386	-0.340532
C82	C	1.367105	-0.457386	0.159468
C83	C	0.909077	-0.910245	-0.298620
C84	C	1.409077	-0.410245	0.201380
C85	C	0.912818	-0.816024	-0.294836
C86	C	1.412818	-0.316024	0.205164
C87	C	0.832622	-0.816096	-0.374876
C88	C	1.332622	-0.316096	0.125124
C89	C	0.828878	-0.910315	-0.378658
C90	C	1.328878	-0.410315	0.121342
C91	C	1.051455	-0.434225	-0.319644
C92	C	1.551455	0.065775	0.180356
C93	C	1.121097	-0.434205	-0.319675
C94	C	1.621097	0.065795	0.180325
C95	C	0.888061	-0.434225	-0.482994
C96	C	1.388061	0.065775	0.017006
C97	C	0.888074	-0.434204	-0.552635
C98	C	1.388074	0.065796	-0.052635
C99	C	0.897538	-0.198959	-0.310185
C100	C	1.397538	0.301041	0.189815
C101	C	0.901589	-0.098682	-0.306184
C102	C	1.401589	0.401318	0.193816
C103	C	0.925894	-0.491705	-1.056744
C104	C	1.425894	0.008295	-0.556744
C105	C	0.925882	-0.491734	-0.991309
C106	C	1.425882	0.008266	-0.491309
C107	C	0.888139	-0.434061	-0.956268
C108	C	1.388139	0.065939	-0.456268
C109	C	0.850394	-0.376372	-0.986666
C110	C	1.350394	0.123628	-0.486666
C111	C	0.850403	-0.376352	-1.052099
C112	C	1.350403	0.123648	-0.552099
C113	C	0.886462	-0.352814	-0.849356
C114	C	1.386462	0.147186	-0.349356
C115	C	0.886457	-0.352833	-0.783923
C116	C	1.386457	0.147167	-0.283923
C117	C	0.888108	-0.434125	-0.754449
C118	C	1.388108	0.065875	-0.254449
C119	C	0.889777	-0.515401	-0.790416
C120	C	1.389777	-0.015401	-0.290416
C121	C	0.889785	-0.515381	-0.855849
C122	C	1.389785	-0.015381	-0.355849
C123	C	0.888125	-0.434078	-0.885316
C124	C	1.388125	0.065922	-0.385316
C125	C	0.925834	-0.491846	-0.653108
C126	C	1.425834	0.008154	-0.153108
C127	C	0.925817	-0.491877	-0.587672
C128	C	1.425817	0.008123	-0.087672
C129	C	0.850334	-0.376507	-0.583030
C130	C	1.350334	0.123493	-0.083030
C131	C	0.850347	-0.376485	-0.648464
C132	C	1.350347	0.123515	-0.148464
C133	C	0.888100	-0.434153	-0.683499
C134	C	1.388100	0.065847	-0.183499
C135	C	0.888038	-0.434254	-0.156785
C136	C	1.388038	0.065746	0.343215
C137	C	0.888157	-0.434020	-0.087134
C138	C	1.388157	0.065980	0.412866
H139	H	0.328559	-0.447378	-0.422526
H140	H	0.828559	0.052622	0.077474
Br141	Br	0.771921	-0.974300	-0.435539
Br142	Br	1.271921	-0.474300	0.064461
Br143	Br	0.977124	-0.569979	-1.104289
Br144	Br	1.477124	-0.069979	-0.604289
Br145	Br	0.269096	-0.298055	-0.219890
Br146	Br	0.769096	0.201945	0.280110
Br147	Br	0.672732	-0.298161	-0.219753
Br148	Br	1.172732	0.201839	0.280247
Br149	Br	0.969776	-0.752047	-0.237952
Br150	Br	1.469776	-0.252047	0.262048
H151	H	0.645322	-0.539189	-0.396250
H152	H	1.145322	-0.039189	0.103750
H153	H	0.241691	-0.539070	-0.396394
H154	H	0.741691	-0.039070	0.103606
Br155	Br	0.780728	-0.752209	-0.426610
Br156	Br	1.280728	-0.252209	0.073390
H157	H	0.981476	-0.918933	-0.226364
H158	H	1.481476	-0.418933	0.273636
Br159	Br	0.892046	-0.625677	-0.904659
Br160	Br	1.392046	-0.125677	-0.404659
H161	H	0.819601	-0.329551	-0.554499
H162	H	1.319601	0.170449	-0.054499
H163	H	0.829193	-1.090003	-0.378441
H164	H	1.329193	-0.590003	0.121559
Br165	Br	0.977098	-0.570029	-0.950055
Br166	Br	1.477098	-0.070029	-0.450055
H167	H	0.956574	-0.538806	-0.681635
H168	H	1.456574	-0.038806	-0.181635
H169	H	0.974690	-1.089856	-0.233232
H170	H	1.474690	-0.589856	0.266768
H171	H	0.526618	-0.539146	-0.396295
H172	H	1.026618	-0.039146	0.103705
H173	H	0.447269	-0.447418	-0.422486
H174	H	0.947269	0.052582	0.077514
Br175	Br	0.884570	-0.242436	-0.889347
Br176	Br	1.384570	0.257564	-0.389347
Br177	Br	0.892022	-0.625734	-0.750425
Br178	Br	1.392022	-0.125734	-0.250425
H179	H	0.122986	-0.539024	-0.396441
H180	H	0.622986	-0.039024	0.103559
H181	H	0.956544	-0.538859	-0.562930
H182	H	1.456544	-0.038859	-0.062930
H183	H	0.819619	-0.329508	-0.673208
H184	H	1.319619	0.170492	-0.173208
Br185	Br	0.799172	-0.298101	-0.939111
Br186	Br	1.299172	0.201899	-0.439111
Br187	Br	0.884201	-0.242532	-0.735118
Br188	Br	1.384201	0.257468	-0.235118
Br189	Br	0.799178	-0.298066	-1.093347
Br190	Br	1.299178	0.201934	-0.593347
H191	H	0.131368	-0.329384	-0.242908
H192	H	0.631368	0.170616	0.257092
Br193	Br	0.311797	-0.417235	-0.185875
Br194	Br	0.811797	0.082765	0.314125
H195	H	0.448134	-0.421194	-0.216625
H196	H	0.948134	0.078806	0.283375
Br197	Br	0.518496	-0.298127	-0.219804
Br198	Br	1.018496	0.201873	0.280196
