data_functionalizedCrystal
_audit_creation_method	'MofGen! by Chris Wilmer'
_symmetry_space_group_name_H-M	'P1'
_symmetry_Int_Tables_number	1
_symmetry_cell_setting	triclinic
loop_
_symmetry_equiv_pos_as_xyz
  x,y,z
_cell_length_a	17.640112
_cell_length_b	13.897448
_cell_length_c	17.640968
_cell_angle_alpha	78.768361
_cell_angle_beta	92.139080
_cell_angle_gamma	101.242525
loop_
_atom_site_label
_atom_site_type_symbol
_atom_site_fract_x
_atom_site_fract_y
_atom_site_fract_z
Zn1	Zn	1.247780	-0.027714	-0.195080
Zn2	Zn	1.747780	0.472286	0.304920
Zn3	Zn	1.222024	-0.226719	-0.068097
Zn4	Zn	1.722024	0.273281	0.431903
Zn5	Zn	1.095117	-0.090459	-0.093726
Zn6	Zn	1.595117	0.409541	0.406274
Zn7	Zn	1.120765	-0.214022	-0.220679
Zn8	Zn	1.620765	0.285978	0.279321
O9	O	1.171421	-0.139729	-0.144395
O10	O	1.671421	0.360271	0.355605
O11	O	1.350631	-0.033168	-0.156796
O12	O	1.850631	0.466832	0.343204
O13	O	1.183677	-0.240217	0.034777
O14	O	1.683677	0.259783	0.534777
O15	O	1.115413	0.052860	-0.107183
O16	O	1.615413	0.552860	0.392817
O17	O	1.331709	-0.179376	-0.063502
O18	O	1.831709	0.320624	0.436498
O19	O	1.227574	0.098958	-0.181648
O20	O	1.727574	0.598958	0.318352
O21	O	1.090439	-0.140107	0.015947
O22	O	1.590439	0.359893	0.515947
O23	O	0.992251	-0.127795	-0.132005
O24	O	1.492251	0.372205	0.367995
O25	O	1.159126	-0.157736	-0.323556
O26	O	1.659126	0.342264	0.176444
O27	O	1.011094	-0.218577	-0.225277
O28	O	1.511094	0.281423	0.274723
O29	O	1.252444	-0.020856	-0.304749
O30	O	1.752444	0.479144	0.195251
O31	O	1.208547	-0.360031	-0.088325
O32	O	1.708547	0.139969	0.411675
O33	O	1.134152	-0.350703	-0.200426
O34	O	1.634152	0.149297	0.299574
C35	C	0.974119	-0.178617	-0.184201
C36	C	1.474119	0.321383	0.315799
C37	C	0.889716	-0.195272	-0.201248
C38	C	1.389716	0.304728	0.298752
C39	C	1.171362	-0.390361	-0.144385
C40	C	1.671362	0.109639	0.355615
C41	C	1.171411	-0.497561	-0.144391
C42	C	1.671411	0.002439	0.355609
C43	C	0.563040	-0.013187	-0.014898
C44	C	1.063040	0.486813	0.485102
C45	C	0.483732	-0.028853	-0.030926
C46	C	0.983732	0.471147	0.469074
C47	C	0.503374	-0.123604	-0.127883
C48	C	1.003374	0.376396	0.372117
C49	C	0.582686	-0.107942	-0.111865
C50	C	1.082686	0.392058	0.388135
C51	C	0.612512	-0.052734	-0.055371
C52	C	1.112512	0.447266	0.444629
C53	C	0.632158	-0.147488	-0.152339
C54	C	1.132158	0.352512	0.347661
C55	C	0.711462	-0.131831	-0.136319
C56	C	1.211462	0.368169	0.363681
C57	C	0.741294	-0.076628	-0.079826
C58	C	1.241294	0.423372	0.420174
C59	C	0.691816	-0.037077	-0.039352
C60	C	1.191816	0.462923	0.460648
C61	C	0.602329	-0.202701	-0.208829
C62	C	1.102329	0.297299	0.291171
C63	C	0.651801	-0.242247	-0.249302
C64	C	1.151801	0.257753	0.250698
C65	C	0.731108	-0.226585	-0.233287
C66	C	1.231108	0.273415	0.266713
C67	C	0.760940	-0.171382	-0.176794
C68	C	1.260940	0.328618	0.323206
C69	C	0.780586	-0.266136	-0.273761
C70	C	1.280586	0.233864	0.226239
C71	C	0.859889	-0.250480	-0.257742
C72	C	1.359889	0.249520	0.242258
C73	C	0.840244	-0.155726	-0.160774
C74	C	1.340244	0.344274	0.339226
C75	C	1.171500	-0.693826	-0.144423
C76	C	1.671500	-0.193826	0.355577
C77	C	1.171449	-0.584610	-0.144408
C78	C	1.671449	-0.084610	0.355592
C79	C	1.369495	-0.100689	-0.104435
C80	C	1.869495	0.399311	0.395565
C81	C	1.453902	-0.084053	-0.087406
C82	C	1.953902	0.415947	0.412594
C83	C	1.211519	-0.080881	-0.342478
C84	C	1.711519	0.419119	0.157522
C85	C	1.228606	-0.055803	-0.426890
C86	C	1.728606	0.444197	0.073110
C87	C	1.171506	0.111891	-0.144419
C88	C	1.671506	0.611891	0.355581
C89	C	1.171541	0.219116	-0.144429
C90	C	1.671541	0.719116	0.355571
C91	C	1.041904	-0.329658	-0.753462
C92	C	1.541904	0.170342	-0.253462
C93	C	1.057976	-0.306079	-0.832776
C94	C	1.557976	0.193921	-0.332776
C95	C	1.155140	-0.163558	-0.813183
C96	C	1.655140	0.336442	-0.313183
C97	C	1.139073	-0.187123	-0.733866
C98	C	1.639073	0.312877	-0.233866
C99	C	1.082455	-0.270175	-0.704012
C100	C	1.582455	0.229825	-0.204012
C101	C	1.179624	-0.127639	-0.684416
C102	C	1.679624	0.372361	-0.184416
C103	C	1.163562	-0.151206	-0.605106
C104	C	1.663562	0.348794	-0.105106
C105	C	1.106948	-0.234255	-0.575246
C106	C	1.606948	0.265745	-0.075246
C107	C	1.066393	-0.293741	-0.624702
C108	C	1.566393	0.206259	-0.124702
C109	C	1.236246	-0.044592	-0.714271
C110	C	1.736246	0.455408	-0.214271
C111	C	1.276797	0.014891	-0.664821
C112	C	1.776797	0.514891	-0.164821
C113	C	1.260731	-0.008670	-0.585510
C114	C	1.760731	0.491330	-0.085510
C115	C	1.204117	-0.091720	-0.555650
C116	C	1.704117	0.408280	-0.055650
C117	C	1.301286	0.050815	-0.536054
C118	C	1.801286	0.550815	-0.036054
C119	C	1.285224	0.027249	-0.456744
C120	C	1.785224	0.527249	0.043256
C121	C	1.188055	-0.115286	-0.476339
C122	C	1.688055	0.384714	0.023661
C123	C	1.131524	-0.198270	0.052926
C124	C	1.631524	0.301730	0.552926
C125	C	1.114584	-0.223047	0.137366
C126	C	1.614584	0.276953	0.637366
H127	H	0.805868	-0.063884	-0.066783
H128	H	1.305868	0.436116	0.433217
O129	O	1.014229	-0.370230	-0.886118
O130	O	1.514229	0.129770	-0.386118
H131	H	1.024138	-0.447901	-0.868262
H132	H	1.524138	0.052099	-0.368262
H133	H	0.995782	-0.397268	-0.729157
H134	H	1.495782	0.102732	-0.229157
O135	O	0.619632	-0.301785	-0.310238
O136	O	1.119632	0.198215	0.189762
H137	H	0.556176	-0.306023	-0.314583
H138	H	1.056176	0.193977	0.185417
H139	H	1.347390	0.118430	-0.560372
H140	H	1.847390	0.618430	-0.060372
H141	H	1.318244	0.075688	-0.416480
H142	H	1.818244	0.575688	0.083520
H143	H	1.020271	-0.361351	-0.600397
H144	H	1.520271	0.138649	-0.100397
H145	H	1.201240	-0.095939	-0.837501
H146	H	1.701240	0.404061	-0.337501
O147	O	0.723997	0.022469	0.021581
O148	O	1.223997	0.522469	0.521581
H149	H	0.676273	0.047338	0.047038
H150	H	1.176273	0.547338	0.547038
H151	H	0.587328	0.031786	0.031094
H152	H	1.087328	0.531786	0.531094
H153	H	1.249324	-0.025409	-0.778851
H154	H	1.749324	0.474591	-0.278851
O155	O	0.430356	0.013789	0.012726
O156	O	0.930356	0.513789	0.512726
H157	H	0.448225	0.096376	0.002676
H158	H	0.948225	0.596376	0.502676
H159	H	0.756288	-0.311095	-0.319753
H160	H	1.256288	0.188905	0.180247
H161	H	1.322898	0.082510	-0.689139
H162	H	1.822898	0.582510	-0.189139
H163	H	0.900171	-0.282681	-0.290700
H164	H	1.400171	0.217319	0.209300
O165	O	1.126982	-0.204857	-0.444129
O166	O	1.626982	0.295143	0.055871
H167	H	1.143060	-0.273486	-0.456708
H168	H	1.643060	0.226514	0.043292
O169	O	0.872420	-0.096181	-0.099839
O170	O	1.372420	0.403819	0.400161
H171	H	0.859863	-0.019605	-0.116038
H172	H	1.359863	0.480395	0.383962
O173	O	0.471205	-0.183141	-0.188819
O174	O	0.971205	0.316859	0.311181
H175	H	0.407749	-0.187379	-0.193164
H176	H	0.907749	0.312621	0.306836
O177	O	0.516796	-0.219621	-0.226118
O178	O	1.016796	0.280379	0.273882
H179	H	0.499002	-0.146450	-0.245806
H180	H	0.999002	0.353550	0.254194
O181	O	1.089615	-0.259694	-0.489704
O182	O	1.589615	0.240306	0.010296
H183	H	1.070046	-0.196182	-0.471889
H184	H	1.570046	0.303818	0.028111
