data_functionalizedCrystal
_audit_creation_method	'MofGen! by Chris Wilmer'
_symmetry_space_group_name_H-M	'P1'
_symmetry_Int_Tables_number	1
_symmetry_cell_setting	triclinic
loop_
_symmetry_equiv_pos_as_xyz
  x,y,z
_cell_length_a	25.639243
_cell_length_b	18.050589
_cell_length_c	18.050582
_cell_angle_alpha	90.018205
_cell_angle_beta	89.982526
_cell_angle_gamma	89.969055
loop_
_atom_site_label
_atom_site_type_symbol
_atom_site_fract_x
_atom_site_fract_y
_atom_site_fract_z
Zn1	Zn	0.799271	0.295653	-0.419986
Zn2	Zn	1.299271	0.795653	0.080014
Zn3	Zn	0.799208	0.419836	-0.295805
Zn4	Zn	1.299208	0.919836	0.204195
Zn5	Zn	0.711845	0.295670	-0.295804
Zn6	Zn	1.211845	0.795670	0.204196
Zn7	Zn	0.711808	0.419811	-0.419948
Zn8	Zn	1.211808	0.919811	0.080052
O9	O	0.755533	0.357743	-0.357886
O10	O	1.255533	0.857743	0.142114
O11	O	0.872428	0.312129	-0.403529
O12	O	1.372428	0.812129	0.096471
O13	O	0.787608	0.403383	-0.191880
O14	O	1.287608	0.903383	0.308120
O15	O	0.723484	0.191743	-0.312293
O16	O	1.223484	0.691743	0.187707
O17	O	0.872382	0.403366	-0.312294
O18	O	1.372382	0.903366	0.187706
O19	O	0.787715	0.191730	-0.403528
O20	O	1.287715	0.691730	0.096472
O21	O	0.723423	0.312159	-0.191880
O22	O	1.223423	0.812159	0.308120
O23	O	0.638675	0.312135	-0.312256
O24	O	1.138675	0.812135	0.187744
O25	O	0.723421	0.403324	-0.523878
O26	O	1.223421	0.903324	-0.023878
O27	O	0.638648	0.403341	-0.403464
O28	O	1.138648	0.903341	0.096536
O29	O	0.787680	0.312105	-0.523905
O30	O	1.287680	0.812105	-0.023905
O31	O	0.787573	0.523757	-0.312258
O32	O	1.287573	1.023757	0.187742
O33	O	0.723360	0.523739	-0.403465
O34	O	1.223360	1.023739	0.096535
C35	C	0.755470	0.550695	-0.357873
C36	C	1.255470	1.050695	0.142127
C37	C	0.755491	0.633240	-0.357893
C38	C	1.255491	1.133240	0.142107
C39	C	0.619691	0.357737	-0.357856
C40	C	1.119691	0.857737	0.142144
C41	C	0.561576	0.357753	-0.357861
C42	C	1.061576	0.857753	0.142139
C43	C	0.755554	0.357710	-0.551591
C44	C	1.255554	0.857710	-0.051591
C45	C	0.755562	0.357696	-0.634137
C46	C	1.255562	0.857696	-0.134137
C47	C	0.201232	0.310310	-0.405471
C48	C	0.701232	0.810310	0.094529
C49	C	0.146628	0.310309	-0.405476
C50	C	0.646628	0.810309	0.094524
O51	O	0.118406	0.269958	-0.445918
O52	O	0.618406	0.769958	0.054082
N53	N	0.119294	0.357740	-0.357906
N54	N	0.619294	0.857740	0.142094
C55	C	0.146568	0.405170	-0.310324
C56	C	0.646568	0.905170	0.189676
O57	O	0.118304	0.445513	-0.269862
O58	O	0.618304	0.945513	0.230138
C59	C	0.201171	0.405166	-0.310316
C60	C	0.701171	0.905166	0.189684
C61	C	0.228502	0.357737	-0.357894
C62	C	0.728502	0.857737	0.142106
C63	C	0.228563	0.262885	-0.453044
C64	C	0.728563	0.762885	0.046956
C65	C	0.283163	0.262886	-0.453041
C66	C	0.783163	0.762886	0.046959
C67	C	0.310433	0.310314	-0.405463
C68	C	0.810433	0.810314	0.094537
C69	C	0.283102	0.357739	-0.357890
C70	C	0.783102	0.857739	0.142110
C71	C	0.228443	0.452591	-0.262730
C72	C	0.728443	0.952591	0.237270
C73	C	0.283050	0.452583	-0.262726
C74	C	0.783050	0.952583	0.237274
C75	C	0.310381	0.405154	-0.310304
C76	C	0.810381	0.905154	0.189696
C77	C	0.364972	0.405168	-0.310309
C78	C	0.864972	0.905168	0.189691
N79	N	0.392306	0.357737	-0.357878
N80	N	0.892306	0.857737	0.142122
C81	C	0.365036	0.310310	-0.405456
C82	C	0.865036	0.810310	0.094544
C83	C	0.031897	0.405173	-0.310343
C84	C	0.531897	0.905173	0.189657
C85	C	-0.022705	0.405181	-0.310354
C86	C	0.477295	0.905181	0.189646
C87	C	-0.022642	0.310319	-0.405505
C88	C	0.477358	0.810319	0.094495
C89	C	0.031962	0.310316	-0.405497
C90	C	0.531962	0.810316	0.094503
C91	C	0.059230	0.357742	-0.357912
C92	C	0.559230	0.857742	0.142088
C93	C	0.479701	0.310318	-0.405444
C94	C	0.979701	0.810318	0.094556
C95	C	0.534307	0.310326	-0.405439
C96	C	1.034307	0.810326	0.094561
C97	C	0.534238	0.405184	-0.310285
C98	C	1.034238	0.905184	0.189715
C99	C	0.479638	0.405179	-0.310293
C100	C	0.979638	0.905179	0.189707
C101	C	0.452370	0.357740	-0.357876
C102	C	0.952370	0.857740	0.142124
O103	O	0.393228	0.445497	-0.269885
O104	O	0.893228	0.945497	0.230115
O105	O	0.393306	0.269967	-0.445904
O106	O	0.893306	0.769967	0.054096
C107	C	0.891906	0.357748	-0.357916
C108	C	1.391906	0.857748	0.142084
C109	C	0.950020	0.357750	-0.357929
C110	C	1.450020	0.857750	0.142071
C111	C	0.755611	0.164037	-0.357914
C112	C	1.255611	0.664037	0.142086
C113	C	0.755644	0.081491	-0.357927
C114	C	1.255644	0.581491	0.142073
C115	C	0.720606	0.832708	-0.407474
C116	C	1.220606	1.332708	0.092526
C117	C	0.707865	0.882143	-0.339706
C118	C	1.207865	1.382143	0.160294
C119	C	0.755542	0.784371	-0.357903
C120	C	1.255542	1.284371	0.142097
C121	C	0.768309	0.882018	-0.425679
C122	C	1.268309	1.382018	0.074321
C123	C	0.755591	0.930356	-0.357918
C124	C	1.255591	1.430356	0.142082
C125	C	0.742776	0.832718	-0.290099
C126	C	1.242776	1.332718	0.209901
C127	C	0.803242	0.832589	-0.376117
C128	C	1.303242	1.332589	0.123883
C129	C	0.790519	0.882001	-0.308302
C130	C	1.290519	1.382001	0.191698
C131	C	0.755513	0.700272	-0.357895
C132	C	1.255513	1.200272	0.142105
C133	C	0.755620	1.014452	-0.357918
C134	C	1.255620	1.514452	0.142082
C135	C	0.720645	0.407233	-0.833573
C136	C	1.220645	0.907233	-0.333573
C137	C	0.768346	0.425383	-0.882969
C138	C	1.268346	0.925383	-0.382969
C139	C	0.755588	0.357639	-0.785268
C140	C	1.255588	0.857639	-0.285268
C141	C	0.707913	0.339468	-0.882954
C142	C	1.207913	0.839468	-0.382954
C143	C	0.755609	0.357586	-0.931253
C144	C	1.255609	0.857586	-0.431253
C145	C	0.803314	0.375825	-0.833576
C146	C	1.303314	0.875825	-0.333576
C147	C	0.742849	0.289878	-0.833557
C148	C	1.242849	0.789878	-0.333557
C149	C	0.790583	0.308003	-0.882930
C150	C	1.290583	0.808003	-0.382930
C151	C	0.755575	0.357671	-0.701169
C152	C	1.255575	0.857671	-0.201169
C153	C	0.755627	0.357553	-1.015349
C154	C	1.255627	0.857553	-0.515349
C155	C	0.755543	0.357722	-0.164934
C156	C	1.255543	0.857722	0.335066
C157	C	0.755635	0.357527	-0.082388
C158	C	1.255635	0.857527	0.417612
H159	H	0.556557	0.271703	-0.444185
H160	H	1.056557	0.771703	0.055815
H161	H	0.457507	0.271686	-0.444188
H162	H	0.957507	0.771686	0.055812
H163	H	0.820176	0.266040	-0.904465
H164	H	1.320176	0.766040	-0.404465
O165	O	0.681416	0.804027	-0.462920
O166	O	1.181416	1.304027	0.037080
H167	H	0.691630	0.824626	-0.519006
H168	H	1.191630	1.324626	-0.019006
H169	H	0.779088	0.903673	-0.482990
H170	H	1.279088	1.403673	0.017010
H171	H	0.779134	0.482664	-0.904673
H172	H	1.279134	0.982664	-0.404673
O173	O	0.728548	0.214026	-0.804772
O174	O	1.228548	0.714026	-0.304772
H175	H	0.729050	0.214634	-0.743289
H176	H	1.229050	0.714634	-0.243289
O177	O	0.563655	0.456330	-0.258963
O178	O	1.063655	0.956330	0.241037
H179	H	0.606215	0.448350	-0.266950
H180	H	1.106215	0.948350	0.233050
O181	O	0.061308	0.456335	-0.259023
O182	O	0.561308	0.956335	0.240977
H183	H	0.033124	0.489317	-0.225954
H184	H	0.533124	0.989317	0.274046
O185	O	0.654498	0.319126	-0.911681
O186	O	1.154498	0.819126	-0.411681
H187	H	0.625559	0.360396	-0.891902
H188	H	1.125559	0.860396	-0.391902
O189	O	0.312639	0.211717	-0.504342
O190	O	0.812639	0.711717	-0.004342
H191	H	0.284496	0.178734	-0.537414
H192	H	0.784496	0.678734	-0.037414
O193	O	-0.052182	0.456337	-0.259040
O194	O	0.447818	0.956337	0.240960
H195	H	-0.024041	0.489308	-0.225954
H196	H	0.475959	0.989308	0.274046
H197	H	0.206365	0.224260	-0.491788
H198	H	0.706365	0.724260	0.008212
H199	H	0.667550	0.903926	-0.324314
H200	H	1.167550	1.403926	0.175686
H201	H	0.731950	0.811153	-0.232772
H202	H	1.231950	1.311153	0.267228
O203	O	0.681545	0.462861	-0.804858
O204	O	1.181545	0.962861	-0.304858
H205	H	0.642079	0.448318	-0.825490
H206	H	1.142079	0.948318	-0.325490
O207	O	0.829681	0.910494	-0.252720
O208	O	1.329681	1.410494	0.247280
H209	H	0.859529	0.944278	-0.281719
H210	H	1.359529	1.444278	0.218281
O211	O	0.061439	0.259152	-0.456803
O212	O	0.561439	0.759152	0.043197
H213	H	0.033298	0.226173	-0.489880
H214	H	0.533298	0.726173	0.010120
H215	H	0.843548	0.810808	-0.391541
H216	H	1.343548	1.310808	0.108459
O217	O	0.856763	0.395943	-0.804817
O218	O	1.356763	0.895943	-0.304817
H219	H	0.854002	0.446819	-0.770484
H220	H	1.354002	0.946819	-0.270484
O221	O	-0.052060	0.259153	-0.456812
O222	O	0.447940	0.759153	0.043188
H223	H	-0.076946	0.292442	-0.494538
H224	H	0.423054	0.792442	0.005462
O225	O	0.198977	0.503738	-0.211401
O226	O	0.698977	1.003738	0.288599
H227	H	0.209445	0.562043	-0.224023
H228	H	0.709445	1.062043	0.275977
O229	O	0.312463	0.503734	-0.211400
O230	O	0.812463	1.003734	0.288600
H231	H	0.301967	0.562039	-0.224039
H232	H	0.801967	1.062039	0.275961
O233	O	0.450154	0.456334	-0.258981
O234	O	0.950154	0.956334	0.241019
H235	H	0.478292	0.489311	-0.225895
H236	H	0.978292	0.989311	0.274105
