data_functionalizedCrystal
_audit_creation_method	'MofGen! by Chris Wilmer'
_symmetry_space_group_name_H-M	'P1'
_symmetry_Int_Tables_number	1
_symmetry_cell_setting	triclinic
loop_
_symmetry_equiv_pos_as_xyz
  x,y,z
_cell_length_a	25.639242
_cell_length_b	25.639240
_cell_length_c	25.639233
_cell_angle_alpha	89.974071
_cell_angle_beta	89.977834
_cell_angle_gamma	90.028283
loop_
_atom_site_label
_atom_site_type_symbol
_atom_site_fract_x
_atom_site_fract_y
_atom_site_fract_z
Zn1	Zn	0.799247	-0.208277	-0.295716
Zn2	Zn	0.799179	-0.295696	-0.208270
Zn3	Zn	0.711823	-0.208269	-0.208280
Zn4	Zn	0.711777	-0.295676	-0.295659
O5	O	0.755506	-0.251979	-0.251981
O6	O	0.872403	-0.219884	-0.284135
O7	O	0.787582	-0.284103	-0.135106
O8	O	0.723467	-0.135105	-0.219907
O9	O	0.872353	-0.284111	-0.219889
O10	O	0.787697	-0.135111	-0.284146
O11	O	0.723402	-0.219871	-0.135114
O12	O	0.638652	-0.219853	-0.219852
O13	O	0.723389	-0.284078	-0.368832
O14	O	0.638618	-0.284070	-0.284049
O15	O	0.787653	-0.219866	-0.368874
O16	O	0.787538	-0.368858	-0.219834
O17	O	0.723324	-0.368844	-0.284039
C18	C	0.619664	-0.251959	-0.251946
C19	C	0.561550	-0.251963	-0.251943
C20	C	0.201178	-0.285473	-0.285377
C21	C	0.146574	-0.285477	-0.285385
O22	O	0.118330	-0.313943	-0.313782
N23	N	0.119267	-0.251994	-0.252015
C24	C	0.146568	-0.218502	-0.218639
O25	O	0.118328	-0.190022	-0.190256
C26	C	0.201171	-0.218496	-0.218634
C27	C	0.228475	-0.251985	-0.252002
C28	C	0.228482	-0.318959	-0.318743
C29	C	0.283082	-0.318956	-0.318734
C30	C	0.310379	-0.285468	-0.285359
C31	C	0.283076	-0.251983	-0.251993
C32	C	0.228471	-0.185002	-0.185260
C33	C	0.283078	-0.184999	-0.185258
C34	C	0.310382	-0.218488	-0.218626
C35	C	0.364973	-0.218492	-0.218609
N36	N	0.392279	-0.251974	-0.251979
C37	C	0.364983	-0.285463	-0.285354
C38	C	0.031897	-0.218515	-0.218653
C39	C	-0.022705	-0.218523	-0.218655
C40	C	-0.022695	-0.285497	-0.285402
C41	C	0.031908	-0.285492	-0.285397
C42	C	0.059204	-0.251998	-0.252023
C43	C	0.479648	-0.285455	-0.285332
C44	C	0.534253	-0.285451	-0.285318
C45	C	0.534239	-0.218475	-0.218573
C46	C	0.479638	-0.218481	-0.218585
C47	C	0.452344	-0.251972	-0.251968
O48	O	0.393252	-0.190038	-0.190228
O49	O	0.393229	-0.313933	-0.313736
C50	C	0.755433	-0.387822	-0.251940
C51	C	0.755449	-0.445936	-0.251940
C52	C	0.788967	-0.806264	-0.285491
C53	C	0.788983	-0.860868	-0.285501
O54	O	0.817394	-0.889074	-0.313985
N55	N	0.755579	-0.888218	-0.252032
C56	C	0.722154	-0.860962	-0.218553
O57	O	0.693742	-0.889240	-0.190086
C58	C	0.722136	-0.806359	-0.218546
C59	C	0.755546	-0.779011	-0.252014
C60	C	0.822374	-0.778916	-0.318956
C61	C	0.822359	-0.724315	-0.318945
C62	C	0.788938	-0.697062	-0.285468
C63	C	0.755531	-0.724410	-0.252002
C64	C	0.688708	-0.779103	-0.185070
C65	C	0.688693	-0.724496	-0.185066
C66	C	0.722103	-0.697148	-0.218534
C67	C	0.722095	-0.642557	-0.218514
N68	N	0.755498	-0.615206	-0.251983
C69	C	0.788920	-0.642459	-0.285460
C70	C	0.722193	-0.975633	-0.218572
C71	C	0.722213	-1.030235	-0.218577
C72	C	0.789041	-1.030137	-0.285526
C73	C	0.789024	-0.975534	-0.285518
C74	C	0.755597	-0.948282	-0.252042
C75	C	0.788887	-0.527794	-0.285433
C76	C	0.788870	-0.473189	-0.285417
C77	C	0.722040	-0.473291	-0.218471
C78	C	0.722058	-0.527892	-0.218484
C79	C	0.755483	-0.555142	-0.251970
O80	O	0.693697	-0.614316	-0.190046
O81	O	0.817322	-0.614175	-0.313927
C82	C	0.891879	-0.252000	-0.252017
C83	C	0.949993	-0.252009	-0.252032
C84	C	0.755523	-0.251970	-0.388354
C85	C	0.755530	-0.251966	-0.446468
C86	C	0.755595	-0.115606	-0.252034
C87	C	0.755632	-0.057492	-0.252056
C88	C	0.789035	-0.218432	-0.806859
C89	C	0.789041	-0.218417	-0.861463
O90	O	0.817486	-0.189967	-0.889723
N91	N	0.755588	-0.251844	-0.888751
C92	C	0.722122	-0.285283	-0.861432
O93	O	0.693668	-0.313713	-0.889656
C94	C	0.722114	-0.285294	-0.806828
C95	C	0.755573	-0.251870	-0.779543
C96	C	0.822491	-0.185009	-0.779574
C97	C	0.822485	-0.185025	-0.724973
C98	C	0.789023	-0.218462	-0.697658
C99	C	0.755567	-0.251885	-0.724943
C100	C	0.688646	-0.318731	-0.779510
C101	C	0.688640	-0.318739	-0.724903
C102	C	0.722099	-0.285314	-0.697618
C103	C	0.722099	-0.285338	-0.643027
N104	N	0.755552	-0.251912	-0.615739
C105	C	0.789014	-0.218474	-0.643055
C106	C	0.722143	-0.285256	-0.976102
C107	C	0.722154	-0.285247	-1.030705
C108	C	0.789072	-0.218381	-1.030733
C109	C	0.789063	-0.218392	-0.976129
C110	C	0.755596	-0.251829	-0.948815
C111	C	0.789000	-0.218509	-0.528389
C112	C	0.788992	-0.218529	-0.473784
C113	C	0.722072	-0.285393	-0.473761
C114	C	0.722081	-0.285375	-0.528362
C115	C	0.755547	-0.251929	-0.555674
O116	O	0.693668	-0.313773	-0.614732
O117	O	0.817459	-0.190044	-0.614823
C118	C	0.755520	-0.251951	-0.116139
C119	C	0.755614	-0.251807	-0.058025
H120	H	0.556474	-0.191211	-0.191398
N121	N	0.824939	-0.557185	-0.321543
H122	H	0.803683	-0.579841	-0.345757
H123	H	0.846093	-0.531539	-0.342705
H124	H	0.694913	-0.312471	-1.052916
N125	N	0.686040	-0.321319	-0.946643
H126	H	0.664850	-0.342488	-0.972219
H127	H	0.707296	-0.345527	-0.923984
H128	H	0.695013	-1.052497	-0.191318
N129	N	0.652541	-0.354808	-0.695449
H130	H	0.673767	-0.379050	-0.672795
H131	H	0.628328	-0.333527	-0.672822
N132	N	0.824901	-0.443690	-0.321520
H133	H	0.849141	-0.421031	-0.300297
H134	H	0.846038	-0.469275	-0.342724
N135	N	0.858572	-0.148967	-0.695555
H136	H	0.850471	-0.111610	-0.705071
H137	H	0.853482	-0.154084	-0.656826
N138	N	0.685997	-0.443887	-0.182365
H139	H	0.661751	-0.421238	-0.203588
H140	H	0.664868	-0.469525	-0.161168
H141	H	0.661400	-0.345949	-0.801716
N142	N	0.450180	-0.182380	-0.182582
H143	H	0.427542	-0.158182	-0.203872
H144	H	0.427537	-0.203646	-0.158331
H145	H	0.694841	-0.312597	-0.550578
H146	H	0.816228	-0.953270	-0.312771
H147	H	0.694974	-0.953447	-0.191308
H148	H	0.305300	-0.157721	-0.158083
N149	N	0.825090	-1.059536	-0.321635
H150	H	0.820028	-1.098276	-0.316560
H151	H	0.816923	-1.049977	-0.358966
H152	H	0.816317	-0.191153	-1.052983
H153	H	0.816241	-0.191310	-0.451571
N154	N	-0.052149	-0.182410	-0.182657
H155	H	-0.042624	-0.145065	-0.190847
H156	H	-0.090873	-0.187535	-0.187738
H157	H	0.816249	-0.191272	-0.550621
H158	H	0.694830	-0.312619	-0.451511
N159	N	0.652674	-0.808591	-0.148971
H160	H	0.631500	-0.783033	-0.127768
H161	H	0.628469	-0.831251	-0.170231
N162	N	0.858390	-0.694822	-0.355047
H163	H	0.879560	-0.720379	-0.376255
H164	H	0.837082	-0.672172	-0.379217
N165	N	0.858430	-0.808293	-0.355072
H166	H	0.882687	-0.830940	-0.333860
H167	H	0.837143	-0.830920	-0.379283
H168	H	0.694857	-0.550160	-0.191228
N169	N	-0.052142	-0.321618	-0.321401
H170	H	-0.090876	-0.316536	-0.316340
H171	H	-0.042578	-0.313534	-0.358757
N172	N	0.450211	-0.321579	-0.321333
H173	H	0.459740	-0.313517	-0.358704
H174	H	0.459709	-0.358907	-0.313089
N175	N	0.858579	-0.148936	-0.809031
H176	H	0.879767	-0.127766	-0.783452
H177	H	0.882769	-0.170212	-0.831687
H178	H	0.054118	-0.191241	-0.191472
H179	H	0.305308	-0.346225	-0.345907
H180	H	0.816308	-0.191174	-0.953917
N181	N	0.563702	-0.321574	-0.321307
H182	H	0.538120	-0.342787	-0.342452
H183	H	0.586381	-0.300329	-0.345542
N184	N	0.199045	-0.355084	-0.354740
H185	H	0.224635	-0.376294	-0.375872
H186	H	0.176374	-0.379252	-0.333410
N187	N	0.652642	-0.695100	-0.148958
H188	H	0.615282	-0.704627	-0.157041
H189	H	0.660834	-0.704633	-0.111626
N190	N	0.061355	-0.321611	-0.321386
H191	H	0.035772	-0.342826	-0.342527
H192	H	0.084029	-0.300365	-0.345624
H193	H	0.206250	-0.157734	-0.158087
