data_functionalizedCrystal
_audit_creation_method	'MofGen! by Chris Wilmer'
_symmetry_space_group_name_H-M	'P1'
_symmetry_Int_Tables_number	1
_symmetry_cell_setting	triclinic
loop_
_symmetry_equiv_pos_as_xyz
  x,y,z
_cell_length_a	10.654550
_cell_length_b	10.723023
_cell_length_c	9.730223
_cell_angle_alpha	90.003073
_cell_angle_beta	90.000043
_cell_angle_gamma	84.476239
loop_
_atom_site_label
_atom_site_type_symbol
_atom_site_fract_x
_atom_site_fract_y
_atom_site_fract_z
O1	O	-1.667812	-0.175275	-0.114183
O2	O	-1.167812	0.324725	0.385817
O3	O	-1.302331	-0.191974	-0.114208
O4	O	-0.802331	0.308026	0.385792
O5	O	-1.493503	-0.002049	-0.114190
O6	O	-0.993503	0.497951	0.385810
O7	O	-1.476641	-0.365199	-0.114200
O8	O	-0.976641	0.134801	0.385800
O9	O	-1.493490	-0.002044	0.114390
O10	O	-0.993490	0.497956	0.614390
O11	O	-1.302319	-0.191969	0.114372
O12	O	-0.802319	0.308031	0.614372
O13	O	-1.667800	-0.175270	0.114397
O14	O	-1.167800	0.324730	0.614397
Zn15	Zn	-1.485057	-0.183618	0.150677
Zn16	Zn	-0.985057	0.316382	0.650677
Zn17	Zn	-1.485074	-0.183625	-0.150487
Zn18	Zn	-0.985074	0.316375	0.349513
O19	O	-1.476628	-0.365194	0.114379
O20	O	-0.976628	0.134806	0.614379
C21	C	-1.255527	-0.190745	0.000079
C22	C	-0.755527	0.309255	0.500079
C23	C	-1.116084	-0.187077	0.000069
C24	C	-0.616084	0.312923	0.500069
C25	C	-1.492269	0.044453	0.000098
C26	C	-0.992269	0.544453	0.500098
C27	C	-1.488599	0.183008	0.000092
C28	C	-0.988599	0.683008	0.500092
C29	C	-1.714604	-0.176498	0.000107
C30	C	-1.214604	0.323502	0.500107
C31	C	-1.854046	-0.180167	0.000108
C32	C	-1.354046	0.319833	0.500108
C33	C	-1.477861	-0.411696	0.000088
C34	C	-0.977861	0.088304	0.500088
C35	C	-1.481532	-0.550251	0.000085
C36	C	-0.981532	-0.050251	0.500085
C37	C	-1.036582	-0.298901	0.000070
C38	C	-0.536582	0.201099	0.500070
C39	C	-0.905561	-0.295447	0.000094
C40	C	-0.405561	0.204553	0.500094
C41	C	-0.933559	-0.068334	0.000111
C42	C	-0.433559	0.431666	0.500111
C43	C	-1.064577	-0.071789	0.000097
C44	C	-0.564577	0.428211	0.500097
C45	C	-1.486956	0.244789	0.118501
C46	C	-0.986956	0.744789	0.618501
C47	C	-1.483162	0.387993	0.118498
C48	C	-0.983162	0.887993	0.618498
N49	N	-1.485055	-0.183613	0.356213
N50	N	-0.985055	0.316387	0.856213
N51	N	-1.485085	-0.183621	-0.356024
N52	N	-0.985085	0.316379	0.143976
C53	C	-1.569735	-0.099550	0.428147
C54	C	-1.069735	0.400450	0.928147
C55	C	-1.569748	-0.099550	0.572030
C56	C	-1.069748	0.400450	1.072030
C57	C	-1.400397	-0.267687	0.572033
C58	C	-0.900397	0.232313	1.072033
C59	C	-1.400379	-0.267680	0.428152
C60	C	-0.900379	0.232320	0.928152
H61	H	-1.078514	-0.392775	0.000058
H62	H	-0.578514	0.107225	0.500058
H63	H	-1.488365	0.191665	0.219877
H64	H	-0.988365	0.691665	0.719877
H65	H	-0.840835	-0.386506	0.000098
H66	H	-0.340835	0.113494	0.500098
H67	H	-1.331416	-0.336134	0.369580
H68	H	-0.831416	0.163866	0.869580
H69	H	-0.891606	0.025530	0.000142
H70	H	-0.391606	0.525530	0.500142
H71	H	-1.481741	0.441122	0.219872
H72	H	-0.981741	0.941122	0.719872
H73	H	-1.129312	0.019278	0.000100
H74	H	-0.629312	0.519278	0.500100
H75	H	-1.482935	0.396625	-0.101294
H76	H	-0.982935	0.896625	0.398706
H77	H	-1.487203	0.236134	-0.101284
H78	H	-0.987203	0.736134	0.398716
H79	H	-1.638682	-0.031096	0.369577
H80	H	-1.138682	0.468904	0.869577
H81	H	-1.638700	-0.031098	0.630594
H82	H	-1.138700	0.468902	1.130594
H83	H	-1.331457	-0.336135	0.630620
H84	H	-0.831457	0.163865	1.130620
