data_functionalizedCrystal
_audit_creation_method	'MofGen! by Chris Wilmer'
_symmetry_space_group_name_H-M	'P1'
_symmetry_Int_Tables_number	1
_symmetry_cell_setting	triclinic
loop_
_symmetry_equiv_pos_as_xyz
  x,y,z
_cell_length_a	6.394984
_cell_length_b	9.065218
_cell_length_c	8.140239
_cell_angle_alpha	90.002802
_cell_angle_beta	89.997995
_cell_angle_gamma	94.244381
loop_
_atom_site_label
_atom_site_type_symbol
_atom_site_fract_x
_atom_site_fract_y
_atom_site_fract_z
O1	O	0.306374	-1.963199	-0.136612
O2	O	0.806374	-1.463199	0.363388
O3	O	0.331505	-1.534144	-0.136614
O4	O	0.831505	-1.034144	0.363386
O5	O	0.014990	-1.754766	-0.136608
O6	O	0.514990	-1.254766	0.363392
O7	O	0.622889	-1.742577	-0.136618
O8	O	1.122889	-1.242577	0.363382
O9	O	0.014986	-1.754753	0.136619
O10	O	0.514986	-1.254753	0.636619
O11	O	0.331501	-1.534131	0.136613
O12	O	0.831501	-1.034131	0.636613
O13	O	0.306370	-1.963186	0.136615
O14	O	0.806370	-1.463186	0.636615
Zn15	Zn	0.318935	-1.748657	0.179995
Zn16	Zn	0.818935	-1.248657	0.679995
Zn17	Zn	0.318940	-1.748673	-0.179993
Zn18	Zn	0.818940	-1.248673	0.320007
O19	O	0.622885	-1.742564	0.136609
O20	O	1.122885	-1.242564	0.636609
C21	C	0.329088	-1.479129	-0.000000
C22	C	0.829088	-0.979129	0.500000
C23	C	0.321866	-1.315220	-0.000001
C24	C	0.821866	-0.815220	0.499999
C25	C	0.937123	-1.752335	0.000010
C26	C	1.437123	-1.252335	0.500010
C27	C	0.700747	-1.744991	0.000007
C28	C	1.200747	-1.244991	0.500007
C29	C	0.308788	-2.018201	-0.000002
C30	C	0.808788	-1.518201	0.499998
C31	C	0.316009	-2.182110	-0.000012
C32	C	0.816009	-1.682110	0.499988
N33	N	0.318930	-1.748656	0.425678
N34	N	0.818930	-1.248656	0.925678
N35	N	0.318928	-1.748685	-0.425676
N36	N	0.818928	-1.248685	0.074324
