data_functionalizedCrystal
_audit_creation_method	'MofGen! by Chris Wilmer'
_symmetry_space_group_name_H-M	'P1'
_symmetry_Int_Tables_number	1
_symmetry_cell_setting	triclinic
loop_
_symmetry_equiv_pos_as_xyz
  x,y,z
_cell_length_a	14.853569
_cell_length_b	14.853576
_cell_length_c	13.330367
_cell_angle_alpha	89.996419
_cell_angle_beta	89.994419
_cell_angle_gamma	83.637024
loop_
_atom_site_label
_atom_site_type_symbol
_atom_site_fract_x
_atom_site_fract_y
_atom_site_fract_z
O1	O	1.196372	0.117710	-0.083375
O2	O	0.933913	0.131730	-0.083387
O3	O	1.072149	-0.006509	-0.083377
O4	O	1.058136	0.255949	-0.083385
O5	O	1.072129	-0.006513	0.083470
O6	O	0.933893	0.131727	0.083460
O7	O	1.196352	0.117707	0.083472
Cu8	Cu	1.065120	0.124716	0.098701
Cu9	Cu	1.065144	0.124720	-0.098616
O10	O	1.058116	0.255946	0.083462
C11	C	0.900314	0.131093	0.000035
C12	C	0.800230	0.129188	0.000031
C13	C	0.763851	0.046178	0.000030
C14	C	0.742567	0.210410	0.000036
C15	C	0.648533	0.208623	0.000037
C16	C	0.612153	0.125613	0.000036
C17	C	0.669809	0.044389	0.000034
C18	C	0.590871	0.289846	0.000049
C19	C	0.496830	0.288062	0.000051
C20	C	0.460450	0.205051	0.000043
C21	C	0.518111	0.123824	0.000040
C22	C	0.481732	0.040813	0.000039
C23	C	0.539391	-0.040415	0.000029
C24	C	0.633428	-0.038623	0.000026
C25	C	0.366413	0.203259	0.000046
C26	C	0.387689	0.039024	0.000044
C27	C	1.071502	-0.040100	0.000046
C28	C	1.069595	-0.140183	0.000042
C29	C	1.068709	-0.187196	-0.090911
C30	C	1.068698	-0.187213	0.090992
C31	C	1.066911	-0.281247	0.090992
C32	C	1.066024	-0.328260	0.000039
C33	C	1.066925	-0.281239	-0.090914
C34	C	1.066019	-0.328276	0.181944
C35	C	1.064233	-0.422316	0.181947
C36	C	1.063340	-0.469330	0.090993
C37	C	1.064240	-0.422303	0.000037
C38	C	1.063354	-0.469317	-0.090916
C39	C	1.064247	-0.422291	-0.181874
C40	C	1.066032	-0.328253	-0.181868
C41	C	1.061555	-0.563368	0.090987
C42	C	1.061569	-0.563360	-0.090919
C43	C	1.229950	0.118344	0.000048
C44	C	1.330034	0.120248	0.000046
N45	N	1.065110	0.124713	0.237482
C46	C	1.058762	0.289536	0.000037
C47	C	1.060669	0.389619	0.000034
N48	N	1.065161	0.124716	-0.237397
C49	C	1.003930	0.185908	0.710100
C50	C	1.126382	0.063525	0.710077
C51	C	1.126372	0.063522	0.605059
C52	C	1.065141	0.124714	0.552557
C53	C	1.003920	0.185909	0.605072
C54	C	1.187597	0.002334	0.552535
C55	C	1.187590	0.002330	0.447511
C56	C	1.126354	0.063518	0.395006
C57	C	1.065131	0.124715	0.447528
C58	C	1.003900	0.185907	0.395026
C59	C	0.942671	0.247100	0.447546
C60	C	0.942684	0.247098	0.552568
C61	C	1.126341	0.063521	0.289985
C62	C	1.003889	0.185908	0.289998
H63	H	0.680382	-0.104754	0.000020
Cl64	Cl	0.926904	0.262836	0.224003
H65	H	1.237454	-0.047482	0.595286
H66	H	0.358077	-0.028574	0.000037
H67	H	0.509759	-0.108003	0.000022
Cl68	Cl	0.836334	-0.055933	0.000015
Cl69	Cl	1.069819	-0.128111	0.205327
H70	H	0.954076	0.235729	0.752865
Cl71	Cl	0.788302	0.314760	0.000038
Cl72	Cl	0.424353	0.390176	0.000056
H73	H	0.319471	0.269393	0.000064
Cl74	Cl	1.264558	-0.074599	0.381492
H75	H	0.620498	0.357428	0.000056
Cl76	Cl	0.865720	0.324023	0.618595
Cl77	Cl	1.060448	-0.622454	-0.205267
H78	H	1.063530	-0.460582	-0.255928
H79	H	0.892820	0.296928	0.404787
H80	H	1.066762	-0.289957	-0.255921
H81	H	1.176239	0.013708	0.752828
H82	H	1.069433	-0.148903	-0.164966
H83	H	1.176197	0.013702	0.247227
H84	H	1.063506	-0.460597	0.256011
H85	H	1.060831	-0.601652	0.165043
Cl86	Cl	1.067140	-0.269171	0.296276
