data_functionalizedCrystal
_audit_creation_method	'MofGen! by Chris Wilmer'
_symmetry_space_group_name_H-M	'P1'
_symmetry_Int_Tables_number	1
_symmetry_cell_setting	triclinic
loop_
_symmetry_equiv_pos_as_xyz
  x,y,z
_cell_length_a	9.616153
_cell_length_b	10.540539
_cell_length_c	10.540535
_cell_angle_alpha	95.475433
_cell_angle_beta	90.001926
_cell_angle_gamma	90.004826
loop_
_atom_site_label
_atom_site_type_symbol
_atom_site_fract_x
_atom_site_fract_y
_atom_site_fract_z
O1	O	-0.115566	-1.685889	0.178896
O2	O	-0.115582	-1.316476	0.195752
O3	O	-0.115579	-1.509614	0.002617
O4	O	-0.115569	-1.492752	0.372031
O5	O	0.115712	-1.509587	0.002621
O6	O	0.115710	-1.316449	0.195756
O7	O	0.115725	-1.685863	0.178900
Zn8	Zn	0.152440	-1.501152	0.187328
Zn9	Zn	-0.152296	-1.501187	0.187323
O10	O	0.115723	-1.492725	0.372035
C11	C	0.000062	-1.269160	0.194490
C12	C	0.000055	-1.128212	0.190708
N13	N	0.360415	-1.501137	0.187331
C14	C	0.000062	-1.508337	-0.044684
C15	C	0.000049	-1.504557	-0.185633
N16	N	-0.360271	-1.501212	0.187310
C17	C	0.580783	-1.397506	0.290299
C18	C	0.419615	-1.397734	0.290685
C19	C	0.418871	-1.633860	0.217465
C20	C	0.580089	-1.633295	0.218194
C21	C	0.580321	-1.473367	0.053892
C22	C	0.419094	-1.470321	0.054757
C23	C	0.000079	-1.733179	0.180162
C24	C	0.000076	-1.874127	0.183944
C25	C	0.000591	-0.944787	0.045790
C26	C	0.000056	-1.091405	0.049624
C27	C	-0.132017	-1.066553	0.258601
C28	C	-0.132113	-0.920009	0.253786
C29	C	0.130909	-0.919490	0.256661
C30	C	0.132640	-1.066472	0.257960
C31	C	0.000078	-1.494002	0.419336
C32	C	0.000082	-1.497781	0.560284
C33	C	0.000081	-1.638795	0.596954
C34	C	-0.000461	-1.642773	0.743555
C35	C	-0.131765	-1.433426	0.769617
C36	C	-0.131858	-1.430426	0.622852
C37	C	0.131173	-1.428343	0.622974
C38	C	0.132888	-1.434865	0.769320
H39	H	0.380095	-1.299117	0.272553
H40	H	-0.230765	-1.478484	0.582678
F41	F	0.143066	-1.098125	0.392409
H42	H	0.131804	-0.872261	0.358564
H43	H	-0.137459	-1.327050	0.599821
F44	F	0.369160	-1.342700	0.024900
H45	H	0.230346	-1.107424	0.208362
F46	F	-0.260496	-1.122231	0.196953
H47	H	0.621285	-1.415171	0.388722
F48	F	0.366442	-1.562514	-0.050230
F49	F	0.629228	-1.665125	0.345421
H50	H	0.381039	-1.415631	0.389669
F51	F	0.631056	-1.737180	0.123860
F52	F	0.143803	-1.303000	0.833402
F53	F	-0.137701	-1.300413	0.831517
F54	F	-0.138463	-1.095797	0.394014
F55	F	-0.260477	-1.497242	0.809999
H56	H	-0.138105	-0.872039	0.355251
H57	H	0.231122	-1.472463	0.580658
F58	F	0.123036	-1.715460	0.781911
H59	H	0.380520	-1.712916	0.144501
F60	F	-0.122516	-0.905314	-0.026763
F61	F	-0.261156	-0.883148	0.188193
H62	H	0.230406	-1.486629	0.797925
H63	H	0.378484	-1.658756	0.313703
H64	H	0.231018	-0.887933	0.211004
H65	H	0.621053	-1.378631	0.025213
F66	F	0.631478	-1.268196	0.266950
H67	H	0.094600	-1.692933	0.554993
H68	H	0.618438	-1.548980	-0.022763
F69	F	-0.124104	-1.145956	-0.020413
F70	F	0.123801	-1.147096	-0.020203
F71	F	0.132841	-1.292735	0.593972
H72	H	0.095307	-0.916192	-0.009944
H73	H	-0.095507	-1.698152	0.772006
F74	F	-0.123280	-1.708409	0.540148
