data_functionalizedCrystal
_audit_creation_method	'MofGen! by Chris Wilmer'
_symmetry_space_group_name_H-M	'P1'
_symmetry_Int_Tables_number	1
_symmetry_cell_setting	triclinic
loop_
_symmetry_equiv_pos_as_xyz
  x,y,z
_cell_length_a	14.908571
_cell_length_b	16.625546
_cell_length_c	14.908308
_cell_angle_alpha	93.264070
_cell_angle_beta	90.175053
_cell_angle_gamma	86.718495
loop_
_atom_site_label
_atom_site_type_symbol
_atom_site_fract_x
_atom_site_fract_y
_atom_site_fract_z
Zn1	Zn	1.345280	-0.420778	-0.587557
Zn2	Zn	1.353856	-0.548312	-0.437189
Zn3	Zn	1.203596	-0.405291	-0.428555
Zn4	Zn	1.194884	-0.547354	-0.578841
O5	O	1.274404	-0.480434	-0.508036
O6	O	1.472243	-0.444578	-0.574871
O7	O	1.341159	-0.523260	-0.310220
O8	O	1.222448	-0.294517	-0.449681
O9	O	1.478544	-0.538277	-0.464397
O10	O	1.326543	-0.305896	-0.566499
O11	O	1.230763	-0.418182	-0.303876
O12	O	1.076615	-0.417254	-0.441230
O13	O	1.207599	-0.536644	-0.705821
O14	O	1.070214	-0.521627	-0.551644
O15	O	1.318095	-0.443649	-0.712225
O16	O	1.332711	-0.661013	-0.455945
O17	O	1.215914	-0.660309	-0.560016
C18	C	1.040789	-0.467656	-0.494555
C19	C	0.940846	-0.462211	-0.488810
C20	C	0.746435	-0.560814	-0.592833
C21	C	0.652530	-0.555700	-0.587437
C22	C	0.659128	-0.446865	-0.472629
C23	C	0.753033	-0.451979	-0.478024
C24	C	0.796683	-0.508956	-0.538127
C25	C	0.890591	-0.514074	-0.543517
C26	C	0.897187	-0.405236	-0.428714
C27	C	0.803282	-0.400121	-0.423318
C28	C	1.274321	-0.689918	-0.507993
C29	C	1.274366	-0.779542	-0.508010
C30	C	1.274517	-1.107731	-0.508112
C31	C	1.274472	-1.016419	-0.508086
C32	C	1.274441	-0.943640	-0.508060
C33	C	1.274397	-0.852322	-0.508035
C34	C	1.508931	-0.493262	-0.521569
C35	C	1.608873	-0.498728	-0.527336
C36	C	1.260918	-0.491767	-0.742560
C37	C	1.255172	-0.496597	-0.842501
C38	C	1.274511	-0.270134	-0.508099
C39	C	1.274556	-0.180516	-0.508127
C40	C	1.359429	-0.408817	-1.036969
C41	C	1.354033	-0.413353	-1.130872
C42	C	1.238977	-0.510198	-1.124211
C43	C	1.244374	-0.505662	-1.030308
C44	C	1.304603	-0.454971	-0.986690
C45	C	1.310004	-0.450441	-0.892786
C46	C	1.194945	-0.547281	-0.886127
C47	C	1.189548	-0.551817	-0.980030
C48	C	1.287889	-0.469089	-0.274426
C49	C	1.293810	-0.464042	-0.174497
H50	H	0.767729	-0.353730	-0.374387
F51	F	0.937045	-0.574715	-0.607481
H52	H	0.623571	-0.400472	-0.423701
F53	F	1.125450	-0.605761	-1.026461
F54	F	0.950672	-0.350047	-0.370482
H55	H	1.150303	-0.584866	-0.845180
F56	F	1.374106	-0.396494	-0.846366
H57	H	0.781976	-0.607211	-0.641766
H58	H	1.408475	-0.367547	-1.001455
H59	H	0.611620	-0.597926	-0.631986
F60	F	1.412385	-0.364228	-1.184379
H61	H	1.189942	-0.551467	-1.159741
