data_functionalizedCrystal
_audit_creation_method	'MofGen! by Chris Wilmer'
_symmetry_space_group_name_H-M	'P1'
_symmetry_Int_Tables_number	1
_symmetry_cell_setting	triclinic
loop_
_symmetry_equiv_pos_as_xyz
  x,y,z
_cell_length_a	19.077105
_cell_length_b	19.077068
_cell_length_c	19.076919
_cell_angle_alpha	94.470751
_cell_angle_beta	89.923776
_cell_angle_gamma	89.884684
loop_
_atom_site_label
_atom_site_type_symbol
_atom_site_fract_x
_atom_site_fract_y
_atom_site_fract_z
Zn1	Zn	1.044048	0.340450	0.453500
Zn2	Zn	1.544048	0.840450	0.953500
Zn3	Zn	1.043962	0.453600	0.340340
Zn4	Zn	1.543962	0.953600	0.840340
Zn5	Zn	0.931660	0.331023	0.330931
Zn6	Zn	1.431660	0.831023	0.830931
Zn7	Zn	0.921801	0.453176	0.453077
Zn8	Zn	1.421801	0.953176	0.953077
O9	O	0.985368	0.394562	0.394462
O10	O	1.485368	0.894562	0.894462
O11	O	1.142196	0.359583	0.442604
O12	O	1.642196	0.859583	0.942604
O13	O	1.033154	0.433572	0.240616
O14	O	1.533154	0.933572	0.740616
O15	O	0.950731	0.233799	0.343429
O16	O	1.450731	0.733799	0.843429
O17	O	1.142133	0.442714	0.359466
O18	O	1.642133	0.942714	0.859466
O19	O	1.033302	0.240725	0.433479
O20	O	1.533302	0.740725	0.933479
O21	O	0.950647	0.343516	0.233703
O22	O	1.450647	0.843516	0.733703
O23	O	0.832193	0.343104	0.343019
O24	O	1.332193	0.843104	0.843019
O25	O	0.933928	0.441990	0.551609
O26	O	1.433928	0.941990	1.051609
O27	O	0.824949	0.432849	0.432759
O28	O	1.324949	0.932849	0.932759
O29	O	1.023742	0.359171	0.551919
O30	O	1.523742	0.859171	1.051919
O31	O	1.023594	0.552019	0.359056
O32	O	1.523594	1.052019	0.859056
O33	O	0.933844	0.551707	0.441883
O34	O	1.433844	1.051707	0.941883
C35	C	0.803119	0.386908	0.386822
C36	C	1.303119	0.886908	0.886822
C37	C	0.725151	0.383651	0.383571
C38	C	1.225151	0.883651	0.883571
C39	C	0.977745	0.401585	0.578012
C40	C	1.477745	0.901585	1.078012
C41	C	0.974497	0.404578	0.656230
C42	C	1.474497	0.904578	1.156230
C43	C	0.977658	0.577398	0.401461
C44	C	1.477658	1.077398	0.901461
C45	C	0.974423	0.655619	0.404482
C46	C	1.474423	1.155619	0.904482
C47	C	0.684769	0.428912	0.428699
C48	C	1.184769	0.928912	0.928699
C49	C	0.611510	0.425842	0.425647
C50	C	1.111510	0.925842	0.925647
C51	C	0.578634	0.377515	0.377464
C52	C	1.078634	0.877515	0.877464
C53	C	0.619022	0.332250	0.332335
C54	C	1.119022	0.832250	0.832335
C55	C	0.692280	0.335317	0.335390
C56	C	1.192280	0.835317	0.835390
C57	C	0.359940	0.363323	0.363326
C58	C	0.859940	0.863323	0.863326
C59	C	0.286677	0.360262	0.360273
C60	C	0.786677	0.860262	0.860273
C61	C	0.279170	0.453853	0.453586
C62	C	0.779170	0.953853	0.953586
C63	C	0.352429	0.456918	0.456635
C64	C	0.852429	0.956918	0.956635
C65	C	0.392810	0.411651	0.411508
C66	C	0.892810	0.911651	0.911508
N67	N	0.503752	0.374378	0.374342
N68	N	1.003752	0.874378	0.874342
N69	N	0.467691	0.414785	0.414634
N70	N	0.967691	0.914785	0.914634
C71	C	1.168328	0.402247	0.402132
C72	C	1.668328	0.902247	0.902132
C73	C	1.246295	0.405522	0.405400
C74	C	1.746295	0.905522	0.905400
C75	C	0.993126	0.211015	0.387451
C76	C	1.493126	0.711015	0.887451
C77	C	0.996432	0.132798	0.384464
C78	C	1.496432	0.632798	0.884464
C79	C	1.019665	0.692509	0.362816
C80	C	1.519665	1.192509	0.862816
C81	C	1.016626	0.766007	0.365661
C82	C	1.516626	1.266007	0.865661
C83	C	0.968342	0.802612	0.410169
C84	C	1.468342	1.302612	0.910169
C85	C	0.923098	0.765717	0.451839
C86	C	1.423098	1.265717	0.951839
C87	C	0.926141	0.692221	0.448997
C88	C	1.426141	1.192221	0.948997
C89	C	0.954231	1.022406	0.423292
C90	C	1.454231	1.522406	0.923292
C91	C	0.951190	1.095907	0.426130
C92	C	1.451190	1.595907	0.926130
C93	C	1.044720	1.096192	0.339952
C94	C	1.544720	1.596192	0.839952
C95	C	1.047755	1.022695	0.337111
C96	C	1.547755	1.522695	0.837111
C97	C	1.002514	0.985806	0.378784
C98	C	1.502514	1.485806	0.878784
N99	N	0.965233	0.877738	0.413077
N100	N	1.465233	1.377738	0.913077
N101	N	1.005627	0.910681	0.375880
N102	N	1.505627	1.410681	0.875880
C103	C	0.993003	0.387518	0.211626
C104	C	1.493003	0.887518	0.711626
C105	C	0.996396	0.384333	0.133406
C106	C	1.496396	0.884333	0.633406
C107	C	1.019730	0.362866	0.693140
C108	C	1.519730	0.862866	1.193140
C109	C	1.016669	0.365675	0.766634
C110	C	1.516669	0.865675	1.266634
C111	C	0.968378	0.410200	0.803216
C112	C	1.468378	0.910200	1.303216
C113	C	0.923140	0.451913	0.766301
C114	C	1.423140	0.951913	1.266301
C115	C	0.926198	0.449100	0.692809
C116	C	1.426198	0.949100	1.192809
C117	C	0.954216	0.423233	1.022998
C118	C	1.454216	0.923233	1.522998
C119	C	0.951163	0.426044	1.096496
C120	C	1.451163	0.926044	1.596496
C121	C	1.044691	0.339805	1.096823
C122	C	1.544691	0.839805	1.596823
C123	C	1.047748	0.337000	1.023329
C124	C	1.547748	0.837000	1.523329
C125	C	1.002507	0.378710	0.986421
C126	C	1.502507	0.878710	1.486421
N127	N	0.965250	0.413073	0.878339
N128	N	1.465250	0.913073	1.378339
N129	N	1.005632	0.375832	0.911299
N130	N	1.505632	0.875832	1.411299
H131	H	0.711530	0.468267	0.467932
H132	H	1.211530	0.968267	0.967932
H133	H	0.911879	1.125710	0.462386
H134	H	1.411879	1.625710	0.962386
C135	C	0.876439	0.494987	0.652208
C136	C	1.376439	0.994987	1.152208
N137	N	0.838958	0.529549	0.621629
N138	N	1.338958	1.029549	1.121629
H139	H	0.911836	0.462303	1.126280
H140	H	1.411836	0.962303	1.626280
H141	H	0.917388	0.457207	0.992957
H142	H	1.417388	0.957207	1.492957
C143	C	0.736700	0.285528	0.285745
C144	C	1.236700	0.785528	0.785745
N145	N	0.770157	0.248024	0.248351
N146	N	1.270157	0.748024	0.748351
H147	H	1.058980	0.662710	0.326570
H148	H	1.558980	1.162710	0.826570
H149	H	1.059056	0.326612	0.663360
H150	H	1.559056	0.826612	1.163360
H151	H	0.578633	0.462699	0.462394
H152	H	1.078633	0.962699	0.962394
C153	C	1.066392	0.806582	0.319821
C154	C	1.566392	1.306582	0.819821
N155	N	1.103877	0.837144	0.285290
N156	N	1.603877	1.337144	0.785290
H157	H	1.087072	0.992892	0.300869
H158	H	1.587072	1.492892	0.800869
H159	H	1.053504	0.331711	0.796682
H160	H	1.553504	0.831711	1.296682
H161	H	0.917392	0.992377	0.457223
H162	H	1.417392	1.492377	0.957223
C163	C	0.869982	0.805985	0.500796
C164	C	1.369982	1.305985	1.000796
N165	N	0.829971	0.836315	0.537668
N166	N	1.329971	1.336315	1.037668
C167	C	0.388586	0.510085	0.509637
C168	C	0.888586	1.010085	1.009637
N169	N	0.415820	0.550134	0.549556
N170	N	0.915820	1.050134	1.049556
C171	C	1.094484	1.136776	0.294117
C172	C	1.594484	1.636776	0.794117
N173	N	1.131970	1.167344	0.259594
N174	N	1.631970	1.667344	0.759594
H175	H	0.246283	0.490707	0.490327
H176	H	0.746283	0.990707	0.990327
C177	C	0.876371	0.651642	0.494833
C178	C	1.376371	1.151642	0.994833
N179	N	0.838885	0.621079	0.529360
N180	N	1.338885	1.121079	1.029360
C181	C	1.100865	0.288012	0.983093
C182	C	1.600865	0.788012	1.483093
N183	N	1.140872	0.251113	0.952787
N184	N	1.640872	0.751113	1.452787
C185	C	0.250516	0.307095	0.307266
C186	C	0.750516	0.807095	0.807266
N187	N	0.223279	0.267053	0.267343
N188	N	0.723279	0.767053	0.767343
C189	C	1.094444	0.293918	1.137428
C190	C	1.594444	0.793918	1.637428
N191	N	1.131916	0.259350	1.168012
N192	N	1.631916	0.759350	1.668012
H193	H	0.883818	0.488163	0.796093
H194	H	1.383818	0.988163	1.296093
H195	H	0.592249	0.292898	0.293106
H196	H	1.092249	0.792898	0.793106
C197	C	0.404350	0.313531	0.313681
C198	C	0.904350	0.813531	0.813681
N199	N	0.437802	0.276027	0.276284
N200	N	0.937802	0.776027	0.776284
