data_functionalizedCrystal
_audit_creation_method	'MofGen! by Chris Wilmer'
_symmetry_space_group_name_H-M	'P1'
_symmetry_Int_Tables_number	1
_symmetry_cell_setting	triclinic
loop_
_symmetry_equiv_pos_as_xyz
  x,y,z
_cell_length_a	6.817900
_cell_length_b	9.514072
_cell_length_c	10.992410
_cell_angle_alpha	88.554233
_cell_angle_beta	108.764651
_cell_angle_gamma	118.843421
loop_
_atom_site_label
_atom_site_type_symbol
_atom_site_fract_x
_atom_site_fract_y
_atom_site_fract_z
V1	V	-4.172171	-0.222204	-0.401600
O2	O	-4.069593	0.010678	-0.392919
O3	O	-4.206678	-0.440594	-0.399849
O4	O	-4.148872	-0.218786	-0.576297
O5	O	-4.127799	-0.212665	-0.215250
V6	V	-4.641803	-0.194349	-0.379190
O7	O	-4.463899	-0.283307	-0.450758
O8	O	-4.800272	-0.133246	-0.330032
O9	O	-4.384090	0.024041	-0.380940
O10	O	-4.861778	-0.427231	-0.387870
O11	O	-4.803572	-0.203888	-0.565539
O12	O	-4.441896	-0.197767	-0.204493
C13	C	-4.071035	-0.493833	-0.393771
C14	C	-4.180703	-0.672369	-0.393504
C15	C	-3.997296	-0.210893	-0.618845
C16	C	-4.060079	-0.209543	-0.761668
C17	C	-3.923996	-0.197247	-0.956735
C18	C	-3.858986	-0.199316	-0.808261
C19	C	-4.299373	-0.367896	-0.839489
C20	C	-4.363322	-0.366496	-0.988049
C21	C	-4.161158	-0.059868	-0.948628
C22	C	-4.090253	-0.059117	-0.799612
C23	C	-4.183077	0.077271	-0.387015
C24	C	-4.052649	0.255805	-0.387290
C25	C	-4.256814	-0.205665	-0.161937
C26	C	-4.173267	-0.207007	-0.019114
H27	H	-3.776908	-0.082602	-0.975045
C28	C	-4.381788	-0.515184	-1.050536
C29	C	-4.612702	-0.610844	-1.141759
C30	C	-4.629799	-0.747837	-1.199328
H31	H	-4.268327	-0.481731	-1.092835
H32	H	-4.350246	-0.576696	-0.985401
H33	H	-4.644218	-0.549343	-1.206884
H34	H	-4.726206	-0.644339	-1.099493
H35	H	-4.598257	-0.809350	-1.134193
H36	H	-4.516327	-0.714369	-1.241620
H37	H	-4.786478	-0.812767	-1.261221
C38	C	-4.438957	-0.772351	-0.400609
C39	C	-4.589352	-0.758136	-0.515677
C40	C	-4.827262	-0.850200	-0.522256
H41	H	-4.481210	-0.883123	-0.399634
H42	H	-4.456076	-0.733646	-0.327994
H43	H	-4.572245	-0.796849	-0.588273
H44	H	-4.547176	-0.647385	-0.516677
H45	H	-4.844381	-0.811495	-0.449641
H46	H	-4.869490	-0.960967	-0.521277
H47	H	-4.929332	-0.840556	-0.600323
C48	C	-3.621356	-0.047446	-0.736680
C49	C	-3.535164	0.047018	-0.827031
C50	C	-3.316239	0.186921	-0.761145
H51	H	-3.643434	0.013613	-0.680599
H52	H	-3.509217	-0.077689	-0.686791
H53	H	-3.647277	0.077263	-0.876897
H54	H	-3.513031	-0.013993	-0.883114
H55	H	-3.204099	0.156679	-0.711257
H56	H	-3.338339	0.247967	-0.705067
H57	H	-3.257719	0.251025	-0.822438
C58	C	-3.858710	0.097270	-0.729259
C59	C	-3.887890	0.230454	-0.763906
C60	C	-3.674633	0.374540	-0.699125
H61	H	-3.819547	0.099311	-0.637969
H62	H	-3.733415	0.102638	-0.753126
H63	H	-4.013146	0.225089	-0.740031
H64	H	-3.927019	0.228467	-0.855186
H65	H	-3.549338	0.379908	-0.722992
H66	H	-3.635488	0.376564	-0.607837
H67	H	-3.694396	0.464923	-0.722633
H68	H	-3.859082	-0.669090	-0.382111
C69	C	-3.927185	-0.337992	-1.021498
C70	C	-3.751051	-0.277262	-1.078292
C71	C	-3.753951	-0.406868	-1.137984
H72	H	-3.895982	-0.401561	-0.958241
H73	H	-4.079842	-0.403527	-1.086746
H74	H	-3.598429	-0.211754	-1.013051
H75	H	-3.782215	-0.213708	-1.141567
H76	H	-3.906607	-0.472403	-1.203231
H77	H	-3.722753	-0.470428	-1.074719
H78	H	-3.634462	-0.365681	-1.176535
H79	H	-3.829747	-0.306505	-0.783932
H80	H	-4.026898	0.060382	-0.968442
C81	C	-4.504818	-0.385772	-0.801382
C82	C	-4.715138	-0.528086	-0.872603
C83	C	-4.904441	-0.544594	-0.837541
H84	H	-4.469621	-0.391449	-0.711084
H85	H	-4.525785	-0.294760	-0.819609
H86	H	-4.694170	-0.619075	-0.854366
H87	H	-4.750409	-0.522443	-0.962902
H88	H	-4.925409	-0.453582	-0.855768
H89	H	-4.869221	-0.550265	-0.747243
H90	H	-5.047169	-0.641146	-0.885867
H91	H	-4.548913	-0.380266	-1.030743
H92	H	-4.282724	-0.479581	-0.814390
H93	H	-4.231881	-0.057257	-0.767092
H94	H	-4.341642	-0.065623	-0.989495
