data_functionalizedCrystal
_audit_creation_method	'MofGen! by Chris Wilmer'
_symmetry_space_group_name_H-M	'P1'
_symmetry_Int_Tables_number	1
_symmetry_cell_setting	triclinic
loop_
_symmetry_equiv_pos_as_xyz
  x,y,z
_cell_length_a	33.510554
_cell_length_b	33.509711
_cell_length_c	33.506470
_cell_angle_alpha	60.004186
_cell_angle_beta	60.008358
_cell_angle_gamma	59.994760
loop_
_atom_site_label
_atom_site_type_symbol
_atom_site_fract_x
_atom_site_fract_y
_atom_site_fract_z
O1	O	0.055430	-0.583081	0.487524
O2	O	0.020931	-0.453975	0.392819
O3	O	0.102693	-0.535652	0.392731
O4	O	-0.026332	-0.501404	0.487613
O5	O	0.129823	-0.508526	0.419767
O6	O	0.048062	-0.426850	0.419856
O7	O	0.082561	-0.555956	0.514561
Cu8	Cu	0.067789	-0.488926	0.469677
Cu9	Cu	0.035703	-0.521005	0.437703
O10	O	0.000799	-0.474279	0.514649
N11	N	0.090357	-0.466366	0.492168
N12	N	0.013139	-0.543569	0.415212
C13	C	0.143028	-0.279707	0.544737
C14	C	0.143165	-0.413746	0.678712
C15	C	0.143043	-0.413725	0.544739
C16	C	0.277090	-0.413694	0.544637
C17	C	0.157791	-0.323929	0.559462
C18	C	0.157869	-0.398994	0.634489
C19	C	0.232865	-0.398963	0.559407
C20	C	0.157801	-0.398982	0.559463
C21	C	0.124237	-0.223419	0.525994
C22	C	0.124262	-0.432490	0.525997
C23	C	0.176583	-0.380217	0.578205
C24	C	0.358938	-0.399566	0.501510
C25	C	0.410104	-0.416609	0.484423
C26	C	0.410135	-0.499402	0.515995
C27	C	0.358969	-0.482358	0.533084
C28	C	0.136554	-0.197822	0.475693
C29	C	0.119469	-0.146653	0.458657
C30	C	0.077755	-0.146680	0.542223
C31	C	0.094840	-0.197850	0.559260
C32	C	0.073954	-0.420144	0.538396
C33	C	0.056884	-0.437203	0.521352
C34	C	0.140427	-0.478952	0.479524
C35	C	0.157498	-0.461894	0.496561
C36	C	0.074158	-0.420182	0.760618
C37	C	0.057149	-0.437256	0.811786
C38	C	0.140732	-0.479014	0.811717
C39	C	0.157740	-0.461942	0.760547
C40	C	0.124452	-0.432525	0.734999
C41	C	0.333372	-0.432439	0.525839
C42	C	-0.020612	-0.577650	0.170305
C43	C	-0.020943	-0.788098	0.380897
C44	C	-0.020912	-0.577638	0.380991
C45	C	-0.231336	-0.577418	0.380585
C46	C	-0.129735	-0.611383	0.346870
C47	C	-0.054722	-0.611464	0.347017
C48	C	-0.073450	-0.630202	0.328195
C49	C	-0.087616	-0.712029	0.371239
C50	C	-0.070599	-0.763199	0.388315
C51	C	0.012191	-0.763282	0.356872
C52	C	-0.004828	-0.712113	0.339795
C53	C	-0.155381	-0.623711	0.397158
C54	C	-0.206547	-0.606601	0.414133
C55	C	-0.206417	-0.564839	0.330529
C56	C	-0.155251	-0.581949	0.313554
C57	C	-0.067051	-0.561160	0.334643
C58	C	-0.050026	-0.544131	0.351759
C59	C	-0.008343	-0.627704	0.393612
C60	C	-0.025368	-0.644736	0.376502
C61	C	-0.066922	-0.561168	0.246303
C62	C	-0.049794	-0.544141	0.195134
C63	C	-0.008048	-0.627719	0.195183
C64	C	-0.025175	-0.644745	0.246352
C65	C	-0.054614	-0.611468	0.271911
C66	C	-0.054732	-0.686488	0.346980
C67	C	-0.002117	-0.558258	0.114025
C68	C	-0.002879	-0.844379	0.399940
C69	C	-0.002504	-0.558243	0.399473
C70	C	-0.287615	-0.558285	0.398601
N71	N	0.434975	-0.466279	0.491900
O72	O	0.591199	-0.470749	0.375150
O73	O	0.591395	-0.565767	0.504116
O74	O	0.591311	-0.565550	0.422329
O75	O	0.591283	-0.470966	0.456937
O76	O	0.510024	-0.538522	0.449509
O77	O	0.510108	-0.538739	0.531297
O78	O	0.509913	-0.443721	0.402330
Cu79	Cu	0.502588	-0.488762	0.469295
Cu80	Cu	0.598719	-0.520726	0.437151
O81	O	0.509997	-0.443938	0.484117
N82	N	0.666332	-0.543209	0.414541
N83	N	0.090323	-0.121809	0.492157
O84	O	-0.026342	0.034503	0.487582
O85	O	0.102626	0.034543	0.392540
O86	O	0.020797	0.034507	0.392812
O87	O	0.055487	0.034539	0.487310
O88	O	0.047933	-0.046785	0.419900
O89	O	0.129763	-0.046749	0.419628
O90	O	0.000794	-0.046789	0.514670
Cu91	Cu	0.067756	-0.054192	0.469623
Cu92	Cu	0.035664	0.041946	0.437588
O93	O	0.082623	-0.046753	0.514399
N94	N	0.013091	0.109564	0.415054
N95	N	0.090671	-0.466416	0.836606
O96	O	0.086120	-0.583065	0.992910
O97	O	-0.008880	-0.454051	0.992954
O98	O	-0.008658	-0.535864	0.992931
O99	O	0.085897	-0.501252	0.992933
O100	O	0.018407	-0.508749	0.911642
O101	O	0.018185	-0.426936	0.911665
O102	O	0.113185	-0.555949	0.911621
Cu103	Cu	0.068156	-0.488967	0.904221
Cu104	Cu	0.036148	-0.521034	1.000355
O105	O	0.112963	-0.474136	0.911644
N106	N	0.013633	-0.543590	1.067970
C107	C	0.031262	-0.424144	0.393290
C108	C	0.132513	-0.525291	0.393180
C109	C	0.072229	-0.585787	0.514090
C110	C	-0.029022	-0.484640	0.514200
C111	C	0.550775	-0.565338	0.533954
C112	C	0.550672	-0.565070	0.432670
C113	C	0.550530	-0.444149	0.372492
C114	C	0.550635	-0.444418	0.473776
C115	C	0.132408	-0.005998	0.392963
C116	C	0.031106	-0.006142	0.393333
C117	C	-0.029021	-0.006147	0.514213
C118	C	0.072314	-0.006104	0.513878
C119	C	-0.008430	-0.424240	0.952316
C120	C	-0.008150	-0.525550	0.952271
C121	C	0.112735	-0.585760	0.952260
C122	C	0.112461	-0.484444	0.952286
H123	H	0.016194	-0.427197	0.832639
N124	N	-0.078110	-0.474978	0.553665
H125	H	-0.084448	-0.446649	0.561807
H126	H	-0.078177	-0.505077	0.583843
H127	H	-0.037843	-0.532946	0.952238
N128	N	0.550685	-0.604432	0.422869
H129	H	0.580845	-0.633978	0.426706
H130	H	0.550623	-0.591708	0.388476
N131	N	0.550623	-0.405059	0.483581
H132	H	0.550573	-0.374796	0.453566
H133	H	0.580779	-0.417070	0.491810
H134	H	-0.066059	-0.006159	0.544050
H135	H	0.142562	-0.622811	0.952240
H136	H	0.169570	-0.532590	0.363385
N137	N	0.550455	-0.404631	0.323433
H138	H	0.520303	-0.375107	0.327996
H139	H	0.550459	-0.417205	0.301611
N140	N	0.081993	-0.634912	0.553492
H141	H	0.090224	-0.661340	0.541551
H142	H	0.051944	-0.635036	0.583716
N143	N	0.211760	-0.475212	0.483190
H144	H	0.220730	-0.493676	0.513926
H145	H	0.220645	-0.444435	0.464718
N146	N	0.550842	-0.604853	0.583017
H147	H	0.550855	-0.592319	0.604864
H148	H	0.580994	-0.634365	0.578416
H149	H	0.169370	-0.005761	0.363053
N150	N	0.082146	-0.006081	0.553203
H151	H	0.116548	-0.006065	0.540505
H152	H	0.078272	-0.036217	0.582759
H153	H	0.142166	-0.477036	0.952281
H154	H	0.053825	-0.125861	0.569312
H155	H	0.023891	-0.387055	0.363546
N156	N	0.066017	-0.790922	0.349129
H157	H	0.085044	-0.782042	0.312967
H158	H	0.071764	-0.827205	0.363657
H159	H	0.047048	-0.396226	0.739820
H160	H	0.023675	-0.006147	0.363643
N161	N	-0.047939	-0.375161	0.952328
H162	H	-0.035410	-0.353309	0.952333
H163	H	-0.077459	-0.379738	0.982466
H164	H	0.198696	-0.471996	0.739692
N165	N	0.176634	-0.510732	0.839274
H166	H	0.211077	-0.515958	0.815280
H167	H	0.171403	-0.543332	0.860502
N168	N	0.038107	-0.388423	0.570135
H169	H	0.003647	-0.383186	0.575396
H170	H	0.043352	-0.355827	0.553510
H171	H	0.167497	-0.502899	0.455559
N172	N	0.002624	-0.423891	0.534723
H173	H	-0.012639	-0.436413	0.571430
H174	H	-0.003103	-0.439159	0.519427
N175	N	0.331396	-0.517817	0.559328
H176	H	0.355379	-0.552025	0.561320
H177	H	0.310144	-0.508692	0.540808
H178	H	0.430920	-0.389838	0.464614
N179	N	0.437744	-0.553242	0.523807
H180	H	0.413784	-0.571483	0.541814
H181	H	0.458996	-0.565971	0.543703
H182	H	0.160490	-0.218637	0.448603
N183	N	0.331327	-0.345723	0.493696
H184	H	0.355290	-0.327486	0.475691
H185	H	0.310119	-0.340704	0.526395
H186	H	0.129496	-0.125810	0.417697
H187	H	0.084809	-0.218687	0.600218
H188	H	-0.059824	-0.503179	0.174290
H189	H	0.015913	-0.654818	0.174378
N190	N	-0.098676	-0.525279	0.273874
H191	H	-0.129414	-0.504022	0.264911
H192	H	-0.080193	-0.504102	0.264997
N193	N	-0.011894	-0.699001	0.273972
H194	H	0.009352	-0.717496	0.250015
H195	H	-0.042683	-0.707862	0.295156
N196	N	-0.063321	-0.489877	0.338426
H197	H	-0.100025	-0.474545	0.350875
H198	H	-0.050736	-0.474633	0.301723
N199	N	0.023309	-0.663594	0.425418
H200	H	0.054086	-0.684860	0.407019
H201	H	0.004779	-0.684760	0.456154
N202	N	-0.012075	-0.698990	0.389836
H203	H	-0.024628	-0.714274	0.426537
H204	H	0.024630	-0.714282	0.377354
H205	H	-0.090949	-0.534065	0.310634
H206	H	-0.097376	-0.783993	0.408060
N207	N	0.030638	-0.684559	0.313631
H208	H	0.055589	-0.693487	0.283412
H209	H	0.047770	-0.693486	0.336083
N210	N	-0.141441	-0.684392	0.378990
H211	H	-0.159690	-0.708340	0.396950
H212	H	-0.146418	-0.663165	0.346272
H213	H	-0.134607	-0.647683	0.424287
H214	H	-0.227194	-0.540877	0.303400
N215	N	-0.234213	-0.619892	0.468375
H216	H	-0.210285	-0.641134	0.486905
H217	H	-0.255449	-0.638300	0.477227
H218	H	-0.134369	-0.571905	0.272603
