data_functionalizedCrystal
_audit_creation_method	'MofGen! by Chris Wilmer'
_symmetry_space_group_name_H-M	'P1'
_symmetry_Int_Tables_number	1
_symmetry_cell_setting	triclinic
loop_
_symmetry_equiv_pos_as_xyz
  x,y,z
_cell_length_a	21.395362
_cell_length_b	16.625546
_cell_length_c	16.625539
_cell_angle_alpha	90.028532
_cell_angle_beta	90.036465
_cell_angle_gamma	90.038346
loop_
_atom_site_label
_atom_site_type_symbol
_atom_site_fract_x
_atom_site_fract_y
_atom_site_fract_z
Zn1	Zn	0.957849	-0.320673	0.456315
Zn2	Zn	1.457849	0.179327	0.956315
Zn3	Zn	0.957780	-0.455512	0.321478
Zn4	Zn	1.457780	0.044488	0.821478
Zn5	Zn	0.853078	-0.320734	0.321450
Zn6	Zn	1.353078	0.179266	0.821450
Zn7	Zn	0.853048	-0.455505	0.456222
Zn8	Zn	1.353048	0.044495	0.956222
O9	O	0.905439	-0.388106	0.388866
O10	O	1.405439	0.111894	0.888866
O11	O	1.045518	-0.338537	0.438479
O12	O	1.545518	0.161463	0.938479
O13	O	0.943875	-0.437662	0.208642
O14	O	1.443875	0.062338	0.708642
O15	O	0.867017	-0.207894	0.339368
O16	O	1.367017	0.292106	0.839368
O17	O	1.045467	-0.437603	0.339415
O18	O	1.545467	0.062397	0.839415
O19	O	0.943992	-0.207849	0.438453
O20	O	1.443992	0.292151	0.938453
O21	O	0.866950	-0.338642	0.208621
O22	O	1.366950	0.161358	0.708621
O23	O	0.765396	-0.338635	0.339277
O24	O	1.265396	0.161365	0.839277
O25	O	0.866967	-0.437591	0.569067
O26	O	1.366967	0.062409	1.069067
O27	O	0.765374	-0.437650	0.438293
O28	O	1.265374	0.062350	0.938293
O29	O	0.943964	-0.338530	0.569135
O30	O	1.443964	0.161470	1.069135
O31	O	0.943846	-0.568343	0.339324
O32	O	1.443846	-0.068343	0.839324
O33	O	0.866900	-0.568338	0.438320
O34	O	1.366900	-0.068338	0.938320
C35	C	0.742651	-0.388149	0.388773
C36	C	1.242651	0.111851	0.888773
C37	C	0.673010	-0.388186	0.388752
C38	C	1.173010	0.111814	0.888752
C39	C	0.640302	-0.439812	0.440232
C40	C	1.140302	0.060188	0.940232
C41	C	0.574867	-0.439792	0.440268
C42	C	1.074867	0.060208	0.940268
C43	C	0.542142	-0.388155	0.388809
C44	C	1.042142	0.111845	0.888809
C45	C	0.574858	-0.336520	0.337325
C46	C	1.074858	0.163480	0.837325
C47	C	0.640292	-0.336535	0.337296
C48	C	1.140292	0.163465	0.837296
C49	C	0.438424	-0.381673	0.316222
C50	C	0.938424	0.118327	0.816222
C51	C	0.372991	-0.381663	0.316249
C52	C	0.872991	0.118337	0.816249
C53	C	0.340321	-0.388103	0.388898
C54	C	0.840321	0.111897	0.888898
C55	C	0.373092	-0.394570	0.461523
C56	C	0.873092	0.105430	0.961523
C57	C	0.438526	-0.394585	0.461494
C58	C	0.938526	0.105415	0.961494
C59	C	0.471189	-0.388132	0.388835
C60	C	0.971189	0.111868	0.888835
C61	C	0.236660	-0.439710	0.440422
C62	C	0.736660	0.060290	0.940422
C63	C	0.171224	-0.439684	0.440459
C64	C	0.671224	0.060316	0.940459
C65	C	0.171216	-0.336416	0.337509
C66	C	0.671216	0.163584	0.837509
C67	C	0.236651	-0.336437	0.337479
C68	C	0.736651	0.163563	0.837479
C69	C	0.269370	-0.388088	0.388934
C70	C	0.769370	0.111912	0.888934
C71	C	0.905380	-0.597597	0.388832
C72	C	1.405380	-0.097597	0.888832
C73	C	0.905412	-0.687218	0.388845
C74	C	1.405412	-0.187218	0.888845
C75	C	0.905521	-1.015394	0.388929
C76	C	1.405521	-0.515394	0.888929
C77	C	0.905488	-0.924085	0.388908
C78	C	1.405488	-0.424085	0.888908
C79	C	0.905466	-0.851309	0.388887
C80	C	1.405466	-0.351309	0.888887
C81	C	0.905434	-0.759995	0.388866
C82	C	1.405434	-0.259995	0.888866
C83	C	1.068862	-0.388064	0.388961
C84	C	1.568862	0.111936	0.888961
C85	C	1.138503	-0.388046	0.389001
C86	C	1.638503	0.111954	0.889001
C87	C	0.905470	-0.388053	0.599175
C88	C	1.405470	0.111947	1.099175
C89	C	0.905483	-0.388030	0.688796
C90	C	1.405483	0.111970	1.188796
C91	C	0.905515	-0.177797	0.388918
C92	C	1.405515	0.322203	0.888918
C93	C	0.905548	-0.088176	0.388940
C94	C	1.405548	0.411824	0.888940
C95	C	0.905444	-0.388101	0.179375
C96	C	1.405444	0.111899	0.679375
C97	C	0.905553	-0.387896	0.089755
C98	C	1.405553	0.112104	0.589755
C99	C	0.905493	-0.388012	0.761579
C100	C	1.405493	0.111988	1.261579
C101	C	0.905508	-0.387982	0.852887
C102	C	1.405508	0.112018	1.352887
C103	C	0.905522	-0.387954	0.925664
C104	C	1.405522	0.112046	1.425664
C105	C	0.905538	-0.387925	1.016978
C106	C	1.405538	0.112075	1.516978
H107	H	0.144594	-0.481723	0.482386
H108	H	0.644594	0.018277	0.982386
C109	C	0.676275	-0.279749	0.280664
C110	C	1.176275	0.220251	0.780664
H111	H	0.719931	-0.287152	0.288020
H112	H	1.219931	0.212848	0.788020
H113	H	0.665501	-0.291472	0.226472
H114	H	1.165501	0.208528	0.726472
H115	H	0.665598	-0.225583	0.292575
H116	H	1.165598	0.274417	0.792575
C117	C	0.538866	-0.279719	0.280721
C118	C	1.038866	0.220281	0.780721
H119	H	0.567720	-0.248969	0.250060
H120	H	1.067720	0.251031	0.750060
H121	H	0.513293	-0.310508	0.245543
H122	H	1.013293	0.189492	0.745543
H123	H	0.513387	-0.244620	0.311646
H124	H	1.013387	0.255380	0.811646
C125	C	0.336945	-0.374606	0.236364
C126	C	0.836945	0.125394	0.736364
H127	H	0.293296	-0.375547	0.246783
H128	H	0.793296	0.124453	0.746783
H129	H	0.347664	-0.325501	0.210632
H130	H	0.847664	0.174499	0.710632
H131	H	0.347632	-0.418449	0.202396
H132	H	0.847632	0.081551	0.702396
H133	H	0.666937	-0.481869	0.482132
H134	H	1.166937	0.018131	0.982132
H135	H	0.465018	-0.376425	0.257058
H136	H	0.965018	0.123575	0.757058
H137	H	0.263301	-0.481763	0.482324
H138	H	0.763301	0.018237	0.982324
H139	H	0.548231	-0.481832	0.482193
H140	H	1.048231	0.018168	0.982193
H141	H	0.465206	-0.399848	0.520627
H142	H	0.965206	0.100152	1.020627
H143	H	0.346494	-0.399812	0.520681
H144	H	0.846494	0.100188	1.020681
H145	H	0.144572	-0.294368	0.295614
H146	H	0.644572	0.205632	0.795614
H147	H	0.263283	-0.294402	0.295554
H148	H	0.763283	0.205598	0.795554
