data_functionalizedCrystal
_audit_creation_method	'MofGen! by Chris Wilmer'
_symmetry_space_group_name_H-M	'P1'
_symmetry_Int_Tables_number	1
_symmetry_cell_setting	triclinic
loop_
_symmetry_equiv_pos_as_xyz
  x,y,z
_cell_length_a	11.792254
_cell_length_b	12.503572
_cell_length_c	11.792241
_cell_angle_alpha	93.547243
_cell_angle_beta	95.803993
_cell_angle_gamma	93.542595
loop_
_atom_site_label
_atom_site_type_symbol
_atom_site_fract_x
_atom_site_fract_y
_atom_site_fract_z
O1	O	1.513405	0.089320	-0.149111
O2	O	2.013405	0.589320	0.350889
O3	O	1.183066	0.089323	-0.165128
O4	O	1.683066	0.589323	0.334872
O5	O	1.356251	0.089314	0.008050
O6	O	1.856251	0.589314	0.508050
O7	O	1.340219	0.089329	-0.322289
O8	O	1.840219	0.589329	0.177711
O9	O	1.343227	-0.089328	-0.004996
O10	O	1.843227	0.410672	0.495004
O11	O	1.170041	-0.089319	-0.178174
O12	O	1.670041	0.410681	0.321826
O13	O	1.500380	-0.089321	-0.162156
O14	O	2.000380	0.410679	0.337844
Cu15	Cu	1.334022	-0.105631	-0.171357
Cu16	Cu	1.834022	0.394369	0.328643
Cu17	Cu	1.349425	0.105633	-0.155928
Cu18	Cu	1.849425	0.605633	0.344072
O19	O	1.327195	-0.089312	-0.335335
O20	O	1.827195	0.410688	0.164665
C21	C	1.134263	0.000002	-0.170642
C22	C	1.634263	0.500002	0.329358
C23	C	1.008250	0.000003	-0.167622
C24	C	1.508250	0.500003	0.332378
C25	C	0.905914	0.000007	-0.165168
C26	C	1.405914	0.500007	0.334832
C27	C	0.777527	0.000008	-0.162099
C28	C	1.277527	0.500008	0.337901
N29	N	1.323196	-0.254223	-0.182207
N30	N	1.823196	0.245777	0.317793
C31	C	1.307272	-0.473337	-0.198178
C32	C	1.807272	0.026663	0.301822
C33	C	1.376180	-0.526668	-0.129101
C34	C	1.876180	-0.026668	0.370899
C35	C	1.367319	-0.648591	-0.137988
C36	C	1.867319	-0.148591	0.362012
C37	C	1.316131	-0.351404	-0.189293
C38	C	1.816131	0.148596	0.310707
C39	C	1.549183	0.000002	-0.156642
C40	C	2.049183	0.500002	0.343358
C41	C	1.675197	0.000008	-0.159662
C42	C	2.175197	0.500008	0.340338
C43	C	1.348732	-0.000007	0.043818
C44	C	1.848732	0.499993	0.543818
C45	C	1.345718	-0.000005	0.169832
C46	C	1.845718	0.499995	0.669832
N47	N	1.360259	0.254224	-0.145069
N48	N	1.860259	0.754224	0.354931
C49	C	1.334714	0.000010	-0.371103
C50	C	1.834714	0.500010	0.128897
C51	C	1.337729	0.000016	-0.497116
C52	C	1.837729	0.500016	0.002884
C53	C	1.340176	0.000013	0.400546
C54	C	1.840176	0.500013	0.900546
C55	C	1.343255	0.000003	0.272160
C56	C	1.843255	0.500003	0.772160
H57	H	1.441828	-0.480759	-0.063289
H58	H	1.941828	0.019241	0.436711
H59	H	1.241629	-0.519242	-0.263988
H60	H	1.741629	-0.019242	0.236012
