data_functionalizedCrystal
_audit_creation_method	'MofGen! by Chris Wilmer'
_symmetry_space_group_name_H-M	'P1'
_symmetry_Int_Tables_number	1
_symmetry_cell_setting	triclinic
loop_
_symmetry_equiv_pos_as_xyz
  x,y,z
_cell_length_a	19.188930
_cell_length_b	14.044190
_cell_length_c	12.503552
_cell_angle_alpha	86.163821
_cell_angle_beta	93.525087
_cell_angle_gamma	88.168277
loop_
_atom_site_label
_atom_site_type_symbol
_atom_site_fract_x
_atom_site_fract_y
_atom_site_fract_z
O1	O	0.937485	0.112791	0.089682
O2	O	1.437485	0.612791	0.589682
O3	O	0.735199	0.128722	0.089610
O4	O	1.235199	0.628722	0.589610
O5	O	0.833302	-0.017214	0.089624
O6	O	1.333302	0.482786	0.589624
O7	O	0.839382	0.258728	0.089668
O8	O	1.339382	0.758728	0.589668
O9	O	0.825915	-0.006229	-0.089020
O10	O	1.325915	0.493771	0.410980
O11	O	0.727812	0.139707	-0.089033
O12	O	1.227812	0.639707	0.410967
O13	O	0.930098	0.123776	-0.088962
O14	O	1.430098	0.623776	0.411038
Cu15	Cu	0.828281	0.132745	-0.105309
Cu16	Cu	1.328281	0.632745	0.394691
Cu17	Cu	0.837016	0.119754	0.105958
Cu18	Cu	1.337016	0.619754	0.605958
O19	O	0.831995	0.269713	-0.088975
O20	O	1.331995	0.769713	0.411025
C21	C	0.826950	-0.047025	0.000298
C22	C	1.326950	0.452975	0.500298
C23	C	0.819018	-0.152217	0.000286
C24	C	1.319018	0.347783	0.500286
C25	C	0.705461	0.133699	0.000279
C26	C	1.205461	0.633699	0.500279
C27	C	0.627855	0.132153	0.000250
C28	C	1.127855	0.632153	0.500250
C29	C	0.860769	-0.402680	0.000343
C30	C	1.360769	0.097320	0.500343
C31	C	0.804532	-0.344816	0.000315
C32	C	1.304532	0.155184	0.500315
C33	C	0.812594	-0.237644	0.000299
C34	C	1.312594	0.262356	0.500299
C35	C	0.852707	-0.509862	0.000359
C36	C	1.352707	-0.009862	0.500359
C37	C	0.588460	0.217781	0.000281
C38	C	1.088460	0.717781	0.500281
C39	C	0.515543	0.216326	0.000293
C40	C	1.015543	0.716326	0.500293
C41	C	0.482024	0.129236	0.000295
C42	C	0.982024	0.629236	0.500295
C43	C	0.521429	0.043597	0.000258
C44	C	1.021429	0.543597	0.500258
C45	C	0.594344	0.045056	0.000236
C46	C	1.094344	0.545056	0.500236
N47	N	0.372263	0.058927	0.061128
N48	N	0.872263	0.558927	0.561128
N49	N	0.302996	0.057547	0.061151
N50	N	0.802996	0.557547	0.561151
C51	C	0.262335	0.124837	0.000360
C52	C	0.762335	0.624837	0.500360
N53	N	0.293557	0.193573	-0.060442
N54	N	0.793557	0.693573	0.439558
N55	N	0.362830	0.194955	-0.060461
N56	N	0.862830	0.694955	0.439539
C57	C	0.402960	0.127645	0.000319
C58	C	0.902960	0.627645	0.500319
C59	C	0.143874	0.208894	0.000402
C60	C	0.643874	0.708894	0.500402
C61	C	0.070955	0.207435	0.000407
C62	C	0.570955	0.707435	0.500407
C63	C	0.076844	0.034703	0.000383
C64	C	0.576844	0.534703	0.500383
C65	C	0.149760	0.036165	0.000368
C66	C	0.649760	0.536165	0.500368
C67	C	0.183271	0.123262	0.000382
C68	C	0.683271	0.623262	0.500382
C69	C	0.959836	0.118799	0.000372
C70	C	1.459836	0.618799	0.500372
C71	C	1.037442	0.120345	0.000407
C72	C	1.537442	0.620345	0.500407
C73	C	0.838347	0.299523	0.000353
C74	C	1.338347	0.799523	0.500353
C75	C	0.846279	0.404715	0.000372
C76	C	1.346279	0.904715	0.500372
N77	N	0.822142	0.141881	-0.253903
N78	N	1.322142	0.641881	0.246097
C79	C	0.852187	0.097167	-0.526332
C80	C	1.352187	0.597167	-0.026332
C81	C	0.813117	0.155321	-0.473013
C82	C	1.313117	0.655321	0.026987
C83	C	0.818139	0.147841	-0.351089
C84	C	1.318139	0.647841	0.148911
C85	C	0.847165	0.104645	-0.648267
C86	C	1.347165	0.604645	-0.148267
N87	N	0.843160	0.110610	0.254551
N88	N	1.343160	0.610610	0.754551
H89	H	0.750331	-0.375766	0.000302
H90	H	1.250331	0.124234	0.500302
H91	H	0.889407	0.041766	-0.480416
H92	H	1.389407	0.541766	0.019584
Br93	Br	0.751079	0.247669	-0.549547
Br94	Br	1.251079	0.747669	-0.049547
H95	H	0.914965	-0.371732	0.000351
H96	H	1.414965	0.128268	0.500351
Br97	Br	0.017488	0.323656	0.000439
Br98	Br	0.517488	0.823656	0.500439
H99	H	0.615740	0.288703	0.000295
H100	H	1.115740	0.788703	0.500295
H101	H	0.483460	0.286057	0.000315
H102	H	0.983460	0.786057	0.500315
H103	H	0.171160	0.279815	0.000398
H104	H	0.671160	0.779815	0.500398
Br105	Br	0.475942	-0.074596	0.000251
Br106	Br	0.975942	0.425404	0.500251
H107	H	0.049557	-0.036211	0.000452
H108	H	0.549557	0.463789	0.500452
Br109	Br	0.647813	-0.071163	0.000192
Br110	Br	1.147813	0.428837	0.500192
Br111	Br	0.203229	-0.080052	0.000329
Br112	Br	0.703229	0.419948	0.500329
