data_functionalizedCrystal
_audit_creation_method	'MofGen! by Chris Wilmer'
_symmetry_space_group_name_H-M	'P1'
_symmetry_Int_Tables_number	1
_symmetry_cell_setting	triclinic
loop_
_symmetry_equiv_pos_as_xyz
  x,y,z
_cell_length_a	12.759401
_cell_length_b	19.076808
_cell_length_c	12.759393
_cell_angle_alpha	87.665862
_cell_angle_beta	89.979062
_cell_angle_gamma	92.325019
loop_
_atom_site_label
_atom_site_type_symbol
_atom_site_fract_x
_atom_site_fract_y
_atom_site_fract_z
Zn1	Zn	1.589386	-0.280155	-0.577177
Zn2	Zn	2.089386	0.219845	-0.077177
Zn3	Zn	1.582184	-0.397876	-0.394420
Zn4	Zn	2.082184	0.102124	0.105580
Zn5	Zn	1.413683	-0.280193	-0.401510
Zn6	Zn	1.913683	0.219807	0.098490
Zn7	Zn	1.406587	-0.397827	-0.570060
Zn8	Zn	1.906587	0.102173	-0.070060
O9	O	1.497960	-0.339013	-0.485792
O10	O	1.997960	0.160987	0.014208
O11	O	1.735451	-0.295776	-0.552945
O12	O	2.235451	0.204224	-0.052945
O13	O	1.559788	-0.382302	-0.248337
O14	O	2.059788	0.117698	0.251663
O15	O	1.442974	-0.181691	-0.430759
O16	O	1.942974	0.318309	0.069241
O17	O	1.730160	-0.382265	-0.418675
O18	O	2.230160	0.117735	0.081325
O19	O	1.572062	-0.181663	-0.559820
O20	O	2.072062	0.318337	-0.059820
O21	O	1.435990	-0.295840	-0.253546
O22	O	1.935990	0.204160	0.246454
O23	O	1.265721	-0.295792	-0.423858
O24	O	1.765721	0.204208	0.076142
O25	O	1.430880	-0.382182	-0.718028
O26	O	1.930880	0.117818	-0.218028
O27	O	1.260507	-0.382218	-0.547691
O28	O	1.760507	0.117782	-0.047691
O29	O	1.565182	-0.295729	-0.723257
O30	O	2.065182	0.204271	-0.223257
O31	O	1.552907	-0.496367	-0.411773
O32	O	2.052907	0.003633	0.088227
O33	O	1.423896	-0.496331	-0.540816
O34	O	1.923896	0.003669	-0.040816
C35	C	1.224993	-0.339004	-0.485772
C36	C	1.724993	0.160996	0.014228
C37	C	1.108216	-0.339018	-0.485787
C38	C	1.608216	0.160982	0.014213
C39	C	1.050662	-0.384088	-0.550157
C40	C	1.550662	0.115912	-0.050157
C41	C	0.940938	-0.384091	-0.550178
C42	C	1.440938	0.115909	-0.050178
C43	C	0.946330	-0.293951	-0.421449
C44	C	1.446330	0.206049	0.078551
C45	C	1.056052	-0.293945	-0.421435
C46	C	1.556052	0.206055	0.078565
C47	C	1.486879	-0.521888	-0.474776
C48	C	1.986879	-0.021888	0.025224
C49	C	1.482234	-0.600123	-0.470098
C50	C	1.982234	-0.100123	0.029902
C51	C	1.547211	-0.636803	-0.535150
C52	C	2.047211	-0.136803	-0.035150
C53	C	1.542843	-0.710312	-0.530757
C54	C	2.042843	-0.210312	-0.030757
C55	C	1.473502	-0.747141	-0.461305
C56	C	1.973502	-0.247141	0.038695
C57	C	1.408518	-0.710456	-0.396250
C58	C	1.908518	-0.210456	0.103750
C59	C	1.412881	-0.636947	-0.400650
C60	C	1.912881	-0.136947	0.099350
C61	C	1.453245	-0.966996	-0.440941
C62	C	1.953245	-0.466996	0.059059
C63	C	1.448889	-1.040509	-0.436545
C64	C	1.948889	-0.540509	0.063455
C65	C	1.583213	-1.040361	-0.571053
C66	C	2.083213	-0.540361	-0.071053
C67	C	1.587575	-0.966851	-0.575442
C68	C	2.087575	-0.466851	-0.075442
C69	C	1.522587	-0.930172	-0.510391
C70	C	2.022587	-0.430172	-0.010391
N71	N	1.469038	-0.822280	-0.456811
N72	N	1.969038	-0.322280	0.043189
N73	N	1.527047	-0.855035	-0.514892
N74	N	2.027047	-0.355035	-0.014892
C75	C	1.771992	-0.339022	-0.485813
C76	C	2.271992	0.160978	0.014187
C77	C	1.888769	-0.339026	-0.485822
C78	C	2.388769	0.160974	0.014178
C79	C	1.498042	-0.338945	-0.759830
C80	C	1.998042	0.161055	-0.259830
C81	C	1.498078	-0.338917	-0.876608
C82	C	1.998078	0.161083	-0.376608
C83	C	1.509113	-0.155424	-0.496874
C84	C	2.009113	0.344576	0.003126
C85	C	1.513866	-0.077189	-0.501597
C86	C	2.013866	0.422811	-0.001597
C87	C	1.568014	-0.293893	-0.934195
C88	C	2.068014	0.206107	-0.434195
C89	C	1.568034	-0.293863	-1.043921
C90	C	2.068034	0.206137	-0.543921
C91	C	1.428177	-0.383885	-1.038463
C92	C	1.928177	0.116115	-0.538463
C93	C	1.428153	-0.383912	-0.928739
C94	C	1.928153	0.116088	-0.428739
C95	C	1.497941	-0.339030	-0.212824
C96	C	1.997941	0.160970	0.287176
C97	C	1.498121	-0.338860	-0.096058
C98	C	1.998121	0.161140	0.403942
H99	H	0.894083	-0.420790	-0.602596
H100	H	1.394083	0.079210	-0.102596
Br101	Br	1.354784	-1.090491	-0.342275
Br102	Br	1.854784	-0.590491	0.157725
H103	H	1.102914	-0.257239	-0.369017
H104	H	1.602914	0.242761	0.130983
Br105	Br	1.641330	-0.586828	-0.629403
Br106	Br	2.141330	-0.086828	-0.129403
H107	H	1.636121	-1.070233	-0.624015
H108	H	2.136121	-0.570233	-0.124015
H109	H	1.595763	-0.740174	-0.583722
H110	H	2.095763	-0.240174	-0.083722
Br111	Br	1.681685	-0.916874	-0.669700
Br112	Br	2.181685	-0.416874	-0.169700
Br113	Br	1.121452	-0.445256	-0.637493
Br114	Br	1.621452	0.054744	-0.137493
Br115	Br	1.662959	-0.232762	-1.122070
Br116	Br	2.162959	0.267238	-0.622070
Br117	Br	0.875531	-0.232784	-0.334119
Br118	Br	1.375531	0.267216	0.165881
H119	H	1.400331	-0.937138	-0.387972
H120	H	1.900331	-0.437138	0.112028
Br121	Br	1.314397	-0.760436	-0.302007
Br122	Br	1.814397	-0.260436	0.197993
Br123	Br	1.333288	-0.444949	-1.109219
Br124	Br	1.833288	0.055051	-0.609219
Br125	Br	1.324690	-0.587166	-0.312365
Br126	Br	1.824690	-0.087166	0.187635
Br127	Br	1.662909	-0.232828	-0.863448
Br128	Br	2.162909	0.267172	-0.363448
Br129	Br	1.333223	-0.445013	-0.850579
Br130	Br	1.833223	0.054987	-0.350579
