data_functionalizedCrystal
_audit_creation_method	'MofGen! by Chris Wilmer'
_symmetry_space_group_name_H-M	'P1'
_symmetry_Int_Tables_number	1
_symmetry_cell_setting	triclinic
loop_
_symmetry_equiv_pos_as_xyz
  x,y,z
_cell_length_a	19.077399
_cell_length_b	19.076808
_cell_length_c	19.077271
_cell_angle_alpha	90.107018
_cell_angle_beta	85.510522
_cell_angle_gamma	94.711600
loop_
_atom_site_label
_atom_site_type_symbol
_atom_site_fract_x
_atom_site_fract_y
_atom_site_fract_z
Zn1	Zn	1.051878	-0.251954	0.345652
Zn2	Zn	1.551878	0.248046	0.845652
Zn3	Zn	1.052199	-0.364703	0.223411
Zn4	Zn	1.552199	0.135297	0.723411
Zn5	Zn	0.938754	-0.251942	0.232506
Zn6	Zn	1.438754	0.248058	0.732506
Zn7	Zn	0.929224	-0.374547	0.345599
Zn8	Zn	1.429224	0.125453	0.845599
O9	O	0.993014	-0.310787	0.286792
O10	O	1.493014	0.189213	0.786792
O11	O	1.150728	-0.262796	0.325652
O12	O	1.650728	0.237204	0.825652
O13	O	1.041273	-0.345621	0.126129
O14	O	1.541273	0.154379	0.626129
O15	O	0.957614	-0.153448	0.251344
O16	O	1.457614	0.346552	0.751344
O17	O	1.150964	-0.345632	0.235842
O18	O	1.650964	0.154368	0.735842
O19	O	1.040725	-0.153456	0.334472
O20	O	1.540725	0.346544	0.834472
O21	O	0.957925	-0.262776	0.132811
O22	O	1.457925	0.237224	0.632811
O23	O	0.838682	-0.272321	0.251293
O24	O	1.338682	0.227679	0.751293
O25	O	0.941372	-0.362409	0.444095
O26	O	1.441372	0.137591	0.944095
O27	O	0.831681	-0.362398	0.334382
O28	O	1.331681	0.137602	0.834382
O29	O	1.031485	-0.272341	0.444134
O30	O	1.531485	0.227659	0.944134
O31	O	1.032033	-0.464505	0.235791
O32	O	1.532033	0.035495	0.735791
O33	O	0.941684	-0.471738	0.325562
O34	O	1.441684	0.028262	0.825562
C35	C	0.809561	-0.318427	0.293819
C36	C	1.309561	0.181573	0.793819
C37	C	0.731078	-0.321713	0.296841
C38	C	1.231078	0.178287	0.796841
C39	C	0.697831	-0.276294	0.255077
C40	C	1.197831	0.223706	0.755077
C41	C	0.624087	-0.279388	0.257916
C42	C	1.124087	0.220612	0.757916
C43	C	0.583593	-0.327898	0.302523
C44	C	1.083593	0.172102	0.802523
C45	C	0.616845	-0.373322	0.344289
C46	C	1.116845	0.126678	0.844289
C47	C	0.690587	-0.370231	0.341445
C48	C	1.190587	0.129769	0.841445
C49	C	0.362659	-0.342182	0.315654
C50	C	0.862659	0.157818	0.815654
C51	C	0.288912	-0.345268	0.318496
C52	C	0.788912	0.154732	0.818496
C53	C	0.296159	-0.251334	0.232123
C54	C	0.796159	0.248666	0.732123
C55	C	0.369902	-0.248244	0.229286
C56	C	0.869902	0.251756	0.729286
C57	C	0.403148	-0.293671	0.271049
C58	C	0.903148	0.206329	0.771049
N59	N	0.508215	-0.331060	0.305428
N60	N	1.008215	0.168940	0.805428
N61	N	0.478524	-0.290512	0.268140
N62	N	0.978524	0.209488	0.768140
C63	C	0.985877	-0.493660	0.279698
C64	C	1.485877	0.006340	0.779698
C65	C	0.982888	-0.571893	0.276684
C66	C	1.482888	-0.071893	0.776684
C67	C	1.024720	-0.608593	0.318587
C68	C	1.524720	-0.108593	0.818587
C69	C	1.021908	-0.682101	0.315756
C70	C	1.521908	-0.182101	0.815756
C71	C	0.977268	-0.718907	0.271020
C72	C	1.477268	-0.218907	0.771020
C73	C	0.935431	-0.682201	0.229116
C74	C	1.435431	-0.182201	0.729116
C75	C	0.938240	-0.608695	0.231950
C76	C	1.438240	-0.108695	0.731950
C77	C	0.964229	-0.938753	0.257900
C78	C	1.464229	-0.438753	0.757900
C79	C	0.961425	-1.012264	0.255067
C80	C	1.461425	-0.512264	0.755067
C81	C	1.047902	-1.012159	0.341709
C82	C	1.547902	-0.512159	0.841709
C83	C	1.050709	-0.938651	0.344536
C84	C	1.550709	-0.438651	0.844536
C85	C	1.008870	-0.901952	0.302636
C86	C	1.508870	-0.401952	0.802636
N87	N	0.974395	-0.794043	0.268124
N88	N	1.474395	-0.294043	0.768124
N89	N	1.011740	-0.826817	0.305536
N90	N	1.511740	-0.326817	0.805536
C91	C	1.177182	-0.303117	0.279738
C92	C	1.677182	0.196883	0.779738
C93	C	1.255664	-0.299849	0.276732
C94	C	1.755664	0.200151	0.776732
C95	C	0.985329	-0.318474	0.470365
C96	C	1.485329	0.181526	0.970365
C97	C	0.982055	-0.321750	0.548593
C98	C	1.482055	0.178250	1.048593
C99	C	1.000196	-0.127199	0.293928
C100	C	1.500196	0.372801	0.793928
C101	C	1.003257	-0.048964	0.296969
C102	C	1.503257	0.451036	0.796969
C103	C	1.027431	-0.276398	0.585366
C104	C	1.527431	0.223602	1.085366
C105	C	1.024346	-0.279474	0.658870
C106	C	1.524346	0.220526	1.158870
C107	C	0.975887	-0.327906	0.695599
C108	C	1.475887	0.172094	1.195599
C109	C	0.930506	-0.373261	0.658821
C110	C	1.430506	0.126739	1.158821
C111	C	0.933589	-0.370181	0.585319
C112	C	1.433589	0.129819	1.085319
C113	C	0.961634	-0.342142	0.915425
C114	C	1.461634	0.157858	1.415425
C115	C	0.958557	-0.345220	0.988932
C116	C	1.458557	0.154780	1.488932
C117	C	1.052396	-0.251432	0.988976
C118	C	1.552396	0.248568	1.488976
C119	C	1.055477	-0.248359	0.915472
C120	C	1.555477	0.251641	1.415472
C121	C	1.010093	-0.293711	0.878701
C122	C	1.510093	0.206289	1.378701
N123	N	0.972734	-0.331053	0.770731
N124	N	1.472734	0.168947	1.270731
N125	N	1.013244	-0.290561	0.803570
N126	N	1.513244	0.209439	1.303570
C127	C	1.000661	-0.303144	1.103933
C128	C	1.500661	0.196856	1.603933
C129	C	1.003933	-0.299868	1.025705
C130	C	1.503933	0.200132	1.525705
H131	H	0.255942	-0.384770	0.354825
H132	H	0.755942	0.115230	0.854825
Cl133	Cl	0.582294	-0.222283	0.205415
Cl134	Cl	1.082294	0.277717	0.705415
Cl135	Cl	0.869584	-0.434145	0.704995
Cl136	Cl	1.369584	0.065855	1.204995
H137	H	0.402868	-0.208747	0.192957
H138	H	0.902868	0.291253	0.692957
Cl139	Cl	0.404444	-0.399288	0.368158
Cl140	Cl	0.904444	0.100712	0.868158
H141	H	0.904175	-0.578814	0.197830
H142	H	1.404175	-0.078814	0.697830
Cl143	Cl	1.081423	-0.222486	0.705093
Cl144	Cl	1.581423	0.277514	1.205093
Cl145	Cl	1.074490	-0.728237	0.368445
Cl146	Cl	1.574490	-0.228237	0.868445
H147	H	0.730797	-0.236787	0.218759
H148	H	1.230797	0.263213	0.718759
H149	H	0.919094	-0.384661	1.018835
H150	H	1.419094	0.115339	1.518835
Cl151	Cl	0.565937	-0.434317	0.400356
Cl152	Cl	1.065937	0.065683	0.900356
H153	H	0.269082	-0.214351	0.198121
H154	H	0.769082	0.285649	0.698121
Cl155	Cl	0.876540	-0.427196	0.539090
Cl156	Cl	1.376540	0.072804	1.039090
H157	H	0.924690	-0.379081	0.885494
H158	H	1.424690	0.120919	1.385494
H159	H	1.089343	-0.214508	1.018923
H160	H	1.589343	0.285492	1.518923
Cl161	Cl	1.088357	-0.215511	0.539199
Cl162	Cl	1.588357	0.284489	1.039199
H163	H	0.717656	-0.407216	0.375454
H164	H	1.217656	0.092784	0.875454
H165	H	1.061074	-0.578631	0.355013
H166	H	1.561074	-0.078631	0.855013
H167	H	1.087059	-0.908685	0.380965
H168	H	1.587059	-0.408685	0.880965
Cl169	Cl	1.100493	-1.058299	0.394384
Cl170	Cl	1.600493	-0.558299	0.894384
Cl171	Cl	1.116399	-0.187470	0.869304
Cl172	Cl	1.616399	0.312530	1.369304
Cl173	Cl	0.905304	-1.058533	0.198820
Cl174	Cl	1.405304	-0.558533	0.698820
H175	H	0.930163	-0.908878	0.223782
H176	H	1.430163	-0.408878	0.723782
H177	H	0.899081	-0.712174	0.192693
H178	H	1.399081	-0.212174	0.692693
