data_functionalizedCrystal
_audit_creation_method	'MofGen! by Chris Wilmer'
_symmetry_space_group_name_H-M	'P1'
_symmetry_Int_Tables_number	1
_symmetry_cell_setting	triclinic
loop_
_symmetry_equiv_pos_as_xyz
  x,y,z
_cell_length_a	25.639242
_cell_length_b	25.639239
_cell_length_c	18.215399
_cell_angle_alpha	90.030589
_cell_angle_beta	90.028456
_cell_angle_gamma	90.034811
loop_
_atom_site_label
_atom_site_type_symbol
_atom_site_fract_x
_atom_site_fract_y
_atom_site_fract_z
Zn1	Zn	0.799255	-0.208218	0.416272
Zn2	Zn	1.299255	0.291782	0.916272
Zn3	Zn	0.799168	-0.295655	0.293200
Zn4	Zn	1.299168	0.204345	0.793200
Zn5	Zn	0.711822	-0.208228	0.293200
Zn6	Zn	1.211822	0.291772	0.793200
Zn7	Zn	0.711776	-0.295618	0.416206
Zn8	Zn	1.211776	0.204382	0.916206
O9	O	0.755505	-0.251930	0.354719
O10	O	1.255505	0.248070	0.854719
O11	O	0.872409	-0.219828	0.399973
O12	O	1.372409	0.280172	0.899973
O13	O	0.787565	-0.284077	0.190215
O14	O	1.287565	0.215923	0.690215
O15	O	0.723476	-0.135062	0.309554
O16	O	1.223476	0.364938	0.809554
O17	O	0.872345	-0.284067	0.309552
O18	O	1.372345	0.215933	0.809552
O19	O	0.787713	-0.135055	0.399974
O20	O	1.287713	0.364945	0.899974
O21	O	0.723392	-0.219845	0.190216
O22	O	1.223392	0.280155	0.690216
O23	O	0.638651	-0.219809	0.309490
O24	O	1.138651	0.280191	0.809490
O25	O	0.723397	-0.284005	0.519199
O26	O	1.223397	0.215995	1.019199
O27	O	0.638617	-0.284014	0.399862
O28	O	1.138617	0.215986	0.899862
O29	O	0.787668	-0.219793	0.519247
O30	O	1.287668	0.280207	1.019247
O31	O	0.787520	-0.368815	0.309489
O32	O	1.287520	0.131185	0.809489
O33	O	0.723313	-0.368788	0.399861
O34	O	1.223313	0.131212	0.899861
C35	C	0.619663	-0.251909	0.354670
C36	C	1.119663	0.248091	0.854670
C37	C	0.561549	-0.251913	0.354666
C38	C	1.061549	0.248087	0.854666
C39	C	0.201177	-0.285417	0.401731
C40	C	0.701177	0.214583	0.901731
C41	C	0.146573	-0.285420	0.401743
C42	C	0.646573	0.214580	0.901743
O43	O	0.118328	-0.313881	0.441718
O44	O	0.618328	0.186119	0.941718
N45	N	0.119266	-0.251944	0.354767
N46	N	0.619266	0.248056	0.854767
C47	C	0.146567	-0.218459	0.307783
C48	C	0.646567	0.281541	0.807783
O49	O	0.118327	-0.189985	0.267828
O50	O	0.618327	0.310015	0.767828
C51	C	0.201170	-0.218453	0.307775
C52	C	0.701170	0.281547	0.807775
C53	C	0.228474	-0.251936	0.354748
C54	C	0.728474	0.248064	0.854748
C55	C	0.228480	-0.318896	0.448701
C56	C	0.728480	0.181104	0.948701
C57	C	0.283081	-0.318893	0.448689
C58	C	0.783081	0.181107	0.948689
C59	C	0.310378	-0.285412	0.401706
C60	C	0.810378	0.214588	0.901706
C61	C	0.283075	-0.251933	0.354736
C62	C	0.783075	0.248067	0.854736
C63	C	0.228470	-0.184966	0.260795
C64	C	0.728470	0.315034	0.760795
C65	C	0.283077	-0.184963	0.260792
C66	C	0.783077	0.315037	0.760792
C67	C	0.310381	-0.218445	0.307765
C68	C	0.810381	0.281555	0.807765
C69	C	0.364972	-0.218449	0.307740
C70	C	0.864972	0.281551	0.807740
N71	N	0.392278	-0.251925	0.354716
N72	N	0.892278	0.248075	0.854716
C73	C	0.364981	-0.285406	0.401698
C74	C	0.864981	0.214594	0.901698
C75	C	0.031897	-0.218472	0.307802
C76	C	0.531897	0.281528	0.807802
C77	C	-0.022706	-0.218480	0.307806
C78	C	0.477294	0.281520	0.807806
C79	C	-0.022697	-0.285441	0.401767
C80	C	0.477303	0.214559	0.901767
C81	C	0.031907	-0.285435	0.401760
C82	C	0.531907	0.214565	0.901760
C83	C	0.059203	-0.251948	0.354778
C84	C	0.559203	0.248052	0.854778
C85	C	0.479646	-0.285399	0.401668
C86	C	0.979646	0.214601	0.901668
C87	C	0.534252	-0.285395	0.401649
C88	C	1.034252	0.214605	0.901649
C89	C	0.534238	-0.218432	0.307690
C90	C	1.034238	0.281568	0.807690
C91	C	0.479637	-0.218438	0.307706
C92	C	0.979637	0.281562	0.807706
C93	C	0.452343	-0.251923	0.354701
C94	C	0.952343	0.248077	0.854701
O95	O	0.393251	-0.190001	0.267788
O96	O	0.893251	0.309999	0.767788
O97	O	0.393228	-0.313871	0.441653
O98	O	0.893228	0.186129	0.941653
C99	C	0.755416	-0.387772	0.354684
C100	C	1.255416	0.112228	0.854684
C101	C	0.755426	-0.445886	0.354693
C102	C	1.255426	0.054114	0.854693
C103	C	0.722067	-0.697078	0.401761
C104	C	1.222067	-0.197078	0.901761
C105	C	0.722047	-0.642474	0.401753
C106	C	1.222047	-0.142474	0.901753
O107	O	0.693598	-0.614236	0.441747
O108	O	1.193598	-0.114236	0.941747
N109	N	0.755491	-0.615160	0.354732
N110	N	1.255491	-0.115160	0.854732
C111	C	0.788961	-0.642454	0.307722
C112	C	1.288961	-0.142454	0.807722
O113	O	0.817407	-0.614207	0.267726
O114	O	1.317407	-0.114207	0.767726
C115	C	0.788983	-0.697057	0.307734
C116	C	1.288983	-0.197057	0.807734
C117	C	0.755532	-0.724368	0.354753
C118	C	1.255532	-0.224368	0.854753
C119	C	0.688620	-0.724389	0.448777
C120	C	1.188620	-0.224389	0.948777
C121	C	0.688638	-0.778990	0.448784
C122	C	1.188638	-0.278990	0.948784
C123	C	0.722104	-0.806279	0.401776
C124	C	1.222104	-0.306279	0.901776
C125	C	0.755551	-0.778968	0.354761
C126	C	1.255551	-0.278968	0.854761
C127	C	0.822454	-0.724349	0.260728
C128	C	1.322454	-0.224349	0.760728
C129	C	0.822473	-0.778956	0.260746
C130	C	1.322473	-0.278956	0.760746
C131	C	0.789023	-0.806267	0.307764
C132	C	1.289023	-0.306267	0.807764
C133	C	0.789036	-0.860859	0.307760
C134	C	1.289036	-0.360859	0.807760
N135	N	0.755592	-0.888172	0.354781
N136	N	1.255592	-0.388172	0.854781
C137	C	0.722126	-0.860883	0.401789
C138	C	1.222126	-0.360883	0.901789
C139	C	0.788914	-0.527783	0.307699
C140	C	1.288914	-0.027783	0.807699
C141	C	0.788890	-0.473181	0.307682
C142	C	1.288890	0.026819	0.807682
C143	C	0.721977	-0.473205	0.401714
C144	C	1.221977	0.026795	0.901714
C145	C	0.721998	-0.527808	0.401727
C146	C	1.221998	-0.027808	0.901727
C147	C	0.755469	-0.555097	0.354720
C148	C	1.255469	-0.055097	0.854720
C149	C	0.722168	-0.975548	0.401800
C150	C	1.222168	-0.475548	0.901800
C151	C	0.722188	-1.030153	0.401801
C152	C	1.222188	-0.530153	0.901801
C153	C	0.789103	-1.030124	0.307772
C154	C	1.289103	-0.530124	0.807772
C155	C	0.789081	-0.975524	0.307768
C156	C	1.289081	-0.475524	0.807768
C157	C	0.755611	-0.948237	0.354788
C158	C	1.255611	-0.448237	0.854788
O159	O	0.817472	-0.889131	0.267788
O160	O	1.317472	-0.389131	0.767788
O161	O	0.693690	-0.889136	0.441784
O162	O	1.193690	-0.389136	0.941784
C163	C	0.891878	-0.251951	0.354770
C164	C	1.391878	0.248049	0.854770
C165	C	0.949992	-0.251960	0.354791
C166	C	1.449992	0.248040	0.854791
C167	C	0.755537	-0.251894	0.546672
C168	C	1.255537	0.248106	1.046672
C169	C	0.755551	-0.251878	0.628471
C170	C	1.255551	0.248122	1.128471
C171	C	0.755609	-0.115557	0.354771
C172	C	1.255609	0.384443	0.854771
C173	C	0.755654	-0.057443	0.354793
C174	C	1.255654	0.442557	0.854793
C175	C	0.755504	-0.251928	0.163513
C176	C	1.255504	0.248072	0.663513
C177	C	0.755592	-0.251796	0.081715
C178	C	1.255592	0.248204	0.581715
C179	C	0.789029	-0.218412	0.816692
C180	C	1.289029	0.281588	1.316692
C181	C	0.789035	-0.218397	0.893550
C182	C	1.289035	0.281603	1.393550
C183	C	0.722110	-0.285264	0.893489
C184	C	1.222110	0.214736	1.393489
C185	C	0.722102	-0.285276	0.816632
C186	C	1.222102	0.214724	1.316632
C187	C	0.755564	-0.251851	0.778235
C188	C	1.255564	0.248149	1.278235
C189	C	0.755579	-0.251823	0.931951
C190	C	1.255579	0.248177	1.431951
C191	C	0.755585	-0.251807	1.015285
C192	C	1.255585	0.248193	1.515285
C193	C	0.755557	-0.251866	0.694896
C194	C	1.255557	0.248134	1.194896
H195	H	0.054118	-0.191203	0.269539
H196	H	0.554118	0.308797	0.769539
H197	H	0.816348	-1.052353	0.269497
H198	H	1.316348	-0.552353	0.769497
Br199	Br	0.676677	-0.330656	0.764435
Br200	Br	1.176677	0.169344	1.264435
H201	H	0.054134	-0.312699	0.440011
H202	H	0.554134	0.187301	0.940011
H203	H	-0.044932	-0.312702	0.440026
H204	H	0.455068	0.187298	0.940026
H205	H	0.457430	-0.312664	0.439937
H206	H	0.957430	0.187336	0.939937
Br207	Br	0.834440	-0.173048	0.764584
Br208	Br	1.334440	0.326952	1.264584
Br209	Br	0.676556	-0.436158	0.465509
Br210	Br	1.176556	0.063842	0.965509
Br211	Br	0.571303	-0.330840	0.465399
Br212	Br	1.071303	0.169160	0.965399
Br213	Br	0.834457	-0.173017	0.945739
Br214	Br	1.334457	0.326983	1.445739
H215	H	0.661399	-0.801221	0.487071
H216	H	1.161399	-0.301221	0.987071
Br217	Br	0.320127	-0.364334	0.512445
Br218	Br	0.820127	0.135666	1.012445
H219	H	0.694867	-0.312479	0.924761
H220	H	1.194867	0.187521	1.424761
H221	H	0.206261	-0.346161	0.486964
H222	H	0.706261	0.153839	0.986964
Br223	Br	0.191430	-0.139520	0.197045
Br224	Br	0.691430	0.360480	0.697045
Br225	Br	-0.059754	-0.173046	0.244042
Br226	Br	0.440246	0.326954	0.744042
H227	H	0.457406	-0.191175	0.269455
H228	H	0.957406	0.308825	0.769455
Br229	Br	0.320119	-0.139512	0.197029
Br230	Br	0.820119	0.360488	0.697029
Br231	Br	0.571294	-0.172995	0.243930
Br232	Br	1.071294	0.327005	0.743930
H233	H	0.694948	-1.052387	0.440092
H234	H	1.194948	-0.552387	0.940092
H235	H	0.694914	-0.953337	0.440089
H236	H	1.194914	-0.453337	0.940089
Br237	Br	0.834340	-0.564812	0.243893
Br238	Br	1.334340	-0.064812	0.743893
Br239	Br	0.643196	-0.687364	0.512584
Br240	Br	1.143196	-0.187364	1.012584
H241	H	0.816122	-0.450948	0.269387
H242	H	1.316122	0.049052	0.769387
Br243	Br	0.676600	-0.564867	0.465540
Br244	Br	1.176600	-0.064867	0.965540
H245	H	0.849693	-0.702120	0.222442
H246	H	1.349693	-0.202120	0.722442
H247	H	0.816314	-0.953287	0.269474
H248	H	1.316314	-0.453287	0.769474
Br249	Br	0.867903	-0.815988	0.196949
Br250	Br	1.367903	-0.315988	0.696949
