data_functionalizedCrystal
_audit_creation_method	'MofGen! by Chris Wilmer'
_symmetry_space_group_name_H-M	'P1'
_symmetry_Int_Tables_number	1
_symmetry_cell_setting	triclinic
loop_
_symmetry_equiv_pos_as_xyz
  x,y,z
_cell_length_a	18.215407
_cell_length_b	12.594516
_cell_length_c	18.215399
_cell_angle_alpha	89.976218
_cell_angle_beta	89.980167
_cell_angle_gamma	90.012264
loop_
_atom_site_label
_atom_site_type_symbol
_atom_site_fract_x
_atom_site_fract_y
_atom_site_fract_z
Zn1	Zn	1.125139	-0.423740	-0.416137
Zn2	Zn	1.625139	0.076260	0.083863
Zn3	Zn	1.125075	-0.601738	-0.293080
Zn4	Zn	1.625075	-0.101738	0.206920
Zn5	Zn	1.002071	-0.423775	-0.293085
Zn6	Zn	1.502071	0.076225	0.206915
Zn7	Zn	1.002065	-0.601679	-0.416105
Zn8	Zn	1.502065	-0.101679	0.083895
O9	O	1.063588	-0.512733	-0.354602
O10	O	1.563588	-0.012733	0.145398
O11	O	1.228115	-0.447362	-0.399825
O12	O	1.728115	0.052638	0.100175
O13	O	1.108734	-0.578170	-0.190096
O14	O	1.608734	-0.078170	0.309904
O15	O	1.018426	-0.274825	-0.309423
O16	O	1.518426	0.225175	0.190577
O17	O	1.228068	-0.578136	-0.309415
O18	O	1.728068	-0.078136	0.190585
O19	O	1.108843	-0.274799	-0.399830
O20	O	1.608843	0.225201	0.100170
O21	O	1.018364	-0.447422	-0.190100
O22	O	1.518364	0.052578	0.309900
O23	O	0.899086	-0.447364	-0.309392
O24	O	1.399086	0.052636	0.190608
O25	O	1.018415	-0.578035	-0.519093
O26	O	1.518415	-0.078035	-0.019093
O27	O	0.899082	-0.578069	-0.399774
O28	O	1.399082	-0.078069	0.100226
O29	O	1.108837	-0.447305	-0.519117
O30	O	1.608837	0.052695	-0.019117
O31	O	1.108729	-0.750676	-0.309384
O32	O	1.608729	-0.250676	0.190616
O33	O	1.018354	-0.750632	-0.399770
O34	O	1.518354	-0.250632	0.100230
C35	C	0.872381	-0.512715	-0.354580
C36	C	1.372381	-0.012715	0.145420
C37	C	0.790583	-0.512733	-0.354589
C38	C	1.290583	-0.012733	0.145411
C39	C	1.063554	-0.789274	-0.354589
C40	C	1.563554	-0.289274	0.145411
C41	C	1.063606	-0.907579	-0.354608
C42	C	1.563606	-0.407579	0.145392
C43	C	0.602406	-0.580898	-0.401592
C44	C	1.102406	-0.080898	0.098408
C45	C	0.525547	-0.580901	-0.401601
C46	C	1.025547	-0.080901	0.098399
C47	C	0.525522	-0.444588	-0.307627
C48	C	1.025522	0.055412	0.192373
C49	C	0.602379	-0.444580	-0.307622
C50	C	1.102379	0.055420	0.192378
C51	C	0.640819	-0.512741	-0.354604
C52	C	1.140819	-0.012741	0.145396
C53	C	0.487103	-0.512752	-0.354618
C54	C	0.987103	-0.012752	0.145382
C55	C	0.403769	-0.512755	-0.354627
C56	C	0.903769	-0.012755	0.145373
C57	C	0.724158	-0.512736	-0.354595
C58	C	1.224158	-0.012736	0.145405
C59	C	1.112818	-0.976817	-0.305499
C60	C	1.612818	-0.476817	0.194501
C61	C	1.130801	-1.047521	-0.372671
C62	C	1.630801	-0.547521	0.127329
C63	C	1.045716	-1.047675	-0.287480
C64	C	1.545716	-0.547675	0.212520
C65	C	1.081623	-0.976724	-0.421814
C66	C	1.581623	-0.476724	0.078186
C67	C	0.996507	-0.976872	-0.336578
C68	C	1.496507	-0.476872	0.163422
C69	C	1.014464	-1.047544	-0.403795
C70	C	1.514464	-0.547544	0.096205
C71	C	1.255541	-0.512752	-0.354623
C72	C	1.755541	-0.012752	0.145377
C73	C	1.337339	-0.512760	-0.354632
C74	C	1.837339	-0.012760	0.145368
C75	C	1.063633	-0.512660	-0.546555
C76	C	1.563633	-0.012660	-0.046555
C77	C	1.063652	-0.512628	-0.628354
C78	C	1.563652	-0.012628	-0.128354
C79	C	1.063642	-0.235112	-0.354631
C80	C	1.563642	0.264888	0.145369
C81	C	1.063665	-0.116807	-0.354643
C82	C	1.563665	0.383193	0.145357
C83	C	1.110751	-0.444493	-0.816561
C84	C	1.610751	0.055507	-0.316561
C85	C	1.110760	-0.444462	-0.893420
C86	C	1.610760	0.055538	-0.393420
C87	C	1.016604	-0.580599	-0.893384
C88	C	1.516604	-0.080599	-0.393384
C89	C	1.016592	-0.580624	-0.816526
C90	C	1.516592	-0.080624	-0.316526
C91	C	1.063670	-0.512572	-0.778117
C92	C	1.563670	-0.012572	-0.278117
C93	C	1.063691	-0.512517	-0.931833
C94	C	1.563691	-0.012517	-0.431833
C95	C	1.063700	-0.512483	-1.015167
C96	C	1.563700	-0.012483	-0.515167
C97	C	1.063660	-0.512604	-0.694778
C98	C	1.563660	-0.012604	-0.194778
C99	C	1.063585	-0.512729	-0.163395
C100	C	1.563585	-0.012729	0.336605
C101	C	1.063709	-0.512461	-0.081597
C102	C	1.563709	-0.012461	0.418403
H103	H	0.633701	-0.636396	-0.439849
H104	H	1.133701	-0.136396	0.060151
N105	N	1.158855	-0.374938	-0.932701
N106	N	1.658855	0.125062	-0.432701
N107	N	1.158860	-0.374920	-1.001322
N108	N	1.658860	0.125080	-0.501322
H109	H	1.192829	-0.325816	-1.029066
H110	H	1.692829	0.174184	-0.529066
H111	H	0.978277	-0.636006	-0.924666
H112	H	1.478277	-0.136006	-0.424666
N113	N	1.158841	-0.374976	-0.777338
N114	N	1.658841	0.125024	-0.277338
N115	N	1.200873	-0.314195	-0.811676
N116	N	1.700873	0.185805	-0.311676
H117	H	1.234838	-0.265094	-0.783977
H118	H	1.734838	0.234906	-0.283977
N119	N	0.962289	-1.086278	-0.455965
N120	N	1.462289	-0.586278	0.044035
N121	N	0.953499	-1.183998	-0.464105
N122	N	1.453499	-0.683998	0.035895
H123	H	0.916650	-1.211356	-0.500950
H124	H	1.416650	-0.711356	-0.000950
H125	H	0.494274	-0.636400	-0.439865
H126	H	0.994274	-0.136400	0.060135
N127	N	0.968505	-0.650167	-0.777240
N128	N	1.468505	-0.150167	-0.277240
N129	N	0.968501	-0.650174	-0.708618
N130	N	1.468501	-0.150174	-0.208618
H131	H	0.934539	-0.699283	-0.680871
H132	H	1.434539	-0.199283	-0.180871
N133	N	0.486244	-0.374973	-0.259644
N134	N	0.986244	0.125027	0.240356
N135	N	0.417622	-0.374988	-0.259654
N136	N	0.917622	0.125012	0.240346
H137	H	0.389881	-0.325823	-0.225764
H138	H	0.889881	0.174177	0.274236
H139	H	0.633656	-0.389071	-0.269359
H140	H	1.133656	0.110929	0.230641
N141	N	1.165038	-0.937866	-0.253450
N142	N	1.665038	-0.437866	0.246550
N143	N	1.231498	-0.960515	-0.260280
N144	N	1.731498	-0.460515	0.239720
H145	H	1.268380	-0.933006	-0.223523
H146	H	1.768380	-0.433006	0.276477
N147	N	1.202013	-1.086503	-0.391796
N148	N	1.702013	-0.586503	0.108204
N149	N	1.256237	-1.063863	-0.352782
N150	N	1.756237	-0.563863	0.147218
H151	H	1.306530	-1.091411	-0.366275
H152	H	1.806530	-0.591411	0.133725
H153	H	0.939753	-0.945814	-0.321288
H154	H	1.439753	-0.445814	0.178712
N155	N	1.100721	-0.937787	-0.493067
N156	N	1.600721	-0.437787	0.006933
N157	N	1.103803	-0.840030	-0.504543
N158	N	1.603803	-0.340030	-0.004543
H159	H	1.117294	-0.812527	-0.554864
H160	H	1.617294	-0.312527	-0.054864
H161	H	1.030559	-1.078839	-0.230696
H162	H	1.530559	-0.578839	0.269304
