data_functionalizedCrystal
_audit_creation_method	'MofGen! by Chris Wilmer'
_symmetry_space_group_name_H-M	'P1'
_symmetry_Int_Tables_number	1
_symmetry_cell_setting	triclinic
loop_
_symmetry_equiv_pos_as_xyz
  x,y,z
_cell_length_a	6.817900
_cell_length_b	11.102289
_cell_length_c	14.125465
_cell_angle_alpha	94.634960
_cell_angle_beta	100.398878
_cell_angle_gamma	108.605707
loop_
_atom_site_label
_atom_site_type_symbol
_atom_site_fract_x
_atom_site_fract_y
_atom_site_fract_z
V1	V	-4.017267	-0.174747	-0.299976
O2	O	-3.978094	0.009521	-0.294266
O3	O	-3.994689	-0.347575	-0.297924
O4	O	-3.952937	-0.171566	-0.430806
O5	O	-4.020135	-0.167706	-0.160464
V6	V	-4.499614	-0.152765	-0.283289
O7	O	-4.281107	-0.222967	-0.336580
O8	O	-4.685971	-0.104545	-0.246686
O9	O	-4.298985	0.020063	-0.285341
O10	O	-4.656184	-0.337033	-0.289000
O11	O	-4.614143	-0.159806	-0.422801
O12	O	-4.340737	-0.155946	-0.152459
C13	C	-3.846487	-0.389722	-0.293192
C14	C	-3.909207	-0.531008	-0.292387
C15	C	-4.121172	-0.603840	-0.296808
C16	C	-4.180096	-0.736594	-0.296059
C17	C	-3.815066	-0.723671	-0.286464
C18	C	-3.756148	-0.590921	-0.287220
C19	C	-4.331919	-0.611301	-0.302343
C20	C	-4.390842	-0.744056	-0.301594
C21	C	-3.793227	-0.165204	-0.462695
C22	C	-3.822084	-0.163747	-0.569649
C23	C	-3.874978	-0.161075	-0.765472
C24	C	-4.061271	-0.166435	-0.817793
C25	C	-4.090704	-0.164948	-0.926756
C26	C	-3.845537	-0.162561	-0.656500
C27	C	-4.110531	0.062203	-0.290071
C28	C	-4.027048	0.203488	-0.290883
C29	C	-4.163791	-0.162312	-0.120566
C30	C	-4.114171	-0.163763	-0.013611
H31	H	-4.462801	-0.769264	-0.235873
C32	C	-4.244536	-0.174325	-0.768397
C33	C	-4.292172	-0.285299	-0.723977
C34	C	-4.460995	-0.292627	-0.678472
H35	H	-4.205924	-0.100795	-0.720531
H36	H	-4.365377	-0.177571	-0.815537
H37	H	-4.171357	-0.282043	-0.676840
H38	H	-4.330821	-0.358848	-0.771822
H39	H	-4.581836	-0.295873	-0.725613
H40	H	-4.422367	-0.219092	-0.630611
H41	H	-4.493351	-0.367928	-0.648336
H42	H	-3.737604	-0.155370	-0.802510
H43	H	-3.690459	-0.772469	-0.282259
C44	C	-4.451855	-0.585584	-0.395724
C45	C	-4.584124	-0.702570	-0.452090
C46	C	-4.694613	-0.678930	-0.538122
H47	H	-4.535243	-0.535779	-0.380302
H48	H	-4.353679	-0.540013	-0.431281
H49	H	-4.682287	-0.748121	-0.416540
H50	H	-4.500789	-0.752392	-0.467538
H51	H	-4.596437	-0.633359	-0.573679
H52	H	-4.777988	-0.629122	-0.522690
H53	H	-4.784355	-0.758299	-0.576380
C54	C	-4.360185	-0.540405	-0.211945
C55	C	-4.298469	-0.408672	-0.217544
C56	C	-4.324446	-0.343320	-0.134280
H57	H	-4.504863	-0.571340	-0.207801
H58	H	-4.274951	-0.554483	-0.155805
H59	H	-4.383704	-0.394603	-0.273668
H60	H	-4.153793	-0.377700	-0.221674
H61	H	-4.239212	-0.357397	-0.078140
H62	H	-4.469127	-0.374265	-0.130143
H63	H	-4.282558	-0.253931	-0.138064
H64	H	-3.583555	-0.531627	-0.283631
H65	H	-4.500253	-0.801663	-0.372872
