data_functionalizedCrystal
_audit_creation_method	'MofGen! by Chris Wilmer'
_symmetry_space_group_name_H-M	'P1'
_symmetry_Int_Tables_number	1
_symmetry_cell_setting	triclinic
loop_
_symmetry_equiv_pos_as_xyz
  x,y,z
_cell_length_a	14.472311
_cell_length_b	16.992694
_cell_length_c	16.974813
_cell_angle_alpha	92.975366
_cell_angle_beta	86.337154
_cell_angle_gamma	89.999197
loop_
_atom_site_label
_atom_site_type_symbol
_atom_site_fract_x
_atom_site_fract_y
_atom_site_fract_z
O1	O	-0.089260	-1.040211	0.167654
O2	O	0.410740	-0.540211	0.667654
O3	O	-0.089149	-0.811928	0.165815
O4	O	0.410851	-0.311928	0.665815
O5	O	-0.080622	-0.932433	0.052033
O6	O	0.419378	-0.432433	0.552033
O7	O	-0.097787	-0.919706	0.281436
O8	O	0.402213	-0.419706	0.781436
O9	O	0.073061	-0.932422	0.052020
O10	O	0.573061	-0.432422	0.552020
O11	O	0.064534	-0.811917	0.165802
O12	O	0.564534	-0.311917	0.665802
O13	O	0.064423	-1.040200	0.167642
O14	O	0.564423	-0.540200	0.667642
Cu15	Cu	0.078511	-0.926058	0.166721
Cu16	Cu	0.578511	-0.426058	0.666721
Cu17	Cu	-0.103237	-0.926070	0.166736
Cu18	Cu	0.396763	-0.426070	0.666736
O19	O	0.055896	-0.919695	0.281424
O20	O	0.555896	-0.419695	0.781424
C21	C	-0.012134	-0.782712	0.163442
C22	C	0.487866	-0.282712	0.663442
C23	C	-0.011617	-0.695676	0.156383
C24	C	0.488383	-0.195676	0.656383
N25	N	0.206343	-0.926054	0.166710
N26	N	0.706343	-0.426054	0.666710
N27	N	-0.231068	-0.926080	0.166740
N28	N	0.268932	-0.426080	0.666740
C29	C	0.394842	-0.926063	0.166721
C30	C	0.894842	-0.426063	0.666721
C31	C	0.438605	-0.990558	0.105861
C32	C	0.938605	-0.490558	0.605861
C33	C	0.545679	-0.990791	0.106049
C34	C	1.045679	-0.490791	0.606049
C35	C	0.580432	-0.926071	0.166730
C36	C	1.080432	-0.426071	0.666730
C37	C	0.535278	-0.943512	0.250436
C38	C	1.035278	-0.443512	0.750436
C39	C	0.428184	-0.943970	0.250079
C40	C	0.928184	-0.443970	0.750079
C41	C	0.435978	-0.843933	0.144605
C42	C	0.935978	-0.343933	0.644605
C43	C	0.543243	-0.844491	0.142771
C44	C	1.043243	-0.344491	0.642771
C45	C	0.685320	-0.926075	0.166740
C46	C	1.185320	-0.426075	0.666740
C47	C	0.289954	-0.926061	0.166716
C48	C	0.789954	-0.426061	0.666716
C49	C	-0.001577	-0.931944	0.022537
C50	C	0.498423	-0.431944	0.522537
C51	C	0.004991	-0.930491	-0.065332
C52	C	0.504991	-0.430491	0.434668
C53	C	-0.012594	-1.069416	0.170014
C54	C	0.487406	-0.569416	0.670014
C55	C	-0.013117	-1.156452	0.177074
C56	C	0.486883	-0.656452	0.677074
C57	C	-0.016713	-0.645362	0.224499
C58	C	0.483287	-0.145362	0.724499
C59	C	-0.016203	-0.563582	0.217861
C60	C	0.483797	-0.063582	0.717861
C61	C	-0.010605	-0.532118	0.143106
C62	C	0.489395	-0.032118	0.643106
C63	C	-0.005506	-0.582439	0.074985
C64	C	0.494494	-0.082439	0.574985
C65	C	-0.006008	-0.664217	0.081624
C66	C	0.493992	-0.164217	0.581624
C67	C	-0.008521	-0.288550	0.115591
C68	C	0.491479	0.211450	0.615591
C69	C	-0.008021	-0.206766	0.108958
C70	C	0.491979	0.293234	0.608958
C71	C	-0.018718	-0.187915	0.251834
C72	C	0.481282	0.312085	0.751834
C73	C	-0.019226	-0.269696	0.258466
C74	C	0.480774	0.230304	0.758466
C75	C	-0.014122	-0.320009	0.190345
C76	C	0.485878	0.179991	0.690345
N77	N	-0.010087	-0.448527	0.136319
N78	N	0.489913	0.051473	0.636319
N79	N	-0.014633	-0.403599	0.197133
N80	N	0.485367	0.096401	0.697133
C81	C	-0.075695	-0.929817	-0.106601
C82	C	0.424305	-0.429817	0.393399
C83	C	-0.069521	-0.928447	-0.189163
C84	C	0.430479	-0.428447	0.310837
C85	C	0.017340	-0.927758	-0.230454
C86	C	0.517340	-0.427758	0.269546
C87	C	0.098033	-0.928430	-0.189179
C88	C	0.598033	-0.428430	0.310821
C89	C	0.091858	-0.929794	-0.106618
C90	C	0.591858	-0.429794	0.393382
C91	C	0.044792	-0.923673	-0.477376
C92	C	0.544792	-0.423673	0.022624
C93	C	0.050961	-0.922311	-0.559942
C94	C	0.550961	-0.422311	-0.059942
C95	C	-0.116594	-0.922327	-0.559921
C96	C	0.383406	-0.422327	-0.059921
C97	C	-0.122761	-0.923696	-0.477359
C98	C	0.377239	-0.423696	0.022641
C99	C	-0.042069	-0.924363	-0.436090
C100	C	0.457931	-0.424363	0.063910
N101	N	0.023654	-0.926360	-0.314846
N102	N	0.523654	-0.426360	0.185154
N103	N	-0.048383	-0.925755	-0.351700
N104	N	0.451617	-0.425755	0.148300
C105	C	-0.023152	-0.920184	0.310919
C106	C	0.476848	-0.420184	0.810919
C107	C	-0.029726	-0.921637	0.398788
C108	C	0.470274	-0.421637	0.898788
H109	H	0.576617	-0.980469	0.044003
H110	H	1.076617	-0.480469	0.544003
H111	H	0.168757	-0.927864	-0.222804
H112	H	0.668757	-0.427864	0.277196
H113	H	0.157561	-0.930332	-0.073017
H114	H	0.657561	-0.430332	0.426983
Cl115	Cl	-0.170960	-0.927601	-0.241042
Cl116	Cl	0.329040	-0.427601	0.258958
Cl117	Cl	-0.231963	-0.924564	-0.425456
Cl118	Cl	0.268037	-0.424564	0.074544
H119	H	-0.146427	-0.930382	-0.072988
H120	H	0.353573	-0.430382	0.427012
Cl121	Cl	0.589627	-0.824028	0.047667
Cl122	Cl	1.089627	-0.324028	0.547667
Cl123	Cl	0.391707	-0.769840	0.213027
Cl124	Cl	0.891707	-0.269840	0.713027
Cl125	Cl	0.579784	-0.766967	0.206132
Cl126	Cl	1.079784	-0.266967	0.706132
Cl127	Cl	0.000402	-0.727469	-0.004012
Cl128	Cl	0.500402	-0.227469	0.495988
H129	H	-0.023795	-0.295307	0.319339
H130	H	0.476205	0.204693	0.819339
H131	H	-0.022871	-0.146942	0.307294
H132	H	0.477129	0.353058	0.807294
H133	H	-0.182289	-0.921781	-0.593531
H134	H	0.317711	-0.421781	-0.093531
H135	H	0.121697	-0.921746	-0.593559
H136	H	0.621697	-0.421746	-0.093559
Cl137	Cl	-0.000962	-0.167213	0.014973
Cl138	Cl	0.499038	0.332787	0.514973
H139	H	0.417489	-0.980420	0.043624
H140	H	0.917489	-0.480420	0.543624
Cl141	Cl	0.146235	-0.924500	-0.425505
Cl142	Cl	0.646235	-0.424500	0.074495
Cl143	Cl	-0.002106	-0.351790	0.029952
Cl144	Cl	0.497894	0.148210	0.529952
H145	H	0.410588	-1.051169	0.120377
H146	H	0.910588	-0.551169	0.620377
H147	H	0.401803	-1.003853	0.268730
H148	H	0.901803	-0.503853	0.768730
Cl149	Cl	0.583554	-1.084902	0.128754
Cl150	Cl	1.083554	-0.584902	0.628754
H151	H	-0.020354	-0.522620	0.273328
H152	H	0.479646	-0.022620	0.773328
Cl153	Cl	0.574505	-1.034909	0.279719
Cl154	Cl	1.074505	-0.534909	0.779719
H155	H	-0.021273	-0.670973	0.285372
H156	H	0.478727	-0.170973	0.785372
Cl157	Cl	0.001539	-0.542884	-0.018993
Cl158	Cl	0.501539	-0.042884	0.481007
H159	H	0.398742	-0.898630	0.296886
H160	H	0.898742	-0.398630	0.796886
H161	H	0.557241	-0.897769	0.297045
H162	H	1.057241	-0.397769	0.797045
H163	H	0.413459	-0.827068	0.084573
H164	H	0.913459	-0.327068	0.584573
