data_functionalizedCrystal
_audit_creation_method	'MofGen! by Chris Wilmer'
_symmetry_space_group_name_H-M	'P1'
_symmetry_Int_Tables_number	1
_symmetry_cell_setting	triclinic
loop_
_symmetry_equiv_pos_as_xyz
  x,y,z
_cell_length_a	19.288840
_cell_length_b	14.044220
_cell_length_c	18.366186
_cell_angle_alpha	89.993222
_cell_angle_beta	89.983729
_cell_angle_gamma	88.157446
loop_
_atom_site_label
_atom_site_type_symbol
_atom_site_fract_x
_atom_site_fract_y
_atom_site_fract_z
O1	O	0.928952	0.118100	-0.060674
O2	O	1.262285	0.451434	0.272659
O3	O	1.595619	0.784767	0.605992
O4	O	0.727715	0.134072	-0.060649
O5	O	1.061049	0.467405	0.272684
O6	O	1.394382	0.800739	0.606017
O7	O	0.825313	-0.011885	-0.060654
O8	O	1.158646	0.321448	0.272679
O9	O	1.491980	0.654782	0.606012
O10	O	0.831354	0.264058	-0.060669
O11	O	1.164688	0.597391	0.272664
O12	O	1.498021	0.930724	0.605997
O13	O	0.825295	-0.011892	0.060445
O14	O	1.158628	0.321441	0.393778
O15	O	1.491961	0.654774	0.727112
O16	O	0.727697	0.134065	0.060450
O17	O	1.061030	0.467398	0.393783
O18	O	1.394363	0.800732	0.727117
O19	O	0.928933	0.118093	0.060425
O20	O	1.262267	0.451427	0.393758
O21	O	1.595600	0.784760	0.727092
Zn22	Zn	0.828312	0.126078	0.079665
Zn23	Zn	1.161645	0.459411	0.412998
Zn24	Zn	1.494979	0.792745	0.746331
Zn25	Zn	0.828337	0.126087	-0.079889
Zn26	Zn	1.161670	0.459421	0.253444
Zn27	Zn	1.495003	0.792754	0.586778
O28	O	0.831336	0.264050	0.060430
O29	O	1.164669	0.597384	0.393763
O30	O	1.498002	0.930717	0.727097
C31	C	0.701796	0.133559	-0.000096
C32	C	1.035130	0.466892	0.333237
C33	C	1.368463	0.800225	0.666570
C34	C	0.624594	0.132028	-0.000087
C35	C	0.957927	0.465361	0.333247
C36	C	1.291260	0.798694	0.666580
C37	C	0.588353	0.131296	-0.066100
C38	C	0.921686	0.464630	0.267234
C39	C	1.255020	0.797963	0.600567
C40	C	0.515813	0.129847	-0.066109
C41	C	0.849146	0.463181	0.267225
C42	C	1.182480	0.796514	0.600558
C43	C	0.479517	0.129111	-0.000101
C44	C	0.812850	0.462444	0.333233
C45	C	1.146184	0.795777	0.666566
C46	C	0.515766	0.129848	0.065921
C47	C	0.849099	0.463181	0.399255
C48	C	1.182433	0.796515	0.732588
C49	C	0.588304	0.131306	0.065928
C50	C	0.921638	0.464640	0.399261
C51	C	1.254971	0.797973	0.732595
C52	C	0.366467	0.071292	0.050464
C53	C	0.699800	0.404626	0.383797
C54	C	1.033133	0.737959	0.717130
C55	C	0.293930	0.069828	0.050454
C56	C	0.627263	0.403161	0.383787
C57	C	0.960597	0.736495	0.717121
C58	C	0.255785	0.124617	-0.000119
C59	C	0.589118	0.457950	0.333214
C60	C	0.922451	0.791283	0.666547
C61	C	0.290185	0.180858	-0.050695
C62	C	0.623519	0.514191	0.282638
C63	C	0.956852	0.847524	0.615971
C64	C	0.362724	0.182316	-0.050688
C65	C	0.696057	0.515649	0.282645
C66	C	1.029390	0.848983	0.615978
C67	C	0.400861	0.127530	-0.000101
C68	C	0.734195	0.460863	0.333233
C69	C	1.067528	0.794197	0.666566
C70	C	0.140888	0.122316	-0.066147
C71	C	0.474221	0.455649	0.267187
C72	C	0.807554	0.788982	0.600520
C73	C	0.068346	0.120872	-0.066153
C74	C	0.401679	0.454206	0.267181
C75	C	0.735013	0.787539	0.600514
C76	C	0.068301	0.120863	0.065879
C77	C	0.401635	0.454197	0.399212
C78	C	0.734968	0.787530	0.732546
C79	C	0.140841	0.122316	0.065883
C80	C	0.474174	0.455649	0.399217
C81	C	0.807508	0.788983	0.732550
C82	C	0.177130	0.123037	-0.000132
C83	C	0.510463	0.456371	0.333202
C84	C	0.843797	0.789704	0.666535
C85	C	0.822659	-0.047191	-0.000104
C86	C	1.155993	0.286142	0.333229
C87	C	1.489326	0.619475	0.666563
C88	C	0.814772	-0.152383	-0.000102
C89	C	1.148105	0.180951	0.333231
C90	C	1.481438	0.514284	0.666565
C91	C	0.800351	-0.344981	-0.000111
C92	C	1.133684	-0.011647	0.333223
C93	C	1.467018	0.321686	0.666556
C94	C	0.856295	-0.402860	-0.000120
C95	C	1.189628	-0.069526	0.333213
C96	C	1.522961	0.263807	0.666547
C97	C	0.848271	-0.510028	-0.000125
C98	C	1.181604	-0.176694	0.333209
C99	C	1.514937	0.156639	0.666542
C100	C	0.808374	-0.237802	-0.000106
C101	C	1.141707	0.095531	0.333227
C102	C	1.475040	0.428864	0.666561
C103	C	0.954852	0.118607	-0.000129
C104	C	1.288186	0.451940	0.333204
C105	C	1.621519	0.785273	0.666537
C106	C	1.032055	0.120138	-0.000144
C107	C	1.365389	0.453471	0.333189
C108	C	1.698722	0.786804	0.666523
C109	C	0.833989	0.299357	-0.000122
C110	C	1.167323	0.632690	0.333211
C111	C	1.500656	0.966023	0.666545
C112	C	0.841877	0.404548	-0.000129
C113	C	1.175210	0.737881	0.333205
C114	C	1.508544	1.071215	0.666538
N115	N	0.828300	0.126071	0.188556
N116	N	1.161634	0.459404	0.521889
N117	N	1.494967	0.792738	0.855222
N118	N	0.828353	0.126087	-0.188780
N119	N	1.161687	0.459420	0.144553
N120	N	1.495020	0.792754	0.477887
C121	C	0.871534	0.061473	0.226654
C122	C	1.204868	0.394806	0.559987
C123	C	1.538201	0.728139	0.893321
C124	C	0.871538	0.061469	0.302882
C125	C	1.204872	0.394802	0.636215
C126	C	1.538205	0.728135	0.969549
C127	C	0.828316	0.126079	0.341009
C128	C	1.161650	0.459412	0.674342
C129	C	1.494983	0.792745	1.007675
C130	C	0.785074	0.190682	0.302901
C131	C	1.118407	0.524015	0.636234
C132	C	1.451741	0.857349	0.969568
C133	C	0.785066	0.190678	0.226675
C134	C	1.118399	0.524011	0.560008
C135	C	1.451733	0.857345	0.893341
C136	C	0.824566	0.212423	0.461765
C137	C	1.157899	0.545756	0.795098
C138	C	1.491233	0.879089	1.128431
C139	C	0.824579	0.212428	0.537990
C140	C	1.157912	0.545761	0.871323
C141	C	1.491245	0.879094	1.204656
C142	C	0.828337	0.126091	0.576116
C143	C	1.161670	0.459424	0.909449
C144	C	1.495004	0.792757	1.242783
C145	C	0.832097	0.039745	0.538008
C146	C	1.165430	0.373078	0.871341
C147	C	1.498763	0.706411	1.204675
C148	C	0.832089	0.039741	0.461782
C149	C	1.165422	0.373074	0.795115
C150	C	1.498755	0.706407	1.128448
C151	C	0.828320	0.126090	0.423663
C152	C	1.161653	0.459423	0.756997
C153	C	1.494987	0.792756	1.090330
C154	C	0.871577	0.061483	0.696869
C155	C	1.204911	0.394816	1.030203
C156	C	1.538244	0.728149	1.363536
C157	C	0.871577	0.061477	0.773098
C158	C	1.204910	0.394810	1.106432
C159	C	1.538243	0.728144	1.439765
C160	C	0.785116	0.190699	0.773116
C161	C	1.118449	0.524032	1.106450
C162	C	1.451783	0.857365	1.439783
C163	C	0.785113	0.190696	0.696888
C164	C	1.118446	0.524029	1.030222
C165	C	1.451780	0.857363	1.363555
C166	C	0.828347	0.126089	0.658770
C167	C	1.161681	0.459422	0.992103
C168	C	1.495014	0.792756	1.325436
H169	H	0.390729	0.228111	-0.091868
H170	H	0.724063	0.561445	0.241466
H171	H	1.057396	0.894778	0.574799
O172	O	0.249060	0.239992	-0.105232
O173	O	0.582394	0.573325	0.228101
O174	O	0.915727	0.906659	0.561434
H175	H	0.263769	0.217444	-0.161212
H176	H	0.597102	0.550777	0.172121
H177	H	0.930436	0.884110	0.505454
H178	H	0.617811	0.131903	0.119686
H179	H	0.951145	0.465236	0.453019
H180	H	1.284478	0.798570	0.786352
O181	O	0.738483	0.260371	0.655789
O182	O	1.071816	0.593704	0.989122
O183	O	1.405149	0.927038	1.322456
H184	H	0.770560	0.306316	0.621035
H185	H	1.103893	0.639649	0.954368
H186	H	1.437227	0.972983	1.287702
H187	H	0.910216	-0.371925	-0.000175
H188	H	1.243549	-0.038592	0.333158
H189	H	1.576882	0.294741	0.666491
O190	O	0.738521	0.260414	0.814232
O191	O	1.071854	0.593747	1.147565
O192	O	1.405187	0.927081	1.480899
H193	H	0.708462	0.305344	0.774929
H194	H	1.041796	0.638677	1.108263
H195	H	1.375129	0.972010	1.441596
H196	H	0.170435	0.122913	-0.119900
H197	H	0.503769	0.456246	0.213434
H198	H	0.837102	0.789580	0.546767
H199	H	0.170349	0.122905	0.119638
H200	H	0.503682	0.456239	0.452972
H201	H	0.837015	0.789572	0.786305
H202	H	0.746434	-0.375913	-0.000106
H203	H	1.079768	-0.042580	0.333227
H204	H	1.413101	0.290754	0.666561
O205	O	0.918154	-0.008219	0.185538
O206	O	1.251487	0.325114	0.518871
O207	O	1.584820	0.658448	0.852205
H208	H	0.948212	-0.053146	0.224842
H209	H	1.281545	0.280187	0.558175
H210	H	1.614879	0.613520	0.891509
H211	H	0.821522	0.282736	0.569011
H212	H	1.154855	0.616069	0.902345
H213	H	1.488188	0.949402	1.235678
O214	O	0.918181	-0.008198	0.343984
O215	O	1.251514	0.325135	0.677318
O216	O	1.584847	0.658468	1.010651
H217	H	0.904772	-0.082047	0.329370
H218	H	1.238105	0.251286	0.662703
H219	H	1.571438	0.584619	0.996036
H220	H	0.038840	0.120283	-0.119911
H221	H	0.372173	0.453616	0.213423
H222	H	0.705507	0.786949	0.546756
H223	H	0.835148	-0.030565	0.430757
H224	H	1.168481	0.302768	0.764090
H225	H	1.501815	0.636102	1.097424
H226	H	0.821494	0.282733	0.430729
H227	H	1.154827	0.616067	0.764062
H228	H	1.488160	0.949400	1.097395
H229	H	0.835156	-0.030559	0.569049
H230	H	1.168490	0.302774	0.902382
H231	H	1.501823	0.636107	1.235715
H232	H	0.749881	0.243287	0.333948
H233	H	1.083214	0.576620	0.667281
H234	H	1.416547	0.909954	1.000614
H235	H	0.265927	0.024029	0.091633
H236	H	0.599260	0.357362	0.424966
H237	H	0.932593	0.690696	0.758299
O238	O	0.476711	0.129039	-0.137310
O239	O	0.810045	0.462373	0.196023
O240	O	1.143378	0.795706	0.529356
H241	H	0.514133	0.129776	-0.183212
H242	H	0.847466	0.463109	0.150121
H243	H	1.180799	0.796443	0.483454
O244	O	0.918178	-0.008237	0.655752
O245	O	1.251511	0.325097	0.989086
O246	O	1.584844	0.658430	1.322419
H247	H	0.910908	0.002611	0.596346
H248	H	1.244241	0.335944	0.929679
H249	H	1.577575	0.669278	1.263013
H250	H	0.617895	0.131884	-0.119854
H251	H	0.951228	0.465217	0.213479
H252	H	1.284562	0.798550	0.546812
O253	O	0.918217	-0.008190	0.814196
O254	O	1.251551	0.325143	1.147530
O255	O	1.584884	0.658477	1.480863
H256	H	0.948285	-0.053103	0.774880
H257	H	1.281618	0.280231	1.108214
H258	H	1.614951	0.613564	1.441547
H259	H	0.749859	0.243282	0.195654
H260	H	1.083192	0.576616	0.528988
H261	H	1.416526	0.909949	0.862321
O262	O	0.029160	0.120248	0.137077
O263	O	0.362493	0.453581	0.470410
O264	O	0.695826	0.786914	0.803744
H265	H	-0.027372	0.119171	0.125983
H266	H	0.305961	0.452505	0.459317
H267	H	0.639294	0.785838	0.792650
H268	H	0.486209	0.129250	0.119665
H269	H	0.819543	0.462584	0.452999
H270	H	1.152876	0.795917	0.786332
O271	O	0.407609	0.012190	0.105010
O272	O	0.740942	0.345523	0.438343
O273	O	1.074275	0.678856	0.771677
H274	H	0.371504	-0.027175	0.140167
H275	H	0.704837	0.306158	0.473500
H276	H	1.038170	0.639492	0.806833
