data_functionalizedCrystal
_audit_creation_method	'MofGen! by Chris Wilmer'
_symmetry_space_group_name_H-M	'P1'
_symmetry_Int_Tables_number	1
_symmetry_cell_setting	triclinic
loop_
_symmetry_equiv_pos_as_xyz
  x,y,z
_cell_length_a	14.446369
_cell_length_b	14.809374
_cell_length_c	14.809374
_cell_angle_alpha	60.797835
_cell_angle_beta	89.998181
_cell_angle_gamma	67.426738
loop_
_atom_site_label
_atom_site_type_symbol
_atom_site_fract_x
_atom_site_fract_y
_atom_site_fract_z
Zr1	Zr	1.022448	0.955245	-0.203726
O2	O	0.909057	1.113161	-0.350880
O3	O	1.041155	0.777479	-0.145650
O4	O	1.079020	0.926628	-0.332192
O5	O	0.859586	0.993507	-0.031939
O6	O	1.231350	0.926635	-0.332200
O7	O	0.871193	0.964012	-0.164338
O8	O	1.163618	0.659834	0.001489
O9	O	0.927318	1.260307	-0.365628
O10	O	1.182211	0.857953	-0.136552
O11	O	1.059867	0.879960	-0.037739
O12	O	1.104447	1.055564	-0.257368
O13	O	0.982102	1.077571	-0.158554
Zr14	Zr	1.246886	1.002297	0.007422
Zr15	Zr	1.265398	0.955255	-0.203739
Zr16	Zr	1.003936	1.002286	0.007434
Zr17	Zr	1.051572	1.189927	-0.227249
Zr18	Zr	1.217761	0.767615	0.030944
O19	O	1.228179	1.180062	-0.050654
O20	O	1.254500	1.113175	-0.350897
O21	O	0.882736	1.180048	-0.050636
O22	O	1.360277	0.844381	0.154575
O23	O	1.386598	0.777494	-0.145668
O24	O	1.014834	0.844366	0.154593
O25	O	1.409748	0.964035	-0.164366
O26	O	1.190314	1.030913	0.135888
O27	O	1.037984	1.030907	0.135896
O28	O	1.398141	0.993530	-0.031967
O29	O	1.120431	1.260316	-0.365638
O30	O	1.148903	0.697226	0.169334
O31	O	1.342016	0.697234	0.169324
O32	O	1.356730	0.659842	0.001479
O33	O	0.912604	1.297699	-0.197784
O34	O	1.105716	1.297707	-0.197794
O35	O	1.164887	0.901977	0.061063
O36	O	1.287232	0.879970	-0.037750
O37	O	1.209467	1.077581	-0.158566
O38	O	1.087123	1.099588	-0.059752
C39	C	1.098237	0.685219	-0.068729
C40	C	1.085873	0.585591	-0.058743
C41	C	0.830774	0.978758	-0.098137
C42	C	0.727636	0.978753	-0.098131
C43	C	1.141052	0.530256	-0.103309
C44	C	1.128274	0.427284	-0.092989
C45	C	0.630031	0.854063	-0.022258
C46	C	0.737317	0.854048	-0.021893
C47	C	0.657629	1.057681	-0.059571
C48	C	0.550622	1.056902	-0.059035
C49	C	0.562855	1.025569	-0.212772
C50	C	0.671188	1.022998	-0.212335
C51	C	1.438560	0.978784	-0.098168
C52	C	1.541698	0.978788	-0.098173
C53	C	1.157822	0.919929	-0.362282
C54	C	1.165681	0.899959	-0.451925
C55	C	1.171097	1.272322	-0.127576
C56	C	1.183461	1.371951	-0.137561
C57	C	1.130609	0.989084	-0.551824
C58	C	1.138730	0.968446	-0.644476
C59	C	1.111511	1.037612	0.165977
C60	C	1.103653	1.057583	0.255621
C61	C	1.402130	0.685232	-0.068745
C62	C	1.492904	0.585608	-0.058764
C63	C	1.075081	0.744061	0.195401
C64	C	1.054859	0.664403	0.295030
C65	C	1.378974	0.744074	0.195385
C66	C	1.461890	0.664420	0.295009
C67	C	0.890360	1.213467	-0.391689
C68	C	0.807444	1.293121	-0.491313
C69	C	0.867204	1.272309	-0.127560
C70	C	0.776430	1.371933	-0.137540
C71	C	1.194252	1.213480	-0.391705
C72	C	1.214475	1.293139	-0.491334
C73	C	1.480714	0.527329	-0.105659
C74	C	1.566000	0.433730	-0.096303
C75	C	1.663474	0.398407	-0.040044
C76	C	1.675663	0.456695	0.006852
C77	C	1.590379	0.550298	-0.002511
C78	C	1.100181	0.638489	0.393399
C79	C	1.081176	0.563656	0.487018
C80	C	1.016855	0.514732	0.482266
C81	C	0.971527	0.540653	0.383886
C82	C	0.990527	0.615491	0.290269
C83	C	1.564701	0.615526	0.290214
C84	C	1.642620	0.540694	0.383811
C85	C	1.617726	0.514751	0.482204
C86	C	1.514905	0.563654	0.486996
C87	C	1.436988	0.638491	0.393399
C88	C	0.704635	1.342026	-0.486519
C89	C	0.626719	1.416888	-0.580120
C90	C	0.651614	1.442836	-0.678513
C91	C	0.754434	1.393927	-0.683305
C92	C	0.832348	1.319074	-0.589706
C93	C	0.788622	1.430220	-0.090655
C94	C	0.703341	1.523840	-0.100038
C95	C	0.605868	1.559166	-0.156300
C96	C	0.593678	1.500874	-0.203191
C97	C	0.678959	1.407261	-0.193815
C98	C	1.278801	1.342040	-0.486548
C99	C	1.297823	1.416877	-0.580151
C100	C	1.252511	1.442817	-0.678540
C101	C	1.188182	1.393907	-0.683323
C102	C	1.169167	1.319065	-0.589721
H103	H	1.071572	0.398427	-0.047189
H104	H	1.201724	0.808376	-0.434992
O105	O	1.169561	0.691245	0.398542
H106	H	1.125617	0.786507	0.352276
H107	H	1.732909	0.322187	-0.032426
O108	O	1.258571	0.410161	-0.198235
H109	H	1.256816	0.485049	-0.196831
H110	H	0.713286	1.571288	-0.061847
O111	O	1.273020	1.523547	-0.779494
H112	H	1.199139	1.598935	-0.832516
H113	H	1.151293	1.415040	-0.763444
H114	H	1.197757	0.559109	-0.149100
H115	H	1.116783	1.279257	-0.593633
O116	O	1.082871	1.110401	-0.574270
H117	H	1.002060	1.156302	-0.620654
H118	H	1.315703	1.320933	-0.406444
O119	O	0.902171	0.487854	0.378791
H120	H	0.824288	0.557292	0.330038
H121	H	1.029175	0.556730	-0.012946
H122	H	0.628276	0.792926	-0.047140
O123	O	0.659818	1.142151	-0.292129
H124	H	0.619709	1.170732	-0.371817
O125	O	1.367203	1.469626	-0.574981
H126	H	1.395498	1.439024	-0.490839
H127	H	0.787558	0.793291	-0.046988
H128	H	1.726336	0.500883	0.379891
H129	H	0.588160	1.503787	-0.754719
H130	H	1.174776	0.876857	-0.627535
H131	H	0.669017	1.359805	-0.231993
H132	H	0.684344	1.320904	-0.406411
O133	O	0.943238	1.266361	-0.594895
H134	H	0.993248	1.209966	-0.513288
H135	H	1.681181	0.453812	0.558409
H136	H	0.556563	0.972776	-0.246304
O137	O	0.613354	0.805633	0.089347
H138	H	0.542429	0.870012	0.090984
O139	O	0.781279	1.421909	-0.789430
H140	H	0.709819	1.482163	-0.853700
H141	H	0.777464	0.817239	0.062885
O142	O	1.326095	0.691199	0.398578
H143	H	1.321884	0.660565	0.482726
H144	H	1.067613	1.149172	-0.761322
O145	O	1.375590	0.565428	-0.166358
H146	H	1.353365	0.493488	-0.128696
O147	O	0.533750	1.015461	0.052250
H148	H	0.601947	0.996161	0.105179
O149	O	0.468141	1.179071	-0.128490
H150	H	0.504788	1.238446	-0.162305
O151	O	0.488540	1.538988	-0.263873
H152	H	0.466307	1.467056	-0.226194
H153	H	1.556055	0.386281	-0.134492
H154	H	1.600318	0.597739	0.035684
O155	O	0.643332	1.179970	-0.130023
H156	H	0.686074	1.185802	-0.193420
O157	O	1.488058	0.535651	0.593124
H158	H	1.559516	0.475383	0.657395
O159	O	0.941649	0.643324	0.184219
H160	H	0.892407	0.737467	0.132954
H161	H	1.755038	0.427921	0.052658
H162	H	0.501377	1.117287	-0.269435
H163	H	1.584989	0.636636	0.210107
O164	O	0.893753	1.392144	-0.029988
H165	H	0.887890	1.448427	0.001016
O166	O	0.709009	1.017509	0.050583
H167	H	0.784372	0.941383	0.078053
O168	O	0.515823	1.469609	-0.574938
H169	H	0.511608	1.438962	-0.490790
O170	O	0.513880	1.660107	-0.166374
H171	H	0.538740	1.694680	-0.124296
H172	H	0.719362	0.965268	-0.241265
H173	H	1.118094	0.542562	0.567114
H174	H	1.001393	0.453797	0.558503
