data_functionalizedCrystal
_audit_creation_method	'MofGen! by Chris Wilmer'
_symmetry_space_group_name_H-M	'P1'
_symmetry_Int_Tables_number	1
_symmetry_cell_setting	triclinic
loop_
_symmetry_equiv_pos_as_xyz
  x,y,z
_cell_length_a	16.109301
_cell_length_b	15.538191
_cell_length_c	14.586319
_cell_angle_alpha	89.999456
_cell_angle_beta	89.999213
_cell_angle_gamma	65.366787
loop_
_atom_site_label
_atom_site_type_symbol
_atom_site_fract_x
_atom_site_fract_y
_atom_site_fract_z
O1	O	1.066616	0.121093	-0.076175
O2	O	0.820010	0.136163	-0.076189
O3	O	0.991317	-0.008516	-0.076184
O4	O	0.895309	0.265773	-0.076180
O5	O	0.991309	-0.008518	0.076297
O6	O	0.820002	0.136161	0.076292
O7	O	1.066608	0.121091	0.076306
Cu8	Cu	0.943304	0.128626	0.090221
Cu9	Cu	0.943314	0.128629	-0.090105
O10	O	0.895301	0.265770	0.076300
C11	C	0.789215	0.135552	0.000050
C12	C	0.697472	0.133722	0.000044
C13	C	0.450596	0.215316	0.000056
C14	C	0.364396	0.213589	0.000062
C15	C	0.436032	0.041932	0.000056
C16	C	0.522229	0.043660	0.000056
C17	C	0.529508	0.130355	0.000052
C18	C	0.357111	0.126900	0.000057
C19	C	0.263649	0.125027	0.000063
C20	C	0.622975	0.132228	0.000047
C21	C	1.001358	-0.043615	0.000054
C22	C	1.031279	-0.148198	0.000047
C23	C	0.734025	-0.435898	0.000050
C24	C	0.762161	-0.534172	0.000053
C25	C	0.920419	-0.556664	0.000062
C26	C	0.892297	-0.458389	0.000054
C27	C	0.799099	-0.398013	0.000049
C28	C	0.957370	-0.420505	0.000053
C29	C	0.929249	-0.322239	0.000049
C30	C	0.836055	-0.261857	0.000047
C31	C	0.770978	-0.299747	0.000046
C32	C	1.050568	-0.480882	0.000064
C33	C	1.115641	-0.442998	0.000063
C34	C	1.087520	-0.344730	0.000053
C35	C	0.994326	-0.284349	0.000051
C36	C	1.152598	-0.306840	0.000055
C37	C	1.124477	-0.208574	0.000052
C38	C	0.966206	-0.186083	0.000048
C39	C	1.097403	0.121703	0.000065
C40	C	1.189147	0.123533	0.000065
C41	C	0.885260	0.300870	0.000060
C42	C	0.855340	0.405453	0.000062
N43	N	0.943304	0.128624	0.217053
N44	N	0.943324	0.128624	-0.216937
C45	C	1.019171	0.064581	0.452062
C46	C	1.019174	0.064579	0.548043
C47	C	0.867450	0.192669	0.548048
C48	C	0.867445	0.192666	0.452069
C49	C	0.943310	0.128623	0.404078
C50	C	0.943318	0.128624	0.596039
C51	C	0.943320	0.128622	0.700106
C52	C	0.943307	0.128624	0.300004
H53	H	0.586487	-0.025530	0.000056
O54	O	0.793690	0.254972	0.405593
C55	C	0.643178	0.381982	0.415718
C56	C	0.726649	0.311494	0.468466
H57	H	0.588945	0.427685	0.466528
H58	H	0.664800	0.429119	0.370801
H59	H	0.613970	0.341270	0.370765
H60	H	0.755896	0.352129	0.513469
H61	H	0.704975	0.264358	0.513325
H62	H	0.695087	-0.250585	0.000035
H63	H	0.456517	0.285908	0.000059
H64	H	0.300146	0.282773	0.000067
H65	H	1.080946	0.012429	0.587109
O66	O	0.428795	-0.042196	0.000012
C67	C	0.327752	-0.120936	0.000059
C68	C	0.335813	-0.025593	0.000090
H69	H	0.252581	-0.107546	0.000141
H70	H	0.362307	-0.162931	-0.063771
H71	H	0.362411	-0.162923	0.063855
H72	H	0.301147	0.016470	-0.063664
H73	H	0.301283	0.016330	0.063961
H74	H	0.890314	-0.136921	0.000037
O75	O	0.808844	-0.166416	0.000166
C76	C	0.811849	-0.031555	0.079185
C77	C	0.842746	-0.139651	0.079155
H78	H	0.839229	-0.009880	0.143050
H79	H	0.839317	-0.009815	0.015415
H80	H	0.734062	0.005065	0.079137
H81	H	0.920527	-0.176347	0.079235
H82	H	0.815210	-0.161320	0.142918
O83	O	0.643503	-0.377199	-0.000122
C84	C	0.519929	-0.253153	-0.079102
C85	C	0.622448	-0.319590	-0.079033
H86	H	0.502879	-0.206545	-0.142884
H87	H	0.478195	-0.297056	-0.079165
H88	H	0.502829	-0.206627	-0.015261
H89	H	0.639634	-0.366129	-0.142862
H90	H	0.664127	-0.275630	-0.078921
H91	H	0.805683	0.244813	0.587132
O92	O	0.698824	-0.570816	0.000006
C93	C	0.538872	-0.538133	0.000048
C94	C	0.610501	-0.496509	0.000080
H95	H	0.467447	-0.478076	0.000127
H96	H	0.548018	-0.583542	-0.063781
H97	H	0.548130	-0.583610	0.063845
H98	H	0.601287	-0.450990	-0.063674
H99	H	0.601335	-0.451154	0.063951
H100	H	0.996301	-0.605834	0.000070
H101	H	1.177466	-0.177729	0.000052
O102	O	1.078001	-0.576355	-0.000056
C103	C	1.161749	-0.723536	-0.079071
C104	C	1.130761	-0.615427	-0.079038
H105	H	1.204394	-0.755155	-0.142932
H106	H	1.204507	-0.755252	-0.015297
H107	H	1.099220	-0.740226	-0.079035
H108	H	1.193236	-0.598652	-0.079107
H109	H	1.087971	-0.583767	-0.142807
O110	O	1.206195	-0.501555	-0.000058
C111	C	1.350059	-0.550890	-0.079089
C112	C	1.247525	-0.484508	-0.079051
H113	H	1.383501	-0.537145	-0.142958
H114	H	1.383612	-0.537104	-0.015323
H115	H	1.358957	-0.627624	-0.079041
H116	H	1.238544	-0.407751	-0.079131
H117	H	1.214022	-0.498376	-0.142812
O118	O	1.243151	-0.365399	-0.000059
C119	C	1.387026	-0.414746	-0.079073
C120	C	1.284493	-0.348360	-0.079048
H121	H	1.420476	-0.401008	-0.142939
H122	H	1.420572	-0.400955	-0.015304
H123	H	1.395921	-0.491479	-0.079021
H124	H	1.275514	-0.271604	-0.079133
H125	H	1.250996	-0.362233	-0.142811
H126	H	1.080944	0.012432	0.412990
