data_functionalizedCrystal
_audit_creation_method	'MofGen! by Chris Wilmer'
_symmetry_space_group_name_H-M	'P1'
_symmetry_Int_Tables_number	1
_symmetry_cell_setting	triclinic
loop_
_symmetry_equiv_pos_as_xyz
  x,y,z
_cell_length_a	10.489746
_cell_length_b	9.565339
_cell_length_c	16.992695
_cell_angle_alpha	89.999951
_cell_angle_beta	92.395238
_cell_angle_gamma	90.000667
loop_
_atom_site_label
_atom_site_type_symbol
_atom_site_fract_x
_atom_site_fract_y
_atom_site_fract_z
O1	O	1.703680	0.116167	-0.110702
O2	O	1.333389	0.116191	-0.121088
O3	O	1.517050	0.116168	-0.001744
O4	O	1.520019	0.116190	-0.230046
O5	O	1.517035	-0.116352	-0.001751
O6	O	1.333374	-0.116329	-0.121095
O7	O	1.703665	-0.116353	-0.110710
Zn8	Zn	1.518517	-0.153259	-0.115904
Zn9	Zn	1.518537	0.153097	-0.115894
O10	O	1.520004	-0.116330	-0.230054
C11	C	1.285781	-0.000066	-0.120306
C12	C	1.143948	-0.000058	-0.117957
C13	C	0.984363	-0.000085	-0.040631
C14	C	1.065113	-0.114722	-0.079295
C15	C	1.065084	0.114525	-0.079305
C16	C	0.971988	-0.114824	-0.152474
C17	C	0.971953	0.114526	-0.152474
C18	C	1.052658	-0.000139	-0.191191
N19	N	1.518513	-0.362338	-0.115910
C20	C	1.433547	-0.453531	-0.171084
C21	C	1.550425	-0.546715	-0.186960
C22	C	1.401686	-0.546709	-0.100040
C23	C	1.635453	-0.453471	-0.131822
C24	C	1.486635	-0.453456	-0.044871
C25	C	1.603593	-0.546599	-0.060717
C26	C	1.751272	-0.000093	-0.111491
C27	C	1.893106	-0.000092	-0.113841
C28	C	1.513223	-0.000092	0.027486
C29	C	1.501828	-0.000091	0.114595
N30	N	1.518550	0.362176	-0.115882
C31	C	1.523830	-0.000067	-0.259284
C32	C	1.535226	-0.000059	-0.346393
C33	C	1.611777	-0.000099	0.164213
C34	C	1.601062	-0.000085	0.246061
C35	C	1.480397	-0.000073	0.278288
C36	C	1.370440	-0.000060	0.228663
C37	C	1.381156	-0.000064	0.146817
C38	C	1.435984	-0.000051	0.522137
C39	C	1.425277	-0.000051	0.603989
C40	C	1.655900	-0.000073	0.621381
C41	C	1.666606	-0.000086	0.539533
C42	C	1.556648	-0.000066	0.489915
N43	N	1.469442	-0.000063	0.361949
N44	N	1.567604	-0.000065	0.406256
H45	H	1.082677	-0.000196	-0.254897
H46	H	1.675546	-0.587206	-0.014044
H47	H	1.734296	-0.412688	-0.145304
H48	H	0.931145	0.211456	-0.183348
H49	H	1.105843	0.211444	-0.048383
H50	H	1.302872	-0.587668	-0.086630
H51	H	1.459613	-0.412461	0.015174
H52	H	1.710035	-0.000118	0.137981
H53	H	1.690595	-0.000095	0.286457
H54	H	1.764864	-0.000096	0.513300
H55	H	1.745421	-0.000087	0.661788
H56	H	0.931389	-0.211853	-0.183361
H57	H	1.327012	-0.000063	0.630225
H58	H	1.272192	-0.000041	0.254909
H59	H	1.361767	-0.412667	-0.217786
H60	H	1.346448	-0.000035	0.481748
H61	H	0.954104	-0.000207	0.023027
H62	H	1.105894	-0.211648	-0.048393
H63	H	1.577413	-0.587678	-0.247024
H64	H	1.291623	-0.000057	0.106418
