data_functionalizedCrystal
_audit_creation_method	'MofGen! by Chris Wilmer'
_symmetry_space_group_name_H-M	'P1'
_symmetry_Int_Tables_number	1
_symmetry_cell_setting	triclinic
loop_
_symmetry_equiv_pos_as_xyz
  x,y,z
_cell_length_a	14.971486
_cell_length_b	17.699103
_cell_length_c	14.048226
_cell_angle_alpha	89.988606
_cell_angle_beta	89.998499
_cell_angle_gamma	83.452595
loop_
_atom_site_label
_atom_site_type_symbol
_atom_site_fract_x
_atom_site_fract_y
_atom_site_fract_z
O1	O	1.186616	0.098632	-0.079062
O2	O	1.519950	0.431966	0.254271
O3	O	1.853283	0.765299	0.587605
O4	O	0.926176	0.110444	-0.079089
O5	O	1.259510	0.443777	0.254244
O6	O	1.592843	0.777110	0.587578
O7	O	1.063745	-0.005632	-0.079057
O8	O	1.397079	0.327701	0.254277
O9	O	1.730412	0.661035	0.587610
O10	O	1.049047	0.214708	-0.079095
O11	O	1.382381	0.548041	0.254239
O12	O	1.715714	0.881375	0.587572
O13	O	1.063729	-0.005639	0.079265
O14	O	1.397062	0.327694	0.412598
O15	O	1.730395	0.661028	0.745931
O16	O	0.926160	0.110437	0.079232
O17	O	1.259493	0.443770	0.412566
O18	O	1.592827	0.777103	0.745899
O19	O	1.186600	0.098625	0.079259
O20	O	1.519933	0.431959	0.412593
O21	O	1.853266	0.765292	0.745926
Zn22	Zn	1.056377	0.104530	0.104383
Zn23	Zn	1.389711	0.437863	0.437716
Zn24	Zn	1.723044	0.771197	0.771049
Zn25	Zn	1.056399	0.104539	-0.104212
Zn26	Zn	1.389732	0.437872	0.229121
Zn27	Zn	1.723066	0.771206	0.562454
O28	O	1.049031	0.214701	0.079227
O29	O	1.382364	0.548035	0.412560
O30	O	1.715698	0.881368	0.745893
C31	C	0.892845	0.109912	0.000068
C32	C	1.226179	0.443245	0.333402
C33	C	1.559512	0.776579	0.666735
C34	C	0.793554	0.108329	0.000059
C35	C	1.126887	0.441662	0.333392
C36	C	1.460220	0.774996	0.666725
C37	C	1.063207	-0.033834	0.000107
C38	C	1.396541	0.299500	0.333440
C39	C	1.729874	0.632833	0.666773
C40	C	1.061618	-0.117855	0.000114
C41	C	1.394952	0.215479	0.333448
C42	C	1.728285	0.548812	0.666781
C43	C	0.736099	0.176520	0.000048
C44	C	1.069433	0.509854	0.333382
C45	C	1.402766	0.843187	0.666715
C46	C	0.642805	0.175029	0.000063
C47	C	0.976138	0.508362	0.333396
C48	C	1.309472	0.841695	0.666729
C49	C	0.606966	0.105345	0.000081
C50	C	0.940300	0.438678	0.333414
C51	C	1.273633	0.772011	0.666748
C52	C	0.664428	0.037148	0.000094
C53	C	0.997761	0.370481	0.333427
C54	C	1.331094	0.703815	0.666761
C55	C	0.757720	0.038641	0.000086
C56	C	1.091054	0.371974	0.333420
C57	C	1.424387	0.705307	0.666753
C58	C	0.469976	0.034042	0.000108
C59	C	0.803309	0.367375	0.333441
C60	C	1.136642	0.700708	0.666774
C61	C	0.376677	0.032549	0.000114
C62	C	0.710010	0.365882	0.333447
C63	C	1.043343	0.699215	0.666780
C64	C	0.355060	0.170430	0.000084
C65	C	0.688394	0.503763	0.333417
C66	C	1.021727	0.837096	0.666751
C67	C	0.448353	0.171922	0.000076
C68	C	0.781686	0.505256	0.333410
C69	C	1.115020	0.838589	0.666743
C70	C	0.505808	0.103725	0.000088
C71	C	0.839141	0.437059	0.333421
C72	C	1.172475	0.770392	0.666755
C73	C	1.051908	-0.633586	-0.086250
C74	C	1.385241	-0.300253	0.247084
C75	C	1.718575	0.033080	0.580417
C76	C	1.053400	-0.554639	-0.086241
C77	C	1.386733	-0.221306	0.247092
C78	C	1.720067	0.112027	0.580425
C79	C	1.054135	-0.515183	0.000066
C80	C	1.387468	-0.181850	0.333399
C81	C	1.720802	0.151484	0.666732
C82	C	1.053387	-0.554678	0.086369
C83	C	1.386721	-0.221345	0.419703
C84	C	1.720054	0.111988	0.753036
C85	C	1.051902	-0.633625	0.086360
C86	C	1.385235	-0.300291	0.419693
C87	C	1.718569	0.033042	0.753027
C88	C	1.059379	-0.236297	0.086410
C89	C	1.392712	0.097036	0.419743
C90	C	1.726046	0.430369	0.753076
C91	C	1.060862	-0.157345	0.086413
C92	C	1.394195	0.175988	0.419746
C93	C	1.727528	0.509321	0.753079
C94	C	1.060877	-0.157312	-0.086191
C95	C	1.394210	0.176021	0.247142
C96	C	1.727543	0.509355	0.580475
C97	C	1.059391	-0.236258	-0.086201
C98	C	1.392725	0.097075	0.247133
C99	C	1.726058	0.430408	0.580466
C100	C	1.058649	-0.275747	0.000102
C101	C	1.391982	0.057586	0.333436
C102	C	1.725315	0.390919	0.666769
C103	C	1.057033	-0.361351	0.000092
C104	C	1.390366	-0.028018	0.333425
C105	C	1.723699	0.305316	0.666759
C106	C	1.055744	-0.429580	0.000077
C107	C	1.389078	-0.096247	0.333410
C108	C	1.722411	0.237086	0.666744
C109	C	1.219931	0.099157	0.000100
C110	C	1.553264	0.432490	0.333433
C111	C	1.886598	0.765824	0.666767
C112	C	1.319223	0.100740	0.000103
C113	C	1.652556	0.434073	0.333437
C114	C	1.985889	0.767407	0.666770
C115	C	1.049569	0.242903	0.000061
C116	C	1.382902	0.576236	0.333395
C117	C	1.716236	0.909569	0.666728
C118	C	1.051158	0.326924	0.000047
C119	C	1.384491	0.660257	0.333381
C120	C	1.717824	0.993591	0.666714
N121	N	1.056369	0.104523	0.246743
N122	N	1.389702	0.437857	0.580077
N123	N	1.723036	0.771190	0.913410
N124	N	1.056414	0.104540	-0.246573
N125	N	1.389748	0.437873	0.086760
N126	N	1.723081	0.771206	0.420094
C127	C	1.117303	0.053146	0.296576
C128	C	1.450637	0.386480	0.629909
C129	C	1.783970	0.719813	0.963243
C130	C	1.117309	0.053146	0.396234
C131	C	1.450643	0.386479	0.729567
C132	C	1.783976	0.719813	1.062900
C133	C	1.056385	0.104527	0.446057
C134	C	1.389718	0.437860	0.779390
C135	C	1.723051	0.771193	1.112724
C136	C	0.995444	0.155906	0.396217
C137	C	1.328777	0.489240	0.729551
C138	C	1.662110	0.822573	1.062884
C139	C	0.995434	0.155903	0.296562
C140	C	1.328767	0.489236	0.629895
C141	C	1.662101	0.822569	0.963228
C142	C	0.995469	0.155912	0.603932
C143	C	1.328803	0.489245	0.937265
C144	C	1.662136	0.822578	1.270598
C145	C	0.995480	0.155917	0.703594
C146	C	1.328813	0.489250	1.036928
C147	C	1.662147	0.822583	1.370261
C148	C	1.117345	0.053155	0.703604
C149	C	1.450678	0.386489	1.036937
C150	C	1.784012	0.719822	1.370270
C151	C	1.117335	0.053151	0.603948
C152	C	1.450669	0.386485	0.937281
C153	C	1.784002	0.719818	1.270614
C154	C	1.056395	0.104532	0.554115
C155	C	1.389728	0.437865	0.887449
C156	C	1.723062	0.771199	1.220782
H157	H	0.765271	0.233265	0.000033
H158	H	1.098605	0.566599	0.333366
H159	H	1.431938	0.899932	0.666700
Cl160	Cl	1.058436	-0.285930	0.194906
Cl161	Cl	1.391769	0.047404	0.528239
Cl162	Cl	1.725103	0.380737	0.861572
Cl163	Cl	0.570580	0.260759	0.000044
Cl164	Cl	0.903914	0.594092	0.333377
Cl165	Cl	1.237247	0.927426	0.666710
Cl166	Cl	0.493406	0.259526	0.000043
Cl167	Cl	0.826739	0.592860	0.333377
Cl168	Cl	1.160073	0.926193	0.666710
Cl169	Cl	1.054317	-0.505076	0.194870
Cl170	Cl	1.387650	-0.171743	0.528204
Cl171	Cl	1.720983	0.161590	0.861537
Cl172	Cl	1.050977	-0.683180	-0.194756
Cl173	Cl	1.384311	-0.349847	0.138577
Cl174	Cl	1.717644	-0.016514	0.471910
Cl175	Cl	1.050964	-0.683270	0.194853
Cl176	Cl	1.384298	-0.349937	0.528186
Cl177	Cl	1.717631	-0.016603	0.861519
Cl178	Cl	1.193904	-0.011448	0.233951
Cl179	Cl	1.527237	0.321886	0.567285
Cl180	Cl	1.860571	0.655219	0.900618
Cl181	Cl	0.331624	-0.055055	0.000168
Cl182	Cl	0.664957	0.278278	0.333501
Cl183	Cl	0.998290	0.611611	0.666835
H184	H	1.058788	-0.268379	-0.156481
H185	H	1.392122	0.064954	0.176853
H186	H	1.725455	0.398287	0.510186
H187	H	1.054013	-0.522491	-0.156513
H188	H	1.387346	-0.189157	0.176820
H189	H	1.720679	0.144176	0.510154
Cl190	Cl	1.193913	-0.011444	0.458882
Cl191	Cl	1.527247	0.321889	0.792215
Cl192	Cl	1.860580	0.655222	1.125549
H193	H	1.166964	0.011319	0.744183
H194	H	1.500297	0.344653	1.077516
H195	H	1.833631	0.677986	1.410850
Cl196	Cl	0.829949	-0.047089	0.000104
Cl197	Cl	1.163283	0.286244	0.333437
Cl198	Cl	1.496616	0.619577	0.666770
H199	H	1.061484	-0.125151	-0.156464
H200	H	1.394818	0.208183	0.176870
H201	H	1.728151	0.541516	0.510203
Cl202	Cl	0.282832	0.256163	0.000072
Cl203	Cl	0.616165	0.589496	0.333405
Cl204	Cl	0.949499	0.922830	0.666738
Cl205	Cl	0.542204	-0.051693	0.000124
Cl206	Cl	0.875537	0.281640	0.333457
Cl207	Cl	1.208870	0.614973	0.666791
Cl208	Cl	1.061787	-0.107744	0.194921
Cl209	Cl	1.395120	0.225590	0.528255
Cl210	Cl	1.728453	0.558923	0.861588
H211	H	1.166949	0.011317	0.563382
H212	H	1.500282	0.344650	0.896715
H213	H	1.833616	0.677984	1.230048
Cl214	Cl	0.918847	0.220497	0.458850
Cl215	Cl	1.252180	0.553831	0.792184
Cl216	Cl	1.585513	0.887164	1.125517
H217	H	0.635241	-0.019590	0.000122
H218	H	0.968574	0.313743	0.333456
H219	H	1.301907	0.647077	0.666789
H220	H	0.945868	0.197756	0.744156
H221	H	1.279201	0.531089	1.077489
H222	H	1.612534	0.864422	1.410822
H223	H	0.945842	0.197749	0.563361
H224	H	1.279176	0.531082	0.896695
H225	H	1.612509	0.864416	1.230028
H226	H	0.945814	0.197738	0.255989
H227	H	1.279147	0.531071	0.589322
H228	H	1.612481	0.864405	0.922656
