data_functionalizedCrystal
_audit_creation_method	'MofGen! by Chris Wilmer'
_symmetry_space_group_name_H-M	'P1'
_symmetry_Int_Tables_number	1
_symmetry_cell_setting	triclinic
loop_
_symmetry_equiv_pos_as_xyz
  x,y,z
_cell_length_a	12.594517
_cell_length_b	13.897448
_cell_length_c	13.897441
_cell_angle_alpha	90.030599
_cell_angle_beta	89.984820
_cell_angle_gamma	89.982350
loop_
_atom_site_label
_atom_site_type_symbol
_atom_site_fract_x
_atom_site_fract_y
_atom_site_fract_z
Zn1	Zn	1.627264	0.383985	-0.545238
Zn2	Zn	1.877264	0.633985	-0.295238
Zn3	Zn	2.127264	0.883985	-0.045238
Zn4	Zn	2.377264	1.133985	0.204762
Zn5	Zn	1.627147	0.545307	-0.383940
Zn6	Zn	1.877147	0.795307	-0.133940
Zn7	Zn	2.127147	1.045307	0.116060
Zn8	Zn	2.377147	1.295307	0.366060
Zn9	Zn	1.449265	0.384028	-0.383972
Zn10	Zn	1.699265	0.634028	-0.133972
Zn11	Zn	1.949265	0.884028	0.116028
Zn12	Zn	2.199265	1.134028	0.366028
Zn13	Zn	1.449245	0.545240	-0.545208
Zn14	Zn	1.699245	0.795240	-0.295208
Zn15	Zn	1.949245	1.045240	-0.045208
Zn16	Zn	2.199245	1.295240	0.204792
O17	O	1.538230	0.464640	-0.464589
O18	O	1.788230	0.714640	-0.214589
O19	O	2.038230	0.964640	0.035411
O20	O	2.288230	1.214640	0.285411
O21	O	1.776194	0.405395	-0.523841
O22	O	2.026194	0.655395	-0.273841
O23	O	2.276194	0.905395	-0.023841
O24	O	2.526194	1.155395	0.226159
O25	O	1.603510	0.523959	-0.248962
O26	O	1.853510	0.773959	0.001038
O27	O	2.103510	1.023959	0.251038
O28	O	2.353510	1.273959	0.501038
O29	O	1.472934	0.249040	-0.405391
O30	O	1.722934	0.499040	-0.155391
O31	O	1.972934	0.749040	0.094609
O32	O	2.222934	0.999040	0.344609
O33	O	1.776108	0.523918	-0.405335
O34	O	2.026108	0.773918	-0.155335
O35	O	2.276108	1.023918	0.094665
O36	O	2.526108	1.273918	0.344665
O37	O	1.603709	0.249009	-0.523872
O38	O	1.853709	0.499009	-0.273872
O39	O	2.103709	0.749009	-0.023872
O40	O	2.353709	0.999009	0.226128
O41	O	1.472821	0.405467	-0.248986
O42	O	1.722821	0.655467	0.001014
O43	O	1.972821	0.905467	0.251014
O44	O	2.222821	1.155467	0.501014
O45	O	1.300317	0.405402	-0.405361
O46	O	1.550317	0.655402	-0.155361
O47	O	1.800317	0.905402	0.094639
O48	O	2.050317	1.155402	0.344639
O49	O	1.472900	0.523803	-0.680194
O50	O	1.722900	0.773803	-0.430194
O51	O	1.972900	1.023803	-0.180194
O52	O	2.222900	1.273803	0.069806
O53	O	1.300302	0.523844	-0.523821
O54	O	1.550302	0.773844	-0.273821
O55	O	1.800302	1.023844	-0.023821
O56	O	2.050302	1.273844	0.226179
O57	O	1.603690	0.405330	-0.680216
O58	O	1.853690	0.655330	-0.430216
O59	O	2.103690	0.905330	-0.180216
O60	O	2.353690	1.155330	0.069784
O61	O	1.603490	0.680280	-0.405306
O62	O	1.853490	0.930280	-0.155306
O63	O	2.103490	1.180280	0.094694
O64	O	2.353490	1.430280	0.344694
O65	O	1.472787	0.680230	-0.523789
O66	O	1.722787	0.930230	-0.273789
O67	O	1.972787	1.180230	-0.023789
O68	O	2.222787	1.430230	0.226211
C69	C	1.261689	0.464621	-0.464592
C70	C	1.511689	0.714621	-0.214592
C71	C	1.761689	0.964621	0.035408
C72	C	2.011689	1.214621	0.285408
C73	C	1.143384	0.464637	-0.464616
C74	C	1.393384	0.714637	-0.214616
C75	C	1.643384	0.964637	0.035384
C76	C	1.893384	1.214637	0.285384
C77	C	1.003390	0.529174	-0.528926
C78	C	1.253390	0.779174	-0.278926
C79	C	1.503390	1.029174	-0.028926
C80	C	1.753390	1.279174	0.221074
C81	C	1.074158	0.552653	-0.440891
C82	C	1.324158	0.802653	-0.190891
C83	C	1.574158	1.052653	0.059109
C84	C	1.824158	1.302653	0.309109
C85	C	1.074187	0.441200	-0.552641
C86	C	1.324187	0.691200	-0.302641
C87	C	1.574187	0.941200	-0.052641
C88	C	1.824187	1.191200	0.197359
C89	C	1.003367	0.488192	-0.376505
C90	C	1.253367	0.738192	-0.126505
C91	C	1.503367	0.988192	0.123495
C92	C	1.753367	1.238192	0.373495
C93	C	1.003389	0.376699	-0.488315
C94	C	1.253389	0.626699	-0.238315
C95	C	1.503389	0.876699	0.011685
C96	C	1.753389	1.126699	0.261685
C97	C	1.074126	0.400144	-0.400219
C98	C	1.324126	0.650144	-0.150219
C99	C	1.574126	0.900144	0.099781
C100	C	1.824126	1.150144	0.349781
C101	C	1.538153	0.715254	-0.464562
C102	C	1.788153	0.965254	-0.214562
C103	C	2.038153	1.215254	0.035438
C104	C	2.288153	1.465254	0.285438
C105	C	1.538217	0.822468	-0.464582
C106	C	1.788217	1.072468	-0.214582
C107	C	2.038217	1.322468	0.035418
C108	C	2.288217	1.572468	0.285418
C109	C	1.538306	0.464555	-0.716183
C110	C	1.788306	0.714555	-0.466183
C111	C	2.038306	0.964555	-0.216183
C112	C	2.288306	1.214555	0.033817
C113	C	1.538338	0.464518	-0.823397
C114	C	1.788338	0.714518	-0.573397
C115	C	2.038338	0.964518	-0.323397
C116	C	2.288338	1.214518	-0.073397
C117	C	1.815851	0.464659	-0.464588
C118	C	2.065851	0.714659	-0.214588
C119	C	2.315851	0.964659	0.035412
C120	C	2.565851	1.214659	0.285412
C121	C	1.934156	0.464668	-0.464587
C122	C	2.184156	0.714668	-0.214587
C123	C	2.434156	0.964668	0.035413
C124	C	2.684156	1.214668	0.285413
C125	C	1.538337	0.213047	-0.464639
C126	C	1.788337	0.463047	-0.214639
C127	C	2.038337	0.713047	0.035361
C128	C	2.288337	0.963047	0.285361
C129	C	1.538383	0.105833	-0.464660
C130	C	1.788383	0.355833	-0.214660
C131	C	2.038383	0.605833	0.035340
C132	C	2.288383	0.855833	0.285340
C133	C	1.538328	1.018763	-0.464642
C134	C	1.788328	1.268763	-0.214642
C135	C	2.038328	1.518763	0.035358
C136	C	2.288328	1.768763	0.285358
C137	C	1.538263	0.909531	-0.464612
C138	C	1.788263	1.159531	-0.214612
C139	C	2.038263	1.409531	0.035388
C140	C	2.288263	1.659531	0.285388
C141	C	1.538367	0.464453	-1.019692
C142	C	1.788367	0.714453	-0.769692
C143	C	2.038367	0.964453	-0.519692
C144	C	2.288367	1.214453	-0.269692
C145	C	1.538347	0.464492	-0.910459
C146	C	1.788347	0.714492	-0.660459
C147	C	2.038347	0.964492	-0.410459
C148	C	2.288347	1.214492	-0.160459
C149	C	1.538216	0.464655	-0.213975
C150	C	1.788216	0.714655	0.036025
C151	C	2.038216	0.964655	0.286025
C152	C	2.288216	1.214655	0.536025
C153	C	1.538390	0.464420	-0.106762
C154	C	1.788390	0.714420	0.143238
C155	C	2.038390	0.964420	0.393238
C156	C	2.288390	1.214420	0.643238
H157	H	0.972389	0.508118	-0.302031
H158	H	1.222389	0.758118	-0.052031
H159	H	1.472389	1.008118	0.197969
H160	H	1.722389	1.258118	0.447969
H161	H	1.104988	0.345580	-0.345759
H162	H	1.354988	0.595580	-0.095759
H163	H	1.604988	0.845580	0.154241
H164	H	1.854988	1.095580	0.404241
Cl165	Cl	1.122218	0.410574	-0.667590
Cl166	Cl	1.372218	0.660574	-0.417590
Cl167	Cl	1.622218	0.910574	-0.167590
Cl168	Cl	1.872218	1.160574	0.082410
Cl169	Cl	0.955432	0.613476	-0.612806
Cl170	Cl	1.205432	0.863476	-0.362806
Cl171	Cl	1.455432	1.113476	-0.112806
Cl172	Cl	1.705432	1.363476	0.137194
Cl173	Cl	1.122159	0.667487	-0.409915
Cl174	Cl	1.372159	0.917487	-0.159915
Cl175	Cl	1.622159	1.167487	0.090085
Cl176	Cl	1.872159	1.417487	0.340085
H177	H	0.972280	0.302340	-0.508404
H178	H	1.222280	0.552340	-0.258404
H179	H	1.472280	0.802340	-0.008404
H180	H	1.722280	1.052340	0.241596
