data_functionalizedCrystal
_audit_creation_method	'MofGen! by Chris Wilmer'
_symmetry_space_group_name_H-M	'P1'
_symmetry_Int_Tables_number	1
_symmetry_cell_setting	triclinic
loop_
_symmetry_equiv_pos_as_xyz
  x,y,z
_cell_length_a	13.897449
_cell_length_b	18.101397
_cell_length_c	13.897441
_cell_angle_alpha	89.966068
_cell_angle_beta	89.978743
_cell_angle_gamma	90.021292
loop_
_atom_site_label
_atom_site_type_symbol
_atom_site_fract_x
_atom_site_fract_y
_atom_site_fract_z
Zn1	Zn	1.474664	-0.294797	-0.545421
Zn2	Zn	1.724664	-0.044797	-0.295421
Zn3	Zn	1.974664	0.205203	-0.045421
Zn4	Zn	2.224664	0.455203	0.204579
Zn5	Zn	1.474556	-0.418650	-0.384110
Zn6	Zn	1.724556	-0.168650	-0.134110
Zn7	Zn	1.974556	0.081350	0.115890
Zn8	Zn	2.224556	0.331350	0.365890
Zn9	Zn	1.313359	-0.294829	-0.384132
Zn10	Zn	1.563359	-0.044829	-0.134132
Zn11	Zn	1.813359	0.205171	0.115868
Zn12	Zn	2.063359	0.455171	0.365868
Zn13	Zn	1.313327	-0.418603	-0.545355
Zn14	Zn	1.563327	-0.168603	-0.295355
Zn15	Zn	1.813327	0.081397	-0.045355
Zn16	Zn	2.063327	0.331397	0.204645
O17	O	1.393976	-0.356720	-0.464754
O18	O	1.643976	-0.106720	-0.214754
O19	O	1.893976	0.143280	0.035246
O20	O	2.143976	0.393280	0.285246
O21	O	1.609631	-0.311233	-0.524041
O22	O	1.859631	-0.061233	-0.274041
O23	O	2.109631	0.188767	-0.024041
O24	O	2.359631	0.438767	0.225959
O25	O	1.453141	-0.402258	-0.249131
O26	O	1.703141	-0.152258	0.000869
O27	O	1.953141	0.097742	0.250869
O28	O	2.203141	0.347742	0.500869
O29	O	1.334815	-0.191192	-0.405564
O30	O	1.584815	0.058808	-0.155564
O31	O	1.834815	0.308808	0.094436
O32	O	2.084815	0.558808	0.344436
O33	O	1.609552	-0.402227	-0.405527
O34	O	1.859552	-0.152227	-0.155527
O35	O	2.109552	0.097773	0.094473
O36	O	2.359552	0.347773	0.344473
O37	O	1.453325	-0.191168	-0.524062
O38	O	1.703325	0.058832	-0.274062
O39	O	1.953325	0.308832	-0.024062
O40	O	2.203325	0.558832	0.225938
O41	O	1.334710	-0.311287	-0.249147
O42	O	1.584710	-0.061287	0.000853
O43	O	1.834710	0.188713	0.250853
O44	O	2.084710	0.438713	0.500853
O45	O	1.178373	-0.311241	-0.405500
O46	O	1.428373	-0.061241	-0.155500
O47	O	1.678373	0.188759	0.094500
O48	O	1.928373	0.438759	0.344500
O49	O	1.334760	-0.402146	-0.680346
O50	O	1.584760	-0.152146	-0.430346
O51	O	1.834760	0.097854	-0.180346
O52	O	2.084760	0.347854	0.069654
O53	O	1.178349	-0.402177	-0.523950
O54	O	1.428349	-0.152177	-0.273950
O55	O	1.678349	0.097823	-0.023950
O56	O	1.928349	0.347823	0.226050
O57	O	1.453294	-0.311186	-0.680394
O58	O	1.703294	-0.061186	-0.430394
O59	O	1.953294	0.188814	-0.180394
O60	O	2.203294	0.438814	0.069606
O61	O	1.453110	-0.522277	-0.405463
O62	O	1.703110	-0.272277	-0.155463
O63	O	1.953110	-0.022277	0.094537
O64	O	2.203110	0.227723	0.344537
O65	O	1.334656	-0.522242	-0.523929
O66	O	1.584656	-0.272242	-0.273929
O67	O	1.834656	-0.022242	-0.023929
O68	O	2.084656	0.227758	0.226071
C69	C	1.143362	-0.356708	-0.464721
C70	C	1.393362	-0.106708	-0.214721
C71	C	1.643362	0.143292	0.035279
C72	C	1.893362	0.393292	0.285279
C73	C	1.036148	-0.356721	-0.464729
C74	C	1.286148	-0.106721	-0.214729
C75	C	1.536148	0.143279	0.035271
C76	C	1.786148	0.393279	0.285271
C77	C	0.949078	-0.356724	-0.464745
C78	C	1.199078	-0.106724	-0.214745
C79	C	1.449078	0.143276	0.035255
C80	C	1.699078	0.393276	0.285255
C81	C	0.839846	-0.356729	-0.464775
C82	C	1.089846	-0.106729	-0.214775
C83	C	1.339846	0.143271	0.035225
C84	C	1.589846	0.393271	0.285225
C85	C	1.393894	-0.549130	-0.464708
C86	C	1.643894	-0.299130	-0.214708
C87	C	1.893894	-0.049130	0.035292
C88	C	2.143894	0.200870	0.285292
C89	C	1.393947	-0.631444	-0.464720
C90	C	1.643947	-0.381444	-0.214720
C91	C	1.893947	-0.131444	0.035280
C92	C	2.143947	0.118556	0.285280
C93	C	1.394070	-0.930535	-0.464808
C94	C	1.644070	-0.680535	-0.214808
C95	C	1.894070	-0.430535	0.035192
C96	C	2.144070	-0.180535	0.285192
C97	C	1.468390	-0.899201	-0.390073
C98	C	1.718390	-0.649201	-0.140073
C99	C	1.968390	-0.399201	0.109927
C100	C	2.218390	-0.149201	0.359927
C101	C	1.468648	-0.813583	-0.390266
C102	C	1.718648	-0.563583	-0.140266
C103	C	1.968648	-0.313583	0.109734
C104	C	2.218648	-0.063583	0.359734
C105	C	1.394009	-0.782153	-0.464763
C106	C	1.644009	-0.532153	-0.214763
C107	C	1.894009	-0.282153	0.035237
C108	C	2.144009	-0.032153	0.285237
C109	C	1.421566	-0.813155	-0.566438
C110	C	1.671566	-0.563155	-0.316438
C111	C	1.921566	-0.313155	-0.066438
C112	C	2.171566	-0.063155	0.183562
C113	C	1.422141	-0.898800	-0.566031
C114	C	1.672141	-0.648800	-0.316031
C115	C	1.922141	-0.398800	-0.066031
C116	C	2.172141	-0.148800	0.183969
C117	C	1.291994	-0.899046	-0.438749
C118	C	1.541994	-0.649046	-0.188749
C119	C	1.791994	-0.399046	0.061251
C120	C	2.041994	-0.149046	0.311251
C121	C	1.292498	-0.813397	-0.436479
C122	C	1.542498	-0.563397	-0.186479
C123	C	1.792498	-0.313397	0.063521
C124	C	2.042498	-0.063397	0.313521
C125	C	1.393973	-0.698293	-0.464745
C126	C	1.643973	-0.448293	-0.214745
C127	C	1.893973	-0.198293	0.035255
C128	C	2.143973	0.051707	0.285255
C129	C	1.394108	-1.014395	-0.464834
C130	C	1.644108	-0.764395	-0.214834
C131	C	1.894108	-0.514395	0.035166
C132	C	2.144108	-0.264395	0.285166
C133	C	1.645569	-0.356732	-0.464789
C134	C	1.895569	-0.106732	-0.214789
C135	C	2.145569	0.143268	0.035211
C136	C	2.395569	0.393268	0.285211
C137	C	1.752783	-0.356737	-0.464803
C138	C	2.002783	-0.106737	-0.214803
C139	C	2.252783	0.143263	0.035197
C140	C	2.502783	0.393263	0.285197
C141	C	1.394035	-0.356657	-0.716348
C142	C	1.644035	-0.106657	-0.466348
C143	C	1.894035	0.143343	-0.216348
C144	C	2.144035	0.393343	0.033652
C145	C	1.394061	-0.356631	-0.823562
C146	C	1.644061	-0.106631	-0.573562
C147	C	1.894061	0.143369	-0.323562
C148	C	2.144061	0.393369	-0.073562
C149	C	1.394085	-0.163558	-0.464822
C150	C	1.644085	0.086442	-0.214822
C151	C	1.894085	0.336442	0.035178
C152	C	2.144085	0.586442	0.285178
C153	C	1.394132	-0.081244	-0.464851
C154	C	1.644132	0.168756	-0.214851
C155	C	1.894132	0.418756	0.035149
C156	C	2.144132	0.668756	0.285149
C157	C	1.394080	-0.356610	-0.910631
C158	C	1.644080	-0.106610	-0.660631
C159	C	1.894080	0.143390	-0.410631
C160	C	2.144080	0.393390	-0.160631
C161	C	1.394108	-0.356577	-1.019864
C162	C	1.644108	-0.106577	-0.769864
C163	C	1.894108	0.143423	-0.519864
C164	C	2.144108	0.393423	-0.269864
C165	C	1.393973	-0.356728	-0.214140
C166	C	1.643973	-0.106728	0.035860
C167	C	1.893973	0.143272	0.285860
C168	C	2.143973	0.393272	0.535860
C169	C	1.394135	-0.356546	-0.106927
C170	C	1.644135	-0.106546	0.143073
C171	C	1.894135	0.143454	0.393073
C172	C	2.144135	0.393454	0.643073
H173	H	1.451407	-0.792625	-0.314876
H174	H	1.701407	-0.542625	-0.064876
H175	H	1.951407	-0.292625	0.185124
H176	H	2.201407	-0.042625	0.435124
H177	H	1.271720	-0.793142	-0.361655
H178	H	1.521720	-0.543142	-0.111655
H179	H	1.771720	-0.293142	0.138345
H180	H	2.021720	-0.043142	0.388345
H181	H	1.266925	-0.920711	-0.365893
H182	H	1.516925	-0.670711	-0.115893
H183	H	1.766925	-0.420711	0.134107
H184	H	2.016925	-0.170711	0.384107
H185	H	1.370380	-0.919525	-0.623634
H186	H	1.620380	-0.669525	-0.373634
H187	H	1.870380	-0.419525	-0.123634
H188	H	2.120380	-0.169525	0.126366
H189	H	1.236620	-0.919310	-0.493182
H190	H	1.486620	-0.669310	-0.243182
H191	H	1.736620	-0.419310	0.006818
H192	H	1.986620	-0.169310	0.256818
H193	H	1.369089	-0.792794	-0.623619
H194	H	1.619089	-0.542794	-0.373619
H195	H	1.869089	-0.292794	-0.123619
H196	H	2.119089	-0.042794	0.126381
H197	H	1.544260	-0.793038	-0.407508
H198	H	1.794260	-0.543038	-0.157508
H199	H	2.044260	-0.293038	0.092492
H200	H	2.294260	-0.043038	0.342492
H201	H	1.495343	-0.791646	-0.588885
H202	H	1.745343	-0.541646	-0.338885
H203	H	1.995343	-0.291646	-0.088885
H204	H	2.245343	-0.041646	0.161115
H205	H	1.234145	-0.792010	-0.486926
H206	H	1.484145	-0.542010	-0.236926
H207	H	1.734145	-0.292010	0.013074
H208	H	1.984145	-0.042010	0.263074
H209	H	1.451358	-0.919848	-0.314457
H210	H	1.701358	-0.669848	-0.064457
H211	H	1.951358	-0.419848	0.185543
H212	H	2.201358	-0.169848	0.435543
H213	H	1.496753	-0.918717	-0.588105
H214	H	1.746753	-0.668717	-0.338105
H215	H	1.996753	-0.418717	-0.088105
H216	H	2.246753	-0.168717	0.161895
H217	H	1.543589	-0.920668	-0.407117
H218	H	1.793589	-0.670668	-0.157117
H219	H	2.043589	-0.420668	0.092883
H220	H	2.293589	-0.170668	0.342883
