data_functionalizedCrystal
_audit_creation_method	'MofGen! by Chris Wilmer'
_symmetry_space_group_name_H-M	'P1'
_symmetry_Int_Tables_number	1
_symmetry_cell_setting	triclinic
loop_
_symmetry_equiv_pos_as_xyz
  x,y,z
_cell_length_a	12.827892
_cell_length_b	12.759401
_cell_length_c	12.759393
_cell_angle_alpha	89.981504
_cell_angle_beta	89.969144
_cell_angle_gamma	90.015553
loop_
_atom_site_label
_atom_site_type_symbol
_atom_site_fract_x
_atom_site_fract_y
_atom_site_fract_z
Zn1	Zn	-0.415967	1.606250	-0.593987
Zn2	Zn	-0.590748	1.606143	-0.418309
Zn3	Zn	-0.416022	1.430552	-0.418326
Zn4	Zn	-0.590667	1.430539	-0.593950
O5	O	-0.503351	1.518371	-0.506143
O6	O	-0.439163	1.753257	-0.570691
O7	O	-0.567626	1.582811	-0.271290
O8	O	-0.269778	1.453910	-0.441650
O9	O	-0.567573	1.753178	-0.441621
O10	O	-0.269738	1.582994	-0.570707
O11	O	-0.439256	1.453805	-0.271303
O12	O	-0.439178	1.283530	-0.441615
O13	O	-0.567436	1.453887	-0.740976
O14	O	-0.567489	1.283520	-0.570645
O15	O	-0.439085	1.582981	-0.741003
O16	O	-0.736973	1.582798	-0.441586
O17	O	-0.736914	1.453782	-0.570629
C18	C	-0.503332	1.245404	-0.506129
C19	C	-0.503349	1.128627	-0.506147
C20	C	-0.570267	1.073787	-0.573222
C21	C	-0.570280	0.964063	-0.573234
C22	C	-0.436453	0.964028	-0.439086
C23	C	-0.436436	1.073750	-0.439081
C24	C	-0.647534	1.073807	-0.650668
C25	C	-0.647548	0.964083	-0.650680
C26	C	-0.774861	1.518305	-0.506124
C27	C	-0.891014	1.518373	-0.506152
C28	C	-0.942793	1.582290	-0.442368
C29	C	-1.062843	1.582362	-0.442395
C30	C	-0.230781	1.518466	-0.506184
C31	C	-0.114628	1.518506	-0.506202
C32	C	-0.503245	1.518445	-0.780176
C33	C	-0.503200	1.518476	-0.896953
C34	C	-0.503371	1.792404	-0.506158
C35	C	-0.503379	1.909181	-0.506164
C36	C	-0.436361	1.585705	-0.951831
C37	C	-0.436324	1.585730	-1.061555
C38	C	-0.569973	1.451294	-1.061514
C39	C	-0.570005	1.451265	-0.951792
C40	C	-0.359203	1.663323	-0.951855
C41	C	-0.359165	1.663348	-1.061579
C42	C	-0.503380	1.518358	-0.233176
C43	C	-0.503131	1.518530	-0.116399
H44	H	-0.728463	0.934286	-0.628749
H45	H	-0.624360	1.396571	-1.106177
C46	C	-0.388357	1.773205	-1.211533
C47	C	-0.388415	1.773192	-1.101792
H48	H	-0.406403	1.841019	-1.236356
H49	H	-0.437716	1.723574	-1.236330
H50	H	-0.320905	1.755048	-1.236338
H51	H	-0.455870	1.791342	-1.076986
H52	H	-0.339054	1.822840	-1.076985
H53	H	-0.381937	1.118397	-0.384469
H54	H	-1.070106	1.463777	-0.560809
H55	H	-0.381975	0.919334	-0.384484
H56	H	-0.625951	1.103615	-0.732075
C57	C	-0.183668	1.616120	-0.997049
C58	C	-0.249959	1.633926	-0.911674
H59	H	-0.116231	1.597964	-0.972239
H60	H	-0.179259	1.677873	-1.038405
H61	H	-0.210552	1.560431	-1.038392
H62	H	-0.223079	1.689620	-0.870334
H63	H	-0.254365	1.572166	-0.870300
H64	H	-0.898249	1.636963	-0.387744
C65	C	-1.230239	1.642069	-0.383026
C66	C	-1.122947	1.656279	-0.368712
H67	H	-1.267343	1.687721	-0.337551
H68	H	-1.248160	1.571503	-0.367568
H69	H	-1.247978	1.657364	-0.453667
H70	H	-1.105207	1.640976	-0.298072
H71	H	-1.105018	1.726861	-0.384163
C72	C	-0.702084	1.318364	-0.962778
C73	C	-0.643459	1.377348	-0.891469
H74	H	-0.747433	1.272731	-0.925535
H75	H	-0.656529	1.278222	-1.005585
H76	H	-0.742061	1.364139	-1.005562
H77	H	-0.603476	1.331573	-0.848690
H78	H	-0.689020	1.417493	-0.848644
C79	C	-0.880306	1.385459	-0.638879
C80	C	-0.951138	1.444571	-0.579905
H81	H	-0.917425	1.339901	-0.684417
H82	H	-0.837809	1.345232	-0.593098
H83	H	-0.837660	1.431159	-0.679131
H84	H	-0.993779	1.398871	-0.539647
H85	H	-0.993653	1.484801	-0.625691
H86	H	-0.724374	1.107820	-0.621385
H87	H	-0.282269	1.634235	-1.095626
C88	C	-0.319934	1.812451	-0.844144
C89	C	-0.398359	1.767633	-0.905891
H90	H	-0.344114	1.876842	-0.815762
H91	H	-0.260001	1.824975	-0.886067
H92	H	-0.302512	1.765933	-0.788715
H93	H	-0.415776	1.814148	-0.961325
H94	H	-0.458310	1.755114	-0.863966
H95	H	-0.618659	0.930085	-0.728031
