data_functionalizedCrystal
_audit_creation_method	'MofGen! by Chris Wilmer'
_symmetry_space_group_name_H-M	'P1'
_symmetry_Int_Tables_number	1
_symmetry_cell_setting	triclinic
loop_
_symmetry_equiv_pos_as_xyz
  x,y,z
_cell_length_a	11.169417
_cell_length_b	11.169416
_cell_length_c	12.759393
_cell_angle_alpha	89.971356
_cell_angle_beta	89.981972
_cell_angle_gamma	90.011589
loop_
_atom_site_label
_atom_site_type_symbol
_atom_site_fract_x
_atom_site_fract_y
_atom_site_fract_z
Zn1	Zn	1.834945	-0.477696	-0.593990
Zn2	Zn	2.168278	-0.144363	-0.260656
Zn3	Zn	2.501611	0.188970	0.072677
Zn4	Zn	1.834839	-0.678429	-0.418319
Zn5	Zn	2.168173	-0.345096	-0.084985
Zn6	Zn	2.501506	-0.011762	0.248348
Zn7	Zn	1.634236	-0.477763	-0.418330
Zn8	Zn	1.967569	-0.144430	-0.084997
Zn9	Zn	2.300902	0.188904	0.248336
Zn10	Zn	1.634238	-0.678340	-0.593962
Zn11	Zn	1.967571	-0.345007	-0.260628
Zn12	Zn	2.300905	-0.011674	0.072705
O13	O	1.734564	-0.578057	-0.506150
O14	O	2.067898	-0.244724	-0.172817
O15	O	2.401231	0.088609	0.160517
O16	O	2.002880	-0.504333	-0.570693
O17	O	2.336214	-0.171000	-0.237360
O18	O	2.669547	0.162334	0.095973
O19	O	1.808184	-0.651875	-0.271299
O20	O	2.141517	-0.318542	0.062034
O21	O	2.474850	0.014791	0.395368
O22	O	1.660903	-0.309804	-0.441649
O23	O	1.994237	0.023529	-0.108315
O24	O	2.327570	0.356862	0.225018
O25	O	2.002803	-0.651811	-0.441629
O26	O	2.336136	-0.318477	-0.108295
O27	O	2.669470	0.014856	0.225038
O28	O	1.808363	-0.309755	-0.570705
O29	O	2.141697	0.023578	-0.237371
O30	O	2.475030	0.356911	0.095962
O31	O	1.660801	-0.504447	-0.271308
O32	O	1.994135	-0.171113	0.062026
O33	O	2.327468	0.162220	0.395359
O34	O	1.466286	-0.504361	-0.441621
O35	O	1.799620	-0.171028	-0.108288
O36	O	2.132953	0.162306	0.225045
O37	O	1.660907	-0.651660	-0.740986
O38	O	1.994241	-0.318326	-0.407653
O39	O	2.327574	0.015007	-0.074320
O40	O	1.466288	-0.651724	-0.570657
O41	O	1.799621	-0.318391	-0.237324
O42	O	2.132955	0.014942	0.096010
O43	O	1.808366	-0.504247	-0.741007
O44	O	2.141699	-0.170914	-0.407674
O45	O	2.475032	0.162419	-0.074340
O46	O	1.808186	-0.846367	-0.441601
O47	O	2.141519	-0.513034	-0.108268
O48	O	2.474853	-0.179700	0.225065
O49	O	1.660805	-0.846302	-0.570645
O50	O	1.994138	-0.512969	-0.237312
O51	O	2.327472	-0.179635	0.096021
C52	C	1.422740	-0.578041	-0.506138
C53	C	1.756073	-0.244708	-0.172805
C54	C	2.089406	0.088626	0.160529
C55	C	1.289340	-0.578063	-0.506158
C56	C	1.622673	-0.244730	-0.172824
C57	C	1.956006	0.088604	0.160509
C58	C	1.734517	-0.889882	-0.506142
C59	C	2.067850	-0.556549	-0.172809
C60	C	2.401184	-0.223215	0.160525
C61	C	1.734606	-1.023282	-0.506174
C62	C	2.067940	-0.689949	-0.172840
C63	C	2.401273	-0.356615	0.160493
C64	C	2.047607	-0.578074	-0.506163
C65	C	2.380940	-0.244741	-0.172829
C66	C	2.714273	0.088592	0.160504
C67	C	2.181007	-0.578082	-0.506168
C68	C	2.514340	-0.244748	-0.172835
C69	C	2.847673	0.088585	0.160499
C70	C	1.734649	-0.577936	-0.780183
C71	C	2.067982	-0.244603	-0.446850
C72	C	2.401315	0.088731	-0.113517
C73	C	1.734684	-0.577885	-0.896960
C74	C	2.068018	-0.244551	-0.563627
C75	C	2.401351	0.088782	-0.230294
C76	C	1.734645	-0.265015	-0.506181
C77	C	2.067978	0.068318	-0.172848
C78	C	2.401312	0.401652	0.160486
C79	C	1.734679	-0.131615	-0.506194
C80	C	2.068013	0.201718	-0.172861
C81	C	2.401346	0.535052	0.160472
C82	C	1.811476	-0.501120	-0.951835
C83	C	2.144810	-0.167786	-0.618501
C84	C	2.478143	0.165547	-0.285168
C85	C	1.811505	-0.501076	-1.061559
C86	C	2.144838	-0.167743	-0.728225
C87	C	2.478172	0.165590	-0.394892
C88	C	1.657946	-0.654573	-1.061524
C89	C	1.991279	-0.321240	-0.728191
C90	C	2.324613	0.012094	-0.394858
C91	C	1.657912	-0.654609	-0.951802
C92	C	1.991246	-0.321276	-0.618469
C93	C	2.324579	0.012057	-0.285136
C94	C	1.900136	-0.412503	-0.951855
C95	C	2.233470	-0.079170	-0.618522
C96	C	2.566803	0.254164	-0.285189
C97	C	1.900165	-0.412460	-1.061580
C98	C	2.233498	-0.079126	-0.728246
C99	C	2.566832	0.254207	-0.394913
C100	C	1.734550	-0.578091	-0.233183
C101	C	2.067883	-0.244758	0.100151
C102	C	2.401216	0.088575	0.433484
C103	C	1.734746	-0.577805	-0.116407
C104	C	2.068080	-0.244471	0.216927
C105	C	2.401413	0.088862	0.550260
H106	H	1.595376	-0.717115	-0.907128
H107	H	1.928710	-0.383781	-0.573794
H108	H	2.262043	-0.050448	-0.240461
H109	H	1.993121	-0.437352	-1.091358
H110	H	2.326454	-0.104019	-0.758025
H111	H	2.659787	0.229314	-0.424692
H112	H	1.595438	-0.717037	-1.106190
H113	H	1.928772	-0.383704	-0.772857
H114	H	2.262105	-0.050371	-0.439523
H115	H	1.875262	-0.319557	-0.922096
H116	H	2.208595	0.013776	-0.588762
H117	H	2.541928	0.347110	-0.255429
Br118	Br	2.047262	-0.468033	-0.895117
Br119	Br	2.380596	-0.134700	-0.561784
Br120	Br	2.713929	0.198633	-0.228450
H121	H	1.866900	-0.324146	-1.095624
H122	H	2.200233	0.009187	-0.762290
H123	H	2.533567	0.342521	-0.428957
