data_functionalizedCrystal
_audit_creation_method	'MofGen! by Chris Wilmer'
_symmetry_space_group_name_H-M	'P1'
_symmetry_Int_Tables_number	1
_symmetry_cell_setting	triclinic
loop_
_symmetry_equiv_pos_as_xyz
  x,y,z
_cell_length_a	8.497374
_cell_length_b	8.497374
_cell_length_c	12.759401
_cell_angle_alpha	90.001753
_cell_angle_beta	89.997383
_cell_angle_gamma	90.005237
loop_
_atom_site_label
_atom_site_type_symbol
_atom_site_fract_x
_atom_site_fract_y
_atom_site_fract_z
Zn1	Zn	0.628265	0.892107	1.606167
Zn2	Zn	0.892011	0.628373	1.606158
Zn3	Zn	0.628246	0.628335	1.430524
Zn4	Zn	0.892004	0.892104	1.430499
O5	O	0.760132	0.760230	1.518337
O6	O	0.663263	0.857140	1.753187
O7	O	0.857017	0.407606	1.582867
O8	O	0.407486	0.663310	1.453838
O9	O	0.857036	0.663375	1.753181
O10	O	0.407500	0.857103	1.582881
O11	O	0.663229	0.407577	1.453830
O12	O	0.663223	0.663307	1.283500
O13	O	0.857024	1.112867	1.453795
O14	O	0.857005	0.857097	1.283481
O15	O	0.663256	1.112869	1.582857
O16	O	1.112772	0.663372	1.582843
O17	O	1.112767	0.857135	1.453787
C18	C	0.760112	0.760199	1.245370
C19	C	0.760142	0.760223	1.128593
C20	C	0.861198	0.860971	1.073749
C21	C	0.861204	0.861002	0.964025
C22	C	0.659094	0.659524	0.963999
C23	C	0.659081	0.659501	1.073721
C24	C	0.917884	1.047000	0.814097
C25	C	1.018964	1.147734	0.759249
C26	C	1.172931	1.171717	0.794866
C27	C	1.225848	1.094942	0.885328
C28	C	1.124776	0.994196	0.940170
C29	C	0.970788	0.970244	0.904555
C30	C	0.602418	0.473501	1.223651
C31	C	0.501352	0.372746	1.278495
C32	C	0.347383	0.348748	1.242881
C33	C	0.294471	0.425495	1.152415
C34	C	0.395536	0.526250	1.097570
C35	C	0.549504	0.550251	1.133193
C36	C	1.170011	0.760253	1.518324
C37	C	1.348655	0.760227	1.518352
C38	C	0.760134	1.171710	1.518329
C39	C	0.760151	1.350354	1.518332
C40	C	0.760152	0.760262	1.792370
C41	C	0.760161	0.760276	1.909147
H42	H	1.167861	0.931687	1.013823
H43	H	1.351230	1.114464	0.914314
H44	H	1.255231	1.253739	0.750201
H45	H	0.576816	0.577518	0.919308
H46	H	0.265102	0.266691	1.287540
H47	H	0.943484	0.942988	1.118423
H48	H	0.975864	1.210246	0.685594
H49	H	0.792507	1.027499	0.785096
H50	H	0.352438	0.588752	1.023913
Cl51	Cl	0.567882	0.276239	1.392215
Cl52	Cl	0.796070	0.503467	1.268335
H53	H	0.169106	0.405930	1.123404
