data_functionalizedCrystal
_audit_creation_method	'MofGen! by Chris Wilmer'
_symmetry_space_group_name_H-M	'P1'
_symmetry_Int_Tables_number	1
_symmetry_cell_setting	triclinic
loop_
_symmetry_equiv_pos_as_xyz
  x,y,z
_cell_length_a	27.731993
_cell_length_b	13.339070
_cell_length_c	11.804365
_cell_angle_alpha	74.887832
_cell_angle_beta	101.734368
_cell_angle_gamma	99.124843
loop_
_atom_site_label
_atom_site_type_symbol
_atom_site_fract_x
_atom_site_fract_y
_atom_site_fract_z
O1	O	-0.664434	-0.099380	-0.098692
O2	O	-0.526165	-0.117686	-0.098763
O3	O	-0.579430	0.038477	-0.098732
O4	O	-0.611168	-0.255543	-0.098723
O5	O	-0.565402	-0.002593	0.099316
O6	O	-0.512136	-0.158756	0.099285
O7	O	-0.650406	-0.140450	0.099356
Cu8	Cu	-0.579990	-0.153353	0.117404
Cu9	Cu	-0.596580	-0.104783	-0.116811
O10	O	-0.597140	-0.296613	0.099325
C11	C	-0.567055	0.055546	0.000287
C12	C	-0.551075	0.167594	0.000274
C13	C	-0.501092	-0.137843	0.000252
C14	C	-0.447282	-0.136705	0.000224
C15	C	-0.675479	-0.120292	0.000339
C16	C	-0.729290	-0.121429	0.000358
C17	C	-0.070634	-0.106121	-0.107674
C18	C	-0.272888	-0.110431	-0.107706
O19	O	-0.305536	-0.091908	-0.199521
N20	N	-0.290536	-0.133358	0.000247
C21	C	-0.257616	-0.155203	0.108216
O22	O	-0.277267	-0.174792	0.200037
C23	C	-0.055363	-0.150885	0.108247
C24	C	-0.037719	-0.127967	0.000287
C25	C	-0.052989	-0.083203	-0.215626
C26	C	-0.002429	-0.082132	-0.215617
C27	C	0.030486	-0.103978	-0.107656
C28	C	0.012842	-0.126895	0.000296
C29	C	-0.022444	-0.172722	0.216215
C30	C	0.028123	-0.171638	0.216213
C31	C	0.045767	-0.148720	0.108253
C32	C	0.096317	-0.147670	0.108266
N33	N	0.113965	-0.124742	0.000312
C34	C	0.081050	-0.102896	-0.107649
C35	C	-0.363803	-0.157470	0.108192
C36	C	-0.414366	-0.158551	0.108185
C37	C	-0.429634	-0.113777	-0.107738
C38	C	-0.379071	-0.112703	-0.107729
C39	C	-0.346155	-0.134542	0.000239
C40	C	0.187230	-0.100649	-0.107621
C41	C	0.237795	-0.099583	-0.107603
C42	C	0.253059	-0.144351	0.108320
C43	C	0.202498	-0.145422	0.108302
C44	C	0.169585	-0.123565	0.000322
O45	O	0.128993	-0.166170	0.200032
O46	O	0.100712	-0.083287	-0.199455
C47	C	-0.121194	-0.107193	-0.107683
C48	C	-0.138839	-0.130110	0.000268
C49	C	-0.105924	-0.151956	0.108229
C50	C	-0.189402	-0.131191	0.000261
C51	C	-0.222317	-0.109345	-0.107700
C52	C	-0.204670	-0.086418	-0.215653
C53	C	-0.154109	-0.085347	-0.215644
C54	C	-0.123572	-0.174883	0.216183
C55	C	-0.174133	-0.175954	0.216165
C56	C	-0.207048	-0.154108	0.108204
C57	C	-0.609516	-0.313681	0.000303
C58	C	-0.625496	-0.425728	0.000308
N59	N	-0.568325	-0.187515	0.282138
C60	C	-0.675329	0.534367	0.000339
C61	C	-0.690344	0.429091	0.000358
C62	C	-0.655528	0.363712	0.000336
C63	C	-0.605695	0.403619	0.000297
C64	C	-0.590677	0.508903	0.000288
C65	C	-0.570876	0.338248	0.000285
C66	C	-0.521043	0.378154	0.000246
C67	C	-0.506028	0.483428	0.000236
C68	C	-0.540844	0.548808	0.000257
C69	C	-0.585894	0.232964	0.000295
C70	C	-0.501242	0.207499	0.000244
C71	C	-0.486227	0.312775	0.000225
N72	N	-0.608248	-0.070613	-0.281545
C73	C	-0.636258	0.011440	0.656126
C74	C	-0.645081	0.037287	0.531469
C75	C	-0.625893	-0.018911	0.469130
C76	C	-0.597880	-0.100961	0.531460
C77	C	-0.589058	-0.126816	0.656129
C78	C	-0.578693	-0.157167	0.469133
C79	C	-0.550680	-0.239217	0.531463
C80	C	-0.541860	-0.265068	0.656119
C81	C	-0.561049	-0.208870	0.718458
C82	C	-0.587515	-0.131312	0.344464
C83	C	-0.540315	-0.269568	0.344467
C84	C	-0.531492	-0.295415	0.469124
H85	H	0.252157	-0.080922	-0.195521
Br86	Br	-0.625532	-0.019963	0.259889
Br87	Br	-0.662304	0.087690	0.740728
Br88	Br	-0.514276	-0.345849	0.259874
H89	H	-0.528622	0.634534	0.000237
H90	H	0.160437	-0.082852	-0.195549
H91	H	-0.465450	0.515914	0.000213
Br92	Br	-0.653522	0.178817	0.000352
Br93	Br	-0.757974	0.374944	0.000386
H94	H	-0.188493	-0.194627	0.304086
H95	H	0.188131	-0.164104	0.196212
H96	H	-0.519055	-0.331885	0.706869
Br97	Br	-0.722571	0.623091	0.000396
Br98	Br	-0.549069	-0.243944	0.887643
Br99	Br	-0.418598	0.366947	0.000165
H100	H	-0.667756	0.277993	0.000352
Br101	Br	-0.453987	0.118776	0.000229
H102	H	-0.508683	-0.362223	0.519888
Br103	Br	-0.130172	-0.054242	-0.362170
H104	H	0.011932	-0.063465	-0.303529
Br105	Br	-0.355131	-0.081599	-0.254252
Br106	Br	-0.474315	-0.084134	-0.254256
H107	H	-0.231479	-0.068636	-0.303559
H108	H	-0.079784	-0.065409	-0.303546
H109	H	-0.428728	-0.177230	0.196097
H110	H	-0.667890	0.104091	0.480725
Br111	Br	-0.319139	-0.187125	0.254736
H112	H	-0.036800	-0.191382	0.304128
Br113	Br	0.072792	-0.201269	0.362750
H114	H	0.279867	-0.162142	0.196219
H115	H	-0.096776	-0.192668	0.304099
H116	H	-0.633078	0.002138	0.367629
