data_functionalizedCrystal
_audit_creation_method	'MofGen! by Chris Wilmer'
_symmetry_space_group_name_H-M	'P1'
_symmetry_Int_Tables_number	1
_symmetry_cell_setting	triclinic
loop_
_symmetry_equiv_pos_as_xyz
  x,y,z
_cell_length_a	19.077105
_cell_length_b	12.594516
_cell_length_c	19.076919
_cell_angle_alpha	87.724265
_cell_angle_beta	89.923776
_cell_angle_gamma	87.708332
loop_
_atom_site_label
_atom_site_type_symbol
_atom_site_fract_x
_atom_site_fract_y
_atom_site_fract_z
Zn1	Zn	1.058345	-0.514931	0.440441
Zn2	Zn	1.063009	-0.686070	0.322942
Zn3	Zn	0.945560	-0.500673	0.318234
Zn4	Zn	0.940831	-0.685429	0.435695
O5	O	1.001936	-0.596776	0.379328
O6	O	1.157296	-0.543869	0.428812
O7	O	1.051361	-0.655778	0.223986
O8	O	0.960549	-0.353621	0.334461
O9	O	1.160723	-0.669604	0.342486
O10	O	1.043411	-0.364097	0.424246
O11	O	0.965072	-0.519568	0.220527
O12	O	0.846600	-0.518945	0.329859
O13	O	0.952488	-0.668510	0.534656
O14	O	0.843125	-0.654684	0.416157
O15	O	1.038825	-0.543247	0.538143
O16	O	1.046775	-0.834928	0.337883
O17	O	0.957011	-0.834457	0.420722
C18	C	0.819366	-0.585199	0.371982
C19	C	0.741261	-0.580272	0.368856
C20	C	0.702780	-0.648729	0.412248
C21	C	0.629392	-0.644086	0.409314
C22	C	0.594487	-0.570992	0.362984
C23	C	0.632974	-0.502528	0.319591
C24	C	0.706360	-0.507166	0.322529
C25	C	0.375197	-0.549527	0.349391
C26	C	0.301805	-0.544896	0.346455
C27	C	0.298228	-0.686453	0.436179
C28	C	0.371616	-0.691089	0.439109
C29	C	0.410096	-0.622622	0.395719
N30	N	0.519473	-0.566247	0.359983
N31	N	0.485109	-0.627362	0.398724
C32	C	1.001904	-0.873314	0.379315
C33	C	1.001954	-0.991624	0.379335
C34	C	1.050829	-1.061101	0.334331
C35	C	1.065420	-1.136633	0.399156
C36	C	0.987449	-1.126899	0.314555
C37	C	1.016576	-1.065601	0.444195
C38	C	0.938577	-1.055856	0.359549
C39	C	0.953142	-1.131357	0.424417
C40	C	1.185219	-0.608399	0.386703
C41	C	1.263323	-0.613352	0.389846
C42	C	0.994608	-0.607398	0.562609
C43	C	0.991485	-0.611924	0.640712
C44	C	1.001987	-0.319160	0.379358
C45	C	1.002008	-0.200856	0.379371
C46	C	1.009276	-0.586121	0.196762
C47	C	1.012535	-0.581304	0.118665
C48	C	1.034967	-0.548835	0.679222
C49	C	1.032024	-0.553084	0.752608
C50	C	0.985603	-0.620427	0.787483
C51	C	0.942117	-0.683518	0.748968
C52	C	0.945056	-0.679263	0.675583
C53	C	0.971988	-0.640140	1.006765
C54	C	0.969053	-0.644392	1.080155
C55	C	1.058960	-0.513956	1.083790
C56	C	1.061899	-0.509712	1.010404
C57	C	1.018410	-0.572799	0.971895
N58	N	0.982596	-0.624774	0.862495
N59	N	1.021414	-0.568446	0.896884
H60	H	0.273387	-0.485361	0.308732
H61	H	1.094366	-0.462593	1.115151
H62	H	0.936587	-0.691526	0.975420
H63	H	1.028812	-1.038647	0.499038
O64	O	0.416683	-0.475687	0.302577
H65	H	0.448865	-0.425527	0.335417
H66	H	1.067433	-0.501713	0.783959
H67	H	0.909642	-0.730626	0.644229
H68	H	1.119040	-1.171951	0.415911
O69	O	0.898418	-1.171981	0.474902
H70	H	0.910649	-1.147416	0.528622
H71	H	0.904317	-0.738346	0.777369
H72	H	0.604548	-0.443009	0.281872
H73	H	0.598063	-0.699832	0.444647
H74	H	0.400030	-0.750613	0.476834
O75	O	0.747872	-0.433344	0.275721
H76	H	0.711273	-0.381747	0.243004
O77	O	1.105577	-1.020218	0.283966
H78	H	1.158161	-1.052720	0.300575
H79	H	0.884974	-1.020516	0.342776
H80	H	1.099702	-0.454877	0.982014
H81	H	0.975157	-1.153984	0.259756
O82	O	1.085036	-0.476201	0.641607
H83	H	1.114772	-0.433038	0.680717
O84	O	0.918978	-0.717022	1.117775
H85	H	0.889225	-0.760168	1.078669
H86	H	0.731194	-0.708254	0.449972
O87	O	0.256726	-0.760287	0.482985
H88	H	0.199831	-0.744778	0.473166
