data_functionalizedCrystal
_audit_creation_method	'MofGen! by Chris Wilmer'
_symmetry_space_group_name_H-M	'P1'
_symmetry_Int_Tables_number	1
_symmetry_cell_setting	triclinic
loop_
_symmetry_equiv_pos_as_xyz
  x,y,z
_cell_length_a	17.666332
_cell_length_b	19.188930
_cell_length_c	19.188930
_cell_angle_alpha	83.144779
_cell_angle_beta	90.011603
_cell_angle_gamma	90.023234
loop_
_atom_site_label
_atom_site_type_symbol
_atom_site_fract_x
_atom_site_fract_y
_atom_site_fract_z
O1	O	-0.063200	-0.926150	-0.087169
O2	O	-0.063149	-0.722838	-0.098903
O3	O	-0.063161	-0.830361	0.008620
O4	O	-0.063188	-0.818627	-0.194692
O5	O	0.062735	-0.830342	0.008625
O6	O	0.062747	-0.722820	-0.098897
O7	O	0.062697	-0.926131	-0.087163
Cu8	Cu	0.074217	-0.824473	-0.093030
Cu9	Cu	-0.074670	-0.824496	-0.093036
O10	O	0.062709	-0.818608	-0.194686
C11	C	-0.000194	-0.696818	-0.098520
C12	C	-0.000174	-0.619313	-0.097380
N13	N	0.178937	-0.824463	-0.093025
N14	N	-0.179390	-0.824512	-0.093036
C15	C	0.218541	-0.872089	-0.045437
C16	C	0.297789	-0.872093	-0.045433
C17	C	0.337429	-0.824478	-0.093030
C18	C	0.297815	-0.776842	-0.140621
C19	C	0.218569	-0.776835	-0.140619
N20	N	0.461841	-0.815401	-0.154837
N21	N	0.537121	-0.815413	-0.154837
C22	C	0.576193	-0.824496	-0.093040
N23	N	0.537140	-0.833582	-0.031239
N24	N	0.461853	-0.833574	-0.031240
C25	C	0.423358	-0.824480	-0.093038
C26	C	0.701727	-0.872130	-0.045444
C27	C	0.780976	-0.872129	-0.045440
C28	C	0.781000	-0.776881	-0.140634
C29	C	0.701753	-0.776878	-0.140632
C30	C	0.662121	-0.824506	-0.093038
C31	C	-0.000211	-0.829972	0.034634
C32	C	-0.000204	-0.828831	0.112138
C33	C	-0.000260	-0.952151	-0.087546
C34	C	-0.000285	-1.029656	-0.088687
C35	C	-0.000194	-0.574389	-0.160470
C36	C	-0.000203	-0.501566	-0.159399
C37	C	-0.000206	-0.473669	-0.095233
C38	C	-0.000181	-0.518603	-0.032133
C39	C	-0.000166	-0.591425	-0.033207
N40	N	-0.043078	-0.365695	-0.046188
N41	N	-0.043095	-0.296517	-0.045172
C42	C	-0.000252	-0.254260	-0.091994
N43	N	0.042599	-0.283795	-0.139881
N44	N	0.042612	-0.352979	-0.140899
C45	C	-0.000222	-0.394707	-0.094062
C46	C	-0.000280	-0.130372	-0.153928
C47	C	-0.000283	-0.057547	-0.152853
C48	C	-0.000270	-0.074586	-0.025586
C49	C	-0.000258	-0.147409	-0.026662
C50	C	-0.000267	-0.175298	-0.090835
C51	C	-0.000244	-0.818997	-0.220700
C52	C	-0.000255	-0.820138	-0.298204
C53	C	-0.000216	-0.891922	0.157062
C54	C	-0.000228	-0.890850	0.229886
C55	C	-0.000212	-0.826684	0.257782
C56	C	-0.000205	-0.763585	0.212849
C57	C	-0.000200	-0.764658	0.140026
N58	N	0.042645	-0.777630	0.365789
N59	N	0.042642	-0.776615	0.434968
C60	C	-0.000227	-0.823446	0.477191
N61	N	-0.043084	-0.871341	0.447624
N62	N	-0.043079	-0.872359	0.378439
C63	C	-0.000218	-0.825513	0.336745
C64	C	-0.000253	-0.885379	0.601079
C65	C	-0.000270	-0.884305	0.673904
C66	C	-0.000239	-0.757038	0.656865
C67	C	-0.000230	-0.758114	0.584042
C68	C	-0.000233	-0.822287	0.556154
H69	H	0.186275	-0.910869	-0.006681
H70	H	0.330041	-0.910878	-0.006680
H71	H	-0.000295	-0.020970	-0.204232
H72	H	-0.000194	-0.495885	0.020111
O73	O	-0.000286	-0.635039	0.028101
C74	C	-0.065477	-0.622447	0.067079
H75	H	-0.111058	-0.597466	0.030141
H76	H	-0.087354	-0.674213	0.095234
H77	H	-0.050737	-0.585482	0.107380
O78	O	0.663195	-0.730716	-0.186897
C79	C	0.617342	-0.767972	-0.229890
H80	H	0.605446	-0.822688	-0.201943
H81	H	0.561629	-0.738793	-0.241011
H82	H	0.647870	-0.772562	-0.281480
O83	O	-0.000323	-0.701237	0.239911
C84	C	-0.065508	-0.662793	0.216908
H85	H	-0.111088	-0.700328	0.201864
H86	H	-0.087390	-0.633229	0.260931
H87	H	-0.050758	-0.623737	0.169330
O88	O	-0.000218	-0.703433	0.096284
C89	C	-0.000194	-0.718141	0.026029
H90	H	-0.024039	-0.772978	0.023398
H91	H	-0.036733	-0.677918	-0.007099
H92	H	0.060209	-0.715419	0.004976
H93	H	-0.000259	-0.937632	0.578372
H94	H	0.186322	-0.738051	-0.179371
O95	O	0.336402	-0.730561	-0.186761
C96	C	0.382263	-0.687601	-0.149475
H97	H	0.394134	-0.715581	-0.094772
H98	H	0.437988	-0.676472	-0.178647
H99	H	0.351755	-0.636013	-0.144856
H100	H	-0.000241	-0.942228	0.266470
H101	H	-0.000246	-0.183988	0.024713
O102	O	-0.000249	-0.945659	0.717447
C103	C	-0.000269	-1.002525	0.677212
H104	H	0.023575	-0.984630	0.622810
H105	H	0.036275	-1.046709	0.704219
H106	H	-0.060669	-1.022220	0.672070
H107	H	-0.000222	-0.944176	0.134360
H108	H	-0.000230	-0.704792	0.679578
H109	H	-0.000203	-0.597091	-0.212725
O110	O	-0.000175	-0.696762	0.540498
C111	C	-0.000182	-0.639896	0.580733
H112	H	0.023643	-0.657781	0.635147
H113	H	0.036382	-0.595698	0.553743
H114	H	-0.060577	-0.620224	0.585844
H115	H	0.669457	-0.910909	-0.006688
O116	O	-0.000410	-0.157504	-0.216243
C117	C	-0.065595	-0.199166	-0.220672
H118	H	-0.111172	-0.182076	-0.184247
H119	H	-0.087481	-0.192472	-0.276966
H120	H	-0.050842	-0.256637	-0.204385
O121	O	0.819333	-0.918464	0.000815
C122	C	0.767355	-0.960487	0.042830
H123	H	0.710858	-0.961178	0.014206
H124	H	0.790225	-1.016278	0.053611
H125	H	0.758951	-0.937986	0.094647
H126	H	-0.000217	-0.464982	-0.210776
O127	O	0.819580	-0.730596	-0.186774
C128	C	0.865436	-0.687632	-0.149487
H129	H	0.877308	-0.715610	-0.094784
H130	H	0.921160	-0.676499	-0.178659
H131	H	0.834922	-0.636047	-0.144869
H132	H	-0.000319	-0.051874	0.026659
