data_functionalizedCrystal
_audit_creation_method	'MofGen! by Chris Wilmer'
_symmetry_space_group_name_H-M	'P1'
_symmetry_Int_Tables_number	1
_symmetry_cell_setting	triclinic
loop_
_symmetry_equiv_pos_as_xyz
  x,y,z
_cell_length_a	10.967926
_cell_length_b	11.026607
_cell_length_c	14.048226
_cell_angle_alpha	89.996210
_cell_angle_beta	102.122801
_cell_angle_gamma	96.380754
loop_
_atom_site_label
_atom_site_type_symbol
_atom_site_fract_x
_atom_site_fract_y
_atom_site_fract_z
O1	O	1.693945	0.170499	0.198726
O2	O	2.193945	0.670499	0.698726
O3	O	1.334327	0.186826	0.139731
O4	O	1.834327	0.686826	0.639731
O5	O	1.484331	0.001762	0.164343
O6	O	1.984331	0.501762	0.664343
O7	O	1.543941	0.355563	0.174115
O8	O	2.043941	0.855563	0.674115
O9	O	1.484305	0.001751	0.322660
O10	O	1.984305	0.501751	0.822660
O11	O	1.334301	0.186815	0.298048
O12	O	1.834301	0.686815	0.798048
O13	O	1.693919	0.170488	0.357044
O14	O	2.193919	0.670488	0.857044
Zn15	Zn	1.514106	0.178650	0.352682
Zn16	Zn	2.014106	0.678650	0.852682
Zn17	Zn	1.514140	0.178664	0.144093
Zn18	Zn	2.014140	0.678664	0.644093
O19	O	1.543915	0.355552	0.332432
O20	O	2.043915	0.855552	0.832432
C21	C	1.287559	0.185634	0.211220
C22	C	1.787559	0.685634	0.711220
C23	C	1.148242	0.182082	0.188365
C24	C	1.648242	0.682082	0.688365
C25	C	1.086117	0.180492	0.260188
C26	C	1.586117	0.680492	0.760188
C27	C	0.942126	0.176822	0.236568
C28	C	1.442126	0.676822	0.736568
C29	C	1.473321	-0.043546	0.241696
C30	C	1.973321	0.456454	0.741696
C31	C	1.440539	-0.178532	0.236315
C32	C	1.940539	0.321468	0.736315
C33	C	1.531056	-0.251586	0.251163
C34	C	2.031056	0.248414	0.751163
C35	C	1.497177	-0.391102	0.245601
C36	C	1.997177	0.108898	0.745601
C37	C	1.740687	0.171681	0.285553
C38	C	2.240687	0.671681	0.785553
C39	C	1.880004	0.175232	0.308402
C40	C	2.380004	0.675232	0.808402
C41	C	1.554925	0.400860	0.255076
C42	C	2.054925	0.900860	0.755076
C43	C	1.587707	0.535847	0.260452
C44	C	2.087707	1.035847	0.760452
N45	N	1.514092	0.178639	0.495041
N46	N	2.014092	0.678639	0.995041
N47	N	1.514162	0.178666	0.001735
N48	N	2.014162	0.678666	0.501735
C49	C	1.580548	0.096727	0.555762
C50	C	2.080548	0.596727	1.055762
C51	C	1.580557	0.096726	0.655421
C52	C	2.080557	0.596726	1.155421
C53	C	1.514115	0.178645	0.694358
C54	C	2.014115	0.678645	1.194358
C55	C	1.447651	0.260561	0.633628
C56	C	1.947651	0.760561	1.133628
C57	C	1.447636	0.260554	0.533969
C58	C	1.947636	0.760554	1.033969
C59	C	1.447689	0.260570	0.841348
C60	C	1.947689	0.760570	1.341348
C61	C	1.447705	0.260578	0.941014
C62	C	1.947705	0.760578	1.441014
C63	C	1.580610	0.096741	0.962800
C64	C	2.080610	0.596741	1.462800
C65	C	1.580595	0.096735	0.863142
C66	C	2.080595	0.596735	1.363142
C67	C	1.514132	0.178653	0.802419
C68	C	2.014132	0.678653	1.302419
H69	H	1.394593	-0.431840	0.228766
H70	H	1.894593	0.068160	0.728766
H71	H	1.094829	0.180721	0.109387
H72	H	1.594829	0.680721	0.609387
O73	O	1.156857	0.182290	0.364806
O74	O	1.656857	0.682290	0.864806
H75	H	1.139248	0.264367	0.403324
H76	H	1.639248	0.764367	0.903324
O77	O	1.304658	-0.232487	0.214020
O78	O	1.804658	0.267513	0.714020
H79	H	1.257463	-0.201714	0.270805
H80	H	1.757463	0.298286	0.770805
H81	H	1.690291	-0.423417	0.277209
H82	H	2.190291	0.076583	0.777209
O83	O	1.652205	0.008367	0.513766
O84	O	2.152205	0.508367	1.013766
H85	H	1.698405	-0.048601	0.572735
H86	H	2.198405	0.451399	1.072735
H87	H	1.393563	0.327272	0.791909
H88	H	1.893563	0.827272	1.291909
O89	O	1.652261	0.008401	0.720922
O90	O	2.152261	0.508401	1.220922
H91	H	1.698482	-0.048544	0.677108
H92	H	2.198482	0.451456	1.177108
O93	O	1.652249	0.008380	0.821138
O94	O	2.152249	0.508380	1.321138
H95	H	1.698456	-0.048592	0.880101
H96	H	2.198456	0.451408	1.380101
H97	H	0.933410	0.176585	0.387385
H98	H	1.433410	0.676585	0.887385
O99	O	1.376030	0.348909	0.983022
O100	O	1.876030	0.848909	1.483022
H101	H	1.275085	0.332521	0.947365
H102	H	1.775085	0.832521	1.447365
H103	H	1.634725	0.030041	1.012247
H104	H	2.134725	0.530041	1.512247
H105	H	0.888717	0.175461	0.157586
H106	H	1.388717	0.675461	0.657586
H107	H	1.633633	-0.210842	0.267996
H108	H	2.133633	0.289158	0.767996
O109	O	1.375998	0.348929	0.675618
O110	O	1.875998	0.848929	1.175618
H111	H	1.303754	0.297223	0.709197
H112	H	1.803754	0.797223	1.209197
H113	H	1.393519	0.327254	0.484529
H114	H	1.893519	0.827254	0.984529
