data_functionalizedCrystal
_audit_creation_method	'MofGen! by Chris Wilmer'
_symmetry_space_group_name_H-M	'P1'
_symmetry_Int_Tables_number	1
_symmetry_cell_setting	triclinic
loop_
_symmetry_equiv_pos_as_xyz
  x,y,z
_cell_length_a	14.519731
_cell_length_b	13.596369
_cell_length_c	14.519731
_cell_angle_alpha	89.998627
_cell_angle_beta	96.311147
_cell_angle_gamma	90.006024
loop_
_atom_site_label
_atom_site_type_symbol
_atom_site_fract_x
_atom_site_fract_y
_atom_site_fract_z
O1	O	1.223867	0.081796	-0.120977
O2	O	1.473867	0.331796	0.129023
O3	O	1.723867	0.581796	0.379023
O4	O	1.973867	0.831796	0.629023
O5	O	0.955394	0.081798	-0.135193
O6	O	1.205394	0.331798	0.114807
O7	O	1.455394	0.581798	0.364807
O8	O	1.705394	0.831798	0.614807
O9	O	1.096739	0.081788	0.006151
O10	O	1.346739	0.331788	0.256151
O11	O	1.596739	0.581788	0.506151
O12	O	1.846739	0.831788	0.756151
O13	O	1.082523	0.081806	-0.262322
O14	O	1.332523	0.331806	-0.012322
O15	O	1.582523	0.581806	0.237678
O16	O	1.832523	0.831806	0.487678
O17	O	1.096721	-0.081795	0.006143
O18	O	1.346721	0.168205	0.256143
O19	O	1.596721	0.418205	0.506143
O20	O	1.846721	0.668205	0.756143
O21	O	0.955377	-0.081785	-0.135201
O22	O	1.205377	0.168215	0.114799
O23	O	1.455377	0.418215	0.364799
O24	O	1.705377	0.668215	0.614799
O25	O	1.223850	-0.081787	-0.120985
O26	O	1.473850	0.168213	0.129015
O27	O	1.723850	0.418213	0.379015
O28	O	1.973850	0.668213	0.629015
Zn29	Zn	1.089610	-0.107759	-0.128094
Zn30	Zn	1.339610	0.142241	0.121906
Zn31	Zn	1.589610	0.392241	0.371906
Zn32	Zn	1.839610	0.642241	0.621906
Zn33	Zn	1.089633	0.107769	-0.128084
Zn34	Zn	1.339633	0.357769	0.121916
Zn35	Zn	1.589633	0.607769	0.371916
Zn36	Zn	1.839633	0.857769	0.621916
O37	O	1.082505	-0.081777	-0.262330
O38	O	1.332505	0.168223	-0.012330
O39	O	1.582505	0.418223	0.237670
O40	O	1.832505	0.668223	0.487670
C41	C	0.921026	0.000006	-0.134531
C42	C	1.171026	0.250006	0.115469
C43	C	1.421026	0.500006	0.365469
C44	C	1.671026	0.750006	0.615469
C45	C	0.818645	0.000007	-0.132535
C46	C	1.068645	0.250007	0.117465
C47	C	1.318645	0.500007	0.367465
C48	C	1.568645	0.750007	0.617465
N49	N	1.089602	-0.254850	-0.128101
N50	N	1.339602	-0.004850	0.121899
N51	N	1.589602	0.245150	0.371899
N52	N	1.839602	0.495150	0.621899
C53	C	0.735501	0.000010	-0.130913
C54	C	0.985501	0.250010	0.119087
C55	C	1.235501	0.500010	0.369087
C56	C	1.485501	0.750010	0.619087
C57	C	0.631192	0.000011	-0.128887
C58	C	0.881192	0.250011	0.121113
C59	C	1.131192	0.500011	0.371113
C60	C	1.381192	0.750011	0.621113
C61	C	0.548053	0.000011	-0.127278
C62	C	0.798053	0.250011	0.122722
C63	C	1.048053	0.500011	0.372722
C64	C	1.298053	0.750011	0.622722
C65	C	0.443738	0.000013	-0.125252
C66	C	0.693738	0.250013	0.124748
C67	C	0.943738	0.500013	0.374748
C68	C	1.193738	0.750013	0.624748
C69	C	1.089606	-0.343848	-0.128103
C70	C	1.339606	-0.093848	0.121897
C71	C	1.589606	0.156152	0.371897
C72	C	1.839606	0.406152	0.621897
C73	C	1.089615	-0.455500	-0.128097
C74	C	1.339615	-0.205500	0.121903
C75	C	1.589615	0.044500	0.371903
C76	C	1.839615	0.294500	0.621903
C77	C	1.089627	-0.544490	-0.128086
C78	C	1.339627	-0.294490	0.121914
C79	C	1.589627	-0.044490	0.371914
C80	C	1.839627	0.205510	0.621914
C81	C	1.089638	-0.656149	-0.128081
C82	C	1.339638	-0.406149	0.121919
C83	C	1.589638	-0.156149	0.371919
C84	C	1.839638	0.093851	0.621919
C85	C	1.258218	0.000006	-0.121648
C86	C	1.508218	0.250006	0.128352
C87	C	1.758218	0.500006	0.378352
C88	C	2.008218	0.750006	0.628352
C89	C	1.360598	0.000012	-0.123643
C90	C	1.610598	0.250012	0.126357
C91	C	1.860598	0.500012	0.376357
C92	C	2.110598	0.750012	0.626357
C93	C	1.096064	-0.000004	0.040507
C94	C	1.346064	0.249996	0.290507
C95	C	1.596064	0.499996	0.540507
C96	C	1.846064	0.749996	0.790507
C97	C	1.094068	-0.000005	0.142887
C98	C	1.344068	0.249995	0.392887
C99	C	1.594068	0.499995	0.642887
C100	C	1.844068	0.749995	0.892887
N101	N	1.089650	0.254861	-0.128070
N102	N	1.339650	0.504861	0.121930
N103	N	1.589650	0.754861	0.371930
N104	N	1.839650	1.004861	0.621930
C105	C	1.083180	0.000017	-0.296685
C106	C	1.333180	0.250017	-0.046685
C107	C	1.583180	0.500017	0.203315
C108	C	1.833180	0.750017	0.453315
C109	C	1.085176	0.000024	-0.399066
C110	C	1.335176	0.250024	-0.149066
C111	C	1.585176	0.500024	0.100934
C112	C	1.835176	0.750024	0.350934
C113	C	1.092446	-0.000002	0.226031
C114	C	1.342446	0.249998	0.476031
C115	C	1.592446	0.499998	0.726031
C116	C	1.842446	0.749998	0.976031
C117	C	1.090419	0.000005	0.330340
C118	C	1.340419	0.250005	0.580340
C119	C	1.590419	0.500005	0.830340
C120	C	1.840419	0.750005	1.080340
C121	C	1.088811	0.000012	0.413479
C122	C	1.338811	0.250012	0.663479
C123	C	1.588811	0.500012	0.913479
C124	C	1.838811	0.750012	1.163479
C125	C	1.086785	0.000017	0.517795
C126	C	1.336785	0.250017	0.767795
C127	C	1.586785	0.500017	1.017795
C128	C	1.836785	0.750017	1.267795
