data_functionalizedCrystal
_audit_creation_method	'MofGen! by Chris Wilmer'
_symmetry_space_group_name_H-M	'P1'
_symmetry_Int_Tables_number	1
_symmetry_cell_setting	triclinic
loop_
_symmetry_equiv_pos_as_xyz
  x,y,z
_cell_length_a	23.532407
_cell_length_b	22.610064
_cell_length_c	11.026607
_cell_angle_alpha	90.007110
_cell_angle_beta	95.717343
_cell_angle_gamma	89.998238
loop_
_atom_site_label
_atom_site_type_symbol
_atom_site_fract_x
_atom_site_fract_y
_atom_site_fract_z
O1	O	-0.770736	0.049093	-0.147111
O2	O	-0.607112	0.049113	-0.168400
O3	O	-0.675363	0.049102	0.018734
O4	O	-0.702485	0.049103	-0.334245
O5	O	-0.675350	-0.049267	0.018707
O6	O	-0.607099	-0.049256	-0.168427
O7	O	-0.770724	-0.049276	-0.147139
Zn8	Zn	-0.688909	-0.064885	-0.157787
Zn9	Zn	-0.688926	0.064721	-0.157751
O10	O	-0.702472	-0.049266	-0.334272
C11	C	-0.585832	-0.000069	-0.167871
C12	C	-0.522444	-0.000061	-0.166241
N13	N	-0.688902	-0.153337	-0.157811
C14	C	-0.719151	-0.561983	-0.074901
C15	C	-0.719153	-0.623903	-0.074892
O16	O	-0.744849	-0.655926	-0.004417
N17	N	-0.688923	-0.654874	-0.157726
C18	C	-0.658685	-0.623922	-0.240566
O19	O	-0.632972	-0.655951	-0.311021
C20	C	-0.658680	-0.562003	-0.240568
C21	C	-0.688916	-0.531036	-0.157737
C22	C	-0.749384	-0.531015	0.007924
C23	C	-0.749383	-0.469099	0.007914
C24	C	-0.719148	-0.438152	-0.074922
C25	C	-0.688915	-0.469120	-0.157748
C26	C	-0.628438	-0.531053	-0.323401
C27	C	-0.628436	-0.469130	-0.323395
C28	C	-0.658672	-0.438162	-0.240564
C29	C	-0.658679	-0.376257	-0.240594
N30	N	-0.688909	-0.345285	-0.157760
C31	C	-0.719143	-0.376233	-0.074924
C32	C	-0.658697	-0.753956	-0.240554
C33	C	-0.658704	-0.815874	-0.240558
C34	C	-0.719172	-0.815850	-0.074883
C35	C	-0.719167	-0.753931	-0.074885
C36	C	-0.688926	-0.722985	-0.157720
C37	C	-0.719139	-0.246206	-0.074954
C38	C	-0.719137	-0.184285	-0.074975
C39	C	-0.658667	-0.184314	-0.240646
C40	C	-0.658671	-0.246229	-0.240629
C41	C	-0.688908	-0.277174	-0.157773
O42	O	-0.632994	-0.344195	-0.311030
O43	O	-0.744846	-0.344196	-0.004470
C44	C	-0.133913	-0.000080	-0.266760
C45	C	-0.074354	-0.000082	-0.265246
O46	O	-0.047410	-0.000103	-0.358429
N47	N	-0.040027	-0.000081	-0.153995
C48	C	-0.065262	-0.000084	-0.044251
O49	O	-0.030595	-0.000083	0.050515
C50	C	-0.124820	-0.000085	-0.045767
C51	C	-0.159144	-0.000081	-0.157025
C52	C	-0.168237	-0.000076	-0.378009
C53	C	-0.227793	-0.000072	-0.379523
C54	C	-0.253024	-0.000073	-0.269787
C55	C	-0.218700	-0.000077	-0.158538
C56	C	-0.150054	-0.000092	0.063976
C57	C	-0.209617	-0.000094	0.062451
C58	C	-0.243941	-0.000089	-0.048807
C59	C	-0.303486	-0.000074	-0.050316
N60	N	-0.337814	-0.000075	-0.161567
C61	C	-0.312582	-0.000075	-0.271303
C62	C	0.059815	-0.000081	-0.041078
C63	C	0.119372	-0.000075	-0.039561
C64	C	0.110276	-0.000075	-0.260556
C65	C	0.050717	-0.000077	-0.262072
C66	C	0.025488	-0.000082	-0.152328
C67	C	-0.437653	-0.000067	-0.274473
C68	C	-0.497213	-0.000061	-0.275977
C69	C	-0.488111	-0.000064	-0.054982
C70	C	-0.428556	-0.000067	-0.053478
C71	C	-0.403329	-0.000070	-0.163233
O72	O	-0.330470	-0.000056	0.042817
O73	O	-0.347256	-0.000083	-0.366054
C74	C	0.207997	-0.000088	-0.147667
C75	C	0.144609	-0.000078	-0.149297
C76	C	-0.670353	-0.000081	0.063871
C77	C	-0.655437	-0.000077	0.198405
N78	N	-0.688937	0.153173	-0.157718
C79	C	-0.707482	-0.000081	-0.379409
C80	C	-0.722398	-0.000081	-0.513943
C81	C	-0.696622	-0.000081	0.272707
C82	C	-0.681207	-0.000077	0.411756
H83	H	-0.743761	-0.159072	-0.007524
H84	H	-0.230155	-0.000099	0.151820
H85	H	-0.634052	-0.159106	-0.308093
C86	C	-0.265542	-0.000080	-0.501917
N87	N	-0.293972	-0.000090	-0.594110
H88	H	-0.634057	-0.271444	-0.308089
C89	C	0.012966	-0.000078	-0.384463
N90	N	-0.015466	-0.000081	-0.476653
C91	C	-0.592384	-0.000070	0.251530
N92	N	-0.544891	-0.000067	0.291542
H93	H	-0.634532	-0.000068	0.451079
C94	C	-0.140493	-0.000077	-0.498739
N95	N	-0.119600	-0.000075	-0.589680
H96	H	-0.634073	-0.728762	-0.308018
H97	H	-0.743294	-0.000091	0.233378
C98	C	0.138042	-0.000080	-0.381268
N99	N	0.158957	-0.000085	-0.472183
C100	C	-0.534967	-0.000060	-0.398374
N101	N	-0.563401	-0.000062	-0.490562
H102	H	-0.743787	-0.728721	-0.007436
C103	C	-0.752403	-0.280236	0.016189
N104	N	-0.777460	-0.305867	0.084833
C105	C	0.032068	-0.000077	0.079657
N106	N	0.011172	-0.000074	0.170594
C107	C	-0.782638	-0.435043	0.099048
N108	N	-0.807685	-0.409395	0.167701
C109	C	-0.595170	-0.565104	-0.414514
N110	N	-0.570108	-0.590750	-0.483142
C111	C	-0.752426	-0.849904	0.016247
N112	N	-0.777471	-0.875556	0.084883
H113	H	-0.769073	-0.000043	0.446735
H114	H	-0.508666	-0.000062	0.034362
C115	C	-0.625447	-0.849931	-0.331688
N116	N	-0.600393	-0.875581	-0.400323
C117	C	-0.409911	-0.000067	-0.395210
N118	N	-0.389017	-0.000063	-0.486149
H119	H	-0.774004	-0.556207	0.075385
H120	H	-0.603808	-0.443936	-0.390849
C121	C	0.157123	-0.000076	0.082831
N122	N	0.185554	-0.000082	0.175022
H123	H	-0.400608	-0.000062	0.037118
C124	C	-0.112310	-0.000109	0.186371
N125	N	-0.083882	-0.000127	0.278566
