data_functionalizedCrystal
_audit_creation_method	'MofGen! by Chris Wilmer'
_symmetry_space_group_name_H-M	'P1'
_symmetry_Int_Tables_number	1
_symmetry_cell_setting	triclinic
loop_
_symmetry_equiv_pos_as_xyz
  x,y,z
_cell_length_a	18.101398
_cell_length_b	18.101395
_cell_length_c	18.101390
_cell_angle_alpha	90.031336
_cell_angle_beta	90.024681
_cell_angle_gamma	90.026371
loop_
_atom_site_label
_atom_site_type_symbol
_atom_site_fract_x
_atom_site_fract_y
_atom_site_fract_z
Zn1	Zn	1.132124	-0.294895	0.418847
Zn2	Zn	1.382124	-0.044895	0.668847
Zn3	Zn	1.632124	0.205105	0.918847
Zn4	Zn	1.882124	0.455105	1.168847
Zn5	Zn	1.132019	-0.418752	0.295009
Zn6	Zn	1.382019	-0.168752	0.545009
Zn7	Zn	1.632019	0.081248	0.795009
Zn8	Zn	1.882019	0.331248	1.045009
Zn9	Zn	1.008282	-0.294918	0.295008
Zn10	Zn	1.258282	-0.044918	0.545008
Zn11	Zn	1.508282	0.205082	0.795008
Zn12	Zn	1.758282	0.455082	1.045008
Zn13	Zn	1.008233	-0.418689	0.418797
Zn14	Zn	1.258233	-0.168689	0.668797
Zn15	Zn	1.508233	0.081311	0.918797
Zn16	Zn	1.758233	0.331311	1.168797
O17	O	1.070164	-0.356813	0.356915
O18	O	1.320164	-0.106813	0.606915
O19	O	1.570164	0.143187	0.856915
O20	O	1.820164	0.393187	1.106915
O21	O	1.235743	-0.311341	0.402441
O22	O	1.485743	-0.061341	0.652441
O23	O	1.735743	0.188659	0.902441
O24	O	1.985743	0.438659	1.152441
O25	O	1.115581	-0.402361	0.191376
O26	O	1.365581	-0.152361	0.441376
O27	O	1.615581	0.097639	0.691376
O28	O	1.865581	0.347639	0.941376
O29	O	1.024774	-0.191282	0.311456
O30	O	1.274774	0.058718	0.561456
O31	O	1.524774	0.308718	0.811456
O32	O	1.774774	0.558718	1.061456
O33	O	1.235666	-0.402338	0.311457
O34	O	1.485666	-0.152338	0.561457
O35	O	1.735666	0.097662	0.811457
O36	O	1.985666	0.347662	1.061457
O37	O	1.115760	-0.191265	0.402440
O38	O	1.365760	0.058735	0.652440
O39	O	1.615760	0.308735	0.902440
O40	O	1.865760	0.558735	1.152440
O41	O	1.024672	-0.311381	0.191375
O42	O	1.274672	-0.061381	0.441375
O43	O	1.524672	0.188619	0.691375
O44	O	1.774672	0.438619	0.941375
O45	O	0.904642	-0.311320	0.311408
O46	O	1.154642	-0.061320	0.561408
O47	O	1.404642	0.188680	0.811408
O48	O	1.654642	0.438680	1.061408
O49	O	1.024691	-0.402231	0.522437
O50	O	1.274691	-0.152231	0.772437
O51	O	1.524691	0.097769	1.022437
O52	O	1.774691	0.347769	1.272437
O53	O	0.904607	-0.402254	0.402355
O54	O	1.154607	-0.152254	0.652355
O55	O	1.404607	0.097746	0.902355
O56	O	1.654607	0.347746	1.152355
O57	O	1.115713	-0.311280	0.522473
O58	O	1.365713	-0.061280	0.772473
O59	O	1.615713	0.188720	1.022473
O60	O	1.865713	0.438720	1.272473
O61	O	1.115534	-0.522376	0.311409
O62	O	1.365534	-0.272376	0.561409
O63	O	1.615534	-0.022376	0.811409
O64	O	1.865534	0.227624	1.061409
O65	O	1.024590	-0.522330	0.402356
O66	O	1.274590	-0.272330	0.652356
O67	O	1.524590	-0.022330	0.902356
O68	O	1.774590	0.227670	1.152356
C69	C	0.877754	-0.356783	0.356877
C70	C	1.127754	-0.106783	0.606877
C71	C	1.377754	0.143217	0.856877
C72	C	1.627754	0.393217	1.106877
C73	C	0.795440	-0.356788	0.356878
C74	C	1.045440	-0.106788	0.606878
C75	C	1.295440	0.143212	0.856878
C76	C	1.545440	0.393212	1.106878
C77	C	0.496349	-0.356835	0.356940
C78	C	0.746349	-0.106835	0.606940
C79	C	0.996349	0.143165	0.856940
C80	C	1.246349	0.393165	1.106940
C81	C	0.527672	-0.299336	0.299997
C82	C	0.777672	-0.049336	0.549997
C83	C	1.027672	0.200664	0.799997
C84	C	1.277672	0.450664	1.049997
C85	C	0.613290	-0.299490	0.299754
C86	C	0.863290	-0.049490	0.549754
C87	C	1.113290	0.200510	0.799754
C88	C	1.363290	0.450510	1.049754
C89	C	0.644731	-0.356811	0.356909
C90	C	0.894731	-0.106811	0.606909
C91	C	1.144731	0.143189	0.856909
C92	C	1.394731	0.393189	1.106909
C93	C	0.613613	-0.434824	0.335587
C94	C	0.863613	-0.184824	0.585587
C95	C	1.113613	0.065176	0.835587
C96	C	1.363613	0.315176	1.085587
C97	C	0.527968	-0.434505	0.335191
C98	C	0.777968	-0.184505	0.585191
C99	C	1.027968	0.065495	0.835191
C100	C	1.277968	0.315495	1.085191
C101	C	0.527964	-0.336998	0.435339
C102	C	0.777964	-0.086998	0.685339
C103	C	1.027964	0.163002	0.935339
C104	C	1.277964	0.413002	1.185339
C105	C	0.613615	-0.335261	0.434911
C106	C	0.863615	-0.085261	0.684911
C107	C	1.113615	0.164739	0.934911
C108	C	1.363615	0.414739	1.184911
C109	C	0.728591	-0.356803	0.356893
C110	C	0.978591	-0.106803	0.606893
C111	C	1.228591	0.143197	0.856893
C112	C	1.478591	0.393197	1.106893
C113	C	0.412489	-0.356848	0.356954
C114	C	0.662489	-0.106848	0.606954
C115	C	0.912489	0.143152	0.856954
C116	C	1.162489	0.393152	1.106954
C117	C	1.070065	-0.549224	0.356893
C118	C	1.320065	-0.299224	0.606893
C119	C	1.570065	-0.049224	0.856893
C120	C	1.820065	0.200776	1.106893
C121	C	1.070091	-0.631538	0.356909
C122	C	1.320091	-0.381538	0.606909
C123	C	1.570091	-0.131538	0.856909
C124	C	1.820091	0.118462	1.106909
C125	C	1.070253	-0.930629	0.356949
C126	C	1.320253	-0.680629	0.606949
C127	C	1.570253	-0.430629	0.856949
C128	C	1.820253	-0.180629	1.106949
C129	C	1.013166	-0.899306	0.414312
C130	C	1.263166	-0.649306	0.664312
C131	C	1.513166	-0.399306	0.914312
C132	C	1.763166	-0.149306	1.164312
C133	C	1.012895	-0.813688	0.414133
C134	C	1.262895	-0.563688	0.664133
C135	C	1.512895	-0.313688	0.914133
C136	C	1.762895	-0.063688	1.164133
C137	C	1.070172	-0.782247	0.356930
C138	C	1.320172	-0.532247	0.606930
C139	C	1.570172	-0.282247	0.856930
C140	C	1.820172	-0.032247	1.106930
C141	C	1.049043	-0.813402	0.278878
C142	C	1.299043	-0.563402	0.528878
C143	C	1.549043	-0.313402	0.778878
C144	C	1.799043	-0.063402	1.028878
C145	C	1.048675	-0.899047	0.279221
C146	C	1.298675	-0.649047	0.529221
C147	C	1.548675	-0.399047	0.779221
C148	C	1.798675	-0.149047	1.029221
C149	C	1.148595	-0.898978	0.376950
C150	C	1.398595	-0.648978	0.626950
C151	C	1.648595	-0.398978	0.876950
C152	C	1.898595	-0.148978	1.126950
C153	C	1.148134	-0.813327	0.378661
C154	C	1.398134	-0.563327	0.628661
C155	C	1.648134	-0.313327	0.878661
C156	C	1.898134	-0.063327	1.128661
C157	C	1.070128	-0.698387	0.356914
C158	C	1.320128	-0.448387	0.606914
C159	C	1.570128	-0.198387	0.856914
C160	C	1.820128	0.051613	1.106914
C161	C	1.070296	-1.014488	0.356959
C162	C	1.320296	-0.764488	0.606959
C163	C	1.570296	-0.514488	0.856959
C164	C	1.820296	-0.264488	1.106959
C165	C	1.263326	-0.356844	0.356954
C166	C	1.513326	-0.106844	0.606954
C167	C	1.763326	0.143156	0.856954
C168	C	2.013326	0.393156	1.106954
C169	C	1.345640	-0.356857	0.356971
C170	C	1.595640	-0.106857	0.606971
C171	C	1.845640	0.143143	0.856971
C172	C	2.095640	0.393143	1.106971
C173	C	1.070208	-0.356746	0.550077
C174	C	1.320208	-0.106746	0.800077
C175	C	1.570208	0.143254	1.050077
C176	C	1.820208	0.393254	1.300077
C177	C	1.070227	-0.356717	0.632391
C178	C	1.320227	-0.106717	0.882391
C179	C	1.570227	0.143283	1.132391
C180	C	1.820227	0.393283	1.382391
C181	C	1.070284	-0.163652	0.356953
C182	C	1.320284	0.086348	0.606953
C183	C	1.570284	0.336348	0.856953
C184	C	1.820284	0.586348	1.106953
C185	C	1.070335	-0.081337	0.356970
C186	C	1.320335	0.168663	0.606970
C187	C	1.570335	0.418663	0.856970
C188	C	1.820335	0.668663	1.106970
C189	C	1.070163	-0.356827	0.164505
C190	C	1.320163	-0.106827	0.414505
C191	C	1.570163	0.143173	0.664505
C192	C	1.820163	0.393173	0.914505
C193	C	1.070288	-0.356648	0.082191
C194	C	1.320288	-0.106648	0.332191
C195	C	1.570288	0.143352	0.582191
C196	C	1.820288	0.393352	0.832191
C197	C	1.070267	-0.356671	0.931483
C198	C	1.320267	-0.106671	1.181483
C199	C	1.570267	0.143329	1.431483
C200	C	1.820267	0.393329	1.681483
C201	C	1.127724	-0.299648	0.900180
C202	C	1.377724	-0.049648	1.150180
C203	C	1.627724	0.200352	1.400180
C204	C	1.877724	0.450352	1.650180
C205	C	1.127545	-0.299437	0.814562
C206	C	1.377545	-0.049437	1.064562
C207	C	1.627545	0.200563	1.314562
C208	C	1.877545	0.450563	1.564562
C209	C	1.070248	-0.356694	0.783100
C210	C	1.320248	-0.106694	1.033100
C211	C	1.570248	0.143306	1.283100
C212	C	1.820248	0.393306	1.533100
C213	C	0.992231	-0.335484	0.814166
C214	C	1.242231	-0.085484	1.064166
C215	C	1.492231	0.164516	1.314166
C216	C	1.742231	0.414516	1.564166
C217	C	0.992575	-0.335057	0.899811
C218	C	1.242575	-0.085057	1.149811
C219	C	1.492575	0.164943	1.399811
C220	C	1.742575	0.414943	1.649811
C221	C	1.090140	-0.435050	0.899899
C222	C	1.340140	-0.185050	1.149899
C223	C	1.590140	0.064950	1.399899
C224	C	1.840140	0.314950	1.649899
C225	C	1.091852	-0.434650	0.814249
C226	C	1.341852	-0.184650	1.064249
C227	C	1.591852	0.065350	1.314249
C228	C	1.841852	0.315350	1.564249
C229	C	1.070232	-0.356708	0.699240
C230	C	1.320232	-0.106708	0.949240
C231	C	1.570232	0.143292	1.199240
C232	C	1.820232	0.393292	1.449240
C233	C	1.070278	-0.356655	1.015342
C234	C	1.320278	-0.106655	1.265342
C235	C	1.570278	0.143345	1.515342
C236	C	1.820278	0.393345	1.765342
H237	H	0.633978	-0.478814	0.375763
H238	H	0.883978	-0.228814	0.625763
H239	H	1.133978	0.021186	0.875763
H240	H	1.383978	0.271186	1.125763
H241	H	0.975078	-0.278826	0.792724
H242	H	1.225078	-0.028826	1.042724
H243	H	1.475078	0.221174	1.292724
H244	H	1.725078	0.471174	1.542724
H245	H	0.506122	-0.312301	0.242242
H246	H	0.756122	-0.062301	0.492242
H247	H	1.006122	0.187699	0.742242
H248	H	1.256122	0.437699	0.992242
Br249	Br	0.648363	-0.203069	0.322030
Br250	Br	0.898363	0.046931	0.572030
Br251	Br	1.148363	0.296931	0.822030
Br252	Br	1.398363	0.546931	1.072030
H253	H	1.146032	-0.454361	0.921548
H254	H	1.396032	-0.204361	1.171548
H255	H	1.646032	0.045639	1.421548
H256	H	1.896032	0.295639	1.671548
H257	H	0.635027	-0.451937	0.278892
H258	H	0.885027	-0.201937	0.528892
H259	H	1.135027	0.048063	0.778892
H260	H	1.385027	0.298063	1.028892
H261	H	0.507101	-0.241309	0.313215
H262	H	0.757101	0.008691	0.563215
H263	H	1.007101	0.258691	0.813215
H264	H	1.257101	0.508691	1.063215
H265	H	0.633959	-0.277852	0.450989
H266	H	0.883959	-0.027852	0.700989
H267	H	1.133959	0.222148	0.950989
H268	H	1.383959	0.472148	1.200989
H269	H	0.991407	-0.919086	0.262279
H270	H	1.241407	-0.669086	0.512279
H271	H	1.491407	-0.419086	0.762279
H272	H	1.741407	-0.169086	1.012279
Br273	Br	0.954603	-0.777759	0.250131
Br274	Br	1.204603	-0.527759	0.500131
Br275	Br	1.454603	-0.277759	0.750131
Br276	Br	1.704603	-0.027759	1.000131
H277	H	0.633743	-0.312604	0.241661
H278	H	0.883743	-0.062604	0.491661
H279	H	1.133743	0.187396	0.741661
H280	H	1.383743	0.437396	0.991661
Br281	Br	0.964456	-0.239575	0.933130
Br282	Br	1.214456	0.010425	1.183130
Br283	Br	1.464456	0.260425	1.433130
Br284	Br	1.714456	0.510425	1.683130
H285	H	0.954826	-0.793261	0.400884
H286	H	1.204826	-0.543261	0.650884
H287	H	1.454826	-0.293261	0.900884
H288	H	1.704826	-0.043261	1.150884
H289	H	1.114736	-0.241908	0.921715
H290	H	1.364736	0.008092	1.171715
H291	H	1.614736	0.258092	1.421715
H292	H	1.864736	0.508092	1.671715
Br293	Br	0.492013	-0.243831	0.467651
Br294	Br	0.742013	0.006169	0.717651
Br295	Br	0.992013	0.256169	0.967651
Br296	Br	1.242013	0.506169	1.217651
H297	H	1.026114	-0.792621	0.472007
H298	H	1.276114	-0.542621	0.722007
H299	H	1.526114	-0.292621	0.972007
H300	H	1.776114	-0.042621	1.222007
Br301	Br	1.114961	-0.933592	0.205551
Br302	Br	1.364961	-0.683592	0.455551
Br303	Br	1.614961	-0.433592	0.705551
Br304	Br	1.864961	-0.183592	0.955551
H305	H	1.191127	-0.919234	0.335170
H306	H	1.441127	-0.669234	0.585170
H307	H	1.691127	-0.419234	0.835170
H308	H	1.941127	-0.169234	1.085170
H309	H	1.053046	-0.479420	0.792829
H310	H	1.303046	-0.229420	1.042829
H311	H	1.553046	0.020580	1.292829
H312	H	1.803046	0.270580	1.542829
H313	H	1.048295	-0.477538	0.920146
H314	H	1.298295	-0.227538	1.170146
H315	H	1.548295	0.022462	1.420146
H316	H	1.798295	0.272462	1.670146
H317	H	1.149265	-0.450643	0.793944
H318	H	1.399265	-0.200643	1.043944
H319	H	1.649265	0.049357	1.293944
H320	H	1.899265	0.299357	1.543944
H321	H	0.507956	-0.451326	0.277877
H322	H	0.757956	-0.201326	0.527877
H323	H	1.007956	0.048674	0.777877
H324	H	1.257956	0.298674	1.027877
H325	H	1.089314	-0.793038	0.234972
H326	H	1.339314	-0.543038	0.484972
H327	H	1.589314	-0.293038	0.734972
H328	H	1.839314	-0.043038	0.984972
H329	H	0.635020	-0.374088	0.479611
H330	H	0.885020	-0.124088	0.729611
H331	H	1.135020	0.125912	0.979611
H332	H	1.385020	0.375912	1.229611
Br333	Br	0.494204	-0.406800	0.506055
Br334	Br	0.744204	-0.156800	0.756055
Br335	Br	0.994204	0.093200	1.006055
Br336	Br	1.244204	0.343200	1.256055
Br337	Br	0.493425	-0.508329	0.401297
Br338	Br	0.743425	-0.258329	0.651297
Br339	Br	0.993425	-0.008329	0.901297
Br340	Br	1.243425	0.241671	1.151297
Br341	Br	1.180705	-0.934888	0.470196
Br342	Br	1.430705	-0.684888	0.720196
Br343	Br	1.680705	-0.434888	0.970196
Br344	Br	1.930705	-0.184888	1.220196
H345	H	1.164068	-0.792961	0.436103
H346	H	1.414068	-0.542961	0.686103
H347	H	1.664068	-0.292961	0.936103
H348	H	1.914068	-0.042961	1.186103
H349	H	1.026255	-0.919850	0.472374
H350	H	1.276255	-0.669850	0.722374
H351	H	1.526255	-0.419850	0.972374
H352	H	1.776255	-0.169850	1.222374
Br353	Br	1.105621	-0.202658	0.780428
Br354	Br	1.355621	0.047342	1.030428
Br355	Br	1.605621	0.297342	1.280428
Br356	Br	1.855621	0.547342	1.530428
H357	H	0.955450	-0.920888	0.401230
H358	H	1.205450	-0.670888	0.651230
H359	H	1.455450	-0.420888	0.901230
H360	H	1.705450	-0.170888	1.151230
H361	H	1.192917	-0.791921	0.339927
H362	H	1.442917	-0.541921	0.589927
H363	H	1.692917	-0.291921	0.839927
H364	H	1.942917	-0.041921	1.089927
Br365	Br	1.223970	-0.321565	0.779552
Br366	Br	1.473970	-0.071565	1.029552
Br367	Br	1.723970	0.178435	1.279552
Br368	Br	1.973970	0.428435	1.529552
Br369	Br	1.224466	-0.321508	0.934529
Br370	Br	1.474466	-0.071508	1.184529
Br371	Br	1.724466	0.178492	1.434529
Br372	Br	1.974466	0.428492	1.684529
Br373	Br	0.918788	-0.401254	0.934325
Br374	Br	1.168788	-0.151254	1.184325
Br375	Br	1.418788	0.098746	1.434325
Br376	Br	1.668788	0.348746	1.684325
H377	H	0.948259	-0.375737	0.793784
H378	H	1.198259	-0.125737	1.043784
H379	H	1.448259	0.124263	1.293784
H380	H	1.698259	0.374263	1.543784
