data_functionalizedCrystal
_audit_creation_method	'MofGen! by Chris Wilmer'
_symmetry_space_group_name_H-M	'P1'
_symmetry_Int_Tables_number	1
_symmetry_cell_setting	triclinic
loop_
_symmetry_equiv_pos_as_xyz
  x,y,z
_cell_length_a	27.732048
_cell_length_b	27.732048
_cell_length_c	26.210047
_cell_angle_alpha	90.000479
_cell_angle_beta	89.996535
_cell_angle_gamma	97.357345
loop_
_atom_site_label
_atom_site_type_symbol
_atom_site_fract_x
_atom_site_fract_y
_atom_site_fract_z
O1	O	0.640931	-0.057510	-0.042369
O2	O	0.974264	0.275823	0.290965
O3	O	1.307598	0.609157	0.624298
O4	O	0.500138	-0.066256	-0.042385
O5	O	0.833471	0.267078	0.290948
O6	O	1.166804	0.600411	0.624282
O7	O	0.574907	0.008514	-0.042367
O8	O	0.908240	0.341847	0.290967
O9	O	1.241574	0.675181	0.624300
O10	O	0.566162	-0.132279	-0.042387
O11	O	0.899495	0.201054	0.290946
O12	O	1.232828	0.534387	0.624280
O13	O	0.574893	0.008502	0.042491
O14	O	0.908226	0.341836	0.375825
O15	O	1.241559	0.675169	0.709158
O16	O	0.500123	-0.066267	0.042473
O17	O	0.833457	0.267066	0.375806
O18	O	1.166790	0.600399	0.709140
O19	O	0.640917	-0.057522	0.042489
O20	O	0.974250	0.275812	0.375823
O21	O	1.307583	0.609145	0.709156
Cu22	Cu	0.570519	-0.061896	0.050229
Cu23	Cu	0.903852	0.271438	0.383563
Cu24	Cu	1.237185	0.604771	0.716896
Cu25	Cu	0.570536	-0.061882	-0.050125
Cu26	Cu	0.903869	0.271452	0.283208
Cu27	Cu	1.237202	0.604785	0.616542
O28	O	0.566147	-0.132291	0.042471
O29	O	0.899481	0.201042	0.375804
O30	O	1.232814	0.534375	0.709138
C31	C	0.482124	-0.066078	0.000042
C32	C	0.815457	0.267256	0.333376
C33	C	1.148790	0.600589	0.666709
C34	C	0.428469	-0.065525	0.000036
C35	C	0.761802	0.267808	0.333370
C36	C	1.095135	0.601142	0.666703
C37	C	0.089654	-0.106229	0.000053
C38	C	0.422987	0.227105	0.333386
C39	C	0.756320	0.560438	0.666719
C40	C	-0.112006	-0.104178	0.000057
C41	C	0.221327	0.229156	0.333391
C42	C	0.554661	0.562489	0.666724
O43	O	-0.143262	-0.141398	0.000074
O44	O	0.190072	0.191935	0.333408
O45	O	0.523405	0.525268	0.666741
N46	N	-0.131130	-0.059843	0.000063
N47	N	0.202204	0.273491	0.333396
N48	N	0.535537	0.606824	0.666730
C49	C	-0.099835	-0.016017	0.000071
C50	C	0.233498	0.317316	0.333404
C51	C	0.566832	0.650650	0.666737
O52	O	-0.120728	0.021740	0.000081
O53	O	0.212605	0.355073	0.333414
O54	O	0.545938	0.688407	0.666747
C55	C	0.101824	-0.018068	0.000069
C56	C	0.435157	0.315265	0.333403
C57	C	0.768490	0.648598	0.666736
C58	C	0.120944	-0.062407	0.000059
C59	C	0.454278	0.270927	0.333392
C60	C	0.787611	0.604260	0.666725
C61	C	0.108775	-0.150563	0.000043
C62	C	0.442108	0.182770	0.333376
C63	C	0.775442	0.516103	0.666709
C64	C	0.159187	-0.151076	0.000039
C65	C	0.492520	0.182258	0.333372
C66	C	0.825853	0.515591	0.666705
C67	C	0.190477	-0.107253	0.000045
C68	C	0.523811	0.226080	0.333378
C69	C	0.857144	0.559413	0.666711
C70	C	0.171356	-0.062919	0.000055
C71	C	0.504690	0.270415	0.333388
C72	C	0.838023	0.603748	0.666721
C73	C	0.133117	0.025757	0.000081
C74	C	0.466451	0.359090	0.333414
C75	C	0.799784	0.692423	0.666747
C76	C	0.183535	0.025240	0.000082
C77	C	0.516868	0.358573	0.333415
C78	C	0.850201	0.691906	0.666748
C79	C	0.202655	-0.019098	0.000071
C80	C	0.535989	0.314235	0.333404
C81	C	0.869322	0.647568	0.666738
C82	C	0.253059	-0.019609	0.000057
C83	C	0.586392	0.313724	0.333390
C84	C	0.919725	0.647058	0.666724
N85	N	0.272183	-0.063944	0.000051
N86	N	0.605516	0.269389	0.333385
N87	N	0.938849	0.602723	0.666718
C88	C	0.240892	-0.107766	0.000045
C89	C	0.574225	0.225567	0.333379
C90	C	0.907559	0.558900	0.666712
C91	C	-0.205709	-0.014943	0.000070
C92	C	0.127624	0.318390	0.333404
C93	C	0.460957	0.651724	0.666737
C94	C	-0.256124	-0.014430	0.000070
C95	C	0.077210	0.318903	0.333403
C96	C	0.410543	0.652237	0.666736
C97	C	-0.268291	-0.102591	0.000057
C98	C	0.065042	0.230742	0.333391
C99	C	0.398376	0.564076	0.666724
C100	C	-0.217876	-0.103104	0.000054
C101	C	0.115458	0.230230	0.333388
C102	C	0.448791	0.563563	0.666721
C103	C	-0.186585	-0.059278	0.000065
C104	C	0.146748	0.274055	0.333398
C105	C	0.480081	0.607388	0.666731
C106	C	0.346761	-0.108839	0.000036
C107	C	0.680094	0.224495	0.333370
C108	C	1.013428	0.557828	0.666703
C109	C	0.397178	-0.109347	0.000030
C110	C	0.730511	0.223986	0.333364
C111	C	1.063845	0.557319	0.666697
C112	C	0.409341	-0.021186	0.000045
C113	C	0.742674	0.312147	0.333379
C114	C	1.076008	0.645480	0.666712
C115	C	0.358929	-0.020678	0.000049
C116	C	0.692262	0.312656	0.333382
C117	C	1.025595	0.645989	0.666715
C118	C	0.327639	-0.064508	0.000046
C119	C	0.660973	0.268825	0.333379
C120	C	0.994306	0.602159	0.666713
O121	O	0.284343	0.017592	0.000046
O122	O	0.617676	0.350925	0.333379
O123	O	0.951009	0.684259	0.666713
O124	O	0.261794	-0.145518	0.000047
O125	O	0.595128	0.187816	0.333380
O126	O	0.928461	0.521149	0.666713
C127	C	0.039242	-0.105716	0.000057
C128	C	0.372575	0.227617	0.333390
C129	C	0.705908	0.560950	0.666723
C130	C	0.020120	-0.061382	0.000067
C131	C	0.353454	0.271951	0.333400
C132	C	0.686787	0.605285	0.666733
C133	C	0.051411	-0.017560	0.000073
C134	C	0.384744	0.315774	0.333406
C135	C	0.718078	0.649107	0.666740
C136	C	-0.030294	-0.060869	0.000066
C137	C	0.303039	0.272464	0.333399
C138	C	0.636373	0.605798	0.666733
C139	C	-0.061585	-0.104691	0.000060
C140	C	0.271749	0.228642	0.333393
C141	C	0.605082	0.561975	0.666727
C142	C	-0.042461	-0.149026	0.000054
C143	C	0.290872	0.184307	0.333388
C144	C	0.624206	0.517640	0.666721
C145	C	0.007951	-0.149539	0.000050
C146	C	0.341284	0.183795	0.333384
C147	C	0.674618	0.517128	0.666717
C148	C	0.032287	0.026775	0.000078
C149	C	0.365621	0.360109	0.333412
C150	C	0.698954	0.693442	0.666745
C151	C	-0.018125	0.027284	0.000082
C152	C	0.315208	0.360617	0.333415
C153	C	0.648541	0.693951	0.666749
C154	C	-0.049416	-0.016538	0.000076
C155	C	0.283917	0.316795	0.333409
C156	C	0.617251	0.650129	0.666742
C157	C	0.574716	0.026515	0.000064
C158	C	0.908050	0.359848	0.333397
C159	C	1.241383	0.693182	0.666731
C160	C	0.574164	0.080170	0.000068
C161	C	0.907497	0.413503	0.333401
C162	C	1.240830	0.746837	0.666735
C163	C	0.658931	-0.057699	0.000061
C164	C	0.992264	0.275634	0.333394
C165	C	1.325598	0.608967	0.666728
C166	C	0.712586	-0.058252	0.000064
C167	C	1.045919	0.275081	0.333397
C168	C	1.379252	0.608414	0.666730
C169	C	0.566338	-0.150292	0.000040
C170	C	0.899671	0.183041	0.333373
C171	C	1.233005	0.516374	0.666706
C172	C	0.566891	-0.203947	0.000032
C173	C	0.900224	0.129386	0.333365
C174	C	1.233557	0.462720	0.666699
N175	N	0.570510	-0.061905	0.120813
N176	N	0.903844	0.271428	0.454147
N177	N	1.237177	0.604762	0.787480
C178	C	0.614867	0.418985	0.000046
C179	C	0.948201	0.752318	0.333380
C180	C	1.281534	1.085652	0.666713
C181	C	0.612816	0.620645	0.000039
C182	C	0.946150	0.953978	0.333372
C183	C	1.279483	1.287311	0.666706
O184	O	0.650037	0.651900	0.000021
O185	O	0.983370	0.985234	0.333354
O186	O	1.316704	1.318567	0.666688
N187	N	0.568481	0.639768	0.000034
N188	N	0.901814	0.973102	0.333368
N189	N	1.235148	1.306435	0.666701
C190	C	0.524656	0.608474	0.000028
C191	C	0.857989	0.941807	0.333362
C192	C	1.191322	1.275140	0.666695
O193	O	0.486899	0.629367	0.000019
O194	O	0.820232	0.962700	0.333352
O195	O	1.153565	1.296033	0.666686
C196	C	0.526707	0.406815	0.000032
C197	C	0.860040	0.740148	0.333365
C198	C	1.193374	1.073482	0.666699
C199	C	0.571045	0.387694	0.000042
C200	C	0.904378	0.721028	0.333375
C201	C	1.237712	1.054361	0.666709
C202	C	0.659202	0.399864	0.000056
C203	C	0.992535	0.733197	0.333389
C204	C	1.325868	1.066530	0.666722
C205	C	0.659714	0.349452	0.000060
C206	C	0.993047	0.682785	0.333394
C207	C	1.326381	1.016118	0.666727
C208	C	0.615892	0.318161	0.000056
C209	C	0.949225	0.651494	0.333389
C210	C	1.282559	0.984828	0.666722
C211	C	0.571557	0.337282	0.000046
C212	C	0.904891	0.670616	0.333380
C213	C	1.238224	1.003949	0.666713
C214	C	0.482882	0.375521	0.000022
C215	C	0.816215	0.708855	0.333356
C216	C	1.149549	1.042188	0.666689
C217	C	0.483399	0.325104	0.000022
C218	C	0.816732	0.658437	0.333355
C219	C	1.150066	0.991771	0.666689
C220	C	0.527737	0.305983	0.000032
C221	C	0.861070	0.639317	0.333365
C222	C	1.194404	0.972650	0.666698
C223	C	0.528247	0.255580	0.000046
C224	C	0.861581	0.588913	0.333380
C225	C	1.194914	0.922246	0.666713
N226	N	0.572583	0.236456	0.000051
N227	N	0.905916	0.569789	0.333384
N228	N	1.239249	0.903123	0.666718
C229	C	0.616405	0.267747	0.000056
C230	C	0.949738	0.601080	0.333389
C231	C	1.283072	0.934413	0.666722
C232	C	0.523582	0.714348	0.000027
C233	C	0.856915	1.047681	0.333361
C234	C	1.190248	1.381014	0.666694
C235	C	0.523069	0.764762	0.000027
C236	C	0.856402	1.098096	0.333361
C237	C	1.189735	1.431429	0.666694
C238	C	0.611230	0.776930	0.000037
C239	C	0.944563	1.110263	0.333371
C240	C	1.277896	1.443596	0.666704
C241	C	0.611742	0.726514	0.000041
C242	C	0.945075	1.059848	0.333374
C243	C	1.278409	1.393181	0.666708
C244	C	0.567917	0.695224	0.000032
C245	C	0.901250	1.028557	0.333365
C246	C	1.234583	1.361891	0.666699
C247	C	0.617477	0.161878	0.000066
C248	C	0.950811	0.495211	0.333399
C249	C	1.284144	0.828544	0.666733
C250	C	0.617986	0.111461	0.000073
C251	C	0.951319	0.444794	0.333406
C252	C	1.284652	0.778127	0.666739
C253	C	0.529825	0.099298	0.000060
C254	C	0.863158	0.432631	0.333393
C255	C	1.196492	0.765964	0.666727
C256	C	0.529316	0.149710	0.000056
C257	C	0.862650	0.483043	0.333389
C258	C	1.195983	0.816377	0.666723
C259	C	0.573147	0.180999	0.000057
C260	C	0.906480	0.514333	0.333391
C261	C	1.239813	0.847666	0.666724
O262	O	0.491047	0.224296	0.000059
O263	O	0.824380	0.557629	0.333392
O264	O	1.157713	0.890962	0.666725
O265	O	0.654156	0.246844	0.000054
O266	O	0.987490	0.580177	0.333387
O267	O	1.320823	0.913511	0.666720
C268	C	0.614355	0.469397	0.000042
C269	C	0.947688	0.802730	0.333375
C270	C	1.281022	1.136064	0.666709
C271	C	0.570021	0.488518	0.000033
C272	C	0.903354	0.821852	0.333366
C273	C	1.236687	1.155185	0.666699
C274	C	0.526198	0.457228	0.000028
C275	C	0.859532	0.790561	0.333361
C276	C	1.192865	1.123894	0.666695
C277	C	0.569508	0.538933	0.000033
C278	C	0.902841	0.872266	0.333366
C279	C	1.236174	1.205599	0.666699
C280	C	0.613330	0.570223	0.000037
C281	C	0.946663	0.903557	0.333371
C282	C	1.279996	1.236890	0.666704
C283	C	0.657665	0.551100	0.000042
C284	C	0.990998	0.884433	0.333375
C285	C	1.324332	1.217766	0.666709
C286	C	0.658177	0.500688	0.000046
C287	C	0.991511	0.834021	0.333380
C288	C	1.324844	1.167354	0.666713
C289	C	0.481863	0.476351	0.000023
C290	C	0.815197	0.809685	0.333357
C291	C	1.148530	1.143018	0.666690
C292	C	0.481355	0.526764	0.000019
C293	C	0.814688	0.860097	0.333353
C294	C	1.148021	1.193430	0.666686
C295	C	0.525177	0.558054	0.000024
C296	C	0.858510	0.891388	0.333357
C297	C	1.191843	1.224721	0.666691
N298	N	0.570548	-0.061868	-0.120709
N299	N	0.903881	0.271465	0.212624
N300	N	1.237215	0.604798	0.545958
C301	C	0.603640	-0.028781	0.473336
C302	C	0.936974	0.304552	0.806669
C303	C	1.270307	0.637885	1.140002
C304	C	0.603651	-0.028774	0.686994
C305	C	0.936984	0.304559	1.020327
C306	C	1.270318	0.637892	1.353661
O307	O	0.631801	-0.000614	0.714623
O308	O	0.965134	0.332720	1.047956
O309	O	1.298467	0.666053	1.381290
N310	N	0.570538	-0.061871	0.713707
N311	N	0.903872	0.271462	1.047041
N312	N	1.237205	0.604796	1.380374
C313	C	0.537419	-0.094970	0.687003
C314	C	0.870752	0.238364	1.020336
C315	C	1.204085	0.571697	1.353669
O316	O	0.509251	-0.123117	0.714626
O317	O	0.842585	0.210216	1.047960
O318	O	1.175918	0.543550	1.381293
C319	C	0.537406	-0.094974	0.473345
C320	C	0.870739	0.238360	0.806678
C321	C	1.204073	0.571693	1.140012
C322	C	0.570524	-0.061878	0.446635
C323	C	0.903857	0.271455	0.779968
C324	C	1.237191	0.604788	1.113301
C325	C	0.636755	0.004312	0.446625
C326	C	0.970088	0.337645	0.779958
C327	C	1.303422	0.670979	1.113292
C328	C	0.636754	0.004308	0.393214
C329	C	0.970087	0.337642	0.726547
C330	C	1.303421	0.670975	1.059880
C331	C	0.603638	-0.028789	0.366513
C332	C	0.936971	0.304545	0.699846
C333	C	1.270304	0.637878	1.033179
C334	C	0.570523	-0.061882	0.393223
C335	C	0.903856	0.271451	0.726556
C336	C	1.237189	0.604785	1.059890
C337	C	0.504284	-0.128070	0.446641
C338	C	0.837618	0.205264	0.779975
C339	C	1.170951	0.538597	1.113308
C340	C	0.504283	-0.128067	0.393223
C341	C	0.837617	0.205266	0.726557
C342	C	1.170950	0.538600	1.059890
C343	C	0.537401	-0.094971	0.366513
C344	C	0.870735	0.238362	0.699846
C345	C	1.204068	0.571695	1.033180
C346	C	0.537405	-0.094983	0.313111
C347	C	0.870739	0.238351	0.646444
C348	C	1.204072	0.571684	0.979777
N349	N	0.570518	-0.061886	0.286397
N350	N	0.903851	0.271447	0.619731
N351	N	1.237185	0.604781	0.953064
C352	C	0.603634	-0.028789	0.313098
C353	C	0.936967	0.304544	0.646432
C354	C	1.270301	0.637878	0.979765
C355	C	0.537428	-0.094966	0.799176
C356	C	0.870762	0.238368	1.132509
C357	C	1.204095	0.571701	1.465843
C358	C	0.537432	-0.094965	0.852590
C359	C	0.870765	0.238368	1.185923
C360	C	1.204099	0.571701	1.519257
C361	C	0.603664	-0.028769	0.852578
C362	C	0.936997	0.304564	1.185911
C363	C	1.270330	0.637897	1.519245
C364	C	0.603662	-0.028773	0.799163
C365	C	0.936995	0.304561	1.132496
C366	C	1.270329	0.637894	1.465829
C367	C	0.570541	-0.061869	0.772463
C368	C	0.903874	0.271464	1.105796
C369	C	1.237207	0.604798	1.439129
C370	C	0.603629	-0.028800	0.200931
C371	C	0.936963	0.304533	0.534264
C372	C	1.270296	0.637867	0.867597
C373	C	0.603626	-0.028808	0.147514
C374	C	0.936960	0.304525	0.480848
C375	C	1.270293	0.637859	0.814181
C376	C	0.537393	-0.095002	0.147531
C377	C	0.870726	0.238331	0.480865
C378	C	1.204060	0.571665	0.814198
C379	C	0.537397	-0.094996	0.200943
C380	C	0.870731	0.238338	0.534276
C381	C	1.204064	0.571671	0.867609
C382	C	0.570517	-0.061891	0.227641
C383	C	0.903851	0.271443	0.560974
C384	C	1.237184	0.604776	0.894308
O385	O	0.509267	-0.123125	0.285449
O386	O	0.842600	0.210208	0.618782
O387	O	1.175933	0.543542	0.952116
O388	O	0.631790	-0.000639	0.285466
O389	O	0.965123	0.332694	0.618799
O390	O	1.298457	0.666028	0.952132
C391	C	0.603641	-0.028777	0.526747
C392	C	0.936975	0.304556	0.860080
C393	C	1.270308	0.637889	1.193414
C394	C	0.570527	-0.061871	0.553457
C395	C	0.903860	0.271463	0.886791
C396	C	1.237193	0.604796	1.220124
C397	C	0.537410	-0.094968	0.526756
C398	C	0.870744	0.238366	0.860090
C399	C	1.204077	0.571699	1.193423
C400	C	0.570530	-0.061870	0.606872
C401	C	0.903864	0.271463	0.940205
C402	C	1.237197	0.604796	1.273538
C403	C	0.603646	-0.028773	0.633573
C404	C	0.936980	0.304560	0.966906
C405	C	1.270313	0.637893	1.300239
C406	C	0.636759	0.004323	0.606859
C407	C	0.970092	0.337657	0.940193
C408	C	1.303426	0.670990	1.273526
C409	C	0.636758	0.004320	0.553448
C410	C	0.970091	0.337653	0.886781
C411	C	1.303424	0.670986	1.220115
C412	C	0.504298	-0.128064	0.553470
C413	C	0.837631	0.205269	0.886803
C414	C	1.170965	0.538602	1.220136
C415	C	0.504302	-0.128058	0.606881
C416	C	0.837635	0.205275	0.940214
C417	C	1.170969	0.538609	1.273548
C418	C	0.537418	-0.094961	0.633582
C419	C	0.870752	0.238372	0.966915
C420	C	1.204085	0.571706	1.300249
H421	H	-0.180236	0.020747	0.000079
H422	H	0.153097	0.354080	0.333412
H423	H	0.486430	0.687414	0.666745
O424	O	-0.199362	-0.146204	-0.000021
O425	O	0.133971	0.187129	0.333313
O426	O	0.467305	0.520463	0.666646
C427	C	-0.215372	-0.172881	-0.043981
C428	C	0.117962	0.160452	0.289352
C429	C	0.451295	0.493786	0.622686
H430	H	-0.250241	-0.159967	-0.058633
H431	H	0.083092	0.173366	0.274700
H432	H	0.416425	0.506700	0.608034
H433	H	-0.222671	-0.213189	-0.034103
H434	H	0.110663	0.120144	0.299230
H435	H	0.443996	0.453477	0.632563
H436	H	-0.186150	-0.167059	-0.074753
H437	H	0.147183	0.166275	0.258580
H438	H	0.480517	0.499608	0.591914
H439	H	0.343360	0.015426	0.000050
H440	H	0.676693	0.348759	0.333383
H441	H	1.010027	0.682093	0.666717
H442	H	0.321291	-0.144530	0.000036
H443	H	0.654624	0.188804	0.333369
H444	H	0.987957	0.522137	0.666703
O445	O	0.472062	-0.160153	0.367265
O446	O	0.805396	0.173180	0.700598
O447	O	1.138729	0.506513	1.033932
C448	C	0.442444	-0.134473	0.336359
C449	C	0.775777	0.198860	0.669693
C450	C	1.109110	0.532193	1.003026
H451	H	0.441917	-0.096354	0.352452
H452	H	0.775250	0.236979	0.685785
H453	H	1.108583	0.570312	1.019118
H454	H	0.403875	-0.154459	0.335761
H455	H	0.737209	0.178874	0.669094
H456	H	1.070542	0.512207	1.002427
H457	H	0.457587	-0.131841	0.295875
H458	H	0.790921	0.201492	0.629209
H459	H	1.124254	0.534825	0.962542
H460	H	0.486964	0.780325	0.000028
H461	H	0.820297	1.113659	0.333362
H462	H	1.153631	1.446992	0.666695
H463	H	0.023514	-0.185643	0.000042
H464	H	0.356847	0.147690	0.333376
H465	H	0.690181	0.481023	0.666709
O466	O	0.505302	-0.127188	0.773268
O467	O	0.838635	0.206145	1.106601
O468	O	1.171969	0.539478	1.439934
C469	C	0.512799	-0.174983	0.786336
C470	C	0.846132	0.158351	1.119669
C471	C	1.179465	0.491684	1.453003
H472	H	0.551500	-0.174946	0.801009
H473	H	0.884833	0.158387	1.134342
H474	H	1.218167	0.491720	1.467675
H475	H	0.507051	-0.199288	0.751215
H476	H	0.840384	0.134045	1.084548
H477	H	1.173717	0.467378	1.417881
H478	H	0.485908	-0.189361	0.817351
H479	H	0.819241	0.143972	1.150684
H480	H	1.152575	0.477305	1.484017
O481	O	0.487302	0.068828	0.000032
O482	O	0.820636	0.402162	0.333366
O483	O	1.153969	0.735495	0.666699
C484	C	0.497268	0.020233	0.000048
C485	C	0.830601	0.353566	0.333382
C486	C	1.163934	0.686900	0.666715
H487	H	0.535226	0.018582	-0.016008
H488	H	0.868559	0.351916	0.317326
H489	H	1.201892	0.685249	0.650659
H490	H	0.469321	-0.002817	-0.024594
H491	H	0.802654	0.330517	0.308739
H492	H	1.135987	0.663850	0.642073
H493	H	0.495315	0.005638	0.040759
H494	H	0.828648	0.338971	0.374092
H495	H	1.161982	0.672304	0.707426
H496	H	0.412743	-0.145454	0.000021
H497	H	0.746076	0.187879	0.333355
H498	H	1.079410	0.521213	0.666688
O499	O	0.438238	0.545254	-0.000012
O500	O	0.771572	0.878587	0.333321
O501	O	1.104905	1.211920	0.666655
C502	C	0.399673	0.506819	-0.000004
C503	C	0.733007	0.840152	0.333330
C504	C	1.066340	1.173486	0.666663
H505	H	0.412970	0.472666	-0.016060
H506	H	0.746303	0.805999	0.317273
H507	H	1.079637	1.139333	0.650607
H508	H	0.368701	0.517123	-0.024650
H509	H	0.702034	0.850456	0.308684
H510	H	1.035368	1.183789	0.642017
H511	H	0.386164	0.499589	0.040705
H512	H	0.719497	0.832923	0.374038
H513	H	1.052830	1.166256	0.707371
H514	H	0.630629	-0.001823	0.777418
H515	H	0.963962	0.331510	1.110752
H516	H	1.297296	0.664844	1.444085
O517	O	0.635823	0.003291	0.226915
O518	O	0.969156	0.336624	0.560249
O519	O	1.302489	0.669958	0.893582
C520	C	0.665460	-0.022387	0.257800
C521	C	0.998794	0.310946	0.591134
C522	C	1.332127	0.644279	0.924467
H523	H	0.645924	-0.060344	0.265815
H524	H	0.979257	0.272990	0.599148
H525	H	1.312591	0.606323	0.932481
H526	H	0.673267	-0.002150	0.295355
H527	H	1.006601	0.331183	0.628688
H528	H	1.339934	0.664516	0.962022
H529	H	0.701155	-0.025432	0.237206
H530	H	1.034488	0.307901	0.570539
H531	H	1.367822	0.641235	0.903873
H532	H	0.510469	-0.121920	0.874334
H533	H	0.843803	0.211413	1.207667
H534	H	1.177136	0.544747	1.541001
H535	H	-0.271687	0.021674	0.000070
H536	H	0.061646	0.355008	0.333404
H537	H	0.394980	0.688341	0.666737
O538	O	0.114632	0.068870	0.000119
O539	O	0.447965	0.402203	0.333452
O540	O	0.781299	0.735537	0.666785
C541	C	0.153070	0.107432	0.000116
C542	C	0.486403	0.440765	0.333449
C543	C	0.819736	0.774099	0.666783
H544	H	0.187219	0.094131	0.016173
H545	H	0.520552	0.427464	0.349506
H546	H	0.853886	0.760798	0.682840
H547	H	0.142766	0.138404	0.024765
H548	H	0.476099	0.471738	0.358098
H549	H	0.809433	0.805071	0.691431
H550	H	0.160305	0.120942	-0.040591
H551	H	0.493639	0.454276	0.292743
H552	H	0.826972	0.787609	0.626076
H553	H	0.630597	-0.001858	0.125768
H554	H	0.963930	0.331476	0.459102
H555	H	1.297263	0.664809	0.792435
O556	O	-0.072911	-0.191564	-0.000019
O557	O	0.260423	0.141769	0.333314
O558	O	0.593756	0.475102	0.666647
C559	C	-0.102428	-0.193902	-0.043973
C560	C	0.230906	0.139431	0.289361
C561	C	0.564239	0.472764	0.622694
H562	H	-0.104690	-0.155551	-0.058620
H563	H	0.228643	0.177782	0.274713
H564	H	0.561976	0.511115	0.608046
H565	H	-0.140457	-0.212192	-0.034088
H566	H	0.192876	0.121141	0.299246
H567	H	0.526210	0.454474	0.632579
H568	H	-0.086005	-0.215853	-0.074751
H569	H	0.247328	0.117480	0.258583
H570	H	0.580662	0.450814	0.591916
H571	H	0.209009	0.060929	0.000091
H572	H	0.542343	0.394262	0.333424
H573	H	0.875676	0.727595	0.666757
O574	O	0.661028	0.092830	0.000012
O575	O	0.994361	0.426164	0.333345
O576	O	1.327694	0.759497	0.666678
C577	C	0.663976	0.064040	-0.043941
C578	C	0.997309	0.397374	0.289392
C579	C	1.330642	0.730707	0.622726
H580	H	0.625784	0.051201	-0.058596
H581	H	0.959117	0.384534	0.274737
H582	H	1.292450	0.717868	0.608071
H583	H	0.682993	0.031166	-0.034052
H584	H	1.016327	0.364500	0.299281
H585	H	1.349660	0.697833	0.632615
H586	H	0.685534	0.086472	-0.074715
H587	H	1.018867	0.419806	0.258618
H588	H	1.352200	0.753139	0.591952
H589	H	0.510434	-0.121950	0.222691
H590	H	0.843768	0.211384	0.556024
H591	H	1.177101	0.544717	0.889357
H592	H	0.663720	0.031259	0.371469
H593	H	0.997053	0.364592	0.704802
H594	H	1.330387	0.697925	1.038136
O595	O	-0.298643	-0.145192	0.000122
O596	O	0.034690	0.188141	0.333455
O597	O	0.368023	0.521475	0.666789
C598	C	-0.290041	-0.172130	0.044077
C599	C	0.043293	0.161203	0.377410
C600	C	0.376626	0.494536	0.710743
H601	H	-0.251705	-0.159975	0.058728
H602	H	0.081628	0.173358	0.392061
H603	H	0.414961	0.506691	0.725394
H604	H	-0.293889	-0.212473	0.034192
H605	H	0.039444	0.120860	0.367525
H606	H	0.372777	0.454194	0.700859
H607	H	-0.317570	-0.165726	0.074852
H608	H	0.015763	0.167607	0.408185
H609	H	0.349096	0.500941	0.741519
H610	H	0.663725	0.031271	0.628608
H611	H	0.997059	0.364604	0.961941
H612	H	1.330392	0.697937	1.295275
H613	H	0.646911	0.802415	0.000041
H614	H	0.980245	1.135749	0.333375
H615	H	1.313578	1.469082	0.666708
H616	H	0.434827	0.014492	0.000048
H617	H	0.768160	0.347826	0.333382
H618	H	1.101494	0.681159	0.666715
H619	H	-0.033688	0.063392	0.000086
H620	H	0.299645	0.396725	0.333420
H621	H	0.632979	0.730059	0.666753
H622	H	0.663722	0.031266	0.468360
H623	H	0.997056	0.364599	0.801694
H624	H	1.330389	0.697932	1.135027
H625	H	0.493213	0.165279	0.000062
H626	H	0.826546	0.498612	0.333396
H627	H	1.159879	0.831945	0.666729
H628	H	0.057760	0.062462	0.000085
H629	H	0.391093	0.395795	0.333418
H630	H	0.724427	0.729128	0.666751
H631	H	0.653168	0.187348	0.000065
H632	H	0.986501	0.520681	0.333398
H633	H	1.319835	0.854015	0.666731
O634	O	0.701290	0.482198	0.000030
O635	O	1.034624	0.815531	0.333363
O636	O	1.367957	1.148865	0.666696
C637	C	0.739853	0.520634	0.000045
C638	C	1.073187	0.853968	0.333379
C639	C	1.406520	1.187301	0.666712
H640	H	0.726561	0.554784	-0.016022
H641	H	1.059895	0.888118	0.317311
H642	H	1.393228	1.221451	0.650645
H643	H	0.770837	0.510330	-0.024588
H644	H	1.104170	0.843663	0.308746
H645	H	1.437503	1.176996	0.642079
H646	H	0.753345	0.527870	0.040757
H647	H	1.086679	0.861203	0.374091
H648	H	1.420012	1.194536	0.707424
O649	O	0.480962	0.684024	0.000046
O650	O	0.814296	1.017358	0.333379
O651	O	1.147629	1.350691	0.666713
C652	C	0.441727	0.711721	0.000031
C653	C	0.775060	1.045054	0.333364
C654	C	1.108393	1.378387	0.666698
H655	H	0.454289	0.749441	0.016096
H656	H	0.787622	1.082774	0.349429
H657	H	1.120955	1.416107	0.682762
H658	H	0.411041	0.692904	0.024667
H659	H	0.744374	1.026237	0.358000
H660	H	1.077707	1.359571	0.691334
H661	H	0.428123	0.715213	-0.040680
H662	H	0.761456	1.048546	0.292653
H663	H	1.094790	1.381879	0.625986
O664	O	0.439824	0.394112	0.000098
O665	O	0.773158	0.727445	0.333431
O666	O	1.106491	1.060779	0.666764
C667	C	0.436874	0.422921	0.044035
C668	C	0.770207	0.756255	0.377368
C669	C	1.103541	1.089588	0.710702
H670	H	0.462033	0.411188	0.074763
H671	H	0.795367	0.744522	0.408097
H672	H	1.128700	1.077855	0.741430
H673	H	0.397877	0.418106	0.058774
H674	H	0.731210	0.751439	0.392107
H675	H	1.064543	1.084773	0.725440
H676	H	0.448325	0.462765	0.034098
H677	H	0.781658	0.796098	0.367431
H678	H	1.114992	1.129431	0.700765
H679	H	0.695819	0.333889	0.000066
H680	H	1.029152	0.667222	0.333400
H681	H	1.362485	1.000555	0.666733
H682	H	0.694889	0.425336	0.000058
H683	H	1.028223	0.758670	0.333391
H684	H	1.361556	1.092003	0.666724
O685	O	0.654824	0.707965	-0.000045
O686	O	0.988157	1.041299	0.333288
O687	O	1.321490	1.374632	0.666622
C688	C	0.681525	0.724002	-0.043984
C689	C	1.014858	1.057335	0.289349
C690	C	1.348191	1.390668	0.622683
H691	H	0.655595	0.734299	-0.074703
H692	H	0.988929	1.067633	0.258630
H693	H	1.322262	1.400966	0.591963
H694	H	0.701862	0.693611	-0.058736
H695	H	1.035195	1.026944	0.274597
H696	H	1.368529	1.360278	0.607931
H697	H	0.708707	0.757061	-0.034043
H698	H	1.042041	1.090395	0.299290
H699	H	1.375374	1.423728	0.632624
O700	O	0.440781	0.294778	0.000036
O701	O	0.774114	0.628111	0.333369
O702	O	1.107448	0.961445	0.666703
C703	C	0.401542	0.322470	0.000013
C704	C	0.734875	0.655804	0.333347
C705	C	1.068209	0.989137	0.666680
H706	H	0.414098	0.360191	0.016079
H707	H	0.747431	0.693525	0.349412
H708	H	1.080765	1.026858	0.682746
H709	H	0.370854	0.303651	0.024644
H710	H	0.704187	0.636984	0.357977
H711	H	1.037521	0.970318	0.691311
H712	H	0.387945	0.325961	-0.040701
H713	H	0.721278	0.659294	0.292633
H714	H	1.054611	0.992627	0.625966
H715	H	0.477334	-0.155013	0.628625
H716	H	0.810668	0.178321	0.961958
H717	H	1.144001	0.511654	1.295292
H718	H	0.477317	-0.155019	0.468381
H719	H	0.810650	0.178315	0.801715
H720	H	1.143983	0.511648	1.135048
H721	H	0.630629	-0.001821	0.874327
H722	H	0.963962	0.331512	1.207660
H723	H	1.297296	0.664845	1.540994
O724	O	0.700222	0.581520	-0.000045
O725	O	1.033555	0.914853	0.333288
O726	O	1.366888	1.248187	0.666621
C727	C	0.702557	0.611050	-0.043990
C728	C	1.035891	0.944384	0.289343
C729	C	1.369224	1.277717	0.622676
H730	H	0.677703	0.592398	-0.074708
H731	H	1.011037	0.925732	0.258625
H732	H	1.344370	1.259065	0.591959
H733	H	0.741539	0.617010	-0.058741
H734	H	1.074872	0.950343	0.274593
H735	H	1.408205	1.283676	0.607926
H736	H	0.690319	0.647622	-0.034058
H737	H	1.023652	0.980955	0.299275
H738	H	1.356985	1.314288	0.632608
H739	H	0.510432	-0.121951	0.125783
H740	H	0.843765	0.211383	0.459116
H741	H	1.177098	0.544716	0.792450
H742	H	0.663725	0.031269	0.531704
H743	H	0.997059	0.364602	0.865038
H744	H	1.330392	0.697936	1.198371
H745	H	0.477330	-0.155015	0.531734
H746	H	0.810663	0.178318	0.865067
H747	H	1.143997	0.511651	1.198400
H748	H	0.174750	-0.187180	0.000030
H749	H	0.508083	0.146153	0.333363
H750	H	0.841417	0.479487	0.666696
O751	O	0.078404	-0.193149	-0.000056
O752	O	0.411737	0.140184	0.333277
O753	O	0.745070	0.473518	0.666610
C754	C	0.087043	-0.220082	-0.044005
C755	C	0.420376	0.113251	0.289329
C756	C	0.753710	0.446585	0.622662
H757	H	0.104462	-0.194421	-0.074715
H758	H	0.437795	0.138913	0.258619
H759	H	0.771128	0.472246	0.591952
H760	H	0.051134	-0.239744	-0.058765
H761	H	0.384468	0.093589	0.274569
H762	H	0.717801	0.426923	0.607902
H763	H	0.112518	-0.247860	-0.034074
H764	H	0.445852	0.085474	0.299260
H765	H	0.779185	0.418807	0.632593
O766	O	0.439304	0.445940	-0.000070
O767	O	0.772638	0.779274	0.333264
O768	O	1.105971	1.112607	0.666597
C769	C	0.436967	0.416401	-0.044009
C770	C	0.770301	0.749735	0.289325
C771	C	1.103634	1.083068	0.622658
H772	H	0.461833	0.435040	-0.074727
H773	H	0.795166	0.768373	0.258607
H774	H	1.128500	1.101706	0.591940
H775	H	0.397988	0.410453	-0.058763
H776	H	0.731322	0.743787	0.274571
H777	H	1.064655	1.077120	0.607904
H778	H	0.449190	0.379826	-0.034067
H779	H	0.782523	0.713159	0.299266
H780	H	1.115856	1.046492	0.632600
