data_functionalizedCrystal
_audit_creation_method	'MofGen! by Chris Wilmer'
_symmetry_space_group_name_H-M	'P1'
_symmetry_Int_Tables_number	1
_symmetry_cell_setting	triclinic
loop_
_symmetry_equiv_pos_as_xyz
  x,y,z
_cell_length_a	16.959455
_cell_length_b	18.101396
_cell_length_c	16.959447
_cell_angle_alpha	90.028837
_cell_angle_beta	89.979626
_cell_angle_gamma	89.965957
loop_
_atom_site_label
_atom_site_type_symbol
_atom_site_fract_x
_atom_site_fract_y
_atom_site_fract_z
Zn1	Zn	1.208291	0.294874	-0.447044
Zn2	Zn	1.208174	0.418727	-0.314869
Zn3	Zn	1.076119	0.294897	-0.314868
Zn4	Zn	1.076045	0.418672	-0.446994
O5	O	1.142157	0.356792	-0.380944
O6	O	1.318886	0.311317	-0.429533
O7	O	1.190639	0.402333	-0.204258
O8	O	1.093732	0.191261	-0.332422
O9	O	1.318800	0.402311	-0.332424
O10	O	1.190838	0.191244	-0.429532
O11	O	1.093619	0.311356	-0.204257
O12	O	0.965498	0.311303	-0.332373
O13	O	1.093605	0.402217	-0.557612
O14	O	0.965444	0.402239	-0.429445
O15	O	1.190766	0.311263	-0.557649
O16	O	1.190567	0.522352	-0.332375
O17	O	1.093492	0.522312	-0.429447
C18	C	0.936791	0.356768	-0.380904
C19	C	0.848934	0.356776	-0.380906
C20	C	0.477403	0.404126	-0.330354
C21	C	0.477514	0.309520	-0.431630
C22	C	0.560060	0.309508	-0.431611
C23	C	0.601281	0.356806	-0.380963
C24	C	0.559957	0.404117	-0.330335
C25	C	0.601390	0.262203	-0.482244
C26	C	0.683941	0.262190	-0.482228
C27	C	0.725164	0.309485	-0.431575
C28	C	0.683835	0.356797	-0.380944
C29	C	0.725056	0.404096	-0.330296
C30	C	0.683728	0.451404	-0.279660
C31	C	0.601180	0.451412	-0.279682
C32	C	0.807713	0.309477	-0.431554
C33	C	0.807610	0.404086	-0.330277
C34	C	1.142030	0.549203	-0.380923
C35	C	1.142048	0.631517	-0.380940
C36	C	1.142189	0.930608	-0.380986
C37	C	1.081257	0.899288	-0.442212
C38	C	1.080977	0.813670	-0.442020
C39	C	1.142119	0.782225	-0.380964
C40	C	1.119569	0.813379	-0.297658
C41	C	1.119167	0.899024	-0.298025
C42	C	1.225808	0.898955	-0.402333
C43	C	1.225325	0.813304	-0.404159
C44	C	1.142081	0.698366	-0.380947
C45	C	1.142225	1.014467	-0.380999
C46	C	1.348325	0.356817	-0.380984
C47	C	1.436182	0.356828	-0.381002
C48	C	1.142190	0.356731	-0.587112
C49	C	1.142204	0.356705	-0.674969
C50	C	1.142278	1.163630	-0.380985
C51	C	1.142259	1.081316	-0.381010
C52	C	1.091712	0.403982	-1.046428
C53	C	1.192886	0.309272	-1.046462
C54	C	1.192865	0.309287	-0.963916
C55	C	1.142267	0.356652	-0.922622
C56	C	1.091691	0.404001	-0.963874
C57	C	1.243446	0.261944	-0.922657
C58	C	1.243427	0.261959	-0.840106
C59	C	1.192825	0.309320	-0.798811
C60	C	1.142246	0.356671	-0.840068
C61	C	1.091649	0.404035	-0.798775
C62	C	1.041065	0.451383	-0.840031
C63	C	1.041088	0.451363	-0.922579
C64	C	1.192802	0.309340	-0.716263
C65	C	1.091628	0.404054	-0.716221
C66	C	1.142170	0.356800	-0.175578
C67	C	1.142309	0.356618	-0.087722
H68	H	1.095085	0.792605	-0.503791
H69	H	1.242330	0.792939	-0.465468
H70	H	1.095220	0.919834	-0.504184
H71	H	0.999908	0.489912	-0.956177
H72	H	1.058042	0.919064	-0.279943
C73	C	0.997253	0.786071	-0.422911
C74	C	0.958020	0.807226	-0.344166
C75	C	0.874293	0.779629	-0.325054
C76	C	0.829799	0.730877	-0.384686
C77	C	0.869032	0.709720	-0.463436
C78	C	0.952760	0.737317	-0.482548
H79	H	0.990957	0.843317	-0.300018
H80	H	0.845250	0.795291	-0.266758
H81	H	0.767819	0.710448	-0.370538
H82	H	0.836095	0.673628	-0.507584
H83	H	0.981803	0.721654	-0.540844
H84	H	1.161622	0.919745	-0.250851
H85	H	1.233988	0.270793	-0.682676
H86	H	1.059096	0.791992	-0.279251
H87	H	0.999872	0.489950	-0.806399
H88	H	0.841167	0.442601	-0.289030
C89	C	0.431947	0.456165	-0.274658
C90	C	0.375179	0.424010	-0.212671
C91	C	0.329722	0.476049	-0.156976
C92	C	0.341033	0.560244	-0.163267
C93	C	0.397803	0.592404	-0.225256
C94	C	0.443261	0.540364	-0.280951
H95	H	0.366804	0.361680	-0.208012
H96	H	0.287697	0.452242	-0.111087
H97	H	0.307383	0.598766	-0.122037
H98	H	0.406179	0.654734	-0.229915
H99	H	0.485286	0.564172	-0.326840
C100	C	1.289899	0.784443	-0.348263
C101	C	1.268109	0.731912	-0.280277
C102	C	1.332676	0.703079	-0.224351
C103	C	1.419032	0.726776	-0.236412
C104	C	1.440826	0.779310	-0.304401
C105	C	1.376259	0.808144	-0.360326
H106	H	1.204179	0.714367	-0.271347
H107	H	1.316542	0.664189	-0.174021
H108	H	1.466828	0.705432	-0.195012
H109	H	1.504755	0.796856	-0.313331
H110	H	1.392393	0.847033	-0.410656
H111	H	1.284645	0.223387	-0.956285
H112	H	0.717302	0.489919	-0.238427
C113	C	1.177636	0.785864	-0.234343
C114	C	1.147337	0.739896	-0.164230
C115	C	1.205405	0.712379	-0.100917
C116	C	1.293773	0.730830	-0.107717
C117	C	1.324078	0.776800	-0.177833
C118	C	1.266009	0.804317	-0.241146
H119	H	1.081917	0.726236	-0.159194
H120	H	1.182971	0.678350	-0.049013
H121	H	1.336759	0.710460	-0.060849
H122	H	1.389497	0.790460	-0.182870
H123	H	1.288443	0.838346	-0.293051
H124	H	1.234084	0.270713	-1.080088
H125	H	1.246362	0.920502	-0.462046
C126	C	0.998032	0.928441	-0.423350
C127	C	0.931060	0.873888	-0.404261
C128	C	0.847838	0.903043	-0.385394
C129	C	0.831587	0.986751	-0.385615
C130	C	0.898561	1.041309	-0.404705
C131	C	0.981784	1.012154	-0.423572
H132	H	0.943088	0.811918	-0.404097
H133	H	0.798259	0.862655	-0.371263
H134	H	0.769981	1.008333	-0.371649
H135	H	0.886533	1.103279	-0.404869
H136	H	1.031363	1.052542	-0.437703
C137	C	1.035968	0.456157	-0.670801
C138	C	0.946118	0.450099	-0.682142
C139	C	0.890459	0.502202	-0.636722
C140	C	0.924649	0.560363	-0.579962
C141	C	1.014503	0.566425	-0.568619
C142	C	1.070163	0.514322	-0.614038
H143	H	0.920804	0.407041	-0.724162
H144	H	0.823942	0.497714	-0.645120
H145	H	0.883446	0.598933	-0.546340
H146	H	1.039817	0.609482	-0.526599
H147	H	1.136679	0.518809	-0.605641
C148	C	1.287141	0.926316	-0.342097
C149	C	1.277534	0.907415	-0.254097
C150	C	1.338860	0.934779	-0.193859
C151	C	1.409793	0.981044	-0.221621
C152	C	1.419403	0.999947	-0.309626
C153	C	1.358077	0.972583	-0.369864
H154	H	1.225023	0.873164	-0.233541
H155	H	1.331746	0.920785	-0.128712
H156	H	1.455190	1.001301	-0.177030
H157	H	1.471914	1.034198	-0.330182
H158	H	1.365191	0.986577	-0.435012
H159	H	1.050525	0.442529	-1.080022
C160	C	0.729402	0.210153	-0.537922
C161	C	0.786163	0.151966	-0.503767
C162	C	0.831626	0.099929	-0.559461
C163	C	0.820330	0.106081	-0.649310
C164	C	0.763566	0.164271	-0.683470
C165	C	0.718103	0.216307	-0.627776
H166	H	0.794528	0.147410	-0.437251
H167	H	0.873646	0.056853	-0.534173
H168	H	0.853985	0.067560	-0.690537
H169	H	0.755201	0.168826	-0.749985
H170	H	0.676083	0.259383	-0.653064
C171	C	0.555717	0.503453	-0.223994
C172	C	0.498937	0.471301	-0.162016
C173	C	0.453470	0.523344	-0.106332
C174	C	0.464782	0.607538	-0.112626
C175	C	0.521564	0.639695	-0.174607
C176	C	0.567031	0.587652	-0.230291
H177	H	0.490561	0.408971	-0.157355
H178	H	0.411436	0.499539	-0.060450
H179	H	0.431124	0.646063	-0.071406
H180	H	0.529940	0.702024	-0.179268
H181	H	0.609065	0.611457	-0.276173
C182	C	0.432168	0.257491	-0.487333
C183	C	0.375432	0.289652	-0.549341
C184	C	0.330080	0.237617	-0.605041
C185	C	0.341464	0.153420	-0.598732
C186	C	0.398203	0.121254	-0.536721
C187	C	0.443555	0.173289	-0.481021
H188	H	0.367002	0.351984	-0.554014
H189	H	0.288078	0.261429	-0.650946
H190	H	0.307892	0.114900	-0.639964
H191	H	0.406633	0.058922	-0.532048
H192	H	0.485557	0.149477	-0.435116
C193	C	0.556039	0.210171	-0.537939
C194	C	0.499289	0.242328	-0.599938
C195	C	0.453929	0.190289	-0.655627
C196	C	0.465318	0.106093	-0.649317
C197	C	0.522071	0.073931	-0.587315
C198	C	0.567431	0.125970	-0.531627
H199	H	0.490855	0.304660	-0.604612
H200	H	0.411917	0.214098	-0.701525
H201	H	0.431740	0.067570	-0.690541
H202	H	0.530504	0.011600	-0.582642
H203	H	0.609443	0.102162	-0.485729
C204	C	0.853176	0.257444	-0.487245
C205	C	0.841882	0.263596	-0.577094
C206	C	0.887347	0.211559	-0.632786
C207	C	0.944105	0.153371	-0.598630
C208	C	0.955402	0.147217	-0.508776
C209	C	0.909938	0.199254	-0.453083
H210	H	0.799864	0.306673	-0.602383
H211	H	0.878984	0.216115	-0.699302
H212	H	0.977761	0.114850	-0.639857
H213	H	0.997421	0.104140	-0.483487
H214	H	0.918301	0.194698	-0.386567
H215	H	1.284615	0.223405	-0.806523
