data_functionalizedCrystal
_audit_creation_method	'MofGen! by Chris Wilmer'
_symmetry_space_group_name_H-M	'P1'
_symmetry_Int_Tables_number	1
_symmetry_cell_setting	triclinic
loop_
_symmetry_equiv_pos_as_xyz
  x,y,z
_cell_length_a	6.394989
_cell_length_b	17.699083
_cell_length_c	16.176319
_cell_angle_alpha	90.001389
_cell_angle_beta	90.003737
_cell_angle_gamma	84.890363
loop_
_atom_site_label
_atom_site_type_symbol
_atom_site_fract_x
_atom_site_fract_y
_atom_site_fract_z
O1	O	-0.264132	-1.006774	-0.068625
O2	O	-0.298496	-0.786747	-0.068651
O3	O	0.022766	-0.899883	-0.068638
O4	O	-0.585394	-0.893637	-0.068638
O5	O	0.022787	-0.899867	0.068855
O6	O	-0.298475	-0.786730	0.068842
O7	O	-0.264111	-1.006758	0.068868
Cu8	Cu	-0.281291	-0.896743	0.081409
Cu9	Cu	-0.281315	-0.896762	-0.081193
O10	O	-0.585373	-0.893621	0.068855
C11	C	-0.297254	-0.758529	0.000092
C12	C	-0.293560	-0.674473	0.000081
C13	C	-0.265353	-1.034976	0.000123
C14	C	-0.269047	-1.119031	0.000128
N15	N	-0.281273	-0.896735	0.195774
C16	C	0.100592	-0.898640	0.000105
C17	C	0.336808	-0.894866	0.000104
N18	N	-0.281317	-0.896776	-0.195558
C19	C	-0.482134	-0.627777	0.000082
C20	C	-0.478651	-0.548798	0.000092
C21	C	-0.286591	-0.516517	0.000097
C22	C	-0.098003	-0.563220	0.000099
C23	C	-0.101488	-0.642197	0.000094
C24	C	-0.083942	-0.244713	0.000119
C25	C	-0.080470	-0.165730	0.000122
C26	C	-0.461104	-0.151314	0.000118
C27	C	-0.464590	-0.230291	0.000113
C28	C	-0.276002	-0.276987	0.000119
C29	C	-0.279782	-0.362625	0.000109
C30	C	-0.282810	-0.430881	0.000101
C31	C	-0.139076	-0.946848	0.239044
C32	C	-0.139074	-0.946852	0.325591
C33	C	-0.281280	-0.896746	0.368867
C34	C	-0.423484	-0.846627	0.325591
C35	C	-0.423474	-0.846620	0.239045
C36	C	-0.423523	-0.846653	0.674619
C37	C	-0.423526	-0.846666	0.761171
C38	C	-0.139123	-0.946885	0.761165
C39	C	-0.139113	-0.946878	0.674620
C40	C	-0.281308	-0.896757	0.631351
C41	C	-0.281306	-0.896753	0.537507
C42	C	-0.281294	-0.896753	0.462710
H43	H	-0.632207	-0.510780	0.000092
N44	N	0.014293	-1.000896	0.192371
H45	H	0.104376	-1.032642	0.232919
H46	H	0.106536	-0.971042	0.156470
N47	N	-0.671742	-0.265105	0.000117
H48	H	-0.645334	-0.322223	0.000114
H49	H	-0.754260	-0.248152	-0.050851
N50	N	-0.664518	-0.100949	0.000113
H51	H	-0.633179	-0.046018	0.000120
H52	H	-0.748239	-0.111609	0.051080
N53	N	0.014286	-1.000920	0.627953
H54	H	0.106665	-0.971113	0.592055
H55	H	-0.065546	-1.035177	0.592083
N56	N	-0.576900	-0.792609	0.627950
H57	H	-0.497198	-0.758336	0.592051
H58	H	-0.666964	-0.760921	0.668546
H59	H	-0.023285	-0.987657	0.360821
N60	N	0.126683	-0.130906	0.000141
H61	H	0.136618	-0.098459	-0.050826
H62	H	0.245509	-0.172512	0.000180
H63	H	0.069618	-0.282724	0.000125
H64	H	-0.539264	-0.805826	0.360831
H65	H	-0.023333	-0.987694	0.796404
H66	H	0.052069	-0.680217	0.000093
H67	H	0.058376	-0.536930	0.000114
N68	N	-0.576899	-0.792616	0.807850
H69	H	-0.666972	-0.760860	0.767308
H70	H	-0.497028	-0.758409	0.843766
N71	N	-0.576832	-0.792566	0.192371
H72	H	-0.666923	-0.760825	0.232917
H73	H	-0.669070	-0.822411	0.156452
H74	H	-0.638531	-0.654053	0.000078
