data_functionalizedCrystal
_audit_creation_method	'MofGen! by Chris Wilmer'
_symmetry_space_group_name_H-M	'P1'
_symmetry_Int_Tables_number	1
_symmetry_cell_setting	triclinic
loop_
_symmetry_equiv_pos_as_xyz
  x,y,z
_cell_length_a	14.853567
_cell_length_b	10.723024
_cell_length_c	9.198806
_cell_angle_alpha	89.998000
_cell_angle_beta	89.999292
_cell_angle_gamma	84.051400
loop_
_atom_site_label
_atom_site_type_symbol
_atom_site_fract_x
_atom_site_fract_y
_atom_site_fract_z
O1	O	-1.197224	-0.162914	0.120788
O2	O	-0.697224	0.337086	0.620788
O3	O	-0.934867	-0.182321	0.120813
O4	O	-0.434867	0.317679	0.620813
O5	O	-1.072097	0.009020	0.120795
O6	O	-0.572097	0.509020	0.620795
O7	O	-1.059994	-0.354255	0.120807
O8	O	-0.559994	0.145745	0.620807
O9	O	-1.072087	0.009021	-0.120990
O10	O	-0.572087	0.509021	0.379010
O11	O	-0.934857	-0.182320	-0.120972
O12	O	-0.434857	0.317680	0.379028
O13	O	-1.197214	-0.162913	-0.120997
O14	O	-0.697214	0.337087	0.379003
Cu15	Cu	-1.066034	-0.172617	-0.143061
Cu16	Cu	-0.566034	0.327383	0.356939
Cu17	Cu	-1.066046	-0.172617	0.142877
Cu18	Cu	-0.566046	0.327383	0.642877
O19	O	-1.059984	-0.354254	-0.120979
O20	O	-0.559984	0.145746	0.379021
C21	C	-1.071211	0.055511	-0.000096
C22	C	-0.571211	0.555511	0.499904
C23	C	-1.068576	0.194039	-0.000091
C24	C	-0.568576	0.694039	0.499909
C25	C	-0.901269	-0.181441	-0.000077
C26	C	-0.401269	0.318559	0.499923
C27	C	-0.801171	-0.178806	-0.000067
C28	C	-0.301171	0.321194	0.499933
C29	C	-1.230812	-0.163793	-0.000104
C30	C	-0.730812	0.336207	0.499896
C31	C	-1.330910	-0.166428	-0.000104
C32	C	-0.830910	0.333572	0.499896
C33	C	-0.387978	-0.054006	-0.000104
C34	C	0.112022	0.445994	0.499896
C35	C	-0.367897	-0.281324	-0.000095
C36	C	0.132103	0.218676	0.499905
C37	C	-0.461944	-0.283802	-0.000090
C38	C	0.038056	0.216198	0.499910
C39	C	-0.519013	-0.171380	-0.000090
C40	C	-0.019013	0.328620	0.499910
C41	C	-0.482034	-0.056481	-0.000095
C42	C	0.017966	0.443519	0.499905
C43	C	-0.498930	-0.398699	-0.000071
C44	C	0.001070	0.101301	0.499929
C45	C	-0.592982	-0.401181	-0.000064
C46	C	-0.092982	0.098819	0.499936
C47	C	-0.650052	-0.288758	-0.000075
C48	C	-0.150052	0.211242	0.499925
C49	C	-0.613068	-0.173854	-0.000081
C50	C	-0.113068	0.326146	0.499919
C51	C	-0.670137	-0.061433	-0.000081
C52	C	-0.170137	0.438567	0.499919
C53	C	-0.633155	0.053473	-0.000098
C54	C	-0.133155	0.553473	0.499902
C55	C	-0.539104	0.055942	-0.000105
C56	C	-0.039104	0.555942	0.499895
C57	C	-0.744103	-0.291228	-0.000067
C58	C	-0.244103	0.208772	0.499933
C59	C	-0.764192	-0.063907	-0.000072
C60	C	-0.264192	0.436093	0.499928
C61	C	-1.060870	-0.400745	-0.000085
C62	C	-0.560870	0.099255	0.499915
C63	C	-1.063505	-0.539273	-0.000080
C64	C	-0.563505	-0.039273	0.499920
N65	N	-1.066032	-0.172616	-0.344175
N66	N	-0.566032	0.327384	0.155825
C67	C	-1.145363	0.269798	-0.000096
C68	C	-0.645363	0.769798	0.499904
C69	C	-1.142641	0.412974	-0.000090
C70	C	-0.642641	0.912974	0.499910
C71	C	-1.013475	-0.100784	-0.416404
C72	C	-0.513475	0.399216	0.083596
C73	C	-1.013487	-0.100779	-0.583816
C74	C	-0.513487	0.399221	-0.083816
N75	N	-1.066056	-0.172609	0.343991
N76	N	-0.566056	0.327391	0.843991
H77	H	-0.810652	0.027642	-0.000077
H78	H	-0.310652	0.527642	0.499923
F79	F	-1.233927	0.216036	-0.000096
F80	F	-0.733927	0.716036	0.499904
F81	F	-0.977577	0.375651	-0.000085
F82	F	-0.477577	0.875651	0.499915
F83	F	-0.632333	-0.523471	-0.000049
F84	F	-0.132333	-0.023471	0.499951
H85	H	-0.968467	-0.039294	-0.354302
H86	H	-0.468467	0.460706	0.145698
F87	F	-0.348620	0.068278	-0.000128
F88	F	0.151380	0.568278	0.499872
H89	H	-0.774209	-0.384782	-0.000056
H90	H	-0.274209	0.115218	0.499944
H91	H	-1.000821	0.235175	-0.000075
H92	H	-0.500821	0.735175	0.499925
F93	F	-0.499738	0.178222	-0.000117
F94	F	0.000262	0.678222	0.499883
H95	H	-1.111057	-0.234106	-0.593903
H96	H	-0.611057	0.265894	-0.093903
H97	H	-1.208376	0.478071	-0.000101
H98	H	-0.708376	0.978071	0.499899
F99	F	-1.124855	-0.253004	-0.425340
F100	F	-0.624855	0.246996	0.074660
H101	H	-0.679632	0.145006	-0.000088
H102	H	-0.179632	0.645006	0.499912
F103	F	-0.307160	-0.400963	-0.000077
F104	F	0.192840	0.099037	0.499923
H105	H	-0.452459	-0.490226	-0.000056
H106	H	0.047541	0.009774	0.499944
H107	H	-0.968493	-0.039278	-0.645931
H108	H	-0.468493	0.460722	-0.145931
