data_functionalizedCrystal
_audit_creation_method	'MofGen! by Chris Wilmer'
_symmetry_space_group_name_H-M	'P1'
_symmetry_Int_Tables_number	1
_symmetry_cell_setting	triclinic
loop_
_symmetry_equiv_pos_as_xyz
  x,y,z
_cell_length_a	18.426585
_cell_length_b	14.560438
_cell_length_c	14.560438
_cell_angle_alpha	119.997307
_cell_angle_beta	89.998450
_cell_angle_gamma	59.996301
loop_
_atom_site_label
_atom_site_type_symbol
_atom_site_fract_x
_atom_site_fract_y
_atom_site_fract_z
Zr1	Zr	-0.095307	1.005356	-0.884743
O2	O	-0.211196	1.196964	-0.738092
O3	O	-0.059775	0.813748	-0.929698
O4	O	-0.211190	1.005364	-0.929690
O5	O	0.059650	1.005341	-0.738109
O6	O	-0.211193	1.005370	-1.080826
O7	O	-0.059781	1.005348	-0.738101
O8	O	0.059661	0.662604	-1.080841
O9	O	-0.211203	1.348108	-0.738093
O10	O	-0.044631	0.892564	-1.061664
O11	O	0.044501	0.892554	-0.948878
O12	O	-0.133770	1.118158	-0.948868
O13	O	-0.044638	1.118148	-0.836083
Zr14	Zr	0.095166	1.005356	-1.125800
Zr15	Zr	-0.095312	1.005366	-1.125788
Zr16	Zr	0.095171	1.005346	-0.884755
Zr17	Zr	-0.095320	1.246413	-0.884745
Zr18	Zr	0.095179	0.764299	-1.125799
O19	O	0.059634	1.196964	-1.080845
O20	O	-0.211202	1.196978	-1.080827
O21	O	0.059640	1.196950	-0.738110
O22	O	0.211055	0.813747	-1.272451
O23	O	-0.059781	0.813762	-1.272433
O24	O	0.211061	0.813733	-0.929716
O25	O	-0.059791	1.005370	-1.272435
O26	O	0.211049	1.005348	-1.080854
O27	O	0.211051	1.005341	-0.929717
O28	O	0.059640	1.005364	-1.272442
O29	O	-0.211207	1.348116	-0.929692
O30	O	0.211066	0.662596	-1.080851
O31	O	0.211062	0.662604	-1.272450
O32	O	0.059657	0.662612	-1.272440
O33	O	-0.059798	1.348100	-0.738103
O34	O	-0.059802	1.348108	-0.929702
O35	O	0.133629	0.892554	-1.061675
O36	O	0.044497	0.892563	-1.174461
O37	O	-0.044642	1.118157	-1.061665
O38	O	0.044490	1.118148	-0.948880
C39	C	-0.000055	0.703830	-1.005269
C40	C	-0.000050	0.601495	-1.005269
C41	C	-0.065858	0.636709	-0.922000
C42	C	-0.065881	0.540569	-0.922005
C43	C	0.065720	0.374002	-1.088552
C44	C	0.065739	0.470142	-1.088550
C45	C	-0.238330	1.005369	-1.005256
C46	C	-0.319193	1.005373	-1.005251
C47	C	-0.615277	1.005334	-1.005293
C48	C	-0.532895	1.005339	-1.005284
C49	C	-0.467238	1.005353	-1.005271
C50	C	-0.384851	1.005359	-1.005263
C51	C	0.238189	1.005343	-1.005287
C52	C	0.319052	1.005339	-1.005293
C53	C	-0.000065	1.005343	-0.703761
C54	C	-0.000063	1.005339	-0.601431
C55	C	-0.000086	1.306881	-1.005274
C56	C	-0.000091	1.409216	-1.005275
C57	C	0.046464	0.887582	-0.612231
C58	C	0.046466	0.887586	-0.516078
C59	C	-0.046593	1.123114	-0.398327
C60	C	-0.046589	1.123108	-0.494479
C61	C	-0.000073	1.005362	-0.306785
C62	C	-0.000065	1.005348	-0.409125
C63	C	-0.000061	0.703843	-1.306780
C64	C	-0.000058	0.601512	-1.409109
C65	C	0.238204	0.703817	-1.005285
C66	C	0.319073	0.601478	-1.005290
C67	C	0.238199	0.703830	-1.306796
C68	C	0.319065	0.601495	-1.409130
C69	C	-0.238340	1.306881	-0.703748
C70	C	-0.319206	1.409217	-0.601413
C71	C	-0.000080	1.306869	-0.703763
C72	C	-0.000083	1.409199	-0.601434
C73	C	-0.238345	1.306894	-1.005258
C74	C	-0.319214	1.409233	-1.005254
C75	C	0.403581	0.553419	-1.064171
C76	C	0.479573	0.457273	-1.064171
C77	C	0.471054	0.409183	-1.005296
C78	C	0.386537	0.457252	-0.946407
C79	C	0.310547	0.553402	-0.946401
C80	C	0.310515	0.553442	-1.516071
C81	C	0.386490	0.457301	-1.612234
C82	C	0.471015	0.409208	-1.601454
C83	C	0.479563	0.457270	-1.494503
C84	C	0.403589	0.553416	-1.398342
C85	C	-0.310656	1.457281	-0.494473
C86	C	-0.386631	1.553452	-0.398309
C87	C	-0.471156	1.601550	-0.409089
C88	C	-0.479704	1.553482	-0.516041
C89	C	-0.403730	1.457319	-0.612201
C90	C	-0.310667	1.457293	-1.064140
C91	C	-0.386644	1.553439	-1.064158
C92	C	-0.471167	1.601530	-1.005282
C93	C	-0.479713	1.553461	-0.946393
C94	C	-0.403736	1.457310	-0.946383
C95	C	-0.046578	0.553434	-1.398308
C96	C	-0.046578	0.457292	-1.494461
C97	C	0.046469	0.457309	-1.612214
C98	C	0.046464	0.553457	-1.516062
H99	H	-0.119469	0.569253	-0.854201
H100	H	0.241697	0.592586	-1.524869
H101	H	0.119329	0.441457	-1.156364
N102	N	0.548616	0.310969	-1.699687
N103	N	0.603300	0.203649	-1.716332
H104	H	0.658105	0.134262	-1.785712
H105	H	-0.410708	1.418190	-0.898426
H106	H	-0.379669	1.592567	-1.112110
N107	N	-0.094097	0.602504	-1.289069
N108	N	-0.135628	0.559559	-1.279446
H109	H	-0.169190	0.594211	-1.202296
H110	H	-0.084461	0.418153	-1.485656
N111	N	0.093990	0.767277	-0.721470
N112	N	0.135527	0.662147	-0.731092
H113	H	0.169094	0.577176	-0.808241
N114	N	0.094003	0.767288	-0.527131
N115	N	0.135542	0.662153	-0.622630
H116	H	0.169119	0.577186	-0.630441
N117	N	0.565907	0.408140	-1.483505
N118	N	0.618687	0.418864	-1.524034
H119	H	0.679670	0.384157	-1.516271
H120	H	0.084346	0.592605	-1.524865
N121	N	-0.133067	0.770875	-0.836930
N122	N	-0.191822	0.802293	-0.762594
H123	H	-0.239294	0.897048	-0.702513
N124	N	0.132913	0.239825	-1.173608
N125	N	0.132890	0.153997	-1.173598
H126	H	0.180347	0.059232	-1.233670
H127	H	-0.241838	1.418124	-0.485674
N128	N	-0.566047	1.602503	-0.886324
N129	N	-0.573679	1.559539	-0.833798
H130	H	-0.634655	1.594148	-0.791401
N131	N	-0.094110	1.243394	-0.289071
N132	N	-0.094108	1.243385	-0.203228
H133	H	-0.127669	1.328336	-0.126065
H134	H	-0.533025	1.679823	-1.005299
H135	H	-0.548533	1.592656	-0.524804
H136	H	-0.084475	1.219006	-0.485677
H137	H	-0.379653	1.592573	-0.311234
N138	N	0.412312	0.602509	-1.124326
N139	N	0.487781	0.559575	-1.176886
H140	H	0.493955	0.594242	-1.219371
N141	N	0.094007	0.408214	-1.721453
N142	N	0.135542	0.451153	-1.731079
H143	H	0.169120	0.416480	-1.808229
N144	N	0.412315	0.602469	-1.289098
N145	N	0.344483	0.688293	-1.203239
H146	H	0.350649	0.722927	-1.126085
H147	H	0.548383	0.418147	-1.112129
H148	H	0.532937	0.330892	-1.005309
H149	H	0.379614	0.418083	-0.898472
H150	H	0.241739	0.592520	-0.898457
H151	H	0.379514	0.418179	-1.699310
N152	N	-0.548748	1.699782	-0.310845
N153	N	-0.541091	1.742675	-0.215372
H154	H	-0.595888	1.812050	-0.145982
N155	N	-0.412487	1.408241	-0.721428
N156	N	-0.487965	1.451204	-0.731024
H157	H	-0.494157	1.416548	-0.808164
N158	N	-0.224341	1.408196	-1.124291
N159	N	-0.216738	1.451127	-1.176867
H160	H	-0.155773	1.416453	-1.219358
