data_functionalizedCrystal
_audit_creation_method	'MofGen! by Chris Wilmer'
_symmetry_space_group_name_H-M	'P1'
_symmetry_Int_Tables_number	1
_symmetry_cell_setting	triclinic
loop_
_symmetry_equiv_pos_as_xyz
  x,y,z
_cell_length_a	15.297475
_cell_length_b	25.639239
_cell_length_c	15.296720
_cell_angle_alpha	99.638856
_cell_angle_beta	91.617114
_cell_angle_gamma	80.340538
loop_
_atom_site_label
_atom_site_type_symbol
_atom_site_fract_x
_atom_site_fract_y
_atom_site_fract_z
Zn1	Zn	1.253213	-0.406888	-0.726521
Zn2	Zn	1.278441	-0.482170	-0.580022
Zn3	Zn	1.132104	-0.377518	-0.554767
Zn4	Zn	1.106670	-0.477031	-0.701152
O5	O	1.192607	-0.435902	-0.640616
O6	O	1.379131	-0.431317	-0.728274
O7	O	1.280232	-0.458147	-0.454100
O8	O	1.148256	-0.308262	-0.577599
O9	O	1.397666	-0.486626	-0.620642
O10	O	1.237234	-0.329841	-0.703785
O11	O	1.172719	-0.381260	-0.435545
O12	O	1.006159	-0.376276	-0.552999
O13	O	1.104906	-0.477867	-0.827090
O14	O	0.987472	-0.449388	-0.660547
O15	O	1.212571	-0.426334	-0.845728
O16	O	1.255568	-0.554640	-0.596043
O17	O	1.129369	-0.550864	-0.685036
C18	C	0.965034	-0.409088	-0.601280
C19	C	0.867674	-0.397631	-0.584473
C20	C	0.554472	-0.517789	-0.760740
C21	C	0.645948	-0.528557	-0.776529
C22	C	0.701384	-0.495826	-0.728517
C23	C	0.665336	-0.452326	-0.664713
C24	C	0.573852	-0.441560	-0.648918
C25	C	0.720763	-0.419597	-0.616694
C26	C	0.684715	-0.376097	-0.552890
C27	C	0.593241	-0.365332	-0.537098
C28	C	0.537805	-0.398063	-0.585110
C29	C	0.812247	-0.430363	-0.632489
C30	C	0.831627	-0.354134	-0.520666
C31	C	0.740151	-0.343366	-0.504877
C32	C	1.192467	-0.571724	-0.640550
C33	C	1.192482	-0.629841	-0.640565
C34	C	1.258449	-0.992200	-0.594398
C35	C	1.258481	-1.046809	-0.594415
O36	O	1.314423	-1.076721	-0.555091
N37	N	1.192751	-1.072164	-0.640700
C38	C	1.126990	-1.042907	-0.686978
O39	O	1.071085	-1.069488	-0.726350
C40	C	1.126963	-0.988300	-0.686965
C41	C	1.192692	-0.962947	-0.640670
C42	C	1.324173	-0.966847	-0.548107
C43	C	1.324140	-0.912241	-0.548088
C44	C	1.258383	-0.882988	-0.594360
C45	C	1.192658	-0.908341	-0.640651
C46	C	1.061206	-0.959045	-0.733248
C47	C	1.061185	-0.904435	-0.733232
C48	C	1.126914	-0.879082	-0.686936
C49	C	1.126868	-0.824483	-0.686905
N50	N	1.192598	-0.799128	-0.640619
C51	C	1.258355	-0.828381	-0.594347
C52	C	1.127054	-1.157587	-0.687003
C53	C	1.127077	-1.212192	-0.687011
C54	C	1.258569	-1.216091	-0.594449
C55	C	1.258541	-1.161483	-0.594437
C56	C	1.192784	-1.132232	-0.640718
C57	C	1.258280	-0.713705	-0.594311
C58	C	1.258239	-0.659094	-0.594293
C59	C	1.126750	-0.655201	-0.686858
C60	C	1.126788	-0.709806	-0.686873
C61	C	1.192561	-0.739058	-0.640597
O62	O	1.070956	-0.794537	-0.726211
O63	O	1.314257	-0.801795	-0.554992
C64	C	1.421068	-0.462821	-0.680105
C65	C	1.518425	-0.474292	-0.696933
C66	C	1.153088	-0.454803	-0.869079
C67	C	1.136247	-0.462858	-0.966437
C68	C	1.192768	-0.299554	-0.640705
C69	C	1.192837	-0.241450	-0.640743
C70	C	1.313004	-0.378246	-1.279690
C71	C	1.328832	-0.370679	-1.188219
C72	C	1.280687	-0.393723	-1.132769
C73	C	1.216711	-0.424335	-1.168799
C74	C	1.200886	-0.431905	-1.260281
C75	C	1.168569	-0.447383	-1.113359
C76	C	1.104593	-0.477995	-1.149390
C77	C	1.088771	-0.485564	-1.240862
C78	C	1.136916	-0.462520	-1.296312
C79	C	1.184394	-0.439812	-1.021878
C80	C	1.072276	-0.493472	-1.002468
C81	C	1.056448	-0.501039	-1.093940
C82	C	1.232023	-0.417042	-0.413049
C83	C	1.249034	-0.408860	-0.315722
H84	H	0.563895	-0.329916	-0.485135
C85	C	1.330909	-1.248277	-0.543554
C86	C	1.330937	-1.308344	-0.543581
C87	C	1.403273	-1.340531	-0.492689
C88	C	1.475580	-1.312651	-0.441770
C89	C	1.475554	-1.252581	-0.441742
C90	C	1.403219	-1.220394	-0.492634
H91	H	1.277409	-1.328985	-0.581276
H92	H	1.403291	-1.384999	-0.492710
H93	H	1.529127	-1.336478	-0.404097
H94	H	1.529083	-1.231940	-0.404047
H95	H	1.403201	-1.175926	-0.492612
C96	C	1.054766	-1.240074	-0.737928
C97	C	0.992620	-1.266424	-0.688052
C98	C	0.920309	-1.294305	-0.738975
C99	C	0.910146	-1.295835	-0.839774
C100	C	0.972295	-1.269484	-0.889655
C101	C	1.044605	-1.241604	-0.838732
H102	H	1.000141	-1.265292	-0.613430
H103	H	0.874303	-1.313811	-0.702049
H104	H	0.856618	-1.316473	-0.877470
H105	H	0.964773	-1.270616	-0.964277
H106	H	1.090612	-1.222097	-0.875658
H107	H	0.710788	-0.307948	-0.452927
H108	H	1.073209	-0.631374	-0.724530
H109	H	1.073269	-0.730450	-0.724573
C110	C	0.802006	-0.507668	-0.745888
C111	C	0.866862	-0.519999	-0.670361
C112	C	0.967488	-0.531841	-0.687739
C113	C	1.003259	-0.531351	-0.780644
C114	C	0.938402	-0.519020	-0.856177
C115	C	0.837776	-0.507178	-0.838799
H116	H	0.840384	-0.520362	-0.601582
H117	H	1.015499	-0.540970	-0.631824
H118	H	1.077748	-0.540118	-0.793508
H119	H	0.964881	-0.518657	-0.924957
H120	H	0.789765	-0.498049	-0.894714
C121	C	0.988845	-0.872259	-0.784141
C122	C	1.014818	-0.844835	-0.859481
C123	C	0.942478	-0.812661	-0.910387
C124	C	0.844165	-0.807911	-0.885953
C125	C	0.818187	-0.835336	-0.810608
C126	C	0.890528	-0.867510	-0.759702
H127	H	1.087599	-0.848350	-0.877572
H128	H	0.961709	-0.792359	-0.966162
H129	H	0.790614	-0.784094	-0.923636
H130	H	0.745406	-0.831821	-0.792517
H131	H	0.871297	-0.887812	-0.703928
C132	C	0.892595	-0.318125	-0.467846
C133	C	0.948940	-0.287668	-0.516791
C134	C	1.009913	-0.251663	-0.463973
C135	C	1.014542	-0.246116	-0.362210
C136	C	0.958195	-0.276575	-0.313260
C137	C	0.897221	-0.312579	-0.366078
H138	H	0.945515	-0.291773	-0.592127
H139	H	1.051625	-0.229116	-0.500210
H140	H	1.059678	-0.219464	-0.323111
H141	H	0.961619	-0.272469	-0.237923
H142	H	0.855509	-0.335127	-0.329841
C143	C	1.254759	-0.406138	-0.982250
C144	C	1.245506	-0.346911	-0.993637
C145	C	1.315874	-0.313233	-0.954010
C146	C	1.395495	-0.338782	-0.902995
C147	C	1.404752	-0.398012	-0.891605
C148	C	1.334384	-0.431690	-0.931233
H149	H	1.186562	-0.327995	-1.031403
H150	H	1.309021	-0.269387	-0.962441
H151	H	1.447586	-0.313852	-0.873660
H152	H	1.463695	-0.416928	-0.853839
H153	H	1.341237	-0.475537	-0.922801
H154	H	0.675291	-0.563976	-0.828477
C155	C	1.396512	-0.999018	-0.497197
C156	C	1.370537	-1.026435	-0.421848
C157	C	1.442877	-1.058599	-0.370928
C158	C	1.541191	-1.063347	-0.395356
C159	C	1.567170	-1.035929	-0.470709
C160	C	1.494830	-1.003764	-0.521629
H161	H	1.297755	-1.022921	-0.403762
H162	H	1.423645	-1.078896	-0.315147
H163	H	1.594741	-1.087157	-0.357662
H164	H	1.639952	-1.039443	-0.488795
H165	H	1.514063	-0.983468	-0.577410
C166	C	1.399199	-0.337007	-1.148587
C167	C	1.452157	-0.311658	-1.209573
C168	C	1.522528	-0.277984	-1.169941
C169	C	1.539941	-0.269659	-1.069322
C170	C	1.486982	-0.295009	-1.008330
C171	C	1.416611	-0.328683	-1.047962
H172	H	1.439268	-0.317820	-1.284063
H173	H	1.561732	-0.259218	-1.215092
H174	H	1.592034	-0.244731	-1.039984
H175	H	1.499871	-0.288847	-0.933840
H176	H	1.377407	-0.347449	-1.002811
C177	C	1.330548	-0.631207	-0.543368
C178	C	1.340714	-0.629677	-0.442569
C179	C	1.413021	-0.601794	-0.391647
C180	C	1.475162	-0.575440	-0.441524
C181	C	1.464998	-0.576969	-0.542328
C182	C	1.392691	-0.604853	-0.593250
H183	H	1.294711	-0.649187	-0.405643
H184	H	1.420544	-0.600662	-0.317025
H185	H	1.528688	-0.554799	-0.403828
H186	H	1.511000	-0.557460	-0.579254
H187	H	1.385167	-0.605985	-0.667872
H188	H	1.004358	-0.525963	-1.123289
H189	H	1.311840	-0.737515	-0.556631
C190	C	1.396452	-0.884362	-0.497170
C191	C	1.406623	-0.882835	-0.396372
C192	C	1.478943	-0.854961	-0.345454
C193	C	1.541093	-0.828615	-0.395334
C194	C	1.530924	-0.830141	-0.496137
C195	C	1.458604	-0.858015	-0.547055
H196	H	1.360615	-0.902338	-0.359444
H197	H	1.486470	-0.853831	-0.270833
H198	H	1.594628	-0.807981	-0.357641
H199	H	1.576932	-0.810637	-0.533066
H200	H	1.451077	-0.859144	-0.621676
H201	H	1.312064	-1.140844	-0.556739
H202	H	1.033074	-0.512238	-0.957321
H203	H	1.293579	-0.387561	-1.058289
H204	H	1.352202	-0.359490	-1.324846
H205	H	1.073499	-1.133772	-0.724687
C206	C	0.988904	-0.986922	-0.784182
C207	C	0.890581	-0.967143	-0.759755
C208	C	0.818274	-0.995018	-0.810695
C209	C	0.844290	-1.042672	-0.886064
C210	C	0.942618	-1.062454	-0.910495
C211	C	1.014925	-1.034579	-0.859554
H212	H	0.871318	-0.931864	-0.703960
H213	H	0.745486	-0.980373	-0.792609
H214	H	0.790765	-1.063307	-0.923773
H215	H	0.961881	-1.097733	-0.966290
H216	H	1.087713	-1.049224	-0.877640
H217	H	1.036684	-0.510495	-1.270196
H218	H	0.841588	-0.465781	-0.684439
H219	H	1.124032	-0.468679	-1.370796
H220	H	0.509330	-0.544436	-0.799820
H221	H	0.463317	-0.389297	-0.572260
