data_functionalizedCrystal
_audit_creation_method	'MofGen! by Chris Wilmer'
_symmetry_space_group_name_H-M	'P1'
_symmetry_Int_Tables_number	1
_symmetry_cell_setting	triclinic
loop_
_symmetry_equiv_pos_as_xyz
  x,y,z
_cell_length_a	16.625548
_cell_length_b	16.625545
_cell_length_c	12.759387
_cell_angle_alpha	90.033270
_cell_angle_beta	90.022878
_cell_angle_gamma	90.026626
loop_
_atom_site_label
_atom_site_type_symbol
_atom_site_fract_x
_atom_site_fract_y
_atom_site_fract_z
Zn1	Zn	1.232682	-0.320936	0.594053
Zn2	Zn	1.232572	-0.455791	0.418366
Zn3	Zn	1.097838	-0.320979	0.418383
Zn4	Zn	1.097807	-0.455733	0.593998
O5	O	1.165225	-0.388360	0.506200
O6	O	1.345499	-0.338831	0.570764
O7	O	1.214667	-0.437951	0.271347
O8	O	1.115784	-0.208141	0.441716
O9	O	1.345419	-0.437909	0.441688
O10	O	1.214853	-0.208109	0.570781
O11	O	1.115678	-0.338905	0.271360
O12	O	0.985001	-0.338848	0.441663
O13	O	1.115731	-0.437809	0.741027
O14	O	0.984978	-0.437851	0.570686
O15	O	1.214823	-0.338775	0.741067
O16	O	1.214636	-0.568616	0.441634
O17	O	1.115624	-0.568573	0.570670
C18	C	0.955734	-0.388348	0.506171
C19	C	0.866113	-0.388363	0.506183
C20	C	0.537937	-0.388368	0.506228
C21	C	0.629245	-0.388364	0.506212
C22	C	0.702022	-0.388366	0.506205
C23	C	0.793336	-0.388361	0.506191
C24	C	1.165137	-0.597851	0.506167
C25	C	1.165173	-0.687472	0.506188
C26	C	1.165205	-0.760254	0.506209
C27	C	1.165251	-0.851563	0.506232
C28	C	1.165293	-0.924339	0.506246
C29	C	1.165339	-1.015653	0.506267
C30	C	1.375533	-0.388372	0.506230
C31	C	1.465154	-0.388377	0.506243
C32	C	1.165285	-0.388281	0.780234
C33	C	1.165311	-0.388247	0.897011
C34	C	1.165334	-0.178051	0.506256
C35	C	1.165381	-0.088430	0.506280
C36	C	1.165210	-0.388380	0.233233
C37	C	1.165341	-0.388187	0.116457
C38	C	1.268503	-0.285129	0.897073
C39	C	1.320110	-0.233558	0.951965
C40	C	1.320130	-0.233529	1.061686
C41	C	1.268535	-0.285074	1.116519
C42	C	1.216928	-0.336645	1.061627
C43	C	1.216916	-0.336671	0.951903
C44	C	1.113733	-0.439758	1.061565
C45	C	1.113717	-0.439793	0.951843
C46	C	1.062139	-0.491304	1.116397
C47	C	1.010535	-0.542880	1.061505
C48	C	1.010518	-0.542908	0.951777
C49	C	1.062110	-0.491364	0.896951
H50	H	1.268500	-0.285155	0.807732
F51	F	1.268552	-0.285034	1.233295
F52	F	0.955585	-0.597794	0.893365
F53	F	1.375045	-0.178631	1.120108
F54	F	1.375003	-0.178687	0.893601
F55	F	1.062160	-0.491270	1.233173
F56	F	0.955626	-0.597728	1.119867
H57	H	1.062104	-0.491385	0.807610
