data_functionalizedCrystal
_audit_creation_method	'MofGen! by Chris Wilmer'
_symmetry_space_group_name_H-M	'P1'
_symmetry_Int_Tables_number	1
_symmetry_cell_setting	triclinic
loop_
_symmetry_equiv_pos_as_xyz
  x,y,z
_cell_length_a	16.109301
_cell_length_b	17.038272
_cell_length_c	15.186229
_cell_angle_alpha	89.995962
_cell_angle_beta	89.999362
_cell_angle_gamma	87.286518
loop_
_atom_site_label
_atom_site_type_symbol
_atom_site_fract_x
_atom_site_fract_y
_atom_site_fract_z
O1	O	1.110268	0.100495	-0.073174
O2	O	0.869094	0.113001	-0.073188
O3	O	0.988247	-0.007067	-0.073174
O4	O	0.991114	0.220563	-0.073187
O5	O	0.988239	-0.007069	0.073284
O6	O	0.869085	0.113000	0.073270
O7	O	1.110259	0.100493	0.073284
Zn8	Zn	0.989671	0.106746	0.096530
Zn9	Zn	0.989682	0.106748	-0.096434
O10	O	0.991105	0.220562	0.073270
C11	C	0.838079	0.112494	0.000039
C12	C	0.745676	0.110975	0.000034
C13	C	0.528212	0.178690	0.000040
C14	C	0.441390	0.177257	0.000046
C15	C	0.451147	0.034799	0.000051
C16	C	0.537968	0.036233	0.000051
C17	C	0.576498	0.108181	0.000042
C18	C	0.402855	0.105314	0.000047
C19	C	0.308719	0.103759	0.000053
C20	C	0.670640	0.109736	0.000037
C21	C	0.985636	-0.036196	0.000055
C22	C	0.977857	-0.122989	0.000054
C23	C	1.049277	-0.173104	0.000059
C24	C	1.041963	-0.254654	0.000050
C25	C	0.963228	-0.286089	0.000043
C26	C	0.891802	-0.235967	0.000035
C27	C	0.899116	-0.154418	0.000038
C28	C	0.937385	-0.531846	0.000029
C29	C	0.930076	-0.613402	0.000029
C30	C	1.080238	-0.632083	0.000043
C31	C	1.087546	-0.550532	0.000051
C32	C	1.016120	-0.500418	0.000038
C33	C	0.955749	-0.369446	0.000037
C34	C	1.023599	-0.417062	0.000038
C35	C	1.141274	0.101001	0.000055
C36	C	1.233677	0.102519	0.000054
C37	C	0.993717	0.249691	0.000039
C38	C	1.001496	0.336484	0.000034
N39	N	0.989669	0.106744	0.228223
N40	N	0.989690	0.106744	-0.228126
C41	C	1.042451	0.053596	0.453952
C42	C	1.042453	0.053594	0.546141
C43	C	0.936902	0.159895	0.546138
C44	C	0.936896	0.159893	0.453950
C45	C	0.989675	0.106744	0.407859
C46	C	0.989684	0.106745	0.592237
C47	C	0.989686	0.106743	0.692193
C48	C	0.989672	0.106744	0.307897
H49	H	0.419765	-0.023778	0.000064
H50	H	0.577284	-0.021187	0.000055
H51	H	1.113392	-0.147517	0.000071
C52	C	0.859911	-0.477348	0.000159
C53	C	0.859728	-0.429974	0.075495
C54	C	0.788376	-0.379748	0.075638
H55	H	0.811910	-0.507650	0.000202
H56	H	0.859644	-0.445100	-0.050889
H57	H	0.859987	-0.462218	0.126529
H58	H	0.907713	-0.399656	0.075467
H59	H	0.788109	-0.347500	0.024590
H60	H	0.740380	-0.410056	0.075679
H61	H	0.788246	-0.347594	0.126748
C62	C	1.099809	-0.004006	0.403839
C63	C	1.153663	0.037622	0.350894
C64	C	1.206501	-0.015426	0.304719
H65	H	1.067654	-0.036560	0.367827
H66	H	1.131289	-0.035669	0.444450
H67	H	1.122186	0.069271	0.310288
H68	H	1.185836	0.070172	0.386884
H69	H	1.237980	-0.047089	0.345330
H70	H	1.174339	-0.047977	0.268713
H71	H	1.243052	0.012811	0.268797
H72	H	0.827693	-0.261567	0.000023
C73	C	1.172982	-0.516303	-0.000084
C74	C	1.181567	-0.470010	-0.075420
C75	C	1.260257	-0.438460	-0.075566
H76	H	1.214546	-0.557752	-0.000129
H77	H	1.178967	-0.484839	0.050963
H78	H	1.175591	-0.501472	-0.126455
H79	H	1.140022	-0.428549	-0.075392
H80	H	1.266241	-0.406996	-0.024518
H81	H	1.301814	-0.479914	-0.075608
H82	H	1.266089	-0.407041	-0.126676
H83	H	0.893916	0.203173	0.416419
H84	H	1.085427	0.010315	0.583667
C85	C	1.119606	-0.308935	0.000108
C86	C	1.190124	-0.263952	0.000146
C87	C	1.261667	-0.313928	0.000211
H88	H	1.120002	-0.341149	-0.050952
H89	H	1.119912	-0.341128	0.051200
H90	H	1.189819	-0.231772	-0.050942
H91	H	1.189756	-0.231739	0.051202
H92	H	1.261972	-0.346121	0.051304
H93	H	1.262054	-0.346140	-0.050850
H94	H	1.309521	-0.283414	0.000245
H95	H	1.138389	-0.672894	0.000051
C96	C	0.389110	0.253895	-0.000004
C97	C	0.441439	0.317206	-0.000034
C98	C	0.393309	0.387820	-0.000090
H99	H	0.355028	0.256409	0.051056
H100	H	0.355052	0.256340	-0.051096
H101	H	0.475482	0.314762	0.051054
H102	H	0.475521	0.314717	-0.051090
H103	H	0.359252	0.390265	-0.051183
H104	H	0.359230	0.390326	0.050971
H105	H	0.428807	0.430784	-0.000119
C106	C	0.879699	0.217568	0.596341
C107	C	0.891017	0.206212	0.686941
C108	C	0.838345	0.259337	0.733213
H109	H	0.823578	0.209116	0.581347
H110	H	0.892427	0.269767	0.581274
H111	H	0.878283	0.154026	0.702002
H112	H	0.947127	0.214671	0.701961
H113	H	0.851073	0.311535	0.718146
H114	H	0.782226	0.250879	0.718212
H115	H	0.846022	0.251644	0.794690
C116	C	0.570201	0.256722	-0.000009
C117	C	0.656571	0.242891	-0.000034
C118	C	0.695275	0.314757	-0.000090
H119	H	0.554065	0.285811	0.051049
H120	H	0.554014	0.285762	-0.051103
H121	H	0.672751	0.213863	0.051055
H122	H	0.672731	0.213814	-0.051089
H123	H	0.679088	0.343797	-0.051184
H124	H	0.679132	0.343841	0.050969
H125	H	0.753880	0.305382	-0.000115
H126	H	0.865956	-0.638991	0.000037
H127	H	0.840958	-0.113615	0.000033
H128	H	1.087705	-0.391465	0.000025
H129	H	0.891642	-0.395049	0.000032
