data_functionalizedCrystal
_audit_creation_method	'MofGen! by Chris Wilmer'
_symmetry_space_group_name_H-M	'P1'
_symmetry_Int_Tables_number	1
_symmetry_cell_setting	triclinic
loop_
_symmetry_equiv_pos_as_xyz
  x,y,z
_cell_length_a	10.686220
_cell_length_b	13.897448
_cell_length_c	13.897441
_cell_angle_alpha	90.029627
_cell_angle_beta	85.648699
_cell_angle_gamma	94.399460
loop_
_atom_site_label
_atom_site_type_symbol
_atom_site_fract_x
_atom_site_fract_y
_atom_site_fract_z
Zn1	Zn	1.929082	-0.270721	0.432418
Zn2	Zn	1.928951	-0.432048	0.271127
Zn3	Zn	1.718074	-0.283151	0.283493
Zn4	Zn	1.718042	-0.444368	0.444730
O5	O	1.823537	-0.357572	0.357942
O6	O	2.105639	-0.281763	0.400695
O7	O	1.900936	-0.412342	0.137788
O8	O	1.746132	-0.146516	0.303270
O9	O	2.105543	-0.400289	0.282195
O10	O	1.901159	-0.137384	0.412685
O11	O	1.746006	-0.302948	0.146873
O12	O	1.541495	-0.314894	0.315209
O13	O	1.746078	-0.421287	0.578076
O14	O	1.541472	-0.433340	0.433669
O15	O	1.901128	-0.293710	0.569031
O16	O	1.900906	-0.568667	0.294133
O17	O	1.745951	-0.577719	0.421679
C18	C	1.495700	-0.376803	0.377117
C19	C	1.355450	-0.385054	0.385344
C20	C	1.823445	-0.608191	0.357919
C21	C	1.823521	-0.715401	0.357935
C22	C	1.823654	-0.911688	0.357988
C23	C	1.823576	-0.802460	0.357962
C24	C	2.152654	-0.338266	0.338692
C25	C	2.292905	-0.330039	0.330489
C26	C	1.823614	-0.357486	0.609531
C27	C	1.823647	-0.357450	0.716743
C28	C	1.823664	-0.105971	0.357984
C29	C	1.823718	0.001246	0.358001
C30	C	1.823533	-0.357583	0.107328
C31	C	1.823744	-0.357333	0.000102
C32	C	1.823673	-0.357421	0.803811
C33	C	1.823709	-0.357375	0.913041
H34	H	1.346652	-0.276627	0.277231
Br35	Br	1.265867	-0.474099	0.474104
