data_functionalizedCrystal
_audit_creation_method	'MofGen! by Chris Wilmer'
_symmetry_space_group_name_H-M	'P1'
_symmetry_Int_Tables_number	1
_symmetry_cell_setting	triclinic
loop_
_symmetry_equiv_pos_as_xyz
  x,y,z
_cell_length_a	15.944551
_cell_length_b	15.944551
_cell_length_c	15.021413
_cell_angle_alpha	89.996935
_cell_angle_beta	89.997174
_cell_angle_gamma	96.501262
loop_
_atom_site_label
_atom_site_type_symbol
_atom_site_fract_x
_atom_site_fract_y
_atom_site_fract_z
O1	O	1.114529	-0.108321	-0.073941
O2	O	0.869979	-0.121677	-0.073964
O3	O	0.998932	0.007276	-0.073944
O4	O	0.985576	-0.237274	-0.073961
O5	O	0.998912	0.007257	0.074121
O6	O	0.869959	-0.121695	0.074101
O7	O	1.114508	-0.108339	0.074123
Zn8	Zn	0.992230	-0.115020	0.097620
Zn9	Zn	0.992257	-0.114996	-0.097461
O10	O	0.985555	-0.237292	0.074103
C11	C	0.838675	-0.121132	0.000066
C12	C	0.745429	-0.119470	0.000057
C13	C	0.530572	-0.035565	0.000081
C14	C	0.469562	-0.074518	-0.072926
C15	C	0.574703	-0.116462	0.000068
C16	C	0.469564	-0.074556	0.073054
C17	C	0.409790	-0.113551	0.000083
C18	C	0.514921	-0.155438	-0.072998
C19	C	0.514930	-0.155464	0.073047
C20	C	0.453937	-0.194476	0.000023
C21	C	0.669705	-0.118137	0.000059
C22	C	0.314789	-0.111883	0.000085
C23	C	0.998367	0.038561	0.000089
C24	C	0.996705	0.131807	0.000089
C25	C	1.145813	-0.108885	0.000092
C26	C	1.239059	-0.110547	0.000094
C27	C	0.986120	-0.268577	0.000069
C28	C	0.987782	-0.361823	0.000063
N29	N	0.992218	-0.115036	0.230758
C30	C	0.912801	0.346663	0.000069
C31	C	0.951753	0.407672	0.073077
C32	C	0.993698	0.302533	0.000082
C33	C	0.951792	0.407673	-0.072903
C34	C	0.990787	0.467445	0.000071
C35	C	1.032672	0.362313	0.073150
C36	C	1.032700	0.362308	-0.072895
C37	C	1.071711	0.423298	0.000131
C38	C	0.995372	0.207530	0.000089
C39	C	0.989119	0.562446	0.000070
N40	N	0.992276	-0.114973	-0.230598
C41	C	0.932581	-0.174636	0.470432
C42	C	1.008481	-0.190943	0.529772
C43	C	0.992239	-0.115015	0.412365
C44	C	0.916360	-0.098727	0.529766
C45	C	0.992253	-0.114997	0.587789
C46	C	1.068178	-0.131360	0.470398
C47	C	0.976006	-0.039111	0.470387
C48	C	1.051962	-0.055386	0.529701
C49	C	0.992230	-0.115028	0.311307
C50	C	0.992271	-0.114984	0.688844
H51	H	0.534918	-0.189621	-0.134787
O52	O	0.910847	0.431749	0.146610
C53	C	0.794492	0.499629	0.203823
C54	C	0.840755	0.472432	0.120479
H55	H	0.737803	0.532510	0.182726
H56	H	0.839356	0.544883	0.245084
H57	H	0.772038	0.441564	0.245370
H58	H	0.863213	0.530446	0.078864
H59	H	0.795860	0.427148	0.079285
O60	O	0.959633	0.037394	0.439086
C61	C	0.941952	0.123252	0.309899
C62	C	0.960538	0.036580	0.345231
H63	H	0.942660	0.122618	0.234014
H64	H	0.992164	0.174250	0.335241
H65	H	0.877209	0.137038	0.334297
H66	H	1.025257	0.022714	0.320848
H67	H	0.910275	-0.014369	0.319896
H68	H	1.132368	-0.145206	0.444430
H69	H	0.563905	0.031573	-0.000005
O70	O	0.445630	-0.033558	-0.146486
C71	C	0.457903	0.096473	-0.229684
C72	C	0.485055	0.050187	-0.146335
H73	H	0.489780	0.164184	-0.229599
H74	H	0.386450	0.096869	-0.229310
H75	H	0.477424	0.062605	-0.291888
H76	H	0.465592	0.084018	-0.084088
H77	H	0.556507	0.049784	-0.146788
O78	O	0.872558	-0.234876	0.439268
C79	C	0.842876	-0.361050	0.351189
C80	C	0.910928	-0.292871	0.386406
H81	H	0.873874	-0.407967	0.308458
H82	H	0.795268	-0.330075	0.309368
H83	H	0.809105	-0.395614	0.409729
H84	H	0.944761	-0.258284	0.327920
H85	H	0.958480	-0.323896	0.428253
H86	H	0.420779	-0.261683	-0.000023
O87	O	1.112327	0.004688	0.560519
C88	C	1.260487	0.055401	0.565026
C89	C	1.192210	-0.012692	0.530079
H90	H	1.325086	0.041383	0.540414
H91	H	1.259759	0.055341	0.640916
H92	H	1.247148	0.119931	0.539566
H93	H	1.205502	-0.077256	0.555473
H94	H	1.192955	-0.012558	0.454190
O95	O	1.073391	0.338314	0.146841
C96	C	1.120680	0.222963	0.229490
C97	C	1.074536	0.250024	0.146010
H98	H	1.121637	0.151581	0.228836
H99	H	1.086420	0.241966	0.291656
H100	H	1.188205	0.255324	0.229750
H101	H	1.007010	0.217676	0.145664
H102	H	1.108862	0.231037	0.083882
O103	O	0.538924	-0.196135	0.146766
C104	C	0.543250	-0.199510	0.307065
C105	C	0.516045	-0.153367	0.223644
H106	H	0.524748	-0.164961	0.369241
H107	H	0.614575	-0.200889	0.306058
H108	H	0.510513	-0.266887	0.307647
H109	H	0.548723	-0.085971	0.223007
H110	H	0.444713	-0.152056	0.224683
H111	H	0.852184	-0.084959	0.555847
O112	O	0.445703	-0.033619	0.146660
C113	C	0.457916	0.096439	0.229793
C114	C	0.485020	0.050166	0.146417
H115	H	0.489678	0.164193	0.229614
H116	H	0.477497	0.062668	0.292038
H117	H	0.386451	0.096722	0.229421
H118	H	0.556481	0.049869	0.146703
H119	H	0.465378	0.083952	0.084209
O120	O	0.832656	0.307022	0.000025
C121	C	0.698942	0.286068	-0.076183
C122	C	0.789673	0.331030	-0.076239
H123	H	0.664170	0.305448	-0.137845
H124	H	0.664539	0.304584	-0.013911
H125	H	0.700969	0.214829	-0.076776
H126	H	0.787724	0.402277	-0.075677
H127	H	0.824040	0.312445	-0.138505
H128	H	1.138919	0.456457	0.000178
H129	H	1.066896	0.342185	-0.134615
O130	O	0.911096	0.431621	-0.146630
C131	C	0.906768	0.434488	-0.306942
C132	C	0.952956	0.407342	-0.223527
H133	H	0.940582	0.414854	-0.369133
H134	H	0.906458	0.505952	-0.306645
H135	H	0.839023	0.402701	-0.306795
H136	H	1.020719	0.439070	-0.223619
H137	H	0.953197	0.335871	-0.223855
O138	O	1.024758	-0.267508	0.561006
C139	C	0.975131	-0.389343	0.649202
C140	C	0.956610	-0.302636	0.613913
H141	H	0.920038	-0.417778	0.691968
H142	H	1.035183	-0.381412	0.691003
H143	H	0.983867	-0.433061	0.590697
H144	H	0.947833	-0.258873	0.672363
H145	H	0.896578	-0.310633	0.572085
