data_functionalizedCrystal
_audit_creation_method	'MofGen! by Chris Wilmer'
_symmetry_space_group_name_H-M	'P1'
_symmetry_Int_Tables_number	1
_symmetry_cell_setting	triclinic
loop_
_symmetry_equiv_pos_as_xyz
  x,y,z
_cell_length_a	14.044191
_cell_length_b	11.026607
_cell_length_c	10.065875
_cell_angle_alpha	79.268236
_cell_angle_beta	80.446775
_cell_angle_gamma	79.111103
loop_
_atom_site_label
_atom_site_type_symbol
_atom_site_fract_x
_atom_site_fract_y
_atom_site_fract_z
O1	O	1.319597	-0.281479	-0.113417
O2	O	1.652931	0.051855	0.219916
O3	O	1.986264	0.385188	0.553250
O4	O	1.041793	-0.270711	-0.113435
O5	O	1.375126	0.062622	0.219899
O6	O	1.708459	0.395955	0.553232
O7	O	1.157670	-0.096949	-0.113422
O8	O	1.491004	0.236384	0.219911
O9	O	1.824337	0.569717	0.553244
O10	O	1.203720	-0.455241	-0.113429
O11	O	1.537053	-0.121907	0.219904
O12	O	1.870386	0.211426	0.553237
O13	O	1.135599	-0.130229	0.113564
O14	O	1.468932	0.203105	0.446897
O15	O	1.802265	0.536438	0.780231
O16	O	1.019721	-0.303990	0.113552
O17	O	1.353054	0.029343	0.446885
O18	O	1.686388	0.362676	0.780218
O19	O	1.297526	-0.314758	0.113569
O20	O	1.630859	0.018575	0.446903
O21	O	1.964192	0.351909	0.780236
Zn22	Zn	1.155119	-0.314658	0.149600
Zn23	Zn	1.488452	0.018675	0.482933
Zn24	Zn	1.821786	0.352009	0.816266
Zn25	Zn	1.184199	-0.270811	-0.149465
Zn26	Zn	1.517533	0.062522	0.183869
Zn27	Zn	1.850866	0.395855	0.517202
O28	O	1.181648	-0.488520	0.113557
O29	O	1.514981	-0.155187	0.446890
O30	O	1.848315	0.178147	0.780224
C31	C	0.994639	-0.282641	0.000056
C32	C	1.327972	0.050692	0.333390
C33	C	1.661306	0.384026	0.666723
C34	C	0.887017	-0.268593	0.000049
C35	C	1.220350	0.064741	0.333383
C36	C	1.553683	0.398074	0.666716
C37	C	0.649347	-0.342540	0.000062
C38	C	0.982680	-0.009207	0.333395
C39	C	1.316013	0.324127	0.666728
C40	C	0.689979	-0.242933	0.000061
C41	C	1.023313	0.090400	0.333395
C42	C	1.356646	0.423734	0.666728
C43	C	0.799621	-0.257213	0.000055
C44	C	1.132955	0.076120	0.333388
C45	C	1.466288	0.409453	0.666721
C46	C	0.539695	-0.328261	0.000068
C47	C	0.873028	0.005072	0.333401
C48	C	1.206362	0.338405	0.666735
C49	C	1.138140	-0.067458	0.000069
C50	C	1.471473	0.265875	0.333402
C51	C	1.804806	0.599209	0.666735
C52	C	1.112816	0.069999	0.000062
C53	C	1.446149	0.403332	0.333396
C54	C	1.779482	0.736666	0.666729
C55	C	1.344680	-0.302828	0.000075
C56	C	1.678013	0.030506	0.333409
C57	C	2.011346	0.363839	0.666742
C58	C	1.452303	-0.316875	0.000073
C59	C	1.785636	0.016459	0.333407
C60	C	2.118969	0.349792	0.666740
C61	C	1.201179	-0.518011	0.000063
C62	C	1.534512	-0.184677	0.333396
C63	C	1.867846	0.148656	0.666730
C64	C	1.226504	-0.655467	0.000061
C65	C	1.559837	-0.322133	0.333394
C66	C	1.893170	0.011200	0.666727
N67	N	1.135280	-0.344582	0.353703
N68	N	1.468613	-0.011249	0.687036
N69	N	1.801946	0.322084	1.020370
C70	C	1.182740	0.136233	0.000065
C71	C	1.516074	0.469566	0.333398
C72	C	1.849407	0.802900	0.666731
C73	C	1.156569	0.278302	0.000058
C74	C	1.489902	0.611636	0.333391
C75	C	1.823235	0.944969	0.666725
N76	N	1.204045	-0.240878	-0.353568
N77	N	1.537378	0.092455	-0.020235
N78	N	1.870711	0.425789	0.313098
C79	C	1.177289	-0.281214	0.421486
C80	C	1.510622	0.052119	0.754820
C81	C	1.843956	0.385452	1.088153
C82	C	1.162029	-0.304255	0.578652
C83	C	1.495362	0.029078	0.911985
C84	C	1.828696	0.362411	1.245319
H85	H	0.642432	-0.146917	-0.000033
H86	H	0.975765	0.186417	0.333300
H87	H	1.309099	0.519750	0.666634
H88	H	1.114758	-0.375565	0.636968
H89	H	1.448092	-0.042231	0.970301
H90	H	1.781425	0.291102	1.303634
H91	H	1.261980	0.087759	0.000078
H92	H	1.595314	0.421093	0.333411
H93	H	1.928647	0.754426	0.666745
H94	H	0.696901	-0.438534	0.000056
H95	H	1.030234	-0.105200	0.333389
H96	H	1.363567	0.228133	0.666722
Cl97	Cl	1.034219	0.353126	0.000036
Cl98	Cl	1.367553	0.686459	0.333370
Cl99	Cl	1.700886	1.019792	0.666703
H100	H	1.305760	0.296083	-0.000037
H101	H	1.639093	0.629416	0.333296
H102	H	1.972427	0.962750	0.666630
H103	H	1.251307	-0.169559	0.588116
H104	H	1.584640	0.163775	0.921449
H105	H	1.917974	0.497108	1.254783
H106	H	1.033576	0.118473	0.000048
H107	H	1.366909	0.451806	0.333382
H108	H	1.700243	0.785139	0.666715
H109	H	1.088012	-0.415887	0.412024
H110	H	1.421345	-0.082554	0.745357
H111	H	1.754679	0.250779	1.078691
H112	H	1.224548	-0.209899	0.363167
H113	H	1.557882	0.123434	0.696500
H114	H	1.891215	0.456767	1.029834
