data_functionalizedCrystal
_audit_creation_method	'MofGen! by Chris Wilmer'
_symmetry_space_group_name_H-M	'P1'
_symmetry_Int_Tables_number	1
_symmetry_cell_setting	triclinic
loop_
_symmetry_equiv_pos_as_xyz
  x,y,z
_cell_length_a	14.519709
_cell_length_b	10.489746
_cell_length_c	12.996460
_cell_angle_alpha	89.993562
_cell_angle_beta	90.000034
_cell_angle_gamma	84.110723
loop_
_atom_site_label
_atom_site_type_symbol
_atom_site_fract_x
_atom_site_fract_y
_atom_site_fract_z
O1	O	1.224782	0.167203	-0.085434
O2	O	1.724782	0.667203	0.414566
O3	O	0.956413	0.186893	-0.085465
O4	O	1.456413	0.686893	0.414535
O5	O	1.096702	-0.008613	-0.085441
O6	O	1.596702	0.491387	0.414559
O7	O	1.084493	0.362709	-0.085458
O8	O	1.584493	0.862709	0.414542
O9	O	1.096687	-0.008624	0.085693
O10	O	1.596687	0.491376	0.585693
O11	O	0.956398	0.186883	0.085669
O12	O	1.456398	0.686883	0.585669
O13	O	1.224767	0.167192	0.085700
O14	O	1.724767	0.667192	0.585700
Cu15	Cu	1.090581	0.177036	0.101310
Cu16	Cu	1.590581	0.677036	0.601310
Cu17	Cu	1.090599	0.177049	-0.101075
Cu18	Cu	1.590599	0.677049	0.398925
O19	O	1.084478	0.362699	0.085676
O20	O	1.584478	0.862699	0.585676
C21	C	0.922041	0.185970	0.000098
C22	C	1.422041	0.685970	0.500098
C23	C	0.819644	0.183221	0.000086
C24	C	1.319644	0.683221	0.500086
C25	C	0.444693	0.173097	0.000133
C26	C	0.944693	0.673097	0.500133
C27	C	0.549016	0.175908	0.000120
C28	C	1.049016	0.675908	0.500120
C29	C	0.632165	0.178159	0.000109
C30	C	1.132165	0.678159	0.500109
C31	C	0.736495	0.180970	0.000097
C32	C	1.236495	0.680970	0.500097
C33	C	1.095771	-0.056140	0.000126
C34	C	1.595771	0.443860	0.500126
C35	C	1.093009	-0.197740	0.000125
C36	C	1.593009	0.302260	0.500125
C37	C	1.002113	-0.349651	0.000101
C38	C	1.502113	0.150349	0.500101
C39	C	1.047565	-0.272727	-0.084269
C40	C	1.547565	0.227273	0.415731
C41	C	1.047571	-0.272779	0.084455
C42	C	1.547571	0.227221	0.584455
C43	C	1.133587	-0.373115	-0.084339
C44	C	1.633587	0.126885	0.415661
C45	C	1.133581	-0.373172	0.084462
C46	C	1.633581	0.126828	0.584462
C47	C	1.179096	-0.296298	0.000070
C48	C	1.679096	0.203702	0.500070
C49	C	1.259139	0.168116	0.000135
C50	C	1.759139	0.668116	0.500135
C51	C	1.361536	0.170865	0.000140
C52	C	1.861536	0.670865	0.500140
C53	C	1.085409	0.410226	0.000107
C54	C	1.585409	0.910226	0.500107
C55	C	1.088171	0.551826	0.000101
C56	C	1.588171	1.051826	0.500101
N57	N	1.090576	0.177027	0.243657
N58	N	1.590576	0.677027	0.743657
N59	N	1.090612	0.177049	-0.243422
N60	N	1.590612	0.677049	0.256578
C61	C	1.090597	0.177051	0.663472
C62	C	1.590597	0.677051	1.163472
C63	C	1.090589	0.177048	0.546667
C64	C	1.590589	0.677048	1.046667
C65	C	1.090587	0.177040	0.453568
C66	C	1.590587	0.677040	0.953568
C67	C	1.090577	0.177035	0.336756
C68	C	1.590577	0.677035	0.836756
H69	H	0.927282	-0.373590	0.000008
H70	H	1.427282	0.126410	0.500008
H71	H	1.169871	-0.417054	0.155804
H72	H	1.669871	0.082946	0.655804
H73	H	1.253983	-0.272604	0.000033
H74	H	1.753983	0.227396	0.500033
H75	H	1.011220	-0.228960	0.155785
H76	H	1.511220	0.271040	0.655785
H77	H	1.011242	-0.228868	-0.155609
H78	H	1.511242	0.271132	0.344391
F79	F	1.181048	-0.430170	-0.177678
F80	F	1.681048	0.069830	0.322322
