data_functionalizedCrystal
_audit_creation_method	'MofGen! by Chris Wilmer'
_symmetry_space_group_name_H-M	'P1'
_symmetry_Int_Tables_number	1
_symmetry_cell_setting	triclinic
loop_
_symmetry_equiv_pos_as_xyz
  x,y,z
_cell_length_a	12.594516
_cell_length_b	12.827893
_cell_length_c	12.827885
_cell_angle_alpha	89.980918
_cell_angle_beta	89.971946
_cell_angle_gamma	90.016214
loop_
_atom_site_label
_atom_site_type_symbol
_atom_site_fract_x
_atom_site_fract_y
_atom_site_fract_z
Zn1	Zn	-0.423686	1.597665	-0.590856
Zn2	Zn	-0.090353	1.930998	-0.257523
Zn3	Zn	0.242981	2.264331	0.075811
Zn4	Zn	-0.601702	1.597557	-0.416122
Zn5	Zn	-0.268369	1.930890	-0.082788
Zn6	Zn	0.064965	2.264224	0.250545
Zn7	Zn	-0.423738	1.422906	-0.416130
Zn8	Zn	-0.090405	1.756240	-0.082797
Zn9	Zn	0.242928	2.089573	0.250537
Zn10	Zn	-0.601623	1.422889	-0.590822
Zn11	Zn	-0.268290	1.756223	-0.257489
Zn12	Zn	0.065043	2.089556	0.075845
O13	O	-0.512687	1.510254	-0.503482
O14	O	-0.179354	1.843588	-0.170149
O15	O	0.153979	2.176921	0.163184
O16	O	-0.447311	1.743887	-0.567688
O17	O	-0.113978	2.077220	-0.234354
O18	O	0.219355	2.410553	0.098979
O19	O	-0.578150	1.574351	-0.269887
O20	O	-0.244816	1.907684	0.063447
O21	O	0.088517	2.241018	0.396780
O22	O	-0.274786	1.446140	-0.439326
O23	O	0.058548	1.779474	-0.105992
O24	O	0.391881	2.112807	0.227341
O25	O	-0.578099	1.743807	-0.439311
O26	O	-0.244765	2.077141	-0.105978
O27	O	0.088568	2.410474	0.227356
O28	O	-0.274747	1.574535	-0.567696
O29	O	0.058586	1.907868	-0.234363
O30	O	0.391920	2.241202	0.098971
O31	O	-0.447400	1.446036	-0.269893
O32	O	-0.114067	1.779369	0.063440
O33	O	0.219266	2.112702	0.396774
O34	O	-0.447324	1.276668	-0.439293
O35	O	-0.113991	1.610001	-0.105960
O36	O	0.219342	1.943335	0.227374
O37	O	-0.577965	1.446112	-0.737063
O38	O	-0.244631	1.779445	-0.403729
O39	O	0.088702	2.112779	-0.070396
O40	O	-0.578016	1.276656	-0.567638
O41	O	-0.244682	1.609989	-0.234305
O42	O	0.088651	1.943322	0.099028
O43	O	-0.447235	1.574519	-0.737088
O44	O	-0.113902	1.907852	-0.403754
O45	O	0.219432	2.241185	-0.070421
O46	O	-0.750637	1.574335	-0.439278
O47	O	-0.417304	1.907668	-0.105945
O48	O	-0.083971	2.241001	0.227389
O49	O	-0.750580	1.446007	-0.567630
O50	O	-0.417246	1.779341	-0.234297
O51	O	-0.083913	2.112674	0.099037
C52	C	-0.512668	1.238744	-0.503463
C53	C	-0.179335	1.572078	-0.170130
C54	C	0.153999	1.905411	0.163203
C55	C	-0.512685	1.122591	-0.503480
C56	C	-0.179352	1.455925	-0.170147
C57	C	0.153982	1.789258	0.163187
C58	C	-0.577473	0.950784	-0.566907
C59	C	-0.244139	1.284117	-0.233574
C60	C	0.089194	1.617450	0.099759
C61	C	-0.577456	1.070834	-0.566892
C62	C	-0.244123	1.404167	-0.233558
C63	C	0.089210	1.737501	0.099775
C64	C	-0.789228	1.510186	-0.503472
C65	C	-0.455895	1.843519	-0.170139
C66	C	-0.122562	2.176853	0.163194
C67	C	-0.907534	1.510252	-0.503503
C68	C	-0.574201	1.843585	-0.170169
C69	C	-0.240867	2.176919	0.163164
C70	C	-0.976794	1.440448	-0.573264
C71	C	-0.643461	1.773781	-0.239931
C72	C	-0.310128	2.107115	0.093402
C73	C	-1.047663	1.414986	-0.477909
C74	C	-0.714329	1.748319	-0.144576
C75	C	-0.380996	2.081653	0.188758
C76	C	-1.047464	1.535809	-0.598874
C77	C	-0.714131	1.869143	-0.265541
C78	C	-0.380798	2.202476	0.067792
C79	C	-0.976844	1.484740	-0.408097
C80	C	-0.643511	1.818073	-0.074764
C81	C	-0.310178	2.151406	0.258570
C82	C	-0.976639	1.605607	-0.529127
C83	C	-0.643306	1.938941	-0.195793
C84	C	-0.309973	2.272274	0.137540
C85	C	-1.047476	1.580182	-0.433706
C86	C	-0.714143	1.913515	-0.100372
C87	C	-0.380809	2.246848	0.232961
C88	C	-0.235067	1.510352	-0.503516
C89	C	0.098267	1.843685	-0.170182
C90	C	0.431600	2.177018	0.163151
C91	C	-0.116761	1.510393	-0.503530
C92	C	0.216572	1.843726	-0.170196
C93	C	0.549906	2.177060	0.163137
C94	C	-0.512585	1.510325	-0.776053
C95	C	-0.179252	1.843659	-0.442719
C96	C	0.154081	2.176992	-0.109386
C97	C	-0.512542	1.510356	-0.892206
C98	C	-0.179208	1.843689	-0.558873
C99	C	0.154125	2.177022	-0.225539
C100	C	-0.512708	1.782824	-0.503502
C101	C	-0.179375	2.116158	-0.170169
C102	C	0.153959	2.449491	0.163165
C103	C	-0.512717	1.898978	-0.503510
C104	C	-0.179383	2.232311	-0.170177
C105	C	0.153950	2.565644	0.163156
C106	C	-0.447840	1.573902	-0.944003
C107	C	-0.114506	1.907236	-0.610670
C108	C	0.218827	2.240569	-0.277336
C109	C	-0.447793	1.573935	-1.064053
C110	C	-0.114460	1.907268	-0.730720
C111	C	0.218873	2.240602	-0.397387
C112	C	-0.512712	1.510244	-0.231973
C113	C	-0.179379	1.843577	0.101361
C114	C	0.153954	2.176910	0.434694
C115	C	-0.512456	1.510416	-0.115820
C116	C	-0.179123	1.843749	0.217513
C117	C	0.154211	2.177082	0.550847
H118	H	-0.457238	1.078046	-0.449205
H119	H	-0.123905	1.411379	-0.115872
H120	H	0.209429	1.744713	0.217461
H121	H	-0.567857	1.456012	-1.071282
H122	H	-0.234523	1.789346	-0.737949
H123	H	0.098810	2.122679	-0.404616
Cl124	Cl	-0.663108	0.882052	-0.650712
Cl125	Cl	-0.329774	1.215385	-0.317379
Cl126	Cl	0.003559	1.548718	0.015955
Cl127	Cl	-1.095093	1.671417	-0.342540
Cl128	Cl	-0.761760	2.004750	-0.009207
Cl129	Cl	-0.428426	2.338084	0.324127
H130	H	-0.945758	1.381312	-0.632173
H131	H	-0.612425	1.714645	-0.298840
H132	H	-0.279091	2.047978	0.034493
Cl133	Cl	-0.598011	1.426386	-0.960950
Cl134	Cl	-0.264678	1.759720	-0.627617
Cl135	Cl	0.068656	2.093053	-0.294283
Cl136	Cl	-0.427104	0.967710	-0.419684
Cl137	Cl	-0.093771	1.301043	-0.086350
Cl138	Cl	0.239563	1.634376	0.246983
Cl139	Cl	-1.095826	1.290580	-0.444453
Cl140	Cl	-0.762493	1.623913	-0.111120
Cl141	Cl	-0.429159	1.957246	0.222214
Cl142	Cl	-0.362271	1.657942	-1.132820
Cl143	Cl	-0.028937	1.991275	-0.799487
Cl144	Cl	0.304396	2.324609	-0.466154
H145	H	-0.392477	1.628279	-0.899472
H146	H	-0.059143	1.961612	-0.566138
H147	H	0.274190	2.294946	-0.232805
H148	H	-0.632891	1.115386	-0.621173
H149	H	-0.299558	1.448719	-0.287839
H150	H	0.033775	1.782053	0.045494
H151	H	-0.945422	1.686164	-0.550823
H152	H	-0.612089	2.019497	-0.217490
H153	H	-0.278756	2.352830	0.115844
Cl154	Cl	-1.095363	1.569095	-0.723379
Cl155	Cl	-0.762030	1.902428	-0.390046
Cl156	Cl	-0.428697	2.235762	-0.056712
Cl157	Cl	-0.929155	1.451311	-0.283553
Cl158	Cl	-0.595822	1.784645	0.049780
Cl159	Cl	-0.262488	2.117978	0.383113
