data_functionalizedCrystal
_audit_creation_method	'MofGen! by Chris Wilmer'
_symmetry_space_group_name_H-M	'P1'
_symmetry_Int_Tables_number	1
_symmetry_cell_setting	triclinic
loop_
_symmetry_equiv_pos_as_xyz
  x,y,z
_cell_length_a	19.288864
_cell_length_b	10.654551
_cell_length_c	17.766277
_cell_angle_alpha	89.995451
_cell_angle_beta	89.976791
_cell_angle_gamma	83.810838
loop_
_atom_site_label
_atom_site_type_symbol
_atom_site_fract_x
_atom_site_fract_y
_atom_site_fract_z
O1	O	0.922379	0.156657	-0.062833
O2	O	0.720257	0.177789	-0.062781
O3	O	0.825965	-0.015616	-0.062807
O4	O	0.816671	0.350062	-0.062808
O5	O	0.825946	-0.015625	0.062382
O6	O	0.720238	0.177780	0.062407
O7	O	0.922360	0.156647	0.062356
Cu8	Cu	0.821298	0.167212	0.073812
Cu9	Cu	0.821320	0.167224	-0.074238
O10	O	0.816653	0.350052	0.062381
C11	C	0.694367	0.177104	-0.000180
C12	C	0.617250	0.175063	-0.000161
C13	C	0.573297	0.288544	-0.000173
C14	C	0.500837	0.286627	-0.000181
C15	C	0.472334	0.171221	-0.000192
C16	C	0.516296	0.057725	-0.000176
C17	C	0.588754	0.059646	-0.000160
C18	C	0.363484	0.080503	-0.044077
C19	C	0.291027	0.078587	-0.044097
C20	C	0.248849	0.165292	-0.000238
C21	C	0.279136	0.253934	0.043632
C22	C	0.351594	0.255855	0.043648
C23	C	0.393766	0.169126	-0.000209
C24	C	0.126327	0.276702	-0.000258
C25	C	0.053866	0.274779	-0.000262
C26	C	0.069327	0.045875	-0.000264
C27	C	0.141786	0.047800	-0.000253
C28	C	0.170281	0.163217	-0.000253
C29	C	0.825273	-0.062404	-0.000213
C30	C	0.823231	-0.201803	-0.000216
C31	C	0.822283	-0.267281	-0.068457
C32	C	0.820358	-0.398261	-0.068457
C33	C	0.820333	-0.398273	0.068030
C34	C	0.822252	-0.267295	0.068029
C35	C	0.777128	-0.567401	-0.150433
C36	C	0.776192	-0.632886	-0.218677
C37	C	0.817453	-0.600224	-0.278938
C38	C	0.859668	-0.502083	-0.270958
C39	C	0.860610	-0.436606	-0.202712
C40	C	0.819332	-0.469262	-0.142454
C41	C	0.865488	-0.098154	0.150000
C42	C	0.866436	-0.032675	0.218247
C43	C	0.825179	-0.065336	0.278514
C44	C	0.782974	-0.163484	0.270541
C45	C	0.782027	-0.228962	0.202295
C46	C	0.823283	-0.196292	0.142027
C47	C	0.948251	0.157332	-0.000247
C48	C	1.025368	0.159373	-0.000272
C49	C	0.817345	0.396840	-0.000214
C50	C	0.819387	0.536239	-0.000216
N51	N	0.821287	0.167203	0.177942
N52	N	0.821336	0.167223	-0.178368
C53	C	0.868110	0.081606	0.217318
C54	C	0.868114	0.081600	0.296120
C55	C	0.821302	0.167213	0.335543
C56	C	0.774470	0.252818	0.296158
C57	C	0.774463	0.252813	0.217358
C58	C	0.812752	0.281634	0.460382
C59	C	0.812765	0.281641	0.539181
C60	C	0.821320	0.167228	0.578589
C61	C	0.829879	0.052804	0.539189
C62	C	0.829871	0.052799	0.460389
C63	C	0.821304	0.167228	0.420989
C64	C	0.868150	0.081617	0.703411
C65	C	0.868149	0.081610	0.782214
C66	C	0.774509	0.252839	0.782251
C67	C	0.774506	0.252835	0.703449
C68	C	0.821331	0.167226	0.664034
H69	H	0.244796	0.324537	0.079347
H70	H	0.906276	0.011905	0.671318
H71	H	0.906276	0.011899	0.814274
Br72	Br	0.801158	0.436928	0.592645
H73	H	0.493084	-0.036239	-0.000196
H74	H	0.736381	0.322542	0.671387
H75	H	0.906235	0.011895	0.185229
Br76	Br	0.710970	0.369016	0.835747
Br77	Br	0.841479	-0.102482	0.406919
Br78	Br	0.801210	0.436926	0.406907
Br79	Br	0.710933	0.369001	0.349658
H80	H	0.736333	0.322518	0.185297
H81	H	0.266373	0.006415	-0.079822
Br82	Br	0.724753	-0.362172	0.191475
H83	H	0.149529	0.370681	-0.000247
H84	H	0.836845	-0.040361	0.571274
Br85	Br	0.819003	-0.487161	0.160645
H86	H	0.596493	0.382526	-0.000175
H87	H	0.397820	0.009895	-0.079796
Br88	Br	0.923725	0.100512	0.229072
Br89	Br	0.201441	-0.106219	-0.000238
H90	H	0.624542	-0.032767	-0.000151
H91	H	0.046120	-0.048091	-0.000320
Br92	Br	0.441175	0.440648	-0.000193
Br93	Br	0.718902	-0.766072	-0.229508
H94	H	0.749364	-0.190053	0.319609
H95	H	0.376251	0.328027	0.079371
Br96	Br	0.921497	-0.053841	0.068212
Br97	Br	-0.005787	0.428804	-0.000271
H98	H	0.823077	-0.213962	-0.124027
H99	H	0.893272	-0.475508	-0.320028
Br100	Br	0.917897	-0.303425	-0.191876
H101	H	0.743519	-0.593993	-0.101371
H102	H	0.816690	-0.653551	-0.334504
H103	H	0.825959	-0.012020	0.334086
Br104	Br	0.931664	-0.034580	0.349568
