data_functionalizedCrystal
_audit_creation_method	'MofGen! by Chris Wilmer'
_symmetry_space_group_name_H-M	'P1'
_symmetry_Int_Tables_number	1
_symmetry_cell_setting	triclinic
loop_
_symmetry_equiv_pos_as_xyz
  x,y,z
_cell_length_a	19.121102
_cell_length_b	29.839131
_cell_length_c	19.120969
_cell_angle_alpha	92.523640
_cell_angle_beta	90.151580
_cell_angle_gamma	87.595578
loop_
_atom_site_label
_atom_site_type_symbol
_atom_site_fract_x
_atom_site_fract_y
_atom_site_fract_z
Zn1	Zn	1.055003	-0.195380	0.442073
Zn2	Zn	1.555003	0.304620	0.942073
Zn3	Zn	1.059823	-0.273907	0.324818
Zn4	Zn	1.559823	0.226093	0.824818
Zn5	Zn	0.942704	-0.195729	0.319848
Zn6	Zn	1.442704	0.304271	0.819848
Zn7	Zn	0.937699	-0.267418	0.437030
Zn8	Zn	1.437699	0.232582	0.937030
O9	O	0.998807	-0.233109	0.380942
O10	O	1.498807	0.266891	0.880942
O11	O	1.153749	-0.208366	0.430710
O12	O	1.653749	0.291634	0.930710
O13	O	1.048399	-0.266398	0.226046
O14	O	1.548399	0.233602	0.726046
O15	O	0.957678	-0.132817	0.336091
O16	O	1.457678	0.367183	0.836091
O17	O	1.157290	-0.266060	0.344563
O18	O	1.657290	0.233940	0.844563
O19	O	1.040183	-0.132561	0.425890
O20	O	1.540183	0.367439	0.925890
O21	O	0.962352	-0.208961	0.222394
O22	O	1.462352	0.291039	0.722394
O23	O	0.843934	-0.202669	0.331201
O24	O	1.343934	0.297331	0.831201
O25	O	0.949148	-0.255001	0.535812
O26	O	1.449148	0.244999	1.035812
O27	O	0.840257	-0.255339	0.417295
O28	O	1.340257	0.244661	0.917295
O29	O	1.035330	-0.202075	0.539517
O30	O	1.535330	0.297925	1.039517
O31	O	1.043546	-0.335912	0.339673
O32	O	1.543546	0.164088	0.839673
O33	O	0.953822	-0.331145	0.422115
O34	O	1.453822	0.168855	0.922115
C35	C	0.816657	-0.228338	0.373162
C36	C	1.316657	0.271662	0.873162
C37	C	0.738732	-0.226308	0.369850
C38	C	1.238732	0.273692	0.869850
C39	C	0.700229	-0.252822	0.413048
C40	C	1.200229	0.247178	0.913048
C41	C	0.627010	-0.250908	0.409939
C42	C	1.127010	0.249092	0.909939
C43	C	0.592295	-0.222482	0.363629
C44	C	1.092295	0.277518	0.863629
C45	C	0.630803	-0.195966	0.320429
C46	C	1.130803	0.304034	0.820429
C47	C	0.704020	-0.197877	0.323542
C48	C	1.204020	0.302123	0.823542
C49	C	0.371319	-0.215334	0.351995
C50	C	0.871319	0.284666	0.851995
C51	C	0.298096	-0.213425	0.348884
C52	C	0.798096	0.286575	0.848884
C53	C	0.294308	-0.268367	0.438396
C54	C	0.794308	0.231633	0.938396
C55	C	0.367528	-0.270278	0.441501
C56	C	0.867528	0.229722	0.941501
C57	C	0.406029	-0.243760	0.398304
C58	C	0.906029	0.256240	0.898304
C59	C	0.517453	-0.220527	0.360449
C60	C	1.017453	0.279473	0.860449
C61	C	0.480869	-0.245713	0.401488
C62	C	0.980869	0.254287	0.901488
C63	C	0.998682	-0.349829	0.380902
C64	C	1.498682	0.150171	0.880902
C65	C	0.998692	-0.399763	0.380911
C66	C	1.498692	0.100237	0.880911
C67	C	1.045605	-0.711879	0.338084
C68	C	1.545605	-0.211879	0.838084
C69	C	1.045691	-0.899553	0.338115
C70	C	1.545691	-0.399553	0.838115
O71	O	1.085479	-0.925918	0.301671
O72	O	1.585479	-0.425918	0.801671
N73	N	0.998950	-0.920553	0.381001
N74	N	1.498950	-0.420553	0.881001
C75	C	0.952189	-0.894631	0.423886
C76	C	1.452189	-0.394631	0.923886
O77	O	0.912440	-0.916799	0.460370
O78	O	1.412440	-0.416799	0.960370
C79	C	0.952107	-0.706957	0.423859
C80	C	1.452107	-0.206957	0.923859
C81	C	0.998846	-0.685960	0.380964
C82	C	1.498846	-0.185960	0.880964
C83	C	1.092341	-0.690882	0.295194
C84	C	1.592341	-0.190882	0.795194
C85	C	1.092316	-0.643966	0.295183
C86	C	1.592316	-0.143966	0.795183
C87	C	1.045557	-0.618047	0.338064
C88	C	1.545557	-0.118047	0.838064
C89	C	0.998821	-0.639044	0.380954
C90	C	1.498821	-0.139044	0.880954
C91	C	0.905349	-0.681036	0.466747
C92	C	1.405349	-0.181036	0.966747
C93	C	0.905334	-0.634115	0.466738
C94	C	1.405334	-0.134115	0.966738
C95	C	0.952073	-0.613118	0.423843
C96	C	1.452073	-0.113118	0.923843
C97	C	0.952037	-0.566210	0.423824
C98	C	1.452037	-0.066210	0.923824
N99	N	0.998778	-0.545210	0.380938
N100	N	1.498778	-0.045210	0.880938
C101	C	1.045537	-0.571129	0.338058
C102	C	1.545537	-0.071129	0.838058
C103	C	0.952234	-0.993162	0.423897
C104	C	1.452234	-0.493162	0.923897
C105	C	0.952253	-1.040081	0.423903
C106	C	1.452253	-0.540081	0.923903
C107	C	1.045756	-1.045000	0.338132
C108	C	1.545756	-0.545000	0.838132
C109	C	1.045733	-0.998081	0.338123
C110	C	1.545733	-0.498081	0.838123
C111	C	0.998974	-0.972163	0.381011
C112	C	1.498974	-0.472163	0.881011
C113	C	1.045482	-0.472602	0.338039
C114	C	1.545482	0.027398	0.838039
C115	C	1.045451	-0.425682	0.338031
C116	C	1.545451	0.074318	0.838031
C117	C	0.951951	-0.420767	0.423804
C118	C	1.451951	0.079233	0.923804
C119	C	0.951979	-0.467683	0.423810
C120	C	1.451979	0.032317	0.923810
C121	C	0.998750	-0.493600	0.380926
C122	C	1.498750	0.006400	0.880926
O123	O	0.912275	-0.539817	0.460255
O124	O	1.412275	-0.039817	0.960255
O125	O	1.085290	-0.548953	0.301591
O126	O	1.585290	-0.048953	0.801591
C127	C	1.045630	-0.758795	0.338094
C128	C	1.545630	-0.258795	0.838094
C129	C	0.998894	-0.779792	0.380984
C130	C	1.498894	-0.279792	0.880984
C131	C	0.952135	-0.753873	0.423865
C132	C	1.452135	-0.253873	0.923865
C133	C	0.998914	-0.826710	0.380991
C134	C	1.498914	-0.326710	0.880991
C135	C	1.045673	-0.852629	0.338110
C136	C	1.545673	-0.352629	0.838110
C137	C	1.092414	-0.831629	0.295224
C138	C	1.592414	-0.331629	0.795224
C139	C	1.092389	-0.784713	0.295214
C140	C	1.592389	-0.284713	0.795214
C141	C	0.905395	-0.774873	0.466751
C142	C	1.405395	-0.274873	0.966751
C143	C	0.905422	-0.821789	0.466757
C144	C	1.405422	-0.321789	0.966757
C145	C	0.952182	-0.847708	0.423877
C146	C	1.452182	-0.347708	0.923877
C147	C	1.181669	-0.237898	0.388754
C148	C	1.681669	0.262102	0.888754
C149	C	1.259593	-0.239939	0.392082
C150	C	1.759593	0.260061	0.892082
C151	C	0.998951	-0.115933	0.380999
C152	C	1.498951	0.384067	0.880999
C153	C	0.999013	-0.065999	0.381023
C154	C	1.499013	0.434001	0.881023
C155	C	1.006482	-0.238390	0.198783
C156	C	1.506482	0.261610	0.698783
C157	C	1.009884	-0.240540	0.120859
C158	C	1.509884	0.259460	0.620859
C159	C	0.966358	-0.211848	0.082368
C160	C	1.466358	0.288152	0.582368
C161	C	0.969560	-0.213868	0.009151
C162	C	1.469560	0.286132	0.509151
C163	C	1.016287	-0.244583	-0.025574
C164	C	1.516287	0.255417	0.474426
C165	C	1.059818	-0.273276	0.012923
C166	C	1.559818	0.226724	0.512923
C167	C	1.056618	-0.271254	0.086138
C168	C	1.556618	0.228746	0.586138
C169	C	1.028208	-0.252173	-0.246543
C170	C	1.528208	0.247827	0.253457
C171	C	1.031403	-0.254194	-0.319765
C172	C	1.531403	0.245806	0.180235
C173	C	0.941146	-0.194785	-0.323531
C174	C	1.441146	0.305215	0.176469
C175	C	0.937948	-0.192767	-0.250313
C176	C	1.437948	0.307233	0.249687
C177	C	0.981482	-0.221459	-0.211824
C178	C	1.481482	0.278541	0.288176
C179	C	1.019560	-0.246649	-0.100413
C180	C	1.519560	0.253351	0.399587
C181	C	0.978211	-0.219390	-0.136985
C182	C	1.478211	0.280610	0.363015
C183	C	0.991143	-0.227775	0.563815
C184	C	1.491143	0.272225	1.063815
C185	C	0.987877	-0.225502	0.641745
C186	C	1.487877	0.274498	1.141745
H187	H	0.395788	-0.293426	0.479210
H188	H	0.895788	0.206574	0.979210
H189	H	1.130485	-0.852740	0.260307
H190	H	1.630485	-0.352740	0.760307
O191	O	0.927208	-0.185977	-0.028133
O192	O	1.427208	0.314023	0.471867
C193	C	0.885291	-0.158428	0.018217
C194	C	1.385291	0.341572	0.518217
H195	H	0.880770	-0.175344	0.070226
H196	H	1.380770	0.324656	0.570226
H197	H	0.830935	-0.153030	-0.005380
H198	H	1.330935	0.346970	0.494620
H199	H	0.910270	-0.124632	0.027283
H200	H	1.410270	0.375368	0.527283
O201	O	0.859938	-0.749651	0.508305
O202	O	1.359938	-0.249651	1.008305
C203	C	0.816336	-0.722545	0.466410
C204	C	1.316336	-0.222545	0.966410
H205	H	0.843331	-0.717705	0.414357
H206	H	1.343331	-0.217705	0.914357
H207	H	0.805695	-0.688474	0.494554
H208	H	1.305695	-0.188474	0.994554
H209	H	0.764726	-0.739536	0.456443
H210	H	1.264726	-0.239536	0.956443
O211	O	1.137690	-0.716117	0.253538
O212	O	1.637690	-0.216117	0.753538
C213	C	1.099761	-0.743582	0.206505
C214	C	1.599761	-0.243582	0.706505
H215	H	1.045563	-0.748524	0.228884
H216	H	1.545563	-0.248524	0.728884
H217	H	1.128740	-0.777580	0.198409
H218	H	1.628740	-0.277580	0.698409
H219	H	1.094310	-0.726853	0.154191
H220	H	1.594310	-0.226853	0.654191
H221	H	1.083569	-0.493698	0.303120
H222	H	1.583569	0.006302	0.803120
H223	H	1.097866	-0.298283	-0.015356
H224	H	1.597866	0.201717	0.484644
O225	O	0.408744	-0.189529	0.310134
O226	O	0.908744	0.310471	0.810134
C227	C	0.449470	-0.160499	0.351934
C228	C	0.949470	0.339501	0.851934
H229	H	0.425104	-0.155591	0.406224
H230	H	0.925104	0.344409	0.906224
H231	H	0.451390	-0.126660	0.326710
H232	H	0.951390	0.373340	0.826710
H233	H	0.504847	-0.175771	0.356670
H234	H	1.004847	0.324229	0.856670
O235	O	0.257015	-0.294164	0.480390
O236	O	0.757015	0.205836	0.980390
C237	C	0.303355	-0.319651	0.521948
C238	C	0.803355	0.180349	1.021948
H239	H	0.356742	-0.323382	0.495440
H240	H	0.856742	0.176618	0.995440
H241	H	0.281855	-0.354285	0.528436
H242	H	0.781855	0.145715	1.028436
H243	H	0.308942	-0.301897	0.575571
H244	H	0.808942	0.198103	1.075571
H245	H	0.602532	-0.172819	0.282725
H246	H	1.102532	0.327181	0.782725
O247	O	0.859991	-0.842110	0.508493
O248	O	1.359991	-0.342110	1.008493
C249	C	0.818708	-0.809167	0.546323
C250	C	1.318708	-0.309167	1.046323
H251	H	0.847304	-0.776382	0.549983
H252	H	1.347304	-0.276382	1.049983
H253	H	0.808881	-0.820902	0.601243
H254	H	1.308881	-0.320902	1.101243
H255	H	0.766556	-0.803579	0.518334
H256	H	1.266556	-0.303579	1.018334
H257	H	1.083511	-0.408588	0.303099
H258	H	1.583511	0.091412	0.803099
H259	H	0.899895	-0.167758	-0.222046
H260	H	1.399895	0.332242	0.277954
O261	O	1.070397	-0.280056	-0.209080
O262	O	1.570397	0.219944	0.290920
C263	C	1.028946	-0.307063	-0.168620
C264	C	1.528946	0.192937	0.331380
H265	H	0.975174	-0.289775	-0.159958
H266	H	1.475174	0.210225	0.340042
H267	H	1.055316	-0.312266	-0.115885
H268	H	1.555316	0.187734	0.384115
H269	H	1.022830	-0.340987	-0.197296
H270	H	1.522830	0.159013	0.302704
O271	O	0.741450	-0.172073	0.281678
O272	O	1.241450	0.327927	0.781678
C273	C	0.782177	-0.143044	0.323479
C274	C	1.282177	0.356956	0.823479
H275	H	0.757812	-0.138138	0.377770
H276	H	1.257812	0.361862	0.877770
H277	H	0.784095	-0.109204	0.298256
H278	H	1.284095	0.390796	0.798256
H279	H	0.837554	-0.158315	0.328212
H280	H	1.337554	0.341685	0.828212
H281	H	1.092063	-0.294617	0.117477
H282	H	1.592063	0.205383	0.617477
O283	O	0.898936	-0.166932	-0.361025
O284	O	1.398936	0.333068	0.138975
C285	C	0.911764	-0.175309	-0.433094
C286	C	1.411764	0.324691	0.066906
H287	H	0.966450	-0.191467	-0.440744
H288	H	1.466450	0.308533	0.059256
H289	H	0.907881	-0.142312	-0.461000
H290	H	1.407881	0.357688	0.039000
H291	H	0.871335	-0.198921	-0.455815
H292	H	1.371335	0.301079	0.044185
H293	H	0.269833	-0.190272	0.311177
H294	H	0.769833	0.309728	0.811177
H295	H	0.509137	-0.268855	0.439197
H296	H	1.009137	0.231145	0.939197
H297	H	1.130376	-0.626873	0.260257
H298	H	1.630376	-0.126873	0.760257
H299	H	1.069469	-0.279199	-0.348035
H300	H	1.569469	0.220801	0.151965
H301	H	0.595664	-0.272499	0.445115
H302	H	1.095664	0.227501	0.945115
O303	O	1.091203	-0.977758	0.296439
O304	O	1.591203	-0.477758	0.796439
C305	C	1.132460	-1.010701	0.258580
C306	C	1.632460	-0.510701	0.758580
H307	H	1.133671	-1.043362	0.287410
H308	H	1.633671	-0.543362	0.787410
H309	H	1.188012	-0.998777	0.253501
H310	H	1.688012	-0.498777	0.753501
H311	H	1.109062	-1.016603	0.204218
H312	H	1.609062	-0.516603	0.704218
H313	H	1.083830	-1.066111	0.303218
H314	H	1.583830	-0.566111	0.803218
H315	H	0.914188	-1.057172	0.458825
H316	H	1.414188	-0.557172	0.958825
H317	H	0.914155	-0.972063	0.458822
H318	H	1.414155	-0.472063	0.958822
O319	O	0.483696	-0.192979	0.315392
O320	O	0.983696	0.307021	0.815392
C321	C	0.443185	-0.218725	0.268251
C322	C	0.943185	0.281275	0.768251
H323	H	0.465402	-0.254807	0.264742
H324	H	0.965402	0.245193	0.764742
H325	H	0.444602	-0.203968	0.214309
H326	H	0.944602	0.296032	0.714309
H327	H	0.386795	-0.218217	0.287581
H328	H	0.886795	0.281783	0.787581
H329	H	0.867287	-0.698123	0.501673
H330	H	1.367287	-0.198123	1.001673
O331	O	0.859943	-0.608985	0.508499
O332	O	1.359943	-0.108985	1.008499
C333	C	0.872303	-0.618777	0.579044
C334	C	1.372303	-0.118777	1.079044
H335	H	0.899208	-0.653486	0.581672
H336	H	1.399208	-0.153486	1.081672
H337	H	0.820368	-0.618170	0.608284
H338	H	1.320368	-0.118170	1.108284
H339	H	0.907326	-0.592593	0.604219
H340	H	1.407326	-0.092593	1.104219
O341	O	0.906551	-0.488010	0.465539
O342	O	1.406551	0.011990	0.965539
C343	C	0.865261	-0.455070	0.503368
C344	C	1.365261	0.044930	1.003368
H345	H	0.893852	-0.422283	0.507031
H346	H	1.393852	0.077717	1.007031
H347	H	0.855435	-0.466806	0.558288
H348	H	1.355435	0.033194	1.058288
H349	H	0.813109	-0.449486	0.475378
H350	H	1.313109	0.050514	0.975378
O351	O	0.906632	-0.395563	0.465537
O352	O	1.406632	0.104437	0.965537
C353	C	0.944612	-0.368102	0.512530
C354	C	1.444612	0.131898	1.012530
H355	H	0.999645	-0.383525	0.519261
H356	H	1.499645	0.116475	1.019261
H357	H	0.916960	-0.365329	0.565385
H358	H	1.416960	0.134671	1.065385
H359	H	0.947944	-0.333245	0.490945
H360	H	1.447944	0.166755	0.990945
H361	H	1.130448	-0.767621	0.260285
H362	H	1.630448	-0.267621	0.760285
H363	H	0.940170	-0.194381	-0.108709
H364	H	1.440170	0.305619	0.391291
O365	O	0.920890	-0.182073	0.116124
O366	O	1.420890	0.317927	0.616124
C367	C	0.874035	-0.205516	0.156373
C368	C	1.374035	0.294484	0.656373
H369	H	0.871033	-0.241429	0.133980
H370	H	1.371033	0.258571	0.633980
H371	H	0.819884	-0.188080	0.154862
H372	H	1.319884	0.311920	0.654862
H373	H	0.893298	-0.205996	0.212822
H374	H	1.393298	0.294004	0.712822
H375	H	1.057603	-0.271658	-0.128694
H376	H	1.557603	0.228342	0.371306
H377	H	0.728489	-0.275970	0.450756
H378	H	1.228489	0.224030	0.950756
