data_functionalizedCrystal
_audit_creation_method	'MofGen! by Chris Wilmer'
_symmetry_space_group_name_H-M	'P1'
_symmetry_Int_Tables_number	1
_symmetry_cell_setting	triclinic
loop_
_symmetry_equiv_pos_as_xyz
  x,y,z
_cell_length_a	6.817900
_cell_length_b	11.168129
_cell_length_c	10.992410
_cell_angle_alpha	91.929074
_cell_angle_beta	108.764651
_cell_angle_gamma	108.508637
loop_
_atom_site_label
_atom_site_type_symbol
_atom_site_fract_x
_atom_site_fract_y
_atom_site_fract_z
V1	V	-4.112914	-0.174705	-0.400604
O2	O	-4.072440	0.008395	-0.392967
O3	O	-4.089182	-0.346410	-0.397876
O4	O	-4.090527	-0.172017	-0.575317
O5	O	-4.071086	-0.167205	-0.214297
V6	V	-4.589975	-0.152804	-0.378319
O7	O	-4.388348	-0.222746	-0.449489
O8	O	-4.764739	-0.104762	-0.329435
O9	O	-4.390501	0.018902	-0.381048
O10	O	-4.747846	-0.335904	-0.385957
O11	O	-4.749200	-0.160304	-0.564626
O12	O	-4.389156	-0.155491	-0.203607
C13	C	-3.939343	-0.388268	-0.391559
C14	C	-4.001399	-0.528640	-0.390492
C15	C	-3.971406	-0.574085	-0.278199
C16	C	-4.035543	-0.719166	-0.277094
C17	C	-3.941056	-0.165811	-0.617901
C18	C	-4.004199	-0.164750	-0.760729
C19	C	-3.871396	-0.155083	-0.955852
C20	C	-3.805833	-0.156710	-0.807369
C21	C	-4.201264	-0.289253	-0.837841
C22	C	-4.265586	-0.288152	-0.986408
C23	C	-4.145193	-0.047070	-0.948360
C24	C	-4.074488	-0.046480	-0.799347
C25	C	-4.203683	0.060753	-0.387361
C26	C	-4.120866	0.201123	-0.388436
C27	C	-4.201969	-0.161701	-0.161016
C28	C	-4.118063	-0.162756	-0.018186
H29	H	-3.658061	-0.067187	-0.754022
H30	H	-4.351561	-0.299633	-0.809038
H31	H	-4.074566	-0.597139	-0.485813
H32	H	-3.898257	-0.505586	-0.182879
H33	H	-4.249355	-0.375747	-1.032684
H34	H	-4.146434	-0.759737	-0.484581
H35	H	-4.324142	-0.051595	-0.989201
H36	H	-4.009958	-0.758314	-0.180954
H37	H	-3.754880	-0.064945	-0.974675
H38	H	-3.845824	-0.238204	-1.003850
H39	H	-4.447505	-0.298978	-1.029040
H40	H	-3.748010	-0.240985	-0.782559
H41	H	-3.931938	0.045622	-0.746983
H42	H	-4.154832	-0.377063	-0.812241
H43	H	-4.043000	0.047474	-0.968713
H44	H	-4.216612	-0.045018	-0.766835
