data_functionalizedCrystal
_audit_creation_method	'MofGen! by Chris Wilmer'
_symmetry_space_group_name_H-M	'P1'
_symmetry_Int_Tables_number	1
_symmetry_cell_setting	triclinic
loop_
_symmetry_equiv_pos_as_xyz
  x,y,z
_cell_length_a	23.096457
_cell_length_b	17.917559
_cell_length_c	17.917595
_cell_angle_alpha	119.857608
_cell_angle_beta	89.998529
_cell_angle_gamma	63.039500
loop_
_atom_site_label
_atom_site_type_symbol
_atom_site_fract_x
_atom_site_fract_y
_atom_site_fract_z
Zr1	Zr	0.590891	0.806765	0.128983
O2	O	0.507829	0.951779	0.249497
O3	O	0.612372	0.654557	0.087352
O4	O	0.622875	0.796392	0.242743
O5	O	0.493570	0.820635	-0.023138
O6	O	0.718156	0.796394	0.242748
O7	O	0.497326	0.809944	0.094105
O8	O	0.699367	0.542676	-0.035219
O9	O	0.512359	1.074352	0.254828
O10	O	0.697451	0.719828	0.075263
O11	O	0.623542	0.727806	-0.012238
O12	O	0.635908	0.894799	0.170715
O13	O	0.561999	0.902776	0.083214
Zr14	Zr	0.736864	0.823819	-0.058000
Zr15	Zr	0.742853	0.806768	0.128990
Zr16	Zr	0.584902	0.823816	-0.058007
Zr17	Zr	0.598116	1.002256	0.137486
Zr18	Zr	0.729639	0.628329	-0.066504
O19	O	0.715383	0.976027	-0.016370
O20	O	0.723899	0.951783	0.249507
O21	O	0.499313	0.976023	-0.016379
O22	O	0.819926	0.678805	-0.178514
O23	O	0.828442	0.654561	0.087362
O24	O	0.603856	0.678801	-0.178524
O25	O	0.834185	0.809950	0.094121
O26	O	0.704880	0.834192	-0.171761
O27	O	0.609599	0.834190	-0.171765
O28	O	0.830429	0.820641	-0.023123
O29	O	0.633148	1.074355	0.254834
O30	O	0.694607	0.556230	-0.183851
O31	O	0.815396	0.556232	-0.183846
O32	O	0.820157	0.542678	-0.035213
O33	O	0.507598	1.087906	0.106196
O34	O	0.628388	1.087908	0.106201
O35	O	0.691847	0.735786	-0.099733
O36	O	0.765756	0.727808	-0.012232
O37	O	0.704213	0.902779	0.083221
O38	O	0.630304	0.910756	-0.004280
C39	C	0.654840	0.570763	0.024855
C40	C	0.651773	0.487773	0.021245
C41	C	0.681535	0.294818	0.056387
C42	C	0.646221	0.335771	0.014597
C43	C	0.649311	0.420353	0.018297
C44	C	0.678446	0.210228	0.052688
C45	C	0.473797	0.815289	0.035483
C46	C	0.409285	0.815288	0.035480
C47	C	0.411104	0.723957	-0.014337
C48	C	0.350489	0.723956	-0.014341
C49	C	0.288055	0.815289	0.035489
C50	C	0.286238	0.906632	0.085308
C51	C	0.346854	0.906631	0.085304
N52	N	0.170267	0.879595	0.112917
N53	N	0.112688	0.879590	0.112919
C54	C	0.105423	0.815297	0.035505
N55	N	0.157919	0.750994	-0.041912
N56	N	0.215505	0.750997	-0.041913
C57	C	0.222324	0.815300	0.035499
C58	C	0.041518	0.723959	-0.014320
C59	C	-0.019100	0.723962	-0.014326
C60	C	-0.083350	0.906641	0.085332
C61	C	-0.022732	0.906636	0.085329
C62	C	0.039699	0.815292	0.035505
C63	C	0.853958	0.815295	0.035500
C64	C	0.918470	0.815297	0.035503
C65	C	0.671369	0.793964	0.269388
C66	C	0.673911	0.786725	0.348770
C67	C	0.672915	1.059821	0.046128
C68	C	0.675982	1.142812	0.049737
C69	C	0.678570	0.773503	0.494128
C70	C	0.649174	0.857086	0.576862
C71	C	0.651766	0.849729	0.657744
C72	C	0.675979	0.780858	0.413237
C73	C	0.656383	0.836623	0.801596
C74	C	0.653831	0.843868	0.722217
C75	C	0.844921	0.570767	0.024864
C76	C	0.906366	0.487777	0.021257
C77	C	0.647349	0.592092	-0.209041
C78	C	0.641739	0.516340	-0.292034
C79	C	0.837430	0.592095	-0.209033
C80	C	0.896332	0.516344	-0.292022
C81	C	0.490325	1.038489	0.280015
C82	C	0.431423	1.114240	0.363004
C83	C	0.482834	1.059817	0.046119
C84	C	0.421389	1.142807	0.049726
C85	C	0.680406	1.038493	0.280024
C86	C	0.686016	1.114245	0.363016
C87	C	0.899567	0.444638	0.065242
C88	C	0.957295	0.366670	0.061871
C89	C	1.021822	0.331837	0.014509
C90	C	1.028620	0.374984	-0.029477
C91	C	0.970892	0.452956	-0.026100
C92	C	0.674759	0.484932	-0.376687
C93	C	0.669485	0.413766	-0.454673
C94	C	0.631196	0.374004	-0.448005
C95	C	0.598172	0.405419	-0.363343
C96	C	0.603442	0.476589	-0.285358
C97	C	0.962579	0.476606	-0.285320
C98	C	1.017930	0.405441	-0.363289
C99	C	1.007032	0.374008	-0.447960
C100	C	0.940778	0.413753	-0.454660
C101	C	0.885429	0.484923	-0.376691
C102	C	0.365176	1.153987	0.356303
C103	C	0.309826	1.225177	0.434273
C104	C	0.320724	1.256614	0.518944
C105	C	0.386978	1.216864	0.525644
C106	C	0.442327	1.145680	0.447675
C107	C	0.428189	1.185953	0.005749
C108	C	0.370462	1.263942	0.009141
C109	C	0.305935	1.298777	0.056506
C110	C	0.299137	1.255627	0.100489
C111	C	0.356864	1.177645	0.097101
C112	C	0.724311	1.153984	0.356319
C113	C	0.729595	1.225152	0.434291
C114	C	0.696580	1.256584	0.518960
C115	C	0.658283	1.216836	0.525655
C116	C	0.653004	1.145665	0.447684
H117	H	0.613664	0.307315	-0.023954
H118	H	0.714087	0.323276	0.094942
C119	C	0.760634	1.119419	0.263193
H120	H	0.784201	1.153279	0.270385
H121	H	0.728079	1.135027	0.232749
H122	H	0.792046	1.048621	0.229001
H123	H	0.345367	0.981007	0.125868
H124	H	0.951747	0.331549	0.097690
H125	H	0.626910	0.316054	-0.511512
H126	H	0.760778	1.257507	0.428822
C127	C	0.479774	0.623484	-0.069149
H128	H	0.472173	0.569091	-0.098825
H129	H	0.506084	0.615917	-0.029904
H130	H	0.503427	0.623454	-0.112552
C131	C	0.612539	0.961218	0.590494
H132	H	0.615574	0.952564	0.533551
H133	H	0.633295	0.997672	0.623163
H134	H	0.566136	0.997651	0.623164
H135	H	1.081165	0.346611	-0.068038
C136	C	0.705816	0.379215	-0.547792
H137	H	0.697191	0.331143	-0.593287
H138	H	0.753314	0.349389	-0.555649
H139	H	0.689345	0.435803	-0.551888
C140	C	1.067919	0.295724	-0.533721
H141	H	1.051945	0.282697	-0.585112
H142	H	1.093094	0.234889	-0.536365
H143	H	1.096277	0.321306	-0.532597
C144	C	0.352485	0.623488	-0.069137
H145	H	0.398348	0.569088	-0.098806
H146	H	0.328848	0.623453	-0.112529
H147	H	0.331499	0.615934	-0.029871
C148	C	0.349375	1.130180	0.145466
H149	H	0.302676	1.162093	0.174148
H150	H	0.373331	1.139007	0.189248
H151	H	0.367487	1.060155	0.102832
H152	H	0.275650	1.314576	0.582425
H153	H	0.705682	0.696427	0.484042
H154	H	0.566997	0.373034	-0.357927
C155	C	0.217565	1.007096	0.140122
H156	H	0.181725	0.994016	0.132998
H157	H	0.212971	1.048393	0.119273
H158	H	0.215628	1.040854	0.201920
H159	H	0.246592	1.284002	0.139052
C160	C	1.090801	0.361700	-0.355909
H161	H	1.122210	0.314812	-0.414467
H162	H	1.095965	0.328454	-0.326246
H163	H	1.099187	0.414849	-0.322471
H164	H	0.847032	0.472997	0.103821
C165	C	0.928799	0.379161	-0.547801
H166	H	0.971255	0.331075	-0.593270
H167	H	0.905473	0.435723	-0.551930
H168	H	0.902288	0.349319	-0.555672
H169	H	0.092353	0.649583	-0.054908
H170	H	0.700884	1.314537	0.582443
C171	C	0.978378	0.500389	-0.074500
H172	H	1.025077	0.468464	-0.103196
H173	H	0.960262	0.570416	-0.031892
H174	H	0.954426	0.491530	-0.118290
H175	H	0.631404	1.242439	0.594603
C176	C	0.398960	1.251437	0.618782
H177	H	0.446342	1.217577	0.611616
H178	H	0.377367	1.235831	0.649210
H179	H	0.380571	1.322234	0.652978
H180	H	0.705938	0.517299	-0.382133
H181	H	0.621817	1.113316	0.453149
H182	H	1.068822	0.268346	0.011766
C183	C	0.567126	0.511124	-0.192243
H184	H	0.575740	0.559209	-0.146746
H185	H	0.583599	0.454536	-0.188151
H186	H	0.519624	0.540950	-0.184382
H187	H	0.831489	0.517269	-0.382161
C188	C	-0.017101	0.623496	-0.069133
H189	H	-0.062142	0.636578	-0.062006
H190	H	0.007355	0.582199	-0.048284
H191	H	0.004709	0.589738	-0.130931
C192	C	0.353179	1.119421	0.263173
H193	H	0.395627	1.071327	0.217688
H194	H	0.329858	1.175998	0.259065
H195	H	0.326656	1.089599	0.255308
H196	H	-0.134184	0.981006	0.125905
C197	C	0.236955	1.268881	0.426887
H198	H	0.238397	1.239946	0.365291
H199	H	0.215353	1.340018	0.457271
H200	H	0.212163	1.253618	0.453530
C201	C	0.515195	1.101953	0.455057
H202	H	0.513751	1.130867	0.516652
H203	H	0.540000	1.117199	0.428419
H204	H	0.536785	1.030812	0.424669
C205	C	-0.024732	1.007099	0.140140
H206	H	-0.070596	1.061495	0.169823
H207	H	-0.003747	1.014667	0.100891
H208	H	-0.001096	1.007123	0.183536
C209	C	0.499160	1.147648	-0.046357
H210	H	0.494933	1.184529	-0.072051
H211	H	0.520244	1.077972	-0.092783
H212	H	0.526085	1.156836	-0.006373
C213	C	0.242441	1.384553	0.060223
H214	H	0.255738	1.405248	0.027238
H215	H	0.219128	1.440093	0.121055
H216	H	0.213291	1.361222	0.034646
H217	H	0.971465	0.502187	-0.216384
C218	C	0.377951	1.311383	-0.039252
H219	H	0.424648	1.279451	-0.067958
H220	H	0.359842	1.381406	0.003362
H221	H	0.353990	1.302540	-0.083034
