data_functionalizedCrystal
_audit_creation_method	'MofGen! by Chris Wilmer'
_symmetry_space_group_name_H-M	'P1'
_symmetry_Int_Tables_number	1
_symmetry_cell_setting	triclinic
loop_
_symmetry_equiv_pos_as_xyz
  x,y,z
_cell_length_a	12.759401
_cell_length_b	16.120444
_cell_length_c	12.759393
_cell_angle_alpha	87.136376
_cell_angle_beta	90.018496
_cell_angle_gamma	92.926596
loop_
_atom_site_label
_atom_site_type_symbol
_atom_site_fract_x
_atom_site_fract_y
_atom_site_fract_z
Zn1	Zn	1.584964	-0.331854	0.615151
Zn2	Zn	1.575912	-0.471293	0.448366
Zn3	Zn	1.409263	-0.331898	0.439493
Zn4	Zn	1.400313	-0.471228	0.624004
O5	O	1.492613	-0.401568	0.531754
O6	O	1.730784	-0.350360	0.593035
O7	O	1.553764	-0.452847	0.300171
O8	O	1.440104	-0.215227	0.455376
O9	O	1.724134	-0.452804	0.470499
O10	O	1.569191	-0.215194	0.584432
O11	O	1.431327	-0.350434	0.293652
O12	O	1.261056	-0.350372	0.463960
O13	O	1.424850	-0.452695	0.769848
O14	O	1.254480	-0.452737	0.599519
O15	O	1.560512	-0.350298	0.763344
O16	O	1.545085	-0.587950	0.479083
O17	O	1.416072	-0.587903	0.608123
C18	C	1.219647	-0.401553	0.531738
C19	C	1.102869	-0.401567	0.531758
C20	C	1.044605	-0.454954	0.602238
C21	C	0.934880	-0.454964	0.602250
C22	C	0.941694	-0.348198	0.461293
C23	C	1.051417	-0.348184	0.461287
C24	C	1.096058	-0.508336	0.672709
C25	C	1.037793	-0.561728	0.743194
C26	C	0.928069	-0.561739	0.743206
C27	C	0.876608	-0.508357	0.672733
C28	C	1.478654	-0.618176	0.545550
C29	C	1.472778	-0.710842	0.551487
C30	C	1.523352	-0.921787	0.501181
C31	C	1.462069	-0.880498	0.562338
C32	C	1.468029	-0.786093	0.556298
C33	C	1.517393	-1.016201	0.507218
C34	C	1.766645	-0.401584	0.531770
C35	C	1.883422	-0.401591	0.531776
C36	C	1.492692	-0.401484	0.805782
C37	C	1.492726	-0.401448	0.922556
C38	C	1.506656	-0.184115	0.517927
C39	C	1.512640	-0.091449	0.512035
C40	C	1.492599	-0.401592	0.258788
C41	C	1.492784	-0.401393	0.141999
C42	C	1.563375	-0.348125	0.974033
C43	C	1.563402	-0.348095	1.083755
C44	C	1.422127	-0.454719	1.090515
C45	C	1.422096	-0.454744	0.980794
C46	C	1.634005	-0.294829	0.915795
C47	C	1.704660	-0.241502	0.967272
C48	C	1.704687	-0.241472	1.076994
C49	C	1.634058	-0.294769	1.135240
H50	H	1.098857	-0.304705	0.403903
H51	H	1.185401	-0.508335	0.672705
O52	O	1.394159	-0.923034	0.630120
C53	C	1.403260	-1.009190	0.621148
H54	H	1.436988	-1.021005	0.540841
H55	H	1.457646	-1.033822	0.685063
C56	C	1.252749	-1.039556	0.732123
C57	C	1.294167	-1.054068	0.633486
H58	H	1.185457	-1.067241	0.739738
H59	H	1.246619	-0.981512	0.738172
H60	H	1.298081	-1.060083	0.785375
H61	H	1.248842	-1.033532	0.580237
H62	H	1.300287	-1.112111	0.627429
O63	O	1.773220	-0.189806	0.910540
C64	C	1.758031	-0.201248	0.802657
H65	H	1.719466	-0.265590	0.791753
H66	H	1.705265	-0.151803	0.768377
C67	C	1.912176	-0.114599	0.759241
C68	C	1.864819	-0.193628	0.745848
H69	H	1.978046	-0.109895	0.724197
H70	H	1.922408	-0.106887	0.831923
H71	H	1.868194	-0.073403	0.730675
H72	H	1.908794	-0.234821	0.774426
H73	H	1.854597	-0.201347	0.673170
H74	H	1.762211	-0.198044	1.118903
O75	O	1.353631	-0.506467	1.147252
C76	C	1.368794	-0.494997	1.255132
H77	H	1.451641	-0.467692	1.268385
H78	H	1.309351	-0.450592	1.283451
C79	C	1.251988	-0.612876	1.300538
C80	C	1.353745	-0.579345	1.316817
H81	H	1.242701	-0.664904	1.338590
H82	H	1.241769	-0.620602	1.227858
H83	H	1.202464	-0.575863	1.324137
H84	H	1.403266	-0.616352	1.293206
H85	H	1.363972	-0.571627	1.389496
O86	O	1.591183	-0.879253	0.433329
C87	C	1.582110	-0.793099	0.442343
H88	H	1.501740	-0.781356	0.475955
H89	H	1.645935	-0.768299	0.496784
C90	C	1.693257	-0.762775	0.291961
C91	C	1.594542	-0.748351	0.333236
H92	H	1.700931	-0.735171	0.224660
H93	H	1.699374	-0.820818	0.285890
H94	H	1.746434	-0.742108	0.337339
H95	H	1.541368	-0.769027	0.287865
H96	H	1.588417	-0.690310	0.339297
O97	O	1.634255	-0.294662	1.241819
C98	C	1.711737	-0.236151	1.274768
H99	H	1.773855	-0.224493	1.210800
H100	H	1.674010	-0.175353	1.290378
C101	C	1.687131	-0.284431	1.454649
C102	C	1.763431	-0.270118	1.376086
H103	H	1.719016	-0.305381	1.517149
H104	H	1.634927	-0.323849	1.432452
H105	H	1.655699	-0.233763	1.467644
H106	H	1.794852	-0.320788	1.363083
H107	H	1.815641	-0.230709	1.398283
O108	O	1.353451	-0.506638	0.930951
C109	C	1.291117	-0.553672	1.005878
H110	H	1.333974	-0.556527	1.084284
H111	H	1.213284	-0.523153	1.015588
C112	C	1.217638	-0.638912	0.872396
C113	C	1.270279	-0.642424	0.968693
H114	H	1.204779	-0.693657	0.849458
H115	H	1.259630	-0.607223	0.821915
H116	H	1.152783	-0.613476	0.880501
H117	H	1.335138	-0.667850	0.960584
H118	H	1.228297	-0.674120	1.019172
H119	H	1.079700	-0.605184	0.800576
H120	H	1.633993	-0.294850	0.826454
H121	H	0.880633	-0.605207	0.800605
H122	H	0.787263	-0.508363	0.672757
H123	H	0.899786	-0.304738	0.403917
