data_functionalizedCrystal
_audit_creation_method	'MofGen! by Chris Wilmer'
_symmetry_space_group_name_H-M	'P1'
_symmetry_Int_Tables_number	1
_symmetry_cell_setting	triclinic
loop_
_symmetry_equiv_pos_as_xyz
  x,y,z
_cell_length_a	23.532407
_cell_length_b	10.654550
_cell_length_c	9.130313
_cell_angle_alpha	90.003780
_cell_angle_beta	89.994125
_cell_angle_gamma	96.333210
loop_
_atom_site_label
_atom_site_type_symbol
_atom_site_fract_x
_atom_site_fract_y
_atom_site_fract_z
O1	O	0.079982	-1.665300	-0.121936
O2	O	0.087603	-1.299580	-0.121914
O3	O	0.000933	-1.493468	-0.121899
O4	O	0.166652	-1.471412	-0.121952
O5	O	0.000935	-1.493466	0.121700
O6	O	0.087605	-1.299578	0.121684
O7	O	0.079985	-1.665298	0.121662
Cu8	Cu	0.083795	-1.482437	0.143916
Cu9	Cu	0.083792	-1.482440	-0.144168
O10	O	0.166655	-1.471409	0.121647
C11	C	-0.020286	-1.492905	-0.000096
C12	C	-0.083514	-1.491217	-0.000085
C13	C	0.087044	-1.252799	-0.000112
C14	C	0.085370	-1.113408	-0.000102
C15	C	0.080543	-1.712079	-0.000143
C16	C	0.082217	-1.851469	-0.000163
C17	C	-0.481938	-1.595364	-0.000171
C18	C	-0.541349	-1.593795	-0.000182
O19	O	-0.577464	-1.690341	-0.000242
N20	N	-0.564726	-1.478529	-0.000174
C21	C	-0.528689	-1.364824	-0.000170
O22	O	-0.554029	-1.266636	-0.000166
C23	C	-0.469280	-1.366394	-0.000170
C24	C	-0.445906	-1.481668	-0.000163
C25	C	-0.458564	-1.710629	-0.000166
C26	C	-0.399158	-1.712197	-0.000152
C27	C	-0.363126	-1.598500	-0.000144
C28	C	-0.386500	-1.483236	-0.000149
C29	C	-0.433244	-1.252690	-0.000176
C30	C	-0.373832	-1.254270	-0.000177
C31	C	-0.350458	-1.369544	-0.000170
C32	C	-0.291061	-1.371107	-0.000127
N33	N	-0.267684	-1.486374	-0.000135
C34	C	-0.303716	-1.600070	-0.000143
C35	C	-0.653453	-1.361535	-0.000174
C36	C	-0.712861	-1.359964	-0.000164
C37	C	-0.725517	-1.588936	-0.000179
C38	C	-0.666108	-1.590506	-0.000178
C39	C	-0.630076	-1.476802	-0.000182
C40	C	-0.178958	-1.603355	-0.000113
C41	C	-0.119546	-1.604913	-0.000093
C42	C	-0.106896	-1.375942	-0.000086
C43	C	-0.166303	-1.374383	-0.000098
C44	C	-0.202333	-1.488100	-0.000117
O45	O	-0.254911	-1.274613	-0.000073
O46	O	-0.278369	-1.698241	-0.000167
C47	C	0.187873	-1.471972	-0.000159
C48	C	0.251101	-1.473661	-0.000180
N49	N	0.083797	-1.482445	0.346539
C50	C	0.136400	-1.032306	-0.000140
C51	C	0.134824	-0.901335	-0.000165
C52	C	0.031183	-0.932582	-0.000121
C53	C	0.032760	-1.063550	-0.000085
C54	C	0.196236	-1.014265	-0.000172
C55	C	0.194660	-0.883294	-0.000196
N56	N	0.083786	-1.482443	-0.346791
C57	C	0.045432	-1.568320	0.423197
C58	C	0.045425	-1.568317	0.576534
C59	C	0.122152	-1.396559	0.576540
C60	C	0.122156	-1.396557	0.423206
C61	C	0.001136	-1.667487	0.423195
C62	C	0.001129	-1.667483	0.576532
H63	H	-0.100519	-1.698787	-0.000084
N64	N	0.224511	-0.827049	-0.135256
H65	H	0.257801	-0.764317	-0.105235
H66	H	0.238932	-0.896491	-0.195459
N67	N	-0.022276	-1.151036	-0.000038
H68	H	-0.023926	-1.206045	0.090281
H69	H	-0.055813	-1.099493	-0.000092
H70	H	0.010887	-1.763686	0.618139
N71	N	0.163524	-1.303913	0.340521
H72	H	0.187822	-1.249507	0.412360
H73	H	0.188909	-1.351649	0.276887
N74	N	-0.217814	-1.726003	-0.000133
H75	H	-0.193984	-1.799252	-0.000124
H76	H	-0.242745	-1.730342	0.090169
N77	N	-0.614598	-1.238880	-0.000140
H78	H	-0.589674	-1.234427	0.090168
H79	H	-0.589697	-1.234477	-0.090496
H80	H	-0.647081	-1.684372	-0.000174
H81	H	0.219639	-1.042853	0.101772
H82	H	0.212744	-0.837048	0.104966
N83	N	-0.025560	-0.878813	-0.000118
H84	H	-0.047937	-0.908418	0.090199
H85	H	-0.018772	-0.783547	-0.000198
H86	H	-0.380133	-1.806065	-0.000153
H87	H	-0.487896	-1.803219	-0.000178
H88	H	-0.754865	-1.681514	-0.000191
H89	H	0.153383	-1.326631	0.638979
H90	H	-0.042635	-1.647430	0.381590
N91	N	0.221471	-1.060698	-0.139491
H92	H	0.261914	-1.019250	-0.151514
H93	H	0.221670	-1.155335	-0.134299
H94	H	0.015006	-1.758231	0.375626
N95	N	-0.053666	-1.628838	0.639539
H96	H	-0.059031	-1.540748	0.605415
H97	H	-0.086969	-1.689708	0.605371
N98	N	-0.738066	-1.235631	-0.000167
H99	H	-0.781170	-1.251876	-0.000177
H100	H	-0.724922	-1.185912	0.090142
N101	N	-0.458445	-1.128357	-0.000165
H102	H	-0.426596	-1.056582	-0.000162
H103	H	-0.482814	-1.122707	-0.090469
H104	H	-0.344497	-1.161675	-0.000182
N105	N	-0.191513	-1.250051	-0.000095
H106	H	-0.215871	-1.244298	-0.090407
H107	H	-0.215860	-1.244367	0.090257
N108	N	-0.068027	-1.253316	-0.000037
H109	H	-0.026846	-1.271812	-0.000024
H110	H	-0.075634	-1.203034	-0.090335
