data_functionalizedCrystal
_audit_creation_method	'MofGen! by Chris Wilmer'
_symmetry_space_group_name_H-M	'P1'
_symmetry_Int_Tables_number	1
_symmetry_cell_setting	triclinic
loop_
_symmetry_equiv_pos_as_xyz
  x,y,z
_cell_length_a	12.759395
_cell_length_b	18.101395
_cell_length_c	12.759387
_cell_angle_alpha	89.967189
_cell_angle_beta	89.979491
_cell_angle_gamma	90.032641
loop_
_atom_site_label
_atom_site_type_symbol
_atom_site_fract_x
_atom_site_fract_y
_atom_site_fract_z
Zn1	Zn	1.606149	-0.294760	-0.593990
Zn2	Zn	1.605989	-0.418620	-0.418305
Zn3	Zn	1.430447	-0.294801	-0.418327
Zn4	Zn	1.430389	-0.418568	-0.593944
O5	O	1.518244	-0.356687	-0.506141
O6	O	1.753149	-0.311196	-0.570695
O7	O	1.582661	-0.402234	-0.271286
O8	O	1.453845	-0.191162	-0.441658
O9	O	1.753032	-0.402195	-0.441620
O10	O	1.582933	-0.191133	-0.570717
O11	O	1.453691	-0.311264	-0.271303
O12	O	1.283418	-0.311213	-0.441613
O13	O	1.453747	-0.402105	-0.740971
O14	O	1.283376	-0.402145	-0.570638
O15	O	1.582877	-0.311145	-0.741005
O16	O	1.582604	-0.522246	-0.441575
O17	O	1.453592	-0.522208	-0.570616
C18	C	1.245276	-0.356678	-0.506123
C19	C	1.128499	-0.356692	-0.506141
C20	C	1.518103	-0.549098	-0.506111
C21	C	1.518139	-0.631412	-0.506133
C22	C	1.128494	-0.451532	-0.640277
C23	C	1.073630	-0.498958	-0.707348
C24	C	0.963908	-0.498967	-0.707361
C25	C	0.909048	-0.451543	-0.640297
C26	C	0.963912	-0.404118	-0.573226
C27	C	1.073636	-0.404115	-0.573219
C28	C	0.963917	-0.309275	-0.439097
C29	C	1.073639	-0.309269	-0.439077
C30	C	0.909057	-0.261852	-0.372034
C31	C	0.963921	-0.214429	-0.304956
C32	C	1.073649	-0.214422	-0.304945
C33	C	1.128503	-0.261843	-0.372006
C34	C	1.518370	-0.930503	-0.506189
C35	C	1.437387	-0.899184	-0.587580
C36	C	1.437002	-0.813566	-0.587325
C37	C	1.518255	-0.782120	-0.506162
C38	C	1.488272	-0.813280	-0.395437
C39	C	1.487750	-0.898925	-0.395924
C40	C	1.629513	-0.898842	-0.534549
C41	C	1.628859	-0.813191	-0.536977
C42	C	1.518192	-0.698261	-0.506140
C43	C	1.518430	-1.014362	-0.506204
C44	C	1.792277	-0.356697	-0.506160
C45	C	1.909054	-0.356701	-0.506168
C46	C	1.518323	-0.356615	-0.780175
C47	C	1.518357	-0.356584	-0.896952
C48	C	1.518413	-0.163525	-0.506196
C49	C	1.518486	-0.081211	-0.506219
C50	C	1.652829	-0.261872	-0.897007
C51	C	1.720080	-0.214506	-0.951896
C52	C	1.720105	-0.214479	-1.061618
C53	C	1.652871	-0.261822	-1.116453
C54	C	1.585620	-0.309189	-1.061565
C55	C	1.585604	-0.309212	-0.951840
C56	C	1.451144	-0.403895	-1.061509
C57	C	1.451122	-0.403927	-0.951788
C58	C	1.383910	-0.451238	-1.116345
C59	C	1.316662	-0.498610	-1.061456
C60	C	1.316641	-0.498636	-0.951728
C61	C	1.383872	-0.451294	-0.896899
C62	C	1.518225	-0.356706	-0.233174
C63	C	1.518395	-0.356528	-0.116398
H64	H	1.217835	-0.451535	-0.640265
C65	C	1.379673	-0.784405	-0.362396
C66	C	1.367992	-0.738115	-0.261851
C67	C	1.259390	-0.709242	-0.228818
C68	C	1.162469	-0.726660	-0.296330
C69	C	1.174147	-0.772953	-0.396882
C70	C	1.282749	-0.801826	-0.429915
H71	H	1.439742	-0.725218	-0.211869
H72	H	1.250747	-0.674973	-0.154383
H73	H	1.082076	-0.705287	-0.271877
H74	H	1.102397	-0.785850	-0.446864
H75	H	1.291392	-0.836095	-0.504350
C76	C	1.666444	-0.927939	-0.641767
C77	C	1.596143	-0.980829	-0.704942
C78	C	1.633061	-1.009927	-0.812164
C79	C	1.740279	-0.986133	-0.856211
C80	C	1.810587	-0.933240	-0.793035
C81	C	1.773669	-0.904143	-0.685813
H82	H	1.516767	-0.998445	-0.672337
H83	H	1.581014	-1.049082	-0.858931
H84	H	1.767608	-1.007673	-0.935582
H85	H	1.889962	-0.915624	-0.825640
H86	H	1.825716	-0.864987	-0.639046
H87	H	1.651469	-0.792822	-0.618465
H88	H	1.689848	-0.919095	-0.475269
H89	H	1.652825	-0.261897	-0.807666
H90	H	1.692388	-0.791781	-0.482017
C91	C	0.903575	-0.162268	-0.231194
C92	C	0.782885	-0.162271	-0.231214
C93	C	0.722535	-0.110110	-0.157450
C94	C	0.782876	-0.057945	-0.083666
C95	C	0.903572	-0.057940	-0.083643
C96	C	0.963922	-0.110101	-0.157408
H97	H	0.738212	-0.200889	-0.285836
H98	H	0.633187	-0.110115	-0.157467
H99	H	0.738201	-0.019333	-0.029061
H100	H	0.948246	-0.019323	-0.029021
H101	H	1.053270	-0.110096	-0.157390
C102	C	1.133977	-0.551122	-0.781115
C103	C	1.254667	-0.551119	-0.781107
C104	C	1.315009	-0.603280	-0.854878
C105	C	1.254661	-0.655444	-0.928656
C106	C	1.133964	-0.655449	-0.928667
C107	C	1.073622	-0.603288	-0.854896
H108	H	1.299346	-0.512502	-0.726490
H109	H	1.404357	-0.603276	-0.854869
H110	H	1.299330	-0.694057	-0.983265
H111	H	1.089285	-0.694066	-0.983284
H112	H	0.984274	-0.603292	-0.854905
C113	C	1.133996	-0.162251	-0.231166
C114	C	1.118970	-0.078071	-0.239967
C115	C	1.179313	-0.025899	-0.166188
C116	C	1.254683	-0.057906	-0.083607
C117	C	1.269713	-0.142090	-0.074803
C118	C	1.209370	-0.194262	-0.148582
H119	H	1.063173	-0.054374	-0.301101
H120	H	1.168186	0.036420	-0.172706
H121	H	1.299352	-0.019285	-0.028991
H122	H	1.325509	-0.165787	-0.013668
H123	H	1.220496	-0.256581	-0.142064
C124	C	1.462276	-0.785096	-0.698253
C125	C	1.482957	-0.840290	-0.787688
C126	C	1.508198	-0.811823	-0.898628
C127	C	1.512758	-0.728163	-0.920133
C128	C	1.492076	-0.672964	-0.830696
C129	C	1.466835	-0.701430	-0.719756
H130	H	1.479583	-0.902224	-0.771771
H131	H	1.523508	-0.852686	-0.964835
H132	H	1.531442	-0.707091	-1.002258
H133	H	1.495451	-0.611029	-0.846613
H134	H	1.451525	-0.660568	-0.653548
C135	C	1.462473	-0.926937	-0.698855
C136	C	1.380993	-0.972825	-0.759577
C137	C	1.406085	-1.000586	-0.870855
C138	C	1.512656	-0.982458	-0.921410
C139	C	1.594142	-0.936568	-0.860688
C140	C	1.569051	-0.908808	-0.749411
H141	H	1.302097	-0.986246	-0.722153
H142	H	1.345762	-1.034557	-0.915805
H143	H	1.531230	-1.003008	-1.003784
H144	H	1.673039	-0.923147	-0.898112
H145	H	1.629373	-0.874837	-0.704460
H146	H	0.919238	-0.537581	-0.761981
H147	H	0.819707	-0.451549	-0.640323
H148	H	0.819716	-0.261859	-0.372054
H149	H	1.217844	-0.261844	-0.372001
H150	H	1.355506	-0.920773	-0.569031
H151	H	1.774819	-0.175958	-0.907237
C152	C	1.377993	-0.926012	-0.363478
C153	C	1.291429	-0.869714	-0.337304
C154	C	1.181669	-0.896797	-0.304861
C155	C	1.158473	-0.980179	-0.298591
C156	C	1.245039	-1.036482	-0.324766
C157	C	1.354799	-1.009399	-0.357209
H158	H	1.308599	-0.807985	-0.341945
H159	H	1.117587	-0.855117	-0.285485
H160	H	1.077221	-1.000227	-0.274575
H161	H	1.227870	-1.098211	-0.320125
H162	H	1.418881	-1.051079	-0.376585
H163	H	1.354620	-0.793146	-0.568540
C164	C	1.565440	-0.785766	-0.311270
C165	C	1.656798	-0.734563	-0.342178
C166	C	1.733967	-0.707048	-0.258013
C167	C	1.719778	-0.730736	-0.142942
C168	C	1.628416	-0.781943	-0.112029
C169	C	1.551247	-0.809457	-0.196193
H170	H	1.667305	-0.717024	-0.427366
H171	H	1.801599	-0.669142	-0.280898
H172	H	1.776904	-0.710368	-0.080638
H173	H	1.617909	-0.799481	-0.026841
H174	H	1.483615	-0.847364	-0.173308
H175	H	1.544176	-0.919645	-0.333213
H176	H	1.774860	-0.175904	-1.106308
H177	H	1.652889	-0.261789	-1.205794
H178	H	1.383931	-0.451210	-1.205686
H179	H	1.261920	-0.537149	-1.106112
H180	H	1.261865	-0.537200	-0.907044
H181	H	1.383865	-0.451313	-0.807558
