data_functionalizedCrystal
_audit_creation_method	'MofGen! by Chris Wilmer'
_symmetry_space_group_name_H-M	'P1'
_symmetry_Int_Tables_number	1
_symmetry_cell_setting	triclinic
loop_
_symmetry_equiv_pos_as_xyz
  x,y,z
_cell_length_a	15.186229
_cell_length_b	16.109301
_cell_length_c	16.109301
_cell_angle_alpha	83.461481
_cell_angle_beta	89.994833
_cell_angle_gamma	89.999362
loop_
_atom_site_label
_atom_site_type_symbol
_atom_site_fract_x
_atom_site_fract_y
_atom_site_fract_z
O1	O	0.073176	-1.103131	-0.106866
O2	O	0.573176	-0.603131	0.393134
O3	O	0.073190	-0.861069	-0.120165
O4	O	0.573190	-0.361069	0.379835
O5	O	0.073174	-0.988749	0.007515
O6	O	0.573174	-0.488749	0.507515
O7	O	0.073192	-0.975450	-0.234547
O8	O	0.573192	-0.475450	0.265453
O9	O	-0.073284	-0.988741	0.007517
O10	O	0.426716	-0.488741	0.507517
O11	O	-0.073267	-0.861060	-0.120164
O12	O	0.426733	-0.361060	0.379836
O13	O	-0.073282	-1.103122	-0.106864
O14	O	0.426718	-0.603122	0.393136
Zn15	Zn	-0.096528	-0.982090	-0.113514
Zn16	Zn	0.403472	-0.482090	0.386486
Zn17	Zn	0.096436	-0.982101	-0.113516
Zn18	Zn	0.596436	-0.482101	0.386484
O19	O	-0.073265	-0.975441	-0.234545
O20	O	0.426735	-0.475441	0.265455
C21	C	-0.000037	-0.830090	-0.119626
C22	C	0.499963	-0.330090	0.380374
C23	C	-0.000032	-0.737794	-0.118011
C24	C	0.499968	-0.237794	0.381989
N25	N	-0.228220	-0.982088	-0.113511
N26	N	0.271780	-0.482088	0.386489
C27	C	-0.000056	-0.988206	0.038491
C28	C	0.499944	-0.488206	0.538491
C29	C	-0.000057	-0.986591	0.130786
C30	C	0.499943	-0.486591	0.630786
C31	C	-0.453950	-1.038644	-0.056994
C32	C	0.046050	-0.538644	0.443006
C33	C	-0.546140	-1.038647	-0.056992
C34	C	-0.046140	-0.538647	0.443008
C35	C	-0.546135	-0.925547	-0.170032
C36	C	-0.046135	-0.425547	0.329968
C37	C	-0.453947	-0.925541	-0.170030
C38	C	0.046053	-0.425541	0.329970
C39	C	-0.407857	-0.982094	-0.113511
C40	C	0.092143	-0.482094	0.386489
C41	C	-0.592235	-0.982103	-0.113512
C42	C	-0.092235	-0.482103	0.386488
C43	C	-0.692191	-0.982105	-0.113510
C44	C	-0.192191	-0.482105	0.386490
C45	C	-0.307894	-0.982091	-0.113512
C46	C	0.192106	-0.482091	0.386488
N47	N	0.228129	-0.982109	-0.113512
N48	N	0.728129	-0.482109	0.386488
C49	C	-0.000053	-1.134101	-0.107404
C50	C	0.499947	-0.634101	0.392596
C51	C	-0.000052	-1.226397	-0.109019
C52	C	0.499948	-0.726397	0.390981
C53	C	-0.000036	-0.515522	-0.190018
C54	C	0.499964	-0.015522	0.309982
C55	C	-0.000042	-0.428801	-0.188494
C56	C	0.499958	0.071199	0.311506
C57	C	-0.000050	-0.448676	-0.037006
C58	C	0.499950	0.051324	0.462994
C59	C	-0.000051	-0.535394	-0.038530
C60	C	0.499949	-0.035394	0.461470
C61	C	-0.000039	-0.568815	-0.115039
C62	C	0.499961	-0.068815	0.384961
C63	C	-0.000045	-0.395376	-0.111990
C64	C	0.499955	0.104624	0.388010
C65	C	-0.000051	-0.301350	-0.110337
C66	C	0.499949	0.198650	0.389663
C67	C	-0.000035	-0.662847	-0.116693
C68	C	0.499965	-0.162847	0.383307
C69	C	-0.000034	-0.975984	-0.265521
C70	C	0.499966	-0.475984	0.234479
C71	C	-0.000027	-0.977600	-0.357816
C72	C	0.499973	-0.477600	0.142184
C73	C	-0.000047	-1.058599	0.353059
C74	C	0.499953	-0.558599	0.853059
C75	C	-0.000040	-1.057075	0.439779
C76	C	0.499960	-0.557075	0.939779
C77	C	-0.000034	-0.905586	0.419905
C78	C	0.499966	-0.405586	0.919905
C79	C	-0.000035	-0.907111	0.333186
C80	C	0.499965	-0.407111	0.833186
C81	C	-0.000046	-0.983620	0.299766
C82	C	0.499954	-0.483620	0.799766
C83	C	-0.000038	-0.980571	0.473205
C84	C	0.499962	-0.480571	0.973205
C85	C	-0.000030	-0.978918	0.567231
C86	C	0.499970	-0.478918	1.067231
C87	C	-0.000052	-0.985273	0.205734
C88	C	0.499948	-0.485273	0.705734
H89	H	-0.416426	-1.084692	-0.010972
H90	H	0.083574	-0.584692	0.489028
H91	H	-0.000054	-1.120897	0.325851
H92	H	0.499946	-0.620897	0.825851
O93	O	-0.404221	-0.864548	-0.230993
O94	O	0.095779	-0.364548	0.269007
H95	H	-0.451756	-0.825233	-0.270303
H96	H	0.048244	-0.325233	0.229697
O97	O	-0.000042	-0.823071	0.455956
O98	O	0.499958	-0.323071	0.955956
H99	H	0.059644	-0.818752	0.494994
H100	H	0.559644	-0.318752	0.994994
H101	H	-0.000056	-0.578788	0.022530
H102	H	0.499944	-0.078788	0.522530
H103	H	-0.000039	-1.118130	0.483168
H104	H	0.499961	-0.618130	0.983168
O105	O	-0.000031	-0.551571	-0.272535
O106	O	0.499969	-0.051571	0.227465
H107	H	-0.059722	-0.590610	-0.276844
H108	H	0.440278	-0.090610	0.223156
O109	O	-0.000045	-0.826234	0.275700
O110	O	0.499955	-0.326234	0.775700
H111	H	0.059644	-0.789616	0.287576
H112	H	0.559644	-0.289616	0.787576
O113	O	-0.595851	-1.099653	0.003959
O114	O	-0.095851	-0.599653	0.503959
H115	H	-0.578159	-1.089091	0.068778
H116	H	-0.078159	-0.589091	0.568778
O117	O	-0.595844	-0.864561	-0.231000
O118	O	-0.095844	-0.364561	0.269000
H119	H	-0.667693	-0.874071	-0.221515
H120	H	-0.167693	-0.374071	0.278485
O121	O	-0.000042	-0.371324	-0.269368
O122	O	0.499958	0.128676	0.230632
H123	H	-0.000055	-0.305407	-0.255458
H124	H	0.499945	0.194593	0.244542
H125	H	-0.000065	-0.421454	0.025285
H126	H	0.499935	0.078546	0.525285
