data_functionalizedCrystal
_audit_creation_method	'MofGen! by Chris Wilmer'
_symmetry_space_group_name_H-M	'P1'
_symmetry_Int_Tables_number	1
_symmetry_cell_setting	triclinic
loop_
_symmetry_equiv_pos_as_xyz
  x,y,z
_cell_length_a	19.188923
_cell_length_b	17.666332
_cell_length_c	10.654541
_cell_angle_alpha	90.006198
_cell_angle_beta	96.187246
_cell_angle_gamma	89.988569
loop_
_atom_site_label
_atom_site_type_symbol
_atom_site_fract_x
_atom_site_fract_y
_atom_site_fract_z
O1	O	-0.927177	0.062984	0.156735
O2	O	-0.724003	0.062978	0.177851
O3	O	-0.830263	0.062976	-0.015545
O4	O	-0.820918	0.062985	0.350132
O5	O	-0.830244	-0.062920	-0.015556
O6	O	-0.723984	-0.062919	0.177841
O7	O	-0.927158	-0.062913	0.156725
Cu8	Cu	-0.825570	-0.074411	0.167282
Cu9	Cu	-0.825592	0.074476	0.167294
O10	O	-0.820899	-0.062911	0.350122
C11	C	-0.697978	0.000028	0.177164
C12	C	-0.620460	0.000026	0.175116
C13	C	-0.059341	0.000018	0.274882
C14	C	-0.132177	0.000024	0.276817
C15	C	-0.176370	0.000021	0.163339
C16	C	-0.147722	0.000031	0.047917
C17	C	-0.074887	0.000033	0.045985
N18	N	-0.296504	-0.042835	0.081180
N19	N	-0.365693	-0.042838	0.083023
C20	C	-0.395817	0.000017	0.169152
N21	N	-0.354137	0.042866	0.253388
N22	N	-0.284941	0.042866	0.251549
C23	C	-0.255348	0.000019	0.165421
C24	C	-0.503435	0.000018	0.286665
C25	C	-0.576272	0.000028	0.288596
C26	C	-0.591815	0.000028	0.059692
C27	C	-0.518979	0.000025	0.057765
C28	C	-0.474793	0.000016	0.171255
N29	N	-0.825559	-0.179131	0.167273
C30	C	-0.872626	-0.218741	0.081679
C31	C	-0.872630	-0.297989	0.081672
C32	C	-0.825574	-0.337623	0.167282
C33	C	-0.778498	-0.298003	0.252883
C34	C	-0.778490	-0.218757	0.252878
N35	N	-0.817224	-0.462039	0.278450
N36	N	-0.817235	-0.537319	0.278450
C37	C	-0.825592	-0.576387	0.167300
N38	N	-0.833952	-0.537330	0.056145
N39	N	-0.833944	-0.462042	0.056146
C40	C	-0.825576	-0.423552	0.167296
C41	C	-0.872667	-0.701926	0.081692
C42	C	-0.872666	-0.781175	0.081684
C43	C	-0.778537	-0.781188	0.252906
C44	C	-0.778534	-0.701941	0.252902
C45	C	-0.825603	-0.662315	0.167297
C46	C	0.046817	0.000033	0.157416
C47	C	-0.030701	0.000024	0.159475
C48	C	-0.829567	0.000029	-0.062334
C49	C	-0.827516	0.000030	-0.201734
N50	N	-0.825608	0.179196	0.167293
C51	C	-0.954577	0.000024	-0.232400
C52	C	-1.017142	0.000020	-0.313221
C53	C	-1.015209	0.000022	-0.444198
C54	C	-0.950706	0.000031	-0.494355
C55	C	-0.888142	0.000035	-0.413534
C56	C	-0.890081	0.000031	-0.282556
C57	C	-0.761082	0.000046	-0.382869
C58	C	-0.763013	0.000039	-0.251891
C59	C	-0.696579	0.000055	-0.433026
C60	C	-0.634013	0.000054	-0.352204
C61	C	-0.635948	0.000051	-0.221220
C62	C	-0.700448	0.000043	-0.171070
C63	C	-0.821594	0.000038	0.396910
C64	C	-0.823646	0.000042	0.536310
H65	H	-0.627797	0.000031	-0.032705
Br66	Br	-1.104677	0.000015	-0.245146
H67	H	-0.740162	-0.186505	0.322581
H68	H	-0.956157	0.000012	-0.125753
H69	H	-0.023369	0.000015	0.367295
H70	H	-0.155501	0.000012	0.370799
Br71	Br	-0.936512	-0.351755	-0.034503
Br72	Br	-0.207696	0.000033	-0.106091
Br73	Br	-0.714666	-0.834971	0.369078
Br74	Br	-0.936542	-0.648146	-0.034490
Br75	Br	-0.443464	0.000006	0.440683
Br76	Br	-0.615143	0.000031	0.445234
Br77	Br	-0.693955	0.000114	-0.610781
H78	H	-0.910951	-0.186480	0.011971
H79	H	-0.495660	0.000025	-0.036212
Br80	Br	-0.714630	-0.351789	0.369061
Br81	Br	-0.936541	-0.834937	-0.034499
H82	H	-0.051569	0.000038	-0.047996
Br83	Br	-0.714657	-0.648178	0.369075
Br84	Br	-1.100118	0.000026	-0.553890
H85	H	-0.702030	0.000036	-0.064423
H86	H	-0.949139	0.000042	-0.601005
H87	H	-0.581500	0.000066	-0.393053
Br88	Br	-0.551034	0.000066	-0.111543
