data_functionalizedCrystal
_audit_creation_method	'MofGen! by Chris Wilmer'
_symmetry_space_group_name_H-M	'P1'
_symmetry_Int_Tables_number	1
_symmetry_cell_setting	triclinic
loop_
_symmetry_equiv_pos_as_xyz
  x,y,z
_cell_length_a	19.121063
_cell_length_b	19.121321
_cell_length_c	12.759393
_cell_angle_alpha	92.419100
_cell_angle_beta	92.403718
_cell_angle_gamma	89.929715
loop_
_atom_site_label
_atom_site_type_symbol
_atom_site_fract_x
_atom_site_fract_y
_atom_site_fract_z
Zn1	Zn	-0.324722	1.059826	-0.547052
Zn2	Zn	0.175278	1.559826	-0.047052
Zn3	Zn	-0.441971	1.054727	-0.379159
Zn4	Zn	0.058029	1.554727	0.120841
Zn5	Zn	-0.319762	0.942588	-0.378553
Zn6	Zn	0.180238	1.442588	0.121447
Zn7	Zn	-0.436928	0.937556	-0.561952
Zn8	Zn	0.063072	1.437556	-0.061952
O9	O	-0.380846	0.998674	-0.466679
O10	O	0.119154	1.498674	0.033321
O11	O	-0.344461	1.157251	-0.518799
O12	O	0.155539	1.657251	-0.018799
O13	O	-0.425796	1.039823	-0.232061
O14	O	0.074204	1.539823	0.267939
O15	O	-0.222317	0.962379	-0.394416
O16	O	0.277683	1.462379	0.105584
O17	O	-0.430604	1.153505	-0.395448
O18	O	0.069396	1.653505	0.104552
O19	O	-0.225960	1.048514	-0.518211
O20	O	0.274040	1.548514	-0.018211
O21	O	-0.336009	0.957435	-0.231616
O22	O	0.163991	1.457435	0.268384
O23	O	-0.331118	0.843819	-0.408864
O24	O	0.168882	1.343819	0.091136
O25	O	-0.422008	0.953804	-0.706993
O26	O	0.077992	1.453804	-0.206993
O27	O	-0.417199	0.840123	-0.543606
O28	O	0.082801	1.340123	-0.043606
O29	O	-0.339570	1.043635	-0.696046
O30	O	0.160430	1.543635	-0.196046
O31	O	-0.539406	1.034945	-0.409896
O32	O	-0.039406	1.534945	0.090104
O33	O	-0.535700	0.948860	-0.544193
O34	O	-0.035700	1.448860	-0.044193
C35	C	-0.373074	0.816535	-0.477786
C36	C	0.126926	1.316535	0.022214
C37	C	-0.369766	0.738614	-0.482564
C38	C	0.130234	1.238614	0.017436
C39	C	-0.348755	0.298008	-0.512860
C40	C	0.151245	0.798008	-0.012860
C41	C	-0.351876	0.371223	-0.508365
C42	C	0.148124	0.871223	-0.008365
C43	C	-0.398213	0.405874	-0.441782
C44	C	0.101787	0.905874	0.058218
C45	C	-0.441437	0.367306	-0.379697
C46	C	0.058563	0.867306	0.120303
C47	C	-0.438318	0.294093	-0.384198
C48	C	0.061682	0.794093	0.115802
C49	C	-0.409871	0.626833	-0.424980
C50	C	0.090129	1.126833	0.075020
C51	C	-0.412985	0.700051	-0.420482
C52	C	0.087015	1.200051	0.079518
C53	C	-0.323425	0.703963	-0.549152
C54	C	0.176575	1.203963	-0.049152
C55	C	-0.320308	0.630748	-0.553642
C56	C	0.179692	1.130748	-0.053642
C57	C	-0.363534	0.592187	-0.491561
C58	C	0.136466	1.092187	0.008439
C59	C	-0.401403	0.480711	-0.437184
C60	C	0.098597	0.980711	0.062816
C61	C	-0.360347	0.517351	-0.496165
C62	C	0.139653	1.017351	0.003835
C63	C	-0.562991	0.990822	-0.478749
C64	C	-0.062991	1.490822	0.021251
C65	C	-0.640916	0.987527	-0.483943
C66	C	-0.140916	1.487527	0.016057
C67	C	-0.679433	1.030833	-0.416516
C68	C	-0.179433	1.530833	0.083484
C69	C	-0.752653	1.027738	-0.421407
C70	C	-0.252653	1.527738	0.078593
C71	C	-0.787353	0.981333	-0.493722
C72	C	-0.287353	1.481333	0.006278
C73	C	-0.748831	0.938024	-0.561156
C74	C	-0.248831	1.438024	-0.061156
C75	C	-0.675613	0.941123	-0.556269
C76	C	-0.175613	1.441123	-0.056269
C77	C	-1.008328	0.969735	-0.511978
C78	C	-0.508328	1.469735	-0.011978
C79	C	-1.081551	0.966638	-0.516858
C80	C	-0.581551	1.466638	-0.016858
C81	C	-1.085367	1.056353	-0.377109
C82	C	-0.585367	1.556353	0.122891
C83	C	-1.012148	1.059445	-0.372224
C84	C	-0.512148	1.559445	0.127776
C85	C	-0.973632	1.016139	-0.439662
C86	C	-0.473632	1.516139	0.060338
C87	C	-0.862195	0.978166	-0.498721
C88	C	-0.362195	1.478166	0.001279
C89	C	-0.898792	1.019309	-0.434667
C90	C	-0.398792	1.519309	0.065333
C91	C	-0.197990	1.006577	-0.454584
C92	C	0.302010	1.506577	0.045416
C93	C	-0.120068	1.009944	-0.449430
C94	C	0.379932	1.509944	0.050570
C95	C	-0.380780	0.998727	-0.740705
C96	C	0.119220	1.498727	-0.240705
C97	C	-0.380752	0.998750	-0.857478
C98	C	0.119248	1.498750	-0.357478
C99	C	-0.388649	1.181526	-0.455529
C100	C	0.111351	1.681526	0.044471
C101	C	-0.391974	1.259446	-0.450777
C102	C	0.108026	1.759446	0.049223
C103	C	-0.333967	0.955881	-1.021829
C104	C	0.166033	1.455881	-0.521829
C105	C	-0.333991	0.955864	-0.912108
C106	C	0.166009	1.455864	-0.412108
C107	C	-0.427486	1.041660	-0.912576
C108	C	0.072514	1.541660	-0.412576
C109	C	-0.427458	1.041680	-1.022295
C110	C	0.072542	1.541680	-0.522295
C111	C	-0.287209	0.912987	-1.076453
C112	C	0.212791	1.412987	-0.576453
C113	C	-0.240474	0.870078	-1.021363
C114	C	0.259526	1.370078	-0.521363
C115	C	-0.240498	0.870061	-0.911642
C116	C	0.259502	1.370061	-0.411642
C117	C	-0.287257	0.912954	-0.857010
C118	C	0.212743	1.412954	-0.357010
C119	C	-0.380863	0.998665	-0.193713
C120	C	0.119137	1.498665	0.306287
C121	C	-0.380699	0.998786	-0.076919
C122	C	0.119301	1.498786	0.423081
H123	H	-0.288233	0.735367	-0.599695
H124	H	0.211767	1.235367	-0.099695
C125	C	-0.860619	1.070353	-0.355122
C126	C	-0.360619	1.570353	0.144878
N127	N	-0.831861	1.108796	-0.295203
N128	N	-0.331861	1.608796	0.204797
C129	C	-0.973982	1.110477	-0.292646
C130	C	-0.473982	1.610477	0.207354
N131	N	-0.945235	1.148906	-0.232695
N132	N	-0.445235	1.648906	0.267305
C133	C	-0.478922	1.088833	-0.852477
C134	C	0.021078	1.588833	-0.352477
N135	N	-0.517668	1.124362	-0.807212
N136	N	-0.017668	1.624362	-0.307212
C137	C	-0.633245	0.893483	-0.630446
C138	C	-0.133245	1.393483	-0.130446
N139	N	-0.601334	0.857600	-0.686320
N140	N	-0.101334	1.357600	-0.186320
H141	H	-0.890456	0.940382	-0.557598
H142	H	-0.390456	1.440382	-0.057598
H143	H	-0.450720	0.728262	-0.366260
H144	H	0.049280	1.228262	0.133740
H145	H	-0.479168	0.395524	-0.325488
H146	H	0.020832	0.895524	0.174512
C147	C	-0.189038	0.822902	-1.081460
C148	C	0.310962	1.322902	-0.581460
N149	N	-0.150296	0.787368	-1.126723
N150	N	0.349704	1.287368	-0.626723
H151	H	-1.109802	0.928857	-0.575763
H152	H	-0.609802	1.428857	-0.075763
C153	C	-0.965972	0.922133	-0.586214
C154	C	-0.465972	1.422133	-0.086214
N155	N	-0.934067	0.886290	-0.642152
N156	N	-0.434067	1.386290	-0.142152
H157	H	-0.287185	0.912995	-1.165794
H158	H	0.212815	1.412995	-0.665794
C159	C	-0.189087	0.822863	-0.851046
C160	C	0.310913	1.322863	-0.351046
N161	N	-0.150365	0.787309	-0.805407
N162	N	0.349635	1.287309	-0.305407
H163	H	-0.465510	1.076618	-1.067150
H164	H	0.034490	1.576618	-0.567150
C165	C	-0.641270	1.081882	-0.336961
C166	C	-0.141270	1.581882	0.163039
N167	N	-0.612527	1.120335	-0.277040
N168	N	-0.112527	1.620335	0.222960
H169	H	-0.311018	0.269801	-0.567072
H170	H	0.188982	0.769801	-0.067072
H171	H	-0.287269	0.912941	-0.767667
H172	H	0.212731	1.412941	-0.267667
H173	H	-0.282578	0.602540	-0.607865
H174	H	0.217422	1.102540	-0.107865
C175	C	-0.457410	0.584425	-0.356670
C176	C	0.042590	1.084425	0.143330
N177	N	-0.493215	0.552481	-0.305210
N178	N	0.006785	1.052481	0.194790
C179	C	-0.485861	0.251674	-0.315899
C180	C	0.014139	0.751674	0.184101
N181	N	-0.521672	0.219726	-0.264456
N182	N	-0.021672	0.719726	0.235544
C183	C	-0.304326	0.413638	-0.576653
C184	C	0.195674	0.913638	-0.076653
N185	N	-0.268507	0.445586	-0.628087
N186	N	0.231493	0.945586	-0.128087
H187	H	-0.322622	0.489135	-0.550381
H188	H	0.177378	0.989135	-0.050381
C189	C	-1.127740	1.103988	-0.302935
C190	C	-0.627740	1.603988	0.197065
N191	N	-1.159656	1.139870	-0.247066
N192	N	-0.659656	1.639870	0.252934
C193	C	-0.787004	0.886975	-0.640700
C194	C	-0.287004	1.386975	-0.140700
N195	N	-0.815756	0.848521	-0.700610
N196	N	-0.315756	1.348521	-0.200610
H197	H	-0.439128	0.508932	-0.382968
H198	H	0.060872	1.008932	0.117032
H199	H	-0.784010	1.063003	-0.366500
H200	H	-0.284010	1.563003	0.133500
