data_functionalizedCrystal
_audit_creation_method	'MofGen! by Chris Wilmer'
_symmetry_space_group_name_H-M	'P1'
_symmetry_Int_Tables_number	1
_symmetry_cell_setting	triclinic
loop_
_symmetry_equiv_pos_as_xyz
  x,y,z
_cell_length_a	18.215407
_cell_length_b	19.805405
_cell_length_c	18.215399
_cell_angle_alpha	89.972077
_cell_angle_beta	89.982632
_cell_angle_gamma	90.024169
loop_
_atom_site_label
_atom_site_type_symbol
_atom_site_fract_x
_atom_site_fract_y
_atom_site_fract_z
Zn1	Zn	1.125063	-0.269516	-0.416068
Zn2	Zn	1.458396	0.063817	-0.082734
Zn3	Zn	1.791729	0.397150	0.250599
Zn4	Zn	1.124967	-0.382707	-0.293001
Zn5	Zn	1.458300	-0.049374	0.040332
Zn6	Zn	1.791634	0.283959	0.373665
Zn7	Zn	1.001995	-0.269533	-0.293020
Zn8	Zn	1.335328	0.063801	0.040313
Zn9	Zn	1.668662	0.397134	0.373646
Zn10	Zn	1.001957	-0.382664	-0.416032
Zn11	Zn	1.335290	-0.049330	-0.082698
Zn12	Zn	1.668624	0.284003	0.250635
O13	O	1.063495	-0.326105	-0.354530
O14	O	1.396829	0.007228	-0.021197
O15	O	1.730162	0.340562	0.312136
O16	O	1.228034	-0.284543	-0.399750
O17	O	1.561367	0.048791	-0.066416
O18	O	1.894701	0.382124	0.266917
O19	O	1.108630	-0.367719	-0.190020
O20	O	1.441964	-0.034386	0.143314
O21	O	1.775297	0.298947	0.476647
O22	O	1.018376	-0.174814	-0.309366
O23	O	1.351709	0.158520	0.023968
O24	O	1.685043	0.491853	0.357301
O25	O	1.227964	-0.367704	-0.309334
O26	O	1.561297	-0.034370	0.024000
O27	O	1.894631	0.298963	0.357333
O28	O	1.108793	-0.174802	-0.399768
O29	O	1.442127	0.158531	-0.066435
O30	O	1.775460	0.491865	0.266899
O31	O	1.018283	-0.284570	-0.190033
O32	O	1.351617	0.048763	0.143300
O33	O	1.684950	0.382096	0.476633
O34	O	0.899006	-0.284528	-0.309331
O35	O	1.232339	0.048805	0.024003
O36	O	1.565672	0.382139	0.357336
O37	O	1.018311	-0.367629	-0.519021
O38	O	1.351645	-0.034296	-0.185687
O39	O	1.684978	0.299037	0.147646
O40	O	0.898978	-0.367645	-0.399707
O41	O	1.232311	-0.034312	-0.066373
O42	O	1.565644	0.299022	0.266960
O43	O	1.108756	-0.284501	-0.519047
O44	O	1.442090	0.048833	-0.185714
O45	O	1.775423	0.382166	0.147620
O46	O	1.108593	-0.477418	-0.309299
O47	O	1.441927	-0.144085	0.024035
O48	O	1.775260	0.189249	0.357368
O49	O	1.018219	-0.477386	-0.399688
O50	O	1.351552	-0.144053	-0.066355
O51	O	1.684885	0.189281	0.266978
C52	C	0.872289	-0.326084	-0.354517
C53	C	1.205622	0.007249	-0.021184
C54	C	1.538956	0.340583	0.312149
C55	C	0.790490	-0.326092	-0.354529
C56	C	1.123824	0.007242	-0.021196
C57	C	1.457157	0.340575	0.312137
C58	C	1.063412	-0.501961	-0.354504
C59	C	1.396745	-0.168628	-0.021170
C60	C	1.730078	0.164706	0.312163
C61	C	1.063443	-0.577193	-0.354517
C62	C	1.396776	-0.243860	-0.021183
C63	C	1.730110	0.089474	0.312150
C64	C	0.602332	-0.282879	-0.401683
C65	C	0.935665	0.050455	-0.068350
C66	C	1.268998	0.383788	0.264983
C67	C	0.525473	-0.282885	-0.401686
C68	C	0.858806	0.050449	-0.068352
C69	C	1.192140	0.383782	0.264981
C70	C	0.525411	-0.369350	-0.307390
C71	C	0.858744	-0.036017	0.025943
C72	C	1.192078	0.297317	0.359277
C73	C	0.602268	-0.369340	-0.307384
C74	C	0.935602	-0.036007	0.025949
C75	C	1.268935	0.297326	0.359282
C76	C	0.640727	-0.326106	-0.354535
C77	C	0.974060	0.007228	-0.021202
C78	C	1.307393	0.340561	0.312131
C79	C	0.487011	-0.326121	-0.354543
C80	C	0.820344	0.007212	-0.021210
C81	C	1.153677	0.340545	0.312123
C82	C	0.403677	-0.326128	-0.354546
C83	C	0.737010	0.007205	-0.021212
C84	C	1.070344	0.340539	0.312121
C85	C	0.724066	-0.326098	-0.354532
C86	C	1.057399	0.007235	-0.021199
C87	C	1.390732	0.340569	0.312135
C88	C	1.110495	-0.612473	-0.401626
C89	C	1.443829	-0.279139	-0.068293
C90	C	1.777162	0.054194	0.265041
C91	C	1.110522	-0.683161	-0.401640
C92	C	1.443855	-0.349828	-0.068307
C93	C	1.777189	-0.016494	0.265027
C94	C	1.063499	-0.718569	-0.354540
C95	C	1.396833	-0.385235	-0.021207
C96	C	1.730166	-0.051902	0.312127
C97	C	1.016442	-0.683284	-0.307428
C98	C	1.349775	-0.349951	0.025905
C99	C	1.683108	-0.016617	0.359238
C100	C	1.016412	-0.612597	-0.307419
C101	C	1.349745	-0.279263	0.025914
C102	C	1.683079	0.054070	0.359248
C103	C	1.016560	-0.968357	-0.307466
C104	C	1.349893	-0.635024	0.025867
C105	C	1.683227	-0.301690	0.359201
C106	C	1.016595	-1.039049	-0.307478
C107	C	1.349928	-0.705716	0.025856
C108	C	1.683262	-0.372383	0.359189
C109	C	1.110670	-1.038921	-0.401687
C110	C	1.444003	-0.705588	-0.068354
C111	C	1.777336	-0.372255	0.264980
C112	C	1.110640	-0.968234	-0.401678
C113	C	1.443973	-0.634901	-0.068344
C114	C	1.777307	-0.301568	0.264989
C115	C	1.063580	-0.932956	-0.354569
C116	C	1.396913	-0.599623	-0.021236
C117	C	1.730247	-0.266289	0.312098
C118	C	1.063551	-0.856307	-0.354556
C119	C	1.396884	-0.522974	-0.021223
C120	C	1.730218	-0.189641	0.312111
C121	C	1.063532	-0.795216	-0.354549
C122	C	1.396865	-0.461882	-0.021216
C123	C	1.730198	-0.128549	0.312118
C124	C	1.255448	-0.326126	-0.354544
C125	C	1.588782	0.007207	-0.021210
C126	C	1.922115	0.340540	0.312123
C127	C	1.337247	-0.326135	-0.354549
C128	C	1.670580	0.007198	-0.021216
C129	C	2.003914	0.340531	0.312117
C130	C	1.063540	-0.326058	-0.546483
C131	C	1.396874	0.007275	-0.213150
C132	C	1.730207	0.340608	0.120183
C133	C	1.063559	-0.326038	-0.628282
C134	C	1.396893	0.007295	-0.294949
C135	C	1.730226	0.340628	0.038385
C136	C	1.063600	-0.149562	-0.354573
C137	C	1.396933	0.183771	-0.021240
C138	C	1.730266	0.517104	0.312094
C139	C	1.063644	-0.074330	-0.354591
C140	C	1.396977	0.259003	-0.021258
C141	C	1.730311	0.592336	0.312075
C142	C	1.110671	-0.282713	-0.816491
C143	C	1.444004	0.050621	-0.483158
C144	C	1.777338	0.383954	-0.149824
C145	C	1.110680	-0.282693	-0.893350
C146	C	1.444013	0.050640	-0.560017
C147	C	1.777346	0.383974	-0.226683
C148	C	1.016500	-0.369259	-0.893311
C149	C	1.349833	-0.035926	-0.559978
C150	C	1.683166	0.297407	-0.226644
C151	C	1.016488	-0.369275	-0.816454
C152	C	1.349821	-0.035942	-0.483120
C153	C	1.683154	0.297391	-0.149787
C154	C	1.063578	-0.326003	-0.778046
C155	C	1.396911	0.007330	-0.444712
C156	C	1.730244	0.340664	-0.111379
C157	C	1.063598	-0.325967	-0.931762
C158	C	1.396932	0.007366	-0.598429
C159	C	1.730265	0.340699	-0.265095
C160	C	1.063607	-0.325946	-1.015096
C161	C	1.396941	0.007387	-0.681762
C162	C	1.730274	0.340720	-0.348429
C163	C	1.063568	-0.326023	-0.694707
C164	C	1.396901	0.007310	-0.361373
C165	C	1.730234	0.340644	-0.028040
C166	C	1.063493	-0.326103	-0.163324
C167	C	1.396826	0.007231	0.170009
C168	C	1.730160	0.340564	0.503343
C169	C	1.063617	-0.325932	-0.081525
C170	C	1.396950	0.007402	0.251808
C171	C	1.730283	0.340735	0.585141
H172	H	0.633642	-0.247672	-0.440074
H173	H	0.966976	0.085661	-0.106741
H174	H	1.300309	0.418994	0.226592
H175	H	1.148986	-1.067654	-0.440047
H176	H	1.482319	-0.734320	-0.106714
H177	H	1.815653	-0.400987	0.226619
Br178	Br	0.473368	-0.224214	-0.465673
Br179	Br	0.806702	0.109119	-0.132339
Br180	Br	1.140035	0.442453	0.200994
Br181	Br	1.174577	-0.223985	-0.764368
Br182	Br	1.507910	0.109348	-0.431035
Br183	Br	1.841243	0.442682	-0.097701
H184	H	1.148790	-0.583649	-0.439977
H185	H	1.482123	-0.250315	-0.106644
H186	H	1.815456	0.083018	0.226690
Br187	Br	1.174369	-0.731038	-0.465590
Br188	Br	1.507702	-0.397705	-0.132256
Br189	Br	1.841035	-0.064372	0.201077
H190	H	0.978096	-0.583873	-0.269059
H191	H	1.311430	-0.250539	0.064275
H192	H	1.644763	0.082794	0.397608
Br193	Br	1.174462	-0.920185	-0.465597
Br194	Br	1.507796	-0.586851	-0.132264
Br195	Br	1.841129	-0.253518	0.201069
Br196	Br	1.174601	-0.223944	-0.945523
Br197	Br	1.507934	0.109389	-0.612190
Br198	Br	1.841267	0.442722	-0.278857
Br199	Br	0.952564	-0.428024	-0.764273
Br200	Br	1.285897	-0.094691	-0.430939
Br201	Br	1.619231	0.238642	-0.097606
H202	H	0.978162	-0.404492	-0.924592
H203	H	1.311496	-0.071158	-0.591259
H204	H	1.644829	0.262175	-0.257926
H205	H	0.978300	-1.067876	-0.269122
H206	H	1.311633	-0.734543	0.064211
H207	H	1.644967	-0.401209	0.397545
H208	H	0.978244	-0.939639	-0.269107
H209	H	1.311577	-0.606306	0.064226
H210	H	1.644910	-0.272972	0.397559
Br211	Br	0.654381	-0.428000	-0.243382
Br212	Br	0.987714	-0.094667	0.089951
Br213	Br	1.321047	0.238666	0.423284
Br214	Br	0.473213	-0.428024	-0.243404
Br215	Br	0.806546	-0.094690	0.089929
Br216	Br	1.139879	0.238643	0.423263
H217	H	0.978152	-0.712118	-0.269082
H218	H	1.311485	-0.378785	0.064252
H219	H	1.644819	-0.045452	0.397585
