data_functionalizedCrystal
_audit_creation_method	'MofGen! by Chris Wilmer'
_symmetry_space_group_name_H-M	'P1'
_symmetry_Int_Tables_number	1
_symmetry_cell_setting	triclinic
loop_
_symmetry_equiv_pos_as_xyz
  x,y,z
_cell_length_a	6.817900
_cell_length_b	17.284672
_cell_length_c	14.125465
_cell_angle_alpha	92.471714
_cell_angle_beta	100.398878
_cell_angle_gamma	103.040903
loop_
_atom_site_label
_atom_site_type_symbol
_atom_site_fract_x
_atom_site_fract_y
_atom_site_fract_z
V1	V	-3.985440	-0.108399	-0.291825
O2	O	-3.979828	0.005906	-0.294710
O3	O	-3.931384	-0.215608	-0.281712
O4	O	-3.921689	-0.106426	-0.422804
O5	O	-3.989591	-0.104032	-0.152642
V6	V	-4.471790	-0.094763	-0.276164
O7	O	-4.240497	-0.138311	-0.326180
O8	O	-4.666930	-0.064851	-0.241809
O9	O	-4.302639	0.012445	-0.286277
O10	O	-4.594799	-0.209069	-0.273279
O11	O	-4.585037	-0.099131	-0.415347
O12	O	-4.312334	-0.096736	-0.145185
C13	C	-3.775506	-0.241753	-0.275014
C14	C	-3.812493	-0.329395	-0.267618
C15	C	-3.859108	-0.381632	-0.351415
C16	C	-3.893841	-0.463980	-0.344457
C17	C	-3.881971	-0.494090	-0.253701
C18	C	-3.835345	-0.441846	-0.169898
C19	C	-3.800600	-0.359500	-0.176856
C20	C	-3.982739	-0.739183	-0.223530
C21	C	-4.017495	-0.821536	-0.216577
C22	C	-4.075984	-0.843664	-0.391137
C23	C	-4.041247	-0.761315	-0.398088
C24	C	-3.994614	-0.709078	-0.314285
N25	N	-3.917479	-0.578262	-0.246586
N26	N	-3.959093	-0.624907	-0.321400
C27	C	-3.763138	-0.102479	-0.454989
C28	C	-3.792261	-0.101576	-0.562011
C29	C	-3.845641	-0.099918	-0.757959
C30	C	-4.030958	-0.103243	-0.810030
C31	C	-4.060662	-0.102321	-0.919062
C32	C	-3.815930	-0.100840	-0.648917
C33	C	-4.121860	0.038586	-0.292972
C34	C	-4.064110	0.126228	-0.300374
C35	C	-4.134228	-0.100686	-0.112995
C36	C	-4.084344	-0.101586	-0.005972
H37	H	-3.868805	-0.357124	-0.425318
C38	C	-4.053995	-0.728188	-0.497909
H39	H	-4.026551	-0.671663	-0.490050
H40	H	-3.955599	-0.743698	-0.529655
H41	H	-4.187644	-0.748759	-0.535601
C42	C	-4.215165	-0.108031	-0.759645
H43	H	-4.335343	-0.109992	-0.806656
H44	H	-4.234067	-0.154690	-0.725921
H45	H	-4.189729	-0.062351	-0.715280
C46	C	-3.661463	-0.095147	-0.808351
H47	H	-3.705915	-0.095154	-0.876085
H48	H	-3.560240	-0.047509	-0.784720
H49	H	-3.604637	-0.139850	-0.795356
C50	C	-3.822291	-0.474965	-0.070068
H51	H	-3.849682	-0.531490	-0.077924
H52	H	-3.688581	-0.454362	-0.032467
H53	H	-3.920602	-0.459484	-0.038231
H54	H	-3.931797	-0.506508	-0.412693
H55	H	-4.113950	-0.886203	-0.459365
C56	C	-3.931443	-0.681733	-0.131349
H57	H	-3.929368	-0.711463	-0.076305
H58	H	-3.800665	-0.646592	-0.127558
H59	H	-4.032679	-0.651708	-0.133306
C60	C	-4.004428	-0.854655	-0.116742
H61	H	-3.971661	-0.811751	-0.067827
H62	H	-4.132771	-0.888879	-0.113277
H63	H	-3.900755	-0.883758	-0.107528
H64	H	-3.762633	-0.316968	-0.108619
