data_functionalizedCrystal
_audit_creation_method	'MofGen! by Chris Wilmer'
_symmetry_space_group_name_H-M	'P1'
_symmetry_Int_Tables_number	1
_symmetry_cell_setting	triclinic
loop_
_symmetry_equiv_pos_as_xyz
  x,y,z
_cell_length_a	12.759401
_cell_length_b	12.759400
_cell_length_c	12.759393
_cell_angle_alpha	89.970195
_cell_angle_beta	89.980324
_cell_angle_gamma	90.015071
loop_
_atom_site_label
_atom_site_type_symbol
_atom_site_fract_x
_atom_site_fract_y
_atom_site_fract_z
Zn1	Zn	1.606267	-0.418204	-0.593990
Zn2	Zn	1.606158	-0.593919	-0.418312
Zn3	Zn	1.430565	-0.418256	-0.418329
Zn4	Zn	1.430558	-0.593842	-0.593953
O5	O	1.518387	-0.506055	-0.506146
O6	O	1.753273	-0.441523	-0.570694
O7	O	1.582823	-0.570671	-0.271293
O8	O	1.453921	-0.271228	-0.441653
O9	O	1.753193	-0.570620	-0.441624
O10	O	1.583008	-0.271189	-0.570710
O11	O	1.453816	-0.441612	-0.271305
O12	O	1.283543	-0.441538	-0.441617
O13	O	1.453908	-0.570489	-0.740979
O14	O	1.283538	-0.570540	-0.570648
O15	O	1.583001	-0.441448	-0.741006
O16	O	1.582815	-0.740930	-0.441589
O17	O	1.453802	-0.740874	-0.570632
C18	C	1.245420	-0.506037	-0.506131
C19	C	1.128643	-0.506055	-0.506150
C20	C	1.073823	-0.438955	-0.573460
C21	C	0.964099	-0.438966	-0.573467
C22	C	0.964024	-0.573185	-0.438850
C23	C	1.073746	-0.573168	-0.438839
C24	C	1.518325	-0.779023	-0.506127
C25	C	1.518394	-0.895799	-0.506154
C26	C	1.585581	-0.950551	-0.573412
C27	C	1.585640	-1.060275	-0.573440
C28	C	1.451323	-1.060486	-0.438945
C29	C	1.451260	-0.950764	-0.438923
C30	C	1.623201	-1.210104	-0.697409
C31	C	1.690404	-1.264860	-0.764657
C32	C	1.792889	-1.229151	-0.780867
C33	C	1.828193	-1.138688	-0.729814
C34	C	1.760996	-1.083938	-0.662559
C35	C	1.658496	-1.119645	-0.646368
C36	C	1.413709	-0.800933	-0.314953
C37	C	1.346516	-0.746181	-0.247691
C38	C	1.244029	-0.781887	-0.231470
C39	C	1.208729	-0.872354	-0.282504
C40	C	1.275922	-0.927106	-0.349766
C41	C	1.378408	-0.891392	-0.365989
C42	C	1.792420	-0.506074	-0.506161
C43	C	1.909197	-0.506082	-0.506168
C44	C	1.518466	-0.505954	-0.780179
C45	C	1.518499	-0.505911	-0.896956
C46	C	1.518478	-0.232022	-0.506188
C47	C	1.518517	-0.115245	-0.506205
C48	C	1.585723	-0.438709	-0.951834
C49	C	1.585740	-0.438664	-1.061558
C50	C	1.451308	-0.573032	-1.061517
C51	C	1.451286	-0.573072	-0.951795
C52	C	1.518369	-0.506080	-0.233179
C53	C	1.518539	-0.505827	-0.116402
H54	H	1.118517	-0.384304	-0.628265
H55	H	1.189323	-0.737299	-0.176696
H56	H	1.911652	-1.109628	-0.743009
H57	H	1.396588	-0.627714	-1.106180
H58	H	1.118382	-0.627810	-0.384021
H59	H	0.919470	-0.384325	-0.628276
H60	H	1.789740	-1.010287	-0.620990
C61	C	1.377343	-0.647005	-0.891425
H62	H	1.337329	-0.687009	-0.939798
H63	H	1.331572	-0.606830	-0.848619
H64	H	1.417521	-0.692801	-0.848625
C65	C	0.903635	-0.647013	-0.364824
H66	H	0.830436	-0.637422	-0.374478
H67	H	0.921584	-0.631553	-0.294257
H68	H	0.921619	-0.717621	-0.380087
H69	H	1.640244	-0.905802	-0.628157
H70	H	1.640449	-0.384020	-0.907187
H71	H	1.847606	-1.273741	-0.835623
H72	H	1.661650	-1.338515	-0.806224
C73	C	1.510465	-1.249386	-0.679583
H74	H	1.499076	-1.311110	-0.719606
H75	H	1.462231	-1.196797	-0.700791
H76	H	1.500546	-1.264509	-0.607346
H77	H	1.247172	-1.000768	-0.391321
C78	C	1.659691	-0.364746	-1.121919
H79	H	1.699720	-0.324762	-1.073541
H80	H	1.619532	-0.318946	-1.164723
H81	H	1.705464	-0.404933	-1.164721
C82	C	1.377492	-1.120950	-0.364986
H83	H	1.387159	-1.194138	-0.374622
H84	H	1.306882	-1.103020	-0.380292
H85	H	1.392904	-1.103002	-0.294402
C86	C	1.095993	-0.911634	-0.264668
H87	H	1.061028	-0.866064	-0.217309
H88	H	1.097850	-0.980383	-0.236125
H89	H	1.059540	-0.912667	-0.329568
H90	H	1.375268	-0.672522	-0.206131
C91	C	1.526450	-0.761659	-0.332794
H92	H	1.561407	-0.807218	-0.380169
H93	H	1.562900	-0.760628	-0.267899
H94	H	1.524592	-0.692904	-0.361338
