data_functionalizedCrystal
_audit_creation_method	'MofGen! by Chris Wilmer'
_symmetry_space_group_name_H-M	'P1'
_symmetry_Int_Tables_number	1
_symmetry_cell_setting	triclinic
loop_
_symmetry_equiv_pos_as_xyz
  x,y,z
_cell_length_a	15.995300
_cell_length_b	15.995292
_cell_length_c	11.804365
_cell_angle_alpha	101.831146
_cell_angle_beta	78.152573
_cell_angle_gamma	83.470212
loop_
_atom_site_label
_atom_site_type_symbol
_atom_site_fract_x
_atom_site_fract_y
_atom_site_fract_z
O1	O	1.127915	0.090813	-0.099064
O2	O	0.884130	0.104186	-0.099056
O3	O	1.012712	-0.024393	-0.099062
O4	O	0.999333	0.219392	-0.099058
O5	O	0.978861	0.009423	0.098996
O6	O	0.850279	0.138002	0.099002
O7	O	1.094064	0.124629	0.098994
Cu8	Cu	0.969081	0.134403	0.117082
Cu9	Cu	1.009113	0.094412	-0.117144
O10	O	0.965482	0.253208	0.099000
C11	C	0.836009	0.120549	-0.000026
C12	C	0.743056	0.118914	-0.000023
C13	C	0.572875	0.115893	-0.000032
C14	C	0.525390	0.207444	-0.000028
C15	C	0.428780	0.205697	-0.000481
C16	C	0.405321	0.112920	-0.000040
C17	C	0.465755	0.048226	-0.112918
C18	C	0.562404	0.050527	-0.113010
C19	C	0.524187	0.087628	0.112226
C20	C	0.426990	0.087889	0.113707
C21	C	0.310627	0.111234	-0.000048
C22	C	0.667571	0.117575	-0.000032
C23	C	0.995243	-0.038681	-0.000036
C24	C	0.993612	-0.131635	-0.000045
C25	C	0.987609	-0.469371	-0.000034
C26	C	1.080340	-0.446000	0.000406
C27	C	1.082181	-0.349402	-0.000045
C28	C	0.990587	-0.301816	-0.000039
C29	C	0.963518	-0.350218	-0.113134
C30	C	0.962416	-0.447024	-0.113224
C31	C	0.922026	-0.408426	0.112004
C32	C	0.925211	-0.311679	0.113495
C33	C	0.992267	-0.207121	-0.000045
C34	C	0.985928	-0.564066	-0.000035
C35	C	1.142186	0.108266	-0.000039
C36	C	1.235140	0.109899	-0.000049
C37	C	0.982952	0.267496	-0.000029
C38	C	0.984584	0.360448	-0.000027
N39	N	0.940930	0.162530	0.281824
N40	N	1.037271	0.066278	-0.281886
C41	C	1.104870	-0.001282	0.655765
C42	C	1.126165	-0.022563	0.531102
C43	C	1.079858	0.023708	0.468777
C44	C	1.012253	0.091265	0.531126
C45	C	0.990960	0.112554	0.655801
C46	C	0.965948	0.137543	0.468812
C47	C	0.898343	0.205100	0.531162
C48	C	0.877053	0.226385	0.655824
C49	C	0.923360	0.180113	0.718150
C50	C	0.987241	0.116255	0.344137
C51	C	0.873330	0.230090	0.344173
C52	C	0.852036	0.251372	0.468836
H53	H	0.555797	0.020314	0.113311
H54	H	0.410444	0.021414	0.120855
H55	H	0.558805	0.229888	-0.080851
F56	F	1.198113	-0.094458	0.464750
F57	F	1.024436	-0.342794	-0.223152
H58	H	1.142572	-0.038945	0.706519
F59	F	0.900693	0.202760	0.850832
H60	H	0.796990	0.306379	0.519616
F61	F	0.410549	0.233981	-0.106860
F62	F	1.108981	-0.464501	0.106418
H63	H	0.595516	-0.017523	-0.117834
H64	H	1.042285	0.061250	0.293384
H65	H	0.530054	0.132381	0.197809
H66	H	0.895245	-0.462436	-0.118344
F67	F	0.824046	0.279342	0.277847
H68	H	0.386482	0.255199	0.080417
F69	F	0.605263	0.074411	-0.223715
H70	H	1.129698	-0.488795	-0.080247
H71	H	0.822012	0.281400	0.706589
H72	H	0.452333	-0.020662	-0.116800
H73	H	0.385370	0.135317	0.197216
F74	F	0.876362	-0.309486	-0.118632
H75	H	0.530041	0.258054	0.080905
F76	F	0.447549	0.070166	-0.223132
F77	F	1.111547	-0.306444	0.105933
F78	F	0.836299	-0.267047	0.122431
F79	F	1.148099	-0.343475	-0.106202
H80	H	0.936601	-0.421883	0.197731
F81	F	0.950674	-0.268743	0.222857
F82	F	1.023309	-0.500953	-0.223727
F83	F	0.832566	-0.426525	0.113009
H84	H	1.097200	0.006377	0.367270
