data_functionalizedCrystal
_audit_creation_method	'MofGen! by Chris Wilmer'
_symmetry_space_group_name_H-M	'P1'
_symmetry_Int_Tables_number	1
_symmetry_cell_setting	triclinic
loop_
_symmetry_equiv_pos_as_xyz
  x,y,z
_cell_length_a	12.759399
_cell_length_b	12.759401
_cell_length_c	12.759393
_cell_angle_alpha	89.980441
_cell_angle_beta	90.031418
_cell_angle_gamma	89.986329
loop_
_atom_site_label
_atom_site_type_symbol
_atom_site_fract_x
_atom_site_fract_y
_atom_site_fract_z
Zn1	Zn	-0.418256	-1.606249	0.594012
Zn2	Zn	-0.593975	-1.606141	0.418333
Zn3	Zn	-0.418305	-1.430551	0.418348
Zn4	Zn	-0.593888	-1.430537	0.593971
O5	O	-0.506106	-1.518370	0.506166
O6	O	-0.441582	-1.753256	0.570719
O7	O	-0.570729	-1.582809	0.271314
O8	O	-0.271278	-1.453909	0.441674
O9	O	-0.570682	-1.753177	0.441648
O10	O	-0.271242	-1.582994	0.570734
O11	O	-0.441665	-1.453804	0.271325
O12	O	-0.441581	-1.283528	0.441634
O13	O	-0.570533	-1.453886	0.740998
O14	O	-0.570581	-1.283518	0.570663
O15	O	-0.441497	-1.582980	0.741028
O16	O	-0.740985	-1.582796	0.441608
O17	O	-0.740921	-1.453781	0.570648
C18	C	-0.506077	-1.245402	0.506147
C19	C	-0.506090	-1.128626	0.506163
C20	C	-0.573366	-1.073786	0.573237
C21	C	-0.573375	-0.964062	0.573246
C22	C	-0.438830	-0.964027	0.439100
C23	C	-0.438816	-1.073749	0.439096
C24	C	-0.651048	-1.073805	0.650682
C25	C	-0.651058	-0.964081	0.650691
C26	C	-0.779073	-1.518304	0.506145
C27	C	-0.895850	-1.518371	0.506171
C28	C	-1.060327	-1.585622	0.573465
C29	C	-0.950603	-1.585557	0.573434
C30	C	-0.950827	-1.451252	0.438927
C31	C	-1.060549	-1.451323	0.438954
C32	C	-1.060196	-1.663159	0.651125
C33	C	-0.950472	-1.663094	0.651093
C34	C	-0.232073	-1.518465	0.506210
C35	C	-0.115296	-1.518506	0.506229
C36	C	-0.506000	-1.518443	0.780200
C37	C	-0.505955	-1.518475	0.896976
C38	C	-0.506127	-0.792403	0.506181
C39	C	-0.506113	-0.909180	0.506176
C40	C	-0.506136	-1.518357	0.233199
C41	C	-0.505885	-1.518529	0.116423
C42	C	-0.438760	-1.585704	0.951856
C43	C	-0.438722	-1.585729	1.061580
C44	C	-0.573083	-1.451293	1.061535
C45	C	-0.573115	-1.451263	0.951813
C46	C	-0.361190	-1.663322	0.951882
C47	C	-0.361152	-1.663347	1.061607
H48	H	-0.622012	-0.930084	0.728043
H49	H	-1.105301	-1.396681	0.384194
H50	H	-0.906241	-1.396554	0.384153
N51	N	-0.366289	-0.904839	0.366750
H52	H	-0.376508	-0.827008	0.376925
H53	H	-0.382566	-0.923995	0.291692
N54	N	-0.622311	-1.113298	0.758511
H55	H	-0.550253	-1.086957	0.778003
H56	H	-0.622356	-1.192452	0.758475
N57	N	-1.099579	-1.770977	0.622367
H58	H	-1.038012	-1.819041	0.609508
H59	H	-1.143639	-1.766283	0.556751
N60	N	-0.753371	-1.118872	0.611889
H61	H	-0.802822	-1.059945	0.593150
H62	H	-0.785710	-1.163468	0.668720
H63	H	-0.732406	-0.934284	0.628759
N64	N	-0.399809	-1.765680	0.906791
H65	H	-0.398422	-1.761922	0.827735
H66	H	-0.473885	-1.778972	0.931270
N67	N	-0.910952	-1.634144	0.758835
H68	H	-0.972458	-1.621263	0.806935
H69	H	-0.867005	-1.568499	0.754004
N70	N	-0.645549	-1.378713	0.892619
H71	H	-0.688080	-1.336134	0.944010
H72	H	-0.694204	-1.421414	0.847069
H73	H	-1.094193	-1.633978	0.728395
H74	H	-0.283842	-1.634235	1.095654
N75	N	-0.390020	-1.771124	1.101066
H76	H	-0.402938	-1.819200	1.039534
H77	H	-0.455627	-1.766351	1.145058
H78	H	-0.916398	-1.740388	0.622010
H79	H	-0.279825	-1.641555	0.922126
N80	N	-0.366228	-1.132900	0.366781
H81	H	-0.323611	-1.081485	0.324302
H82	H	-0.408909	-1.178412	0.318075
N83	N	-0.645504	-1.378790	1.120681
H84	H	-0.635282	-1.389002	1.198518
H85	H	-0.720552	-1.395095	1.101495
