data_functionalizedCrystal
_audit_creation_method	'MofGen! by Chris Wilmer'
_symmetry_space_group_name_H-M	'P1'
_symmetry_Int_Tables_number	1
_symmetry_cell_setting	triclinic
loop_
_symmetry_equiv_pos_as_xyz
  x,y,z
_cell_length_a	8.559649
_cell_length_b	7.088929
_cell_length_c	17.699083
_cell_angle_alpha	83.788102
_cell_angle_beta	103.469161
_cell_angle_gamma	84.675495
loop_
_atom_site_label
_atom_site_type_symbol
_atom_site_fract_x
_atom_site_fract_y
_atom_site_fract_z
O1	O	2.103792	0.158979	0.016947
O2	O	1.638435	0.158986	-0.022150
O3	O	1.884263	0.158965	0.108341
O4	O	1.857965	0.159000	-0.113545
O5	O	1.917115	-0.159012	0.125815
O6	O	1.671288	-0.158992	-0.004676
O7	O	2.136644	-0.158999	0.034421
Cu8	Cu	1.906966	-0.188029	0.016468
Cu9	Cu	1.868114	0.188016	-0.004197
O10	O	1.890817	-0.158978	-0.096071
C11	C	1.595320	-0.000002	-0.016376
C12	C	1.417906	0.000000	-0.025195
N13	N	1.934304	-0.452520	0.031004
C14	C	2.179759	-0.000007	0.028646
C15	C	2.357172	0.000004	0.037465
C16	C	1.899747	-0.000024	0.145221
C17	C	1.896920	-0.000025	0.229078
N18	N	1.840789	0.452507	-0.018726
C19	C	1.875332	0.000015	-0.132951
C20	C	1.878158	0.000028	-0.216808
C21	C	2.041215	-0.000029	0.285960
C22	C	2.038548	-0.000013	0.364750
C23	C	1.891586	-0.000004	0.386656
C24	C	1.747279	0.000006	0.329766
C25	C	1.749947	0.000003	0.250977
C26	C	1.736518	0.000022	0.647512
C27	C	1.733863	0.000020	0.726309
C28	C	2.025120	0.000006	0.761285
C29	C	2.027787	0.000003	0.682496
C30	C	1.883481	0.000024	0.625613
C31	C	1.886374	0.000009	0.540180
C32	C	1.888692	-0.000003	0.472088
H33	H	1.440914	-0.000005	0.097863
H34	H	1.614182	0.000023	0.744140
C35	C	2.065249	-0.562818	0.100626
H36	H	2.120967	-0.474671	0.130251
H37	H	2.015806	-0.640928	0.133025
H38	H	2.139781	-0.640881	0.081549
C39	C	2.202876	-0.000038	0.261871
H40	H	2.288427	-0.000021	0.307034
H41	H	2.221432	-0.110924	0.237959
H42	H	2.198511	0.110862	0.225766
C43	C	1.709857	-0.437194	-0.088345
H44	H	1.711717	-0.303688	-0.087344
H45	H	1.730520	-0.469896	-0.136054
H46	H	1.606543	-0.469923	-0.084580
H47	H	2.156048	-0.000021	0.411063
H48	H	2.147460	-0.000013	0.664667
C49	C	2.183854	0.000015	0.823857
H50	H	2.161223	0.000041	0.873918
H51	H	2.255585	-0.110873	0.824230
H52	H	2.232665	0.110913	0.812029
C53	C	1.577792	0.000011	0.584953
H54	H	1.489892	-0.000010	0.609288
H55	H	1.561305	0.110892	0.547390
H56	H	1.584242	-0.110894	0.559592
C57	C	1.585618	0.000030	0.353856
H58	H	1.500061	0.000054	0.308691
H59	H	1.589969	-0.110851	0.389962
H60	H	1.567076	0.110935	0.377766
C61	C	1.304804	0.000036	-0.106787
H62	H	1.366692	0.000045	-0.144916
H63	H	1.250411	-0.110832	-0.106804
H64	H	1.227538	0.110954	-0.118985
C65	C	1.591223	0.000004	0.188407
H66	H	1.503317	-0.000007	0.212737
H67	H	1.574755	0.110889	0.150848
H68	H	1.597667	-0.110897	0.163042
