data_functionalizedCrystal
_audit_creation_method	'MofGen! by Chris Wilmer'
_symmetry_space_group_name_H-M	'P1'
_symmetry_Int_Tables_number	1
_symmetry_cell_setting	triclinic
loop_
_symmetry_equiv_pos_as_xyz
  x,y,z
_cell_length_a	15.538191
_cell_length_b	15.995350
_cell_length_c	14.750779
_cell_angle_alpha	77.359549
_cell_angle_beta	97.572172
_cell_angle_gamma	65.382234
loop_
_atom_site_label
_atom_site_type_symbol
_atom_site_fract_x
_atom_site_fract_y
_atom_site_fract_z
O1	O	1.229458	-0.247558	-0.079847
O2	O	0.955200	-0.150879	-0.079843
O3	O	1.099826	-0.323385	-0.079844
O4	O	1.084832	-0.075052	-0.079846
O5	O	1.140710	-0.372146	0.079806
O6	O	0.996084	-0.199640	0.079807
O7	O	1.270342	-0.296319	0.079803
Zn8	Zn	1.139704	-0.255722	0.105153
Zn9	Zn	1.085838	-0.191476	-0.105193
O10	O	1.125716	-0.123813	0.079804
C11	C	0.940547	-0.165145	-0.000017
C12	C	0.835974	-0.135015	-0.000016
C13	C	0.548180	-0.434345	-0.000029
C14	C	0.449914	-0.406012	-0.000030
C15	C	0.427471	-0.246646	-0.000030
C16	C	0.525738	-0.274967	-0.000025
C17	C	0.586085	-0.368818	-0.000025
C18	C	0.563643	-0.209440	-0.000021
C19	C	0.661900	-0.237757	-0.000021
C20	C	0.722253	-0.331603	-0.000024
C21	C	0.684342	-0.397135	-0.000025
C22	C	0.503293	-0.115588	-0.000028
C23	C	0.541198	-0.050060	-0.000024
C24	C	0.639459	-0.078380	-0.000017
C25	C	0.699811	-0.172225	-0.000020
C26	C	0.677369	-0.012847	-0.000016
C27	C	0.775627	-0.041165	-0.000015
C28	C	0.798068	-0.200543	-0.000019
C29	C	1.119648	-0.378771	-0.000021
C30	C	1.117788	-0.471155	-0.000026
C31	C	1.111115	-0.806875	-0.000023
C32	C	1.008023	-0.728029	-0.000379
C33	C	1.009974	-0.632013	-0.000020
C34	C	1.114425	-0.640320	-0.000025
C35	C	1.188574	-0.724682	0.091140
C36	C	1.186007	-0.820555	0.091216
C37	C	1.141642	-0.766109	-0.090335
C38	C	1.141309	-0.668788	-0.091540
C39	C	1.116302	-0.546194	-0.000023
C40	C	1.109243	-0.901005	-0.000019
C41	C	1.284995	-0.282053	-0.000025
C42	C	1.389566	-0.312180	-0.000033
C43	C	1.105894	-0.068426	-0.000021
C44	C	1.107752	0.023960	-0.000022
N45	N	1.176474	-0.299570	0.248708
N46	N	1.049076	-0.147637	-0.248748
C47	C	0.946384	-0.025213	0.600529
C48	C	0.972157	-0.055935	0.701028
C49	C	1.100250	-0.208655	0.700989
C50	C	1.074485	-0.177947	0.600488
C51	C	0.997552	-0.086225	0.550266
C52	C	1.125653	-0.238959	0.550225
C53	C	1.099893	-0.208251	0.449733
C54	C	1.022965	-0.116531	0.399504
C55	C	0.971792	-0.055517	0.449774
C56	C	1.202589	-0.330678	0.600449
C57	C	1.253757	-0.391690	0.550186
C58	C	1.227993	-0.360985	0.449692
C59	C	1.151066	-0.269266	0.399463
C60	C	1.279166	-0.422000	0.399422
C61	C	1.253406	-0.391292	0.298930
C62	C	1.125306	-0.238558	0.298971
H63	H	0.492049	0.026354	-0.000028
H64	H	1.216069	-0.674893	-0.097049
H65	H	1.001996	-0.091529	0.317677
H66	H	1.170663	-0.706299	0.158986
H67	H	0.983687	-0.755023	0.064634
H68	H	1.341811	-0.496678	0.440326
C69	C	0.408222	-0.478099	-0.000032
H70	H	0.458239	-0.538048	-0.000027
H71	H	0.356101	-0.453360	-0.055705
H72	H	0.384618	-0.487375	0.055649
C73	C	0.614566	-0.537578	-0.000034
H74	H	0.577919	-0.572551	-0.000041
H75	H	0.667624	-0.568943	0.055636
H76	H	0.639096	-0.534921	-0.055718
C77	C	0.361087	-0.143420	-0.000024
H78	H	0.297140	-0.135940	-0.000018
H79	H	0.358323	-0.098308	-0.055692
H80	H	0.386839	-0.132334	0.055662
H81	H	0.909140	0.019169	0.408881
H82	H	0.806491	0.012192	-0.000003
C83	C	0.978327	-0.604877	0.088422
H84	H	0.964235	-0.652564	0.124276
H85	H	0.921571	-0.544031	0.068101
H86	H	1.029667	-0.601314	0.127469
H87	H	1.295074	-0.440975	0.258006
C88	C	1.184867	-0.309545	0.756238
H89	H	1.192877	-0.319099	0.823287
H90	H	1.243508	-0.314496	0.739752
H91	H	1.170404	-0.357289	0.739769
H92	H	0.930484	-0.006243	0.741947
C93	C	1.072243	-0.751511	-0.183682
H94	H	1.023996	-0.770144	-0.168445
H95	H	1.108575	-0.789925	-0.219283
H96	H	1.041321	-0.685445	-0.220896
C97	C	0.861757	0.075680	0.545278
H98	H	0.834972	0.107624	0.589604
H99	H	0.812505	0.069431	0.506081
H100	H	0.885599	0.112236	0.506073
H101	H	0.847208	-0.276967	-0.000014
C102	C	0.830335	-0.362759	-0.000025
H103	H	0.860842	-0.428034	-0.000033
H104	H	0.862679	-0.356741	0.055647
H105	H	0.834159	-0.322730	-0.055707
H106	H	1.223563	-0.355675	0.682276
H107	H	0.733482	-0.473559	-0.000019
H108	H	0.423285	-0.092534	-0.000031
H109	H	0.628218	0.063569	-0.000025
H110	H	1.217425	-0.820761	-0.090952
C111	C	1.067873	-0.588852	-0.182653
H112	H	1.021024	-0.538333	-0.165006
H113	H	1.035567	-0.614786	-0.218450
H114	H	1.101725	-0.564103	-0.220707
C115	C	1.159524	-0.858185	0.183273
H116	H	1.150429	-0.814849	0.220270
H117	H	1.210943	-0.920079	0.219723
H118	H	1.100844	-0.862822	0.166615
C119	C	0.933423	-0.550251	-0.088300
H120	H	0.934519	-0.491328	-0.088201
H121	H	0.870291	-0.544068	-0.086046
H122	H	0.948244	-0.564913	-0.145123
C123	C	0.929784	-0.709193	-0.088687
H124	H	0.959284	-0.749249	-0.126129
H125	H	0.901225	-0.643394	-0.126230
H126	H	0.880577	-0.723342	-0.068176
C127	C	1.289592	-0.896880	0.096817
H128	H	1.333057	-0.869212	0.099044
H129	H	1.288510	-0.918557	0.041845
H130	H	1.311123	-0.949952	0.153040
H131	H	1.266180	-0.734913	0.094526
C132	C	1.040671	-0.137671	0.243716
H133	H	1.032656	-0.128128	0.176668
H134	H	1.055105	-0.089914	0.260179
H135	H	0.982031	-0.132742	0.260201
H136	H	1.316399	-0.466370	0.591089
