data_functionalizedCrystal
_audit_creation_method	'MofGen! by Chris Wilmer'
_symmetry_space_group_name_H-M	'P1'
_symmetry_Int_Tables_number	1
_symmetry_cell_setting	triclinic
loop_
_symmetry_equiv_pos_as_xyz
  x,y,z
_cell_length_a	21.295419
_cell_length_b	21.295418
_cell_length_c	11.169409
_cell_angle_alpha	89.960289
_cell_angle_beta	89.976836
_cell_angle_gamma	90.042201
loop_
_atom_site_label
_atom_site_type_symbol
_atom_site_fract_x
_atom_site_fract_y
_atom_site_fract_z
Zn1	Zn	0.962361	-0.250310	-0.678588
Zn2	Zn	1.462361	0.249690	-0.178588
Zn3	Zn	0.962271	-0.355598	-0.477880
Zn4	Zn	1.462271	0.144402	0.022120
Zn5	Zn	0.857086	-0.250374	-0.477911
Zn6	Zn	1.357086	0.249626	0.022089
Zn7	Zn	0.857059	-0.355572	-0.678513
Zn8	Zn	1.357059	0.144428	-0.178513
O9	O	0.909694	-0.302963	-0.578223
O10	O	1.409694	0.197037	-0.078223
O11	O	1.050438	-0.264260	-0.651983
O12	O	1.550438	0.235740	-0.151983
O13	O	0.948292	-0.341677	-0.309934
O14	O	1.448292	0.158323	0.190066
O15	O	0.871100	-0.162276	-0.504576
O16	O	1.371100	0.337724	-0.004576
O17	O	1.050373	-0.341615	-0.504523
O18	O	1.550373	0.158385	-0.004523
O19	O	0.948445	-0.162229	-0.652013
O20	O	1.448445	0.337771	-0.152013
O21	O	0.871013	-0.264369	-0.309957
O22	O	1.371013	0.235631	0.190043
O23	O	0.768993	-0.264344	-0.504503
O24	O	1.268993	0.235656	-0.004503
O25	O	0.871053	-0.341571	-0.846473
O26	O	1.371053	0.158429	-0.346473
O27	O	0.768973	-0.341633	-0.651884
O28	O	1.268973	0.158367	-0.151884
O29	O	0.948418	-0.264235	-0.846528
O30	O	1.448418	0.235765	-0.346528
O31	O	0.948266	-0.443684	-0.504449
O32	O	1.448266	0.056316	-0.004449
O33	O	0.870967	-0.443665	-0.651853
O34	O	1.370967	0.056335	-0.151853
C35	C	0.746143	-0.302993	-0.578189
C36	C	1.246143	0.197007	-0.078189
C37	C	0.676175	-0.303022	-0.578203
C38	C	1.176175	0.196978	-0.078203
C39	C	0.643365	-0.262809	-0.655104
C40	C	1.143365	0.237191	-0.155104
C41	C	0.577622	-0.262792	-0.655109
C42	C	1.077622	0.237208	-0.155109
C43	C	0.544692	-0.302999	-0.578225
C44	C	1.044692	0.197001	-0.078225
C45	C	0.577510	-0.343215	-0.501309
C46	C	1.077510	0.156785	-0.001309
C47	C	0.643251	-0.343226	-0.501298
C48	C	1.143251	0.156774	-0.001298
N49	N	0.441420	-0.358078	-0.568848
N50	N	0.941420	0.141922	-0.068848
N51	N	0.378968	-0.358065	-0.568866
N52	N	0.878968	0.141935	-0.068866
C53	C	0.346617	-0.302966	-0.578252
C54	C	0.846617	0.197034	-0.078252
N55	N	0.379077	-0.247879	-0.587643
N56	N	0.879077	0.252121	-0.087643
N57	N	0.441534	-0.247892	-0.587632
N58	N	0.941534	0.252108	-0.087632
C59	C	0.473407	-0.302991	-0.578228
C60	C	0.973407	0.197009	-0.078228
C61	C	0.242522	-0.262732	-0.655162
C62	C	0.742522	0.237268	-0.155162
C63	C	0.176778	-0.262714	-0.655158
C64	C	0.676778	0.237286	-0.155158
C65	C	0.176667	-0.343142	-0.501365
C66	C	0.676667	0.156858	-0.001365
C67	C	0.242410	-0.343155	-0.501362
C68	C	0.742410	0.156845	-0.001362
C69	C	0.275333	-0.302950	-0.578267
C70	C	0.775333	0.197050	-0.078267
C71	C	0.909621	-0.466515	-0.578166
C72	C	1.409621	0.033485	-0.078166
C73	C	0.909647	-0.536483	-0.578181
C74	C	1.409647	-0.036483	-0.078181
C75	C	0.950095	-1.035930	-0.501663
C76	C	1.450095	-0.535930	-0.001663
C77	C	0.950071	-0.970187	-0.501635
C78	C	1.450071	-0.470187	-0.001635
C79	C	0.909783	-0.937322	-0.578307
C80	C	1.409783	-0.437322	-0.078307
C81	C	0.869504	-0.970205	-0.654992
C82	C	1.369504	-0.470205	-0.154992
C83	C	0.869525	-1.035947	-0.655009
C84	C	1.369525	-0.535947	-0.155009
N85	N	0.904893	-0.834062	-0.683327
N86	N	1.404893	-0.334062	-0.183327
N87	N	0.904877	-0.771610	-0.683307
N88	N	1.404877	-0.271610	-0.183307
C89	C	0.909717	-0.739248	-0.578257
C90	C	1.409717	-0.239248	-0.078257
N91	N	0.914587	-0.771696	-0.473225
N92	N	1.414587	-0.271696	0.026775
N93	N	0.914606	-0.834153	-0.473246
N94	N	1.414606	-0.334153	0.026754
C95	C	0.909756	-0.866037	-0.578296
C96	C	1.409756	-0.366037	-0.078296
C97	C	0.949964	-0.635087	-0.501540
C98	C	1.449964	-0.135087	-0.001540
C99	C	0.949936	-0.569343	-0.501510
C100	C	1.449936	-0.069343	-0.001510
C101	C	0.869373	-0.569363	-0.654877
C102	C	1.369373	-0.069363	-0.154877
C103	C	0.869398	-0.635105	-0.654897
C104	C	1.369398	-0.135105	-0.154897
C105	C	0.909697	-0.667963	-0.578230
C106	C	1.409697	-0.167963	-0.078230
C107	C	1.073885	-0.302933	-0.578257
C108	C	1.573885	0.197067	-0.078257
C109	C	1.143853	-0.302921	-0.578272
C110	C	1.643853	0.197079	-0.078272
C111	C	0.909743	-0.302893	-0.891266
C112	C	1.409743	0.197107	-0.391266
C113	C	0.909763	-0.302864	-1.024666
C114	C	1.409763	0.197136	-0.524666
C115	C	0.909785	-0.138773	-0.578307
C116	C	1.409785	0.361227	-0.078307
C117	C	0.909824	-0.068805	-0.578342
C118	C	1.409824	0.431195	-0.078342
C119	C	0.909682	-0.302987	-0.266398
C120	C	1.409682	0.197013	0.233602
C121	C	0.909784	-0.302840	-0.132999
C122	C	1.409784	0.197160	0.367001
H123	H	0.669965	-0.375973	-0.438674
H124	H	1.169965	0.124027	0.061326
C125	C	0.278740	-0.218505	-0.739742
C126	C	0.778740	0.281495	-0.239742
H127	H	0.249781	-0.194546	-0.785532
H128	H	0.749781	0.305454	-0.285532
H129	H	0.304376	-0.242620	-0.791950
H130	H	0.804376	0.257380	-0.291950
H131	H	0.304400	-0.191054	-0.693916
H132	H	0.804400	0.308946	-0.193916
H133	H	0.982778	-0.661842	-0.439112
H134	H	1.482778	-0.161842	0.060888
H135	H	0.150065	-0.229964	-0.717778
H136	H	0.650065	0.270036	-0.217778
H137	H	0.269124	-0.375903	-0.438746
H138	H	0.769124	0.124097	0.061254
C139	C	0.825230	-1.072111	-0.739369
C140	C	1.325230	-0.572111	-0.239369
H141	H	0.801234	-1.043124	-0.785035
H142	H	1.301234	-0.543124	-0.285035
H143	H	0.797826	-1.097809	-0.693420
H144	H	1.297826	-0.597809	-0.193420
H145	H	0.849310	-1.097704	-0.791720
H146	H	1.349310	-0.597704	-0.291720
C147	C	0.140452	-0.387372	-0.416799
C148	C	0.640452	0.112628	0.083201
H149	H	0.096599	-0.381610	-0.427824
H150	H	0.596599	0.118390	0.072176
H151	H	0.151213	-0.378119	-0.336188
H152	H	0.651213	0.121881	0.163812
H153	H	0.151193	-0.429681	-0.434231
H154	H	0.651193	0.070319	0.065769
H155	H	0.982908	-1.062679	-0.439231
H156	H	1.482908	-0.562679	0.060769
C157	C	0.994375	-0.934017	-0.417292
C158	C	1.494375	-0.434017	0.082708
H159	H	1.018381	-0.963002	-0.371641
H160	H	1.518381	-0.463002	0.128359
H161	H	0.970307	-0.908416	-0.364945
H162	H	1.470307	-0.408416	0.135055
H163	H	1.021779	-0.908326	-0.463267
H164	H	1.521779	-0.408326	0.036733
H165	H	0.836700	-0.943443	-0.717418
H166	H	1.336700	-0.443443	-0.217418
C167	C	0.825053	-0.533222	-0.739213
C168	C	1.325053	-0.033222	-0.239213
H169	H	0.801069	-0.562220	-0.784882
H170	H	1.301069	-0.062220	-0.284882
H171	H	0.849106	-0.507526	-0.791544
H172	H	1.349106	-0.007526	-0.291544
H173	H	0.797628	-0.507629	-0.693233
H174	H	1.297628	-0.007629	-0.193233
C175	C	0.994237	-0.533180	-0.417159
C176	C	1.494237	-0.033180	0.082841
H177	H	1.018243	-0.562168	-0.371514
H178	H	1.518243	-0.062168	0.128486
H179	H	0.970168	-0.507584	-0.364808
H180	H	1.470168	-0.007584	0.135192
H181	H	1.021642	-0.507486	-0.463127
H182	H	1.521642	-0.007486	0.036873
H183	H	0.836607	-0.661872	-0.717341
H184	H	1.336607	-0.161872	-0.217341
C185	C	0.679577	-0.218578	-0.739681
C186	C	1.179577	0.281422	-0.239681
H187	H	0.650617	-0.194621	-0.785473
H188	H	1.150617	0.305379	-0.285473
H189	H	0.705217	-0.242689	-0.791887
H190	H	1.205217	0.257311	-0.291887
H191	H	0.705232	-0.191124	-0.693849
H192	H	1.205232	0.308876	-0.193849
C193	C	0.541520	-0.218559	-0.739705
C194	C	1.041520	0.281441	-0.239705
H195	H	0.497652	-0.224309	-0.728691
H196	H	0.997652	0.275691	-0.228691
H197	H	0.552306	-0.227824	-0.820309
H198	H	1.052306	0.272176	-0.320309
H199	H	0.552326	-0.176252	-0.722286
H200	H	1.052326	0.323748	-0.222286
C201	C	0.541290	-0.387444	-0.416744
C202	C	1.041290	0.112556	0.083256
H203	H	0.497437	-0.381683	-0.427774
H204	H	0.997437	0.118317	0.072226
H205	H	0.552049	-0.378187	-0.336134
H206	H	1.052049	0.121813	0.163866
H207	H	0.552032	-0.429753	-0.434170
H208	H	1.052032	0.070247	0.065830
