data_functionalizedCrystal
_audit_creation_method	'MofGen! by Chris Wilmer'
_symmetry_space_group_name_H-M	'P1'
_symmetry_Int_Tables_number	1
_symmetry_cell_setting	triclinic
loop_
_symmetry_equiv_pos_as_xyz
  x,y,z
_cell_length_a	12.759401
_cell_length_b	18.101397
_cell_length_c	12.759393
_cell_angle_alpha	89.962348
_cell_angle_beta	89.981433
_cell_angle_gamma	90.019510
loop_
_atom_site_label
_atom_site_type_symbol
_atom_site_fract_x
_atom_site_fract_y
_atom_site_fract_z
Zn1	Zn	1.606213	-0.294805	-0.593939
Zn2	Zn	2.106213	0.205195	-0.093939
Zn3	Zn	1.606090	-0.418666	-0.418240
Zn4	Zn	2.106090	0.081334	0.081760
Zn5	Zn	1.430515	-0.294841	-0.418278
Zn6	Zn	1.930515	0.205159	0.081722
Zn7	Zn	1.430486	-0.418607	-0.593882
Zn8	Zn	1.930486	0.081393	-0.093882
O9	O	1.518326	-0.356730	-0.506085
O10	O	2.018326	0.143270	-0.006085
O11	O	1.753218	-0.311245	-0.570640
O12	O	2.253218	0.188755	-0.070640
O13	O	1.582760	-0.402281	-0.271224
O14	O	2.082760	0.097719	0.228776
O15	O	1.453886	-0.191203	-0.441620
O16	O	1.953886	0.308797	0.058380
O17	O	1.753127	-0.402246	-0.441555
O18	O	2.253127	0.097754	0.058445
O19	O	1.582970	-0.191177	-0.570677
O20	O	2.082970	0.308823	-0.070677
O21	O	1.453766	-0.311307	-0.271252
O22	O	1.953766	0.188693	0.228748
O23	O	1.283490	-0.311249	-0.441564
O24	O	1.783490	0.188751	0.058436
O25	O	1.453836	-0.402144	-0.740910
O26	O	1.953836	0.097856	-0.240910
O27	O	1.283469	-0.402180	-0.570579
O28	O	1.783469	0.097820	-0.070579
O29	O	1.582942	-0.311187	-0.740952
O30	O	2.082942	0.188813	-0.240952
O31	O	1.582732	-0.522291	-0.441500
O32	O	2.082732	-0.022291	0.058500
O33	O	1.453717	-0.522248	-0.570543
O34	O	1.953717	-0.022248	-0.070543
C35	C	1.245359	-0.356712	-0.506070
C36	C	1.745359	0.143288	-0.006070
C37	C	1.128582	-0.356723	-0.506089
C38	C	1.628582	0.143277	-0.006089
C39	C	1.073760	-0.309428	-0.573407
C40	C	1.573760	0.190572	-0.073407
C41	C	0.964036	-0.309442	-0.573414
C42	C	1.464036	0.190558	-0.073414
C43	C	0.963966	-0.404052	-0.438780
C44	C	1.463966	0.095948	0.061220
C45	C	1.073688	-0.404034	-0.438769
C46	C	1.573688	0.095966	0.061231
C47	C	1.128655	-0.262117	-0.640727
C48	C	1.628655	0.237883	-0.140727
C49	C	1.073833	-0.214820	-0.708052
C50	C	1.573833	0.285180	-0.208052
C51	C	0.964109	-0.214834	-0.708059
C52	C	1.464109	0.285166	-0.208059
C53	C	0.909207	-0.262146	-0.640740
C54	C	1.409207	0.237854	-0.140740
C55	C	1.518236	-0.549140	-0.506034
C56	C	2.018236	-0.049140	-0.006034
C57	C	1.518294	-0.631454	-0.506047
C58	C	2.018294	-0.131454	-0.006047
C59	C	1.518428	-0.930545	-0.506143
C60	C	2.018428	-0.430545	-0.006143
C61	C	1.599375	-0.899217	-0.424735
C62	C	2.099375	-0.399217	0.075265
C63	C	1.599655	-0.813598	-0.424946
C64	C	2.099655	-0.313598	0.075054
C65	C	1.518362	-0.782163	-0.506095
C66	C	2.018362	-0.282163	-0.006095
C67	C	1.548380	-0.813161	-0.616835
C68	C	2.048380	-0.313161	-0.116835
C69	C	1.549006	-0.898806	-0.616392
C70	C	2.049006	-0.398806	-0.116392
C71	C	1.407247	-0.899056	-0.477768
C72	C	1.907247	-0.399056	0.022232
C73	C	1.407796	-0.813406	-0.475296
C74	C	1.907796	-0.313406	0.024704
C75	C	1.518322	-0.698303	-0.506074
C76	C	2.018322	-0.198303	-0.006074
C77	C	1.518470	-1.014405	-0.506171
C78	C	2.018470	-0.514405	-0.006171
C79	C	1.792359	-0.356748	-0.506100
C80	C	2.292359	0.143252	-0.006100
C81	C	1.909136	-0.356755	-0.506106
C82	C	2.409136	0.143245	-0.006106
C83	C	1.518400	-0.356655	-0.780118
C84	C	2.018400	0.143345	-0.280118
C85	C	1.518431	-0.356623	-0.896895
C86	C	2.018431	0.143377	-0.396895
C87	C	1.518445	-0.163568	-0.506159
C88	C	2.018445	0.336432	-0.006159
C89	C	1.518496	-0.081254	-0.506190
C90	C	2.018496	0.418746	-0.006190
C91	C	1.585666	-0.309257	-0.951781
C92	C	2.085666	0.190743	-0.451781
C93	C	1.585691	-0.309231	-1.061505
C94	C	2.085691	0.190769	-0.561505
C95	C	1.451243	-0.403942	-1.061448
C96	C	1.951243	0.096058	-0.561448
C97	C	1.451214	-0.403964	-0.951726
C98	C	1.951214	0.096036	-0.451726
C99	C	1.652883	-0.261916	-0.896950
C100	C	2.152883	0.238084	-0.396950
C101	C	1.720124	-0.214547	-0.951836
C102	C	2.220124	0.285453	-0.451836
C103	C	1.720149	-0.214521	-1.061560
C104	C	2.220149	0.285479	-0.561560
C105	C	1.652933	-0.261863	-1.116398
C106	C	2.152933	0.238137	-0.616398
C107	C	1.518313	-0.356751	-0.233117
C108	C	2.018313	0.143249	0.266883
C109	C	1.518486	-0.356574	-0.116341
C110	C	2.018486	0.143426	0.383659
H111	H	0.819862	-0.262138	-0.640729
H112	H	1.319862	0.237862	-0.140729
H113	H	1.682011	-0.793054	-0.443719
H114	H	2.182011	-0.293054	0.056281
H115	H	1.681281	-0.920684	-0.443293
H116	H	2.181281	-0.420684	0.056707
H117	H	1.118542	-0.176295	-0.762853
H118	H	1.618542	0.323705	-0.262853
H119	H	0.919476	-0.176316	-0.762870
H120	H	1.419476	0.323684	-0.262870
H121	H	0.919255	-0.442573	-0.383975
H122	H	1.419255	0.057427	0.116025
H123	H	1.379939	-0.920723	-0.398417
H124	H	1.879939	-0.420723	0.101583
H125	H	1.652946	-0.261829	-1.205743
H126	H	2.152946	0.238171	-0.705743
H127	H	1.118325	-0.442545	-0.383953
H128	H	1.618325	0.057455	0.116047
H129	H	1.580874	-0.792644	-0.342833
H130	H	2.080874	-0.292644	0.157167
H131	H	1.652872	-0.261934	-0.807607
H132	H	2.152872	0.238066	-0.307607
H133	H	1.628739	-0.791652	-0.641278
H134	H	2.128739	-0.291652	-0.141278
H135	H	1.491225	-0.792795	-0.679121
H136	H	1.991225	-0.292795	-0.179121
H137	H	1.774842	-0.175999	-0.907179
H138	H	2.274842	0.324001	-0.407179
H139	H	1.774892	-0.175945	-1.106245
H140	H	2.274892	0.324055	-0.606245
H141	H	1.580820	-0.919867	-0.342376
H142	H	2.080820	-0.419867	0.157624
H143	H	1.630275	-0.918724	-0.640428
H144	H	2.130275	-0.418724	-0.140428
H145	H	1.217998	-0.262100	-0.640729
H146	H	1.717998	0.237900	-0.140729
H147	H	1.396519	-0.442485	-1.106106
H148	H	1.896519	0.057515	-0.606106
H149	H	1.385161	-0.793155	-0.393800
H150	H	1.885161	-0.293155	0.106200
H151	H	1.396449	-0.442522	-0.907037
H152	H	1.896449	0.057478	-0.407037
H153	H	1.344240	-0.792015	-0.530248
H154	H	1.844240	-0.292015	-0.030248
H155	H	1.346936	-0.919315	-0.537061
H156	H	1.846936	-0.419315	-0.037061
H157	H	1.492631	-0.919526	-0.679137
H158	H	1.992631	-0.419526	-0.179137
