data_functionalizedCrystal
_audit_creation_method	'MofGen! by Chris Wilmer'
_symmetry_space_group_name_H-M	'P1'
_symmetry_Int_Tables_number	1
_symmetry_cell_setting	triclinic
loop_
_symmetry_equiv_pos_as_xyz
  x,y,z
_cell_length_a	16.053934
_cell_length_b	17.699083
_cell_length_c	17.699083
_cell_angle_alpha	96.716985
_cell_angle_beta	92.570138
_cell_angle_gamma	92.566513
loop_
_atom_site_label
_atom_site_type_symbol
_atom_site_fract_x
_atom_site_fract_y
_atom_site_fract_z
O1	O	0.069313	-1.000890	0.098897
O2	O	0.569313	-0.500890	0.598897
O3	O	0.069341	-0.780510	0.111351
O4	O	0.569341	-0.280510	0.611351
O5	O	0.069319	-0.896926	-0.005066
O6	O	0.569319	-0.396926	0.494934
O7	O	0.069335	-0.884473	0.215313
O8	O	0.569335	-0.384473	0.715313
O9	O	-0.069539	-0.903299	-0.011451
O10	O	0.430461	-0.403299	0.488549
O11	O	-0.069517	-0.786883	0.104965
O12	O	0.430483	-0.286883	0.604965
O13	O	-0.069544	-1.007263	0.092511
O14	O	0.430456	-0.507263	0.592511
Zn15	Zn	-0.091577	-0.898085	0.097724
Zn16	Zn	0.408423	-0.398085	0.597724
Zn17	Zn	0.091374	-0.889688	0.106138
Zn18	Zn	0.591374	-0.389688	0.606138
O19	O	-0.069522	-0.890846	0.208928
O20	O	0.430478	-0.390846	0.708928
C21	C	-0.000084	-0.755499	0.107712
C22	C	0.499916	-0.255499	0.607712
C23	C	-0.000074	-0.671481	0.106374
C24	C	0.499926	-0.171481	0.606374
N25	N	-0.216436	-0.903821	0.091982
N26	N	0.283564	-0.403821	0.591982
C27	C	-0.260141	-0.854276	0.141499
C28	C	0.239859	-0.354276	0.641499
C29	C	-0.347547	-0.858310	0.137479
C30	C	0.152453	-0.358310	0.637479
C31	C	-0.391246	-0.911887	0.083937
C32	C	0.108754	-0.411887	0.583937
C33	C	-0.347535	-0.961437	0.034418
C34	C	0.152465	-0.461437	0.534418
C35	C	-0.260131	-0.957405	0.038442
C36	C	0.239869	-0.457405	0.538442
C37	C	-0.652652	-0.929476	0.066379
C38	C	-0.152652	-0.429476	0.566379
C39	C	-0.740062	-0.933503	0.062357
C40	C	-0.240062	-0.433503	0.562357
C41	C	-0.740068	-0.830377	0.165419
C42	C	-0.240068	-0.330377	0.665419
C43	C	-0.652662	-0.826347	0.169436
C44	C	-0.152662	-0.326347	0.669436
C45	C	-0.608959	-0.875900	0.119919
C46	C	-0.108959	-0.375900	0.619919
N47	N	-0.480589	-0.916011	0.079825
N48	N	0.019411	-0.416011	0.579825
N49	N	-0.519617	-0.871779	0.124036
N50	N	-0.019617	-0.371779	0.624036
C51	C	-0.000110	-0.899667	-0.036456
C52	C	0.499890	-0.399667	0.463544
C53	C	-0.000110	-0.898328	-0.120474
C54	C	0.499890	-0.398328	0.379526
N55	N	0.216233	-0.883958	0.111874
N56	N	0.716233	-0.383958	0.611874
C57	C	-0.000117	-1.032273	0.096150
C58	C	0.499883	-0.532273	0.596150
C59	C	-0.000122	-1.116291	0.097489
C60	C	0.499878	-0.616291	0.597489
C61	C	-0.000069	-0.622860	0.174707
C62	C	0.499931	-0.122860	0.674707
C63	C	-0.000080	-0.543917	0.173445
C64	C	0.499920	-0.043917	0.673445
C65	C	-0.000090	-0.513596	0.103848
C66	C	0.499910	-0.013596	0.603848
C67	C	-0.000097	-0.562224	0.035509
C68	C	0.499903	-0.062224	0.535509
C69	C	-0.000092	-0.641165	0.036772
C70	C	0.499908	-0.141165	0.536772
C71	C	-0.000118	-0.243862	0.030412
C72	C	0.499882	0.256138	0.530412
C73	C	-0.000121	-0.164914	0.029154
C74	C	0.499879	0.335086	0.529154
C75	C	-0.000106	-0.146613	0.167085
C76	C	0.499894	0.353387	0.667085
C77	C	-0.000101	-0.225555	0.168348
C78	C	0.499899	0.274445	0.668348
C79	C	-0.000113	-0.274175	0.100010
C80	C	0.499887	0.225825	0.600010
C81	C	-0.000103	-0.359774	0.101380
C82	C	0.499897	0.140226	0.601380
C83	C	-0.000094	-0.427999	0.102477
C84	C	0.499906	0.072001	0.602477
C85	C	-0.000120	-0.966662	-0.169095
C86	C	0.499880	-0.466662	0.330905
C87	C	-0.000112	-0.965399	-0.248038
C88	C	0.499888	-0.465399	0.251962
C89	C	-0.000101	-0.895802	-0.278358
C90	C	0.499899	-0.395802	0.221642
C91	C	-0.000089	-0.827463	-0.229731
C92	C	0.499911	-0.327463	0.270269
C93	C	-0.000090	-0.828726	-0.150789
C94	C	0.499910	-0.328726	0.349211
C95	C	-0.000081	-0.822368	-0.548093
C96	C	0.499919	-0.322368	-0.048093
C97	C	-0.000082	-0.821110	-0.627041
C98	C	0.499918	-0.321110	-0.127041
C99	C	-0.000103	-0.959041	-0.645342
C100	C	0.499897	-0.459041	-0.145342
C101	C	-0.000105	-0.960304	-0.566401
C102	C	0.499895	-0.460304	-0.066401
C103	C	-0.000088	-0.891965	-0.517780
C104	C	0.499912	-0.391965	-0.017780
C105	C	-0.000095	-0.893335	-0.432181
C106	C	0.499905	-0.393335	0.067819
C107	C	-0.000100	-0.894432	-0.363956
C108	C	0.499900	-0.394432	0.136044
C109	C	-0.000092	-0.888106	0.240318
C110	C	0.499908	-0.388106	0.740318
C111	C	-0.000086	-0.889444	0.324336
C112	C	0.499914	-0.389444	0.824336
H113	H	-0.224567	-0.810645	0.185095
H114	H	0.275433	-0.310645	0.685095
C115	C	-0.000072	-0.490436	0.248612
C116	C	0.499928	0.009564	0.748612
H117	H	-0.000055	-0.519800	0.290242
H118	H	0.499945	-0.019800	0.790242
H119	H	-0.048497	-0.461491	0.248764
H120	H	0.451503	0.038509	0.748764
H121	H	0.048354	-0.457031	0.253210
H122	H	0.548354	0.042969	0.753210
H123	H	-0.000117	-0.537531	-0.021159
H124	H	0.499883	-0.037531	0.478841
H125	H	-0.000090	-0.250236	0.225021
H126	H	0.499910	0.249764	0.725021
C127	C	-0.395601	-1.020369	-0.024478
C128	C	0.104399	-0.520369	0.475522
H129	H	-0.453916	-1.015669	-0.019789
H130	H	0.046084	-0.515669	0.480211
H131	H	-0.381272	-1.070203	-0.015663
H132	H	0.118728	-0.570203	0.484337
H133	H	-0.381277	-1.011578	-0.074323
H134	H	0.118723	-0.511578	0.425677
H135	H	-0.000075	-0.764432	-0.651724
H136	H	0.499925	-0.264432	-0.151724
H137	H	-0.383131	-0.817968	0.177800
H138	H	0.116869	-0.317968	0.677800
C139	C	-0.000089	-0.694648	-0.038394
C140	C	0.499911	-0.194648	0.461606
H141	H	-0.000087	-0.665286	-0.080025
H142	H	0.499913	-0.165286	0.419975
H143	H	-0.048509	-0.728056	-0.042998
H144	H	0.451491	-0.228056	0.457002
H145	H	0.048343	-0.723591	-0.038538
H146	H	0.548343	-0.223591	0.461462
H147	H	-0.000128	-0.283440	-0.025233
H148	H	0.499872	0.216560	0.474767
C149	C	-0.000104	-0.093129	0.242257
C150	C	0.499896	0.406871	0.742257
H151	H	-0.000118	-0.041771	0.231541
H152	H	0.499882	0.458229	0.731541
H153	H	0.048322	-0.100075	0.273027
H154	H	0.548322	0.399925	0.773027
H155	H	-0.048529	-0.104539	0.268573
H156	H	0.451471	0.395461	0.768573
C157	C	-0.000132	-1.043220	-0.135750
C158	C	0.499868	-0.543220	0.364250
H159	H	-0.000129	-1.083735	-0.176016
H160	H	0.499871	-0.583735	0.323984
H161	H	-0.048555	-1.048804	-0.107565
H162	H	0.451445	-0.548804	0.392435
H163	H	0.048296	-1.044356	-0.103106
H164	H	0.548296	-0.544356	0.396894
H165	H	-0.000074	-0.770796	-0.254423
H166	H	0.499926	-0.270796	0.245577
C167	C	-0.212055	-1.011902	-0.016029
C168	C	0.287945	-0.511902	0.483971
H169	H	-0.250597	-1.044384	-0.048498
H170	H	0.249403	-0.544384	0.451502
H171	H	-0.177953	-1.041782	0.012729
H172	H	0.322047	-0.541782	0.512729
H173	H	-0.177965	-0.983160	-0.045935
H174	H	0.322035	-0.483160	0.454065
H175	H	-0.000061	-0.647540	0.231381
H176	H	0.499939	-0.147540	0.731381
H177	H	-0.000130	-0.140231	-0.027523
H178	H	0.499870	0.359769	0.472477
H179	H	-0.000122	-1.021044	-0.287623
H180	H	0.499878	-0.521044	0.212377
C181	C	-0.604599	-0.767416	0.228335
C182	C	-0.104599	-0.267416	0.728335
H183	H	-0.643148	-0.738490	0.257255
H184	H	-0.143148	-0.238490	0.757255
H185	H	-0.570507	-0.734392	0.202717
H186	H	-0.070507	-0.234392	0.702717
H187	H	-0.570500	-0.793014	0.261380
H188	H	-0.070500	-0.293014	0.761380
C189	C	-0.000114	-1.036860	-0.533052
C190	C	0.499886	-0.536860	-0.033052
H191	H	-0.000110	-1.077377	-0.573316
H192	H	0.499890	-0.577377	-0.073316
H193	H	-0.048535	-1.042444	-0.504865
H194	H	0.451465	-0.542444	-0.004865
H195	H	0.048316	-1.037992	-0.500409
H196	H	0.548316	-0.537992	-0.000409
C197	C	-0.000112	-1.034215	-0.698824
C198	C	0.499888	-0.534215	-0.198824
H199	H	-0.000129	-1.075844	-0.669459
H200	H	0.499871	-0.575844	-0.169459
H201	H	0.048311	-1.034372	-0.727769
H202	H	0.548311	-0.534372	-0.227769
H203	H	-0.048540	-1.038810	-0.732229
H204	H	0.451460	-0.538810	-0.232229
C205	C	-0.000078	-0.747199	-0.494621
C206	C	0.499922	-0.247199	0.005379
H207	H	-0.000082	-0.705571	-0.523988
H208	H	0.499918	-0.205571	-0.023988
H209	H	0.048343	-0.742594	-0.461213
H210	H	0.548343	-0.242594	0.038787
H211	H	-0.048508	-0.747050	-0.465679
H212	H	0.451492	-0.247050	0.034321
C213	C	-0.000079	-0.753561	-0.097302
C214	C	0.499921	-0.253561	0.402698
H215	H	-0.000073	-0.764280	-0.045945
H216	H	0.499927	-0.264280	0.454055
H217	H	-0.048496	-0.727235	-0.108706
H218	H	0.451504	-0.227235	0.391294
H219	H	0.048356	-0.722799	-0.104251
H220	H	0.548356	-0.222799	0.395749
H221	H	-0.775660	-0.790034	0.205734
H222	H	-0.275660	-0.290034	0.705734
H223	H	-0.775638	-0.977133	0.018754
H224	H	-0.275638	-0.477133	0.518754
H225	H	-0.617075	-0.969823	0.026059
H226	H	-0.117075	-0.469823	0.526059
