data_functionalizedCrystal
_audit_creation_method	'MofGen! by Chris Wilmer'
_symmetry_space_group_name_H-M	'P1'
_symmetry_Int_Tables_number	1
_symmetry_cell_setting	triclinic
loop_
_symmetry_equiv_pos_as_xyz
  x,y,z
_cell_length_a	12.759401
_cell_length_b	12.759394
_cell_length_c	12.759393
_cell_angle_alpha	89.969400
_cell_angle_beta	89.980316
_cell_angle_gamma	90.012970
loop_
_atom_site_label
_atom_site_type_symbol
_atom_site_fract_x
_atom_site_fract_y
_atom_site_fract_z
Zn1	Zn	1.606262	-0.418229	-0.594022
Zn2	Zn	1.606158	-0.593948	-0.418345
Zn3	Zn	1.430564	-0.418281	-0.418357
Zn4	Zn	1.430555	-0.593864	-0.593983
O5	O	1.518385	-0.506081	-0.506177
O6	O	1.753269	-0.441552	-0.570729
O7	O	1.582826	-0.570703	-0.271325
O8	O	1.453917	-0.271253	-0.441681
O9	O	1.753193	-0.570652	-0.441660
O10	O	1.583002	-0.271215	-0.570741
O11	O	1.453817	-0.441641	-0.271335
O12	O	1.283541	-0.441559	-0.441643
O13	O	1.453902	-0.570509	-0.741009
O14	O	1.283535	-0.570559	-0.570674
O15	O	1.582993	-0.441471	-0.741038
O16	O	1.582817	-0.740958	-0.441622
O17	O	1.453802	-0.740896	-0.570662
C18	C	1.245417	-0.506056	-0.506157
C19	C	1.128641	-0.506071	-0.506173
C20	C	1.073751	-0.438813	-0.439110
C21	C	0.964027	-0.438837	-0.439124
C22	C	0.964092	-0.573383	-0.573272
C23	C	1.073814	-0.573362	-0.573252
C24	C	1.128578	-0.371521	-0.372031
C25	C	1.073688	-0.304256	-0.304963
C26	C	0.963964	-0.304281	-0.304977
C27	C	0.909130	-0.371571	-0.372058
C28	C	1.518326	-0.779048	-0.506159
C29	C	1.518397	-0.895825	-0.506187
C30	C	1.652713	-0.895627	-0.640678
C31	C	1.719903	-0.950389	-0.707931
C32	C	1.719966	-1.060111	-0.707954
C33	C	1.652828	-1.115073	-0.640718
C34	C	1.585637	-1.060311	-0.573465
C35	C	1.585584	-0.950587	-0.573447
C36	C	1.451318	-1.060509	-0.438981
C37	C	1.451260	-0.950787	-0.438951
C38	C	1.384181	-1.115471	-0.371745
C39	C	1.316994	-1.060709	-0.304485
C40	C	1.316935	-0.950981	-0.304464
C41	C	1.384069	-0.896025	-0.371698
C42	C	1.792418	-0.506106	-0.506197
C43	C	1.909194	-0.506117	-0.506206
C44	C	1.518458	-0.505975	-0.780210
C45	C	1.518489	-0.505930	-0.896987
C46	C	1.518472	-0.232047	-0.506217
C47	C	1.518509	-0.115271	-0.506234
C48	C	1.585716	-0.438733	-0.951866
C49	C	1.585741	-0.438695	-1.061590
C50	C	1.451310	-0.573059	-1.061547
C51	C	1.451280	-0.573091	-0.951825
C52	C	1.652926	-0.371571	-0.897028
C53	C	1.720159	-0.304370	-0.951907
C54	C	1.720184	-0.304332	-1.061631
C55	C	1.652976	-0.371495	-1.116476
C56	C	1.518372	-0.506111	-0.233209
C57	C	1.518544	-0.505860	-0.116433
H58	H	0.919276	-0.249518	-0.250361
C59	C	1.793872	-1.120355	-0.781933
C60	C	1.793932	-1.241045	-0.781954
C61	C	1.867836	-1.301290	-0.855934
C62	C	1.941680	-1.240845	-0.929893
C63	C	1.941623	-1.120148	-0.929876
C64	C	1.867719	-1.059903	-0.855896
H65	H	1.739265	-1.285796	-0.727202
H66	H	1.867878	-1.390638	-0.855946
H67	H	1.996389	-1.285442	-0.984658
H68	H	1.996289	-1.075397	-0.984628
H69	H	1.867677	-0.970555	-0.855883
H70	H	1.118506	-0.628129	-0.627862
C71	C	0.903777	-0.647390	-0.647064
C72	C	0.964154	-0.721376	-0.720834
C73	C	0.903840	-0.795382	-0.794631
C74	C	0.783150	-0.795402	-0.794657
C75	C	0.722767	-0.721414	-0.720884
C76	C	0.783080	-0.647408	-0.647088
H77	H	1.053502	-0.721364	-0.720817
H78	H	0.948541	-0.850154	-0.849242
H79	H	0.738503	-0.850186	-0.849286
H80	H	0.633419	-0.721426	-0.720902
H81	H	0.738380	-0.592636	-0.592476
C82	C	1.243022	-0.890746	-0.230483
C83	C	1.169180	-0.951207	-0.156534
C84	C	1.095266	-0.890977	-0.082551
C85	C	1.095194	-0.770287	-0.082518
C86	C	1.169039	-0.709820	-0.156470
C87	C	1.242953	-0.770050	-0.230453
H88	H	1.169231	-1.040555	-0.156556
H89	H	1.040601	-0.935739	-0.027806
H90	H	1.040478	-0.725701	-0.027751
H91	H	1.168988	-0.620472	-0.156448
H92	H	1.297618	-0.725287	-0.285197
C93	C	1.794132	-0.230410	-1.121999
C94	C	1.868054	-0.156536	-1.061675
C95	C	1.942008	-0.082615	-1.122042
C96	C	1.942040	-0.082567	-1.242732
C97	C	1.868116	-0.156443	-1.303062
C98	C	1.794162	-0.230365	-1.242696
H99	H	1.868033	-0.156569	-0.972327
H100	H	1.996732	-0.027927	-1.077380
H101	H	1.996786	-0.027846	-1.287418
H102	H	1.868137	-0.156410	-1.392410
H103	H	1.739438	-0.285053	-1.287358
C104	C	1.377343	-0.647010	-0.891438
C105	C	1.257911	-0.638430	-0.906499
C106	C	1.183973	-0.712347	-0.846106
C107	C	1.229468	-0.794844	-0.770653
C108	C	1.348907	-0.803427	-0.755589
C109	C	1.422844	-0.729510	-0.815982
H110	H	1.224227	-0.577358	-0.962357
H111	H	1.095557	-0.705992	-0.857258
H112	H	1.174735	-0.849561	-0.725947
H113	H	1.382590	-0.864499	-0.699732
H114	H	1.511261	-0.735865	-0.804830
H115	H	1.217921	-0.371491	-0.372015
H116	H	1.396591	-0.627740	-1.106211
H117	H	1.118342	-0.249477	-0.250343
H118	H	1.774564	-0.905629	-0.762676
H119	H	0.819785	-0.371591	-0.372058
H120	H	1.652915	-0.371597	-0.807685
H121	H	1.384032	-0.806684	-0.371683
H122	H	1.652678	-0.806286	-0.640656
H123	H	1.652876	-1.204414	-0.640751
H124	H	1.384232	-1.204812	-0.371773
H125	H	1.774871	-0.249682	-0.907244
H126	H	1.262330	-1.105468	-0.249753
H127	H	1.652989	-0.371447	-1.205821
