data_functionalizedCrystal
_audit_creation_method	'MofGen! by Chris Wilmer'
_symmetry_space_group_name_H-M	'P1'
_symmetry_Int_Tables_number	1
_symmetry_cell_setting	triclinic
loop_
_symmetry_equiv_pos_as_xyz
  x,y,z
_cell_length_a	11.169417
_cell_length_b	15.297327
_cell_length_c	15.298431
_cell_angle_alpha	88.343933
_cell_angle_beta	99.660315
_cell_angle_gamma	99.707226
loop_
_atom_site_label
_atom_site_type_symbol
_atom_site_fract_x
_atom_site_fract_y
_atom_site_fract_z
Zn1	Zn	1.646417	-0.262967	-0.555508
Zn2	Zn	1.634572	-0.434815	-0.434371
Zn3	Zn	1.473568	-0.288355	-0.409063
Zn4	Zn	1.406118	-0.409411	-0.580799
O5	O	1.540169	-0.348887	-0.494935
O6	O	1.812792	-0.285769	-0.539447
O7	O	1.636486	-0.436643	-0.308446
O8	O	1.529682	-0.162406	-0.407313
O9	O	1.804090	-0.412025	-0.450448
O10	O	1.656673	-0.143753	-0.514906
O11	O	1.518197	-0.329040	-0.289851
O12	O	1.296674	-0.304407	-0.431836
O13	O	1.414723	-0.368728	-0.700012
O14	O	1.247119	-0.393346	-0.558010
O15	O	1.591269	-0.261136	-0.681431
O16	O	1.571082	-0.554026	-0.474971
O17	O	1.403238	-0.535362	-0.582551
C18	C	1.228350	-0.348875	-0.494922
C19	C	1.094943	-0.348888	-0.494940
C20	C	1.478585	-0.576474	-0.534271
C21	C	1.452343	-0.673832	-0.551128
C22	C	1.728160	-0.986986	-0.374753
C23	C	1.752815	-0.895514	-0.358910
C24	C	1.677700	-0.840089	-0.406964
C25	C	1.577924	-0.876145	-0.470862
C26	C	1.553260	-0.967627	-0.486701
C27	C	1.502800	-0.820730	-0.518912
C28	C	1.403024	-0.856786	-0.582810
C29	C	1.378365	-0.948258	-0.598647
C30	C	1.453481	-1.003683	-0.550594
C31	C	1.527464	-0.729248	-0.503072
C32	C	1.352564	-0.709889	-0.615020
C33	C	1.327909	-0.801361	-0.630863
C34	C	1.853205	-0.348899	-0.494949
C35	C	1.986602	-0.348904	-0.494956
C36	C	1.496794	-0.309266	-0.723391
C37	C	1.478310	-0.292382	-0.820745
C38	C	1.602022	-0.120407	-0.455465
C39	C	1.628380	-0.023043	-0.438646
C40	C	1.408038	-0.228424	-0.856794
C41	C	1.390656	-0.212562	-0.948264
C42	C	1.443552	-0.260651	-1.003692
C43	C	1.513832	-0.324607	-0.967643
C44	C	1.531208	-0.340475	-0.876165
C45	C	1.566722	-0.372703	-1.023063
C46	C	1.637003	-0.436658	-0.987014
C47	C	1.654376	-0.452523	-0.895545
C48	C	1.601480	-0.404434	-0.840116
C49	C	1.549346	-0.356834	-1.114541
C50	C	1.672516	-0.468886	-1.133912
C51	C	1.689898	-0.484748	-1.042442
C52	C	1.583461	-0.388290	-0.267357
C53	C	1.602244	-0.404927	-0.169961
H54	H	1.608702	-0.699900	-0.451046
H55	H	1.789301	-1.032121	-0.335630
Br56	Br	1.419560	-1.127897	-0.571699
Br57	Br	1.250605	-0.634678	-0.680231
H58	H	1.297109	-0.977613	-0.650667
Br59	Br	1.744299	-0.534160	-1.209130
Br60	Br	1.749738	-0.539331	-0.846624
Br61	Br	1.625082	-0.425951	-0.715972
Br62	Br	1.711474	-0.715901	-0.385727
H63	H	1.747121	-0.536821	-1.013078
Br64	Br	1.888228	-0.846585	-0.272203
Br65	Br	1.192505	-0.850304	-0.717581
Br66	Br	1.453969	-0.270040	-1.163454
H67	H	1.429396	-0.247731	-1.078170
H68	H	1.333428	-0.160492	-0.977609
Br69	Br	1.336281	-0.163154	-0.781566
