data_functionalizedCrystal
_audit_creation_method	'MofGen! by Chris Wilmer'
_symmetry_space_group_name_H-M	'P1'
_symmetry_Int_Tables_number	1
_symmetry_cell_setting	triclinic
loop_
_symmetry_equiv_pos_as_xyz
  x,y,z
_cell_length_a	16.625546
_cell_length_b	14.908571
_cell_length_c	14.908308
_cell_angle_alpha	89.824947
_cell_angle_beta	93.264070
_cell_angle_gamma	93.281505
loop_
_atom_site_label
_atom_site_type_symbol
_atom_site_fract_x
_atom_site_fract_y
_atom_site_fract_z
Zn1	Zn	-0.420778	-1.345280	-0.587557
Zn2	Zn	-0.548312	-1.353856	-0.437189
Zn3	Zn	-0.405291	-1.203596	-0.428555
Zn4	Zn	-0.547354	-1.194884	-0.578841
O5	O	-0.480434	-1.274404	-0.508036
O6	O	-0.444578	-1.472243	-0.574871
O7	O	-0.523260	-1.341159	-0.310220
O8	O	-0.294517	-1.222448	-0.449681
O9	O	-0.538277	-1.478544	-0.464397
O10	O	-0.305896	-1.326543	-0.566499
O11	O	-0.418182	-1.230763	-0.303876
O12	O	-0.417254	-1.076615	-0.441230
O13	O	-0.536644	-1.207599	-0.705821
O14	O	-0.521627	-1.070214	-0.551644
O15	O	-0.443649	-1.318095	-0.712225
O16	O	-0.661013	-1.332711	-0.455945
O17	O	-0.660309	-1.215914	-0.560016
C18	C	-0.689918	-1.274321	-0.507993
C19	C	-0.779542	-1.274366	-0.508010
C20	C	-0.491767	-1.260918	-0.742560
C21	C	-0.496597	-1.255172	-0.842501
C22	C	-0.467656	-1.040789	-0.494555
C23	C	-0.462211	-0.940846	-0.488810
C24	C	-1.107731	-1.274517	-0.508112
C25	C	-1.016419	-1.274472	-0.508086
C26	C	-0.943640	-1.274441	-0.508060
C27	C	-0.852322	-1.274397	-0.508035
C28	C	-0.270134	-1.274511	-0.508099
C29	C	-0.180516	-1.274556	-0.508127
C30	C	-0.493262	-1.508931	-0.521569
C31	C	-0.498728	-1.608873	-0.527336
C32	C	-0.560814	-0.746435	-0.592833
C33	C	-0.555700	-0.652530	-0.587437
C34	C	-0.446865	-0.659128	-0.472629
C35	C	-0.451979	-0.753033	-0.478024
C36	C	-0.508956	-0.796683	-0.538127
C37	C	-0.514074	-0.890591	-0.543517
C38	C	-0.405236	-0.897187	-0.428714
C39	C	-0.400121	-0.803282	-0.423318
C40	C	-0.408817	-1.359429	-1.036969
C41	C	-0.413353	-1.354033	-1.130872
C42	C	-0.510198	-1.238977	-1.124211
C43	C	-0.505662	-1.244374	-1.030308
C44	C	-0.454971	-1.304603	-0.986690
C45	C	-0.450441	-1.310004	-0.892786
C46	C	-0.547281	-1.194945	-0.886127
C47	C	-0.551817	-1.189548	-0.980030
C48	C	-0.469089	-1.287889	-0.274426
C49	C	-0.464042	-1.293810	-0.174497
H50	H	-0.607211	-0.781976	-0.641766
C51	C	-0.351712	-0.783088	-0.269479
C52	C	-0.337495	-0.755296	-0.357255
H53	H	-0.313045	-0.753468	-0.228694
H54	H	-0.404383	-0.768438	-0.255339
H55	H	-0.347335	-0.846207	-0.264872
H56	H	-0.341878	-0.692178	-0.361864
H57	H	-0.284811	-0.769940	-0.371399
C58	C	-0.584172	-1.035613	-1.000151
C59	C	-0.607535	-1.123348	-1.027980
H60	H	-0.618571	-0.994745	-1.029757
H61	H	-0.588082	-1.030988	-0.937038
H62	H	-0.530023	-1.021600	-1.014801
H63	H	-0.661683	-1.137362	-1.013324
H64	H	-0.603634	-1.127975	-1.091107
C65	C	-0.663792	-0.655444	-0.701460
C66	C	-0.612704	-0.597295	-0.647570
H67	H	-0.698986	-0.621343	-0.738582
H68	H	-0.632367	-0.690104	-0.738023
H69	H	-0.694678	-0.694311	-0.664320
H70	H	-0.581813	-0.558433	-0.684711
H71	H	-0.644132	-0.562620	-0.611003
H72	H	-0.409167	-1.359047	-0.857274
H73	H	-0.375767	-1.398676	-1.171805
C74	C	-0.621129	-0.874632	-0.656468
C75	C	-0.576697	-0.938574	-0.609586
H76	H	-0.659785	-0.904255	-0.697262
H77	H	-0.648029	-0.840248	-0.615130
H78	H	-0.585704	-0.836039	-0.688819
H79	H	-0.612122	-0.977163	-0.577230
H80	H	-0.549796	-0.972973	-0.650930
C81	C	-0.390661	-0.518099	-0.413442
C82	C	-0.384210	-0.611135	-0.406604
H83	H	-0.351974	-0.488472	-0.372686
H84	H	-0.381055	-0.499282	-0.473003
H85	H	-0.443329	-0.503448	-0.399260
H86	H	-0.331544	-0.625786	-0.420793
H87	H	-0.393810	-0.629959	-0.347029
H88	H	-0.363011	-0.938110	-0.384166
C89	C	-0.313550	-1.472620	-1.052980
C90	C	-0.353102	-1.425632	-0.989018
H91	H	-0.279150	-1.513487	-1.023376
H92	H	-0.352328	-1.504890	-1.091577
H93	H	-0.282336	-1.431346	-1.087357
H94	H	-0.384321	-1.466906	-0.954645
H95	H	-0.314318	-1.393360	-0.950405
H96	H	-0.551467	-1.189942	-1.159741
H97	H	-0.584866	-1.150303	-0.845180
