data_functionalizedCrystal
_audit_creation_method	'MofGen! by Chris Wilmer'
_symmetry_space_group_name_H-M	'P1'
_symmetry_Int_Tables_number	1
_symmetry_cell_setting	triclinic
loop_
_symmetry_equiv_pos_as_xyz
  x,y,z
_cell_length_a	10.686220
_cell_length_b	10.685194
_cell_length_c	18.215399
_cell_angle_alpha	94.396576
_cell_angle_beta	85.649066
_cell_angle_gamma	99.069920
loop_
_atom_site_label
_atom_site_type_symbol
_atom_site_fract_x
_atom_site_fract_y
_atom_site_fract_z
Zn1	Zn	1.901832	-0.356306	0.315202
Zn2	Zn	2.401832	0.143694	0.815202
Zn3	Zn	1.885466	-0.568606	0.183377
Zn4	Zn	2.385466	-0.068606	0.683377
Zn5	Zn	1.689574	-0.372653	0.200904
Zn6	Zn	2.189574	0.127347	0.700904
Zn7	Zn	1.673315	-0.584833	0.315157
Zn8	Zn	2.173315	-0.084833	0.815157
O9	O	1.787547	-0.470600	0.253660
O10	O	2.287547	0.029400	0.753660
O11	O	2.077278	-0.370835	0.290399
O12	O	2.577278	0.129165	0.790399
O13	O	1.859435	-0.542662	0.082718
O14	O	2.359435	-0.042662	0.582718
O15	O	1.731384	-0.192838	0.223419
O16	O	2.231384	0.307162	0.723419
O17	O	2.065253	-0.526811	0.193548
O18	O	2.565253	-0.026811	0.693548
O19	O	1.887330	-0.180828	0.307394
O20	O	2.387330	0.319172	0.807394
O21	O	1.715514	-0.398697	0.095594
O22	O	2.215514	0.101303	0.595594
O23	O	1.509800	-0.414432	0.223376
O24	O	2.009800	0.085568	0.723376
O25	O	1.703673	-0.554468	0.418148
O26	O	2.203673	-0.054468	0.918148
O27	O	1.497855	-0.570320	0.307318
O28	O	1.997855	-0.070320	0.807318
O29	O	1.871564	-0.386570	0.418181
O30	O	2.371564	0.113430	0.918181
O31	O	1.843669	-0.748405	0.193505
O32	O	2.343669	-0.248405	0.693505
O33	O	1.687803	-0.760327	0.290323
O34	O	2.187803	-0.260327	0.790323
C35	C	1.457774	-0.495912	0.267244
C36	C	1.957774	0.004088	0.767244
C37	C	1.316693	-0.506771	0.273072
C38	C	1.816693	-0.006771	0.773072
C39	C	1.762231	-0.800425	0.240022
C40	C	2.262231	-0.300425	0.740022
C41	C	1.751516	-0.941517	0.234207
C42	C	2.251516	-0.441517	0.734207
C43	C	2.118607	-0.445190	0.240023
C44	C	2.618607	0.054810	0.740023
C45	C	2.259686	-0.434361	0.234212
C46	C	2.759686	0.065639	0.734212
C47	C	1.787631	-0.470506	0.445614
C48	C	2.287631	0.029494	0.945614
C49	C	1.787666	-0.470466	0.527413
C50	C	2.287666	0.029534	1.027413
C51	C	1.812996	-0.139484	0.267367
C52	C	2.312996	0.360516	0.767367
C53	C	1.823841	0.001618	0.273207
C54	C	2.323841	0.501618	0.773207
C55	C	1.787543	-0.470595	0.062454
C56	C	2.287543	0.029405	0.562454
C57	C	1.787780	-0.470259	-0.019340
C58	C	2.287780	0.029741	0.480660
C59	C	1.875122	-0.382964	0.715627
C60	C	2.375122	0.117036	1.215627
C61	C	1.875140	-0.382925	0.792487
C62	C	2.375140	0.117075	1.292487
C63	C	1.700316	-0.557766	0.792441
C64	C	2.200316	-0.057766	1.292441
C65	C	1.700293	-0.557797	0.715583
C66	C	2.200293	-0.057797	1.215583
C67	C	1.787703	-0.470397	0.677178
C68	C	2.287703	0.029603	1.177178
C69	C	1.787744	-0.470328	0.830895
C70	C	2.287744	0.029672	1.330895
C71	C	1.787763	-0.470287	0.914230
C72	C	2.287763	0.029713	1.414230
C73	C	1.787683	-0.470436	0.593838
C74	C	2.287683	0.029564	1.093838
H75	H	1.318816	-0.364063	0.196478
H76	H	1.818816	0.135937	0.696478
H77	H	1.629152	-0.628926	0.823720
H78	H	2.129152	-0.128926	1.323720
H79	H	1.946294	-0.311794	0.684360
H80	H	2.446294	0.188206	1.184360
H81	H	1.893960	-0.939128	0.311050
H82	H	2.393960	-0.439128	0.811050
H83	H	1.946324	-0.311726	0.823789
H84	H	2.446324	0.188274	1.323789
Cl85	Cl	1.590379	-0.667716	0.667244
Cl86	Cl	2.090379	-0.167716	1.167244
H87	H	1.681382	-1.000779	0.196369
H88	H	2.181382	-0.500779	0.696369
H89	H	1.257569	-0.577073	0.310798
H90	H	1.757569	-0.077073	0.810798
