data_functionalizedCrystal
_audit_creation_method	'MofGen! by Chris Wilmer'
_symmetry_space_group_name_H-M	'P1'
_symmetry_Int_Tables_number	1
_symmetry_cell_setting	triclinic
loop_
_symmetry_equiv_pos_as_xyz
  x,y,z
_cell_length_a	30.700830
_cell_length_b	30.711256
_cell_length_c	30.711275
_cell_angle_alpha	59.996036
_cell_angle_beta	89.997075
_cell_angle_gamma	59.999927
loop_
_atom_site_label
_atom_site_type_symbol
_atom_site_fract_x
_atom_site_fract_y
_atom_site_fract_z
O1	O	0.298799	0.384093	-0.012976
O2	O	0.235460	0.294925	0.012875
O3	O	0.235457	0.384090	-0.076293
O4	O	0.298802	0.294927	0.076191
O5	O	0.307902	0.311669	-0.076292
O6	O	0.307906	0.222503	0.012875
O7	O	0.371244	0.311671	-0.012976
Cu8	Cu	0.346190	0.260475	-0.000050
Cu9	Cu	0.260515	0.346121	-0.000051
O10	O	0.371248	0.222506	0.076192
C11	C	0.371907	0.469499	-0.018870
C12	C	0.345028	0.523240	-0.015174
C13	C	0.424328	0.443423	-0.019240
C14	C	0.371910	0.390645	-0.018863
C15	C	0.345033	0.360075	-0.015160
C16	C	0.424330	0.364689	-0.019233
C17	C	0.450783	0.390650	-0.018869
C18	C	0.508239	0.360084	-0.015174
C19	C	0.345574	0.443419	-0.019234
C20	C	0.031744	0.071080	0.039162
C21	C	0.058198	0.018308	0.039529
C22	C	0.110621	0.071078	0.039164
C23	C	0.136956	0.018306	0.039531
C24	C	0.110620	-0.007770	0.039161
C25	C	0.058199	0.097036	0.039532
C26	C	-0.158465	0.213078	0.024885
C27	C	-0.212330	0.242108	0.020848
C28	C	-0.239352	0.217192	0.018820
C29	C	-0.297760	0.248672	0.014433
C30	C	-0.212504	0.163242	0.020834
C31	C	-0.158641	0.134212	0.024878
C32	C	-0.131621	0.159132	0.026903
C33	C	0.158783	-0.183635	0.024881
C34	C	0.183610	-0.233445	0.020844
C35	C	0.235554	-0.258431	0.018816
C36	C	0.262474	-0.312431	0.014431
C37	C	0.262675	-0.233608	0.020833
C38	C	0.237854	-0.183807	0.024879
C39	C	0.185902	-0.158820	0.026900
C40	C	0.158788	0.213071	0.024894
C41	C	0.183613	0.242103	0.020852
C42	C	0.235560	0.217186	0.018827
C43	C	0.262479	0.248664	0.014442
C44	C	0.262678	0.163240	0.020838
C45	C	0.237851	0.134212	0.024878
C46	C	0.185906	0.159130	0.026910
C47	C	-0.073216	0.127652	0.031283
C48	C	-0.026661	0.102559	0.034777
C49	C	0.137537	0.102556	0.034782
C50	C	0.158992	0.127647	0.031290
C51	C	0.137535	-0.061770	0.034776
C52	C	0.158989	-0.104816	0.031283
C53	C	0.031746	0.614031	-0.503792
C54	C	0.058201	0.587954	-0.451388
C55	C	0.110623	0.535181	-0.503790
C56	C	0.136958	0.509223	-0.451386
C57	C	0.110623	0.535182	-0.424941
C58	C	0.058202	0.587953	-0.530117
C59	C	-0.158463	0.789901	-0.631514
C60	C	-0.212328	0.839713	-0.656508
C61	C	-0.239350	0.864699	-0.629565
C62	C	-0.297758	0.918701	-0.656659
C63	C	-0.212502	0.839874	-0.577629
C64	C	-0.158639	0.790072	-0.552642
C65	C	-0.131619	0.765086	-0.579587
C66	C	0.158787	0.472758	-0.234795
C67	C	0.183613	0.443903	-0.180947
C68	C	0.235558	0.389947	-0.153932
C69	C	0.262478	0.358652	-0.095546
C70	C	0.262679	0.364850	-0.180771
C71	C	0.237857	0.393709	-0.234618
C72	C	0.185905	0.447665	-0.261627
C73	C	0.158790	0.472755	-0.631508
C74	C	0.183614	0.443895	-0.656497
C75	C	0.235561	0.389939	-0.629553
C76	C	0.262480	0.358644	-0.656645
C77	C	0.262679	0.364843	-0.577619
C78	C	0.237852	0.393702	-0.552632
C79	C	0.185908	0.447663	-0.579583
C80	C	-0.073214	0.711080	-0.552487
C81	C	-0.026659	0.668033	-0.530887
C82	C	0.137539	0.503890	-0.530884
C83	C	0.158994	0.478949	-0.552482
C84	C	0.137538	0.503891	-0.366555
C85	C	0.158992	0.478951	-0.320015
O86	O	0.682982	0.222515	0.012861
O87	O	0.530448	0.311680	-0.012988
O88	O	0.619632	0.222520	0.076179
O89	O	0.593798	0.311675	-0.076306
O90	O	0.619629	0.294946	0.076172
O91	O	0.530445	0.384106	-0.012995
O92	O	0.682979	0.294940	0.012855
Cu93	Cu	0.606712	0.346136	-0.000071
Cu94	Cu	0.606715	0.260484	-0.000063
O95	O	0.593795	0.384100	-0.076313
O96	O	0.307899	0.669888	0.012859
O97	O	0.371239	0.543255	-0.012990
O98	O	0.371237	0.543241	0.076177
O99	O	0.307901	0.669903	-0.076308
O100	O	0.298790	0.543245	0.076171
O101	O	0.298791	0.543260	-0.012995
O102	O	0.235452	0.669893	0.012853
Cu103	Cu	0.260506	0.606577	-0.000072
Cu104	Cu	0.346184	0.606571	-0.000065
O105	O	0.235453	0.669907	-0.076313
O106	O	0.298809	0.294920	-0.764653
O107	O	0.235461	0.384085	-0.701338
O108	O	0.235466	0.294919	-0.701328
O109	O	0.298805	0.384086	-0.764662
O110	O	0.307910	0.222498	-0.628905
O111	O	0.307906	0.311665	-0.628915
O112	O	0.371254	0.222500	-0.692230
Cu113	Cu	0.346195	0.260470	-0.653960
Cu114	Cu	0.260520	0.346115	-0.739608
O115	O	0.371249	0.311666	-0.692239
O116	O	-0.469549	1.063022	-0.692248
O117	O	-0.317016	0.936378	-0.628928
O118	O	-0.406204	0.936374	-0.628920
O119	O	-0.380362	1.063026	-0.692255
O120	O	-0.406205	0.936375	-0.701342
O121	O	-0.317018	0.936380	-0.701350
O122	O	-0.469551	1.063023	-0.764669
Cu123	Cu	-0.393285	0.999701	-0.739622
Cu124	Cu	-0.393283	0.999700	-0.653975
O125	O	-0.380363	1.063027	-0.764677
C126	C	0.450796	0.137104	0.234678
C127	C	0.508252	0.083365	0.261546
C128	C	0.424342	0.163180	0.261005
C129	C	0.371918	0.215955	0.155829
C130	C	0.345038	0.246524	0.098392
C131	C	0.345584	0.241912	0.182276
C132	C	0.371920	0.215953	0.234680
C133	C	0.345043	0.246519	0.261550
C134	C	0.424339	0.163183	0.182274
C135	C	0.625481	0.215994	0.234654
C136	C	0.621777	0.246566	0.261519
C137	C	0.625844	0.163224	0.260983
C138	C	0.625497	0.215983	0.155811
C139	C	0.621809	0.246544	0.098375
C140	C	0.625859	0.163213	0.182259
C141	C	0.625480	0.137142	0.234661
C142	C	0.621775	0.083406	0.261532
C143	C	0.625860	0.241945	0.182253
C144	C	0.371899	0.390621	0.234660
C145	C	0.345019	0.360052	0.261527
C146	C	0.424320	0.364658	0.260988
C147	C	0.371902	0.469477	0.155812
C148	C	0.345025	0.523223	0.098374
C149	C	0.424323	0.443395	0.182260
C150	C	0.450777	0.390617	0.234664
C151	C	0.508233	0.360046	0.261536
C152	C	0.345565	0.443399	0.182256
C153	C	0.567572	0.613994	-0.503799
C154	C	0.567212	0.587910	-0.530120
C155	C	0.567559	0.535150	-0.424948
C156	C	0.567199	0.509186	-0.451389
C157	C	0.567578	0.535138	-0.503791
C158	C	0.567193	0.587923	-0.451397
C159	C	0.581852	0.789870	-0.551960
C160	C	0.585892	0.839681	-0.576780
C161	C	0.587929	0.864661	-0.628707
C162	C	0.592320	0.918662	-0.655619
C163	C	0.585922	0.839830	-0.655814
C164	C	0.581875	0.790028	-0.630996
C165	C	0.579840	0.765048	-0.579066
C166	C	0.581894	0.472688	-0.631493
C167	C	0.585939	0.443827	-0.656480
C168	C	0.587966	0.389871	-0.629536
C169	C	0.592360	0.358569	-0.656620
C170	C	0.585940	0.364781	-0.577602
C171	C	0.581885	0.393646	-0.552619
C172	C	0.579865	0.447602	-0.579570
C173	C	0.581798	0.472751	-0.234811
C174	C	0.585832	0.443898	-0.180962
C175	C	0.587856	0.389942	-0.153946
C176	C	0.592232	0.358654	-0.095560
C177	C	0.585851	0.364839	-0.180779
C178	C	0.581820	0.393692	-0.234625
C179	C	0.579789	0.447653	-0.261639
C180	C	0.575457	0.711042	-0.552157
C181	C	0.571960	0.667995	-0.530708
C182	C	0.571933	0.503867	-0.366564
C183	C	0.575417	0.478932	-0.320025
C184	C	0.571972	0.503841	-0.530880
C185	C	0.575473	0.478895	-0.552474
O186	O	0.593725	0.311725	0.371045
O187	O	0.619584	0.222553	0.307736
O188	O	0.530389	0.311727	0.307717
O189	O	0.682919	0.222551	0.371064
O190	O	0.530405	0.384141	0.235296
O191	O	0.619599	0.294967	0.235315
O192	O	0.593740	0.384139	0.298624
Cu193	Cu	0.606671	0.346165	0.260357
Cu194	Cu	0.606653	0.260527	0.346003
O195	O	0.682935	0.294965	0.298643
C196	C	0.031758	1.071153	-0.503813
C197	C	0.058214	1.097111	-0.530137
C198	C	0.110632	0.992292	-0.424960
C199	C	0.136969	1.018371	-0.451404
C200	C	0.110636	1.071149	-0.503808
C201	C	0.058211	1.018375	-0.451409
C202	C	-0.158453	1.133589	-0.551971
C203	C	-0.212318	1.162448	-0.576791
C204	C	-0.239338	1.216409	-0.628721
C205	C	-0.297745	1.247709	-0.655632
C206	C	-0.212487	1.241507	-0.655830
C207	C	-0.158624	1.212644	-0.631012
C208	C	-0.131607	1.158682	-0.579080
C209	C	0.158809	1.213153	-0.631521
C210	C	0.183637	1.242182	-0.656512
C211	C	0.235581	1.217265	-0.629568
C212	C	0.262504	1.248740	-0.656656
C213	C	0.262700	1.163308	-0.577632
C214	C	0.237876	1.134274	-0.552646
C215	C	0.185925	1.159205	-0.579596
C216	C	0.158789	0.816402	-0.234815
C217	C	0.183611	0.766590	-0.180965
C218	C	0.235558	0.741598	-0.153950
C219	C	0.262474	0.687590	-0.095562
C220	C	0.262678	0.766424	-0.180785
C221	C	0.237854	0.816237	-0.234633
C222	C	0.185909	0.841219	-0.261646
C223	C	-0.073202	1.127392	-0.552171
C224	C	-0.026647	1.102448	-0.530722
C225	C	0.137545	0.938284	-0.366574
C226	C	0.158998	0.895232	-0.320034
C227	C	0.137553	1.102628	-0.530900
C228	C	0.159009	1.127721	-0.552497
H229	H	0.180027	-0.003516	0.040124
H230	H	-0.234184	0.859919	-0.698792
H231	H	0.161525	0.746382	-0.159119
H232	H	0.036967	0.996552	-0.430180
H233	H	0.161524	-0.253651	0.019201
H234	H	-0.234490	1.285441	-0.698111
O235	O	0.449659	0.137074	0.156988
C236	C	0.464459	0.076114	0.185528
H237	H	0.437843	0.071031	0.210771
H238	H	0.459647	0.065021	0.156303
H239	H	0.507854	0.042998	0.212586
H240	H	-0.136766	1.233080	-0.653088
O241	O	0.449685	0.137036	0.312404
C242	C	0.464429	0.076098	0.344802
H243	H	0.467286	0.058379	0.319240
H244	H	0.504782	0.045569	0.376892
H245	H	0.433142	0.075068	0.364470
H246	H	0.626432	0.141404	0.304040
O247	O	0.626643	0.137069	0.157014
C248	C	0.672843	0.076124	0.185550
H249	H	0.687738	0.058405	0.228827
H250	H	0.662999	0.045605	0.184011
H251	H	0.705149	0.075078	0.166889
H252	H	0.587590	0.464258	-0.698764
H253	H	0.445569	0.322221	-0.019821
H254	H	0.259940	0.836447	-0.256479
O255	O	0.626499	0.292653	0.156947
C256	C	0.580780	0.341278	0.154265
H257	H	0.565033	0.321633	0.187141
H258	H	0.591595	0.369160	0.159726
H259	H	0.548744	0.372358	0.113760
O260	O	0.294235	0.292644	0.156929
C261	C	0.291325	0.341240	0.154296
H262	H	0.332124	0.332968	0.157741
H263	H	0.260903	0.386601	0.114603
H264	H	0.278596	0.343448	0.188413
O265	O	0.579795	0.765612	-0.501547
C266	C	0.531618	0.770491	-0.501674
H267	H	0.515747	0.774320	-0.537879
H268	H	0.539076	0.727861	-0.463706
H269	H	0.501074	0.813235	-0.503538
H270	H	0.580190	0.373247	-0.256468
H271	H	0.445562	0.465223	0.161027
H272	H	0.445556	0.322190	0.304046
H273	H	-0.234175	1.142009	-0.554716
H274	H	0.302507	0.465197	0.161010
H275	H	0.445564	0.465252	-0.019836
O276	O	0.566461	0.458546	-0.425990
C277	C	0.566224	0.441114	-0.373965
H278	H	0.549852	0.482565	-0.372335
H279	H	0.539973	0.423717	-0.362870
H280	H	0.608656	0.402965	-0.344621
O281	O	0.566412	0.613948	-0.426034
C282	C	0.520207	0.631611	-0.411284
H283	H	0.505299	0.603240	-0.408467
H284	H	0.530048	0.623304	-0.370921
H285	H	0.487912	0.682572	-0.442534
O286	O	0.313147	0.312456	-0.154618
C287	C	0.331754	0.296484	-0.189846
H288	H	0.308631	0.339237	-0.232694
H289	H	0.376019	0.276737	-0.181027
H290	H	0.325657	0.260563	-0.184303
H291	H	0.566622	0.609736	-0.573178
H292	H	0.587468	0.464339	-0.159117
H293	H	0.580141	0.516690	-0.256804
O294	O	0.294215	0.469454	-0.019864
C295	C	0.291300	0.469697	0.025839
H296	H	0.326696	0.467195	0.041570
H297	H	0.252593	0.513853	0.015029
H298	H	0.292255	0.428241	0.057875
O299	O	0.587861	0.863707	-0.550366
C300	C	0.585183	0.830990	-0.499217
H301	H	0.599058	0.783196	-0.486950
H302	H	0.612034	0.826446	-0.469308
H303	H	0.542294	0.856870	-0.500032
O304	O	-0.132520	0.765856	-0.502173
C305	C	-0.113519	0.703373	-0.468512
H306	H	-0.109426	0.684614	-0.493395
H307	H	-0.072946	0.675958	-0.438041
H308	H	-0.142820	0.699022	-0.446883
H309	H	0.161528	0.464340	-0.159099
O310	O	0.313100	-0.257830	0.018772
C311	C	0.312984	-0.252974	-0.029379
H312	H	0.271296	-0.214375	-0.060182
H313	H	0.342576	-0.242306	-0.044809
H314	H	0.324985	-0.298313	-0.022083
H315	H	0.036958	-0.003516	0.040125
O316	O	0.587834	0.864199	-0.706277
C317	C	0.544336	0.926691	-0.739848
H318	H	0.529649	0.945316	-0.714874
H319	H	0.557495	0.954171	-0.770237
H320	H	0.510691	0.931119	-0.761581
H321	H	-0.136785	0.090285	0.026520
H322	H	0.580239	0.769816	-0.653070
H323	H	0.036959	0.139498	0.040127
O324	O	0.579847	0.525151	-0.657648
C325	C	0.531666	0.573193	-0.662414
H326	H	0.515783	0.552861	-0.630043
H327	H	0.539123	0.603703	-0.657752
H328	H	0.501132	0.601862	-0.703299
H329	H	0.587583	0.320852	-0.555665
H330	H	0.580235	0.373215	-0.510336
H331	H	0.587502	0.320902	-0.158779
H332	H	0.180043	0.996535	-0.430170
O333	O	-0.238801	0.864099	-0.551449
C334	C	-0.282111	0.859243	-0.546715
H335	H	-0.274309	0.820643	-0.549789
H336	H	-0.286879	0.848577	-0.506467
H337	H	-0.320165	0.904581	-0.580060
H338	H	0.036972	1.139586	-0.573192
O339	O	0.108317	0.840620	-0.260968
C340	C	0.089704	0.808025	-0.225740
H341	H	0.112834	0.784801	-0.182891
H342	H	0.045442	0.841357	-0.234554
H343	H	0.095786	0.771561	-0.231287
O344	O	-0.132284	1.081161	-0.501534
C345	C	-0.167534	1.065207	-0.482926
H346	H	-0.201515	1.086775	-0.518360
H347	H	-0.145103	1.012979	-0.457556
H348	H	-0.184485	1.082963	-0.457815
O349	O	0.108356	1.237431	-0.657786
C350	C	0.089742	1.291281	-0.708976
H351	H	0.125187	1.289822	-0.721382
H352	H	0.064364	1.294231	-0.738781
H353	H	0.064623	1.333334	-0.708161
H354	H	-0.234509	0.142958	0.019186
O355	O	0.157322	1.294643	-0.706928
C356	C	0.152466	1.342765	-0.706887
H357	H	0.184895	1.322526	-0.670771
H358	H	0.156982	1.373357	-0.744936
H359	H	0.111597	1.371324	-0.704922
O360	O	0.313185	1.139109	-0.551536
C361	C	0.346758	1.124554	-0.580466
H362	H	0.321770	1.153486	-0.624067
H363	H	0.377160	1.134792	-0.577556
H364	H	0.368491	1.073618	-0.563170
O365	O	0.264283	1.081885	-0.502189
C366	C	0.315460	1.066102	-0.483767
H367	H	0.315415	1.108946	-0.506983
H368	H	0.326490	1.046376	-0.439523
H369	H	0.345859	1.030223	-0.489897
O370	O	0.313175	0.742061	-0.154549
C371	C	0.346743	0.679564	-0.135527
H372	H	0.328601	0.671083	-0.160289
H373	H	0.387642	0.667626	-0.138916
H374	H	0.351132	0.649447	-0.091995
H375	H	0.116492	0.233364	0.026548
O376	O	0.157205	0.294484	0.018930
C377	C	0.106031	0.310257	0.021576
H378	H	0.106080	0.267412	0.041199
H379	H	0.095003	0.329969	0.046104
H380	H	0.075629	0.346145	-0.020432
O381	O	0.264263	-0.159752	0.026807
C382	C	0.315440	-0.192492	0.024167
H383	H	0.315393	-0.215661	0.004540
H384	H	0.326472	-0.159276	-0.000355
H385	H	0.345838	-0.229012	0.066178
O386	O	0.032932	0.613986	-0.581504
C387	C	0.061451	0.631660	-0.613939
H388	H	0.104746	0.603285	-0.588400
H389	H	0.059895	0.623366	-0.645999
H390	H	0.042774	0.682618	-0.633645
H391	H	-0.136470	0.233373	0.026535
O392	O	-0.238335	0.294524	0.018869
C393	C	-0.202934	0.310284	0.021536
H394	H	-0.168999	0.288621	0.007670
H395	H	-0.225243	0.362495	-0.005315
H396	H	-0.185935	0.292481	0.064409
H397	H	0.259942	0.373274	-0.256467
O398	O	0.108330	-0.159460	0.026869
C399	C	0.089714	-0.192039	0.024213
H400	H	0.125157	-0.239879	0.038079
H401	H	0.064335	-0.196473	0.051069
H402	H	0.064595	-0.166111	-0.018657
O403	O	0.108335	0.525186	-0.260960
C404	C	0.089720	0.541143	-0.225726
H405	H	0.125164	0.519573	-0.191752
H406	H	0.064346	0.593370	-0.248153
H407	H	0.064597	0.523389	-0.208781
H408	H	0.259937	0.090284	0.026522
H409	H	0.304977	0.142952	0.019189
H410	H	0.180025	0.466748	-0.430150
H411	H	0.036960	0.609783	-0.430159
H412	H	0.116493	0.516690	-0.653455
O413	O	0.157202	0.468364	-0.706951
C414	C	0.106025	0.522165	-0.725370
H415	H	0.106075	0.541749	-0.702160
H416	H	0.094989	0.557712	-0.769616
H417	H	0.075629	0.510540	-0.719229
H418	H	-0.136468	0.769563	-0.653460
H419	H	0.259936	0.373264	-0.510345
H420	H	0.304972	0.320896	-0.555673
