data_functionalizedCrystal
_audit_creation_method	'MofGen! by Chris Wilmer'
_symmetry_space_group_name_H-M	'P1'
_symmetry_Int_Tables_number	1
_symmetry_cell_setting	triclinic
loop_
_symmetry_equiv_pos_as_xyz
  x,y,z
_cell_length_a	18.215407
_cell_length_b	18.215405
_cell_length_c	18.215399
_cell_angle_alpha	90.030551
_cell_angle_beta	90.019833
_cell_angle_gamma	90.025333
loop_
_atom_site_label
_atom_site_type_symbol
_atom_site_fract_x
_atom_site_fract_y
_atom_site_fract_z
Zn1	Zn	-1.125072	0.292983	-0.416103
Zn2	Zn	-0.625072	0.792983	0.083897
Zn3	Zn	-1.124980	0.416054	-0.293031
Zn4	Zn	-0.624980	0.916054	0.206969
Zn5	Zn	-1.002005	0.293007	-0.293050
Zn6	Zn	-0.502005	0.793007	0.206950
Zn7	Zn	-1.001970	0.416013	-0.416056
Zn8	Zn	-0.501970	0.916013	0.083944
O9	O	-1.063507	0.354514	-0.354560
O10	O	-0.563507	0.854514	0.145440
O11	O	-1.228044	0.309316	-0.399788
O12	O	-0.728044	0.809316	0.100212
O13	O	-1.108643	0.399759	-0.190049
O14	O	-0.608643	0.899759	0.309951
O15	O	-1.018382	0.190020	-0.309401
O16	O	-0.518382	0.690020	0.190599
O17	O	-1.227977	0.399736	-0.309368
O18	O	-0.727977	0.899736	0.190632
O19	O	-1.108799	0.190002	-0.399807
O20	O	-0.608799	0.690002	0.100193
O21	O	-1.018293	0.309357	-0.190063
O22	O	-0.518293	0.809357	0.309937
O23	O	-0.899016	0.309317	-0.309355
O24	O	-0.399016	0.809317	0.190645
O25	O	-1.018324	0.399666	-0.519046
O26	O	-0.518324	0.899666	-0.019046
O27	O	-0.898991	0.399689	-0.399727
O28	O	-0.398991	0.899689	0.100273
O29	O	-1.108766	0.309276	-0.519081
O30	O	-0.608766	0.809276	-0.019081
O31	O	-1.108610	0.519033	-0.309322
O32	O	-0.608610	1.019033	0.190678
O33	O	-1.018235	0.519003	-0.399708
O34	O	-0.518235	1.019003	0.100292
C35	C	-0.872301	0.354502	-0.354539
C36	C	-0.372301	0.854502	0.145461
C37	C	-0.790502	0.354514	-0.354547
C38	C	-0.290502	0.854514	0.145453
C39	C	-1.063429	0.545721	-0.354524
C40	C	-0.563429	1.045721	0.145476
C41	C	-1.063463	0.627520	-0.354534
C42	C	-0.563463	1.127520	0.145466
C43	C	-1.063552	0.354464	-0.546513
C44	C	-0.563552	0.854464	-0.046513
C45	C	-1.063571	0.354442	-0.628312
C46	C	-0.563571	0.854442	-0.128312
C47	C	-1.255460	0.354528	-0.354581
C48	C	-0.755460	0.854528	0.145419
C49	C	-1.337259	0.354533	-0.354591
C50	C	-0.837259	0.854533	0.145409
C51	C	-0.602314	0.401645	-0.401544
C52	C	-0.102314	0.901645	0.098456
C53	C	-0.525455	0.401647	-0.401554
C54	C	-0.025455	0.901647	0.098446
C55	C	-0.525452	0.307397	-0.307591
C56	C	-0.025452	0.807397	0.192409
C57	C	-0.602309	0.307392	-0.307586
C58	C	-0.102309	0.807392	0.192414
C59	C	-0.640738	0.354520	-0.354562
C60	C	-0.140738	0.854520	0.145438
C61	C	-0.487022	0.354528	-0.354576
C62	C	0.012978	0.854528	0.145424
C63	C	-0.403688	0.354530	-0.354585
C64	C	0.096312	0.854530	0.145415
C65	C	-0.724077	0.354517	-0.354553
C66	C	-0.224077	0.854517	0.145447
C67	C	-1.063605	0.162561	-0.354611
C68	C	-0.563605	0.662561	0.145389
C69	C	-1.063647	0.080763	-0.354633
C70	C	-0.563647	0.580763	0.145367
C71	C	-1.110632	0.815705	-0.307556
C72	C	-0.610632	1.315705	0.192444
C73	C	-1.110665	0.892563	-0.307574
C74	C	-0.610665	1.392563	0.192426
C75	C	-1.016476	0.892572	-0.401616
C76	C	-0.516476	1.392572	0.098384
C77	C	-1.016447	0.815715	-0.401601
C78	C	-0.516447	1.315715	0.098399
C79	C	-1.063524	0.777283	-0.354567
C80	C	-0.563524	1.277283	0.145433
C81	C	-1.063586	0.930999	-0.354600
C82	C	-0.563586	1.430999	0.145400
C83	C	-1.063621	1.014333	-0.354619
C84	C	-0.563621	1.514333	0.145381
C85	C	-1.063490	0.693944	-0.354548
C86	C	-0.563490	1.193944	0.145452
C87	C	-1.110681	0.307332	-0.816525
C88	C	-0.610681	0.807332	-0.316525
C89	C	-1.110690	0.307311	-0.893384
C90	C	-0.610690	0.807311	-0.393384
C91	C	-1.016513	0.401438	-0.893336
C92	C	-0.516513	0.901438	-0.393336
C93	C	-1.016501	0.401455	-0.816479
C94	C	-0.516501	0.901455	-0.316479
C95	C	-1.063589	0.354403	-0.778075
C96	C	-0.563589	0.854403	-0.278075
C97	C	-1.063610	0.354365	-0.931791
C98	C	-0.563610	0.854365	-0.431791
C99	C	-1.063619	0.354342	-1.015125
C100	C	-0.563619	0.854342	-0.515125
C101	C	-1.063579	0.354425	-0.694736
C102	C	-0.563579	0.854425	-0.194736
C103	C	-1.063504	0.354512	-0.163353
C104	C	-0.563504	0.854512	0.336647
C105	C	-1.063628	0.354326	-0.081555
C106	C	-0.563628	0.854326	0.418445
H107	H	-0.633601	0.440018	-0.439797
H108	H	-0.133601	0.940018	0.060203
C109	C	-1.162469	0.255574	-0.774279
C110	C	-0.662469	0.755574	-0.274279
H111	H	-1.155724	0.262329	-0.722999
H112	H	-0.655724	0.762329	-0.222999
H113	H	-1.151724	0.206124	-0.786889
H114	H	-0.651724	0.706124	-0.286889
H115	H	-1.211915	0.266347	-0.786883
H116	H	-0.711915	0.766347	-0.286883
C117	C	-1.162474	0.934828	-0.255855
C118	C	-0.662474	1.434828	0.244145
H119	H	-1.155754	0.986106	-0.262602
H120	H	-0.655754	1.486106	0.237398
H121	H	-1.151722	0.922274	-0.206398
H122	H	-0.651722	1.422274	0.293602
H123	H	-1.211914	0.922184	-0.266668
H124	H	-0.711914	1.422184	0.233332
C125	C	-0.483177	0.255569	-0.255914
C126	C	0.016823	0.755569	0.244086
H127	H	-0.431900	0.262327	-0.262639
H128	H	0.068100	0.762327	0.237361
H129	H	-0.495793	0.206133	-0.266767
H130	H	0.004207	0.706133	0.233233
H131	H	-0.495752	0.266285	-0.206446
H132	H	0.004248	0.766285	0.293554
C133	C	-0.964688	0.934849	-0.453341
C134	C	-0.464688	1.434849	0.046659
H135	H	-0.971445	0.986126	-0.446612
H136	H	-0.471445	1.486126	0.053388
H137	H	-0.975419	0.922211	-0.502797
H138	H	-0.475419	1.422211	-0.002797
H139	H	-0.915242	0.922299	-0.442513
H140	H	-0.415242	1.422299	0.057487
C141	C	-0.964625	0.773448	-0.453315
C142	C	-0.464625	1.273448	0.046685
H143	H	-0.936585	0.807343	-0.481321
H144	H	-0.436585	1.307343	0.018679
H145	H	-0.992747	0.743419	-0.485400
H146	H	-0.492747	1.243419	0.014600
H147	H	-0.932564	0.743513	-0.425121
H148	H	-0.432564	1.243513	0.074879
C149	C	-1.162421	0.773432	-0.255829
C150	C	-0.662421	1.273432	0.244171
H151	H	-1.190486	0.807325	-0.227839
H152	H	-0.690486	1.307325	0.272161
H153	H	-1.134282	0.743495	-0.223729
H154	H	-0.634282	1.243495	0.276271
H155	H	-1.194459	0.743406	-0.284012
H156	H	-0.694459	1.243406	0.215988
H157	H	-1.149035	0.268979	-0.924686
H158	H	-0.649035	0.768979	-0.424686
C159	C	-0.964726	0.453198	-0.935583
C160	C	-0.464726	0.953198	-0.435583
H161	H	-0.971483	0.446452	-0.986863
H162	H	-0.471483	0.946452	-0.486863
H163	H	-0.915282	0.442431	-0.922983
H164	H	-0.415282	0.942431	-0.422983
H165	H	-0.975478	0.502649	-0.922972
H166	H	-0.475478	1.002649	-0.422972
H167	H	-0.494174	0.440020	-0.439813
H168	H	0.005826	0.940020	0.060187
H169	H	-0.633595	0.269012	-0.269327
H170	H	-0.133595	0.769012	0.230673
C171	C	-0.964702	0.453241	-0.774182
C172	C	-0.464702	0.953241	-0.274182
H173	H	-0.936668	0.481270	-0.808060
H174	H	-0.436668	0.981270	-0.308060
H175	H	-0.932645	0.425098	-0.744200
H176	H	-0.432645	0.925098	-0.244200
H177	H	-0.992843	0.485315	-0.744198
H178	H	-0.492843	0.985315	-0.244198
