data_functionalizedCrystal
_audit_creation_method	'MofGen! by Chris Wilmer'
_symmetry_space_group_name_H-M	'P1'
_symmetry_Int_Tables_number	1
_symmetry_cell_setting	triclinic
loop_
_symmetry_equiv_pos_as_xyz
  x,y,z
_cell_length_a	10.489741
_cell_length_b	10.489741
_cell_length_c	9.565339
_cell_angle_alpha	89.999484
_cell_angle_beta	89.999100
_cell_angle_gamma	95.460826
loop_
_atom_site_label
_atom_site_type_symbol
_atom_site_fract_x
_atom_site_fract_y
_atom_site_fract_z
O1	O	1.694053	-0.179959	-0.116173
O2	O	1.322857	-0.196852	-0.116194
O3	O	1.516901	-0.002807	-0.116175
O4	O	1.500009	-0.374003	-0.116192
O5	O	1.516886	-0.002819	0.116345
O6	O	1.322842	-0.196864	0.116326
O7	O	1.694038	-0.179971	0.116347
Zn8	Zn	1.508437	-0.188419	0.153254
Zn9	Zn	1.508458	-0.188403	-0.153101
O10	O	1.499993	-0.374015	0.116328
C11	C	1.275318	-0.195582	0.000063
C12	C	1.133688	-0.191765	0.000055
C13	C	1.065548	-0.068300	0.000074
C14	C	0.973429	-0.126617	-0.114571
C15	C	0.973448	-0.126659	0.114676
C16	C	1.043435	-0.250133	-0.114684
C17	C	1.043463	-0.250157	0.114665
C18	C	0.951371	-0.308564	-0.000007
C19	C	1.515618	0.044718	0.000084
C20	C	1.511801	0.186348	0.000082
C21	C	1.741577	-0.181241	0.000087
C22	C	1.883206	-0.185058	0.000086
C23	C	1.501277	-0.421541	0.000066
C24	C	1.505094	-0.563170	0.000059
N25	N	1.508433	-0.188429	0.362334
C26	C	1.388336	0.254488	0.000064
C27	C	1.446652	0.346604	0.114712
C28	C	1.446696	0.346591	-0.114534
C29	C	1.570168	0.276599	0.114824
C30	C	1.570195	0.276576	-0.114525
C31	C	1.628600	0.368665	0.000150
N32	N	1.508472	-0.188383	-0.362180
C33	C	1.418666	-0.278138	0.453528
C34	C	1.534163	-0.303949	0.546712
C35	C	1.392986	-0.162629	0.546704
C36	C	1.623988	-0.214298	0.453466
C37	C	1.482735	-0.072928	0.453451
C38	C	1.598314	-0.098690	0.546593
H39	H	1.074269	-0.302328	-0.211717
O40	O	1.456960	0.043584	0.404460
C41	C	1.560936	0.096878	0.323352
H42	H	1.651486	0.052184	0.355196
H43	H	1.575061	0.204741	0.341271
H44	H	1.540338	0.076807	0.208005
O45	O	1.632303	0.239358	-0.230189
C46	C	1.549199	0.153419	-0.308761
H47	H	1.470954	0.106663	-0.237702
H48	H	1.605677	0.076405	-0.356085
H49	H	1.503766	0.207691	-0.396030
H50	H	1.295338	-0.140828	0.587664
H51	H	1.674328	-0.022802	0.587199
H52	H	0.942421	-0.074372	-0.211491
O53	O	0.936652	-0.064153	0.230267
C54	C	0.995313	0.062492	0.229809
H55	H	1.085469	0.067786	0.162694
H56	H	1.021917	0.092823	0.341304
H57	H	0.925992	0.129275	0.185061
O58	O	0.892338	-0.429746	0.000166
C59	C	0.816050	-0.448518	0.121130
H60	H	0.853427	-0.377648	0.205328
H61	H	0.820300	-0.550434	0.161029
H62	H	0.712736	-0.432655	0.094849
O63	O	1.267153	0.195452	0.000252
C64	C	1.178626	0.288511	0.001539
H65	H	1.226438	0.381893	0.046139
H66	H	1.092893	0.253513	0.069204
H67	H	1.144962	0.305376	-0.109681
O68	O	1.749897	0.427418	0.000303
C69	C	1.838169	0.334114	0.001481
H70	H	1.790152	0.240807	0.046046
H71	H	1.923996	0.368870	0.069121
H72	H	1.871741	0.317219	-0.109769
H73	H	1.074503	-0.302360	0.211590
H74	H	1.555926	-0.401606	0.587676
O75	O	1.384124	0.383520	0.230234
C76	C	1.257495	0.324816	0.229842
H77	H	1.228150	0.297382	0.118276
H78	H	1.190311	0.394442	0.273144
H79	H	1.251626	0.235158	0.297788
O80	O	1.632550	0.239684	0.230445
C81	C	1.740221	0.177908	0.189545
H82	H	1.725242	0.138939	0.078906
H83	H	1.753269	0.095546	0.264348
H84	H	1.829217	0.249280	0.192309
O85	O	1.384195	0.383383	-0.230129
C86	C	1.257551	0.324718	-0.229676
H87	H	1.252256	0.234566	-0.162557
H88	H	1.227228	0.298107	-0.341172
H89	H	1.190763	0.394040	-0.184938
O90	O	1.740516	-0.240654	0.405030
C91	C	1.767582	-0.362052	0.453717
H92	H	1.709279	-0.387349	0.552124
H93	H	1.874002	-0.359990	0.478799
H94	H	1.741353	-0.436980	0.369602
O95	O	1.124999	0.052711	0.000015
C96	C	1.258805	0.047468	0.001209
H97	H	1.281890	-0.048402	0.045962
H98	H	1.305414	0.128527	0.068695
H99	H	1.297312	0.058040	-0.110059
O100	O	1.328326	-0.368888	0.404827
C101	C	1.355919	-0.490486	0.452379
H102	H	1.462169	-0.487862	0.478506
H103	H	1.331010	-0.564666	0.367155
H104	H	1.296893	-0.517259	0.549923
