data_functionalizedCrystal
_audit_creation_method	'MofGen! by Chris Wilmer'
_symmetry_space_group_name_H-M	'P1'
_symmetry_Int_Tables_number	1
_symmetry_cell_setting	triclinic
loop_
_symmetry_equiv_pos_as_xyz
  x,y,z
_cell_length_a	12.811457
_cell_length_b	10.654550
_cell_length_c	11.295483
_cell_angle_alpha	94.136004
_cell_angle_beta	91.289320
_cell_angle_gamma	84.263143
loop_
_atom_site_label
_atom_site_type_symbol
_atom_site_fract_x
_atom_site_fract_y
_atom_site_fract_z
O1	O	1.390272	0.173489	0.051117
O2	O	1.087142	0.189101	0.018380
O3	O	1.245676	-0.001416	0.035506
O4	O	1.231738	0.364007	0.033991
O5	O	1.231751	0.015291	0.232052
O6	O	1.073217	0.205809	0.214926
O7	O	1.376347	0.190196	0.247664
Cu8	Cu	1.223511	0.199528	0.249241
Cu9	Cu	1.239978	0.179770	0.016802
O10	O	1.217813	0.380714	0.230538
C11	C	1.041365	0.196068	0.112461
C12	C	0.925710	0.191921	0.099970
C13	C	0.693201	0.202320	0.290798
C14	C	0.584532	0.198423	0.279068
C15	C	0.599704	0.180221	0.064781
C16	C	0.708372	0.184118	0.076511
C17	C	0.755116	0.195170	0.189523
C18	C	0.863786	0.199076	0.201252
C19	C	0.878956	0.180865	-0.013034
C20	C	0.770288	0.176968	-0.024764
C21	C	1.237690	-0.039865	0.133667
C22	C	1.234629	-0.179320	0.133332
C23	C	1.327971	-0.258438	0.143417
C24	C	1.325088	-0.389471	0.143097
C25	C	1.135512	-0.362255	0.122612
C26	C	1.138397	-0.231225	0.122924
C27	C	1.424203	-0.206533	0.153825
C28	C	1.517553	-0.285652	0.163912
C29	C	1.514670	-0.416685	0.163592
C30	C	1.418437	-0.468599	0.153186
C31	C	1.422124	0.183229	0.153580
C32	C	1.537779	0.187376	0.166063
C33	C	1.225799	0.419162	0.132374
C34	C	1.228861	0.558617	0.132701
N35	N	1.211936	0.213425	0.412727
N36	N	1.251561	0.165863	-0.146683
C37	C	1.334882	0.065759	0.675298
C38	C	1.326142	0.076270	0.799018
C39	C	1.185713	0.244950	0.783888
C40	C	1.194452	0.234439	0.660168
C41	C	1.269040	0.144842	0.605878
C42	C	1.277784	0.134338	0.482157
C43	C	1.137351	0.303012	0.467028
C44	C	1.128611	0.313522	0.590748
H45	H	0.561627	0.171202	-0.027228
C46	C	1.615906	-0.502803	0.174461
C47	C	1.592793	-0.628668	0.171924
C48	C	1.686029	-0.708034	0.181922
H49	H	1.650543	-0.481264	0.247250
H50	H	1.660191	-0.492815	0.110154
H51	H	1.548525	-0.638651	0.236226
H52	H	1.558170	-0.650247	0.099142
H53	H	1.730314	-0.698045	0.117616
H54	H	1.720658	-0.686483	0.254712
H55	H	1.670360	-0.793442	0.180192
H56	H	1.083741	0.367410	0.410492
H57	H	1.067880	0.386467	0.634965
C58	C	1.104621	0.342237	0.842617
C59	C	1.048803	0.409225	0.755342
C60	C	0.974078	0.498838	0.809396
H61	H	1.138925	0.399305	0.894961
H62	H	1.057476	0.300509	0.886129
H63	H	1.095941	0.450952	0.711849
H64	H	1.014477	0.352192	0.702992
H65	H	0.926933	0.457110	0.852909
H66	H	1.008390	0.555897	0.861740
H67	H	0.936190	0.544292	0.750189
H68	H	1.062389	-0.166805	0.114713
H69	H	0.731259	0.211335	0.382817
C70	C	0.914351	0.211007	0.324050
C71	C	0.836867	0.216396	0.410230
C72	C	0.883407	0.227365	0.523367
H73	H	0.949008	0.285980	0.332458
H74	H	0.963818	0.139799	0.333936
H75	H	0.787420	0.287598	0.400349
H76	H	0.802206	0.141433	0.401862
H77	H	0.932874	0.156157	0.533253
H78	H	0.918062	0.302338	0.531763
H79	H	0.830843	0.231011	0.581854
C80	C	0.517480	0.206272	0.389167
C81	C	0.581678	0.216814	0.490642
C82	C	0.519946	0.224062	0.592091
H83	H	0.482169	0.132085	0.390011
H84	H	0.467374	0.278246	0.388314
H85	H	0.631766	0.144847	0.491496
H86	H	0.616990	0.290999	0.489837
H87	H	0.469840	0.296037	0.591237
H88	H	0.484637	0.149873	0.592923
H89	H	0.563493	0.231228	0.660953
H90	H	0.732214	0.167964	-0.116775
C91	C	1.031136	-0.418852	0.111397
C92	C	1.048587	-0.550533	0.113316
C93	C	0.952458	-0.602708	0.103007
H94	H	0.997435	-0.397753	0.038711
H95	H	0.987795	-0.386030	0.175808
H96	H	1.091911	-0.583343	0.048910
H97	H	1.082272	-0.571667	0.185995
H98	H	0.909116	-0.569887	0.167419
H99	H	0.918764	-0.581601	0.030321
H100	H	0.964284	-0.692058	0.104319
C101	C	1.621921	-0.229048	0.175252
C102	C	1.604469	-0.097360	0.173405
C103	C	1.700590	-0.045176	0.183864
H104	H	1.665332	-0.261791	0.110895
H105	H	1.655545	-0.250220	0.247976
H106	H	1.570861	-0.076198	0.100690
H107	H	1.561075	-0.064582	0.237760
H108	H	1.734214	-0.066348	0.256588
H109	H	1.743993	-0.077929	0.119504
H110	H	1.688761	0.044180	0.182623
H111	H	1.395621	-0.007186	0.631095
H112	H	0.929379	0.175050	-0.095499
H113	H	1.426561	-0.099841	0.154090
C114	C	1.358791	0.036941	0.423427
C115	C	1.414559	-0.030091	0.510708
C116	C	1.489180	-0.119840	0.456654
H117	H	1.405989	0.078523	0.379878
H118	H	1.324373	-0.020071	0.371115
H119	H	1.448975	0.026912	0.562999
H120	H	1.367389	-0.071701	0.554263
H121	H	1.454762	-0.176852	0.404342
H122	H	1.536371	-0.078246	0.413105
H123	H	1.527021	-0.165339	0.515864
H124	H	1.379756	0.011871	0.855537
H125	H	1.416098	-0.575297	0.152914
