data_functionalizedCrystal
_audit_creation_method	'MofGen! by Chris Wilmer'
_symmetry_space_group_name_H-M	'P1'
_symmetry_Int_Tables_number	1
_symmetry_cell_setting	triclinic
loop_
_symmetry_equiv_pos_as_xyz
  x,y,z
_cell_length_a	19.805407
_cell_length_b	18.101397
_cell_length_c	19.805399
_cell_angle_alpha	90.029325
_cell_angle_beta	90.019573
_cell_angle_gamma	90.020466
loop_
_atom_site_label
_atom_site_type_symbol
_atom_site_fract_x
_atom_site_fract_y
_atom_site_fract_z
Zn1	Zn	1.034764	-0.294847	0.382711
Zn2	Zn	1.284764	-0.044847	0.632711
Zn3	Zn	1.534764	0.205153	0.882711
Zn4	Zn	1.784764	0.455153	1.132711
Zn5	Zn	1.034690	-0.418690	0.269520
Zn6	Zn	1.284690	-0.168690	0.519520
Zn7	Zn	1.534690	0.081310	0.769520
Zn8	Zn	1.784690	0.331310	1.019520
Zn9	Zn	0.921578	-0.294867	0.269536
Zn10	Zn	1.171578	-0.044867	0.519536
Zn11	Zn	1.421578	0.205133	0.769536
Zn12	Zn	1.671578	0.455133	1.019536
Zn13	Zn	0.921554	-0.418651	0.382667
Zn14	Zn	1.171554	-0.168651	0.632667
Zn15	Zn	1.421554	0.081349	0.882667
Zn16	Zn	1.671554	0.331349	1.132667
O17	O	0.978146	-0.356764	0.326108
O18	O	1.228146	-0.106764	0.576108
O19	O	1.478146	0.143236	0.826108
O20	O	1.728146	0.393236	1.076108
O21	O	1.129470	-0.311283	0.367708
O22	O	1.379470	-0.061283	0.617708
O23	O	1.629470	0.188717	0.867708
O24	O	1.879470	0.438717	1.117708
O25	O	1.019665	-0.402290	0.174805
O26	O	1.269665	-0.152290	0.424805
O27	O	1.519665	0.097710	0.674805
O28	O	1.769665	0.347710	0.924805
O29	O	0.936634	-0.191232	0.284575
O30	O	1.186634	0.058768	0.534575
O31	O	1.436634	0.308768	0.784575
O32	O	1.686634	0.558768	1.034575
O33	O	1.129417	-0.402270	0.284547
O34	O	1.379417	-0.152270	0.534547
O35	O	1.629417	0.097730	0.784547
O36	O	1.879417	0.347730	1.034547
O37	O	1.019790	-0.191217	0.367724
O38	O	1.269790	0.058783	0.617724
O39	O	1.519790	0.308783	0.867724
O40	O	1.769790	0.558783	1.117724
O41	O	0.936562	-0.311318	0.174817
O42	O	1.186562	-0.061318	0.424817
O43	O	1.436562	0.188682	0.674817
O44	O	1.686562	0.438682	0.924817
O45	O	0.826858	-0.311279	0.284531
O46	O	1.076858	-0.061279	0.534531
O47	O	1.326858	0.188721	0.784531
O48	O	1.576858	0.438721	1.034531
O49	O	0.936591	-0.402203	0.477389
O50	O	1.186591	-0.152203	0.727389
O51	O	1.436591	0.097797	0.977389
O52	O	1.686591	0.347797	1.227389
O53	O	0.826840	-0.402223	0.367648
O54	O	1.076840	-0.152223	0.617648
O55	O	1.326840	0.097777	0.867648
O56	O	1.576840	0.347777	1.117648
O57	O	1.019766	-0.311245	0.477422
O58	O	1.269766	-0.061245	0.727422
O59	O	1.519766	0.188755	0.977422
O60	O	1.769766	0.438755	1.227422
O61	O	1.019641	-0.522318	0.284503
O62	O	1.269641	-0.272318	0.534503
O63	O	1.519641	-0.022318	0.784503
O64	O	1.769641	0.227682	1.034503
O65	O	0.936520	-0.522289	0.367632
O66	O	1.186520	-0.272289	0.617632
O67	O	1.436520	-0.022289	0.867632
O68	O	1.686520	0.227711	1.117632
C69	C	0.802290	-0.356750	0.326087
C70	C	1.052290	-0.106750	0.576087
C71	C	1.302290	0.143250	0.826087
C72	C	1.552290	0.393250	1.076087
C73	C	0.727058	-0.356761	0.326093
C74	C	0.977058	-0.106761	0.576093
C75	C	1.227058	0.143239	0.826093
C76	C	1.477058	0.393239	1.076093
C77	C	0.691722	-0.404187	0.369302
C78	C	0.941722	-0.154187	0.619302
C79	C	1.191722	0.095813	0.869302
C80	C	1.441722	0.345813	1.119302
C81	C	0.621034	-0.404188	0.369311
C82	C	0.871034	-0.154188	0.619311
C83	C	1.121034	0.095812	0.869311
C84	C	1.371034	0.345812	1.119311
C85	C	0.585683	-0.356767	0.326108
C86	C	0.835683	-0.106767	0.576108
C87	C	1.085683	0.143233	0.826108
C88	C	1.335683	0.393233	1.076108
C89	C	0.621024	-0.309336	0.282898
C90	C	0.871024	-0.059336	0.532898
C91	C	1.121024	0.190664	0.782898
C92	C	1.371024	0.440664	1.032898
C93	C	0.691711	-0.309332	0.282892
C94	C	0.941711	-0.059332	0.532892
C95	C	1.191711	0.190668	0.782892
C96	C	1.441711	0.440668	1.032892
C97	C	0.335950	-0.309353	0.282920
C98	C	0.585950	-0.059353	0.532920
C99	C	0.835950	0.190647	0.782920
C100	C	1.085950	0.440647	1.032920
C101	C	0.265258	-0.309362	0.282928
C102	C	0.515258	-0.059362	0.532928
C103	C	0.765258	0.190638	0.782928
C104	C	1.015258	0.440638	1.032928
C105	C	0.265274	-0.404209	0.369339
C106	C	0.515274	-0.154209	0.619339
C107	C	0.765274	0.095791	0.869339
C108	C	1.015274	0.345791	1.119339
C109	C	0.335961	-0.404205	0.369334
C110	C	0.585961	-0.154205	0.619334
C111	C	0.835961	0.095795	0.869334
C112	C	1.085961	0.345795	1.119334
C113	C	0.371295	-0.356771	0.326126
C114	C	0.621295	-0.106771	0.576126
C115	C	0.871295	0.143229	0.826126
C116	C	1.121295	0.393229	1.076126
C117	C	0.447944	-0.356770	0.326117
C118	C	0.697944	-0.106770	0.576117
C119	C	0.947944	0.143230	0.826117
C120	C	1.197944	0.393230	1.076117
C121	C	0.509036	-0.356772	0.326113
C122	C	0.759036	-0.106772	0.576113
C123	C	1.009036	0.143228	0.826113
C124	C	1.259036	0.393228	1.076113
C125	C	0.978088	-0.549174	0.326076
C126	C	1.228088	-0.299174	0.576076
C127	C	1.478088	-0.049174	0.826076
C128	C	1.728088	0.200826	1.076076
C129	C	0.978126	-0.631488	0.326084
C130	C	1.228126	-0.381488	0.576084
C131	C	1.478126	-0.131488	0.826084
C132	C	1.728126	0.118512	1.076084
C133	C	0.978212	-0.930579	0.326146
C134	C	1.228212	-0.680579	0.576146
C135	C	1.478212	-0.430579	0.826146
C136	C	1.728212	-0.180579	1.076146
C137	C	1.030364	-0.899242	0.273704
C138	C	1.280364	-0.649242	0.523704
C139	C	1.530364	-0.399242	0.773704
C140	C	1.780364	-0.149242	1.023704
C141	C	1.030544	-0.813623	0.273840
C142	C	1.280544	-0.563623	0.523840
C143	C	1.530544	-0.313623	0.773840
C144	C	1.780544	-0.063623	1.023840
C145	C	0.978169	-0.782197	0.326115
C146	C	1.228169	-0.532197	0.576115
C147	C	1.478169	-0.282197	0.826115
C148	C	1.728169	-0.032197	1.076115
C149	C	0.997504	-0.813206	0.397460
C150	C	1.247504	-0.563206	0.647460
C151	C	1.497504	-0.313206	0.897460
C152	C	1.747504	-0.063206	1.147460
C153	C	0.997908	-0.898851	0.397174
C154	C	1.247908	-0.648851	0.647174
C155	C	1.497908	-0.398851	0.897174
C156	C	1.747908	-0.148851	1.147174
C157	C	0.906586	-0.899088	0.307861
C158	C	1.156586	-0.649088	0.557861
C159	C	1.406586	-0.399088	0.807861
C160	C	1.656586	-0.149088	1.057861
C161	C	0.906940	-0.813438	0.306268
C162	C	1.156940	-0.563438	0.556268
C163	C	1.406940	-0.313438	0.806268
C164	C	1.656940	-0.063438	1.056268
C165	C	0.978144	-0.698337	0.326101
C166	C	1.228144	-0.448337	0.576101
C167	C	1.478144	-0.198337	0.826101
C168	C	1.728144	0.051663	1.076101
C169	C	0.978239	-1.014439	0.326164
C170	C	1.228239	-0.764439	0.576164
C171	C	1.478239	-0.514439	0.826164
C172	C	1.728239	-0.264439	1.076164
C173	C	1.154689	-0.356779	0.326131
C174	C	1.404689	-0.106779	0.576131
C175	C	1.654689	0.143221	0.826131
C176	C	1.904689	0.393221	1.076131
C177	C	1.229921	-0.356785	0.326140
C178	C	1.479921	-0.106785	0.576140
C179	C	1.729921	0.143215	0.826140
C180	C	1.979921	0.393215	1.076140
C181	C	0.978184	-0.356717	0.502651
C182	C	1.228184	-0.106717	0.752651
C183	C	1.478184	0.143283	1.002651
C184	C	1.728184	0.393283	1.252651
C185	C	0.978201	-0.356697	0.577883
C186	C	1.228201	-0.106697	0.827883
C187	C	1.478201	0.143303	1.077883
C188	C	1.728201	0.393303	1.327883
C189	C	0.978223	-0.163602	0.326156
C190	C	1.228223	0.086398	0.576156
C191	C	1.478223	0.336398	0.826156
C192	C	1.728223	0.586398	1.076156
C193	C	0.978256	-0.081288	0.326177
C194	C	1.228256	0.168712	0.576177
C195	C	1.478256	0.418712	0.826177
C196	C	1.728256	0.668712	1.076177
C197	C	0.978148	-0.356757	0.150252
C198	C	1.228148	-0.106757	0.400252
C199	C	1.478148	0.143243	0.650252
C200	C	1.728148	0.393243	0.900252
C201	C	0.978263	-0.356568	0.075021
C202	C	1.228263	-0.106568	0.325021
C203	C	1.478263	0.143432	0.575021
C204	C	1.728263	0.393432	0.825021
C205	C	1.021511	-0.309333	0.613246
C206	C	1.271511	-0.059333	0.863246
C207	C	1.521511	0.190667	1.113246
C208	C	1.771511	0.440667	1.363246
C209	C	1.021518	-0.309311	0.683934
C210	C	1.271518	-0.059311	0.933934
C211	C	1.521518	0.190689	1.183934
C212	C	1.771518	0.440689	1.433934
C213	C	0.978217	-0.356659	0.719259
C214	C	1.228217	-0.106659	0.969259
C215	C	1.478217	0.143341	1.219259
C216	C	1.728217	0.393341	1.469259
C217	C	0.934902	-0.404025	0.683892
C218	C	1.184902	-0.154025	0.933892
C219	C	1.434902	0.095975	1.183892
C220	C	1.684902	0.345975	1.433892
C221	C	0.934893	-0.404042	0.613204
C222	C	1.184893	-0.154042	0.863204
C223	C	1.434893	0.095958	1.113204
C224	C	1.684893	0.345958	1.363204
C225	C	0.934941	-0.403956	0.968965
C226	C	1.184941	-0.153956	1.218965
C227	C	1.434941	0.096044	1.468965
C228	C	1.684941	0.346044	1.718965
C229	C	0.934955	-0.403937	1.039657
C230	C	1.184955	-0.153937	1.289657
C231	C	1.434955	0.096063	1.539657
C232	C	1.684955	0.346063	1.789657
C233	C	1.021566	-0.309225	1.039695
C234	C	1.271566	-0.059225	1.289695
C235	C	1.521566	0.190775	1.539695
C236	C	1.771566	0.440775	1.789695
C237	C	1.021556	-0.309242	0.969008
C238	C	1.271556	-0.059242	1.219008
C239	C	1.521556	0.190758	1.469008
C240	C	1.771556	0.440758	1.719008
C241	C	0.978239	-0.356606	0.933646
C242	C	1.228239	-0.106606	1.183646
C243	C	1.478239	0.143394	1.433646
C244	C	1.728239	0.393394	1.683646
C245	C	0.978231	-0.356627	0.856998
C246	C	1.228231	-0.106627	1.106998
C247	C	1.478231	0.143373	1.356998
C248	C	1.728231	0.393373	1.606998
C249	C	0.978228	-0.356641	0.795906
C250	C	1.228228	-0.106641	1.045906
C251	C	1.478228	0.143359	1.295906
C252	C	1.728228	0.393359	1.545906
H253	H	0.720480	-0.270709	0.247711
H254	H	0.970480	-0.020709	0.497711
H255	H	1.220480	0.229291	0.747711
H256	H	1.470480	0.479291	0.997711
F257	F	0.887879	-0.786954	0.237643
F258	F	1.137879	-0.536954	0.487643
F259	F	1.387879	-0.286954	0.737643
F260	F	1.637879	-0.036954	0.987643
H261	H	0.720500	-0.442805	0.404481
H262	H	0.970500	-0.192805	0.654481
H263	H	1.220500	0.057195	0.904481
H264	H	1.470500	0.307195	1.154481
F265	F	0.888866	-0.454332	1.077251
F266	F	1.138866	-0.204332	1.327251
F267	F	1.388866	0.045668	1.577251
F268	F	1.638866	0.295668	1.827251
H269	H	1.083130	-0.920710	0.285663
H270	H	1.333130	-0.670710	0.535663
H271	H	1.583130	-0.420710	0.785663
H272	H	1.833130	-0.170710	1.035663
H273	H	1.056834	-0.270657	1.068494
H274	H	1.306834	-0.020657	1.318494
H275	H	1.556834	0.229343	1.568494
H276	H	1.806834	0.479343	1.818494
F277	F	1.065171	-0.785097	0.418048
F278	F	1.315171	-0.535097	0.668048
F279	F	1.565171	-0.285097	0.918048
F280	F	1.815171	-0.035097	1.168048
F281	F	1.014698	-0.786221	0.204702
F282	F	1.264698	-0.536221	0.454702
F283	F	1.514698	-0.286221	0.704702
F284	F	1.764698	-0.036221	0.954702
F285	F	0.583430	-0.454665	0.415300
F286	F	0.833430	-0.204665	0.665300
F287	F	1.083430	0.045335	0.915300
F288	F	1.333430	0.295335	1.165300
F289	F	0.227662	-0.454692	0.415326
F290	F	0.477662	-0.204692	0.665326
F291	F	0.727662	0.045308	0.915326
F292	F	0.977662	0.295308	1.165326
F293	F	0.373547	-0.258868	0.236936
F294	F	0.623547	-0.008868	0.486936
F295	F	0.873547	0.241132	0.736936
F296	F	1.123547	0.491132	0.986936
H297	H	0.364740	-0.442822	0.404512
H298	H	0.614740	-0.192822	0.654512
H299	H	0.864740	0.057178	0.904512
H300	H	1.114740	0.307178	1.154512
H301	H	1.056818	-0.270690	0.940250
H302	H	1.306818	-0.020690	1.190250
H303	H	1.556818	0.229310	1.440250
H304	H	1.806818	0.479310	1.690250
H305	H	0.899644	-0.442573	0.712659
H306	H	1.149644	-0.192573	0.962659
H307	H	1.399644	0.057427	1.212659
H308	H	1.649644	0.307427	1.462659
F309	F	0.227636	-0.258887	0.236944
F310	F	0.477636	-0.008887	0.486944
F311	F	0.727636	0.241113	0.736944
F312	F	0.977636	0.491113	0.986944
F313	F	0.583398	-0.258862	0.236922
F314	F	0.833398	-0.008862	0.486922
F315	F	1.083398	0.241138	0.736922
F316	F	1.333398	0.491138	0.986922
H317	H	0.899618	-0.442604	0.584413
H318	H	1.149618	-0.192604	0.834413
H319	H	1.399618	0.057396	1.084413
H320	H	1.649618	0.307396	1.334413
H321	H	0.888996	-0.920747	0.256738
H322	H	1.138996	-0.670747	0.506738
H323	H	1.388996	-0.420747	0.756738
H324	H	1.638996	-0.170747	1.006738
H325	H	0.899679	-0.442533	0.940182
H326	H	1.149679	-0.192533	1.190182
H327	H	1.399679	0.057467	1.440182
H328	H	1.649679	0.307467	1.690182
H329	H	1.083601	-0.793080	0.285938
H330	H	1.333601	-0.543080	0.535938
H331	H	1.583601	-0.293080	0.785938
H332	H	1.833601	-0.043080	1.035938
H333	H	1.018413	-0.919883	0.220644
H334	H	1.268413	-0.669883	0.470644
H335	H	1.518413	-0.419883	0.720644
H336	H	1.768413	-0.169883	0.970644
F337	F	0.853417	-0.785488	0.352537
F338	F	1.103417	-0.535488	0.602537
F339	F	1.353417	-0.285488	0.852537
F340	F	1.603417	-0.035488	1.102537
H341	H	1.050263	-0.918770	0.412663
H342	H	1.300263	-0.668770	0.662663
H343	H	1.550263	-0.418770	0.912663
H344	H	1.800263	-0.168770	1.162663
F345	F	0.950409	-0.925946	0.449982
F346	F	1.200409	-0.675946	0.699982
F347	F	1.450409	-0.425946	0.949982
F348	F	1.700409	-0.175946	1.199982
H349	H	0.960681	-0.792847	0.437584
H350	H	1.210681	-0.542847	0.687584
H351	H	1.460681	-0.292847	0.937584
H352	H	1.710681	-0.042847	1.187584
F353	F	0.855797	-0.925579	0.357784
F354	F	1.105797	-0.675579	0.607784
F355	F	1.355797	-0.425579	0.857784
F356	F	1.605797	-0.175579	1.107784
F357	F	1.067601	-0.258942	0.575657
F358	F	1.317601	-0.008942	0.825657
F359	F	1.567601	0.241058	1.075657
F360	F	1.817601	0.491058	1.325657
F361	F	1.067638	-0.258925	0.721566
F362	F	1.317638	-0.008925	0.971566
F363	F	1.567638	0.241075	1.221566
F364	F	1.817638	0.491075	1.471566
