data_functionalizedCrystal
_audit_creation_method	'MofGen! by Chris Wilmer'
_symmetry_space_group_name_H-M	'P1'
_symmetry_Int_Tables_number	1
_symmetry_cell_setting	triclinic
loop_
_symmetry_equiv_pos_as_xyz
  x,y,z
_cell_length_a	21.395364
_cell_length_b	19.805405
_cell_length_c	21.395355
_cell_angle_alpha	89.980090
_cell_angle_beta	89.975484
_cell_angle_gamma	90.022175
loop_
_atom_site_label
_atom_site_type_symbol
_atom_site_fract_x
_atom_site_fract_y
_atom_site_fract_z
Zn1	Zn	0.957878	-0.269618	-0.354255
Zn2	Zn	1.457878	0.230382	0.145745
Zn3	Zn	0.957788	-0.382788	-0.249475
Zn4	Zn	1.457788	0.117212	0.250525
Zn5	Zn	0.853093	-0.269610	-0.249492
Zn6	Zn	1.353093	0.230390	0.250508
Zn7	Zn	0.853070	-0.382762	-0.354215
Zn8	Zn	1.353070	0.117238	0.145785
O9	O	0.905457	-0.326194	-0.301859
O10	O	1.405457	0.173806	0.198141
O11	O	1.045544	-0.284645	-0.340365
O12	O	1.545544	0.215355	0.159635
O13	O	0.943872	-0.367782	-0.161799
O14	O	1.443872	0.132218	0.338201
O15	O	0.867040	-0.174894	-0.263412
O16	O	1.367040	0.325106	0.236588
O17	O	1.045478	-0.367790	-0.263384
O18	O	1.545478	0.132210	0.236616
O19	O	0.944025	-0.174900	-0.340381
O20	O	1.444025	0.325100	0.159619
O21	O	0.866953	-0.284630	-0.161811
O22	O	1.366953	0.215370	0.338189
O23	O	0.765412	-0.284605	-0.263374
O24	O	1.265412	0.215395	0.236626
O25	O	0.867001	-0.367746	-0.441898
O26	O	1.367001	0.132254	0.058102
O27	O	0.765395	-0.367738	-0.340314
O28	O	1.265395	0.132262	0.159686
O29	O	0.944003	-0.284620	-0.441927
O30	O	1.444003	0.215380	0.058073
O31	O	0.943850	-0.477501	-0.263345
O32	O	1.443850	0.022499	0.236655
O33	O	0.866914	-0.477482	-0.340297
O34	O	1.366914	0.022518	0.159703
C35	C	0.742669	-0.326169	-0.301841
C36	C	1.242669	0.173831	0.198159
C37	C	0.673028	-0.326174	-0.301849
C38	C	1.173028	0.173826	0.198151
C39	C	0.171266	-0.283003	-0.342017
C40	C	0.671266	0.216997	0.157983
C41	C	0.236701	-0.282998	-0.342017
C42	C	0.736701	0.217002	0.157983
C43	C	0.269390	-0.326215	-0.301873
C44	C	0.769390	0.173785	0.198127
C45	C	0.236638	-0.369453	-0.261737
C46	C	0.736638	0.130547	0.238263
C47	C	0.171204	-0.369462	-0.261743
C48	C	0.671204	0.130538	0.238257
C49	C	0.373027	-0.331456	-0.245406
C50	C	0.873027	0.168544	0.254594
C51	C	0.438460	-0.331443	-0.245399
C52	C	0.938460	0.168557	0.254601
C53	C	0.471211	-0.326193	-0.301856
C54	C	0.971211	0.173807	0.198144
C55	C	0.438521	-0.320941	-0.358321
C56	C	0.938521	0.179059	0.141679
C57	C	0.373086	-0.320950	-0.358327
C58	C	0.873086	0.179050	0.141673
C59	C	0.340342	-0.326211	-0.301863
C60	C	0.840342	0.173789	0.198137
C61	C	0.574907	-0.282955	-0.341992
C62	C	1.074907	0.217045	0.158008
C63	C	0.640344	-0.282955	-0.341993
C64	C	1.140344	0.217045	0.158007
C65	C	0.640279	-0.369407	-0.261707
C66	C	1.140279	0.130593	0.238293
C67	C	0.574844	-0.369411	-0.261712
C68	C	1.074844	0.130589	0.238288
C69	C	0.542162	-0.326181	-0.301853
C70	C	1.042162	0.173819	0.198147
C71	C	0.905387	-0.502051	-0.301829
C72	C	1.405387	-0.002051	0.198171
C73	C	0.905414	-0.577282	-0.301837
C74	C	1.405414	-0.077282	0.198163
C75	C	0.945513	-0.612614	-0.261810
C76	C	1.445513	-0.112614	0.238190
C77	C	0.945540	-0.683302	-0.261823
C78	C	1.445540	-0.183302	0.238177
C79	C	0.905463	-0.718658	-0.301862
C80	C	1.405463	-0.218658	0.198138
C81	C	0.865362	-0.683322	-0.341893
C82	C	1.365362	-0.183322	0.158107
C83	C	0.865339	-0.612634	-0.341882
C84	C	1.365339	-0.112634	0.158118
C85	C	0.865454	-0.968395	-0.341940
C86	C	1.365454	-0.468395	0.158060
C87	C	0.865479	-1.039087	-0.341946
C88	C	1.365479	-0.539087	0.158054
C89	C	0.945655	-1.039063	-0.261881
C90	C	1.445655	-0.539063	0.238119
C91	C	0.945632	-0.968376	-0.261870
C92	C	1.445632	-0.468376	0.238130
C93	C	0.905534	-0.933045	-0.301903
C94	C	1.405534	-0.433045	0.198097
C95	C	0.905506	-0.856397	-0.301889
C96	C	1.405506	-0.356397	0.198111
C97	C	0.905487	-0.795305	-0.301874
C98	C	1.405487	-0.295305	0.198126
C99	C	1.068880	-0.326221	-0.301877
C100	C	1.568880	0.173779	0.198123
C101	C	1.138522	-0.326232	-0.301885
C102	C	1.638522	0.173768	0.198115
C103	C	0.905509	-0.326181	-0.465282
C104	C	1.405509	0.173819	0.034718
C105	C	0.905531	-0.326175	-0.534924
C106	C	1.405531	0.173825	-0.034924
C107	C	0.905545	-0.149652	-0.301903
C108	C	1.405545	0.350348	0.198097
C109	C	0.905582	-0.074420	-0.301922
C110	C	1.405582	0.425580	0.198078
C111	C	0.945624	-0.282889	-0.567653
C112	C	1.445624	0.217111	-0.067653
C113	C	0.945624	-0.282860	-0.633088
C114	C	1.445624	0.217140	-0.133088
C115	C	0.905536	-0.326129	-0.665792
C116	C	1.405536	0.173871	-0.165792
C117	C	0.865435	-0.369418	-0.633055
C118	C	1.365435	0.130582	-0.133055
C119	C	0.865433	-0.369441	-0.567621
C120	C	1.365433	0.130559	-0.067621
C121	C	0.900564	-0.387073	-0.769456
C122	C	1.400564	0.112927	-0.269456
C123	C	0.900571	-0.387051	-0.834889
C124	C	1.400571	0.112949	-0.334889
C125	C	0.905540	-0.326057	-0.867613
C126	C	1.405540	0.173943	-0.367613
C127	C	0.910515	-0.265084	-0.834895
C128	C	1.410515	0.234916	-0.334895
C129	C	0.910513	-0.265107	-0.769461
C130	C	1.410513	0.234893	-0.269461
C131	C	0.905534	-0.326108	-0.736744
C132	C	1.405534	0.173892	-0.236744
C133	C	0.945634	-0.282736	-0.971295
C134	C	1.445634	0.217264	-0.471295
C135	C	0.945629	-0.282706	-1.036731
C136	C	1.445629	0.217294	-0.536731
C137	C	0.865444	-0.369270	-1.036697
C138	C	1.365444	0.130730	-0.536697
C139	C	0.865446	-0.369294	-0.971261
C140	C	1.365446	0.130706	-0.471261
C141	C	0.905545	-0.326028	-0.938564
C142	C	1.405545	0.173972	-0.438564
C143	C	0.905441	-0.326159	-0.139071
C144	C	1.405441	0.173841	0.360929
C145	C	0.905541	-0.325974	-0.069431
C146	C	1.405541	0.174026	0.430569
H147	H	0.666894	-0.404601	-0.229026
H148	H	1.166894	0.095399	0.270974
H149	H	0.667003	-0.247754	-0.374678
H150	H	1.167003	0.252246	0.125322
H151	H	0.896524	-0.436699	-0.861523
H152	H	1.396524	0.063301	-0.361523
H153	H	0.548296	-0.247755	-0.374677
H154	H	1.048296	0.252245	0.125323
O155	O	0.984385	-0.578168	-0.222936
O156	O	1.484385	-0.078168	0.277064
C157	C	1.019915	-0.469264	-0.187459
C158	C	1.519915	0.030736	0.312541
C159	C	0.975847	-0.508187	-0.231504
C160	C	1.475847	-0.008187	0.268496
H161	H	1.013036	-0.412677	-0.194380
H162	H	1.513036	0.087323	0.305620
H163	H	1.008941	-0.483150	-0.136915
H164	H	1.508941	0.016850	0.363085
H165	H	1.070428	-0.483157	-0.198505
H166	H	1.570428	0.016843	0.301495
H167	H	0.925319	-0.494314	-0.220514
H168	H	1.425319	0.005686	0.279486
H169	H	0.986874	-0.494298	-0.282034
H170	H	1.486874	0.005702	0.217966
O171	O	0.826329	-0.578416	-0.380786
O172	O	1.326329	-0.078416	0.119214
C173	C	0.746840	-0.585895	-0.460239
C174	C	1.246840	-0.085895	0.039761
C175	C	0.790972	-0.624730	-0.416196
C176	C	1.290972	-0.124730	0.083804
H177	H	0.718251	-0.623323	-0.488889
H178	H	1.218251	-0.123323	0.011111
H179	H	0.714038	-0.552858	-0.431474
H180	H	1.214038	-0.052858	0.068526
H181	H	0.775595	-0.552745	-0.492993
H182	H	1.275595	-0.052745	0.007007
H183	H	0.762268	-0.657917	-0.383433
H184	H	1.262268	-0.157917	0.116567
H185	H	0.823776	-0.657725	-0.445000
H186	H	1.323776	-0.157725	0.055000
O187	O	0.543130	-0.411420	-0.222662
O188	O	1.043130	0.088580	0.277338
C189	C	0.549973	-0.497193	-0.143056
C190	C	1.049973	0.002807	0.356944
C191	C	0.585967	-0.449637	-0.187238
C192	C	1.085967	0.050363	0.312762
H193	H	0.584591	-0.528114	-0.114414
H194	H	1.084591	-0.028114	0.385586
H195	H	0.519347	-0.466102	-0.110306
H196	H	1.019347	0.033898	0.389694
H197	H	0.519327	-0.532604	-0.171775
H198	H	1.019327	-0.032604	0.328225
H199	H	0.616647	-0.414217	-0.158569
H200	H	1.116647	0.085783	0.341431
H201	H	0.616553	-0.480770	-0.219989
H202	H	1.116553	0.019230	0.280011
H203	H	0.465071	-0.335715	-0.199421
H204	H	0.965071	0.164285	0.300579
O205	O	0.984634	-1.073279	-0.222937
O206	O	1.484634	-0.573279	0.277063
C207	C	1.064183	-1.065792	-0.143544
C208	C	1.564183	-0.565792	0.356456
C209	C	1.020065	-1.026961	-0.187606
C210	C	1.520065	-0.526961	0.312394
H211	H	1.092850	-1.028361	-0.114977
H212	H	1.592850	-0.528361	0.385023
H213	H	1.035475	-1.098911	-0.110720
H214	H	1.535475	-0.598911	0.389280
H215	H	1.096917	-1.098860	-0.172354
H216	H	1.596917	-0.598860	0.327646
H217	H	0.987322	-0.993856	-0.158846
H218	H	1.487322	-0.493856	0.341154
H219	H	1.048812	-0.993885	-0.220431
H220	H	1.548812	-0.493885	0.279569
H221	H	0.832801	-0.404546	-0.944613
H222	H	1.332801	0.095454	-0.444613
O223	O	0.984514	-0.240672	-1.068624
O224	O	1.484514	0.259328	-0.568624
C225	C	1.020070	-0.202290	-1.169443
C226	C	1.520070	0.297710	-0.669443
C227	C	0.975994	-0.249920	-1.133403
C228	C	1.475994	0.250080	-0.633403
H229	H	1.013206	-0.209760	-1.221823
H230	H	1.513206	0.290240	-0.721823
H231	H	1.009093	-0.147702	-1.156615
H232	H	1.509093	0.352298	-0.656615
H233	H	1.070580	-0.214181	-1.156565
H234	H	1.570580	0.285819	-0.656565
H235	H	0.925469	-0.238090	-1.146261
H236	H	1.425469	0.261910	-0.646261
H237	H	0.987025	-0.304493	-1.146234
H238	H	1.487025	0.195507	-0.646234
H239	H	0.346473	-0.316676	-0.404303
H240	H	0.846473	0.183324	0.095697
O241	O	0.341313	-0.336533	-0.190501
O242	O	0.841313	0.163467	0.309499
C243	C	0.348158	-0.346985	-0.078500
C244	C	0.848158	0.153015	0.421500
C245	C	0.384151	-0.341222	-0.140629
C246	C	0.884151	0.158778	0.359371
H247	H	0.382777	-0.350791	-0.038164
H248	H	0.882777	0.149209	0.461836
H249	H	0.317549	-0.300421	-0.071921
H250	H	0.817549	0.199579	0.428079
H251	H	0.317496	-0.394061	-0.079429
H252	H	0.817496	0.105939	0.420571
H253	H	0.414847	-0.294173	-0.139745
H254	H	0.914847	0.205827	0.360255
H255	H	0.414721	-0.387820	-0.147184
H256	H	0.914721	0.112180	0.352816
O257	O	0.984511	-0.717519	-0.222880
O258	O	1.484511	-0.217519	0.277120
C259	C	1.064056	-0.710035	-0.143484
C260	C	1.564056	-0.210035	0.356516
C261	C	1.019941	-0.671202	-0.187546
C262	C	1.519941	-0.171202	0.312454
H263	H	1.092723	-0.672605	-0.114914
H264	H	1.592723	-0.172605	0.385086
H265	H	1.035347	-0.743153	-0.110661
H266	H	1.535347	-0.243153	0.389339
H267	H	1.096791	-0.743104	-0.172293
H268	H	1.596791	-0.243104	0.327707
H269	H	0.987198	-0.638097	-0.158788
H270	H	1.487198	-0.138097	0.341212
H271	H	1.048690	-0.638127	-0.220370
H272	H	1.548690	-0.138127	0.279630
H273	H	0.914562	-0.215417	-0.861538
H274	H	1.414562	0.284583	-0.361538
H275	H	0.978264	-0.939591	-0.229265
H276	H	1.478264	-0.439591	0.270735
H277	H	0.832845	-1.067871	-0.374555
H278	H	1.332845	-0.567871	0.125445
O279	O	0.268585	-0.240966	-0.380915
O280	O	0.768585	0.259034	0.119085
C281	C	0.342459	-0.149557	-0.389473
C282	C	0.842459	0.350443	0.110527
C283	C	0.306405	-0.197126	-0.345352
C284	C	0.806405	0.302874	0.154648
H285	H	0.373035	-0.114091	-0.360737
H286	H	0.873035	0.385909	0.139263
H287	H	0.373147	-0.180637	-0.422173
H288	H	0.873147	0.319363	0.077827
H289	H	0.307847	-0.118696	-0.418177
H290	H	0.807847	0.381304	0.081823
H291	H	0.340972	-0.227998	-0.316607
H292	H	0.840972	0.272002	0.183393
H293	H	0.275708	-0.166008	-0.312693
H294	H	0.775708	0.333992	0.187307
O295	O	0.826436	-0.934186	-0.380837
O296	O	1.326436	-0.434186	0.119163
C297	C	0.746923	-0.941675	-0.460266
C298	C	1.246923	-0.441675	0.039734
C299	C	0.791075	-0.980505	-0.416238
C300	C	1.291075	-0.480505	0.083762
H301	H	0.718332	-0.979108	-0.488908
H302	H	1.218332	-0.479108	0.011092
H303	H	0.714125	-0.908646	-0.431489
H304	H	1.214125	-0.408646	0.068511
H305	H	0.775663	-0.908519	-0.493027
H306	H	1.275663	-0.408519	0.006973
H307	H	0.762386	-1.013698	-0.383468
H308	H	1.262386	-0.513698	0.116532
H309	H	0.823875	-1.013492	-0.445054
H310	H	1.323875	-0.513492	0.054946
O311	O	0.826421	-0.411398	-0.535797
O312	O	1.326421	0.088602	-0.035797
C313	C	0.741851	-0.420523	-0.461854
C314	C	1.241851	0.079477	0.038146
C315	C	0.785982	-0.372927	-0.497866
C316	C	1.285982	0.127073	0.002134
H317	H	0.709154	-0.389440	-0.431168
H318	H	1.209154	0.110560	0.068832
H319	H	0.713151	-0.451432	-0.496438
H320	H	1.213151	0.048568	0.003562
H321	H	0.770614	-0.455945	-0.431261
H322	H	1.270614	0.044055	0.068739
H323	H	0.757267	-0.337465	-0.528460
H324	H	1.257267	0.162535	-0.028460
H325	H	0.814684	-0.342067	-0.463249
H326	H	1.314684	0.157933	0.036751
H327	H	0.978275	-0.247658	-0.541035
H328	H	1.478275	0.252342	-0.041035
O329	O	0.895699	-0.446383	-0.737769
O330	O	1.395699	0.053617	-0.237769
C331	C	0.885663	-0.567339	-0.744668
C332	C	1.385663	-0.067339	-0.244668
C333	C	0.891225	-0.500228	-0.780631
C334	C	1.391225	-0.000228	-0.280631
H335	H	0.882030	-0.610888	-0.779307
H336	H	1.382030	-0.110888	-0.279307
H337	H	0.928725	-0.574608	-0.714035
H338	H	1.428725	-0.074608	-0.214035
H339	H	0.842068	-0.566195	-0.714033
H340	H	1.342068	-0.066195	-0.214033
H341	H	0.934794	-0.501323	-0.811301
H342	H	1.434794	-0.001323	-0.311301
H343	H	0.848132	-0.492984	-0.811225
H344	H	1.348132	0.007016	-0.311225
H345	H	0.263257	-0.404643	-0.229053
H346	H	0.763257	0.095357	0.270947
H347	H	0.832734	-0.712114	-0.374496
H348	H	1.332734	-0.212114	0.125504
H349	H	0.144544	-0.404666	-0.229061
H350	H	0.644544	0.095334	0.270939
H351	H	0.978271	-0.247608	-0.659742
H352	H	1.478271	0.252392	-0.159742
H353	H	0.978282	-0.247503	-0.944671
H354	H	1.478282	0.252497	-0.444671
H355	H	0.914562	-0.215460	-0.742826
H356	H	1.414562	0.284540	-0.242826
H357	H	0.465185	-0.316662	-0.404293
H358	H	0.965185	0.183338	0.095707
H359	H	0.832798	-0.404493	-1.063323
H360	H	1.332798	0.095507	-0.563323
O361	O	0.826437	-0.411472	-0.664723
O362	O	1.326437	0.088528	-0.164723
C363	C	0.746931	-0.497360	-0.657784
C364	C	1.246931	0.002640	-0.157784
C365	C	0.791058	-0.449758	-0.621843
C366	C	1.291058	0.050242	-0.121843
H367	H	0.718325	-0.528336	-0.623132
H368	H	1.218325	-0.028336	-0.123132
H369	H	0.714145	-0.466302	-0.688391
H370	H	1.214145	0.033698	-0.188391
H371	H	0.775691	-0.532717	-0.688444
H372	H	1.275691	-0.032717	-0.188444
H373	H	0.762348	-0.414391	-0.591149
H374	H	1.262348	0.085609	-0.091149
H375	H	0.823846	-0.480857	-0.591276
H376	H	1.323846	0.019143	-0.091276
O377	O	0.139616	-0.240994	-0.381072
O378	O	0.639616	0.259006	0.118928
C379	C	0.146589	-0.155214	-0.460672
C380	C	0.646589	0.344786	0.039328
C381	C	0.182511	-0.202764	-0.416484
C382	C	0.682511	0.297236	0.083516
H383	H	0.181254	-0.124283	-0.489305
H384	H	0.681254	0.375717	0.010695
H385	H	0.115982	-0.186309	-0.493429
H386	H	0.615982	0.313691	0.006571
H387	H	0.115930	-0.119812	-0.431956
H388	H	0.615930	0.380188	0.068044
H389	H	0.213204	-0.238176	-0.445149
H390	H	0.713204	0.261824	0.054851
H391	H	0.213079	-0.171627	-0.383725
H392	H	0.713079	0.328373	0.116275
