data_functionalizedCrystal
_audit_creation_method	'MofGen! by Chris Wilmer'
_symmetry_space_group_name_H-M	'P1'
_symmetry_Int_Tables_number	1
_symmetry_cell_setting	triclinic
loop_
_symmetry_equiv_pos_as_xyz
  x,y,z
_cell_length_a	21.395362
_cell_length_b	10.685194
_cell_length_c	21.395356
_cell_angle_alpha	85.604207
_cell_angle_beta	89.964122
_cell_angle_gamma	94.391346
loop_
_atom_site_label
_atom_site_type_symbol
_atom_site_fract_x
_atom_site_fract_y
_atom_site_fract_z
Zn1	Zn	0.938808	-0.501910	-0.335484
Zn2	Zn	0.930735	-0.712953	-0.222675
Zn3	Zn	0.834034	-0.502004	-0.230682
Zn4	Zn	0.826002	-0.712943	-0.327380
O5	O	0.882394	-0.607452	-0.279055
O6	O	1.025416	-0.529870	-0.320560
O7	O	0.917890	-0.685013	-0.136057
O8	O	0.854672	-0.325391	-0.251327
O9	O	1.019485	-0.684922	-0.237680
O10	O	0.931649	-0.325321	-0.328324
O11	O	0.846844	-0.530030	-0.141940
O12	O	0.745289	-0.530021	-0.243468
O13	O	0.840983	-0.684905	-0.416134
O14	O	0.739388	-0.684997	-0.314512
O15	O	0.923861	-0.529860	-0.422089
O16	O	0.910102	-0.889552	-0.229822
O17	O	0.833155	-0.889545	-0.306748
C18	C	0.719604	-0.607519	-0.278980
C19	C	0.649961	-0.607578	-0.278961
C20	C	0.614187	-0.688381	-0.315890
C21	C	0.548753	-0.688350	-0.315919
C22	C	0.519094	-0.607529	-0.279008
C23	C	0.554876	-0.526711	-0.242077
C24	C	0.620309	-0.526735	-0.242054
C25	C	0.415762	-0.597382	-0.222989
C26	C	0.350329	-0.597366	-0.223011
C27	C	0.317277	-0.607447	-0.279080
C28	C	0.349664	-0.617570	-0.335129
C29	C	0.415097	-0.617594	-0.335105
C30	C	0.448143	-0.607493	-0.279029
C31	C	0.210552	-0.688221	-0.316043
C32	C	0.145117	-0.688181	-0.316074
C33	C	0.151241	-0.526548	-0.242226
C34	C	0.216675	-0.526582	-0.242202
C35	C	0.246326	-0.607424	-0.279109
C36	C	0.869898	-0.935339	-0.266550
C37	C	0.864609	-1.075610	-0.261221
C38	C	1.045820	-0.607386	-0.279131
C39	C	1.115463	-0.607358	-0.279163
C40	C	0.882427	-0.607371	-0.442482
C41	C	0.882440	-0.607337	-0.512124
C42	C	0.894957	-0.278285	-0.291623
C43	C	0.900310	-0.138014	-0.296978
C44	C	0.925661	-0.526404	-1.017030
C45	C	0.925655	-0.526434	-0.951593
C46	C	0.882500	-0.607169	-0.915769
C47	C	0.839359	-0.687902	-0.945386
C48	C	0.839370	-0.687878	-1.010821
C49	C	0.825652	-0.617194	-0.811692
C50	C	0.825640	-0.617209	-0.746259
C51	C	0.882465	-0.607249	-0.713945
C52	C	0.939306	-0.597248	-0.747074
C53	C	0.939317	-0.597224	-0.812509
C54	C	0.882483	-0.607204	-0.844815
C55	C	0.925600	-0.526561	-0.613382
C56	C	0.925595	-0.526600	-0.547944
C57	C	0.839293	-0.688061	-0.541738
C58	C	0.839304	-0.688028	-0.607175
C59	C	0.882457	-0.607271	-0.642993
C60	C	0.882402	-0.607442	-0.116268
C61	C	0.882523	-0.607121	-0.046639
H62	H	0.442668	-0.589168	-0.177327
N63	N	0.314004	-0.628513	-0.395593
H64	H	0.322278	-0.710272	-0.413700
H65	H	0.267655	-0.626921	-0.387035
H66	H	0.829990	-1.129502	-0.226532
N67	N	0.510154	-0.775505	-0.355746
H68	H	0.522327	-0.756040	-0.401270
H69	H	0.518087	-0.865617	-0.342444
H70	H	0.779374	-0.625306	-0.837997
N71	N	0.242537	-0.775402	-0.355854
H72	H	0.289417	-0.763166	-0.350231
H73	H	0.227630	-0.865499	-0.342595
N74	N	0.972196	-0.439291	-1.055662
H75	H	0.999521	-0.388156	-1.026971
H76	H	0.999243	-0.490617	-1.080868
H77	H	0.934922	-1.084129	-0.331671
H78	H	0.960783	-0.460699	-0.927480
H79	H	0.960737	-0.460803	-0.642546
H80	H	0.441464	-0.625832	-0.380742
H81	H	0.985598	-0.589084	-0.839480
N82	N	1.000602	-0.586498	-0.712233
H83	H	0.991973	-0.588037	-0.665753
H84	H	1.025832	-0.659458	-0.720899
H85	H	0.960727	-0.460873	-0.523837
H86	H	0.779357	-0.625352	-0.719290
H87	H	0.804158	-0.753801	-0.512571
N88	N	0.792774	-0.775083	-0.639116
H89	H	0.765433	-0.826234	-0.606495
H90	H	0.765742	-0.723716	-0.668215
H91	H	0.804223	-0.753638	-0.916214
N92	N	0.792840	-0.774930	-1.042768
H93	H	0.799129	-0.865101	-1.027944
H94	H	0.748839	-0.755250	-1.032098
N95	N	0.646169	-0.775571	-0.355695
H96	H	0.613573	-0.826755	-0.379094
H97	H	0.675313	-0.724292	-0.386681
H98	H	0.115991	-0.753978	-0.346149
H99	H	0.127093	-0.460737	-0.212176
H100	H	0.530724	-0.460904	-0.212025
N101	N	0.255264	-0.439421	-0.202376
H102	H	0.226549	-0.388211	-0.178999
H103	H	0.280422	-0.490713	-0.171371
N104	N	0.315399	-0.586454	-0.162563
H105	H	0.323966	-0.659350	-0.131677
H106	H	0.329914	-0.504680	-0.144480
H107	H	0.649436	-0.460932	-0.211983
