data_functionalizedCrystal
_audit_creation_method	'MofGen! by Chris Wilmer'
_symmetry_space_group_name_H-M	'P1'
_symmetry_Int_Tables_number	1
_symmetry_cell_setting	triclinic
loop_
_symmetry_equiv_pos_as_xyz
  x,y,z
_cell_length_a	15.944551
_cell_length_b	19.188930
_cell_length_c	14.421503
_cell_angle_alpha	89.999163
_cell_angle_beta	89.996859
_cell_angle_gamma	83.321760
loop_
_atom_site_label
_atom_site_type_symbol
_atom_site_fract_x
_atom_site_fract_y
_atom_site_fract_z
O1	O	1.114192	0.090038	-0.077026
O2	O	0.869601	0.101140	-0.077050
O3	O	0.998955	-0.006048	-0.077019
O4	O	0.984838	0.197227	-0.077057
O5	O	0.998934	-0.006032	0.077204
O6	O	0.869580	0.101156	0.077173
O7	O	1.114171	0.090054	0.077198
Cu8	Cu	0.991873	0.095607	0.091267
Cu9	Cu	0.991899	0.095588	-0.091120
O10	O	0.984817	0.197243	0.077167
C11	C	0.838298	0.100687	0.000059
C12	C	0.745057	0.099306	0.000050
C13	C	0.530462	0.029563	0.000081
C14	C	0.469331	0.061941	-0.075965
C15	C	0.574341	0.096806	0.000062
C16	C	0.469332	0.061973	0.076087
C17	C	0.409437	0.094386	0.000077
C18	C	0.514438	0.129203	-0.076047
C19	C	0.514446	0.129225	0.076073
C20	C	0.453332	0.161652	0.000008
C21	C	0.669338	0.098198	0.000052
C22	C	0.314441	0.093000	0.000080
C23	C	0.998487	-0.032052	0.000095
C24	C	0.997115	-0.109560	0.000103
C25	C	1.073016	-0.154288	0.000115
C26	C	1.071726	-0.227115	0.000100
C27	C	0.994532	-0.255211	0.000092
C28	C	0.918622	-0.210474	0.000075
C29	C	0.919913	-0.137648	0.000080
N30	N	0.935519	-0.363364	0.052571
N31	N	0.934298	-0.432545	0.052568
C32	C	0.990637	-0.474630	0.000073
N33	N	1.048256	-0.444921	-0.052407
N34	N	1.049480	-0.375733	-0.052400
C35	C	0.993123	-0.334178	0.000085
C36	C	1.065145	-0.598326	0.000067
C37	C	1.063852	-0.671154	0.000046
C38	C	0.910745	-0.654511	0.000030
C39	C	0.912040	-0.581685	0.000041
C40	C	0.989242	-0.553597	0.000064
C41	C	1.145474	0.090507	0.000087
C42	C	1.238715	0.091889	0.000089
C43	C	0.985285	0.223247	0.000050
C44	C	0.986657	0.300755	0.000036
N45	N	0.991862	0.095619	0.219549
N46	N	0.991917	0.095569	-0.219401
C47	C	0.932038	0.145161	0.469188
C48	C	1.007887	0.158716	0.530995
C49	C	0.991882	0.095603	0.408710
C50	C	0.916052	0.082064	0.530997
C51	C	0.991895	0.095588	0.591431
C52	C	1.067770	0.109189	0.469157
C53	C	0.975885	0.032510	0.469153
C54	C	1.051789	0.046038	0.530932
C55	C	0.991874	0.095613	0.303449
C56	C	0.991913	0.095578	0.696690
H57	H	0.564003	-0.026244	-0.000003
C58	C	1.157934	-0.123395	0.000124
H59	H	1.202954	-0.160468	0.000119
H60	H	1.161618	-0.095330	0.053904
H61	H	1.161626	-0.095334	-0.053665
H62	H	0.858103	-0.101230	0.000071
C63	C	1.155218	-0.276328	0.000120
H64	H	1.143390	-0.323722	0.000108
H65	H	1.186871	-0.267813	0.053908
H66	H	1.186896	-0.267813	-0.053661
C67	C	0.541497	0.167621	0.162913
H68	H	0.526238	0.143667	0.216897
H69	H	0.514026	0.214281	0.163451
H70	H	0.600926	0.168586	0.161976
C71	C	0.833710	-0.241377	0.000069
H72	H	0.843811	-0.291155	0.000077
H73	H	0.802475	-0.226023	-0.053715
H74	H	0.802463	-0.226023	0.053854
C75	C	1.026178	0.230782	0.567706
H76	H	0.983602	0.265949	0.546574
H77	H	1.079640	0.240740	0.545627
H78	H	1.026556	0.230120	0.633574
C79	C	1.150061	-0.567426	0.000082
H80	H	1.195082	-0.604498	0.000073
H81	H	1.153741	-0.539367	0.053867
H82	H	1.153753	-0.539359	-0.053702
C83	C	0.957558	-0.039535	0.432416
H84	H	0.903623	-0.049079	0.453552
H85	H	0.999521	-0.074837	0.454475
H86	H	0.958199	-0.039129	0.366549
C87	C	0.829419	0.066595	0.567694
H88	H	0.836247	0.024977	0.603935
H89	H	0.793001	0.060555	0.516925
H90	H	0.805567	0.104714	0.604877
C91	C	0.442311	0.023513	-0.162799
H92	H	0.468986	-0.023411	-0.162699
H93	H	0.458510	0.046942	-0.216802
H94	H	0.382762	0.023286	-0.162451
C95	C	0.541299	0.167601	-0.162984
H96	H	0.600789	0.168226	-0.162470
H97	H	0.514187	0.214379	-0.163189
H98	H	0.525505	0.143878	-0.216926
H99	H	0.419965	0.217516	-0.000045
C100	C	1.147347	-0.720355	0.000061
H101	H	1.193507	-0.693194	0.000085
H102	H	1.150041	-0.749108	-0.053722
H103	H	1.150011	-0.749112	0.053847
H104	H	0.847892	-0.677386	0.000019
H105	H	0.449343	0.033526	0.140376
C106	C	0.828548	-0.532482	0.000044
H107	H	0.782388	-0.559643	0.000045
H108	H	0.825874	-0.503722	-0.053733
H109	H	0.825866	-0.503732	0.053836
H110	H	0.881481	0.187105	0.442078
C111	C	1.154424	0.124744	0.432623
H112	H	1.153880	0.124680	0.366749
H113	H	1.196958	0.089746	0.454255
H114	H	1.165884	0.169417	0.454313
C115	C	1.120234	-0.010587	0.567337
H116	H	1.174047	-0.000858	0.546047
H117	H	1.109323	-0.055287	0.545225
H118	H	1.119566	-0.010539	0.633207
