data_functionalizedCrystal
_audit_creation_method	'MofGen! by Chris Wilmer'
_symmetry_space_group_name_H-M	'P1'
_symmetry_Int_Tables_number	1
_symmetry_cell_setting	triclinic
loop_
_symmetry_equiv_pos_as_xyz
  x,y,z
_cell_length_a	16.625548
_cell_length_b	16.625546
_cell_length_c	12.759393
_cell_angle_alpha	89.963806
_cell_angle_beta	89.978332
_cell_angle_gamma	90.023536
loop_
_atom_site_label
_atom_site_type_symbol
_atom_site_fract_x
_atom_site_fract_y
_atom_site_fract_z
Zn1	Zn	1.232689	-0.320931	-0.594036
Zn2	Zn	1.232590	-0.455788	-0.418342
Zn3	Zn	1.097848	-0.320975	-0.418366
Zn4	Zn	1.097821	-0.455728	-0.593974
O5	O	1.165237	-0.388356	-0.506180
O6	O	1.345508	-0.338827	-0.570746
O7	O	1.214686	-0.437948	-0.271324
O8	O	1.115788	-0.208137	-0.441705
O9	O	1.345435	-0.437905	-0.441665
O10	O	1.214855	-0.208105	-0.570769
O11	O	1.115692	-0.338902	-0.271342
O12	O	0.985012	-0.338844	-0.441645
O13	O	1.115742	-0.437803	-0.741004
O14	O	0.984993	-0.437846	-0.570663
O15	O	1.214829	-0.338769	-0.741049
O16	O	1.214660	-0.568612	-0.441604
O17	O	1.115646	-0.568568	-0.570640
C18	C	0.955746	-0.388344	-0.506150
C19	C	0.866125	-0.388359	-0.506163
C20	C	0.537950	-0.388364	-0.506208
C21	C	0.629258	-0.388360	-0.506192
C22	C	0.702035	-0.388362	-0.506184
C23	C	0.793349	-0.388357	-0.506170
C24	C	1.165161	-0.597846	-0.506136
C25	C	1.165202	-0.687468	-0.506152
C26	C	1.165343	-1.015643	-0.506262
C27	C	1.165301	-0.924335	-0.506234
C28	C	1.165272	-0.851558	-0.506206
C29	C	1.165231	-0.760244	-0.506180
C30	C	1.375546	-0.388368	-0.506210
C31	C	1.465167	-0.388373	-0.506223
C32	C	1.165294	-0.388274	-0.780213
C33	C	1.165318	-0.388240	-0.896990
C34	C	1.165336	-0.178047	-0.506247
C35	C	1.165378	-0.088425	-0.506276
C36	C	1.216919	-0.336667	-0.951878
C37	C	1.216939	-0.336638	-1.061602
C38	C	1.113752	-0.439760	-1.061541
C39	C	1.113730	-0.439785	-0.951819
C40	C	1.268507	-0.285122	-0.897049
C41	C	1.320114	-0.233546	-0.951936
C42	C	1.320133	-0.233517	-1.061661
C43	C	1.268546	-0.285064	-1.116497
C44	C	1.165227	-0.388378	-0.233212
C45	C	1.165360	-0.388186	-0.116436
H46	H	1.362109	-0.191574	-0.907281
C47	C	1.376245	-0.177490	-1.121065
C48	C	1.421430	-0.132372	-1.049559
C49	C	1.473141	-0.080760	-1.104242
H50	H	1.345520	-0.142272	-1.163881
H51	H	1.411412	-0.208310	-1.163839
H52	H	1.386267	-0.101554	-1.006804
H53	H	1.452172	-0.167569	-1.006742
H54	H	1.508308	-0.111581	-1.147016
H55	H	1.442408	-0.045547	-1.147056
H56	H	1.503809	-0.050147	-1.055734
H57	H	1.268556	-0.285026	-1.205842
C58	C	1.057842	-0.495699	-1.121264
C59	C	1.068924	-0.484656	-1.229102
C60	C	1.017443	-0.536183	-1.284150
H61	H	1.003634	-0.483953	-1.103411
H62	H	1.069623	-0.549896	-1.103319
H63	H	1.057137	-0.430471	-1.247040
H64	H	1.123121	-0.496407	-1.246987
H65	H	1.029224	-0.590380	-1.266204
H66	H	0.963239	-0.524433	-1.266288
H67	H	1.024960	-0.528703	-1.357323
C68	C	1.057695	-0.495885	-0.892408
C69	C	1.012549	-0.541050	-0.963906
C70	C	0.960934	-0.592751	-0.909215
H71	H	1.022493	-0.465153	-0.849597
H72	H	1.088513	-0.531065	-0.849628
H73	H	0.981733	-0.505874	-1.006667
H74	H	1.047730	-0.571798	-1.006719
H75	H	0.991753	-0.627931	-0.866435
H76	H	0.925738	-0.562013	-0.866406
H77	H	0.930302	-0.623407	-0.957718
H78	H	1.268499	-0.285142	-0.807706
