data_functionalizedCrystal
_audit_creation_method	'MofGen! by Chris Wilmer'
_symmetry_space_group_name_H-M	'P1'
_symmetry_Int_Tables_number	1
_symmetry_cell_setting	triclinic
loop_
_symmetry_equiv_pos_as_xyz
  x,y,z
_cell_length_a	19.188925
_cell_length_b	19.188930
_cell_length_c	18.266242
_cell_angle_alpha	90.011475
_cell_angle_beta	89.990012
_cell_angle_gamma	96.856335
loop_
_atom_site_label
_atom_site_type_symbol
_atom_site_fract_x
_atom_site_fract_y
_atom_site_fract_z
O1	O	0.926152	-0.087151	-0.060905
O2	O	1.426152	0.412849	0.439095
O3	O	0.722840	-0.098889	-0.060904
O4	O	1.222840	0.401111	0.439096
O5	O	0.830363	0.008636	-0.060890
O6	O	1.330363	0.508636	0.439110
O7	O	0.818629	-0.194675	-0.060919
O8	O	1.318629	0.305325	0.439081
O9	O	0.830345	0.008642	0.060872
O10	O	1.330345	0.508642	0.560872
O11	O	0.722822	-0.098883	0.060858
O12	O	1.222822	0.401117	0.560858
O13	O	0.926133	-0.087145	0.060857
O14	O	1.426133	0.412855	0.560857
Zn15	Zn	0.824475	-0.093013	0.080190
Zn16	Zn	1.324475	0.406987	0.580190
Zn17	Zn	0.824499	-0.093021	-0.080237
Zn18	Zn	1.324499	0.406979	0.419763
O19	O	0.818610	-0.194670	0.060843
O20	O	1.318610	0.305330	0.560843
C21	C	0.696820	-0.098507	-0.000023
C22	C	1.196820	0.401493	0.499977
C23	C	0.619315	-0.097367	-0.000022
C24	C	1.119315	0.402633	0.499978
C25	C	0.057545	-0.152831	-0.000031
C26	C	0.557545	0.347169	0.499969
C27	C	0.130368	-0.153908	-0.000035
C28	C	0.630368	0.346092	0.499965
C29	C	0.175302	-0.090816	-0.000025
C30	C	0.675302	0.409184	0.499975
C31	C	0.147408	-0.026642	-0.000030
C32	C	0.647408	0.473358	0.499970
C33	C	0.074586	-0.025568	-0.000033
C34	C	0.574586	0.474432	0.499967
N35	N	0.295973	-0.045138	0.041430
N36	N	0.795973	0.454862	0.541430
N37	N	0.365151	-0.046163	0.041435
N38	N	0.865151	0.453837	0.541435
C39	C	0.394712	-0.094050	-0.000017
C40	C	0.894712	0.405950	0.499983
N41	N	0.352480	-0.140883	-0.041464
N42	N	0.852480	0.359117	0.458536
N43	N	0.283296	-0.139860	-0.041465
N44	N	0.783296	0.360140	0.458535
C45	C	0.254267	-0.091974	-0.000022
C46	C	0.754267	0.408026	0.499978
C47	C	0.501561	-0.159386	-0.000022
C48	C	1.001561	0.340614	0.499978
C49	C	0.574385	-0.160460	-0.000031
C50	C	1.074385	0.339540	0.499969
C51	C	0.591425	-0.033193	-0.000018
C52	C	1.091425	0.466807	0.499982
C53	C	0.518601	-0.032121	-0.000016
C54	C	1.018601	0.467879	0.499984
C55	C	0.473673	-0.095220	-0.000015
C56	C	0.973673	0.404780	0.499985
C57	C	0.829974	0.034650	-0.000007
C58	C	1.329974	0.534650	0.499993
C59	C	0.828833	0.112154	-0.000001
C60	C	1.328833	0.612154	0.499999
C61	C	0.952154	-0.087527	-0.000026
C62	C	1.452154	0.412473	0.499974
C63	C	1.029658	-0.088666	-0.000032
C64	C	1.529658	0.411334	0.499968
C65	C	0.819000	-0.220684	-0.000041
C66	C	1.319000	0.279316	0.499959
C67	C	0.820140	-0.298188	-0.000053
C68	C	1.320140	0.201812	0.499947
N69	N	0.824463	-0.093008	0.189677
N70	N	1.324463	0.406992	0.689677
C71	C	0.891924	0.157079	0.000002
C72	C	1.391924	0.657079	0.500002
C73	C	0.890852	0.229903	-0.000009
C74	C	1.390852	0.729903	0.499991
C75	C	0.826686	0.257799	-0.000010
C76	C	1.326686	0.757799	0.499990
C77	C	0.763587	0.212864	-0.000017
C78	C	1.263587	0.712864	0.499983
C79	C	0.764660	0.140041	-0.000012
C80	C	1.264660	0.640041	0.499988
N81	N	0.777633	0.365805	0.041429
N82	N	1.277633	0.865805	0.541429
N83	N	0.776617	0.434983	0.041426
N84	N	1.276617	0.934983	0.541426
C85	C	0.823448	0.477207	-0.000024
C86	C	1.323448	0.977207	0.499976
N87	N	0.871343	0.447641	-0.041463
N88	N	1.371343	0.947641	0.458537
N89	N	0.872361	0.378456	-0.041457
N90	N	1.372361	0.878456	0.458543
C91	C	0.825515	0.336761	-0.000015
C92	C	1.325515	0.836761	0.499985
C93	C	0.885381	0.601097	-0.000035
C94	C	1.385381	1.101097	0.499965
C95	C	0.884307	0.673922	-0.000051
C96	C	1.384307	1.173922	0.499949
C97	C	0.757040	0.656880	-0.000051
C98	C	1.257040	1.156880	0.499949
C99	C	0.758116	0.584057	-0.000042
C100	C	1.258116	1.084057	0.499958
C101	C	0.822289	0.556170	-0.000031
C102	C	1.322289	1.056170	0.499969
N103	N	0.824515	-0.093020	-0.189724
N104	N	1.324515	0.406980	0.310276
C105	C	0.872090	-0.045419	0.227992
C106	C	1.372090	0.454581	0.727992
C107	C	0.872095	-0.045416	0.304637
C108	C	1.372095	0.454584	0.804637
C109	C	0.824479	-0.093013	0.342964
C110	C	1.324479	0.406987	0.842964
C111	C	0.776843	-0.140606	0.304639
C112	C	1.276843	0.359394	0.804639
C113	C	0.776836	-0.140603	0.227996
C114	C	1.276836	0.359397	0.727996
N115	N	0.815403	-0.154821	0.463287
N116	N	1.315403	0.345179	0.963287
N117	N	0.815415	-0.154821	0.536096
N118	N	1.315415	0.345179	1.036096
C119	C	0.824499	-0.093024	0.573886
C120	C	1.324499	0.406976	1.073886
N121	N	0.833584	-0.031223	0.536118
N122	N	1.333584	0.468777	1.036118
N123	N	0.833576	-0.031223	0.463303
N124	N	1.333576	0.468777	0.963303
C125	C	0.824482	-0.093021	0.426071
C126	C	1.324482	0.406979	0.926071
C127	C	0.872133	-0.045427	0.695308
C128	C	1.372133	0.454573	1.195308
C129	C	0.872132	-0.045423	0.771955
C130	C	1.372132	0.454577	1.271955
C131	C	0.776884	-0.140619	0.771956
C132	C	1.276884	0.359381	1.271956
C133	C	0.776881	-0.140617	0.695311
C134	C	1.276881	0.359383	1.195311
C135	C	0.824509	-0.093022	0.656992
C136	C	1.324509	0.406978	1.156992
H137	H	0.628010	0.018178	-0.000015
H138	H	1.128010	0.518178	0.499985
H139	H	0.738051	-0.179356	0.196799
H140	H	1.238051	0.320644	0.696799
H141	H	0.738112	-0.179371	0.803161
H142	H	1.238112	0.320629	1.303161
O143	O	0.047611	0.036826	0.000003
O144	O	0.547611	0.536826	0.500003
C145	C	0.102883	0.092285	-0.000011
C146	C	0.602883	0.592285	0.499989
H147	H	0.152293	0.072869	0.023038
H148	H	0.652293	0.572869	0.523038
H149	H	0.087795	0.137102	0.035343
H150	H	0.587795	0.637102	0.535343
H151	H	0.113255	0.111730	-0.058426
H152	H	0.613255	0.611730	0.441574
O153	O	0.191126	0.034599	-0.000116
O154	O	0.691126	0.534599	0.499884
C155	C	0.233761	0.037786	-0.063183
C156	C	0.733761	0.537786	0.436817
H157	H	0.237276	-0.017625	-0.084210
H158	H	0.737276	0.482375	0.415790
H159	H	0.288573	0.063961	-0.048994
H160	H	0.788573	0.563961	0.451006
H161	H	0.209911	0.069597	-0.107342
H162	H	0.709911	0.569597	0.392658
O163	O	0.013873	-0.214104	0.000088
O164	O	0.513873	0.285896	0.500088
C165	C	-0.028790	-0.217280	0.063135
C166	C	0.471210	0.282720	0.563135
H167	H	-0.002021	-0.181494	0.107220
H168	H	0.497979	0.318506	0.607220
H169	H	-0.037159	-0.273545	0.084293
H170	H	0.462841	0.226455	0.584293
H171	H	-0.081687	-0.199369	0.048873
H172	H	0.418313	0.300631	0.548873
H173	H	0.704794	0.679592	-0.000055
H174	H	1.204794	1.179592	0.499945
H175	H	0.464978	-0.210765	-0.000022
H176	H	0.964978	0.289235	0.499978
O177	O	0.730562	-0.186747	0.341948
O178	O	1.230562	0.313253	0.841948
C179	C	0.687602	-0.149461	0.386293
C180	C	1.187602	0.350539	0.886293
H181	H	0.715582	-0.094757	0.397780
H182	H	1.215582	0.405243	0.897780
H183	H	0.676474	-0.178634	0.440185
H184	H	1.176474	0.321366	0.940185
H185	H	0.636014	-0.144843	0.356774
H186	H	1.136014	0.355157	0.856774
O187	O	0.491624	0.030271	0.000025
O188	O	0.991624	0.530271	0.500025
C189	C	0.546898	0.085729	0.000015
C190	C	1.046898	0.585729	0.500015
H191	H	0.596306	0.066311	0.023066
H192	H	1.096306	0.566311	0.523066
H193	H	0.531809	0.130545	0.035370
H194	H	1.031809	0.630545	0.535370
H195	H	0.557272	0.105176	-0.058398
H196	H	1.057272	0.605176	0.441602
H197	H	0.738102	-0.179371	0.664113
H198	H	1.238102	0.320629	1.164113
H199	H	0.910879	-0.006662	0.335839
H200	H	1.410879	0.493338	0.835839
H201	H	0.597088	-0.212713	-0.000036
H202	H	1.097088	0.287287	0.499964
O203	O	0.157350	-0.216302	0.000001
O204	O	0.657350	0.283698	0.500001
C205	C	0.102080	-0.271763	-0.000019
C206	C	0.602080	0.228237	0.499981
H207	H	0.052661	-0.252341	0.023028
H208	H	0.552661	0.247659	0.523028
H209	H	0.117157	-0.316568	0.035335
H210	H	0.617157	0.183432	0.535335
H211	H	0.091730	-0.291226	-0.058435
H212	H	0.591730	0.208774	0.441565
O213	O	0.954321	0.130107	-0.000023
O214	O	1.454321	0.630107	0.499977
C215	C	1.009777	0.185382	-0.000004
C216	C	1.509777	0.685382	0.499996
H217	H	0.990361	0.234789	-0.023060
H218	H	1.490361	0.734789	0.476940
H219	H	1.054599	0.170294	-0.035350
H220	H	1.554599	0.670294	0.464650
H221	H	1.029216	0.195759	0.058413
H222	H	1.529216	0.695759	0.558413
H223	H	0.910912	-0.006670	0.664108
H224	H	1.410912	0.493330	1.164108
H225	H	0.942230	0.266488	-0.000010
H226	H	1.442230	0.766488	0.499990
H227	H	0.711342	0.235581	-0.000019
H228	H	1.211342	0.735581	0.499981
O229	O	0.918468	0.000833	0.809063
O230	O	1.418468	0.500833	1.309063
C231	C	0.960490	0.042849	0.758802
C232	C	1.460490	0.542849	1.258802
H233	H	0.961182	0.014225	0.704161
H234	H	1.461182	0.514225	1.204161
H235	H	1.016282	0.053631	0.780934
H236	H	1.516282	0.553631	1.280934
H237	H	0.937990	0.094665	0.750669
H238	H	1.437990	0.594665	1.250669
O239	O	0.703389	0.096369	-0.000141
O240	O	1.203389	0.596369	0.499859
C241	C	0.700222	0.053706	-0.063189
C242	C	1.200222	0.553706	0.436811
H243	H	0.736014	0.080475	-0.107267
H244	H	1.236014	0.580475	0.392733
H245	H	0.643959	0.045338	-0.084358
H246	H	1.143959	0.545338	0.415642
H247	H	0.718129	0.000809	-0.048924
H248	H	1.218129	0.500809	0.451076
H249	H	0.937635	0.578390	-0.000029
H250	H	1.437635	1.078390	0.499971
O251	O	0.696764	0.540512	-0.000004
O252	O	1.196764	1.040512	0.499996
C253	C	0.639898	0.580746	-0.000025
C254	C	1.139898	1.080746	0.499975
H255	H	0.657783	0.635159	0.023023
H256	H	1.157783	1.135159	0.523023
H257	H	0.595700	0.553755	0.035329
H258	H	1.095700	1.053755	0.535329
H259	H	0.620226	0.585856	-0.058440
H260	H	1.120226	1.085856	0.441560
O261	O	0.945580	0.717592	-0.000181
O262	O	1.445580	1.217592	0.499819
C263	C	0.948774	0.760218	-0.063239
C264	C	1.448774	1.260218	0.436761
H265	H	0.912997	0.733426	-0.107315
H266	H	1.412997	1.233426	0.392685
H267	H	1.005045	0.768571	-0.084403
H268	H	1.505045	1.268571	0.415597
H269	H	0.930864	0.813125	-0.048991
H270	H	1.430864	1.313125	0.451009
O271	O	0.918376	0.000886	0.190883
O272	O	1.418376	0.500886	0.690883
C273	C	0.960425	0.042879	0.241143
C274	C	1.460425	0.542879	0.741143
H275	H	0.931809	0.043592	0.295786
H276	H	1.431809	0.543592	0.795786
H277	H	0.971248	0.098667	0.219013
H278	H	1.471248	0.598667	0.719013
H279	H	1.012219	0.020335	0.249271
H280	H	1.512219	0.520335	0.749271
