data_functionalizedCrystal
_audit_creation_method	'MofGen! by Chris Wilmer'
_symmetry_space_group_name_H-M	'P1'
_symmetry_Int_Tables_number	1
_symmetry_cell_setting	triclinic
loop_
_symmetry_equiv_pos_as_xyz
  x,y,z
_cell_length_a	12.477989
_cell_length_b	14.560438
_cell_length_c	14.560438
_cell_angle_alpha	60.000905
_cell_angle_beta	90.001137
_cell_angle_gamma	64.369072
loop_
_atom_site_label
_atom_site_type_symbol
_atom_site_fract_x
_atom_site_fract_y
_atom_site_fract_z
Zr1	Zr	0.973039	1.114169	-0.174950
O2	O	0.811756	1.287723	-0.312571
O3	O	1.022481	0.928100	-0.132765
O4	O	1.022476	1.119704	-0.324365
O5	O	0.811765	1.096118	0.030170
O6	O	1.188696	1.138305	-0.333665
O7	O	0.811761	1.096120	-0.120971
O8	O	1.188705	0.795562	0.009073
O9	O	0.811756	1.438861	-0.312568
O10	O	1.167616	1.023150	-0.121710
O11	O	1.043571	1.009266	-0.001975
O12	O	1.043565	1.234855	-0.227560
O13	O	0.919520	1.220971	-0.107825
Zr14	Zr	1.238148	1.143833	0.051269
Zr15	Zr	1.238141	1.143836	-0.189783
Zr16	Zr	0.973046	1.114166	0.066102
Zr17	Zr	0.973040	1.355217	-0.174946
Zr18	Zr	1.238147	0.902785	0.051264
O19	O	1.188706	1.329901	0.009083
O20	O	1.188697	1.329906	-0.333662
O21	O	0.811766	1.287718	0.030173
O22	O	1.399431	0.970279	0.188890
O23	O	1.399422	0.970284	-0.153855
O24	O	1.022491	0.928096	0.209980
O25	O	1.399422	1.161884	-0.153851
O26	O	1.188711	1.138298	0.200683
O27	O	1.022491	1.119696	0.209984
O28	O	1.399426	1.161882	-0.002711
O29	O	1.022477	1.462443	-0.324359
O30	O	1.188710	0.795559	0.200677
O31	O	1.399431	0.819141	0.188887
O32	O	1.399426	0.819144	-0.002717
O33	O	0.811762	1.438858	-0.120964
O34	O	1.022482	1.462440	-0.132755
O35	O	1.167622	1.023147	0.103879
O36	O	1.291667	1.037031	-0.015857
O37	O	1.167616	1.248735	-0.121706
O38	O	1.043571	1.234852	-0.001971
C39	C	1.105593	0.827487	-0.061846
C40	C	1.105593	0.725156	-0.061848
C41	C	1.170341	0.684327	-0.124349
C42	C	1.170345	0.588168	-0.124339
C43	C	1.040845	0.573679	0.000675
C44	C	1.040848	0.669830	0.000670
C45	C	0.773992	1.091892	-0.043287
C46	C	0.661449	1.079297	-0.036990
C47	C	1.437196	1.166110	-0.080394
C48	C	1.549738	1.178705	-0.086691
C49	C	1.105585	1.129005	-0.363360
C50	C	1.105582	1.129006	-0.465693
C51	C	1.105594	1.430515	-0.061835
C52	C	1.105595	1.532846	-0.061833
C53	C	1.040830	1.239512	-0.569021
C54	C	1.040845	1.239508	-0.665171
C55	C	1.170365	1.018482	-0.554649
C56	C	1.170357	1.018488	-0.458503
C57	C	1.105602	1.128997	0.239678
C58	C	1.105605	1.128995	0.342011
C59	C	1.437195	0.864596	-0.080400
C60	C	1.549737	0.774860	-0.086699
C61	C	1.105601	0.827483	0.239673
C62	C	1.105604	0.725150	0.342003
C63	C	1.437203	0.864592	0.221119
C64	C	1.549749	0.774854	0.317153
C65	C	0.773984	1.393410	-0.344801
C66	C	0.661439	1.483147	-0.440834
C67	C	0.773992	1.393405	-0.043282
C68	C	0.661450	1.483142	-0.036983
C69	C	1.105586	1.430519	-0.363354
C70	C	1.105583	1.532851	-0.465685
C71	C	1.537835	0.725473	-0.144922
C72	C	1.643571	0.641168	-0.150862
C73	C	1.761207	0.606245	-0.098572
C74	C	1.773107	0.655641	-0.040348
C75	C	1.667373	0.739951	-0.034415
C76	C	1.667363	0.739961	0.299750
C77	C	1.773121	0.655657	0.389975
C78	C	1.761263	0.606242	0.497601
C79	C	1.643637	0.641143	0.515002
C80	C	1.537881	0.725452	0.424778
C81	C	0.543825	1.518053	-0.423432
C82	C	0.438066	1.602386	-0.513656
C83	C	0.449924	1.651807	-0.621282
C84	C	0.567551	1.616899	-0.638683
C85	C	0.673306	1.532573	-0.548460
C86	C	0.673352	1.532539	0.021230
C87	C	0.567617	1.616870	0.027144
C88	C	0.449980	1.651796	-0.025149
C89	C	0.438080	1.602396	-0.083369
C90	C	0.543814	1.518073	-0.089289
C91	C	1.170358	0.684318	0.445333
C92	C	1.170346	0.588173	0.541481
C93	C	1.040826	0.573698	0.430955
C94	C	1.040831	0.669847	0.334810
H95	H	0.540196	1.273447	-0.134068
F96	F	0.971900	1.357136	-0.576678
F97	F	0.673924	0.955452	0.024926
F98	F	0.971949	0.514785	0.067212
H99	H	0.342286	1.630846	-0.125944
F100	F	1.239291	0.900866	-0.547008
H101	H	1.847386	0.537593	0.571057
H102	H	1.223062	0.729370	-0.175253
F103	F	0.798477	1.495427	-0.566998
F104	F	0.971929	1.357123	-0.775140
F105	F	1.631036	0.588540	0.629553
F106	F	0.531176	1.465467	-0.308896
H107	H	1.442059	0.753907	-0.187517
H108	H	0.534106	1.477855	-0.136689
H109	H	1.223071	0.554927	-0.175231
H110	H	1.223092	0.928496	-0.374362
H111	H	0.769128	1.504109	0.063822
H112	H	1.633857	0.600959	-0.198274
H113	H	1.847293	0.537593	-0.103411
H114	H	0.577191	1.657148	-0.726323
F115	F	1.898315	0.618458	0.015301
F116	F	1.680060	0.792497	0.027564
H117	H	1.677041	0.780183	0.212123
F118	F	1.898295	0.618524	0.371432
H119	H	1.223095	0.729348	0.451197
F120	F	1.412710	0.762573	0.443317
H121	H	0.342301	1.630792	-0.499466
H122	H	1.223073	0.554934	0.625614
H123	H	0.363801	1.720468	-0.694738
H124	H	0.577330	1.657078	0.074557
H125	H	0.363895	1.720459	-0.020320
H126	H	0.988094	0.703095	0.250669
F127	F	0.971939	0.713280	0.067202
F128	F	0.971896	0.514830	0.423311
