data_functionalizedCrystal
_audit_creation_method	'MofGen! by Chris Wilmer'
_symmetry_space_group_name_H-M	'P1'
_symmetry_Int_Tables_number	1
_symmetry_cell_setting	triclinic
loop_
_symmetry_equiv_pos_as_xyz
  x,y,z
_cell_length_a	17.019372
_cell_length_b	17.038272
_cell_length_c	16.776229
_cell_angle_alpha	89.993292
_cell_angle_beta	93.869277
_cell_angle_gamma	87.242864
loop_
_atom_site_label
_atom_site_type_symbol
_atom_site_fract_x
_atom_site_fract_y
_atom_site_fract_z
O1	O	1.053348	0.099573	0.005954
O2	O	1.553348	0.599573	0.505954
O3	O	0.824539	0.112280	-0.009740
O4	O	1.324539	0.612280	0.490260
O5	O	0.937584	-0.007887	-0.001980
O6	O	1.437584	0.492113	0.498020
O7	O	0.940304	0.219741	-0.001806
O8	O	1.440304	0.719741	0.498194
O9	O	0.937567	-0.007895	0.130596
O10	O	1.437567	0.492105	0.630596
O11	O	0.824523	0.112273	0.122835
O12	O	1.324523	0.612273	0.622835
O13	O	1.053332	0.099566	0.138530
O14	O	1.553332	0.599566	0.638530
Zn15	Zn	0.938925	0.105918	0.151732
Zn16	Zn	1.438925	0.605918	0.651732
Zn17	Zn	0.938946	0.105928	-0.022942
Zn18	Zn	1.438946	0.605928	0.477058
O19	O	0.940287	0.219733	0.130770
O20	O	1.440287	0.719733	0.630770
C21	C	0.795110	0.111796	0.054530
C22	C	1.295110	0.611796	0.554530
C23	C	0.707445	0.110354	0.048517
C24	C	1.207445	0.610354	0.548517
C25	C	0.211627	0.102173	0.010830
C26	C	0.711627	0.602173	0.510830
C27	C	0.293999	0.103528	0.016490
C28	C	0.793999	0.603528	0.516490
C29	C	0.335167	0.104207	0.091588
C30	C	0.835167	0.604207	0.591588
C31	C	0.293960	0.103524	0.161030
C32	C	0.793960	0.603524	0.661030
C33	C	0.211591	0.102163	0.155368
C34	C	0.711591	0.602163	0.655368
C35	C	0.583868	0.108310	0.112297
C36	C	1.083868	0.608310	0.612297
C37	C	0.666243	0.109673	0.117953
C38	C	1.166243	0.609673	0.617953
C39	C	0.666276	0.109676	-0.026587
C40	C	1.166276	0.609676	0.473413
C41	C	0.583905	0.108320	-0.032242
C42	C	1.083905	0.608320	0.467758
C43	C	0.542706	0.107632	0.037200
C44	C	1.042706	0.607632	0.537200
C45	C	0.419363	0.105595	0.097376
C46	C	0.919363	0.605595	0.597376
C47	C	0.458511	0.106239	0.031411
C48	C	0.958511	0.606239	0.531411
C49	C	0.935102	-0.037017	0.064138
C50	C	1.435102	0.462983	0.564138
C51	C	0.927722	-0.123804	0.063632
C52	C	1.427722	0.376196	0.563632
C53	C	0.995481	-0.173978	0.068280
C54	C	1.495481	0.326022	0.568280
C55	C	0.988541	-0.255522	0.067797
C56	C	1.488541	0.244478	0.567797
C57	C	0.913843	-0.286891	0.062670
C58	C	1.413843	0.213109	0.562670
C59	C	0.846079	-0.236710	0.058019
C60	C	1.346079	0.263290	0.558019
C61	C	0.853019	-0.155167	0.058497
C62	C	1.353019	0.344833	0.558497
C63	C	0.889325	-0.532627	0.060978
C64	C	1.389325	-0.032627	0.560978
C65	C	0.882390	-0.614176	0.060503
C66	C	1.382390	-0.114176	0.560503
C67	C	1.024854	-0.632983	0.070279
C68	C	1.524854	-0.132983	0.570279
C69	C	1.031787	-0.551437	0.070761
C70	C	1.531787	-0.051437	0.570761
C71	C	0.964023	-0.501264	0.066106
C72	C	1.464023	-0.001264	0.566106
C73	C	0.906748	-0.370242	0.062178
C74	C	1.406748	0.129758	0.562178
C75	C	0.971119	-0.417914	0.066592
C76	C	1.471119	0.082086	0.566592
C77	C	1.082761	0.100050	0.074258
C78	C	1.582761	0.600050	0.574258
C79	C	1.170426	0.101492	0.080266
C80	C	1.670426	0.601492	0.580266
C81	C	0.942769	0.248863	0.064650
C82	C	1.442769	0.748863	0.564650
C83	C	0.950149	0.335650	0.065151
C84	C	1.450149	0.835650	0.565151
N85	N	0.938915	0.105911	0.270942
N86	N	1.438915	0.605911	0.770942
N87	N	0.938961	0.105929	-0.142152
N88	N	1.438961	0.605929	0.357848
C89	C	0.988989	0.052723	0.316097
C90	C	1.488989	0.552723	0.816097
C91	C	0.988994	0.052722	0.399549
C92	C	1.488994	0.552722	0.899549
C93	C	0.938927	0.105914	0.437846
C94	C	1.438927	0.605914	0.937846
C95	C	0.888848	0.159105	0.392685
C96	C	1.388848	0.659105	0.892685
C97	C	0.888840	0.159101	0.309234
C98	C	1.388840	0.659101	0.809234
C99	C	0.888878	0.159120	0.729235
C100	C	1.388878	0.659120	1.229235
C101	C	0.888891	0.159122	0.812692
C102	C	1.388891	0.659122	1.312692
C103	C	0.989031	0.052741	0.819550
C104	C	1.489031	0.552741	1.319550
C105	C	0.989023	0.052737	0.736099
C106	C	1.489023	0.552737	1.236099
C107	C	0.938941	0.105925	0.690945
C108	C	1.438941	0.605925	1.190945
C109	C	0.938936	0.105924	0.600456
C110	C	1.438936	0.605924	1.100456
C111	C	0.938936	0.105919	0.528334
C112	C	1.438936	0.605919	1.028334
H113	H	0.452892	0.106149	0.158521
H114	H	0.952892	0.606149	0.658521
H115	H	1.056308	-0.148444	0.072460
H116	H	1.556308	0.351556	0.572460
F117	F	0.835580	0.215728	0.681185
F118	F	1.335580	0.715728	1.181185
H119	H	1.043718	-0.296371	0.071584
H120	H	1.543718	0.203629	0.571584
H121	H	0.699760	0.110231	0.179110
H122	H	1.199760	0.610231	0.679110
F123	F	1.042331	-0.003870	0.867612
F124	F	1.542331	0.496130	1.367612
H125	H	1.029762	0.009411	0.284922
H126	H	1.529762	0.509411	0.784922
H127	H	0.848064	0.202412	0.272470
H128	H	1.348064	0.702412	0.772470
F129	F	0.540097	0.107598	-0.112171
F130	F	1.040097	0.607598	0.387829
H131	H	0.821559	-0.639713	0.056341
H132	H	1.321559	-0.139713	0.556341
F133	F	0.167820	0.101456	-0.069101
F134	F	0.667820	0.601456	0.430899
F135	F	0.337845	0.104250	-0.057414
F136	F	0.837845	0.604250	0.442586
F137	F	1.111292	-0.518059	0.076197
F138	F	1.611292	-0.018059	0.576197
F139	F	0.817204	-0.479239	0.056021
F140	F	1.317204	0.020761	0.556021
F141	F	0.540031	0.107594	0.186204
F142	F	1.040031	0.607594	0.686204
H143	H	1.031938	-0.392371	0.070748
H144	H	1.531938	0.107629	0.570748
H145	H	1.029767	0.009411	0.436314
H146	H	1.529767	0.509411	0.936314
F147	F	0.337777	0.104244	0.240955
F148	F	0.837777	0.604244	0.740955
H149	H	0.848079	0.202413	0.423871
H150	H	1.348079	0.702413	0.923871
H151	H	1.080023	-0.673842	0.074068
H152	H	1.580023	-0.173842	0.574068
F153	F	0.780900	-0.101768	0.053547
F154	F	1.280900	0.398232	0.553547
F155	F	0.710130	0.110403	-0.100486
F156	F	1.210130	0.610403	0.399514
H157	H	1.029794	0.009426	0.704921
H158	H	1.529794	0.509426	1.204921
F159	F	0.835600	0.215738	0.853448
F160	F	1.335600	0.715738	1.353448
H161	H	0.178045	0.101617	0.211911
H162	H	0.678045	0.601617	0.711911
H163	H	0.785257	-0.262257	0.053840
H164	H	1.285257	0.237743	0.553840
H165	H	0.845928	-0.395791	0.058006
H166	H	1.345928	0.104209	0.558006
F167	F	0.414696	0.105506	-0.048511
F168	F	0.914696	0.605506	0.451489
