data_functionalizedCrystal
_audit_creation_method	'MofGen! by Chris Wilmer'
_symmetry_space_group_name_H-M	'P1'
_symmetry_Int_Tables_number	1
_symmetry_cell_setting	triclinic
loop_
_symmetry_equiv_pos_as_xyz
  x,y,z
_cell_length_a	21.295418
_cell_length_b	21.295417
_cell_length_c	21.295411
_cell_angle_alpha	89.979403
_cell_angle_beta	89.956262
_cell_angle_gamma	90.045515
loop_
_atom_site_label
_atom_site_type_symbol
_atom_site_fract_x
_atom_site_fract_y
_atom_site_fract_z
Zn1	Zn	0.962359	-0.250415	-0.356238
Zn2	Zn	1.462359	0.249585	0.143762
Zn3	Zn	0.962263	-0.355667	-0.250965
Zn4	Zn	1.462263	0.144333	0.249035
Zn5	Zn	0.857082	-0.250445	-0.250948
Zn6	Zn	1.357082	0.249555	0.249052
Zn7	Zn	0.857053	-0.355680	-0.356162
Zn8	Zn	1.357053	0.144320	0.143838
O9	O	0.909690	-0.303052	-0.303578
O10	O	1.409690	0.196948	0.196422
O11	O	1.050436	-0.264360	-0.342313
O12	O	1.550436	0.235640	0.157687
O13	O	0.948283	-0.341716	-0.162874
O14	O	1.448283	0.158284	0.337126
O15	O	0.871100	-0.162351	-0.264940
O16	O	1.371100	0.337649	0.235060
O17	O	1.050365	-0.341688	-0.264969
O18	O	1.550365	0.158312	0.235031
O19	O	0.948447	-0.162330	-0.342296
O20	O	1.448447	0.337670	0.157704
O21	O	0.871007	-0.264410	-0.162861
O22	O	1.371007	0.235590	0.337139
O23	O	0.768989	-0.264422	-0.264866
O24	O	1.268989	0.235578	0.235134
O25	O	0.871050	-0.341709	-0.444262
O26	O	1.371050	0.158291	0.055738
O27	O	0.768968	-0.341738	-0.342166
O28	O	1.268968	0.158262	0.157834
O29	O	0.948418	-0.264372	-0.444318
O30	O	1.448418	0.235628	0.055682
O31	O	0.948254	-0.443758	-0.264895
O32	O	1.448254	0.056242	0.235105
O33	O	0.870957	-0.443767	-0.342183
O34	O	1.370957	0.056233	0.157817
C35	C	0.746138	-0.303085	-0.303506
C36	C	1.246138	0.196915	0.196494
C37	C	0.676170	-0.303114	-0.303490
C38	C	1.176170	0.196886	0.196510
C39	C	0.643308	-0.343426	-0.343680
C40	C	1.143308	0.156574	0.156320
C41	C	0.577566	-0.343410	-0.343708
C42	C	1.077566	0.156590	0.156292
C43	C	0.544687	-0.303090	-0.303535
C44	C	1.044687	0.196910	0.196465
C45	C	0.577557	-0.262770	-0.263342
C46	C	1.077557	0.237230	0.236658
C47	C	0.643298	-0.262783	-0.263320
C48	C	1.143298	0.237217	0.236680
N49	N	0.441411	-0.298163	-0.248477
N50	N	0.941411	0.201837	0.251523
N51	N	0.378960	-0.298155	-0.248501
N52	N	0.878960	0.201845	0.251499
C53	C	0.346613	-0.303050	-0.303602
C54	C	0.846613	0.196950	0.196398
N55	N	0.379076	-0.307965	-0.358680
N56	N	0.879076	0.192035	0.141320
N57	N	0.441533	-0.307976	-0.358656
N58	N	0.941533	0.192024	0.141344
C59	C	0.473402	-0.303072	-0.303556
C60	C	0.973402	0.196928	0.196444
C61	C	0.242466	-0.343346	-0.343826
C62	C	0.742466	0.156654	0.156174
C63	C	0.176722	-0.343326	-0.343855
C64	C	0.676722	0.156674	0.156145
C65	C	0.176714	-0.262690	-0.263484
C66	C	0.676714	0.237310	0.236516
C67	C	0.242456	-0.262707	-0.263460
C68	C	0.742456	0.237293	0.236540
C69	C	0.275328	-0.303038	-0.303630
C70	C	0.775328	0.196962	0.196370
C71	C	0.909609	-0.466603	-0.303547
C72	C	1.409609	0.033397	0.196453
C73	C	0.909633	-0.536571	-0.303554
C74	C	1.409633	-0.036571	0.196446
C75	C	0.949884	-0.569370	-0.343862
C76	C	1.449884	-0.069370	0.156138
C77	C	0.949906	-0.635112	-0.343878
C78	C	1.449906	-0.135112	0.156122
C79	C	0.909684	-0.668054	-0.303574
C80	C	1.409684	-0.168054	0.196426
C81	C	0.869425	-0.635248	-0.263263
C82	C	1.369425	-0.135248	0.236737
C83	C	0.869399	-0.569507	-0.263253
C84	C	1.369399	-0.069507	0.236747
N85	N	0.904924	-0.771307	-0.248481
N86	N	1.404924	-0.271307	0.251519
N87	N	0.904952	-0.833759	-0.248492
N88	N	1.404952	-0.333759	0.251508
C89	C	0.909757	-0.866129	-0.303602
C90	C	1.409757	-0.366129	0.196398
N91	N	0.914546	-0.833687	-0.358702
N92	N	1.414546	-0.333687	0.141298
N93	N	0.914521	-0.771230	-0.358690
N94	N	1.414521	-0.271230	0.141310
C95	C	0.909707	-0.739339	-0.303580
C96	C	1.409707	-0.239339	0.196420
C97	C	0.950035	-0.970212	-0.343931
C98	C	1.450035	-0.470212	0.156069
C99	C	0.950052	-1.035956	-0.343947
C100	C	1.450052	-0.535956	0.156053
C101	C	0.869574	-1.036090	-0.263327
C102	C	1.369574	-0.536090	0.236673
C103	C	0.869553	-0.970348	-0.263316
C104	C	1.369553	-0.470348	0.236684
C105	C	0.909787	-0.937413	-0.303617
C106	C	1.409787	-0.437413	0.196383
C107	C	1.073880	-0.303019	-0.303652
C108	C	1.573880	0.196981	0.196348
C109	C	1.143848	-0.303005	-0.303683
C110	C	1.643848	0.196995	0.196317
C111	C	0.909742	-0.303038	-0.467769
C112	C	1.409742	0.196962	0.032231
C113	C	0.909764	-0.303033	-0.537737
C114	C	1.409764	0.196967	-0.037737
C115	C	0.909787	-0.138861	-0.303624
C116	C	1.409787	0.361139	0.196376
C117	C	0.909829	-0.068893	-0.303644
C118	C	1.409829	0.431107	0.196356
C119	C	0.950048	-0.262761	-0.570634
C120	C	1.450048	0.237239	-0.070634
C121	C	0.950047	-0.262734	-0.636376
C122	C	1.450047	0.237266	-0.136376
C123	C	0.909769	-0.302989	-0.669219
C124	C	1.409769	0.197011	-0.169219
C125	C	0.869477	-0.343263	-0.636315
C126	C	1.369477	0.156737	-0.136315
C127	C	0.869475	-0.343285	-0.570573
C128	C	1.369475	0.156715	-0.070573
N129	N	0.904913	-0.358058	-0.772434
N130	N	1.404913	0.141942	-0.272434
N131	N	0.904919	-0.358036	-0.834886
N132	N	1.404919	0.141964	-0.334886
C133	C	0.909773	-0.302926	-0.867294
C134	C	1.409773	0.197074	-0.367294
N135	N	0.914633	-0.247837	-0.834892
N136	N	1.414633	0.252163	-0.334892
N137	N	0.914630	-0.247860	-0.772435
N138	N	1.414630	0.252140	-0.272435
C139	C	0.909767	-0.302970	-0.740505
C140	C	1.409767	0.197030	-0.240505
C141	C	0.950058	-0.262621	-0.971477
C142	C	1.450058	0.237379	-0.471477
C143	C	0.950053	-0.262593	-1.037220
C144	C	1.450053	0.237407	-0.537220
C145	C	0.869486	-0.343128	-1.037158
C146	C	1.369486	0.156872	-0.537158
C147	C	0.869488	-0.343151	-0.971415
C148	C	1.369488	0.156849	-0.471415
C149	C	0.909777	-0.302898	-0.938579
C150	C	1.409777	0.197102	-0.438579
C151	C	0.909674	-0.303019	-0.140027
C152	C	1.409674	0.196981	0.359973
C153	C	0.909774	-0.302848	-0.070059
C154	C	1.409774	0.197152	0.429941
H155	H	0.269212	-0.229884	-0.230730
H156	H	0.769212	0.270116	0.269270
H157	H	0.836621	-0.542802	-0.230429
H158	H	1.336621	-0.042802	0.269571
F159	F	0.826614	-0.670308	-0.220372
F160	F	1.326614	-0.170308	0.279628
F161	F	0.992914	-0.219860	-0.671395
F162	F	1.492914	0.280140	-0.171395
H163	H	0.670053	-0.229954	-0.230592
H164	H	1.170053	0.270046	0.269408
F165	F	0.992852	-0.935158	-0.386824
F166	F	1.492852	-0.435158	0.113176
F167	F	0.141749	-0.386231	-0.386637
F168	F	0.641749	0.113769	0.113363
F169	F	0.992889	-1.070862	-0.386858
F170	F	1.492889	-0.570862	0.113142
H171	H	0.982643	-0.542556	-0.376679
H172	H	1.482643	-0.042556	0.123321
H173	H	0.149945	-0.229857	-0.230777
H174	H	0.649945	0.270143	0.269223
F175	F	0.826614	-0.385966	-1.072107
F176	F	1.326614	0.114034	-0.572107
F177	F	0.826609	-0.386104	-0.671270
F178	F	1.326609	0.113896	-0.171270
H179	H	0.982678	-0.661822	-0.376709
H180	H	1.482678	-0.161822	0.123291
H181	H	0.836820	-1.062911	-0.230515
H182	H	1.336820	-0.562911	0.269485
F183	F	0.277453	-0.386267	-0.386581
F184	F	0.777453	0.113733	0.113419
H185	H	0.836779	-0.943642	-0.230490
H186	H	1.336779	-0.443642	0.269510
H187	H	0.836689	-0.375948	-0.944630
H188	H	1.336689	0.124052	-0.444630
F189	F	0.826598	-0.386149	-0.535561
F190	F	1.326598	0.113851	-0.035561
H191	H	0.982854	-0.229984	-0.543902
H192	H	1.482854	0.270016	-0.043902
H193	H	0.982860	-0.229842	-0.944740
H194	H	1.482860	0.270158	-0.444740
H195	H	0.982855	-0.229795	-1.064004
H196	H	1.482855	0.270205	-0.564004
H197	H	0.550805	-0.376236	-0.376438
H198	H	1.050805	0.123764	0.123562
F199	F	0.542564	-0.219856	-0.220590
F200	F	1.042564	0.280144	0.279410
F201	F	0.678289	-0.386348	-0.386435
F202	F	1.178289	0.113652	0.113565
