data_functionalizedCrystal
_audit_creation_method	'MofGen! by Chris Wilmer'
_symmetry_space_group_name_H-M	'P1'
_symmetry_Int_Tables_number	1
_symmetry_cell_setting	triclinic
loop_
_symmetry_equiv_pos_as_xyz
  x,y,z
_cell_length_a	17.699083
_cell_length_b	19.188930
_cell_length_c	16.776229
_cell_angle_alpha	89.988225
_cell_angle_beta	89.998886
_cell_angle_gamma	83.213899
loop_
_atom_site_label
_atom_site_type_symbol
_atom_site_fract_x
_atom_site_fract_y
_atom_site_fract_z
O1	O	1.003962	0.088294	-0.066185
O2	O	0.783569	0.099782	-0.066213
O3	O	0.900126	-0.007611	-0.066183
O4	O	0.887405	0.195686	-0.066215
O5	O	0.900110	-0.007617	0.066394
O6	O	0.783553	0.099775	0.066364
O7	O	1.003947	0.088288	0.066391
Zn8	Zn	0.893748	0.094030	0.087427
Zn9	Zn	0.893768	0.094039	-0.087249
O10	O	0.887390	0.195680	0.066361
C11	C	0.755365	0.099367	0.000072
C12	C	0.671348	0.098132	0.000062
C13	C	0.622644	0.161169	0.000053
C14	C	0.543702	0.160004	0.000063
C15	C	0.513466	0.095802	0.000078
C16	C	0.562176	0.032761	0.000090
C17	C	0.641117	0.033926	0.000085
C18	C	0.243819	0.028060	0.000111
C19	C	0.164873	0.026900	0.000113
C20	C	0.146405	0.154139	0.000088
C21	C	0.225345	0.155304	0.000084
C22	C	0.274049	0.092263	0.000100
C23	C	0.359646	0.093526	0.000090
C24	C	0.427870	0.094538	0.000082
C25	C	0.899706	-0.033625	0.000108
C26	C	0.898469	-0.111131	0.000114
C27	C	0.966861	-0.155978	0.000127
C28	C	0.965699	-0.228804	0.000114
C29	C	0.896142	-0.256778	0.000105
C30	C	0.827741	-0.211921	0.000088
C31	C	0.828905	-0.139098	0.000093
N32	N	0.842969	-0.364845	0.045216
N33	N	0.841868	-0.434025	0.045213
C34	C	0.892632	-0.476191	0.000088
N35	N	0.944550	-0.446565	-0.045024
N36	N	0.945653	-0.377379	-0.045018
C37	C	0.894873	-0.335742	0.000099
C38	C	0.959769	-0.600004	0.000085
C39	C	0.958604	-0.672830	0.000067
C40	C	0.820644	-0.655946	0.000049
C41	C	0.821811	-0.583121	0.000059
C42	C	0.891375	-0.555155	0.000081
C43	C	1.032151	0.088703	0.000104
C44	C	1.116167	0.089938	0.000109
C45	C	0.887810	0.221695	0.000069
C46	C	0.889046	0.299201	0.000057
N47	N	0.893739	0.094024	0.206638
N48	N	0.893782	0.094040	-0.206460
C49	C	0.945366	0.046490	0.248368
C50	C	0.945370	0.046490	0.331821
C51	C	0.893751	0.094027	0.373541
C52	C	0.842118	0.141563	0.331805
C53	C	0.842111	0.141559	0.248354
C54	C	0.842146	0.141576	0.668352
C55	C	0.842158	0.141578	0.751808
C56	C	0.945405	0.046507	0.751818
C57	C	0.945398	0.046503	0.668368
C58	C	0.893763	0.094037	0.626639
C59	C	0.893758	0.094036	0.536150
C60	C	0.893759	0.094031	0.464028
H61	H	0.283465	-0.023272	0.000125
H62	H	0.504050	0.211335	0.000054
C63	C	0.740612	-0.038576	-0.068058
C64	C	0.694658	-0.035365	0.000093
H65	H	0.773669	-0.081352	-0.068046
H66	H	0.709432	-0.036389	-0.114281
H67	H	0.769910	-0.000168	-0.068058
H68	H	0.665356	-0.073770	0.000090
H69	H	0.725842	-0.037558	0.046328
C70	C	0.702687	-0.663988	0.068183
C71	C	0.744183	-0.686686	0.000037
H72	H	0.655481	-0.682965	0.068168
H73	H	0.730831	-0.679406	0.114410
H74	H	0.693598	-0.614197	0.068178
H75	H	0.753278	-0.736476	0.000045
H76	H	0.716034	-0.671271	-0.046202
C77	C	1.022810	-0.495865	0.000113
C78	C	1.036231	-0.569256	0.000101
H79	H	1.070016	-0.476886	0.000127
H80	H	0.994670	-0.480454	-0.046119
H81	H	0.994654	-0.480483	0.046347
H82	H	1.064383	-0.584639	-0.046136
H83	H	1.064383	-0.584673	0.046337
H84	H	0.766119	-0.546605	0.000054
H85	H	0.987404	0.007783	0.214405
C86	C	0.991037	0.004108	0.540449
C87	C	1.002005	-0.005874	0.622509
H88	H	1.025948	-0.028264	0.512140
H89	H	0.940501	-0.003290	0.526866
H90	H	0.999239	0.050646	0.526688
H91	H	0.993798	-0.052411	0.636271
H92	H	1.052554	0.001519	0.636097
H93	H	0.800104	0.180281	0.634383
H94	H	0.773210	-0.102582	0.000083
C95	C	0.710962	0.182705	0.357511
C96	C	0.785373	0.193812	0.377665
H97	H	0.675931	0.214960	0.385828
H98	H	0.703572	0.189510	0.301846
H99	H	0.702915	0.136113	0.371205
H100	H	0.793422	0.240403	0.363966
H101	H	0.792767	0.187013	0.433343
C102	C	1.047448	-0.047467	0.323448
C103	C	1.002132	-0.005750	0.377690
H104	H	1.082496	-0.079714	0.351768
H105	H	1.016033	-0.072555	0.290916
H106	H	1.074557	-0.018421	0.290883
H107	H	0.975019	-0.034796	0.410252
H108	H	1.033551	0.019340	0.410236
C109	C	1.082947	-0.265611	-0.068007
C110	C	1.040881	-0.278112	0.000132
H111	H	1.129362	-0.296048	-0.067990
H112	H	1.054426	-0.274071	-0.114238
H113	H	1.093594	-0.218236	-0.067994
H114	H	1.030229	-0.325485	0.000117
H115	H	1.069408	-0.269657	0.046376
H116	H	1.014299	-0.709345	0.000073
C117	C	0.962161	-0.048543	0.845684
C118	C	1.002156	-0.005752	0.797690
H119	H	0.997198	-0.080805	0.873997
H120	H	0.931426	-0.020233	0.882470
H121	H	0.930743	-0.073620	0.813129
H122	H	1.033570	0.019329	0.830246
H123	H	1.032904	-0.034066	0.760900
H124	H	0.800070	0.180265	0.214378
H125	H	0.800120	0.180289	0.785776
H126	H	0.249959	0.207584	0.000068
C127	C	0.596452	0.286826	0.000037
C128	C	0.655876	0.231743	0.000038
H129	H	0.616967	0.330396	0.000035
H130	H	0.566047	0.283728	-0.046191
H131	H	0.566047	0.283715	0.046274
H132	H	0.686277	0.234851	-0.046203
H133	H	0.686293	0.234842	0.046271
C134	C	0.046907	0.226652	-0.068068
C135	C	0.092866	0.223437	0.000079
H136	H	0.013853	0.269431	-0.068071
H137	H	0.078084	0.224464	-0.114294
H138	H	0.017605	0.188247	-0.068047
H139	H	0.122172	0.261839	0.000055
H140	H	0.061686	0.225631	0.046317
H141	H	0.140258	-0.025384	0.000126
H142	H	1.023506	-0.133213	0.000142
C143	C	0.449369	-0.025525	0.000101
C144	C	0.528942	-0.037813	0.000105
H145	H	0.428855	-0.069096	0.000103
H146	H	0.432642	0.000417	0.046327
H147	H	0.432644	0.000428	-0.046138
H148	H	0.545667	-0.063761	0.046348
H149	H	0.545676	-0.063766	-0.046126
H150	H	0.771107	-0.234702	0.000079
