data_functionalizedCrystal
_audit_creation_method	'MofGen! by Chris Wilmer'
_symmetry_space_group_name_H-M	'P1'
_symmetry_Int_Tables_number	1
_symmetry_cell_setting	triclinic
loop_
_symmetry_equiv_pos_as_xyz
  x,y,z
_cell_length_a	12.827893
_cell_length_b	12.827892
_cell_length_c	12.827885
_cell_angle_alpha	89.970214
_cell_angle_beta	89.980918
_cell_angle_gamma	90.015553
loop_
_atom_site_label
_atom_site_type_symbol
_atom_site_fract_x
_atom_site_fract_y
_atom_site_fract_z
Zn1	Zn	1.597670	-0.415978	-0.590843
Zn2	Zn	1.597564	-0.590755	-0.416104
Zn3	Zn	1.422911	-0.416029	-0.416118
Zn4	Zn	1.422896	-0.590678	-0.590804
O5	O	1.510260	-0.503360	-0.503467
O6	O	1.743892	-0.439173	-0.567674
O7	O	1.574357	-0.567631	-0.269869
O8	O	1.446144	-0.269787	-0.439318
O9	O	1.743814	-0.567581	-0.439294
O10	O	1.574538	-0.269749	-0.567688
O11	O	1.446041	-0.439261	-0.269880
O12	O	1.276673	-0.439186	-0.439280
O13	O	1.446118	-0.567450	-0.737046
O14	O	1.276662	-0.567500	-0.567621
O15	O	1.574524	-0.439098	-0.737074
O16	O	1.574343	-0.736981	-0.439256
O17	O	1.446016	-0.736924	-0.567608
C18	C	1.238750	-0.503341	-0.503448
C19	C	1.122597	-0.503358	-0.503465
C20	C	1.510195	-0.774870	-0.503449
C21	C	1.510262	-0.891023	-0.503476
C22	C	1.070790	-0.439780	-0.440070
C23	C	0.950740	-0.439796	-0.440086
C24	C	1.573838	-0.942801	-0.440034
C25	C	1.573910	-1.062852	-0.440060
C26	C	1.782830	-0.503380	-0.503487
C27	C	1.898983	-0.503389	-0.503495
C28	C	1.510331	-0.503260	-0.776038
C29	C	1.510362	-0.503217	-0.892191
C30	C	1.510354	-0.230790	-0.503509
C31	C	1.510394	-0.114637	-0.503526
C32	C	1.573907	-0.439692	-0.943990
C33	C	1.573940	-0.439647	-1.064040
C34	C	1.510249	-0.503385	-0.231957
C35	C	1.510422	-0.503133	-0.115805
H36	H	0.906187	-0.385360	-0.385815
H37	H	1.628283	-0.385336	-0.899460
O38	O	1.445336	-0.567952	-0.945260
C39	C	1.267605	-0.618671	-0.978799
C40	C	1.341128	-0.545275	-0.918655
H41	H	1.183339	-0.600378	-0.957295
H42	H	1.279102	-0.607075	-1.066168
H43	H	1.285959	-0.702957	-0.957404
H44	H	1.322819	-0.460961	-0.939963
H45	H	1.329618	-0.556962	-0.831301
H46	H	1.115313	-0.385341	-0.385780
H47	H	1.455890	-0.935571	-0.557815
O48	O	1.638746	-0.374792	-1.117335
C49	C	1.697940	-0.315685	-1.285584
C50	C	1.624477	-0.389173	-1.225356
H51	H	1.686444	-0.327302	-1.372929
H52	H	1.679625	-0.231387	-1.264274
H53	H	1.782201	-0.334015	-1.264126
H54	H	1.540191	-0.370937	-1.246782
H55	H	1.642882	-0.473449	-1.246671
O56	O	1.638615	-0.889505	-0.375243
C57	C	1.697683	-0.721261	-0.316220
C58	C	1.624250	-0.781484	-0.389632
H59	H	1.686110	-0.633915	-0.327843
H60	H	1.679408	-0.742657	-0.231901
H61	H	1.781957	-0.742637	-0.334619
H62	H	1.539951	-0.760140	-0.371327
H63	H	1.642614	-0.760082	-0.473929
H64	H	1.456019	-0.557526	-1.071266
H65	H	0.943529	-0.557818	-0.557778
O66	O	1.638882	-1.115803	-0.375161
C67	C	1.771584	-1.104507	-0.242735
C68	C	1.698037	-1.044408	-0.316165
H69	H	1.819445	-1.046810	-0.195034
H70	H	1.723671	-1.155660	-0.188036
H71	H	1.826136	-1.155554	-0.290837
H72	H	1.643469	-0.993304	-0.268148
H73	H	1.746014	-0.993321	-0.370867
O74	O	1.069444	-0.568161	-0.568344
C75	C	0.946097	-0.582288	-0.709268
C76	C	1.006243	-0.508778	-0.635872
H77	H	0.894968	-0.534308	-0.763868
H78	H	1.003725	-0.630137	-0.757076
H79	H	0.895013	-0.636855	-0.661135
H80	H	1.057329	-0.454148	-0.683924
H81	H	0.948558	-0.461003	-0.588061
O82	O	1.445604	-1.061483	-0.568442
C83	C	1.431507	-0.937982	-0.709335
C84	C	1.504999	-0.998142	-0.635901
H85	H	1.479497	-0.886739	-0.763879
H86	H	1.383715	-0.995601	-0.757202
H87	H	1.376886	-0.887011	-0.661229
H88	H	1.559683	-1.049114	-0.683926
H89	H	1.552718	-0.940466	-0.588030
