data_functionalizedCrystal
_audit_creation_method	'MofGen! by Chris Wilmer'
_symmetry_space_group_name_H-M	'P1'
_symmetry_Int_Tables_number	1
_symmetry_cell_setting	triclinic
loop_
_symmetry_equiv_pos_as_xyz
  x,y,z
_cell_length_a	16.109304
_cell_length_b	10.654547
_cell_length_c	15.186229
_cell_angle_alpha	89.995922
_cell_angle_beta	89.999066
_cell_angle_gamma	83.974347
loop_
_atom_site_label
_atom_site_type_symbol
_atom_site_fract_x
_atom_site_fract_y
_atom_site_fract_z
O1	O	0.116784	1.666256	-0.073238
O2	O	0.127907	1.300627	-0.073236
O3	O	0.001374	1.493483	-0.073237
O4	O	0.243316	1.473399	-0.073236
O5	O	0.001372	1.493471	0.073220
O6	O	0.127905	1.300614	0.073222
O7	O	0.116782	1.666243	0.073220
Zn8	Zn	0.122343	1.483426	0.096474
Zn9	Zn	0.122346	1.483443	-0.096490
O10	O	0.243314	1.473386	0.073221
C11	C	0.127089	1.253833	-0.000007
C12	C	0.124644	1.114423	-0.000006
C13	C	0.120037	0.852480	-0.159690
C14	C	0.121188	0.917990	-0.239524
C15	C	0.123492	1.048976	-0.239521
C16	C	0.124642	1.114456	-0.159676
C17	C	0.123491	1.048947	-0.079842
C18	C	0.121190	0.917957	-0.079854
C19	C	0.123493	1.048914	0.079828
C20	C	0.121195	0.917926	0.079827
C21	C	0.124643	1.114394	0.159673
C22	C	0.123498	1.048883	0.239509
C23	C	0.121195	0.917889	0.239503
C24	C	0.120044	0.852417	0.159661
C25	C	-0.029606	1.492663	-0.000011
C26	C	-0.121916	1.490222	-0.000016
C27	C	-0.334286	1.484589	-0.079847
C28	C	-0.421020	1.482284	-0.079846
C29	C	-0.421019	1.482276	0.079830
C30	C	-0.334286	1.484573	0.079828
C31	C	-0.290922	1.485735	-0.000013
C32	C	-0.464389	1.481134	-0.000011
C33	C	-0.558430	1.478635	-0.000009
C34	C	-0.196875	1.488232	-0.000015
C35	C	0.274295	1.474207	-0.000007
C36	C	0.366605	1.476648	-0.000007
C37	C	0.117600	1.713036	-0.000011
C38	C	0.120045	1.852446	-0.000018
N39	N	0.122341	1.483424	0.228167
N40	N	0.122341	1.483456	-0.228183
C41	C	0.066332	1.568850	0.453889
C42	C	0.066330	1.568854	0.546078
C43	C	0.178353	1.398020	0.546089
C44	C	0.178351	1.398011	0.453901
C45	C	0.122341	1.483433	0.407803
C46	C	0.122341	1.483446	0.592181
C47	C	0.122340	1.483450	0.692137
C48	C	0.122341	1.483428	0.307841
H49	H	0.124428	1.102314	-0.304529
H50	H	0.020724	1.638404	0.416358
H51	H	0.126507	1.221114	-0.159682
H52	H	0.020721	1.638406	0.583599
H53	H	0.126513	1.221051	0.159669
H54	H	-0.298982	1.485533	-0.144859
H55	H	0.118172	0.745822	-0.159700
H56	H	0.223956	1.328474	0.583631
H57	H	0.120248	0.864662	-0.304532
H58	H	-0.456323	1.481348	-0.144855
H59	H	-0.456336	1.481332	0.144833
H60	H	0.223960	1.328449	0.416376
H61	H	0.124430	1.102209	0.304512
H62	H	0.118174	0.745760	0.159649
H63	H	0.120262	0.864558	0.304514
H64	H	-0.298978	1.485499	0.144842
