data_functionalizedCrystal
_audit_creation_method	'MofGen! by Chris Wilmer'
_symmetry_space_group_name_H-M	'P1'
_symmetry_Int_Tables_number	1
_symmetry_cell_setting	triclinic
loop_
_symmetry_equiv_pos_as_xyz
  x,y,z
_cell_length_a	16.992694
_cell_length_b	13.101039
_cell_length_c	14.044190
_cell_angle_alpha	93.663707
_cell_angle_beta	88.070000
_cell_angle_gamma	93.581737
loop_
_atom_site_label
_atom_site_type_symbol
_atom_site_fract_x
_atom_site_fract_y
_atom_site_fract_z
O1	O	1.058492	0.085103	-0.197136
O2	O	0.830053	0.085133	-0.194918
O3	O	0.940839	0.085099	-0.057783
O4	O	0.947705	0.085138	-0.334271
O5	O	0.932892	-0.085329	-0.067640
O6	O	0.822105	-0.085294	-0.204774
O7	O	1.050544	-0.085324	-0.206993
Zn8	Zn	0.935063	-0.112368	-0.207448
Zn9	Zn	0.945534	0.112177	-0.194462
O10	O	0.939757	-0.085289	-0.344127
C11	C	0.796667	-0.000077	-0.196994
C12	C	0.709028	-0.000066	-0.188485
N13	N	0.927922	-0.265614	-0.216311
C14	C	0.664532	-0.000055	-0.270581
C15	C	0.582185	-0.000071	-0.262582
C16	C	0.544336	-0.000089	-0.172484
C17	C	0.588838	-0.000103	-0.090382
C18	C	0.671183	-0.000096	-0.098383
C19	C	0.298416	-0.000122	-0.139324
C20	C	0.216065	-0.000126	-0.131329
C21	C	0.209418	-0.000096	-0.303529
C22	C	0.291765	-0.000081	-0.311522
C23	C	0.336260	-0.000101	-0.229420
N24	N	0.460164	-0.000102	-0.164305
N25	N	0.420429	-0.000096	-0.237600
C26	C	0.918207	-0.474654	-0.228378
C27	C	0.962393	-0.525543	-0.173528
C28	C	0.956987	-0.641860	-0.180242
C29	C	0.923612	-0.358327	-0.221665
C30	C	1.083930	-0.000112	-0.204916
C31	C	1.171569	-0.000116	-0.213425
C32	C	0.933863	-0.000118	-0.027170
C33	C	0.924906	-0.000125	0.078734
N34	N	0.952680	0.265424	-0.185592
C35	C	0.946734	-0.000071	-0.374740
C36	C	0.955691	-0.000056	-0.480644
C37	C	0.972054	-0.000092	0.325451
C38	C	0.908546	-0.000090	0.272633
C39	C	0.917651	-0.000110	0.164738
C40	C	0.962950	-0.000072	0.433356
H41	H	0.695342	-0.000039	-0.343948
C42	C	0.719603	0.000056	-0.009320
C43	C	0.771165	0.087726	-0.003823
C44	C	0.815788	0.087889	0.078203
H45	H	0.685366	0.000098	0.045560
H46	H	0.749146	-0.059344	-0.012297
H47	H	0.741624	0.147111	-0.000838
H48	H	0.805418	0.087703	-0.058684
H49	H	0.845332	0.028489	0.075227
H50	H	0.781546	0.087928	0.133077
H51	H	0.850783	0.147367	0.081939
H52	H	0.847338	-0.000076	0.308446
C53	C	1.053624	0.000038	0.277587
C54	C	1.066613	0.087691	0.225814
C55	C	1.141740	0.087834	0.181685
H56	H	1.092355	0.000089	0.324809
H57	H	1.057037	-0.059373	0.235532
H58	H	1.063207	0.147087	0.267865
H59	H	1.027900	0.087659	0.178576
H60	H	1.145154	0.028423	0.139630
H61	H	1.180465	0.087882	0.228914
H62	H	1.150560	0.147301	0.146545
H63	H	0.334634	-0.000138	-0.072470
C64	C	0.862282	-0.532847	-0.297741
C65	C	0.822562	-0.463040	-0.347016
C66	C	0.771032	-0.516623	-0.410911
H67	H	0.891473	-0.574701	-0.341972
H68	H	0.825067	-0.574685	-0.263419
H69	H	0.859772	-0.421220	-0.381336
H70	H	0.793355	-0.421185	-0.302810
H71	H	0.733816	-0.558461	-0.376590
H72	H	0.800229	-0.558475	-0.455136
H73	H	0.744070	-0.469267	-0.444346
C74	C	0.547713	0.000087	0.007427
C75	C	0.504730	0.087778	0.022132
C76	C	0.466846	0.087999	0.112229
H77	H	0.512905	-0.059277	0.010791
H78	H	0.585987	0.000136	0.055209
H79	H	0.466460	0.087721	-0.025637
H80	H	0.539520	0.147157	0.018786
H81	H	0.505120	0.088048	0.160011
H82	H	0.432042	0.028632	0.115585
H83	H	0.437684	0.147501	0.122221
C84	C	0.534015	-0.000005	-0.351826
C85	C	0.584788	0.000046	-0.432439
C86	C	0.540444	0.000118	-0.514671
H87	H	0.498985	-0.059425	-0.355860
H88	H	0.504532	0.059446	-0.348896
H89	H	0.614258	-0.059399	-0.435369
H90	H	0.619819	0.059462	-0.428437
H91	H	0.510960	0.059569	-0.511741
H92	H	0.505415	-0.059304	-0.518695
H93	H	0.574887	0.000162	-0.569376
H94	H	0.322576	-0.000054	-0.384888
H95	H	0.173182	-0.000082	-0.370372
H96	H	0.185251	-0.000141	-0.057957
C97	C	1.018046	-0.466980	-0.104068
C98	C	1.012314	-0.361581	-0.111013
C99	C	1.063493	-0.307597	-0.046956
H100	H	1.004027	-0.484510	-0.040867
H101	H	1.070677	-0.484315	-0.119118
H102	H	0.959695	-0.344254	-0.095956
H103	H	1.026339	-0.344020	-0.174198
H104	H	1.116124	-0.324932	-0.062006
H105	H	1.049470	-0.325136	0.016240
H106	H	1.059616	-0.236079	-0.051666
