data_functionalizedCrystal
_audit_creation_method	'MofGen! by Chris Wilmer'
_symmetry_space_group_name_H-M	'P1'
_symmetry_Int_Tables_number	1
_symmetry_cell_setting	triclinic
loop_
_symmetry_equiv_pos_as_xyz
  x,y,z
_cell_length_a	19.805407
_cell_length_b	15.299816
_cell_length_c	19.805399
_cell_angle_alpha	80.341151
_cell_angle_beta	90.020409
_cell_angle_gamma	80.353075
loop_
_atom_site_label
_atom_site_type_symbol
_atom_site_fract_x
_atom_site_fract_y
_atom_site_fract_z
Zn1	Zn	1.081364	-0.359036	0.429417
Zn2	Zn	1.581364	0.140964	0.929417
Zn3	Zn	1.100867	-0.509860	0.335838
Zn4	Zn	1.600867	-0.009860	0.835838
Zn5	Zn	0.968183	-0.359066	0.316243
Zn6	Zn	1.468183	0.140934	0.816243
Zn7	Zn	0.987725	-0.509817	0.448978
Zn8	Zn	1.487725	-0.009817	0.948978
O9	O	1.034535	-0.434445	0.382619
O10	O	1.534535	0.065555	0.882619
O11	O	1.178669	-0.379048	0.417017
O12	O	1.678669	0.120952	0.917017
O13	O	1.083250	-0.489887	0.238526
O14	O	1.583250	0.010113	0.738526
O15	O	0.966856	-0.232851	0.314869
O16	O	1.466856	0.267149	0.814869
O17	O	1.192997	-0.489858	0.348266
O18	O	1.692997	0.010142	0.848266
O19	O	1.050010	-0.232829	0.398017
O20	O	1.550010	0.267171	0.898017
O21	O	0.985767	-0.379099	0.224130
O22	O	1.485767	0.120901	0.724130
O23	O	0.876058	-0.379058	0.333837
O24	O	1.376058	0.120942	0.833837
O25	O	1.000162	-0.489785	0.541096
O26	O	1.500162	0.010215	1.041096
O27	O	0.890415	-0.489814	0.431356
O28	O	1.390415	0.010186	0.931356
O29	O	1.068959	-0.379007	0.526724
O30	O	1.568959	0.120993	1.026724
O31	O	1.102198	-0.636065	0.367234
O32	O	1.602198	-0.136065	0.867234
O33	O	1.019073	-0.636033	0.450357
O34	O	1.519073	-0.136033	0.950357
C35	C	0.858677	-0.434435	0.382593
C36	C	1.358677	0.065565	0.882593
C37	C	0.783448	-0.434453	0.382601
C38	C	1.283448	0.065547	0.882601
C39	C	0.314212	-0.376854	0.418524
C40	C	0.814212	0.123146	0.918524
C41	C	0.384901	-0.376855	0.418520
C42	C	0.884901	0.123145	0.918520
C43	C	0.427687	-0.434458	0.382643
C44	C	0.927687	0.065542	0.882643
C45	C	0.399781	-0.492070	0.346774
C46	C	0.899781	0.007930	0.846774
C47	C	0.329095	-0.492072	0.346783
C48	C	0.829095	0.007928	0.846783
C49	C	0.684854	-0.492063	0.346737
C50	C	1.184854	0.007937	0.846737
C51	C	0.755545	-0.492054	0.346729
C52	C	1.255545	0.007946	0.846729
C53	C	0.740660	-0.376846	0.418474
C54	C	1.240660	0.123154	0.918474
C55	C	0.669973	-0.376849	0.418483
C56	C	1.169973	0.123151	0.918483
C57	C	0.642075	-0.434463	0.382617
C58	C	1.142075	0.065537	0.882617
C59	C	0.565426	-0.434462	0.382624
C60	C	1.065426	0.065538	0.882624
C61	C	0.504333	-0.434456	0.382632
C62	C	1.004333	0.065544	0.882632
C63	C	1.064891	-0.668774	0.413059
C64	C	1.564891	-0.168774	0.913059
C65	C	1.077940	-0.769021	0.426104
C66	C	1.577940	-0.269021	0.926104
C67	C	0.941718	-1.051946	0.289614
C68	C	1.441718	-0.551946	0.789614
C69	C	0.929455	-0.957759	0.277360
C70	C	1.429455	-0.457759	0.777360
C71	C	0.966575	-0.910570	0.314544
C72	C	1.466575	-0.410570	0.814544
C73	C	1.015961	-0.957577	0.363987
C74	C	1.515961	-0.457577	0.863987
C75	C	1.028221	-1.051773	0.376246
C76	C	1.528221	-0.551773	0.876246
C77	C	1.053078	-0.910397	0.401176
C78	C	1.553078	-0.410397	0.901176
C79	C	1.102464	-0.957405	0.450619
C80	C	1.602464	-0.457405	0.950619
C81	C	1.114722	-1.051592	0.462876
C82	C	1.614722	-0.551592	0.962876
C83	C	1.077602	-1.098781	0.425691
C84	C	1.577602	-0.598781	0.925691
C85	C	1.040818	-0.816201	0.388917
C86	C	1.540818	-0.316201	0.888917
C87	C	1.127321	-0.816029	0.475549
C88	C	1.627321	-0.316029	0.975549
C89	C	1.139584	-0.910216	0.487803
C90	C	1.639584	-0.410216	0.987803
C91	C	1.211079	-0.434455	0.382645
C92	C	1.711079	0.065545	0.882645
C93	C	1.286311	-0.434459	0.382657
C94	C	1.786311	0.065541	0.882657
C95	C	1.034565	-0.434388	0.559154
C96	C	1.534565	0.065612	1.059154
C97	C	1.034578	-0.434364	0.634383
C98	C	1.534578	0.065636	1.134383
C99	C	1.004078	-0.199200	0.352075
C100	C	1.504078	0.300800	0.852075
C101	C	0.991099	-0.098953	0.339059
C102	C	1.491099	0.401047	0.839059
C103	C	1.034535	-0.434436	0.206762
C104	C	1.534535	0.065564	0.706762
C105	C	1.034620	-0.434206	0.131501
C106	C	1.534620	0.065794	0.631501
C107	C	1.070401	-0.376678	0.662245
C108	C	1.570401	0.123322	1.162245
C109	C	1.070405	-0.376652	0.732930
C110	C	1.570405	0.123348	1.232930
C111	C	1.034589	-0.434317	0.775753
C112	C	1.534589	0.065683	1.275753
C113	C	0.998761	-0.492004	0.747887
C114	C	1.498761	0.007996	1.247887
C115	C	0.998754	-0.492025	0.677202
C116	C	1.498754	0.007975	1.177202
C117	C	0.998789	-0.491920	1.032949
C118	C	1.498789	0.008080	1.532949
C119	C	0.998800	-0.491897	1.103638
C120	C	1.498800	0.008103	1.603638
C121	C	1.070439	-0.376547	1.088677
C122	C	1.570439	0.123453	1.588677
C123	C	1.070432	-0.376568	1.017993
C124	C	1.570432	0.123432	1.517993
C125	C	1.034602	-0.434252	0.990132
C126	C	1.534602	0.065748	1.490132
C127	C	1.034597	-0.434279	0.913487
C128	C	1.534597	0.065721	1.413487
C129	C	1.034597	-0.434295	0.852397
C130	C	1.534597	0.065705	1.352397
H131	H	0.635139	-0.329939	0.447695
H132	H	1.135139	0.170061	0.947695
H133	H	1.099611	-0.329575	1.111369
H134	H	1.599611	0.170425	1.611369
Br135	Br	0.950161	-0.570204	0.995147
Br136	Br	1.450161	-0.070204	1.495147
Br137	Br	1.094402	-1.226611	0.442162
Br138	Br	1.594402	-0.726611	0.942162
Br139	Br	0.813612	-0.570233	0.298033
Br140	Br	1.313612	-0.070233	0.798033
H141	H	0.662147	-0.538974	0.317531
H142	H	1.162147	-0.038974	0.817531
H143	H	0.434624	-0.538975	0.317565
H144	H	0.934624	-0.038975	0.817565
H145	H	0.279379	-0.329941	0.447735
H146	H	0.779379	0.170059	0.947735
Br147	Br	0.422765	-0.298681	0.467206
Br148	Br	0.922765	0.201319	0.967206
H149	H	0.969597	-0.538952	0.782759
H150	H	1.469597	-0.038952	1.282759
Br151	Br	0.949667	-0.782743	0.298177
Br152	Br	1.449667	-0.282743	0.798177
H153	H	0.889245	-0.919489	0.237105
H154	H	1.389245	-0.419489	0.737105
H155	H	1.179794	-0.948503	0.528060
H156	H	1.679794	-0.448503	1.028060
H157	H	1.157546	-0.777608	0.505829
H158	H	1.657546	-0.277608	1.005829
H159	H	0.969575	-0.538989	0.654518
H160	H	1.469575	-0.038989	1.154518
Br161	Br	1.181729	-1.115386	0.529992
Br162	Br	1.681729	-0.615386	1.029992
H163	H	0.306379	-0.538982	0.317577
H164	H	0.806379	-0.038982	0.817577
Br165	Br	0.891334	-1.115990	0.239169
Br166	Br	1.391334	-0.615990	0.739169
Br167	Br	0.778526	-0.298656	0.467152
Br168	Br	1.278526	0.201344	0.967152
Br169	Br	1.119017	-0.298422	0.604135
Br170	Br	1.619017	0.201578	1.104135
H171	H	1.000607	-0.777936	0.348661
H172	H	1.500607	-0.277936	0.848661
Br173	Br	1.119061	-0.298404	0.770745
Br174	Br	1.619061	0.201596	1.270745
H175	H	0.969632	-0.538856	1.138504
H176	H	1.469632	-0.038856	1.638504
H177	H	1.099600	-0.329615	0.983129
H178	H	1.599600	0.170385	1.483129
