data_functionalizedCrystal
_audit_creation_method	'MofGen! by Chris Wilmer'
_symmetry_space_group_name_H-M	'P1'
_symmetry_Int_Tables_number	1
_symmetry_cell_setting	triclinic
loop_
_symmetry_equiv_pos_as_xyz
  x,y,z
_cell_length_a	14.908783
_cell_length_b	19.120904
_cell_length_c	14.908308
_cell_angle_alpha	90.681482
_cell_angle_beta	90.211273
_cell_angle_gamma	84.385971
loop_
_atom_site_label
_atom_site_type_symbol
_atom_site_fract_x
_atom_site_fract_y
_atom_site_fract_z
Zn1	Zn	1.332613	0.245600	0.573610
Zn2	Zn	1.335490	0.355896	0.416864
Zn3	Zn	1.190966	0.244840	0.414625
Zn4	Zn	1.175820	0.369342	0.557707
O5	O	1.258722	0.303920	0.490701
O6	O	1.459097	0.254922	0.560409
O7	O	1.323861	0.335219	0.291088
O8	O	1.214890	0.146677	0.441433
O9	O	1.461210	0.335956	0.445249
O10	O	1.318958	0.147235	0.558238
O11	O	1.217680	0.253627	0.289443
O12	O	1.062854	0.266665	0.426013
O13	O	1.189076	0.358873	0.685295
O14	O	1.051727	0.358136	0.531134
O15	O	1.304272	0.267960	0.696979
O16	O	1.309174	0.455944	0.429828
O17	O	1.191866	0.465823	0.533305
C18	C	1.024594	0.313777	0.476605
C19	C	0.924430	0.318013	0.470595
C20	C	0.733993	0.241721	0.579387
C21	C	0.639880	0.245698	0.573743
C22	C	0.642091	0.329939	0.453660
C23	C	0.736204	0.325962	0.459304
C24	C	0.782151	0.281853	0.522171
C25	C	0.876265	0.277880	0.527818
C26	C	0.878475	0.362117	0.407731
C27	C	0.784362	0.366094	0.402088
C28	C	1.249212	0.486362	0.480105
C29	C	1.245224	0.564409	0.475607
C30	C	1.297487	0.601311	0.534352
C31	C	1.293736	0.674645	0.530127
C32	C	1.237727	0.711076	0.467151
C33	C	1.185458	0.674170	0.408404
C34	C	1.189204	0.600837	0.412634
C35	C	1.223702	0.932481	0.451338
C36	C	1.219961	1.005819	0.447111
C37	C	1.328239	1.006289	0.568835
C38	C	1.331985	0.932954	0.573056
C39	C	1.279712	0.896055	0.514312
C40	C	1.233894	0.786035	0.462829
C41	C	1.283541	0.821097	0.518639
C42	C	1.493765	0.294024	0.504852
C43	C	1.593926	0.289807	0.510883
C44	C	1.244664	0.315001	0.724582
C45	C	1.238673	0.319723	0.824248
C46	C	1.268256	1.120766	0.501348
C47	C	1.272224	1.042720	0.505856
C48	C	1.272780	0.292828	0.257736
C49	C	1.278956	0.287901	0.158092
C50	C	1.347367	0.233913	1.023700
C51	C	1.341741	0.238347	1.117346
C52	C	1.221791	0.333023	1.105187
C53	C	1.227417	0.328588	1.011541
C54	C	1.290208	0.279032	0.970801
C55	C	1.295838	0.274602	0.877154
C56	C	1.175884	0.369273	0.864997
C57	C	1.170258	0.373708	0.958642
H58	H	0.746939	0.402004	0.350901
O59	O	1.179440	0.821512	0.401767
C60	C	1.115947	0.868815	0.446816
H61	H	1.143022	0.881637	0.516080
H62	H	1.050007	0.843880	0.454208
C63	C	1.065839	0.921105	0.307406
C64	C	1.099096	0.936856	0.392474
H65	H	1.055441	0.963074	0.273884
H66	H	1.108613	0.889234	0.277055
H67	H	1.010892	0.900324	0.313578
H68	H	1.154048	0.957628	0.386301
H69	H	1.056332	0.968733	0.422823
H70	H	1.377593	0.903293	0.624336
O71	O	0.925168	0.401066	0.352018
C72	C	0.908346	0.382345	0.262196
H73	H	0.841528	0.358149	0.257857
H74	H	0.965000	0.342544	0.237343
C75	C	0.985767	0.478059	0.208842
C76	C	0.903696	0.448348	0.203511
H77	H	0.982903	0.518772	0.172640
H78	H	0.997104	0.490671	0.269357
H79	H	1.032970	0.444886	0.188133
H80	H	0.856497	0.481518	0.224230
H81	H	0.892351	0.435743	0.142998
O82	O	1.337823	0.785641	0.579852
C83	C	1.285154	0.748163	0.637091
H84	H	1.219346	0.738617	0.601935
H85	H	1.269771	0.779977	0.701310
C86	C	1.418122	0.688867	0.703540
C87	C	1.337299	0.677137	0.660356
H88	H	1.450287	0.645056	0.717895
H89	H	1.453606	0.714118	0.664979
H90	H	1.405291	0.715380	0.757050
H91	H	1.350131	0.650632	0.606842
H92	H	1.301817	0.651879	0.698909
H93	H	0.913674	0.241964	0.579008
H94	H	0.604666	0.365843	0.402468
H95	H	1.174347	1.035479	0.395828
H96	H	0.771404	0.205809	0.630579
O97	O	1.109314	0.421935	0.998120
C98	C	1.126751	0.490008	0.972373
H99	H	1.165401	0.486783	0.906381
H100	H	1.168682	0.514198	1.026492
C101	C	0.989473	0.540006	1.041341
C102	C	1.036938	0.536046	0.960283
H103	H	0.934073	0.568406	1.033887
H104	H	0.977727	0.494144	1.058690
H105	H	1.024426	0.560162	1.086432
H106	H	1.001990	0.515881	0.915197
H107	H	1.048676	0.581905	0.942926
O108	O	0.593070	0.206638	0.629200
C109	C	0.544025	0.161124	0.577615
H110	H	0.576841	0.152159	0.508957
H111	H	0.471757	0.185698	0.568946
C112	C	0.503437	0.101333	0.710048
C113	C	0.543747	0.090317	0.625724
H114	H	0.503261	0.057656	0.739725
H115	H	0.536476	0.131998	0.744803
H116	H	0.443217	0.121813	0.702812
H117	H	0.603968	0.069845	0.632961
H118	H	0.510717	0.059646	0.590971
O119	O	1.173066	0.896555	0.394240
C120	C	1.230067	0.849222	0.341894
H121	H	1.296991	0.836804	0.378324
H122	H	1.242574	0.873927	0.274420
C123	C	1.102836	0.796172	0.281906
C124	C	1.185030	0.780916	0.326653
H125	H	1.075055	0.754039	0.272500
H126	H	1.064433	0.828063	0.317170
H127	H	1.113271	0.816761	0.225683
H128	H	1.174594	0.760336	0.382879
H129	H	1.223431	0.749020	0.291398
H130	H	1.346966	0.234252	0.843986
O131	O	1.131104	0.709471	0.347112
C132	C	1.157170	0.686506	0.259982
H133	H	1.194644	0.631692	0.263312
H134	H	1.203230	0.724371	0.230227
C135	C	1.026776	0.751638	0.196411
C136	C	1.072796	0.684312	0.200500
H137	H	0.974732	0.750288	0.159718
H138	H	1.009216	0.767113	0.255112
H139	H	1.065169	0.783185	0.171618
H140	H	1.034407	0.652768	0.225303
H141	H	1.090347	0.668832	0.141802
O142	O	1.408385	0.185719	0.984264
C143	C	1.457650	0.146861	1.051037
H144	H	1.416858	0.149142	1.115712
H145	H	1.524147	0.170167	1.063619
C146	C	1.526843	0.067047	0.940180
C147	C	1.476739	0.069844	1.019613
H148	H	1.538622	0.019540	0.920795
H149	H	1.493655	0.093228	0.895193
H150	H	1.582251	0.086472	0.950675
H151	H	1.421327	0.050427	1.009114
H152	H	1.509918	0.043658	1.064597
O153	O	1.351788	0.565965	0.595649
C154	C	1.325744	0.588954	0.682776
H155	H	1.252450	0.612408	0.681740
H156	H	1.370454	0.630558	0.706710
C157	C	1.425930	0.497378	0.748289
C158	C	1.335906	0.526179	0.747018
H159	H	1.432202	0.458657	0.787919
H160	H	1.443479	0.481891	0.689590
H161	H	1.463178	0.532055	0.768232
H162	H	1.298662	0.491505	0.727065
H163	H	1.318351	0.541659	0.805715
O164	O	1.397138	0.194451	1.168768
C165	C	1.344944	0.153837	1.222501
H166	H	1.275891	0.151158	1.190262
H167	H	1.336446	0.179038	1.292025
C168	C	1.477500	0.082341	1.270426
C169	C	1.392691	0.079045	1.230826
H170	H	1.506954	0.036207	1.275565
H171	H	1.512665	0.109705	1.234228
H172	H	1.470407	0.103345	1.328359
H173	H	1.399786	0.058050	1.172890
H174	H	1.357528	0.051676	1.267015
O175	O	1.344556	0.710564	0.587057
C176	C	1.403705	0.748073	0.537103
H177	H	1.375492	0.757210	0.466580
H178	H	1.472531	0.716492	0.532953
C179	C	1.448110	0.808140	0.670023
C180	C	1.413453	0.819367	0.583408
H181	H	1.454127	0.852117	0.698588
H182	H	1.408262	0.782868	0.703679
H183	H	1.505461	0.781821	0.666553
H184	H	1.356099	0.845678	0.586881
H185	H	1.453291	0.844645	0.549754
O186	O	1.120482	0.413131	0.813520
C187	C	1.172672	0.453773	0.759822
H188	H	1.243098	0.425465	0.751338
H189	H	1.177691	0.507100	0.793488
C190	C	1.041271	0.499140	0.677567
C191	C	1.127767	0.464369	0.667141
H192	H	1.013570	0.505680	0.620399
H193	H	1.006108	0.471761	0.713747
H194	H	1.045465	0.543576	0.705626
H195	H	1.123571	0.419931	0.639093
H196	H	1.162929	0.491741	0.630955
H197	H	1.170670	0.373368	1.138373
H198	H	1.370796	1.036340	0.616663
H199	H	1.146645	0.570793	0.364798
