data_functionalizedCrystal
_audit_creation_method	'MofGen! by Chris Wilmer'
_symmetry_space_group_name_H-M	'P1'
_symmetry_Int_Tables_number	1
_symmetry_cell_setting	triclinic
loop_
_symmetry_equiv_pos_as_xyz
  x,y,z
_cell_length_a	14.971486
_cell_length_b	16.109304
_cell_length_c	14.048226
_cell_angle_alpha	89.996377
_cell_angle_beta	89.998499
_cell_angle_gamma	83.538383
loop_
_atom_site_label
_atom_site_type_symbol
_atom_site_fract_x
_atom_site_fract_y
_atom_site_fract_z
O1	O	1.186792	0.108348	-0.079045
O2	O	1.520125	0.441681	0.254288
O3	O	1.853459	0.775014	0.587622
O4	O	0.926373	0.121322	-0.079070
O5	O	1.259707	0.454656	0.254263
O6	O	1.593040	0.787989	0.587596
O7	O	1.063735	-0.006187	-0.079057
O8	O	1.397069	0.327146	0.254276
O9	O	1.730402	0.660480	0.587609
O10	O	1.049430	0.235857	-0.079058
O11	O	1.382763	0.569190	0.254276
O12	O	1.716097	0.902524	0.587609
O13	O	1.063719	-0.006194	0.079264
O14	O	1.397052	0.327139	0.412597
O15	O	1.730385	0.660472	0.745931
O16	O	0.926357	0.121315	0.079251
O17	O	1.259690	0.454648	0.412584
O18	O	1.593023	0.787982	0.745918
O19	O	1.186775	0.108340	0.079276
O20	O	1.520109	0.441673	0.412610
O21	O	1.853442	0.775007	0.745943
Zn22	Zn	1.056563	0.114826	0.104401
Zn23	Zn	1.389897	0.448160	0.437734
Zn24	Zn	1.723230	0.781493	0.771067
Zn25	Zn	1.056585	0.114836	-0.104195
Zn26	Zn	1.389919	0.448170	0.229139
Zn27	Zn	1.723252	0.781503	0.562472
O28	O	1.049413	0.235849	0.079263
O29	O	1.382747	0.569183	0.412597
O30	O	1.716080	0.902516	0.745930
C31	C	0.893041	0.120738	0.000087
C32	C	1.226374	0.454072	0.333420
C33	C	1.559708	0.787405	0.666754
C34	C	0.793746	0.119000	0.000077
C35	C	1.127080	0.452333	0.333411
C36	C	1.460413	0.785666	0.666744
C37	C	0.736414	0.193908	0.000078
C38	C	1.069747	0.527241	0.333412
C39	C	1.403081	0.860575	0.666745
C40	C	0.643117	0.192269	0.000093
C41	C	0.976450	0.525602	0.333426
C42	C	1.309783	0.858936	0.666759
C43	C	0.607154	0.115721	0.000099
C44	C	0.940487	0.449054	0.333432
C45	C	1.273821	0.782388	0.666766
C46	C	0.664494	0.040807	0.000100
C47	C	0.997827	0.374140	0.333434
C48	C	1.331161	0.707474	0.666767
C49	C	0.757789	0.042447	0.000093
C50	C	1.091123	0.375780	0.333426
C51	C	1.424456	0.709113	0.666760
C52	C	0.470036	0.037395	0.000114
C53	C	0.803370	0.370728	0.333447
C54	C	1.136703	0.704061	0.666780
C55	C	0.376735	0.035755	0.000119
C56	C	0.710068	0.369088	0.333453
C57	C	1.043401	0.702421	0.666786
C58	C	0.355364	0.187217	0.000113
C59	C	0.688697	0.520550	0.333447
C60	C	1.022031	0.853884	0.666780
C61	C	0.448659	0.188857	0.000106
C62	C	0.781993	0.522190	0.333439
C63	C	1.115326	0.855523	0.666772
C64	C	0.505993	0.113942	0.000106
C65	C	0.839326	0.447276	0.333439
C66	C	1.172659	0.780609	0.666772
C67	C	1.063147	-0.037166	0.000101
C68	C	1.396480	0.296167	0.333434
C69	C	1.729814	0.629500	0.666768
C70	C	1.061408	-0.129464	0.000094
C71	C	1.394742	0.203870	0.333428
C72	C	1.728075	0.537203	0.666761
C73	C	1.057401	-0.341802	-0.086203
C74	C	1.390734	-0.008468	0.247130
C75	C	1.724067	0.324865	0.580463
C76	C	1.055759	-0.428524	-0.086203
C77	C	1.389092	-0.095191	0.247131
C78	C	1.722426	0.238143	0.580464
C79	C	1.055745	-0.428529	0.086408
C80	C	1.389079	-0.095196	0.419741
C81	C	1.722412	0.238137	0.753074
C82	C	1.057381	-0.341808	0.086406
C83	C	1.390714	-0.008475	0.419739
C84	C	1.724047	0.324859	0.753073
C85	C	1.058213	-0.298447	0.000098
C86	C	1.391546	0.034886	0.333431
C87	C	1.724880	0.368220	0.666764
C88	C	1.054936	-0.471891	0.000100
C89	C	1.388269	-0.138557	0.333433
C90	C	1.721602	0.194776	0.666767
C91	C	1.053156	-0.565919	0.000101
C92	C	1.386489	-0.232585	0.333435
C93	C	1.719822	0.100748	0.666768
C94	C	1.059991	-0.204413	0.000096
C95	C	1.393325	0.128921	0.333429
C96	C	1.726658	0.462254	0.666762
C97	C	1.220108	0.108924	0.000117
C98	C	1.553441	0.442257	0.333450
C99	C	1.886774	0.775591	0.666783
C100	C	1.319402	0.110663	0.000120
C101	C	1.652735	0.443996	0.333454
C102	C	1.986069	0.777330	0.666787
C103	C	1.050002	0.266829	0.000103
C104	C	1.383335	0.600162	0.333436
C105	C	1.716668	0.933495	0.666770
C106	C	1.051740	0.359126	0.000103
C107	C	1.385074	0.692459	0.333437
C108	C	1.718407	1.025793	0.666770
N109	N	1.056555	0.114819	0.246761
N110	N	1.389888	0.448152	0.580095
N111	N	1.723222	0.781486	0.913428
N112	N	1.056601	0.114837	-0.246555
N113	N	1.389934	0.448170	0.086778
N114	N	1.723267	0.781504	0.420111
C115	C	1.117398	0.058381	0.296585
C116	C	1.450731	0.391715	0.629918
C117	C	1.784065	0.725048	0.963252
C118	C	1.117404	0.058381	0.396243
C119	C	1.450737	0.391714	0.729576
C120	C	1.784071	0.725047	1.062909
C121	C	1.056571	0.114823	0.446075
C122	C	1.389904	0.448156	0.779408
C123	C	1.723237	0.781489	1.112741
C124	C	0.995721	0.171263	0.396244
C125	C	1.329055	0.504597	0.729577
C126	C	1.662388	0.837930	1.062911
C127	C	0.995712	0.171259	0.296588
C128	C	1.329045	0.504592	0.629922
C129	C	1.662378	0.837926	0.963255
C130	C	0.995747	0.171269	0.603958
C131	C	1.329080	0.504603	0.937292
C132	C	1.662414	0.837936	1.270625
C133	C	0.995758	0.171275	0.703621
C134	C	1.329091	0.504608	1.036954
C135	C	1.662424	0.837941	1.370288
C136	C	1.117440	0.058391	0.703613
C137	C	1.450773	0.391724	1.036946
C138	C	1.784106	0.725058	1.370279
C139	C	1.117430	0.058387	0.603957
C140	C	1.450763	0.391720	0.937290
C141	C	1.784097	0.725053	1.270624
C142	C	1.056581	0.114829	0.554133
C143	C	1.389915	0.448162	0.887466
C144	C	1.723248	0.781495	1.220800
H145	H	0.765687	0.256242	0.000073
H146	H	1.099020	0.589575	0.333406
H147	H	1.432354	0.922909	0.666739
F148	F	1.054892	-0.474661	-0.178056
F149	F	1.388226	-0.141328	0.155277
F150	F	1.721559	0.192005	0.488610
H151	H	0.946166	0.217215	0.256023
H152	H	1.279499	0.550549	0.589356
H153	H	1.612833	0.883882	0.922689
H154	H	1.055070	-0.463844	0.156677
H155	H	1.388403	-0.130511	0.490010
H156	H	1.721736	0.202822	0.823344
F157	F	1.058237	-0.295663	0.178265
F158	F	1.391570	0.037671	0.511598
F159	F	1.724903	0.371004	0.844931
F160	F	0.338463	-0.045716	0.000150
F161	F	0.671796	0.287617	0.333484
F162	F	1.005129	0.620951	0.666817
H163	H	0.596440	0.253267	0.000093
H164	H	0.929773	0.586600	0.333426
H165	H	1.263106	0.919934	0.666759
H166	H	1.166939	0.012423	0.256018
H167	H	1.500273	0.345757	0.589352
H168	H	1.833606	0.679090	0.922685
H169	H	0.516716	-0.023609	0.000115
H170	H	0.850049	0.309725	0.333448
H171	H	1.183382	0.643058	0.666782
H172	H	1.166946	0.012424	0.436809
H173	H	1.500280	0.345758	0.770142
H174	H	1.833613	0.679091	1.103475
F175	F	1.182180	-0.001679	0.550921
F176	F	1.515513	0.331654	0.884255
F177	F	1.848846	0.664987	1.217588
H178	H	1.166984	0.012434	0.744185
H179	H	1.500317	0.345768	1.077518
H180	H	1.833651	0.679101	1.410852
H181	H	0.946195	0.217228	0.563395
H182	H	1.279528	0.550561	0.896728
H183	H	1.612861	0.883894	1.230062
H184	H	0.946185	0.217217	0.436823
H185	H	1.279519	0.550550	0.770156
H186	H	1.612852	0.883883	1.103490
H187	H	0.477937	0.251189	0.000092
H188	H	0.811270	0.584522	0.333425
H189	H	1.144603	0.917855	0.666758
H190	H	0.804469	-0.018551	0.000092
H191	H	1.137803	0.314782	0.333425
H192	H	1.471136	0.648115	0.666758
F193	F	0.294345	0.266947	0.000115
F194	F	0.627678	0.600281	0.333449
F195	F	0.961011	0.933614	0.666782
F196	F	1.058283	-0.295656	-0.178060
F197	F	1.391616	0.037677	0.155273
F198	F	1.724950	0.371010	0.488606
F199	F	0.626217	-0.040661	0.000113
F200	F	0.959551	0.292672	0.333447
F201	F	1.292884	0.626005	0.666780
F202	F	0.931009	0.231347	0.756649
F203	F	1.264342	0.564681	1.089982
F204	F	1.597675	0.898014	1.423316
