data_functionalizedCrystal
_audit_creation_method	'MofGen! by Chris Wilmer'
_symmetry_space_group_name_H-M	'P1'
_symmetry_Int_Tables_number	1
_symmetry_cell_setting	triclinic
loop_
_symmetry_equiv_pos_as_xyz
  x,y,z
_cell_length_a	15.944545
_cell_length_b	16.974813
_cell_length_c	16.053802
_cell_angle_alpha	83.778934
_cell_angle_beta	87.418915
_cell_angle_gamma	96.554213
loop_
_atom_site_label
_atom_site_type_symbol
_atom_site_fract_x
_atom_site_fract_y
_atom_site_fract_z
O1	O	1.110487	-0.105623	0.076511
O2	O	1.443820	0.227710	0.409844
O3	O	1.777153	0.561044	0.743177
O4	O	0.865877	-0.118242	0.077377
O5	O	1.199210	0.215091	0.410710
O6	O	1.532543	0.548424	0.744043
O7	O	0.995399	0.003545	0.069137
O8	O	1.328732	0.336878	0.402471
O9	O	1.662066	0.670212	0.735804
O10	O	0.980964	-0.227410	0.084750
O11	O	1.314297	0.105923	0.418084
O12	O	1.647631	0.439256	0.751417
O13	O	1.002520	0.010228	-0.070174
O14	O	1.335854	0.343561	0.263159
O15	O	1.669187	0.676895	0.596493
O16	O	0.872998	-0.111559	-0.061934
O17	O	1.206331	0.221774	0.271399
O18	O	1.539665	0.555107	0.604732
O19	O	1.117608	-0.098940	-0.062800
O20	O	1.450941	0.234394	0.270533
O21	O	1.784275	0.567727	0.603866
Zn22	Zn	0.996434	-0.104188	-0.084486
Zn23	Zn	1.329767	0.229145	0.248847
Zn24	Zn	1.663100	0.562478	0.582181
Zn25	Zn	0.987051	-0.112994	0.099062
Zn26	Zn	1.320384	0.220340	0.432396
Zn27	Zn	1.653718	0.553673	0.765729
O28	O	0.988085	-0.220727	-0.054561
O29	O	1.321419	0.112606	0.278773
O30	O	1.654752	0.445940	0.612106
C31	C	0.838146	-0.114378	0.007688
C32	C	1.171479	0.218955	0.341021
C33	C	1.504812	0.552289	0.674354
C34	C	0.744906	-0.112810	0.007587
C35	C	1.078240	0.220523	0.340920
C36	C	1.411573	0.553856	0.674253
C37	C	0.474648	-0.032636	0.002158
C38	C	0.807982	0.300698	0.335491
C39	C	1.141315	0.634031	0.668825
C40	C	0.528561	-0.067994	-0.063919
C41	C	0.861894	0.265339	0.269415
C42	C	1.195228	0.598673	0.602748
C43	C	0.409289	-0.107218	0.007194
C44	C	0.742623	0.226115	0.340528
C45	C	1.075956	0.559449	0.673861
C46	C	0.521520	-0.074603	0.073432
C47	C	0.854854	0.258730	0.406766
C48	C	1.188187	0.592064	0.740099
C49	C	0.574190	-0.109962	0.007388
C50	C	0.907523	0.223372	0.340722
C51	C	1.240856	0.556705	0.674055
C52	C	0.461976	-0.142554	-0.058940
C53	C	0.795310	0.190780	0.274393
C54	C	1.128643	0.524113	0.607726
C55	C	0.454929	-0.149155	0.078472
C56	C	0.788263	0.184178	0.411805
C57	C	1.121596	0.517512	0.745139
C58	C	0.508810	-0.184567	0.012382
C59	C	0.842143	0.148766	0.345716
C60	C	1.175476	0.482099	0.679049
C61	C	0.314295	-0.105635	0.007082
C62	C	0.647628	0.227698	0.340415
C63	C	0.980962	0.561031	0.673748
C64	C	0.669182	-0.111550	0.007495
C65	C	1.002515	0.221783	0.340829
C66	C	1.335848	0.555117	0.674162
C67	C	0.998543	0.036441	-0.002514
C68	C	1.331876	0.369774	0.330819
C69	C	1.665210	0.703107	0.664152
C70	C	0.997292	0.124503	-0.008462
C71	C	1.330625	0.457836	0.324871
C72	C	1.663959	0.791169	0.658205
C73	C	1.145339	-0.102804	0.006891
C74	C	1.478672	0.230529	0.340224
C75	C	1.812005	0.563862	0.673557
C76	C	1.238578	-0.104372	0.006997
C77	C	1.571911	0.228961	0.340330
C78	C	1.905244	0.562294	0.673664
C79	C	0.984941	-0.253623	0.017093
C80	C	1.318275	0.079710	0.350426
C81	C	1.651608	0.413044	0.683759
C82	C	0.986192	-0.341685	0.023046
C83	C	1.319526	-0.008352	0.356379
C84	C	1.652859	0.324981	0.689712
C85	C	0.992824	0.162227	0.064682
C86	C	1.326157	0.495560	0.398015
C87	C	1.659491	0.828894	0.731348
C88	C	0.991643	0.244970	0.059091
C89	C	1.324976	0.578303	0.392424
C90	C	1.658310	0.911637	0.725757
C91	C	0.994936	0.289988	-0.019645
C92	C	1.328269	0.623322	0.313689
C93	C	1.661603	0.956655	0.647022
C94	C	0.999402	0.252258	-0.092794
C95	C	1.332735	0.585592	0.240539
C96	C	1.666068	0.918925	0.573873
C97	C	1.000576	0.169516	-0.087202
C98	C	1.333910	0.502849	0.246131
C99	C	1.667243	0.836183	0.579465
C100	C	0.991833	0.537842	-0.044512
C101	C	1.325166	0.871176	0.288822
C102	C	1.658499	1.204509	0.622155
C103	C	0.990660	0.620590	-0.050098
C104	C	1.323993	0.953924	0.283235
C105	C	1.657327	1.287257	0.616569
C106	C	0.982900	0.613296	0.101788
C107	C	1.316233	0.946630	0.435121
C108	C	1.649567	1.279963	0.768454
C109	C	0.984080	0.530553	0.107372
C110	C	1.317414	0.863887	0.440706
C111	C	1.650747	1.197220	0.774039
C112	C	0.988541	0.492830	0.034223
C113	C	1.321875	0.826163	0.367557
C114	C	1.655208	1.159497	0.700890
N115	N	0.993732	0.374566	-0.025362
N116	N	1.327065	0.707899	0.307972
N117	N	1.660398	1.041232	0.641305
N118	N	0.989740	0.408253	0.039941
N119	N	1.323073	0.741587	0.373274
N120	N	1.656406	1.074920	0.706608
N121	N	0.980648	-0.118998	0.224329
N122	N	1.313981	0.214336	0.557662
N123	N	1.647315	0.547669	0.890996
N124	N	1.002843	-0.098178	-0.209753
N125	N	1.336176	0.235155	0.123580
N126	N	1.669510	0.568488	0.456914
C127	C	1.035865	-0.067276	0.264524
C128	C	1.369198	0.266057	0.597857
C129	C	1.702531	0.599391	0.931190
C130	C	1.031384	-0.071474	0.352214
C131	C	1.364717	0.261859	0.685548
C132	C	1.698051	0.595193	1.018881
C133	C	0.971682	-0.127390	0.399709
C134	C	1.305015	0.205943	0.733042
C135	C	1.638348	0.539276	1.066375
C136	C	0.916463	-0.179117	0.359508
C137	C	1.249796	0.154216	0.692842
C138	C	1.583129	0.487549	1.026175
C139	C	0.920948	-0.174923	0.271819
C140	C	1.254281	0.158411	0.605153
C141	C	1.587615	0.491744	0.938486
C142	C	0.952109	-0.145711	0.662358
C143	C	1.285443	0.187623	0.995691
C144	C	1.618776	0.520956	1.329024
C145	C	0.947626	-0.149900	0.750052
C146	C	1.280960	0.183433	1.083386
C147	C	1.614293	0.516767	1.416719
C148	C	1.062549	-0.042257	0.742753
C149	C	1.395883	0.291076	1.076086
C150	C	1.729216	0.624410	1.409419
C151	C	1.067026	-0.038064	0.655062
C152	C	1.400359	0.295269	0.988395
C153	C	1.733693	0.628603	1.321729
C154	C	1.011810	-0.089794	0.614869
C155	C	1.345143	0.243540	0.948203
C156	C	1.678477	0.576873	1.281536
N157	N	0.967099	-0.131681	0.489343
N158	N	1.300432	0.201652	0.822676
N159	N	1.633765	0.534986	1.156009
N160	N	1.016398	-0.085506	0.525237
N161	N	1.349731	0.247827	0.858571
N162	N	1.683064	0.581160	1.191904
H163	H	0.560607	-0.033710	-0.124120
H164	H	0.893941	0.299624	0.209214
H165	H	1.227274	0.632957	0.542547
H166	H	0.981400	0.493905	0.171487
H167	H	1.314733	0.827238	0.504820
H168	H	1.648067	1.160572	0.838154
H169	H	1.004203	0.138801	-0.146764
H170	H	1.337536	0.472134	0.186570
H171	H	1.670869	0.805467	0.519903
H172	H	0.899006	-0.195436	0.788719
H173	H	1.232340	0.137897	1.122052
H174	H	1.565673	0.471231	1.455386
H175	H	1.002078	0.288918	-0.156902
H176	H	1.335411	0.622251	0.176431
H177	H	1.668744	0.955585	0.509765
H178	H	0.524003	-0.248846	0.016688
H179	H	0.857337	0.084487	0.350021
H180	H	1.190670	0.417820	0.683354
H181	H	0.422867	-0.183412	0.138673
H182	H	0.756201	0.149922	0.472006
H183	H	1.089534	0.483255	0.805340
H184	H	0.435992	-0.171240	-0.114946
H185	H	0.769325	0.162094	0.218387
H186	H	1.102658	0.495427	0.551720
H187	H	0.990147	0.125579	0.128797
H188	H	1.323481	0.458913	0.462130
H189	H	1.656814	0.792246	0.795463
H190	H	0.867855	-0.224650	0.398183
H191	H	1.201188	0.108684	0.731517
H192	H	1.534521	0.442017	1.064850
H193	H	0.979266	0.644020	0.161341
H194	H	1.312600	0.977353	0.494675
H195	H	1.645933	1.310686	0.828008
H196	H	0.459299	0.031599	-0.002251
H197	H	0.792632	0.364932	0.331082
H198	H	1.125965	0.698266	0.664416
H199	H	0.547617	-0.045878	0.129370
H200	H	0.880950	0.287455	0.462704
H201	H	1.214283	0.620789	0.796037
H202	H	0.995482	0.507140	-0.104075
H203	H	1.328815	0.840473	0.229258
H204	H	1.662149	1.173807	0.562592
H205	H	1.115640	0.007468	0.616394
H206	H	1.448974	0.340801	0.949727
H207	H	1.782307	0.674134	1.283060
H208	H	0.988009	0.275682	0.118652
H209	H	1.321342	0.609015	0.451986
H210	H	1.654675	0.942348	0.785319
H211	H	0.993337	0.657242	-0.114217
H212	H	1.326671	0.990575	0.219116
H213	H	1.660004	1.323909	0.552450
H214	H	1.084477	-0.021740	0.225859
H215	H	1.417810	0.311594	0.559192
H216	H	1.751144	0.644927	0.892526
H217	H	1.076346	-0.029359	0.384940
H218	H	1.409680	0.303975	0.718274
H219	H	1.743013	0.637308	1.051607
H220	H	0.875986	-0.217041	0.239094
H221	H	1.209319	0.116293	0.572427
H222	H	1.542652	0.449626	0.905761
H223	H	1.107505	-0.000142	0.775486
H224	H	1.440838	0.333192	1.108819
H225	H	1.774171	0.666525	1.442152
H226	H	0.907149	-0.187830	0.629640
H227	H	1.240482	0.145504	0.962973
H228	H	1.573815	0.478837	1.296306
