data_functionalizedCrystal
_audit_creation_method	'MofGen! by Chris Wilmer'
_symmetry_space_group_name_H-M	'P1'
_symmetry_Int_Tables_number	1
_symmetry_cell_setting	triclinic
loop_
_symmetry_equiv_pos_as_xyz
  x,y,z
_cell_length_a	10.723023
_cell_length_b	11.792241
_cell_length_c	9.798715
_cell_angle_alpha	90.003545
_cell_angle_beta	90.003564
_cell_angle_gamma	84.330482
loop_
_atom_site_label
_atom_site_type_symbol
_atom_site_fract_x
_atom_site_fract_y
_atom_site_fract_z
O1	O	1.656767	0.159188	0.113488
O2	O	1.293574	0.174427	0.113491
O3	O	1.483984	0.001656	0.113480
O4	O	1.466357	0.331959	0.113499
O5	O	1.483970	0.001655	-0.113502
O6	O	1.293560	0.174426	-0.113491
O7	O	1.656752	0.159187	-0.113494
Zn8	Zn	1.475154	0.166806	-0.149531
Zn9	Zn	1.475172	0.166808	0.149528
O10	O	1.466342	0.331958	-0.113483
C11	C	1.247070	0.173318	0.000001
C12	C	1.108525	0.170000	0.000002
C13	C	0.903562	0.165092	-0.117577
C14	C	1.046756	0.168521	-0.117581
C15	C	1.482870	-0.040638	-0.000011
C16	C	1.479555	-0.166658	-0.000009
C17	C	1.473461	-0.397384	0.000014
C18	C	1.476847	-0.268991	0.000001
C19	C	1.703256	0.160296	-0.000001
C20	C	1.841802	0.163614	0.000007
C21	C	1.467457	0.374252	0.000011
C22	C	1.470771	0.500273	0.000018
N23	N	1.475150	0.166804	-0.353631
C24	C	1.547741	0.232620	-0.421405
C25	C	1.547761	0.232619	-0.578568
N26	N	1.475186	0.166801	0.353628
H27	H	1.055420	0.168726	0.100675
C28	C	0.975014	0.264525	0.143359
C29	C	0.913523	0.165333	0.135908
H30	H	1.019295	0.265580	0.227258
H31	H	0.915155	0.329368	0.138301
H32	H	1.032311	0.265885	0.069579
H33	H	0.856219	0.163976	0.209683
H34	H	0.973388	0.100472	0.140980
H35	H	1.609879	0.288963	-0.363077
H36	H	1.609902	0.288972	-0.636852
H37	H	0.850426	0.163826	-0.218242
H38	H	1.413021	0.110454	-0.411958
H39	H	1.413029	0.110456	-0.588097
H40	H	1.099869	0.169787	-0.218249
