data_functionalizedCrystal
_audit_creation_method	'MofGen! by Chris Wilmer'
_symmetry_space_group_name_H-M	'P1'
_symmetry_Int_Tables_number	1
_symmetry_cell_setting	triclinic
loop_
_symmetry_equiv_pos_as_xyz
  x,y,z
_cell_length_a	17.019282
_cell_length_b	23.532407
_cell_length_c	15.500227
_cell_angle_alpha	92.805592
_cell_angle_beta	91.034464
_cell_angle_gamma	83.119776
loop_
_atom_site_label
_atom_site_type_symbol
_atom_site_fract_x
_atom_site_fract_y
_atom_site_fract_z
O1	O	1.045805	0.072736	0.005989
O2	O	1.379139	0.406069	0.339322
O3	O	1.712472	0.739402	0.672656
O4	O	0.816942	0.081369	-0.011071
O5	O	1.150276	0.414702	0.322263
O6	O	1.483609	0.748036	0.655596
O7	O	0.938274	-0.005838	-0.002011
O8	O	1.271608	0.327496	0.331323
O9	O	1.604941	0.660829	0.664656
O10	O	0.924473	0.159942	-0.003071
O11	O	1.257807	0.493275	0.330262
O12	O	1.591140	0.826609	0.663596
O13	O	0.930912	-0.000566	0.141328
O14	O	1.264245	0.332767	0.474662
O15	O	1.597579	0.666100	0.807995
O16	O	0.809580	0.086640	0.132268
O17	O	1.142913	0.419973	0.465602
O18	O	1.476247	0.753307	0.798935
O19	O	1.038443	0.078007	0.149328
O20	O	1.371776	0.411340	0.482661
O21	O	1.705109	0.744673	0.815995
Cu22	Cu	0.923339	0.082805	0.153886
Cu23	Cu	1.256672	0.416138	0.487219
Cu24	Cu	1.590006	0.749471	0.820553
Cu25	Cu	0.932046	0.076571	-0.015629
Cu26	Cu	1.265380	0.409904	0.317705
Cu27	Cu	1.598713	0.743238	0.651038
O28	O	0.917111	0.165213	0.140268
O29	O	1.250444	0.498546	0.473601
O30	O	1.583777	0.831880	0.806935
C31	C	0.783987	0.083574	0.058417
C32	C	1.117320	0.416908	0.391750
C33	C	1.450653	0.750241	0.725084
C34	C	0.696758	0.082286	0.051916
C35	C	1.030091	0.415620	0.385249
C36	C	1.363425	0.748953	0.718582
C37	C	0.651769	0.084553	0.126997
C38	C	0.985102	0.417887	0.460331
C39	C	1.318436	0.751220	0.793664
C40	C	0.569810	0.083334	0.120891
C41	C	0.903143	0.416667	0.454224
C42	C	1.236477	0.750001	0.787558
C43	C	0.532841	0.079852	0.039702
C44	C	0.866174	0.413185	0.373036
C45	C	1.199507	0.746519	0.706369
C46	C	0.577836	0.077583	-0.035385
C47	C	0.911169	0.410917	0.297948
C48	C	1.244503	0.744250	0.631282
C49	C	0.659794	0.078798	-0.029278
C50	C	0.993128	0.412132	0.304055
C51	C	1.326461	0.745465	0.637389
C52	C	0.285581	0.076035	0.017354
C53	C	0.618914	0.409369	0.350687
C54	C	0.952248	0.742702	0.684021
C55	C	0.203617	0.074822	0.011252
C56	C	0.536950	0.408155	0.344586
C57	C	0.870283	0.741489	0.677919
C58	C	0.195597	0.080572	0.167529
C59	C	0.528930	0.413905	0.500863
C60	C	0.862263	0.747238	0.834196
C61	C	0.277556	0.081790	0.173629
C62	C	0.610889	0.415123	0.506963
C63	C	0.944223	0.748457	0.840296
C64	C	0.322545	0.079518	0.098542
C65	C	0.655878	0.412852	0.431875
C66	C	0.989211	0.746185	0.765209
C67	C	0.449065	0.078607	0.033459
C68	C	0.782399	0.411941	0.366792
C69	C	1.115732	0.745274	0.700125
C70	C	0.406319	0.080759	0.104786
C71	C	0.739653	0.414092	0.438120
C72	C	1.072986	0.747426	0.771453
C73	C	0.934242	-0.024420	0.069635
C74	C	1.267575	0.308913	0.402968
C75	C	1.600908	0.642247	0.736302
C76	C	0.933185	-0.087643	0.069563
C77	C	1.266518	0.245690	0.402896
C78	C	1.599851	0.579023	0.736229
C79	C	0.998361	-0.486358	0.074374
C80	C	1.331694	-0.153025	0.407707
C81	C	1.665028	0.180309	0.741040
C82	C	0.997380	-0.545764	0.074294
C83	C	1.330713	-0.212431	0.407627
C84	C	1.664046	0.120902	0.740961
O85	O	1.057798	-0.582148	0.078766
O86	O	1.391132	-0.248815	0.412099
O87	O	1.724465	0.084518	0.745432
N88	N	0.925247	-0.568822	0.068918
N89	N	1.258581	-0.235489	0.402251
N90	N	1.591914	0.097845	0.735584
C91	C	0.854092	-0.532471	0.063612
C92	C	1.187425	-0.199137	0.396946
C93	C	1.520759	0.134196	0.730279
O94	O	0.792648	-0.557538	0.059031
O95	O	1.125981	-0.224205	0.392365
O96	O	1.459314	0.109129	0.725698
C97	C	0.855075	-0.473066	0.063686
C98	C	1.188408	-0.139732	0.397019
C99	C	1.521741	0.193601	0.730352
C100	C	0.927211	-0.450011	0.069071
C101	C	1.260544	-0.116677	0.402404
C102	C	1.593878	0.216656	0.735738
C103	C	1.070492	-0.463303	0.079757
C104	C	1.403825	-0.129969	0.413091
C105	C	1.737158	0.203364	0.746424
C106	C	1.071473	-0.403900	0.079839
C107	C	1.404806	-0.070567	0.413172
C108	C	1.738139	0.262766	0.746505
C109	C	1.000323	-0.367553	0.074536
C110	C	1.333656	-0.034220	0.407870
C111	C	1.666989	0.299113	0.741203
C112	C	0.928192	-0.390608	0.069152
C113	C	1.261525	-0.057275	0.402486
C114	C	1.594859	0.276058	0.735819
C115	C	0.783921	-0.436715	0.058374
C116	C	1.117254	-0.103382	0.391707
C117	C	1.450587	0.229951	0.725041
C118	C	0.784909	-0.377307	0.058448
C119	C	1.118243	-0.043974	0.391781
C120	C	1.451576	0.289360	0.725114
C121	C	0.857046	-0.354252	0.063833
C122	C	1.190379	-0.020919	0.397166
C123	C	1.523713	0.312414	0.730500
C124	C	0.858023	-0.294859	0.063931
C125	C	1.191356	0.038474	0.397264
C126	C	1.524690	0.371808	0.730598
N127	N	0.930155	-0.271801	0.069307
N128	N	1.263489	0.061532	0.402641
N129	N	1.596822	0.394865	0.735974
C130	C	1.001305	-0.308148	0.074610
C131	C	1.334639	0.025185	0.407943
C132	C	1.667972	0.358518	0.741276
C133	C	0.852034	-0.657226	0.063457
C134	C	1.185368	-0.323892	0.396790
C135	C	1.518701	0.009441	0.730123
C136	C	0.851051	-0.716629	0.063389
C137	C	1.184384	-0.383296	0.396722
C138	C	1.517717	-0.049962	0.730056
C139	C	0.994339	-0.729919	0.074069
C140	C	1.327672	-0.396585	0.407402
C141	C	1.661005	-0.063252	0.740736
C142	C	0.995321	-0.670514	0.074143
C143	C	1.328654	-0.337180	0.407476
C144	C	1.661988	-0.003847	0.740809
C145	C	0.924167	-0.634168	0.068833
C146	C	1.257500	-0.300834	0.402166
C147	C	1.590833	0.032499	0.735499
C148	C	1.003360	-0.183398	0.074781
C149	C	1.336693	0.149935	0.408114
C150	C	1.670027	0.483268	0.741448
C151	C	1.004334	-0.123990	0.074865
C152	C	1.337668	0.209343	0.408199
C153	C	1.671001	0.542676	0.741532
C154	C	0.861047	-0.110706	0.064181
C155	C	1.194380	0.222627	0.397514
C156	C	1.527714	0.555961	0.730847
C157	C	0.860072	-0.170109	0.064101
C158	C	1.193405	0.163224	0.397434
C159	C	1.526739	0.496558	0.730767
C160	C	0.931235	-0.206454	0.069398
C161	C	1.264568	0.126879	0.402732
C162	C	1.597902	0.460212	0.736065
O163	O	0.797636	-0.258440	0.059458
O164	O	1.130970	0.074893	0.392792
O165	O	1.464303	0.408226	0.726125
O166	O	1.062740	-0.283073	0.079179
O167	O	1.396073	0.050260	0.412512
O168	O	1.729407	0.383594	0.745845
C169	C	1.071399	0.075801	0.079838
C170	C	1.404732	0.409134	0.413172
C171	C	1.738065	0.742468	0.746505
C172	C	1.158628	0.077089	0.086334
C173	C	1.491961	0.410422	0.419668
C174	C	1.825294	0.743756	0.753001
C175	C	0.921144	0.183796	0.068621
C176	C	1.254477	0.517129	0.401954
C177	C	1.587810	0.850462	0.735287
C178	C	0.922201	0.247018	0.068687
C179	C	1.255534	0.580352	0.402020
C180	C	1.588868	0.913685	0.735354
N181	N	0.917221	0.087189	0.273114
N182	N	1.250554	0.420522	0.606448
N183	N	1.583887	0.753855	0.939781
N184	N	0.938171	0.072182	-0.134856
N185	N	1.271504	0.405516	0.198477
N186	N	1.604837	0.738849	0.531810
C187	C	0.968651	0.050250	0.322231
C188	C	1.301984	0.383583	0.655564
C189	C	1.635318	0.716917	0.988898
C190	C	0.964031	0.053571	0.412459
C191	C	1.297364	0.386904	0.745792
C192	C	1.630698	0.720238	1.079126
C193	C	0.907984	0.093834	0.453568
C194	C	1.241317	0.427167	0.786902
C195	C	1.574650	0.760500	1.120235
C196	C	0.856548	0.130774	0.404445
C197	C	1.189881	0.464107	0.737778
C198	C	1.523215	0.797441	1.071111
C199	C	0.861165	0.127450	0.314218
C200	C	1.194498	0.460783	0.647552
C201	C	1.527832	0.794117	0.980885
C202	C	0.891352	0.105799	0.725793
C203	C	1.224685	0.439132	1.059127
C204	C	1.558019	0.772465	1.392460
C205	C	0.886741	0.109121	0.816027
C206	C	1.220074	0.442454	1.149360
C207	C	1.553407	0.775788	1.482693
C208	C	0.994223	0.031917	0.824035
C209	C	1.327556	0.365250	1.157368
C210	C	1.660890	0.698584	1.490701
C211	C	0.998838	0.028599	0.733806
C212	C	1.332171	0.361932	1.067140
C213	C	1.665505	0.695265	1.400473
C214	C	0.947400	0.065537	0.684690
C215	C	1.280733	0.398870	1.018024
C216	C	1.614066	0.732204	1.351357
C217	C	0.903262	0.097230	0.545796
C218	C	1.236595	0.430564	0.879129
C219	C	1.569928	0.763897	1.212463
C220	C	0.952118	0.062137	0.592464
C221	C	1.285452	0.395471	0.925798
C222	C	1.618785	0.728804	1.259131
H223	H	0.158958	0.082420	0.228661
H224	H	0.492292	0.415754	0.561994
H225	H	0.825625	0.749087	0.895328
H226	H	0.792309	-0.735394	0.059019
H227	H	1.125642	-0.402061	0.392352
H228	H	1.458976	-0.068727	0.725685
Br229	Br	0.821546	0.155929	0.659141
Br230	Br	1.154880	0.489262	0.992474
Br231	Br	1.488213	0.822595	1.325808
Br232	Br	0.508754	0.086420	0.222793
Br233	Br	0.842088	0.419753	0.556126
Br234	Br	1.175421	0.753087	0.889459
Br235	Br	0.762171	-0.201398	0.056812
Br236	Br	1.095504	0.131935	0.390145
Br237	Br	1.428838	0.465269	0.723479
Br238	Br	1.044725	-0.004391	0.266450
Br239	Br	1.378058	0.328942	0.599783
Br240	Br	1.711391	0.662276	0.933117
H241	H	0.841098	0.141910	0.849493
H242	H	1.174431	0.475244	1.182827
H243	H	1.507765	0.808577	1.516160
Br244	Br	1.099939	-0.232715	0.081970
Br245	Br	1.433272	0.100618	0.415303
Br246	Br	1.766606	0.433951	0.748636
Br247	Br	1.074905	-0.026042	0.678014
Br248	Br	1.408239	0.307292	1.011347
Br249	Br	1.741572	0.640625	1.344680
H250	H	0.819284	0.157529	0.274228
H251	H	1.152617	0.490862	0.607561
H252	H	1.485951	0.824195	0.940894
H253	H	0.810909	0.163555	0.437921
H254	H	1.144243	0.496888	0.771254
H255	H	1.477576	0.830222	1.104588
H256	H	0.681862	0.087393	0.193110
H257	H	1.015196	0.420727	0.526443
H258	H	1.348529	0.754060	0.859777
H259	H	0.794088	-0.627635	0.059140
H260	H	1.127421	-0.294301	0.392473
H261	H	1.460754	0.039032	0.725806
H262	H	1.036101	0.001843	0.864033
H263	H	1.369434	0.335176	1.197366
H264	H	1.702767	0.668510	1.530700
Br265	Br	0.398892	0.073852	-0.076723
Br266	Br	0.732225	0.407185	0.256610
Br267	Br	1.065558	0.740518	0.589944
Br268	Br	1.090900	-0.779258	0.081262
Br269	Br	1.424234	-0.445925	0.414595
Br270	Br	1.757567	-0.112592	0.747929
H271	H	0.997749	0.029353	0.558990
H272	H	1.331083	0.362687	0.892324
H273	H	1.664416	0.696020	1.225657
H274	H	0.307651	0.084623	0.239742
H275	H	0.640984	0.417956	0.573075
H276	H	0.974318	0.751290	0.906408
H277	H	0.857628	0.130014	0.579275
H278	H	1.190962	0.463347	0.912608
H279	H	1.524295	0.796681	1.245941
H280	H	0.696423	0.076954	-0.090418
H281	H	1.029757	0.410287	0.242916
H282	H	1.363090	0.743620	0.576249
H283	H	0.726965	-0.347716	0.054122
H284	H	1.060299	-0.014383	0.387455
H285	H	1.393632	0.318951	0.720789
H286	H	1.005909	0.023492	0.452450
H287	H	1.339242	0.356825	0.785783
H288	H	1.672576	0.690159	1.119117
Br289	Br	0.153443	0.070100	-0.098940
Br290	Br	0.486777	0.403434	0.234394
Br291	Br	0.820110	0.736767	0.567727
H292	H	0.436424	0.083591	0.170890
H293	H	0.769757	0.416924	0.504223
H294	H	1.103091	0.750258	0.837557
Br295	Br	0.764491	-0.061367	0.056985
Br296	Br	1.097825	0.271966	0.390318
Br297	Br	1.431158	0.605300	0.723652
Br298	Br	0.527669	0.072833	-0.145571
Br299	Br	0.861002	0.406166	0.187762
Br300	Br	1.194336	0.739499	0.521096
Br301	Br	1.102240	-0.092706	0.082175
Br302	Br	1.435574	0.240628	0.415509
Br303	Br	1.768907	0.573961	0.748842
Br304	Br	1.167066	-0.512621	0.086954
Br305	Br	1.500399	-0.179287	0.420287
Br306	Br	1.833733	0.154046	0.753621
Br307	Br	1.169379	-0.372622	0.087123
Br308	Br	1.502712	-0.039289	0.420457
Br309	Br	1.836045	0.294044	0.753790
Br310	Br	1.093224	-0.639232	0.081453
Br311	Br	1.426557	-0.305898	0.414787
Br312	Br	1.759890	0.027435	0.748120
H313	H	0.725180	-0.455476	0.053984
H314	H	1.058513	-0.122143	0.387317
H315	H	1.391846	0.211191	0.720650
H316	H	0.322202	0.074184	-0.043788
H317	H	0.655535	0.407517	0.289546
H318	H	0.988868	0.740850	0.622879
