data_functionalizedCrystal
_audit_creation_method	'MofGen! by Chris Wilmer'
_symmetry_space_group_name_H-M	'P1'
_symmetry_Int_Tables_number	1
_symmetry_cell_setting	triclinic
loop_
_symmetry_equiv_pos_as_xyz
  x,y,z
_cell_length_a	16.109301
_cell_length_b	27.732048
_cell_length_c	14.586319
_cell_angle_alpha	89.991275
_cell_angle_beta	89.999213
_cell_angle_gamma	83.052068
loop_
_atom_site_label
_atom_site_type_symbol
_atom_site_fract_x
_atom_site_fract_y
_atom_site_fract_z
O1	O	1.102362	0.062130	-0.076193
O2	O	1.352362	0.312130	0.173807
O3	O	1.602362	0.562130	0.423807
O4	O	1.852362	0.812130	0.673807
O5	O	0.860204	0.069862	-0.076208
O6	O	1.110204	0.319862	0.173792
O7	O	1.360204	0.569862	0.423792
O8	O	1.610204	0.819862	0.673792
O9	O	0.988804	-0.004369	-0.076183
O10	O	1.238804	0.245631	0.173817
O11	O	1.488804	0.495631	0.423817
O12	O	1.738804	0.745631	0.673817
O13	O	0.973762	0.136361	-0.076218
O14	O	1.223762	0.386361	0.173782
O15	O	1.473762	0.636361	0.423782
O16	O	1.723762	0.886361	0.673782
O17	O	0.988795	-0.004370	0.076298
O18	O	1.238795	0.245630	0.326298
O19	O	1.488795	0.495630	0.576298
O20	O	1.738795	0.745630	0.826298
O21	O	0.860195	0.069861	0.076272
O22	O	1.110195	0.319861	0.326272
O23	O	1.360195	0.569861	0.576272
O24	O	1.610195	0.819861	0.826272
O25	O	1.102353	0.062129	0.076288
O26	O	1.352353	0.312129	0.326288
O27	O	1.602353	0.562129	0.576288
O28	O	1.852353	0.812129	0.826288
Cu29	Cu	0.981273	0.065995	0.090203
Cu30	Cu	1.231273	0.315995	0.340203
Cu31	Cu	1.481273	0.565995	0.590203
Cu32	Cu	1.731273	0.815995	0.840203
Cu33	Cu	0.981283	0.065996	-0.090123
Cu34	Cu	1.231283	0.315996	0.159877
Cu35	Cu	1.481283	0.565996	0.409877
Cu36	Cu	1.731283	0.815996	0.659877
O37	O	0.973753	0.136360	0.076262
O38	O	1.223753	0.386360	0.326262
O39	O	1.473753	0.636360	0.576262
O40	O	1.723753	0.886360	0.826262
C41	C	0.829228	0.069548	0.000030
C42	C	1.079228	0.319548	0.250030
C43	C	1.329228	0.569548	0.500030
C44	C	1.579228	0.819548	0.750030
C45	C	0.736945	0.068609	0.000025
C46	C	0.986945	0.318609	0.250025
C47	C	1.236945	0.568609	0.500025
C48	C	1.486945	0.818609	0.750025
C49	C	0.514154	0.110473	0.000025
C50	C	0.764154	0.360473	0.250025
C51	C	1.014154	0.610473	0.500025
C52	C	1.264154	0.860473	0.750025
C53	C	0.427445	0.109587	0.000031
C54	C	0.677445	0.359587	0.250031
C55	C	0.927445	0.609587	0.500031
C56	C	1.177445	0.859587	0.750031
C57	C	0.448409	0.021514	0.000050
C58	C	0.698409	0.271514	0.250050
C59	C	0.948409	0.521514	0.500050
C60	C	1.198409	0.771514	0.750050
C61	C	0.535117	0.022401	0.000050
C62	C	0.785117	0.272401	0.250050
C63	C	1.035117	0.522401	0.500050
C64	C	1.285117	0.772401	0.750050
C65	C	0.567987	0.066882	0.000033
C66	C	0.817987	0.316882	0.250033
C67	C	1.067987	0.566882	0.500033
C68	C	1.317987	0.816882	0.750033
C69	C	0.394570	0.065109	0.000039
C70	C	0.644570	0.315109	0.250039
C71	C	0.894570	0.565109	0.500039
C72	C	1.144570	0.815109	0.750039
C73	C	0.300556	0.064148	0.000045
C74	C	0.550556	0.314148	0.250045
C75	C	0.800556	0.564148	0.500045
C76	C	1.050556	0.814148	0.750045
C77	C	0.662007	0.067843	0.000028
C78	C	0.912007	0.317843	0.250028
C79	C	1.162007	0.567843	0.500028
C80	C	1.412007	0.817843	0.750028
C81	C	0.988483	-0.022378	0.000060
C82	C	1.238483	0.227622	0.250060
C83	C	1.488483	0.477622	0.500060
C84	C	1.738483	0.727622	0.750060
C85	C	0.987533	-0.076037	0.000068
C86	C	1.237533	0.173963	0.250068
C87	C	1.487533	0.423963	0.500068
C88	C	1.737533	0.673963	0.750068
C89	C	1.057541	-0.414559	0.000025
C90	C	1.307541	-0.164559	0.250025
C91	C	1.557541	0.085441	0.500025
C92	C	1.807541	0.335441	0.750025
C93	C	1.054013	-0.616233	0.000012
C94	C	1.304013	-0.366233	0.250012
C95	C	1.554013	-0.116233	0.500012
C96	C	1.804013	0.133767	0.750012
O97	O	1.118031	-0.647221	-0.000024
O98	O	1.368031	-0.397221	0.249976
O99	O	1.618031	-0.147221	0.499976
O100	O	1.868031	0.102779	0.749976
N101	N	0.977759	-0.635676	0.000008
N102	N	1.227759	-0.385676	0.250008
N103	N	1.477759	-0.135676	0.500008
N104	N	1.727759	0.114324	0.750008
C105	C	0.902381	-0.604697	0.000001
C106	C	1.152381	-0.354697	0.250001
C107	C	1.402381	-0.104697	0.500001
C108	C	1.652381	0.145303	0.750001
O109	O	0.837441	-0.625862	-0.000012
O110	O	1.087441	-0.375862	0.249988
O111	O	1.337441	-0.125862	0.499988
O112	O	1.587441	0.124138	0.749988
C113	C	0.905910	-0.403024	0.000008
C114	C	1.155910	-0.153024	0.250008
C115	C	1.405910	0.096976	0.500008
C116	C	1.655910	0.346976	0.750008
C117	C	0.982169	-0.383584	0.000021
C118	C	1.232169	-0.133584	0.250021
C119	C	1.482169	0.116416	0.500021
C120	C	1.732169	0.366416	0.750021
C121	C	1.133794	-0.395119	0.000038
C122	C	1.383794	-0.145119	0.250038
C123	C	1.633794	0.104881	0.500038
C124	C	1.883794	0.354881	0.750038
C125	C	1.134675	-0.344703	0.000046
C126	C	1.384675	-0.094703	0.250046
C127	C	1.634675	0.155297	0.500046
C128	C	1.884675	0.405297	0.750046
C129	C	1.059303	-0.313728	0.000042
C130	C	1.309303	-0.063728	0.250042
C131	C	1.559303	0.186272	0.500042
C132	C	1.809303	0.436272	0.750042
C133	C	0.983050	-0.333168	0.000029
C134	C	1.233050	-0.083168	0.250029
C135	C	1.483050	0.166832	0.500029
C136	C	1.733050	0.416832	0.750029
C137	C	0.830533	-0.372045	-0.000006
C138	C	1.080533	-0.122045	0.249994
C139	C	1.330533	0.127955	0.499994
C140	C	1.580533	0.377955	0.749994
C141	C	0.831422	-0.321624	-0.000006
C142	C	1.081422	-0.071624	0.249994
C143	C	1.331422	0.178376	0.499994
C144	C	1.581422	0.428376	0.749994
C145	C	0.907681	-0.302184	0.000007
C146	C	1.157681	-0.052184	0.250007
C147	C	1.407681	0.197816	0.500007
C148	C	1.657681	0.447816	0.750007
C149	C	0.908559	-0.251777	0.000034
C150	C	1.158559	-0.001777	0.250034
C151	C	1.408559	0.248223	0.500034
C152	C	1.658559	0.498223	0.750034
N153	N	0.984814	-0.232334	0.000038
N154	N	1.234814	0.017666	0.250038
N155	N	1.484814	0.267666	0.500038
N156	N	1.734814	0.517666	0.750038
C157	C	1.060186	-0.263310	0.000042
C158	C	1.310186	-0.013310	0.250042
C159	C	1.560186	0.236690	0.500042
C160	C	1.810186	0.486690	0.750042
C161	C	0.900534	-0.710579	-0.000000
C162	C	1.150534	-0.460579	0.250000
C163	C	1.400534	-0.210579	0.500000
C164	C	1.650534	0.039421	0.750000
C165	C	0.899652	-0.760997	-0.000000
C166	C	1.149652	-0.510997	0.250000
C167	C	1.399652	-0.260997	0.500000
C168	C	1.649652	-0.010997	0.750000
C169	C	1.051284	-0.772530	0.000009
C170	C	1.301284	-0.522530	0.250009
C171	C	1.551284	-0.272530	0.500009
C172	C	1.801284	-0.022530	0.750009
C173	C	1.052166	-0.722111	0.000016
C174	C	1.302166	-0.472111	0.250016
C175	C	1.552166	-0.222111	0.500016
C176	C	1.802166	0.027889	0.750016
C177	C	0.976789	-0.691136	0.000004
C178	C	1.226789	-0.441136	0.250004
C179	C	1.476789	-0.191136	0.500004
C180	C	1.726789	0.058864	0.750004
C181	C	1.062030	-0.157433	0.000060
C182	C	1.312030	0.092567	0.250060
C183	C	1.562030	0.342567	0.500060
C184	C	1.812030	0.592567	0.750060
C185	C	1.062905	-0.107012	0.000072
C186	C	1.312905	0.142988	0.250072
C187	C	1.562905	0.392988	0.500072
C188	C	1.812905	0.642988	0.750072
C189	C	0.911273	-0.095484	0.000058
C190	C	1.161273	0.154516	0.250058
C191	C	1.411273	0.404516	0.500058
C192	C	1.661273	0.654516	0.750058
C193	C	0.910398	-0.145900	0.000051
C194	C	1.160398	0.104100	0.250051
C195	C	1.410398	0.354100	0.500051
C196	C	1.660398	0.604100	0.750051
C197	C	0.985783	-0.176874	0.000049
C198	C	1.235783	0.073126	0.250049
C199	C	1.485783	0.323126	0.500049
C200	C	1.735783	0.573126	0.750049
O201	O	0.844576	-0.220761	0.000059
O202	O	1.094576	0.029239	0.250059
O203	O	1.344576	0.279239	0.500059
O204	O	1.594576	0.529239	0.750059
O205	O	1.125116	-0.242135	0.000035
O206	O	1.375116	0.007865	0.250035
O207	O	1.625116	0.257865	0.500035
O208	O	1.875116	0.507865	0.750035
C209	C	1.056660	-0.464975	0.000017
C210	C	1.306660	-0.214975	0.250017
C211	C	1.556660	0.035025	0.500017
C212	C	1.806660	0.285025	0.750017
C213	C	0.980407	-0.484415	0.000005
C214	C	1.230407	-0.234415	0.250005
C215	C	1.480407	0.015585	0.500005
C216	C	1.730407	0.265585	0.750005
C217	C	0.905035	-0.453440	0.000001
C218	C	1.155035	-0.203440	0.250001
C219	C	1.405035	0.046560	0.500001
C220	C	1.655035	0.296560	0.750001
C221	C	0.979525	-0.534833	0.000005
C222	C	1.229525	-0.284833	0.250005
C223	C	1.479525	-0.034833	0.500005
C224	C	1.729525	0.215167	0.750005
C225	C	1.054897	-0.565808	0.000009
C226	C	1.304897	-0.315808	0.250009
C227	C	1.554897	-0.065808	0.500009
C228	C	1.804897	0.184192	0.750009
C229	C	1.131151	-0.546365	0.000013
C230	C	1.381151	-0.296365	0.250013
C231	C	1.631151	-0.046365	0.500013
C232	C	1.881151	0.203635	0.750013
C233	C	1.132032	-0.495950	0.000021
C234	C	1.382032	-0.245950	0.250021
C235	C	1.632032	0.004050	0.500021
C236	C	1.882032	0.254050	0.750021
C237	C	0.828781	-0.472883	-0.000004
C238	C	1.078781	-0.222883	0.249996
C239	C	1.328781	0.027117	0.499996
C240	C	1.578781	0.277117	0.749996
C241	C	0.827906	-0.523299	-0.000011
C242	C	1.077906	-0.273299	0.249989
C243	C	1.327906	-0.023299	0.499989
C244	C	1.577906	0.226701	0.749989
C245	C	0.903278	-0.554274	-0.000007
C246	C	1.153278	-0.304274	0.249993
C247	C	1.403278	-0.054274	0.499993
C248	C	1.653278	0.195726	0.749993
C249	C	1.133328	0.062443	0.000048
C250	C	1.383328	0.312443	0.250048
C251	C	1.633328	0.562443	0.500048
C252	C	1.883328	0.812443	0.750048
C253	C	1.225612	0.063382	0.000047
C254	C	1.475612	0.313382	0.250047
C255	C	1.725612	0.563382	0.500047
C256	C	1.975612	0.813382	0.750047
C257	C	0.974073	0.154369	0.000017
C258	C	1.224073	0.404369	0.250017
C259	C	1.474073	0.654369	0.500017
C260	C	1.724073	0.904369	0.750017
C261	C	0.975024	0.208028	0.000004
C262	C	1.225024	0.458028	0.250004
C263	C	1.475024	0.708028	0.500004
C264	C	1.725024	0.958028	0.750004
N265	N	0.981272	0.065994	0.217035
N266	N	1.231272	0.315994	0.467035
N267	N	1.481272	0.565994	0.717035
N268	N	1.731272	0.815994	0.967035
N269	N	0.981291	0.065994	-0.216955
N270	N	1.231291	0.315994	0.033045
N271	N	1.481291	0.565994	0.283045
N272	N	1.731291	0.815994	0.533045
C273	C	1.038234	0.033135	0.452053
C274	C	1.288234	0.283135	0.702053
C275	C	1.538234	0.533135	0.952053
C276	C	1.788234	0.783135	1.202053
C277	C	1.038237	0.033134	0.548034
C278	C	1.288237	0.283134	0.798034
C279	C	1.538237	0.533134	1.048034
C280	C	1.788237	0.783134	1.298034
C281	C	0.924323	0.098854	0.548020
C282	C	1.174323	0.348854	0.798020
C283	C	1.424323	0.598854	1.048020
C284	C	1.674323	0.848854	1.298020
C285	C	0.924317	0.098852	0.452041
C286	C	1.174317	0.348852	0.702041
C287	C	1.424317	0.598852	0.952041
C288	C	1.674317	0.848852	1.202041
C289	C	0.981278	0.065993	0.404060
C290	C	1.231278	0.315993	0.654060
C291	C	1.481278	0.565993	0.904060
C292	C	1.731278	0.815993	1.154060
C293	C	0.981286	0.065994	0.596020
C294	C	1.231286	0.315994	0.846020
C295	C	1.481286	0.565994	1.096020
C296	C	1.731286	0.815994	1.346020
C297	C	0.981288	0.065993	0.700087
C298	C	1.231288	0.315993	0.950087
C299	C	1.481288	0.565993	1.200087
C300	C	1.731288	0.815993	1.450087
C301	C	0.981275	0.065994	0.299986
C302	C	1.231275	0.315994	0.549986
C303	C	1.481275	0.565994	0.799986
C304	C	1.731275	0.815994	1.049986
H305	H	0.578951	-0.013099	0.000059
H306	H	0.828951	0.236901	0.250059
H307	H	1.078951	0.486901	0.500059
H308	H	1.328951	0.736901	0.750059
H309	H	0.849907	-0.070255	0.000058
H310	H	1.099907	0.179745	0.250058
H311	H	1.349907	0.429745	0.500058
H312	H	1.599907	0.679745	0.750058
O313	O	1.145158	-0.086044	0.000072
O314	O	1.395158	0.163956	0.250072
O315	O	1.645158	0.413956	0.500072
O316	O	1.895158	0.663956	0.750072
H317	H	1.197419	-0.116056	0.000060
H318	H	1.447419	0.133944	0.250060
H319	H	1.697419	0.383944	0.500060
H320	H	1.947419	0.633944	0.750060
H321	H	0.540913	0.146692	0.000018
H322	H	0.790913	0.396692	0.250018
H323	H	1.040913	0.646692	0.500018
H324	H	1.290913	0.896692	0.750018
O325	O	0.369379	0.156603	0.000019
O326	O	0.619379	0.406603	0.250019
O327	O	0.869379	0.656603	0.500019
O328	O	1.119379	0.906603	0.750019
H329	H	0.406806	0.187680	0.000002
H330	H	0.656806	0.437680	0.250002
H331	H	0.906806	0.687680	0.500002
H332	H	1.156806	0.937680	0.750002
O333	O	0.412952	-0.026459	0.000059
O334	O	0.662952	0.223541	0.250059
O335	O	0.912952	0.473541	0.500059
O336	O	1.162952	0.723541	0.750059
H337	H	0.434613	-0.047403	0.062217
H338	H	0.684613	0.202597	0.312217
H339	H	0.934613	0.452597	0.562217
H340	H	1.184613	0.702597	0.812217
H341	H	0.877948	0.125607	0.587097
H342	H	1.127948	0.375607	0.837097
H343	H	1.377948	0.625607	1.087097
H344	H	1.627948	0.875607	1.337097
O345	O	0.862885	0.134295	0.400266
O346	O	1.112885	0.384295	0.650266
O347	O	1.362885	0.634295	0.900266
O348	O	1.612885	0.884295	1.150266
H349	H	0.823287	0.157150	0.449753
H350	H	1.073287	0.407150	0.699753
H351	H	1.323287	0.657150	0.949753
H352	H	1.573287	0.907150	1.199753
H353	H	1.084615	0.006377	0.587107
H354	H	1.334615	0.256377	0.837107
H355	H	1.584615	0.506377	1.087107
H356	H	1.834615	0.756377	1.337107
O357	O	1.212444	-0.579782	0.000022
O358	O	1.462444	-0.329782	0.250022
O359	O	1.712444	-0.079782	0.500022
O360	O	1.962444	0.170218	0.750022
H361	H	1.265625	-0.557799	0.000037
H362	H	1.515625	-0.307799	0.250037
H363	H	1.765625	-0.057799	0.500037
H364	H	2.015625	0.192201	0.750037
H365	H	1.084614	0.006379	0.412988
H366	H	1.334614	0.256379	0.662988
H367	H	1.584614	0.506379	0.912988
H368	H	1.834614	0.756379	1.162988
O369	O	0.750116	-0.288218	-0.000014
O370	O	1.000116	-0.038218	0.249986
O371	O	1.250116	0.211782	0.499986
O372	O	1.500116	0.461782	0.749986
H373	H	0.763534	-0.249892	-0.000014
H374	H	1.013534	0.000108	0.249986
H375	H	1.263534	0.250108	0.499986
H376	H	1.513534	0.500108	0.749986
O377	O	1.143338	-0.190835	0.000065
O378	O	1.393338	0.059165	0.250065
O379	O	1.643338	0.309165	0.500065
O380	O	1.893338	0.559165	0.750065
H381	H	1.146557	-0.214089	0.062210
H382	H	1.396557	0.035911	0.312210
H383	H	1.646557	0.285911	0.562210
H384	H	1.896557	0.535911	0.812210
H385	H	1.196773	-0.328880	0.000053
H386	H	1.446773	-0.078880	0.250053
H387	H	1.696773	0.171120	0.500053
H388	H	1.946773	0.421120	0.750053
H389	H	1.195175	-0.420334	0.000038
H390	H	1.445175	-0.170334	0.250038
H391	H	1.695175	0.079666	0.500038
H392	H	1.945175	0.329666	0.750038
O393	O	1.134415	-0.701144	0.000013
O394	O	1.384415	-0.451144	0.250013
O395	O	1.634415	-0.201144	0.500013
O396	O	1.884415	0.048856	0.750013
H397	H	1.186673	-0.731158	0.000008
H398	H	1.436673	-0.481158	0.250008
H399	H	1.686673	-0.231158	0.500008
H400	H	1.936673	0.018842	0.750008
H401	H	0.768435	-0.387864	-0.000022
H402	H	1.018435	-0.137864	0.249978
H403	H	1.268435	0.112136	0.499978
H404	H	1.518435	0.362136	0.749978
O405	O	1.132582	-0.805943	0.000007
O406	O	1.382582	-0.555943	0.250007
O407	O	1.632582	-0.305943	0.500007
O408	O	1.882582	-0.055943	0.750007
H409	H	1.119149	-0.844266	-0.000003
H410	H	1.369149	-0.594266	0.249997
H411	H	1.619149	-0.344266	0.499997
H412	H	1.869149	-0.094266	0.749997
H413	H	0.837554	-0.776820	0.000005
H414	H	1.087554	-0.526820	0.250005
H415	H	1.337554	-0.276820	0.500005
H416	H	1.587554	-0.026820	0.750005
H417	H	0.839149	-0.685363	-0.000010
H418	H	1.089149	-0.435363	0.249990
H419	H	1.339149	-0.185363	0.499990
H420	H	1.589149	0.064637	0.749990
O421	O	0.828150	-0.166872	0.000039
O422	O	1.078150	0.083128	0.250039
O423	O	1.328150	0.333128	0.500039
O424	O	1.578150	0.583128	0.750039
H425	H	0.775888	-0.136861	0.000034
H426	H	1.025888	0.113139	0.250034
H427	H	1.275888	0.363139	0.500034
H428	H	1.525888	0.613139	0.750034
O429	O	1.214283	-0.474985	0.000017
O430	O	1.464283	-0.224985	0.250017
O431	O	1.714283	0.025015	0.500017
O432	O	1.964283	0.275015	0.750017
H433	H	1.266538	-0.505000	0.000007
H434	H	1.516538	-0.255000	0.250007
H435	H	1.766538	-0.005000	0.500007
H436	H	2.016538	0.245000	0.750007
O437	O	0.747479	-0.439479	0.000009
O438	O	0.997479	-0.189479	0.250009
O439	O	1.247479	0.060521	0.500009
O440	O	1.497479	0.310521	0.750009
H441	H	0.710950	-0.446387	-0.062134
H442	H	0.960950	-0.196387	0.187866
H443	H	1.210950	0.053613	0.437866
H444	H	1.460950	0.303613	0.687866
H445	H	0.765802	-0.539121	-0.000014
H446	H	1.015802	-0.289121	0.249986
H447	H	1.265802	-0.039121	0.499986
H448	H	1.515802	0.210879	0.749986
