data_functionalizedCrystal
_audit_creation_method	'MofGen! by Chris Wilmer'
_symmetry_space_group_name_H-M	'P1'
_symmetry_Int_Tables_number	1
_symmetry_cell_setting	triclinic
loop_
_symmetry_equiv_pos_as_xyz
  x,y,z
_cell_length_a	17.038272
_cell_length_b	15.500235
_cell_length_c	10.723024
_cell_angle_alpha	92.869154
_cell_angle_beta	92.210287
_cell_angle_gamma	93.030811
loop_
_atom_site_label
_atom_site_type_symbol
_atom_site_fract_x
_atom_site_fract_y
_atom_site_fract_z
O1	O	1.042454	0.071832	-0.265700
O2	O	0.814800	0.071857	-0.261393
O3	O	0.933878	0.071841	-0.082456
O4	O	0.923376	0.071848	-0.444637
O5	O	0.926680	-0.072047	-0.093314
O6	O	0.807603	-0.072030	-0.272251
O7	O	1.035256	-0.072056	-0.276558
Cu8	Cu	0.920772	-0.085181	-0.275395
Cu9	Cu	0.929284	0.084983	-0.262555
O10	O	0.916178	-0.072039	-0.455494
C11	C	0.782052	-0.000083	-0.262906
C12	C	0.695195	-0.000073	-0.251223
N13	N	0.914791	-0.204865	-0.284426
C14	C	0.645674	-0.000072	-0.358479
C15	C	0.564062	-0.000084	-0.347495
C16	C	0.531973	-0.000092	-0.229255
C17	C	0.581500	-0.000096	-0.121992
C18	C	0.663110	-0.000090	-0.132977
C19	C	0.285999	-0.000115	-0.190449
C20	C	0.204383	-0.000119	-0.179472
C21	C	0.186950	-0.000109	-0.404976
C22	C	0.268562	-0.000098	-0.415950
C23	C	0.318083	-0.000106	-0.308687
C24	C	0.448553	-0.000101	-0.218026
C25	C	0.401501	-0.000103	-0.319918
C26	C	0.884803	-0.750048	-0.329314
C27	C	0.889344	-0.659476	-0.322510
C28	C	0.944358	-0.614191	-0.239912
C29	C	0.994829	-0.659482	-0.164105
C30	C	0.990284	-0.750053	-0.170903
C31	C	0.960717	-0.340727	-0.215417
C32	C	0.965260	-0.250150	-0.208627
C33	C	0.859773	-0.250150	-0.367032
C34	C	0.855235	-0.340723	-0.373828
C35	C	0.905704	-0.386006	-0.298016
C36	C	0.949002	-0.521612	-0.232958
C37	C	0.901055	-0.478583	-0.304964
C38	C	1.068005	-0.000113	-0.275045
C39	C	1.154862	-0.000117	-0.286727
C40	C	0.929515	-0.000102	-0.041315
C41	C	0.927228	-0.000099	0.097451
N42	N	0.935272	0.204667	-0.253515
C43	C	0.920541	-0.000095	-0.496636
C44	C	0.922828	-0.000092	-0.635401
C45	C	0.993858	-0.000105	0.166270
C46	C	0.991496	-0.000101	0.309692
H47	H	0.671793	-0.000065	-0.454762
H48	H	0.868436	-0.000086	0.144713
H49	H	0.326309	-0.000123	-0.103107
H50	H	0.146622	-0.000103	-0.492303
H51	H	0.523744	-0.000082	-0.434835
H52	H	0.178260	-0.000124	-0.083182
H53	H	1.048536	-0.000111	0.368848
H54	H	0.818683	-0.213272	-0.428753
H55	H	0.865785	-0.000093	0.305450
H56	H	0.810438	-0.377592	-0.441086
H57	H	0.555367	-0.000114	-0.025719
H58	H	0.294683	-0.000081	-0.512233
H59	H	0.703430	-0.000090	-0.045638
H60	H	0.427631	-0.000101	-0.416189
H61	H	1.001812	-0.377589	-0.153690
H62	H	1.052650	-0.000117	0.119009
H63	H	0.422416	-0.000132	-0.121756
H64	H	0.840008	-0.786914	-0.396580
H65	H	0.848247	-0.622606	-0.384231
H66	H	1.010062	-0.213282	-0.141362
H67	H	1.031380	-0.786923	-0.109178
H68	H	0.856259	-0.515457	-0.372211
H69	H	1.039621	-0.622605	-0.096845
H70	H	0.993798	-0.484733	-0.165708
