data_functionalizedCrystal
_audit_creation_method	'MofGen! by Chris Wilmer'
_symmetry_space_group_name_H-M	'P1'
_symmetry_Int_Tables_number	1
_symmetry_cell_setting	triclinic
loop_
_symmetry_equiv_pos_as_xyz
  x,y,z
_cell_length_a	19.077105
_cell_length_b	19.077068
_cell_length_c	19.076929
_cell_angle_alpha	85.532199
_cell_angle_beta	90.078300
_cell_angle_gamma	89.884684
loop_
_atom_site_label
_atom_site_type_symbol
_atom_site_fract_x
_atom_site_fract_y
_atom_site_fract_z
Zn1	Zn	1.044032	0.340427	-0.453497
Zn2	Zn	1.377365	0.673760	-0.120164
Zn3	Zn	1.710699	1.007094	0.213169
Zn4	Zn	1.043949	0.453583	-0.340339
Zn5	Zn	1.377283	0.786916	-0.007006
Zn6	Zn	1.710616	1.120249	0.326328
Zn7	Zn	0.931648	0.331006	-0.330929
Zn8	Zn	1.264981	0.664340	0.002404
Zn9	Zn	1.598315	0.997673	0.335738
Zn10	Zn	0.921785	0.453152	-0.453075
Zn11	Zn	1.255118	0.786486	-0.119741
Zn12	Zn	1.588451	1.119819	0.213592
O13	O	0.985354	0.394542	-0.394460
O14	O	1.318687	0.727875	-0.061127
O15	O	1.652020	1.061209	0.272207
O16	O	1.142180	0.359560	-0.442602
O17	O	1.475514	0.692893	-0.109268
O18	O	1.808847	1.026227	0.224065
O19	O	1.033146	0.433560	-0.240615
O20	O	1.366479	0.766893	0.092718
O21	O	1.699812	1.100227	0.426052
O22	O	0.950719	0.233781	-0.343427
O23	O	1.284052	0.567115	-0.010094
O24	O	1.617385	0.900448	0.323240
O25	O	1.142120	0.442695	-0.359465
O26	O	1.475453	0.776028	-0.026131
O27	O	1.808786	1.109362	0.307202
O28	O	1.033287	0.240703	-0.433477
O29	O	1.366620	0.574036	-0.100144
O30	O	1.699953	0.907369	0.233189
O31	O	0.950638	0.343504	-0.233702
O32	O	1.283972	0.676837	0.099632
O33	O	1.617305	1.010170	0.432965
O34	O	0.832180	0.343086	-0.343017
O35	O	1.165514	0.676420	-0.009684
O36	O	1.498847	1.009753	0.323650
O37	O	0.933908	0.441962	-0.551606
O38	O	1.267241	0.775295	-0.218273
O39	O	1.600574	1.108628	0.115060
O40	O	0.824934	0.432827	-0.432757
O41	O	1.158267	0.766160	-0.099424
O42	O	1.491600	1.099493	0.233910
O43	O	1.023722	0.359143	-0.551917
O44	O	1.357056	0.692476	-0.218584
O45	O	1.690389	1.025810	0.114750
O46	O	1.023581	0.552000	-0.359055
O47	O	1.356915	0.885333	-0.025721
O48	O	1.690248	1.218667	0.307612
O49	O	0.933828	0.551684	-0.441881
O50	O	1.267161	0.885017	-0.108548
O51	O	1.600494	1.218351	0.224785
C52	C	0.803105	0.386888	-0.386820
C53	C	1.136439	0.720221	-0.053487
C54	C	1.469772	1.053555	0.279846
C55	C	0.725137	0.383631	-0.383570
C56	C	1.058471	0.716965	-0.050236
C57	C	1.391804	1.050298	0.283097
C58	C	0.977644	0.577377	-0.401459
C59	C	1.310977	0.910710	-0.068126
C60	C	1.644310	1.244044	0.265207
C61	C	0.974409	0.655598	-0.404480
C62	C	1.307742	0.988931	-0.071146
C63	C	1.641075	1.322265	0.262187
C64	C	0.977724	0.401555	-0.578009
C65	C	1.311057	0.734889	-0.244676
C66	C	1.644391	1.068222	0.088657
C67	C	0.974473	0.404544	-0.656227
C68	C	1.307806	0.737877	-0.322894
C69	C	1.641140	1.071211	0.010440
C70	C	0.684753	0.428889	-0.428697
C71	C	1.018087	0.762223	-0.095364
C72	C	1.351420	1.095556	0.237970
C73	C	0.611494	0.425820	-0.425645
C74	C	0.944828	0.759153	-0.092312
C75	C	1.278161	1.092487	0.241021
C76	C	0.578621	0.377496	-0.377463
C77	C	0.911954	0.710829	-0.044129
C78	C	1.245287	1.044162	0.289204
C79	C	0.619010	0.332233	-0.332333
C80	C	0.952343	0.665566	0.001000
C81	C	1.285677	0.998900	0.334333
C82	C	0.692268	0.335299	-0.335389
C83	C	1.025601	0.668633	-0.002055
C84	C	1.358934	1.001966	0.331278
C85	C	0.359927	0.363304	-0.363325
C86	C	0.693260	0.696638	-0.029991
C87	C	1.026594	1.029971	0.303342
C88	C	0.286664	0.360243	-0.360271
C89	C	0.619997	0.693576	-0.026938
C90	C	0.953331	1.026910	0.306396
C91	C	0.279153	0.453830	-0.453584
C92	C	0.612487	0.787163	-0.120251
C93	C	0.945820	1.120496	0.213082
C94	C	0.352413	0.456895	-0.456633
C95	C	0.685746	0.790228	-0.123299
C96	C	1.019079	1.123561	0.210034
C97	C	0.392795	0.411629	-0.411506
C98	C	0.726129	0.744963	-0.078173
C99	C	1.059462	1.078296	0.255161
N100	N	0.503738	0.374359	-0.374341
N101	N	0.837072	0.707692	-0.041007
N102	N	1.170405	1.041026	0.292326
N103	N	0.467676	0.414763	-0.414632
N104	N	0.801010	0.748097	-0.081299
N105	N	1.134343	1.081430	0.252035
C106	C	1.168313	0.402226	-0.402130
C107	C	1.501647	0.735560	-0.068797
C108	C	1.834980	1.068893	0.264537
C109	C	1.246280	0.405501	-0.405398
C110	C	1.579613	0.738834	-0.072065
C111	C	1.912947	1.072168	0.261268
C112	C	0.993112	0.210995	-0.387450
C113	C	1.326445	0.544328	-0.054116
C114	C	1.659779	0.877661	0.279217
C115	C	0.996418	0.132778	-0.384462
C116	C	1.329751	0.466111	-0.051129
C117	C	1.663085	0.799444	0.282204
C118	C	1.019652	0.692490	-0.362814
C119	C	1.352985	1.025824	-0.029481
C120	C	1.686319	1.359157	0.303852
C121	C	1.016613	0.765988	-0.365660
C122	C	1.349946	1.099321	-0.032326
C123	C	1.683280	1.432655	0.301007
C124	C	0.968327	0.802591	-0.410167
C125	C	1.301660	1.135924	-0.076834
C126	C	1.634994	1.469258	0.256500
C127	C	0.923082	0.765693	-0.451837
C128	C	1.256415	1.099027	-0.118504
C129	C	1.589748	1.432360	0.214829
C130	C	0.926124	0.692198	-0.448995
C131	C	1.259458	1.025531	-0.115662
C132	C	1.592791	1.358864	0.217671
C133	C	0.954215	1.022385	-0.423291
C134	C	1.287549	1.355718	-0.089957
C135	C	1.620882	1.689051	0.243376
C136	C	0.951175	1.095885	-0.426128
C137	C	1.284508	1.429219	-0.092795
C138	C	1.617841	1.762552	0.240539
C139	C	1.044708	1.096175	-0.339951
C140	C	1.378041	1.429508	-0.006617
C141	C	1.711374	1.762841	0.326716
C142	C	1.047743	1.022677	-0.337110
C143	C	1.381076	1.356011	-0.003776
C144	C	1.714410	1.689344	0.329557
C145	C	1.002500	0.985786	-0.378782
C146	C	1.335834	1.319120	-0.045449
C147	C	1.669167	1.652453	0.287884
N148	N	0.965218	0.877717	-0.413075
N149	N	1.298552	1.211050	-0.079742
N150	N	1.631885	1.544384	0.253592
N151	N	1.005613	0.910662	-0.375878
N152	N	1.338946	1.243995	-0.042545
N153	N	1.672280	1.577329	0.290789
C154	C	0.951156	0.426035	-1.096494
C155	C	1.284490	0.759368	-0.763161
C156	C	1.617823	1.092702	-0.429828
C157	C	0.954209	0.423217	-1.023000
C158	C	1.287542	0.756550	-0.689667
C159	C	1.620876	1.089883	-0.356333
C160	C	1.002500	0.378692	-0.986418
C161	C	1.335834	0.712025	-0.653085
C162	C	1.669167	1.045359	-0.319752
C163	C	1.047737	0.336978	-1.023334
C164	C	1.381070	0.670312	-0.690001
C165	C	1.714404	1.003645	-0.356668
C166	C	1.044681	0.339794	-1.096827
C167	C	1.378014	0.673127	-0.763494
C168	C	1.711347	1.006460	-0.430161
C169	C	1.016653	0.365645	-0.766636
C170	C	1.349986	0.698979	-0.433303
C171	C	1.683320	1.032312	-0.099969
C172	C	1.019708	0.362835	-0.693138
C173	C	1.353041	0.696168	-0.359805
C174	C	1.686374	1.029501	-0.026471
C175	C	0.926178	0.449072	-0.692809
C176	C	1.259512	0.782406	-0.359475
C177	C	1.592845	1.115739	-0.026142
C178	C	0.923129	0.451887	-0.766303
C179	C	1.256462	0.785220	-0.432970
C180	C	1.589796	1.118554	-0.099636
C181	C	0.968363	0.410170	-0.803213
C182	C	1.301696	0.743504	-0.469879
C183	C	1.635030	1.076837	-0.136546
N184	N	1.005623	0.375812	-0.911295
N185	N	1.338957	0.709145	-0.577962
N186	N	1.672290	1.042478	-0.244629
N187	N	0.965236	0.413048	-0.878334
N188	N	1.298570	0.746381	-0.545001
N189	N	1.631903	1.079714	-0.211667
C190	C	0.992996	0.387507	-0.211625
C191	C	1.326329	0.720840	0.121709
C192	C	1.659662	1.054174	0.455042
C193	C	0.996391	0.384326	-0.133405
C194	C	1.329725	0.717659	0.199928
C195	C	1.663058	1.050993	0.533261
H196	H	0.711513	0.468243	-0.467930
H197	H	1.044847	0.801576	-0.134597
H198	H	1.378180	1.134909	0.198736
H199	H	1.053455	0.796022	-0.331731
H200	H	1.386788	1.129356	0.001603
H201	H	1.720121	1.462689	0.334936
F202	F	1.092819	0.295394	-1.136110
F203	F	1.426152	0.628727	-0.802776
F204	F	1.759486	0.962060	-0.469443
F205	F	0.251679	0.308811	-0.308982
F206	F	0.585012	0.642145	0.024351
F207	F	0.918346	0.975478	0.357685
F208	F	1.092858	1.135442	-0.295606
F209	F	1.426191	1.468775	0.037727
F210	F	1.759524	1.802109	0.371061
F211	F	0.402896	0.315127	-0.315298
F212	F	0.736229	0.648460	0.018035
F213	F	1.069563	0.981794	0.351369
F214	F	0.735247	0.287128	-0.287359
F215	F	1.068580	0.620461	0.045974
F216	F	1.401914	0.953795	0.379307
F217	F	0.584022	0.280798	-0.281058
F218	F	0.917355	0.614131	0.052276
F219	F	1.250688	0.947465	0.385609
H220	H	0.889283	0.662161	-0.482925
H221	H	1.222617	0.995494	-0.149591
H222	H	1.555950	1.328827	0.183742
F223	F	1.071041	0.653541	-0.315438
F224	F	1.404374	0.986874	0.017895
F225	F	1.737708	1.320207	0.351228
H226	H	1.087061	0.992876	-0.300868
H227	H	1.420395	1.326210	0.032465
H228	H	1.753728	1.659543	0.365799
H229	H	0.911862	1.125686	-0.462384
H230	H	1.245196	1.459020	-0.129051
H231	H	1.578529	1.792353	0.204283
H232	H	0.917376	0.992354	-0.457221
H233	H	1.250709	1.325687	-0.123887
H234	H	1.584042	1.659020	0.209446
F235	F	0.871695	0.804652	-0.499210
F236	F	1.205029	1.137985	-0.165877
F237	F	1.538362	1.471318	0.167457
H238	H	0.578617	0.462675	-0.462392
H239	H	0.911950	0.796008	-0.129059
H240	H	1.245283	1.129341	0.204275
F241	F	0.236170	0.502002	-0.501607
F242	F	0.569503	0.835335	-0.168274
F243	F	0.902837	1.168669	0.165060
H244	H	0.911835	0.462295	-1.126274
H245	H	1.245168	0.795628	-0.792941
H246	H	1.578502	1.128961	-0.459608
H247	H	0.917381	0.457189	-0.992951
H248	H	1.250715	0.790522	-0.659618
H249	H	1.584048	1.123855	-0.326284
H250	H	0.379173	0.496247	-0.495867
H251	H	0.712506	0.829580	-0.162533
H252	H	1.045840	1.162914	0.170800
F253	F	0.871737	0.499282	-0.805231
F254	F	1.205070	0.832616	-0.471898
F255	F	1.538403	1.165949	-0.138565
F256	F	0.878038	0.493464	-0.653522
F257	F	1.211371	0.826797	-0.320188
F258	F	1.544705	1.160131	0.013145
H259	H	1.059032	0.326573	-0.663355
H260	H	1.392366	0.659907	-0.330022
H261	H	1.725699	0.993240	0.003312
H262	H	1.053489	0.331681	-0.796679
H263	H	1.386823	0.665014	-0.463346
H264	H	1.720156	0.998347	-0.130012
H265	H	1.087054	0.300722	-0.993544
H266	H	1.420387	0.634056	-0.660210
H267	H	1.753721	0.967389	-0.326877
