data_functionalizedCrystal
_audit_creation_method	'MofGen! by Chris Wilmer'
_symmetry_space_group_name_H-M	'P1'
_symmetry_Int_Tables_number	1
_symmetry_cell_setting	triclinic
loop_
_symmetry_equiv_pos_as_xyz
  x,y,z
_cell_length_a	14.519731
_cell_length_b	10.654550
_cell_length_c	9.730223
_cell_angle_alpha	90.004253
_cell_angle_beta	89.996618
_cell_angle_gamma	95.913108
loop_
_atom_site_label
_atom_site_type_symbol
_atom_site_fract_x
_atom_site_fract_y
_atom_site_fract_z
O1	O	1.224708	-0.164750	-0.114292
O2	O	1.724708	0.335250	0.385708
O3	O	0.956334	-0.184109	-0.114295
O4	O	1.456334	0.315891	0.385705
O5	O	1.096692	0.008368	-0.114285
O6	O	1.596692	0.508368	0.385715
O7	O	1.084351	-0.357227	-0.114302
O8	O	1.584351	0.142773	0.385698
O9	O	1.096682	0.008374	0.114295
O10	O	1.596682	0.508374	0.614295
O11	O	0.956325	-0.184104	0.114285
O12	O	1.456325	0.315896	0.614285
O13	O	1.224699	-0.164745	0.114287
O14	O	1.724699	0.335255	0.614287
Zn15	Zn	1.090511	-0.174423	0.150578
Zn16	Zn	1.590511	0.325577	0.650578
Zn17	Zn	1.090523	-0.174430	-0.150585
Zn18	Zn	1.590523	0.325570	0.349415
O19	O	1.084342	-0.357222	0.114278
O20	O	1.584342	0.142778	0.614278
C21	C	0.921965	-0.183199	-0.000005
C22	C	1.421965	0.316801	0.499995
C23	C	0.819571	-0.180481	-0.000005
C24	C	1.319571	0.319519	0.499995
C25	C	0.736416	-0.178272	-0.000011
C26	C	1.236416	0.321728	0.499989
C27	C	0.632093	-0.175513	-0.000011
C28	C	1.132093	0.324487	0.499989
C29	C	0.548942	-0.173322	-0.000011
C30	C	1.048942	0.326678	0.499989
C31	C	0.444612	-0.170563	-0.000014
C32	C	0.944612	0.329437	0.499986
C33	C	1.095781	0.055160	0.000004
C34	C	1.595781	0.555160	0.500004
C35	C	1.093070	0.194578	0.000002
C36	C	1.593070	0.694578	0.500002
C37	C	1.259068	-0.165655	-0.000005
C38	C	1.759068	0.334345	0.499995
C39	C	1.361462	-0.168373	-0.000014
C40	C	1.861462	0.331627	0.499986
C41	C	1.085252	-0.404014	-0.000015
C42	C	1.585252	0.095986	0.499985
C43	C	1.087963	-0.543432	-0.000021
C44	C	1.587963	-0.043432	0.499979
N45	N	1.090509	-0.174418	0.356115
N46	N	1.590509	0.325582	0.856115
C47	C	1.175710	0.274850	0.000002
C48	C	1.675710	0.774850	0.500002
C49	C	1.173157	0.405846	-0.000014
C50	C	1.673157	0.905846	0.499986
C51	C	1.005317	0.376286	-0.000026
C52	C	1.505317	0.876286	0.499974
C53	C	1.007871	0.245293	-0.000019
C54	C	1.507871	0.745293	0.499981
N55	N	1.090531	-0.174426	-0.356122
N56	N	1.590531	0.325574	0.143878
C57	C	1.152681	-0.089225	0.428045
C58	C	1.652681	0.410775	0.928045
C59	C	1.152690	-0.089225	0.571928
C60	C	1.652690	0.410775	1.071928
C61	C	1.028353	-0.259623	0.571938
C62	C	1.528353	0.240377	1.071938
C63	C	1.028340	-0.259616	0.428057
C64	C	1.528340	0.240384	0.928057
H65	H	1.245085	0.233562	0.000017
H66	H	1.745085	0.733562	0.500017
Br67	Br	0.889695	0.445122	-0.000058
Br68	Br	1.389695	0.945122	0.499942
H69	H	1.203314	-0.019852	0.630490
H70	H	1.703314	0.480148	1.130490
Br71	Br	0.943951	-0.375233	0.330426
Br72	Br	1.443951	0.124767	0.830426
Br73	Br	0.943986	-0.375246	0.669579
Br74	Br	1.443986	0.124754	1.169579
Br75	Br	1.237051	0.026402	0.330414
Br76	Br	1.737051	0.526402	0.830414
H77	H	0.940571	0.179931	-0.000023
H78	H	1.440571	0.679931	0.499977
H79	H	1.240451	0.471199	-0.000017
H80	H	1.740451	0.971199	0.499983
