data_functionalizedCrystal
_audit_creation_method	'MofGen! by Chris Wilmer'
_symmetry_space_group_name_H-M	'P1'
_symmetry_Int_Tables_number	1
_symmetry_cell_setting	triclinic
loop_
_symmetry_equiv_pos_as_xyz
  x,y,z
_cell_length_a	10.685976
_cell_length_b	13.032721
_cell_length_c	10.686551
_cell_angle_alpha	93.335252
_cell_angle_beta	89.651515
_cell_angle_gamma	92.306968
loop_
_atom_site_label
_atom_site_type_symbol
_atom_site_fract_x
_atom_site_fract_y
_atom_site_fract_z
Zn1	Zn	1.902370	-0.495725	-0.643225
Zn2	Zn	1.860287	-0.679256	-0.463586
Zn3	Zn	1.676769	-0.493800	-0.449285
Zn4	Zn	1.670416	-0.653055	-0.685114
O5	O	1.777461	-0.580459	-0.560303
O6	O	2.070664	-0.531842	-0.607851
O7	O	1.820990	-0.664814	-0.287814
O8	O	1.726967	-0.350598	-0.451495
O9	O	2.039746	-0.666681	-0.475871
O10	O	1.892715	-0.352013	-0.593983
O11	O	1.686160	-0.528561	-0.277307
O12	O	1.502050	-0.503155	-0.492113
O13	O	1.716139	-0.622026	-0.853433
O14	O	1.497383	-0.620159	-0.665376
O15	O	1.886554	-0.506436	-0.822657
O16	O	1.814829	-0.819237	-0.516488
O17	O	1.675332	-0.799988	-0.679244
C18	C	1.454632	-0.558606	-0.581739
C19	C	1.316524	-0.549279	-0.590943
C20	C	1.739861	-0.846810	-0.603988
C21	C	1.723892	-0.960761	-0.622711
C22	C	1.785865	-1.021056	-0.550582
C23	C	1.769363	-1.138830	-0.569932
C24	C	2.101550	-0.602399	-0.538783
C25	C	2.239657	-0.611748	-0.529613
C26	C	1.805332	-0.561523	-0.884389
C27	C	1.817209	-0.553453	-1.022496
C28	C	1.815244	-0.313069	-0.516471
C29	C	1.831345	-0.199123	-0.497793
C30	C	1.749780	-0.599253	-0.237460
C31	C	1.738184	-0.607050	-0.099291
H32	H	1.279510	-0.672376	-0.470065
C33	C	1.722146	-1.155586	-0.789724
C34	C	1.681240	-1.186837	-0.672645
H35	H	1.667747	-1.185230	-0.853132
H36	H	1.721665	-1.082746	-0.790187
H37	H	1.804763	-1.177605	-0.805260
H38	H	1.598626	-1.164811	-0.657105
H39	H	1.681708	-1.259692	-0.672180
H40	H	1.893962	-0.501395	-1.062409
C41	C	1.186804	-0.515735	-0.765428
C42	C	1.262738	-0.467444	-0.671341
H43	H	1.153589	-0.465210	-0.815057
H44	H	1.235229	-0.561059	-0.816861
H45	H	1.120084	-0.553674	-0.728171
H46	H	1.329464	-0.429511	-0.708598
H47	H	1.214311	-0.422102	-0.619901
C48	C	1.833078	-1.004299	-0.330796
C49	C	1.873984	-0.973046	-0.447873
H50	H	1.887485	-0.974666	-0.267388
H51	H	1.750474	-0.982281	-0.315256
H52	H	1.833554	-1.077149	-0.330340
H53	H	1.873499	-0.900196	-0.448333
H54	H	1.956610	-0.995059	-0.463417
C55	C	1.878572	-1.182381	-0.278003
C56	C	1.919474	-1.151125	-0.395080
H57	H	1.932985	-1.152754	-0.214597
H58	H	1.795971	-1.160357	-0.262456
H59	H	1.879042	-1.255231	-0.277551
H60	H	1.918996	-1.078275	-0.395535
H61	H	2.002097	-1.173143	-0.410630
H62	H	1.661444	-0.659112	-1.059384
C63	C	1.676680	-0.977522	-0.842498
C64	C	1.635774	-1.008772	-0.725420
H65	H	1.622281	-1.007166	-0.905906
H66	H	1.676199	-0.904682	-0.842961
H67	H	1.759297	-0.999540	-0.858034
H68	H	1.553160	-0.986747	-0.709879
H69	H	1.636242	-1.081628	-0.724954
