data_functionalizedCrystal
_audit_creation_method	'MofGen! by Chris Wilmer'
_symmetry_space_group_name_H-M	'P1'
_symmetry_Int_Tables_number	1
_symmetry_cell_setting	triclinic
loop_
_symmetry_equiv_pos_as_xyz
  x,y,z
_cell_length_a	12.759401
_cell_length_b	12.759400
_cell_length_c	12.759393
_cell_angle_alpha	90.030447
_cell_angle_beta	90.018567
_cell_angle_gamma	90.012209
loop_
_atom_site_label
_atom_site_type_symbol
_atom_site_fract_x
_atom_site_fract_y
_atom_site_fract_z
Zn1	Zn	1.606267	-0.418231	0.593991
Zn2	Zn	2.106267	0.081769	1.093991
Zn3	Zn	1.606166	-0.593950	0.418315
Zn4	Zn	2.106166	-0.093950	0.918315
Zn5	Zn	1.430569	-0.418283	0.418331
Zn6	Zn	1.930569	0.081717	0.918331
Zn7	Zn	1.430562	-0.593866	0.593956
Zn8	Zn	1.930562	-0.093866	1.093956
O9	O	1.518391	-0.506082	0.506148
O10	O	2.018391	-0.006082	1.006148
O11	O	1.753274	-0.441554	0.570696
O12	O	2.253274	0.058446	1.070696
O13	O	1.582833	-0.570704	0.271296
O14	O	2.082833	-0.070704	0.771296
O15	O	1.453920	-0.271255	0.441654
O16	O	1.953920	0.228745	0.941654
O17	O	1.753200	-0.570654	0.441627
O18	O	2.253200	-0.070654	0.941627
O19	O	1.583005	-0.271217	0.570711
O20	O	2.083005	0.228783	1.070711
O21	O	1.453822	-0.441642	0.271307
O22	O	1.953822	0.058358	0.771307
O23	O	1.283547	-0.441560	0.441620
O24	O	1.783547	0.058440	0.941620
O25	O	1.453909	-0.570511	0.740982
O26	O	1.953909	-0.070511	1.240982
O27	O	1.283542	-0.570561	0.570651
O28	O	1.783542	-0.070561	1.070651
O29	O	1.582998	-0.441473	0.741008
O30	O	2.082998	0.058527	1.241008
O31	O	1.582826	-0.740960	0.441593
O32	O	2.082826	-0.240960	0.941593
O33	O	1.453811	-0.740898	0.570636
O34	O	1.953811	-0.240898	1.070636
C35	C	1.245423	-0.506058	0.506134
C36	C	1.745423	-0.006058	1.006134
C37	C	1.128647	-0.506072	0.506152
C38	C	1.628647	-0.006072	1.006152
C39	C	1.073816	-0.438977	0.573463
C40	C	1.573816	0.061023	1.073463
C41	C	0.964092	-0.438997	0.573469
C42	C	1.464092	0.061003	1.073469
C43	C	0.964039	-0.573217	0.438853
C44	C	1.464039	-0.073217	0.938853
C45	C	1.073761	-0.573191	0.438841
C46	C	1.573761	-0.073191	0.938841
C47	C	1.128702	-0.371858	0.640774
C48	C	1.628702	0.128142	1.140774
C49	C	1.073872	-0.304758	0.708090
C50	C	1.573872	0.195242	1.208090
C51	C	0.964148	-0.304778	0.708097
C52	C	1.464148	0.195222	1.208097
C53	C	0.909254	-0.371899	0.640787
C54	C	1.409254	0.128101	1.140787
C55	C	1.518336	-0.779050	0.506132
C56	C	2.018336	-0.279050	1.006132
C57	C	1.518408	-0.895826	0.506160
C58	C	2.018408	-0.395826	1.006160
C59	C	1.585589	-0.950589	0.573415
C60	C	2.085589	-0.450589	1.073415
C61	C	1.585638	-1.060313	0.573441
C62	C	2.085638	-0.560313	1.073441
C63	C	1.451322	-1.060502	0.438947
C64	C	1.951322	-0.560502	0.938947
C65	C	1.451269	-0.950780	0.438927
C66	C	1.951269	-0.450780	0.938927
C67	C	1.652728	-0.895635	0.640647
C68	C	2.152728	-0.395635	1.140647
C69	C	1.719915	-0.950398	0.707907
C70	C	2.219915	-0.450398	1.207907
C71	C	1.719964	-1.060122	0.707933
C72	C	2.219964	-0.560122	1.207933
C73	C	1.652826	-1.115083	0.640699
C74	C	2.152826	-0.615083	1.140699
C75	C	1.792424	-0.506108	0.506164
C76	C	2.292424	-0.006108	1.006164
C77	C	1.909201	-0.506119	0.506170
C78	C	2.409201	-0.006119	1.006170
C79	C	1.518464	-0.505976	0.780182
C80	C	2.018464	-0.005976	1.280182
C81	C	1.518496	-0.505931	0.896959
C82	C	2.018496	-0.005931	1.396959
C83	C	1.518475	-0.232049	0.506188
C84	C	2.018475	0.267951	1.006188
C85	C	1.518510	-0.115272	0.506205
C86	C	2.018510	0.384728	1.006205
C87	C	1.518378	-0.506112	0.233181
C88	C	2.018378	-0.006112	0.733181
C89	C	1.518550	-0.505861	0.116405
C90	C	2.018550	-0.005861	0.616405
C91	C	1.585722	-0.438735	0.951836
C92	C	2.085722	0.061265	1.451836
C93	C	1.585747	-0.438697	1.061560
C94	C	2.085747	0.061303	1.561560
C95	C	1.451316	-0.573061	1.061520
C96	C	1.951316	-0.073061	1.561520
C97	C	1.451287	-0.573093	0.951798
C98	C	1.951287	-0.073093	1.451798
C99	C	1.652930	-0.371573	0.896997
C100	C	2.152930	0.128427	1.396997
C101	C	1.720163	-0.304372	0.951874
C102	C	2.220163	0.195628	1.451874
C103	C	1.720188	-0.304334	1.061598
C104	C	2.220188	0.195666	1.561598
C105	C	1.652980	-0.371497	1.116445
C106	C	2.152980	0.128503	1.616445
H107	H	1.118573	-0.250105	0.762885
H108	H	1.618573	0.249895	1.262885
H109	H	1.652920	-0.371599	0.807654
H110	H	2.152920	0.128401	1.307654
F111	F	1.791742	-0.232815	1.120000
F112	F	2.291742	0.267185	1.620000
F113	F	1.132119	-0.644609	0.367210
F114	F	1.632119	-0.144609	0.867210
H115	H	0.919335	-0.627865	0.384054
H116	H	1.419335	-0.127865	0.884054
F117	F	1.652661	-0.778858	0.640646
F118	F	2.152661	-0.278858	1.140646
F119	F	0.905796	-0.233359	0.779732
F120	F	1.405796	0.266641	1.279732
H121	H	1.396529	-0.627794	0.907116
H122	H	1.896529	-0.127794	1.407116
F123	F	1.245480	-0.371835	0.640776
F124	F	1.745480	0.128165	1.140776
F125	F	1.791354	-0.891903	0.779468
F126	F	2.291354	-0.391903	1.279468
F127	F	0.792475	-0.371907	0.640788
F128	F	1.292475	0.128093	1.140788
F129	F	1.791458	-1.118401	0.779526
F130	F	2.291458	-0.618401	1.279526
F131	F	1.653005	-1.231862	0.640606
F132	F	2.153005	-0.731862	1.140606
F133	F	1.379875	-1.118999	0.367396
F134	F	1.879875	-0.618999	0.867396
F135	F	1.379770	-0.892494	0.367344
F136	F	1.879770	-0.392494	0.867344
F137	F	1.791672	-0.232883	0.893501
F138	F	2.291672	0.267117	1.393501
F139	F	1.652997	-0.371441	1.233224
F140	F	2.152997	0.128559	1.733224
H141	H	1.396599	-0.627741	1.106185
H142	H	1.896599	-0.127741	1.606185
