data_functionalizedCrystal
_audit_creation_method	'MofGen! by Chris Wilmer'
_symmetry_space_group_name_H-M	'P1'
_symmetry_Int_Tables_number	1
_symmetry_cell_setting	triclinic
loop_
_symmetry_equiv_pos_as_xyz
  x,y,z
_cell_length_a	16.959455
_cell_length_b	16.959453
_cell_length_c	11.169409
_cell_angle_alpha	90.037272
_cell_angle_beta	90.024447
_cell_angle_gamma	90.018936
loop_
_atom_site_label
_atom_site_type_symbol
_atom_site_fract_x
_atom_site_fract_y
_atom_site_fract_z
Zn1	Zn	1.208445	-0.314640	0.678650
Zn2	Zn	1.208349	-0.446846	0.477949
Zn3	Zn	1.076255	-0.314683	0.477968
Zn4	Zn	1.076238	-0.446778	0.678578
O5	O	1.142322	-0.380737	0.578286
O6	O	1.319043	-0.332188	0.652048
O7	O	1.190794	-0.429362	0.310002
O8	O	1.093837	-0.204067	0.504626
O9	O	1.318973	-0.429319	0.504595
O10	O	1.190956	-0.204035	0.652066
O11	O	1.093745	-0.332262	0.310015
O12	O	0.965642	-0.332196	0.504557
O13	O	1.093808	-0.429202	0.846537
O14	O	0.965629	-0.429245	0.651944
O15	O	1.190940	-0.332121	0.846590
O16	O	1.190777	-0.557448	0.504525
O17	O	1.093716	-0.557398	0.651926
C18	C	0.936955	-0.380718	0.578246
C19	C	0.849099	-0.380729	0.578257
C20	C	0.807808	-0.330128	0.501642
C21	C	0.807836	-0.431336	0.654889
C22	C	0.725290	-0.431345	0.654907
C23	C	0.683999	-0.380744	0.578292
C24	C	0.725255	-0.330134	0.501660
C25	C	0.684029	-0.481949	0.731546
C26	C	0.601478	-0.481959	0.731568
C27	C	0.560186	-0.431361	0.654946
C28	C	0.601446	-0.380750	0.578310
C29	C	0.560155	-0.330149	0.501695
C30	C	0.601414	-0.279540	0.425051
C31	C	0.683962	-0.279536	0.425038
C32	C	0.477637	-0.431366	0.654960
C33	C	0.477602	-0.330154	0.501713
C34	C	1.142256	-0.586103	0.578242
C35	C	1.142300	-0.673960	0.578263
C36	C	1.192956	-1.045360	0.655203
C37	C	1.091908	-1.045510	0.501547
C38	C	1.091879	-0.962965	0.501520
C39	C	1.142388	-0.921613	0.578336
C40	C	1.192927	-0.962806	0.655180
C41	C	1.041335	-0.921765	0.424686
C42	C	1.041303	-0.839214	0.424656
C43	C	1.091817	-0.797860	0.501467
C44	C	1.142359	-0.839059	0.578314
C45	C	1.192868	-0.797707	0.655130
C46	C	1.243414	-0.838905	0.731971
C47	C	1.243441	-0.921453	0.731992
C48	C	1.091790	-0.715312	0.501447
C49	C	1.192839	-0.715154	0.655108
C50	C	1.348490	-0.380756	0.578328
C51	C	1.436347	-0.380765	0.578345
C52	C	1.142382	-0.380649	0.891329
C53	C	1.142408	-0.380612	1.024729
C54	C	1.142409	-0.174569	0.578357
C55	C	1.142447	-0.086712	0.578387
C56	C	1.142307	-0.380767	0.266461
C57	C	1.142434	-0.380582	0.133062
H58	H	0.567892	-0.523168	0.793974
C59	C	0.852766	-0.486142	0.738136
C60	C	0.900211	-0.441437	0.815149
C61	C	0.941623	-0.491901	0.891843
H62	H	0.816465	-0.516305	0.783892
H63	H	0.884990	-0.520532	0.692158
H64	H	0.867989	-0.407061	0.861122
H65	H	0.936527	-0.411276	0.769426
H66	H	0.973847	-0.526291	0.845865
H67	H	0.905316	-0.522061	0.937590
H68	H	0.973824	-0.461576	0.944097
H69	H	0.717654	-0.523143	0.793926
C70	C	1.298249	-0.966089	0.815628
C71	C	1.280988	-0.945936	0.934336
C72	C	1.331458	-0.987037	1.011421
H73	H	1.291069	-1.021184	0.804802
H74	H	1.351380	-0.952532	0.798230
H75	H	1.227870	-0.959498	0.951729
H76	H	1.288172	-0.890848	0.945200
H77	H	1.384588	-0.973480	0.994023
H78	H	1.324274	-1.042130	1.000585
H79	H	1.319758	-0.973364	1.091972
H80	H	0.444048	-0.472565	0.717370
H81	H	1.233973	-0.681490	0.717657
C82	C	1.298221	-0.793861	0.815241
C83	C	1.287381	-0.712752	0.798752
C84	C	1.337861	-0.671231	0.875425
H85	H	1.286684	-0.807258	0.895918
H86	H	1.351359	-0.807309	0.797743
H87	H	1.234255	-0.699309	0.816259
H88	H	1.298924	-0.699332	0.718091
H89	H	1.390999	-0.684679	0.857927
H90	H	1.326319	-0.684634	0.956097
H91	H	1.330518	-0.616194	0.864240
C92	C	1.037027	-1.090507	0.418345
C93	C	0.986370	-1.137910	0.486239
C94	C	0.935811	-1.179383	0.409628
H95	H	1.006849	-1.054242	0.372546
H96	H	1.067276	-1.122764	0.366130
H97	H	0.956125	-1.105655	0.538434
H98	H	1.016526	-1.174189	0.532036
H99	H	0.966059	-1.211641	0.357413
H100	H	0.905638	-1.143112	0.363833
H101	H	0.901439	-1.211556	0.455682
C102	C	1.247746	-1.090226	0.738583
C103	C	1.236954	-1.171370	0.722187
C104	C	1.287405	-1.212725	0.798987
H105	H	1.300887	-1.076761	0.721168
H106	H	1.236136	-1.076707	0.819229
H107	H	1.248569	-1.184883	0.641560
H108	H	1.183823	-1.184858	0.739611
H109	H	1.275795	-1.199206	0.879633
H110	H	1.340543	-1.199254	0.781566
H111	H	1.280084	-1.267785	0.787881
C112	C	0.986459	-0.966765	0.341482
C113	C	0.935810	-1.014177	0.409374
C114	C	0.885256	-1.055656	0.332761
H115	H	0.956275	-0.930503	0.295686
H116	H	1.016711	-0.999016	0.289264
H117	H	0.905560	-0.981929	0.461571
H118	H	0.965972	-1.050454	0.455168
H119	H	0.915508	-1.087908	0.280543
H120	H	0.855077	-1.019389	0.286969
H121	H	0.850889	-1.087836	0.378814
C122	C	0.986404	-0.794631	0.341091
C123	C	0.942192	-0.848515	0.273804
C124	C	0.891621	-0.807474	0.196797
H125	H	0.951867	-0.762420	0.386802
H126	H	1.016634	-0.762458	0.288767
H127	H	0.911964	-0.880675	0.326122
H128	H	0.976708	-0.880728	0.228069
H129	H	0.921851	-0.775301	0.144473
H130	H	0.857089	-0.775264	0.242517
H131	H	0.861622	-0.844028	0.151126
H132	H	1.050633	-0.681772	0.438890
H133	H	0.841404	-0.288926	0.439237
C134	C	0.432917	-0.275128	0.418482
C135	C	0.486720	-0.230797	0.351385
C136	C	0.445586	-0.180092	0.274713
H137	H	0.400681	-0.305241	0.366014
H138	H	0.400761	-0.240677	0.464463
H139	H	0.518862	-0.265244	0.305407
H140	H	0.518957	-0.200668	0.403821
H141	H	0.413429	-0.145640	0.320694
H142	H	0.413351	-0.210211	0.222253
H143	H	0.482084	-0.150002	0.229186
C144	C	0.728900	-0.224618	0.341971
C145	C	0.810030	-0.235427	0.358385
C146	C	0.851454	-0.184841	0.281902
H147	H	0.715439	-0.236077	0.261253
H148	H	0.715435	-0.171506	0.359692
H149	H	0.823489	-0.288526	0.340656
H150	H	0.823514	-0.223962	0.439087
H151	H	0.837989	-0.131729	0.299623
H152	H	0.837986	-0.196304	0.201188
H153	H	0.906504	-0.192163	0.293036
H154	H	0.567784	-0.238337	0.362677
