data_functionalizedCrystal
_audit_creation_method	'MofGen! by Chris Wilmer'
_symmetry_space_group_name_H-M	'P1'
_symmetry_Int_Tables_number	1
_symmetry_cell_setting	triclinic
loop_
_symmetry_equiv_pos_as_xyz
  x,y,z
_cell_length_a	17.640112
_cell_length_b	21.295417
_cell_length_c	17.640968
_cell_angle_alpha	78.765192
_cell_angle_beta	92.139080
_cell_angle_gamma	101.256239
loop_
_atom_site_label
_atom_site_type_symbol
_atom_site_fract_x
_atom_site_fract_y
_atom_site_fract_z
Zn1	Zn	1.247775	-0.018088	-0.195079
Zn2	Zn	1.221981	-0.147966	-0.068087
Zn3	Zn	1.095099	-0.059037	-0.093722
Zn4	Zn	1.120723	-0.139680	-0.220669
O5	O	1.171395	-0.091193	-0.144389
O6	O	1.350625	-0.021647	-0.156795
O7	O	1.183631	-0.156775	0.034787
O8	O	1.115423	0.034499	-0.107185
O9	O	1.331674	-0.117068	-0.063494
O10	O	1.227593	0.064584	-0.181652
O11	O	1.090412	-0.091439	0.015953
O12	O	0.992227	-0.083404	-0.132000
O13	O	1.159096	-0.102945	-0.323549
O14	O	1.011052	-0.142652	-0.225268
O15	O	1.252440	-0.013612	-0.304748
O16	O	1.208478	-0.234971	-0.088309
O17	O	1.134084	-0.228883	-0.200410
C18	C	0.974084	-0.116573	-0.184193
C19	C	0.889678	-0.127442	-0.201239
C20	C	0.563037	-0.008607	-0.014897
C21	C	0.483727	-0.018831	-0.030925
C22	C	0.503351	-0.080669	-0.127878
C23	C	0.582665	-0.070447	-0.111861
C24	C	0.612502	-0.034416	-0.055369
C25	C	0.632129	-0.096257	-0.152332
C26	C	0.711436	-0.086038	-0.136313
C27	C	0.741279	-0.050011	-0.079823
C28	C	0.691809	-0.024198	-0.039350
C29	C	0.602290	-0.132291	-0.208820
C30	C	0.651755	-0.158101	-0.249291
C31	C	0.731064	-0.147879	-0.233277
C32	C	0.760907	-0.111851	-0.176786
C33	C	0.780534	-0.173691	-0.273749
C34	C	0.859841	-0.163473	-0.257730
C35	C	0.840214	-0.101633	-0.160767
C36	C	1.171287	-0.254765	-0.144367
C37	C	1.171315	-0.324729	-0.144369
C38	C	1.210105	-0.360729	-0.086039
C39	C	1.210144	-0.426464	-0.086049
C40	C	1.171378	-0.456199	-0.144384
C41	C	1.132586	-0.420189	-0.202724
C42	C	1.132555	-0.354454	-0.202717
N43	N	1.106115	-0.566893	-0.163575
N44	N	1.106146	-0.629339	-0.163577
C45	C	1.171472	-0.654254	-0.144410
N46	N	1.236764	-0.614366	-0.125225
N47	N	1.236731	-0.551916	-0.125220
C48	C	1.171408	-0.527477	-0.144398
C49	C	1.210308	-0.761531	-0.086087
C50	C	1.210349	-0.827266	-0.086102
C51	C	1.132784	-0.820991	-0.202775
C52	C	1.132750	-0.755256	-0.202763
C53	C	1.171510	-0.725531	-0.144415
C54	C	1.369475	-0.065714	-0.104431
C55	C	1.453885	-0.054856	-0.087403
C56	C	1.211503	-0.052786	-0.342475
C57	C	1.228595	-0.036419	-0.426887
C58	C	1.171527	0.073024	-0.144424
C59	C	1.171584	0.143004	-0.144438
C60	C	1.041841	-0.215148	-0.753447
C61	C	1.057917	-0.199759	-0.832762
C62	C	1.155108	-0.106745	-0.813176
C63	C	1.139037	-0.122124	-0.733858
C64	C	1.082403	-0.176327	-0.704000
C65	C	1.179600	-0.083303	-0.684411
C66	C	1.163533	-0.098683	-0.605099
C67	C	1.106903	-0.152885	-0.575235
C68	C	1.066336	-0.191707	-0.624689
C69	C	1.236237	-0.029103	-0.714269
C70	C	1.276800	0.009719	-0.664822
C71	C	1.260729	-0.005659	-0.585510
C72	C	1.204100	-0.059860	-0.555646
C73	C	1.301296	0.033164	-0.536056
C74	C	1.285229	0.017784	-0.456745
C75	C	1.188033	-0.075241	-0.476334
C76	C	1.131486	-0.129399	0.052935
C77	C	1.114541	-0.145569	0.137376
H78	H	0.716105	0.005154	0.006639
O79	O	1.095116	-0.849759	-0.259519
C80	C	1.060850	-0.803889	-0.310989
H81	H	1.092468	-0.752489	-0.307363
H82	H	0.997552	-0.809774	-0.294761
C83	C	1.027383	-0.878397	-0.398486
C84	C	1.066220	-0.815267	-0.394038
H85	H	1.030691	-0.885416	-0.449714
H86	H	1.050466	-0.909302	-0.363809
H87	H	0.974637	-0.883294	-0.384959
H88	H	1.118966	-0.810374	-0.407556
H89	H	1.043146	-0.784361	-0.428719
O90	O	0.591895	0.026383	0.040030
C91	C	0.531235	0.046989	0.072305
H92	H	0.474145	0.013409	0.063567
H93	H	0.528485	0.099095	0.042696
C94	C	0.615928	0.085718	0.170094
C95	C	0.545810	0.044471	0.159368
H96	H	0.624919	0.084168	0.223798
H97	H	0.656797	0.071838	0.148348
H98	H	0.613627	0.129136	0.145415
H99	H	0.548115	0.001054	0.184039
H100	H	0.504941	0.058345	0.181120
H101	H	0.864510	-0.072281	-0.114778
O102	O	0.435621	0.006142	0.008451
C103	C	0.379752	-0.045065	0.048292
H104	H	0.402656	-0.092494	0.057935
H105	H	0.324413	-0.050457	0.012665
C106	C	0.334407	0.028605	0.115070
C107	C	0.362541	-0.029648	0.126919
H108	H	0.323787	0.038115	0.163569
H109	H	0.372045	0.063105	0.088226
H110	H	0.288294	0.024104	0.085378
H111	H	0.408658	-0.025144	0.156601
H112	H	0.324910	-0.064147	0.153770
H113	H	1.347413	0.077292	-0.560378
O114	O	1.247908	-0.461452	-0.029468
C115	C	1.305690	-0.484755	-0.062843
H116	H	1.322469	-0.452719	-0.121712
H117	H	1.282739	-0.537102	-0.070199
C118	C	1.356535	-0.522117	0.062463
C119	C	1.377148	-0.482767	-0.009838
H120	H	1.400613	-0.520895	0.095160
H121	H	1.317605	-0.506421	0.084949
H122	H	1.337409	-0.565737	0.056323
H123	H	1.396265	-0.439148	-0.003698
H124	H	1.416084	-0.498457	-0.032322
H125	H	1.024882	-0.231377	-0.873021
O126	O	1.247637	-0.331857	-0.029306
C127	C	1.194489	-0.308944	0.011060
H128	H	1.133729	-0.337412	0.003730
H129	H	1.196589	-0.254904	-0.012942
C130	C	1.290301	-0.283496	0.106478
C131	C	1.215675	-0.318464	0.097482
H132	H	1.303370	-0.289365	0.159787
H133	H	1.326109	-0.298930	0.079282
H134	H	1.292042	-0.238465	0.086472
H135	H	1.213938	-0.363495	0.117479
H136	H	1.179867	-0.303038	0.124684
H137	H	1.101025	-0.444402	-0.250222
O138	O	1.095186	-0.720227	-0.259480
C139	C	1.148298	-0.667065	-0.299836
H140	H	1.209076	-0.678212	-0.292515
H141	H	1.146154	-0.621467	-0.275820
C142	C	1.052460	-0.641845	-0.395245
C143	C	1.127108	-0.655538	-0.386257
H144	H	1.039388	-0.634732	-0.448553
H145	H	1.016676	-0.677659	-0.368054
H146	H	1.050683	-0.603848	-0.375226
H147	H	1.128882	-0.693539	-0.406267
H148	H	1.162892	-0.619729	-0.413453
O149	O	0.474242	-0.115627	-0.182751
C150	C	0.393633	-0.119128	-0.188198
H151	H	0.377797	-0.076715	-0.165614
H152	H	0.362900	-0.167177	-0.152226
C153	C	0.387939	-0.167431	-0.300985
C154	C	0.368489	-0.115335	-0.273253
H155	H	0.372427	-0.165094	-0.353449
H156	H	0.442246	-0.165075	-0.297314
H157	H	0.362326	-0.207467	-0.271001
H158	H	0.394108	-0.075301	-0.303230
H159	H	0.314185	-0.117684	-0.276930
O160	O	0.622646	-0.193059	-0.304165
C161	C	0.542037	-0.196560	-0.309612
H162	H	0.526201	-0.154147	-0.287028
H163	H	0.511305	-0.244609	-0.273640
C164	C	0.536343	-0.244863	-0.422398
C165	C	0.516893	-0.192767	-0.394666
H166	H	0.520831	-0.242526	-0.474863
H167	H	0.590650	-0.242506	-0.418728
H168	H	0.510731	-0.284898	-0.392415
H169	H	0.542512	-0.152733	-0.424644
H170	H	0.462589	-0.195116	-0.398344
O171	O	1.011319	-0.244319	-0.595557
C172	C	1.005855	-0.249577	-0.514948
H173	H	1.028576	-0.199890	-0.499109
H174	H	1.041705	-0.286086	-0.484273
C175	C	0.892859	-0.334146	-0.509183
C176	C	0.920759	-0.273119	-0.489730
H177	H	0.840369	-0.348671	-0.493626
H178	H	0.896541	-0.330606	-0.563490
H179	H	0.922741	-0.364562	-0.483619
H180	H	0.890883	-0.242702	-0.515302
H181	H	0.917069	-0.276654	-0.435427
O182	O	0.751525	-0.208590	-0.328708
C183	C	0.715600	-0.169201	-0.387084
H184	H	0.740491	-0.115616	-0.387056
H185	H	0.650737	-0.179300	-0.375741
C186	C	0.699778	-0.250733	-0.466246
C187	C	0.730355	-0.184918	-0.466216
H188	H	0.708876	-0.260429	-0.515058
H189	H	0.723979	-0.277271	-0.426916
H190	H	0.645728	-0.259140	-0.456790
H191	H	0.784405	-0.176513	-0.475663
H192	H	0.706164	-0.158378	-0.505550
H193	H	1.318258	0.049397	-0.416484
H194	H	1.201222	-0.062614	-0.837497
O195	O	1.331764	0.062363	-0.693961
C196	C	1.337264	0.067604	-0.774564
H197	H	1.280838	0.041544	-0.797222
H198	H	1.386844	0.044236	-0.787970
C199	C	1.421823	0.172104	-0.786064
C200	C	1.352517	0.140102	-0.813894
H201	H	1.431235	0.216824	-0.810325
H202	H	1.418120	0.168572	-0.731760
H203	H	1.463132	0.152624	-0.797238
H204	H	1.311209	0.159576	-0.802711
H205	H	1.356214	0.143638	-0.868197
H206	H	1.141897	-0.119366	-0.452027
H207	H	1.093825	-0.165408	-0.510654
H208	H	0.995706	-0.259273	-0.729140
O209	O	1.094928	-0.319524	-0.259477
C210	C	1.126814	-0.318721	-0.331847
H211	H	1.156354	-0.362359	-0.327565
H212	H	1.171005	-0.271697	-0.349578
C213	C	1.025766	-0.268821	-0.397994
C214	C	1.062042	-0.322421	-0.392735
H215	H	0.985812	-0.271101	-0.435554
H216	H	1.004284	-0.269360	-0.349237
H217	H	1.062598	-0.229640	-0.412767
H218	H	1.025211	-0.361601	-0.377953
H219	H	1.083515	-0.321889	-0.441491
H220	H	0.805856	-0.041693	-0.066780
H221	H	0.537713	-0.140610	-0.221860
O222	O	1.247903	-0.732743	-0.029318
C223	C	1.216035	-0.765646	0.043048
H224	H	1.186548	-0.817465	0.038751
H225	H	1.171803	-0.738681	0.060790
C226	C	1.317022	-0.704373	0.109210
C227	C	1.280811	-0.768019	0.103934
H228	H	1.356978	-0.705834	0.146769
H229	H	1.338491	-0.682203	0.060457
H230	H	1.280155	-0.681908	0.123993
H231	H	1.317676	-0.790479	0.089142
H232	H	1.259350	-0.790192	0.152687
H233	H	0.900117	-0.184489	-0.290687
H234	H	1.241941	-0.856576	-0.038603
H235	H	1.249319	-0.016583	-0.778850
