data_functionalizedCrystal
_audit_creation_method	'MofGen! by Chris Wilmer'
_symmetry_space_group_name_H-M	'P1'
_symmetry_Int_Tables_number	1
_symmetry_cell_setting	triclinic
loop_
_symmetry_equiv_pos_as_xyz
  x,y,z
_cell_length_a	10.489741
_cell_length_b	17.038272
_cell_length_c	9.565339
_cell_angle_alpha	89.999972
_cell_angle_beta	89.999100
_cell_angle_gamma	87.825365
loop_
_atom_site_label
_atom_site_type_symbol
_atom_site_fract_x
_atom_site_fract_y
_atom_site_fract_z
O1	O	1.704376	0.110370	-0.116175
O2	O	1.334150	0.120730	-0.116197
O3	O	1.517063	0.001722	-0.116175
O4	O	1.521463	0.229378	-0.116197
O5	O	1.517048	0.001729	0.116345
O6	O	1.334135	0.120738	0.116323
O7	O	1.704362	0.110377	0.116345
Zn8	Zn	1.519246	0.115558	0.153252
Zn9	Zn	1.519265	0.115549	-0.153103
O10	O	1.521449	0.229385	0.116324
C11	C	1.286537	0.119951	0.000061
C12	C	1.144689	0.117610	0.000053
C13	C	1.513053	-0.027426	0.000085
C14	C	1.501111	-0.114288	0.000084
C15	C	1.069466	0.041889	0.000073
C16	C	0.980692	0.077655	-0.114572
C17	C	0.980714	0.077680	0.114675
C18	C	1.057783	0.153408	-0.114687
C19	C	1.057813	0.153423	0.114662
C20	C	0.969072	0.189244	-0.000011
C21	C	1.610749	-0.163767	0.000092
C22	C	1.599521	-0.245383	0.000078
C23	C	1.478654	-0.277518	0.000066
C24	C	1.369007	-0.228032	0.000054
C25	C	1.380237	-0.146418	0.000058
C26	C	1.438983	-0.523505	0.000044
C27	C	1.427762	-0.605126	0.000045
C28	C	1.658277	-0.622471	0.000066
C29	C	1.669495	-0.540855	0.000078
C30	C	1.559849	-0.491376	0.000059
C31	C	1.467174	-0.360942	0.000056
C32	C	1.571330	-0.407954	0.000059
C33	C	1.751974	0.111156	0.000085
C34	C	1.893822	0.113497	0.000084
C35	C	1.525458	0.258533	0.000061
C36	C	1.537400	0.345395	0.000053
N37	N	1.519242	0.115565	0.362331
N38	N	1.519279	0.115536	-0.362183
C39	C	1.434621	0.170584	0.453524
C40	C	1.551599	0.186413	0.546708
C41	C	1.402315	0.099741	0.546703
C42	C	1.636281	0.131430	0.453464
C43	C	1.486918	0.044727	0.453450
C44	C	1.603976	0.060527	0.546592
H45	H	1.113334	-0.020359	-0.000064
H46	H	0.946731	0.045630	0.211599
O47	O	0.940185	0.039307	-0.230091
C48	C	0.991624	-0.038356	-0.229700
H49	H	1.017379	-0.056353	-0.118135
H50	H	0.918142	-0.079560	-0.272996
H51	H	1.080943	-0.041955	-0.297651
H52	H	1.349700	-0.483229	0.000029
H53	H	1.675636	0.013985	0.587199
H54	H	1.270594	-0.254202	0.000035
H55	H	1.091612	0.185419	-0.211720
O56	O	1.728064	-0.132426	0.000164
C57	C	1.714472	-0.049781	0.000132
H58	H	1.616953	-0.031177	0.044150
H59	H	1.792346	-0.024305	0.067641
H60	H	1.723127	-0.027031	-0.111419
H61	H	0.925476	0.251558	-0.000079
O62	O	1.273642	-0.098430	-0.000134
C63	C	1.200811	-0.113083	-0.120584
H64	H	1.225432	-0.174808	-0.160727
H65	H	1.094986	-0.107937	-0.093513
H66	H	1.223120	-0.068354	-0.204909
O67	O	1.688807	-0.376835	0.000254
C68	C	1.756157	-0.402034	0.120704
H69	H	1.715237	-0.458827	0.160850
H70	H	1.861215	-0.412757	0.093633
H71	H	1.746482	-0.354898	0.205028
O72	O	1.349487	0.226241	0.404823
C73	C	1.384056	0.300818	0.452373
H74	H	1.490155	0.299208	0.478500
H75	H	1.363402	0.346313	0.367149
H76	H	1.326565	0.317238	0.549917
H77	H	1.578964	0.246307	0.587671
H78	H	1.091847	0.185439	0.211587
O79	O	1.706154	-0.293334	0.000157
C80	C	1.815241	-0.247471	0.000146
H81	H	1.789447	-0.186751	0.044165
H82	H	1.892595	-0.277119	0.067666
H83	H	1.851893	-0.241456	-0.111399
H84	H	1.767918	-0.514697	0.000088
O85	O	1.349837	-0.392253	-0.000129
C86	C	1.336445	-0.438925	-0.120575
H87	H	1.434836	-0.458673	-0.160726
H88	H	1.279784	-0.492652	-0.093494
H89	H	1.283887	-0.403193	-0.204896
O90	O	1.754192	0.147545	0.404587
C91	C	1.752731	0.147407	0.257196
H92	H	1.650936	0.159073	0.218652
H93	H	1.816173	0.195240	0.216523
H94	H	1.789905	0.087797	0.217228
H95	H	1.747544	-0.662765	0.000079
O96	O	1.454014	-0.026672	0.404595
C97	C	1.330603	-0.043120	0.452047
H98	H	1.276285	0.014216	0.478253
H99	H	1.277624	-0.075354	0.366732
H100	H	1.338105	-0.081520	0.549522
O101	O	1.284271	0.083736	0.595324
C102	C	1.201169	0.073281	0.481544
H103	H	1.259118	0.055990	0.384770
H104	H	1.132742	0.024934	0.507358
H105	H	1.144450	0.130461	0.460500
O106	O	1.310318	-0.636308	-0.000227
C107	C	1.242951	-0.611079	-0.120648
H108	H	1.313485	-0.593714	-0.204804
H109	H	1.183306	-0.660823	-0.161080
H110	H	1.177587	-0.558302	-0.093436
