data_functionalizedCrystal
_audit_creation_method	'MofGen! by Chris Wilmer'
_symmetry_space_group_name_H-M	'P1'
_symmetry_Int_Tables_number	1
_symmetry_cell_setting	triclinic
loop_
_symmetry_equiv_pos_as_xyz
  x,y,z
_cell_length_a	16.959455
_cell_length_b	12.594516
_cell_length_c	16.959447
_cell_angle_alpha	90.026014
_cell_angle_beta	90.020374
_cell_angle_gamma	90.015193
loop_
_atom_site_label
_atom_site_type_symbol
_atom_site_fract_x
_atom_site_fract_y
_atom_site_fract_z
Zn1	Zn	1.208394	-0.423806	0.447060
Zn2	Zn	1.208321	-0.601813	0.314891
Zn3	Zn	1.076223	-0.423839	0.314884
Zn4	Zn	1.076192	-0.601733	0.447016
O5	O	1.142282	-0.512798	0.380963
O6	O	1.318995	-0.447438	0.429549
O7	O	1.190780	-0.578251	0.204279
O8	O	1.093799	-0.274889	0.332432
O9	O	1.318942	-0.578219	0.332446
O10	O	1.190905	-0.274864	0.429542
O11	O	1.093728	-0.447495	0.204274
O12	O	0.965608	-0.447418	0.332389
O13	O	1.093746	-0.578084	0.557633
O14	O	0.965585	-0.578116	0.429467
O15	O	1.190875	-0.447361	0.557665
O16	O	1.190750	-0.750748	0.332403
O17	O	1.093675	-0.750690	0.429474
C18	C	0.936916	-0.512763	0.380923
C19	C	0.849060	-0.512774	0.380925
C20	C	0.477545	-0.580828	0.330375
C21	C	0.477623	-0.444856	0.431647
C22	C	0.560169	-0.444838	0.431627
C23	C	0.601407	-0.512818	0.380982
C24	C	0.560099	-0.580815	0.330356
C25	C	0.601482	-0.376850	0.482258
C26	C	0.684033	-0.376831	0.482242
C27	C	0.725273	-0.444806	0.431592
C28	C	0.683960	-0.512805	0.380963
C29	C	0.725198	-0.580784	0.330318
C30	C	0.683887	-0.648778	0.279684
C31	C	0.601339	-0.648790	0.279706
C32	C	0.807821	-0.444794	0.431570
C33	C	0.807752	-0.580771	0.330298
C34	C	1.142223	-0.789339	0.380952
C35	C	1.142270	-0.907644	0.380974
C36	C	1.089514	-1.047668	0.433744
C37	C	1.161573	-0.976762	0.453143
C38	C	1.070219	-0.976978	0.361610
C39	C	1.214496	-1.047524	0.400439
C40	C	1.123093	-1.047746	0.308873
C41	C	1.195202	-0.976872	0.328244
C42	C	1.348451	-0.512833	0.381003
C43	C	1.436307	-0.512849	0.381020
C44	C	1.142315	-0.512710	0.587131
C45	C	1.142329	-0.512672	0.674988
C46	C	1.142364	-0.235177	0.380991
C47	C	1.142398	-0.116871	0.381003
C48	C	1.142295	-0.512809	0.175596
C49	C	1.142434	-0.512546	0.087740
C50	C	1.091853	-0.580621	1.046449
C51	C	1.192994	-0.444499	1.046478
C52	C	1.192973	-0.444521	0.963932
C53	C	1.142392	-0.512596	0.922641
C54	C	1.091832	-0.580648	0.963896
C55	C	1.243538	-0.376478	0.922671
C56	C	1.243519	-0.376499	0.840120
C57	C	1.192934	-0.444569	0.798827
C58	C	1.142371	-0.512623	0.840087
C59	C	1.091790	-0.580697	0.798796
C60	C	1.041223	-0.648747	0.840054
C61	C	1.041247	-0.648718	0.922603
C62	C	1.192910	-0.444597	0.716279
C63	C	1.091770	-0.580724	0.716242
H64	H	0.841322	-0.636125	0.289054
H65	H	0.717474	-0.704133	0.238453
O66	O	1.292602	-0.310399	0.962901
C67	C	1.337498	-0.250097	1.090091
C68	C	1.281876	-0.324966	1.044624
H69	H	1.328858	-0.261864	1.156172
H70	H	1.323650	-0.164246	1.073936
H71	H	1.401214	-0.268807	1.073817
H72	H	1.218142	-0.306351	1.060873
H73	H	1.295792	-0.410795	1.060783
O74	O	0.437479	-0.378975	0.480879
C75	C	0.344377	-0.364857	0.587667
C76	C	0.389781	-0.439591	0.531947
H77	H	0.305815	-0.413836	0.628980
H78	H	0.305658	-0.309172	0.551497
H79	H	0.388095	-0.316230	0.623810
H80	H	0.346120	-0.488288	0.495791
H81	H	0.428512	-0.495207	0.568162
H82	H	1.275501	-1.078385	0.416900
H83	H	0.567900	-0.321512	0.523496
O84	O	1.103742	-1.084853	0.236079
C85	C	1.136727	-1.089460	0.097929
C86	C	1.158733	-1.047340	0.180319
H87	H	1.181185	-1.059167	0.052827
H88	H	1.075216	-1.060504	0.081427
H89	H	1.137518	-1.179966	0.098552
H90	H	1.157988	-0.956836	0.179759
H91	H	1.220231	-1.076378	0.196789
O92	O	0.724194	-0.310931	0.531504
C93	C	0.817496	-0.296756	0.638184
C94	C	0.772049	-0.371512	0.582459
H95	H	0.856210	-0.345705	0.679383
H96	H	0.773875	-0.248194	0.674442
H97	H	0.856088	-0.241011	0.601936
H98	H	0.733455	-0.427321	0.618645
H99	H	0.815712	-0.420000	0.546198
H100	H	0.567696	-0.704146	0.238483
O101	O	1.248654	-0.940062	0.275110
C102	C	1.385030	-0.934489	0.235501
C103	C	1.324580	-0.976229	0.295737
H104	H	1.446427	-0.963732	0.252148
H105	H	1.384289	-0.843976	0.235512
H106	H	1.369111	-0.964920	0.174210
H107	H	1.340457	-0.945877	0.357057
H108	H	1.325332	-1.066741	0.295657
O109	O	1.042746	-0.646907	0.676046
C110	C	1.032056	-0.790685	0.582860
C111	C	1.087661	-0.715785	0.628320
H112	H	1.068348	-0.846406	0.544276
H113	H	0.990746	-0.741882	0.544158
H114	H	0.995902	-0.839265	0.626542
H115	H	1.123866	-0.667188	0.584695
H116	H	1.128919	-0.764648	0.667034
H117	H	0.443906	-0.636184	0.289148
H118	H	1.044901	-1.078749	0.478392
O119	O	0.997400	-0.940151	0.342132
C120	C	0.859436	-0.934333	0.375773
C121	C	0.941858	-0.976112	0.397909
H122	H	0.814510	-0.963372	0.420866
H123	H	0.842552	-0.964797	0.314748
H124	H	0.860239	-0.843824	0.375343
H125	H	0.941116	-1.066618	0.398385
H126	H	0.958708	-0.945567	0.458920
O127	O	0.847988	-0.378909	0.480833
C128	C	0.941294	-0.364762	0.587511
C129	C	0.895841	-0.439504	0.531780
H130	H	0.980007	-0.413722	0.628705
H131	H	0.897678	-0.316201	0.623775
H132	H	0.979889	-0.309016	0.551267
H133	H	0.857245	-0.495314	0.567963
H134	H	0.939500	-0.487991	0.495514
O135	O	0.992116	-0.714774	0.799818
C136	C	0.947312	-0.775184	0.672625
C137	C	1.002948	-0.700340	0.718097
H138	H	0.956062	-0.763556	0.606545
H139	H	0.883565	-0.756474	0.688783
H140	H	0.961159	-0.860996	0.688891
H141	H	0.989173	-0.614503	0.701855
H142	H	1.066678	-0.719142	0.701935
O143	O	1.180864	-0.939608	0.525944
C144	C	1.147042	-0.933578	0.663862
C145	C	1.125102	-0.975700	0.581455
H146	H	1.101980	-0.962760	0.708768
H147	H	1.147327	-0.843067	0.663048
H148	H	1.208105	-0.963784	0.680784
H149	H	1.064035	-0.945572	0.564483
H150	H	1.124871	-1.066210	0.582314
O151	O	0.992206	-0.714784	0.962803
C152	C	0.947385	-0.775020	1.089964
C153	C	1.002974	-0.700166	1.044532
H154	H	0.956060	-0.763212	1.156050
H155	H	0.961234	-0.860878	1.073781
H156	H	0.883658	-0.756332	1.073685
H157	H	1.066719	-0.718758	1.060786
H158	H	0.989057	-0.614331	1.060719
O159	O	1.042809	-0.646688	1.086644
C160	C	0.997971	-0.706928	1.213798
C161	C	1.053566	-0.632072	1.168375
H162	H	1.006636	-0.695121	1.279885
H163	H	1.011823	-0.792785	1.197616
H164	H	0.934246	-0.688241	1.197511
H165	H	1.117309	-0.650663	1.184638
H166	H	1.039645	-0.546237	1.184561
H167	H	1.234179	-0.389081	1.080102
H168	H	1.284694	-0.321088	0.806534
H169	H	1.234083	-0.389196	0.682690
