data_functionalizedCrystal
_audit_creation_method	'MofGen! by Chris Wilmer'
_symmetry_space_group_name_H-M	'P1'
_symmetry_Int_Tables_number	1
_symmetry_cell_setting	triclinic
loop_
_symmetry_equiv_pos_as_xyz
  x,y,z
_cell_length_a	10.654562
_cell_length_b	15.625429
_cell_length_c	9.130313
_cell_angle_alpha	71.921598
_cell_angle_beta	89.996930
_cell_angle_gamma	84.353932
loop_
_atom_site_label
_atom_site_type_symbol
_atom_site_fract_x
_atom_site_fract_y
_atom_site_fract_z
O1	O	1.666503	0.126673	-0.189164
O2	O	1.300901	0.138725	-0.195545
O3	O	1.493474	0.001525	-0.122687
O4	O	1.473930	0.263872	-0.262021
O5	O	1.493471	0.001529	0.120909
O6	O	1.300899	0.138728	0.048052
O7	O	1.666501	0.126676	0.054433
Cu8	Cu	1.483699	0.132703	0.073485
Cu9	Cu	1.483702	0.132698	-0.214597
O10	O	1.473928	0.263876	-0.018425
C11	C	1.254111	0.137839	-0.073273
C12	C	1.114697	0.135184	-0.071856
C13	C	1.049177	0.133948	0.061574
C14	C	0.918181	0.131461	0.062871
C15	C	0.918234	0.131450	-0.202708
C16	C	1.049229	0.133931	-0.204000
C17	C	1.049145	0.133958	0.214903
C18	C	0.918149	0.131471	0.216199
C19	C	1.492589	-0.032065	0.016949
C20	C	1.489941	-0.132160	0.070102
C21	C	1.481205	-0.461372	-0.418956
C22	C	1.478711	-0.555426	-0.368966
C23	C	1.478709	-0.555408	-0.103414
C24	C	1.481209	-0.461353	-0.153382
C25	C	1.482455	-0.414342	-0.311154
C26	C	1.482459	-0.414323	-0.045580
C27	C	1.484952	-0.320275	-0.095544
C28	C	1.486194	-0.273257	-0.253310
C29	C	1.484948	-0.320294	-0.361119
C30	C	1.481204	-0.461335	0.112192
C31	C	1.482454	-0.414305	0.219994
C32	C	1.484956	-0.320256	0.170031
C33	C	1.486198	-0.273238	0.012264
C34	C	1.486202	-0.273219	0.277839
C35	C	1.488695	-0.179171	0.227874
C36	C	1.488691	-0.179190	-0.037700
C37	C	1.713290	0.127562	-0.067842
C38	C	1.852705	0.130217	-0.069268
C39	C	1.474813	0.297466	-0.158065
C40	C	1.477460	0.397561	-0.211227
N41	N	1.483707	0.132705	0.276106
N42	N	1.483705	0.132689	-0.417214
C43	C	1.568999	0.071974	0.385008
C44	C	1.568996	0.071963	0.538351
C45	C	1.398403	0.193423	0.473871
C46	C	1.398401	0.193428	0.320534
C47	C	1.667494	0.001853	0.422235
C48	C	1.667491	0.001843	0.575578
H49	H	1.096054	0.071657	0.306874
F50	F	1.628493	-0.083742	0.683190
F51	F	1.486291	-0.270258	-0.529039
H52	H	1.078033	0.199708	0.227559
F53	F	1.793426	0.022029	0.619253
H54	H	1.328939	0.242872	0.231869
F55	F	0.880351	0.045607	0.324238
F56	F	1.307619	0.258044	0.521168
F57	F	1.118958	0.135229	-0.346005
F58	F	1.477373	-0.605449	0.064494
F59	F	0.848549	0.130107	-0.343332
F60	F	1.640412	-0.088716	0.415931
H61	H	0.871212	0.193776	0.241973
F62	F	1.786370	0.030566	0.344810
F63	F	1.490034	-0.129154	-0.205620
H64	H	1.488210	-0.196676	-0.293990
F65	F	1.482548	-0.411336	-0.586876
F66	F	1.477375	-0.605475	-0.483717
H67	H	1.481434	-0.452593	0.348453
F68	F	1.490032	-0.129116	0.342609
F69	F	1.478547	-0.561430	0.165366
H70	H	1.485175	-0.311508	0.406297
