data_functionalizedCrystal
_audit_creation_method	'MofGen! by Chris Wilmer'
_symmetry_space_group_name_H-M	'P1'
_symmetry_Int_Tables_number	1
_symmetry_cell_setting	triclinic
loop_
_symmetry_equiv_pos_as_xyz
  x,y,z
_cell_length_a	17.699083
_cell_length_b	16.176319
_cell_length_c	17.699083
_cell_angle_alpha	90.000352
_cell_angle_beta	83.283014
_cell_angle_gamma	90.001389
loop_
_atom_site_label
_atom_site_type_symbol
_atom_site_fract_x
_atom_site_fract_y
_atom_site_fract_z
O1	O	1.004079	0.068619	0.095713
O2	O	0.783700	0.068644	0.108166
O3	O	0.900116	0.068639	-0.008250
O4	O	0.887663	0.068624	0.212129
O5	O	0.900100	-0.068854	-0.008257
O6	O	0.783684	-0.068849	0.108158
O7	O	1.004063	-0.068874	0.095706
Cu8	Cu	0.893872	-0.081416	0.101931
Cu9	Cu	0.893891	0.081186	0.101940
O10	O	0.887647	-0.068869	0.212121
C11	C	0.755495	-0.000099	0.107716
C12	C	0.671477	-0.000088	0.106377
N13	N	0.893864	-0.195781	0.101925
C14	C	0.622856	-0.000093	0.174710
C15	C	0.543913	-0.000104	0.173448
C16	C	0.513592	-0.000104	0.103852
C17	C	0.562219	-0.000101	0.035513
C18	C	0.641161	-0.000097	0.036776
C19	C	0.243856	-0.000121	0.030418
C20	C	0.164908	-0.000124	0.029160
C21	C	0.146608	-0.000129	0.167090
C22	C	0.225550	-0.000124	0.168353
C23	C	0.274170	-0.000126	0.100015
C24	C	0.359769	-0.000116	0.101384
C25	C	0.427995	-0.000108	0.102481
C26	C	0.945429	-0.239048	0.050397
C27	C	0.945432	-0.325595	0.050396
C28	C	0.893875	-0.368874	0.101927
C29	C	0.842305	-0.325601	0.153457
C30	C	0.842299	-0.239055	0.153454
C31	C	0.842331	-0.674629	0.153472
C32	C	0.842344	-0.761181	0.153473
C33	C	0.945465	-0.761168	0.050414
C34	C	0.945458	-0.674623	0.050410
C35	C	0.893886	-0.631358	0.101937
C36	C	0.893882	-0.537514	0.101937
C37	C	0.893883	-0.462716	0.101932
C38	C	1.032268	-0.000129	0.096156
C39	C	1.116286	-0.000134	0.097494
C40	C	0.899662	-0.000104	-0.036451
C41	C	0.898323	-0.000092	-0.120469
N42	N	0.893905	0.195551	0.101941
C43	C	0.888102	-0.000124	0.240322
C44	C	0.889440	-0.000131	0.324340
C45	C	0.821107	-0.000123	0.372961
C46	C	0.822369	-0.000113	0.451904
C47	C	0.891965	-0.000117	0.482225
C48	C	0.960304	-0.000123	0.433598
C49	C	0.959041	-0.000126	0.354656
C50	C	0.965399	-0.000107	0.751961
C51	C	0.966657	-0.000106	0.830909
C52	C	0.828727	-0.000094	0.849209
C53	C	0.827464	-0.000097	0.770267
C54	C	0.895803	-0.000098	0.721647
C55	C	0.894433	-0.000107	0.636048
C56	C	0.893336	-0.000115	0.567823
H57	H	0.647537	-0.000093	0.231384
H58	H	0.250232	-0.000120	0.225025
H59	H	0.770792	-0.000098	0.745585
H60	H	0.283434	-0.000124	-0.025228
H61	H	0.504328	-0.000107	0.229092
H62	H	0.773083	-0.000090	0.888806
H63	H	0.987456	-0.796404	0.008455
H64	H	0.537526	-0.000113	-0.021154
H65	H	0.987416	-0.203816	0.008438
H66	H	0.987419	-0.360822	0.008438
H67	H	0.107012	-0.000131	0.222734
H68	H	0.987444	-0.639388	0.008451
H69	H	0.140225	-0.000125	-0.027517
H70	H	0.680748	-0.000092	-0.018868
H71	H	0.800309	-0.203829	0.195412
H72	H	0.800357	-0.796417	0.195437
H73	H	1.016971	-0.000128	0.458291
H74	H	1.014685	-0.000129	0.315069
H75	H	0.800341	-0.639410	0.195428
H76	H	0.800323	-0.360844	0.195413
H77	H	0.764433	-0.000129	0.348280
H78	H	0.766725	-0.000104	0.491489
H79	H	1.023334	-0.000108	0.855592
H80	H	1.021045	-0.000113	0.712383
