data_functionalizedCrystal
_audit_creation_method	'MofGen! by Chris Wilmer'
_symmetry_space_group_name_H-M	'P1'
_symmetry_Int_Tables_number	1
_symmetry_cell_setting	triclinic
loop_
_symmetry_equiv_pos_as_xyz
  x,y,z
_cell_length_a	10.489694
_cell_length_b	10.489716
_cell_length_c	10.868271
_cell_angle_alpha	90.001092
_cell_angle_beta	89.996817
_cell_angle_gamma	95.475458
loop_
_atom_site_label
_atom_site_type_symbol
_atom_site_fract_x
_atom_site_fract_y
_atom_site_fract_z
O1	O	-1.694072	0.179685	0.102279
O2	O	-1.322867	0.196641	0.102287
O3	O	-1.516933	0.002562	0.102287
O4	O	-1.500007	0.373764	0.102279
O5	O	-1.516917	0.002554	-0.102358
O6	O	-1.322851	0.196633	-0.102358
O7	O	-1.694056	0.179677	-0.102366
Zn8	Zn	-1.508451	0.188154	-0.134854
Zn9	Zn	-1.508472	0.188164	0.134775
O10	O	-1.499991	0.373756	-0.102366
C11	C	-1.275327	0.195369	-0.000034
C12	C	-1.133695	0.191576	-0.000030
C13	C	-1.036010	0.310589	-0.000029
C14	C	-0.958660	0.247707	-0.100933
C15	C	-0.958683	0.247686	0.100831
C16	C	-1.058211	0.128743	-0.101017
C17	C	-1.058239	0.128739	0.100837
C18	C	-0.980939	0.065769	-0.000091
C19	C	-1.515653	-0.044974	-0.000031
C20	C	-1.511848	-0.186605	-0.000020
C21	C	-1.630855	-0.284298	-0.000034
C22	C	-1.567977	-0.361645	0.100865
C23	C	-1.567934	-0.361616	-0.100899
C24	C	-1.449020	-0.262085	0.100962
C25	C	-1.448994	-0.262052	-0.100892
C26	C	-1.386028	-0.339349	0.000031
C27	C	-0.741594	0.180969	-0.000039
C28	C	-0.883219	0.184823	-0.000025
C29	C	-1.501271	0.421292	-0.000045
C30	C	-1.505075	0.562923	-0.000048
N31	N	-1.508446	0.188146	-0.318868
C32	C	-1.508466	0.188161	-0.569874
C33	C	-1.508451	0.188157	-0.430196
N34	N	-1.508488	0.188162	0.318789
H35	H	-1.101746	0.078540	0.186149
H36	H	-1.398794	-0.218528	-0.186197
H37	H	-1.101526	0.078528	-0.186409
H38	H	-0.915201	0.297954	0.186126
C39	C	-0.947932	-0.074172	-0.000170
N40	N	-0.923065	-0.179574	-0.000236
C41	C	-1.635822	-0.420347	-0.216144
N42	N	-1.686963	-0.464578	-0.302943
H43	H	-1.734371	-0.259639	0.000066
H44	H	-0.915166	0.297944	-0.186240
H45	H	-1.060670	0.414104	-0.000126
H46	H	-1.618221	-0.405145	0.186167
C47	C	-1.381212	-0.203574	0.216339
N48	N	-1.330146	-0.159501	0.303242
H49	H	-1.282435	-0.363762	0.000088
