data_functionalizedCrystal
_audit_creation_method	'MofGen! by Chris Wilmer'
_symmetry_space_group_name_H-M	'P1'
_symmetry_Int_Tables_number	1
_symmetry_cell_setting	triclinic
loop_
_symmetry_equiv_pos_as_xyz
  x,y,z
_cell_length_a	15.538191
_cell_length_b	18.266242
_cell_length_c	15.625429
_cell_angle_alpha	108.083489
_cell_angle_beta	66.736792
_cell_angle_gamma	90.010680
loop_
_atom_site_label
_atom_site_type_symbol
_atom_site_fract_x
_atom_site_fract_y
_atom_site_fract_z
O1	O	1.249530	-0.016799	-0.292680
O2	O	1.749530	0.483201	0.207320
O3	O	0.975409	0.010820	-0.188629
O4	O	1.475409	0.510820	0.311371
O5	O	1.119790	-0.038466	-0.374288
O6	O	1.619790	0.461534	0.125712
O7	O	1.105150	0.032486	-0.107021
O8	O	1.605150	0.532486	0.392979
O9	O	1.119765	-0.160228	-0.374287
O10	O	1.619765	0.339772	0.125713
O11	O	0.975385	-0.110942	-0.188628
O12	O	1.475385	0.389058	0.311372
O13	O	1.249506	-0.138561	-0.292679
O14	O	1.749506	0.361439	0.207321
Zn15	Zn	1.112441	-0.144084	-0.240653
Zn16	Zn	1.612441	0.355916	0.259347
Zn17	Zn	1.112474	0.016342	-0.240655
Zn18	Zn	1.612474	0.516342	0.259345
O19	O	1.105125	-0.089276	-0.107020
O20	O	1.605125	0.410724	0.392980
C21	C	0.940316	-0.047172	-0.177742
C22	C	1.440316	0.452828	0.322258
C23	C	0.835785	-0.038565	-0.145315
C24	C	1.335785	0.461435	0.354685
N25	N	1.112426	-0.253571	-0.240655
N26	N	1.612426	0.246429	0.259345
C27	C	0.547568	-0.124077	-0.467471
C28	C	1.047568	0.375923	0.032529
C29	C	0.449342	-0.115981	-0.436978
C30	C	0.949342	0.384019	0.063022
C31	C	0.427127	-0.070449	-0.265462
C32	C	0.927127	0.429551	0.234538
C33	C	0.525352	-0.078544	-0.295940
C34	C	1.025352	0.421456	0.204060
C35	C	0.585565	-0.105358	-0.396946
C36	C	1.085565	0.394642	0.103054
C37	C	0.563350	-0.059825	-0.225415
C38	C	1.063350	0.440175	0.274585
C39	C	0.661567	-0.067916	-0.255892
C40	C	1.161567	0.432084	0.244108
C41	C	0.721786	-0.094726	-0.356894
C42	C	1.221786	0.405274	0.143106
C43	C	0.683782	-0.113449	-0.427423
C44	C	1.183782	0.386551	0.072577
C45	C	0.503135	-0.033006	-0.124410
C46	C	1.003135	0.466994	0.375590
C47	C	0.541133	-0.014286	-0.053885
C48	C	1.041133	0.485714	0.446115
C49	C	0.639351	-0.022383	-0.084361
C50	C	1.139351	0.477617	0.415639
C51	C	0.699570	-0.049193	-0.185363
C52	C	1.199570	0.450807	0.314637
C53	C	0.677355	-0.003660	-0.013832
C54	C	1.177355	0.496340	0.486168
C55	C	0.775572	-0.011751	-0.044308
C56	C	1.275572	0.488249	0.455692
C57	C	0.797787	-0.057284	-0.215839
C58	C	1.297787	0.442716	0.284161
C59	C	1.176379	-0.313698	-0.322842
C60	C	1.676379	0.186302	0.177158
C61	C	1.176385	-0.390344	-0.322848
C62	C	1.676385	0.109656	0.177152
C63	C	1.112447	-0.406858	-0.240655
C64	C	1.612447	0.093142	0.259345
C65	C	1.048482	-0.346720	-0.158460
C66	C	1.548482	0.153280	0.341540
C67	C	1.048472	-0.270077	-0.158460
C68	C	1.548472	0.229923	0.341540
N69	N	1.100568	-0.504981	-0.156996
N70	N	1.600568	-0.004981	0.343004
N71	N	1.100583	-0.577791	-0.157000
N72	N	1.600583	-0.077791	0.343000
C73	C	1.112474	-0.637779	-0.240651
C74	C	1.612474	-0.137779	0.259349
N75	N	1.124366	-0.622211	-0.324305
N76	N	1.624366	-0.122211	0.175695
N77	N	1.124355	-0.549395	-0.324301
N78	N	1.624355	-0.049395	0.175699
C79	C	1.112451	-0.489963	-0.240646
C80	C	1.612451	0.010037	0.259354
C81	C	1.176436	-0.781016	-0.322850
C82	C	1.676436	-0.281016	0.177150
C83	C	1.176436	-0.857664	-0.322855
C84	C	1.676436	-0.357664	0.177145
C85	C	1.048538	-0.814037	-0.158461
C86	C	1.548538	-0.314037	0.341539
C87	C	1.048534	-0.737392	-0.158462
C88	C	1.548534	-0.237392	0.341538
C89	C	1.112488	-0.720887	-0.240657
C90	C	1.612488	-0.220887	0.259343
C91	C	1.284599	-0.080568	-0.303566
C92	C	1.784599	0.419432	0.196434
C93	C	1.389130	-0.089171	-0.335993
C94	C	1.889130	0.410829	0.164007
C95	C	1.119113	-0.108204	-0.407658
C96	C	1.619113	0.391796	0.092342
C97	C	1.117123	-0.134595	-0.507087
C98	C	1.617123	0.365405	-0.007087
N99	N	1.112496	0.125827	-0.240662
N100	N	1.612496	0.625827	0.259338
C101	C	1.110619	0.110444	-0.834094
C102	C	1.610619	0.610444	-0.334094
C103	C	1.108744	0.085623	-0.927521
C104	C	1.608744	0.585623	-0.427521
C105	C	1.108718	-0.047113	-0.927506
C106	C	1.608718	0.452887	-0.427506
C107	C	1.110597	-0.022304	-0.834079
C108	C	1.610597	0.477696	-0.334079
C109	C	1.111546	0.056476	-0.787380
C110	C	1.611546	0.556476	-0.287380
C111	C	1.111524	-0.076272	-0.787365
C112	C	1.611524	0.423728	-0.287365
C113	C	1.113398	-0.051464	-0.693944
C114	C	1.613398	0.448536	-0.193944
C115	C	1.114344	0.027312	-0.647237
C116	C	1.614344	0.527312	-0.147237
C117	C	1.113420	0.081284	-0.693958
C118	C	1.613420	0.581284	-0.193958
C119	C	1.110568	-0.155051	-0.834063
C120	C	1.610568	0.344949	-0.334063
C121	C	1.111495	-0.209019	-0.787350
C122	C	1.611495	0.290981	-0.287350
C123	C	1.113376	-0.184212	-0.693930
C124	C	1.613376	0.315788	-0.193930
C125	C	1.114322	-0.105435	-0.647222
C126	C	1.614322	0.394565	-0.147222
C127	C	1.114301	-0.238183	-0.647208
C128	C	1.614301	0.261817	-0.147208
C129	C	1.116174	-0.213375	-0.553787
C130	C	1.616174	0.286625	-0.053787
C131	C	1.116196	-0.080627	-0.553801
C132	C	1.616196	0.419373	-0.053801
C133	C	1.105802	-0.019536	-0.073650
C134	C	1.605802	0.480464	0.426350
C135	C	1.107792	0.006860	0.025779
C136	C	1.607792	0.506860	0.525779
H137	H	0.846817	-0.079123	-0.298089
H138	H	1.346817	0.420877	0.201911
H139	H	1.116977	-0.016478	-0.515780
H140	H	1.616977	0.483522	-0.015780
Br141	Br	0.459407	0.022109	0.083190
Br142	Br	0.959407	0.522109	0.583190
Br143	Br	0.961702	-0.369130	-0.046915
Br144	Br	1.461702	0.130870	0.453085
Br145	Br	1.116889	0.060984	-0.520450
Br146	Br	1.616889	0.560984	-0.020450
H147	H	0.732812	-0.135287	-0.509672
H148	H	1.232812	0.364713	-0.009672
Br149	Br	0.629295	-0.160480	-0.604553
Br150	Br	1.129295	0.339520	-0.104553
Br151	Br	1.107418	-0.154023	-0.990887
Br152	Br	1.607418	0.345977	-0.490887
H153	H	0.378088	-0.048614	-0.183222
H154	H	0.878088	0.451386	0.316778
Br155	Br	1.107476	0.158876	-0.990912
Br156	Br	1.607476	0.658876	-0.490912
Br157	Br	0.595627	0.032745	0.123243
Br158	Br	1.095627	0.532745	0.623243
H159	H	1.109032	-0.175246	-0.910128
H160	H	1.609032	0.324754	-0.410128
Br161	Br	0.961671	-0.188470	-0.046913
Br162	Br	1.461671	0.311530	0.453087
H163	H	1.228465	-0.439308	-0.389777
H164	H	1.728465	0.060692	0.110223
H165	H	0.996475	-0.827482	-0.091540
H166	H	1.496475	-0.327482	0.408460
H167	H	0.801760	-0.101303	-0.381706
H168	H	1.301760	0.398697	0.118294
Br169	Br	1.110195	-0.315929	-0.850730
Br170	Br	1.610195	0.184071	-0.350730
Br171	Br	0.397777	-0.141400	-0.532703
Br172	Br	0.897777	0.358600	-0.032703
H173	H	0.996461	-0.688433	-0.091536
H174	H	1.496461	-0.188433	0.408464
Br175	Br	1.114726	0.188198	-0.630580
Br176	Br	1.614726	0.688198	-0.130580
H177	H	1.113518	-0.302324	-0.685241
H178	H	1.613518	0.197676	-0.185241
Br179	Br	0.369838	-0.022022	-0.083048
Br180	Br	0.869838	0.477978	0.416952
Br181	Br	1.263227	-0.758614	-0.434401
Br182	Br	1.763227	-0.258614	0.065599
Br183	Br	1.117436	-0.286618	-0.490385
Br184	Br	1.617436	0.213382	0.009615
Br185	Br	0.827146	0.013659	0.051404
Br186	Br	1.327146	0.513659	0.551404
H187	H	1.228511	-0.906623	-0.389785
H188	H	1.728511	-0.406623	0.110215
Br189	Br	1.111925	0.217358	-0.770715
Br190	Br	1.611925	0.717358	-0.270715
H191	H	1.228452	-0.300263	-0.389772
H192	H	1.728452	0.199737	0.110228
