data_functionalizedCrystal
_audit_creation_method	'MofGen! by Chris Wilmer'
_symmetry_space_group_name_H-M	'P1'
_symmetry_Int_Tables_number	1
_symmetry_cell_setting	triclinic
loop_
_symmetry_equiv_pos_as_xyz
  x,y,z
_cell_length_a	14.519731
_cell_length_b	12.996460
_cell_length_c	10.654550
_cell_angle_alpha	89.999886
_cell_angle_beta	95.913108
_cell_angle_gamma	90.006310
loop_
_atom_site_label
_atom_site_type_symbol
_atom_site_fract_x
_atom_site_fract_y
_atom_site_fract_z
O1	O	1.224713	0.085569	-0.164742
O2	O	0.956339	0.085570	-0.184101
O3	O	1.096696	0.085563	0.008377
O4	O	1.084355	0.085576	-0.357219
O5	O	1.096678	-0.085571	0.008366
O6	O	0.956321	-0.085563	-0.184112
O7	O	1.224694	-0.085565	-0.164753
Cu8	Cu	1.090506	-0.101190	-0.174433
Cu9	Cu	1.090527	0.101195	-0.174420
O10	O	1.084337	-0.085558	-0.357230
C11	C	0.921965	0.000004	-0.183199
C12	C	0.819571	0.000004	-0.180481
N13	N	1.090497	-0.243537	-0.174442
C14	C	0.736416	0.000008	-0.178272
C15	C	0.632093	0.000008	-0.175513
C16	C	0.548942	0.000008	-0.173322
C17	C	0.444612	0.000010	-0.170563
C18	C	1.090502	-0.336643	-0.174445
C19	C	1.090510	-0.453448	-0.174437
C20	C	1.090522	-0.546547	-0.174423
C21	C	1.090531	-0.663359	-0.174416
C22	C	1.259068	0.000004	-0.165655
C23	C	1.361462	0.000010	-0.168373
C24	C	1.095781	-0.000003	0.055160
C25	C	1.093070	-0.000002	0.194578
N26	N	1.090543	0.243543	-0.174402
C27	C	1.085252	0.000011	-0.404014
C28	C	1.087963	0.000016	-0.543432
C29	C	1.175710	-0.000002	0.274850
C30	C	1.173157	0.000011	0.405846
C31	C	1.005317	0.000019	0.376286
C32	C	1.007871	0.000014	0.245293
C33	C	1.270494	0.059972	0.602621
C34	C	1.353139	0.059954	0.682897
C35	C	1.428052	-0.000019	0.653434
C36	C	1.420324	-0.059998	0.543697
C37	C	1.337678	-0.059990	0.463426
C38	C	1.262768	0.000007	0.492888
C39	C	0.910540	-0.059956	0.048517
C40	C	0.827893	-0.059954	-0.031756
C41	C	0.752972	0.000012	-0.002297
C42	C	0.760690	0.059976	0.107443
C43	C	0.843337	0.059975	0.187716
C44	C	0.918259	0.000011	0.158248
H45	H	1.245085	-0.000012	0.233562
H46	H	1.481325	-0.108841	0.519726
H47	H	0.821609	-0.108794	-0.121105
H48	H	1.495343	-0.000031	0.718805
H49	H	0.971553	-0.108766	0.024501
C50	C	1.329360	-0.125269	0.344428
C51	C	1.343115	-0.228893	0.377077
C52	C	1.335476	-0.289053	0.267483
H53	H	1.269437	-0.116801	0.300752
H54	H	1.374789	-0.104263	0.291620
H55	H	1.297688	-0.249893	0.429863
H56	H	1.403035	-0.237393	0.420738
H57	H	1.380905	-0.268047	0.214676
H58	H	1.275552	-0.280577	0.223814
H59	H	1.344815	-0.359367	0.289619
C60	C	0.912911	-0.000028	0.431595
C61	C	0.928359	-0.000054	0.563496
C62	C	0.843255	-0.000115	0.614485
H63	H	0.878782	0.059634	0.404194
H64	H	0.878833	-0.059730	0.404125
H65	H	0.962422	0.059643	0.590954
H66	H	0.962473	-0.059711	0.590932
H67	H	0.809178	-0.059817	0.587015
H68	H	0.809133	0.059548	0.587075
H69	H	0.853725	-0.000142	0.703984
C70	C	1.361544	0.125262	0.801882
C71	C	1.347841	0.228888	0.769212
C72	C	1.355592	0.289073	0.878786
H73	H	1.316155	0.104338	0.854769
H74	H	1.421501	0.116730	0.845476
H75	H	1.287893	0.237415	0.725637
H76	H	1.393226	0.249843	0.716340
H77	H	1.415549	0.280541	0.922381
H78	H	1.310201	0.268141	0.931666
H79	H	1.346304	0.359391	0.856634
H80	H	0.849622	0.108816	0.277063
C81	C	0.679262	0.125062	0.139184
C82	C	0.605242	0.112253	0.045379
C83	C	0.530216	0.172201	0.074565
H84	H	0.660833	0.104049	0.218251
H85	H	0.697007	0.195439	0.143523
H86	H	0.587498	0.041891	0.041054
H87	H	0.623640	0.133272	-0.033697
H88	H	0.547961	0.242578	0.078904
H89	H	0.511796	0.151183	0.153634
H90	H	0.479987	0.163526	0.010918
H91	H	1.209503	0.108821	0.626612
H92	H	0.685672	-0.000006	-0.067658
