data_functionalizedCrystal
_audit_creation_method	'MofGen! by Chris Wilmer'
_symmetry_space_group_name_H-M	'P1'
_symmetry_Int_Tables_number	1
_symmetry_cell_setting	triclinic
loop_
_symmetry_equiv_pos_as_xyz
  x,y,z
_cell_length_a	18.215407
_cell_length_b	18.050589
_cell_length_c	18.215399
_cell_angle_alpha	89.976397
_cell_angle_beta	89.982632
_cell_angle_gamma	90.025664
loop_
_atom_site_label
_atom_site_type_symbol
_atom_site_fract_x
_atom_site_fract_y
_atom_site_fract_z
Zn1	Zn	1.125055	-0.295718	-0.416090
Zn2	Zn	1.625055	0.204282	0.083910
Zn3	Zn	1.124956	-0.419913	-0.293033
Zn4	Zn	1.624956	0.080087	0.206967
Zn5	Zn	1.001987	-0.295736	-0.293042
Zn6	Zn	1.501987	0.204264	0.206958
Zn7	Zn	1.001946	-0.419865	-0.416063
Zn8	Zn	1.501946	0.080135	0.083937
O9	O	1.063486	-0.357808	-0.354557
O10	O	1.563486	0.142192	0.145443
O11	O	1.228026	-0.312205	-0.399773
O12	O	1.728026	0.187795	0.100227
O13	O	1.108620	-0.403468	-0.190050
O14	O	1.608620	0.096532	0.309950
O15	O	1.018371	-0.191809	-0.309380
O16	O	1.518371	0.308191	0.190620
O17	O	1.227953	-0.403451	-0.309364
O18	O	1.727953	0.096549	0.190636
O19	O	1.108788	-0.191796	-0.399782
O20	O	1.608788	0.308204	0.100218
O21	O	1.018275	-0.312235	-0.190057
O22	O	1.518275	0.187765	0.309943
O23	O	0.898998	-0.312189	-0.309354
O24	O	1.398998	0.187811	0.190646
O25	O	1.018301	-0.403369	-0.519051
O26	O	1.518301	0.096631	-0.019051
O27	O	0.898967	-0.403386	-0.399737
O28	O	1.398967	0.096614	0.100263
O29	O	1.108748	-0.312159	-0.519070
O30	O	1.608748	0.187841	-0.019070
O31	O	1.108580	-0.523831	-0.309338
O32	O	1.608580	-0.023831	0.190662
O33	O	1.018205	-0.523796	-0.399727
O34	O	1.518205	-0.023796	0.100273
C35	C	0.872280	-0.357785	-0.354544
C36	C	1.372280	0.142215	0.145456
C37	C	0.790481	-0.357793	-0.354556
C38	C	1.290481	0.142207	0.145444
C39	C	0.602324	-0.310379	-0.401707
C40	C	1.102324	0.189621	0.098293
C41	C	0.525465	-0.310386	-0.401709
C42	C	1.025465	0.189614	0.098291
C43	C	0.525400	-0.405257	-0.307420
C44	C	1.025400	0.094743	0.192580
C45	C	0.602258	-0.405246	-0.307415
C46	C	1.102258	0.094754	0.192585
C47	C	0.640717	-0.357809	-0.354562
C48	C	1.140717	0.142191	0.145438
C49	C	0.487001	-0.357826	-0.354570
C50	C	0.987001	0.142174	0.145430
C51	C	0.403668	-0.357833	-0.354572
C52	C	0.903668	0.142167	0.145428
C53	C	0.724056	-0.357800	-0.354559
C54	C	1.224056	0.142200	0.145441
C55	C	1.063397	-0.550760	-0.354545
C56	C	1.563397	-0.050760	0.145455
C57	C	1.063427	-0.633306	-0.354564
C58	C	1.563427	-0.133306	0.145436
C59	C	1.014329	-0.832764	-0.403701
C60	C	1.514329	-0.332764	0.096299
C61	C	0.996389	-0.882204	-0.336547
C62	C	1.496389	-0.382204	0.163453
C63	C	1.063499	-0.784436	-0.354574
C64	C	1.563499	-0.284436	0.145426
C65	C	1.081475	-0.882078	-0.421735
C66	C	1.581475	-0.382078	0.078265
C67	C	1.063567	-0.930421	-0.354589
C68	C	1.563567	-0.430421	0.145411
C69	C	1.045524	-0.832788	-0.287385
C70	C	1.545524	-0.332788	0.212615
C71	C	1.130641	-0.832658	-0.372617
C72	C	1.630641	-0.332658	0.127383
C73	C	1.112726	-0.882076	-0.305418
C74	C	1.612726	-0.382076	0.194582
C75	C	1.063458	-0.700338	-0.354566
C76	C	1.563458	-0.200338	0.145434
C77	C	1.063609	-1.014518	-0.354589
C78	C	1.563609	-0.514518	0.145411
C79	C	1.255439	-0.357831	-0.354570
C80	C	1.755439	0.142169	0.145430
C81	C	1.337238	-0.357841	-0.354576
C82	C	1.837238	0.142159	0.145424
C83	C	1.063531	-0.357757	-0.546510
C84	C	1.563531	0.142243	-0.046510
C85	C	1.063550	-0.357735	-0.628309
C86	C	1.563550	0.142265	-0.128309
C87	C	1.063595	-0.164102	-0.354585
C88	C	1.563595	0.335898	0.145415
C89	C	1.063642	-0.081556	-0.354597
C90	C	1.563642	0.418444	0.145403
C91	C	1.110663	-0.310197	-0.816514
C92	C	1.610663	0.189803	-0.316514
C93	C	1.110672	-0.310175	-0.893373
C94	C	1.610672	0.189825	-0.393373
C95	C	1.016489	-0.405158	-0.893341
C96	C	1.516489	0.094842	-0.393341
C97	C	1.016477	-0.405175	-0.816484
C98	C	1.516477	0.094825	-0.316484
C99	C	1.063568	-0.357696	-0.778072
C100	C	1.563568	0.142304	-0.278072
C101	C	1.063589	-0.357657	-0.931789
C102	C	1.563589	0.142343	-0.431789
C103	C	1.063598	-0.357634	-1.015122
C104	C	1.563598	0.142366	-0.515122
C105	C	1.063558	-0.357718	-0.694733
C106	C	1.563558	0.142282	-0.194733
C107	C	1.063484	-0.357805	-0.163351
C108	C	1.563484	0.142195	0.336649
C109	C	1.063607	-0.357618	-0.081552
C110	C	1.563607	0.142382	0.418448
H111	H	0.494208	-0.271763	-0.440098
H112	H	0.994208	0.228237	0.059902
H113	H	0.633635	-0.271750	-0.440095
H114	H	1.133635	0.228250	0.059905
H115	H	0.494077	-0.443880	-0.269035
H116	H	0.994077	0.056120	0.230965
N117	N	0.641481	-0.453686	-0.259244
N118	N	1.141481	0.046314	0.240756
N119	N	0.632875	-0.448672	-0.191345
N120	N	1.132875	0.051328	0.308655
H121	H	0.660577	-0.482878	-0.157323
H122	H	1.160577	0.017122	0.342677
N123	N	1.026401	-0.805753	-0.216117
N124	N	1.526401	-0.305753	0.283883
N125	N	1.065145	-0.822059	-0.161843
N126	N	1.565145	-0.322059	0.338157
H127	H	1.051637	-0.802963	-0.111512
H128	H	1.551637	-0.302963	0.388488
H129	H	1.149020	-0.271496	-0.924669
H130	H	1.649020	0.228504	-0.424669
H131	H	0.972687	-0.811111	-0.445187
H132	H	1.472687	-0.311111	0.054813
N133	N	1.164934	-0.909063	-0.253254
N134	N	1.664934	-0.409063	0.246746
N135	N	1.201706	-0.864478	-0.215783
N136	N	1.701706	-0.364478	0.284217
H137	H	1.238576	-0.883538	-0.178941
H138	H	1.738576	-0.383538	0.321059
H139	H	1.096652	-0.903729	-0.478526
H140	H	1.596652	-0.403729	0.021474
H141	H	0.939642	-0.903983	-0.321300
H142	H	1.439642	-0.403983	0.178700
N143	N	1.201814	-0.805345	-0.391791
N144	N	1.701814	-0.305345	0.108209
N145	N	1.229190	-0.821084	-0.452751
N146	N	1.729190	-0.321084	0.047249
H147	H	1.279458	-0.801793	-0.466301
H148	H	1.779458	-0.301793	0.033699
H149	H	1.149006	-0.271534	-0.785242
H150	H	1.649006	0.228466	-0.285242
H151	H	0.978151	-0.443815	-0.924625
H152	H	1.478151	0.056185	-0.424625
N153	N	0.968358	-0.453696	-0.777223
N154	N	1.468358	0.046304	-0.277223
N155	N	0.926320	-0.496086	-0.811525
N156	N	1.426320	0.003914	-0.311525
H157	H	0.892335	-0.530351	-0.783798
H158	H	1.392335	-0.030351	-0.283798
