data_functionalizedCrystal
_audit_creation_method	'MofGen! by Chris Wilmer'
_symmetry_space_group_name_H-M	'P1'
_symmetry_Int_Tables_number	1
_symmetry_cell_setting	triclinic
loop_
_symmetry_equiv_pos_as_xyz
  x,y,z
_cell_length_a	19.288864
_cell_length_b	15.944551
_cell_length_c	18.366186
_cell_angle_alpha	89.992809
_cell_angle_beta	89.977106
_cell_angle_gamma	83.317492
loop_
_atom_site_label
_atom_site_type_symbol
_atom_site_fract_x
_atom_site_fract_y
_atom_site_fract_z
O1	O	0.921629	0.104784	-0.060785
O2	O	1.254962	0.438117	0.272549
O3	O	1.588295	0.771450	0.605882
O4	O	0.719405	0.118919	-0.060735
O5	O	1.052739	0.452252	0.272598
O6	O	1.386072	0.785585	0.605932
O7	O	0.826039	-0.010445	-0.060755
O8	O	1.159373	0.322888	0.272579
O9	O	1.492706	0.656222	0.605912
O10	O	0.814995	0.234147	-0.060765
O11	O	1.148328	0.567481	0.272568
O12	O	1.481661	0.900814	0.605902
O13	O	0.826021	-0.010451	0.060345
O14	O	1.159355	0.322882	0.393678
O15	O	1.492688	0.656215	0.727011
O16	O	0.719387	0.118912	0.060364
O17	O	1.052721	0.452246	0.393698
O18	O	1.386054	0.785579	0.727031
O19	O	0.921611	0.104777	0.060315
O20	O	1.254944	0.438111	0.393648
O21	O	1.588277	0.771444	0.726981
Zn22	Zn	0.820496	0.111844	0.079567
Zn23	Zn	1.153829	0.445177	0.412900
Zn24	Zn	1.487163	0.778510	0.746233
Zn25	Zn	0.820520	0.111852	-0.079987
Zn26	Zn	1.153853	0.445185	0.253346
Zn27	Zn	1.487187	0.778519	0.586680
O28	O	0.814977	0.234141	0.060334
O29	O	1.148310	0.567474	0.393668
O30	O	1.481643	0.900808	0.727001
C31	C	0.693519	0.118461	-0.000179
C32	C	1.026852	0.451794	0.333154
C33	C	1.360185	0.785127	0.666488
C34	C	0.616411	0.117095	-0.000160
C35	C	0.949745	0.450429	0.333173
C36	C	1.283078	0.783762	0.666507
C37	C	0.571915	0.193000	-0.000175
C38	C	0.905248	0.526333	0.333159
C39	C	1.238582	0.859667	0.666492
C40	C	0.499465	0.191717	-0.000183
C41	C	0.832798	0.525051	0.333151
C42	C	1.166131	0.858384	0.666484
C43	C	0.471514	0.114526	-0.000191
C44	C	0.804847	0.447859	0.333143
C45	C	1.138180	0.781192	0.666476
C46	C	0.516020	0.038611	-0.000172
C47	C	0.849353	0.371944	0.333162
C48	C	1.182687	0.705278	0.666495
C49	C	0.588469	0.039896	-0.000156
C50	C	0.921802	0.373229	0.333177
C51	C	1.255135	0.706562	0.666510
C52	C	0.363098	0.053847	-0.042639
C53	C	0.696432	0.387180	0.290694
C54	C	1.029765	0.720513	0.624028
C55	C	0.290650	0.052565	-0.042659
C56	C	0.623984	0.385898	0.290675
C57	C	0.957317	0.719232	0.624008
C58	C	0.248058	0.110560	-0.000234
C59	C	0.581391	0.443893	0.333099
C60	C	0.914724	0.777226	0.666432
C61	C	0.277920	0.169850	0.042200
C62	C	0.611254	0.503184	0.375534
C63	C	0.944587	0.836517	0.708867
C64	C	0.350369	0.171135	0.042216
C65	C	0.683702	0.504468	0.375549
C66	C	1.017036	0.837802	0.708882
C67	C	0.392956	0.113124	-0.000207
C68	C	0.726289	0.446457	0.333127
C69	C	1.059623	0.779791	0.666460
C70	C	0.125002	0.185079	-0.000257
C71	C	0.458335	0.518412	0.333077
C72	C	0.791668	0.851745	0.666410
C73	C	0.052550	0.183793	-0.000260
C74	C	0.385884	0.517126	0.333073
C75	C	0.719217	0.850460	0.666406
C76	C	0.069107	0.030684	-0.000257
C77	C	0.402441	0.364018	0.333077
C78	C	0.735774	0.697351	0.666410
C79	C	0.141557	0.031972	-0.000246
C80	C	0.474890	0.365306	0.333087
C81	C	0.808224	0.698639	0.666421
C82	C	0.169500	0.109172	-0.000249
C83	C	0.502833	0.442505	0.333084
C84	C	0.836166	0.775839	0.666417
C85	C	0.825572	-0.041740	-0.000205
C86	C	1.158905	0.291593	0.333129
C87	C	1.492238	0.624926	0.666462
C88	C	0.824197	-0.134981	-0.000204
C89	C	1.157530	0.198352	0.333129
C90	C	1.490864	0.531686	0.666463
C91	C	0.754815	-0.349571	-0.000197
C92	C	1.088148	-0.016237	0.333136
C93	C	1.421481	0.317096	0.666470
C94	C	0.787025	-0.410715	0.059504
C95	C	1.120358	-0.077382	0.392838
C96	C	1.453691	0.255952	0.726171
C97	C	0.821710	-0.305697	-0.000209
C98	C	1.155044	0.027636	0.333124
C99	C	1.488377	0.360969	0.666458
C100	C	0.787058	-0.410692	-0.059890
C101	C	1.120392	-0.077359	0.273443
C102	C	1.453725	0.255974	0.606777
C103	C	0.819303	-0.470601	-0.000217
C104	C	1.152637	-0.137267	0.333116
C105	C	1.485970	0.196066	0.666450
C106	C	0.853939	-0.365614	0.059542
C107	C	1.187272	-0.032280	0.392875
C108	C	1.520605	0.301053	0.726208
C109	C	0.853963	-0.365585	-0.059906
C110	C	1.187296	-0.032251	0.273427
C111	C	1.520630	0.301082	0.606760
C112	C	0.886222	-0.426712	-0.000190
C113	C	1.219555	-0.093378	0.333143
C114	C	1.552888	0.239955	0.666476
C115	C	0.823095	-0.210700	-0.000204
C116	C	1.156428	0.122633	0.333130
C117	C	1.489762	0.455966	0.666463
C118	C	0.817924	-0.565597	-0.000217
C119	C	1.151257	-0.232263	0.333116
C120	C	1.484591	0.101070	0.666450
C121	C	0.947497	0.105235	-0.000243
C122	C	1.280831	0.438569	0.333090
C123	C	1.614164	0.771902	0.666424
C124	C	1.024605	0.106600	-0.000267
C125	C	1.357938	0.439934	0.333066
C126	C	1.691271	0.773267	0.666400
C127	C	0.815444	0.265436	-0.000217
C128	C	1.148778	0.598770	0.333116
C129	C	1.482111	0.932103	0.666449
C130	C	0.816819	0.358677	-0.000223
C131	C	1.150152	0.692010	0.333111
C132	C	1.483485	1.025344	0.666444
N133	N	0.820485	0.111838	0.188458
N134	N	1.153818	0.445171	0.521791
N135	N	1.487151	0.778504	0.855124
N136	N	0.820537	0.111852	-0.188878
N137	N	1.153870	0.445185	0.144455
N138	N	1.487203	0.778518	0.477788
C139	C	0.867718	0.054583	0.226549
C140	C	1.201051	0.387917	0.559883
C141	C	1.534384	0.721250	0.893216
C142	C	0.867722	0.054580	0.302777
C143	C	1.201056	0.387913	0.636111
C144	C	1.534389	0.721246	0.969444
C145	C	0.820500	0.111844	0.340910
C146	C	1.153834	0.445178	0.674244
C147	C	1.487167	0.778511	1.007577
C148	C	0.773258	0.169103	0.302810
C149	C	1.106592	0.502436	0.636143
C150	C	1.439925	0.835770	0.969476
C151	C	0.773251	0.169100	0.226583
C152	C	1.106584	0.502433	0.559917
C153	C	1.439917	0.835766	0.893250
C154	C	0.811404	0.188378	0.461669
C155	C	1.144737	0.521711	0.795002
C156	C	1.478070	0.855045	1.128336
C157	C	0.811416	0.188383	0.537894
C158	C	1.144749	0.521716	0.871227
C159	C	1.478083	0.855049	1.204561
C160	C	0.820520	0.111855	0.576018
C161	C	1.153853	0.445188	0.909351
C162	C	1.487187	0.778522	1.242685
C163	C	0.829626	0.035320	0.537908
C164	C	1.162959	0.368653	0.871241
C165	C	1.496293	0.701986	1.204574
C166	C	0.829618	0.035316	0.461681
C167	C	1.162952	0.368649	0.795015
C168	C	1.496285	0.701983	1.128348
C169	C	0.820503	0.111854	0.423565
C170	C	1.153836	0.445188	0.756899
C171	C	1.487170	0.778521	1.090232
C172	C	0.867760	0.054592	0.696765
C173	C	1.201094	0.387925	1.030098
C174	C	1.534427	0.721259	1.363431
C175	C	0.867760	0.054587	0.772994
C176	C	1.201093	0.387920	1.106327
C177	C	1.534427	0.721254	1.439661
C178	C	0.773299	0.169118	0.773025
C179	C	1.106633	0.502451	1.106358
C180	C	1.439966	0.835784	1.439691
C181	C	0.773296	0.169115	0.696797
C182	C	1.106630	0.502449	1.030130
C183	C	1.439963	0.835782	1.363464
C184	C	0.820531	0.111853	0.658671
C185	C	1.153864	0.445187	0.992005
C186	C	1.487197	0.778520	1.325338
H187	H	0.243242	0.217075	0.076747
H188	H	0.576576	0.550408	0.410080
H189	H	0.909909	0.883741	0.743413
H190	H	0.594661	0.255862	-0.000179
H191	H	0.927994	0.589195	0.333154
H192	H	1.261328	0.922529	0.666488
F193	F	0.917997	-0.006361	0.343324
F194	F	1.251330	0.326972	0.676657
F195	F	1.584663	0.660305	1.009991
H196	H	0.734787	0.215724	0.195568
H197	H	1.068120	0.549057	0.528902
H198	H	1.401454	0.882390	0.862235
H199	H	0.734838	0.215741	0.665781
H200	H	1.068171	0.549074	0.999114
H201	H	1.401504	0.882407	1.332447
F202	F	0.154743	0.267240	-0.000255
F203	F	0.488076	0.600573	0.333078
F204	F	0.821410	0.933907	0.666412
F205	F	0.382149	0.234232	0.087378
F206	F	0.715482	0.567565	0.420712
F207	F	1.048815	0.900899	0.754045
F208	F	0.750034	-0.436860	0.125494
F209	F	1.083367	-0.103526	0.458828
F210	F	1.416701	0.229807	0.792161
F211	F	0.486272	-0.043542	-0.000177
F212	F	0.819605	0.289791	0.333157
F213	F	1.152938	0.623125	0.666490
F214	F	0.005193	0.264586	-0.000272
F215	F	0.338526	0.597919	0.333061
F216	F	0.671860	0.931252	0.666395
F217	F	0.801730	0.269837	0.578447
F218	F	1.135063	0.603171	0.911780
F219	F	1.468396	0.936504	1.245113
F220	F	0.890883	-0.339634	0.125585
F221	F	1.224216	-0.006301	0.458918
F222	F	1.557549	0.327032	0.792251
H223	H	0.397772	0.006619	-0.077190
H224	H	0.731106	0.339952	0.256143
H225	H	1.064439	0.673285	0.589476
H226	H	0.624699	-0.021917	-0.000145
H227	H	0.958032	0.311416	0.333188
H228	H	1.291365	0.644750	0.666522
F229	F	0.958861	-0.470334	-0.000166
F230	F	1.292195	-0.137001	0.333167
F231	F	1.625528	0.196332	0.666500
F232	F	0.839304	-0.046136	0.421124
F233	F	1.172637	0.287197	0.754458
F234	F	1.505970	0.620531	1.087791
F235	F	0.682238	-0.305756	-0.000105
F236	F	1.015571	0.027577	0.333228
F237	F	1.348905	0.360910	0.666562
H238	H	0.882240	-0.345560	-0.110395
H239	H	1.215574	-0.012227	0.222938
H240	H	1.548907	0.321106	0.556271
F241	F	0.750070	-0.436807	-0.125856
F242	F	1.083404	-0.103473	0.207477
F243	F	1.416737	0.229860	0.540810
F244	F	0.917985	-0.006362	0.185975
F245	F	1.251319	0.326971	0.519308
F246	F	1.584652	0.660305	0.852642
H247	H	0.837039	-0.026997	0.568947
H248	H	1.170372	0.306337	0.902280
H249	H	1.503706	0.639670	1.235613
H250	H	0.906219	0.007963	0.665722
H251	H	1.239553	0.341296	0.999055
H252	H	1.572886	0.674630	1.332388
H253	H	0.046351	-0.032167	-0.000308
H254	H	0.379684	0.301167	0.333025
H255	H	0.713017	0.634500	0.666358
H256	H	0.906221	0.007959	0.804009
H257	H	1.239554	0.341293	1.137342
H258	H	1.572887	0.674626	1.470675
F259	F	0.723038	0.230058	0.813605
F260	F	1.056371	0.563391	1.146939
F261	F	1.389705	0.896725	1.480272
F262	F	0.722999	0.230046	0.343394
F263	F	1.056332	0.563379	0.676727
F264	F	1.389665	0.896712	1.010061
F265	F	0.452100	0.272509	-0.000196
F266	F	0.785433	0.605842	0.333137
F267	F	1.118766	0.939175	0.666470
F268	F	0.188916	-0.048817	-0.000234
F269	F	0.522249	0.284516	0.333099
F270	F	0.855582	0.617850	0.666433
F271	F	0.801764	0.269836	0.421102
F272	F	1.135097	0.603170	0.754435
F273	F	1.468431	0.936503	1.087768
H274	H	0.266342	0.004290	-0.077214
H275	H	0.599675	0.337624	0.256119
H276	H	0.933009	0.670957	0.589452
