data_functionalizedCrystal
_audit_creation_method	'MofGen! by Chris Wilmer'
_symmetry_space_group_name_H-M	'P1'
_symmetry_Int_Tables_number	1
_symmetry_cell_setting	triclinic
loop_
_symmetry_equiv_pos_as_xyz
  x,y,z
_cell_length_a	19.805407
_cell_length_b	13.897448
_cell_length_c	19.805399
_cell_angle_alpha	89.974981
_cell_angle_beta	89.980427
_cell_angle_gamma	90.017692
loop_
_atom_site_label
_atom_site_type_symbol
_atom_site_fract_x
_atom_site_fract_y
_atom_site_fract_z
Zn1	Zn	1.034777	-0.384037	-0.382732
Zn2	Zn	1.534777	0.115963	0.117268
Zn3	Zn	1.034709	-0.545343	-0.269549
Zn4	Zn	1.534709	-0.045343	0.230451
Zn5	Zn	0.921591	-0.384064	-0.269556
Zn6	Zn	1.421591	0.115936	0.230444
Zn7	Zn	0.921572	-0.545292	-0.382695
Zn8	Zn	1.421572	-0.045292	0.117305
O9	O	0.978162	-0.464684	-0.326133
O10	O	1.478162	0.035316	0.173867
O11	O	1.129484	-0.405445	-0.367730
O12	O	1.629484	0.094555	0.132270
O13	O	1.019683	-0.523982	-0.174833
O14	O	1.519683	-0.023982	0.325167
O15	O	0.936642	-0.249079	-0.284588
O16	O	1.436642	0.250921	0.215412
O17	O	1.129434	-0.523956	-0.284575
O18	O	1.629434	-0.023956	0.215425
O19	O	1.019799	-0.249059	-0.367737
O20	O	1.519799	0.250941	0.132263
O21	O	0.936576	-0.405490	-0.174839
O22	O	1.436576	0.094510	0.325161
O23	O	0.826872	-0.405441	-0.284552
O24	O	1.326872	0.094559	0.215448
O25	O	0.936609	-0.523869	-0.477417
O26	O	1.436609	-0.023869	0.022583
O27	O	0.826858	-0.523894	-0.367675
O28	O	1.326858	-0.023894	0.132325
O29	O	1.019780	-0.405395	-0.477443
O30	O	1.519780	0.094605	0.022557
O31	O	1.019664	-0.680318	-0.284539
O32	O	1.519664	-0.180318	0.215461
O33	O	0.936543	-0.680280	-0.367668
O34	O	1.436543	-0.180280	0.132332
C35	C	0.802306	-0.464666	-0.326111
C36	C	1.302306	0.035334	0.173889
C37	C	0.727074	-0.464681	-0.326118
C38	C	1.227074	0.035319	0.173882
C39	C	0.978113	-0.715298	-0.326113
C40	C	1.478113	-0.215298	0.173887
C41	C	0.978154	-0.822512	-0.326128
C42	C	1.478154	-0.322512	0.173872
C43	C	0.691740	-0.526453	-0.369330
C44	C	1.191740	-0.026453	0.130670
C45	C	0.621052	-0.526454	-0.369339
C46	C	1.121052	-0.026454	0.130661
C47	C	0.585699	-0.464688	-0.326133
C48	C	1.085699	0.035312	0.173867
C49	C	0.621037	-0.402910	-0.282919
C50	C	1.121037	0.097090	0.217081
C51	C	0.691725	-0.402904	-0.282913
C52	C	1.191725	0.097096	0.217087
C53	C	0.335964	-0.402931	-0.282941
C54	C	0.835964	0.097069	0.217059
C55	C	0.265272	-0.402944	-0.282949
C56	C	0.765272	0.097056	0.217051
C57	C	0.265292	-0.526481	-0.369367
C58	C	0.765292	-0.026481	0.130633
C59	C	0.335979	-0.526476	-0.369362
C60	C	0.835979	-0.026476	0.130638
C61	C	0.371311	-0.464694	-0.326151
C62	C	0.871311	0.035306	0.173849
C63	C	0.447960	-0.464692	-0.326142
C64	C	0.947960	0.035308	0.173858
C65	C	0.509051	-0.464695	-0.326138
C66	C	1.009051	0.035305	0.173862
C67	C	0.978225	-1.018807	-0.326170
C68	C	1.478225	-0.518807	0.173830
C69	C	0.978183	-0.909575	-0.326149
C70	C	1.478183	-0.409575	0.173851
C71	C	1.154705	-0.464703	-0.326155
C72	C	1.654705	0.035297	0.173845
C73	C	1.229937	-0.464711	-0.326165
C74	C	1.729937	0.035289	0.173835
C75	C	0.978200	-0.464623	-0.502676
C76	C	1.478200	0.035377	-0.002676
C77	C	0.978216	-0.464597	-0.577908
C78	C	1.478216	0.035403	-0.077908
C79	C	0.978230	-0.213091	-0.326167
C80	C	1.478230	0.286909	0.173833
C81	C	0.978259	-0.105877	-0.326182
C82	C	1.478259	0.394123	0.173818
C83	C	1.021524	-0.402905	-0.613267
C84	C	1.521524	0.097095	-0.113267
C85	C	1.021531	-0.402877	-0.683955
C86	C	1.521531	0.097123	-0.183955
C87	C	0.978233	-0.464547	-0.719283
C88	C	1.478233	0.035453	-0.219283
C89	C	0.934920	-0.526242	-0.683919
C90	C	1.434920	-0.026242	-0.183919
C91	C	0.934910	-0.526264	-0.613232
C92	C	1.434910	-0.026264	-0.113232
C93	C	0.934958	-0.526152	-0.968993
C94	C	1.434958	-0.026152	-0.468993
C95	C	0.934973	-0.526127	-1.039685
C96	C	1.434973	-0.026127	-0.539685
C97	C	1.021579	-0.402765	-1.039716
C98	C	1.521579	0.097235	-0.539716
C99	C	1.021570	-0.402787	-0.969029
C100	C	1.521570	0.097213	-0.469029
C101	C	0.978255	-0.464478	-0.933671
C102	C	1.478255	0.035522	-0.433671
C103	C	0.978247	-0.464507	-0.857022
C104	C	1.478247	0.035493	-0.357022
C105	C	0.978244	-0.464524	-0.795931
C106	C	1.478244	0.035476	-0.295931
C107	C	0.978163	-0.464675	-0.150277
C108	C	1.478163	0.035325	0.349723
C109	C	0.978278	-0.464429	-0.075045
C110	C	1.478278	0.035571	0.424955
H111	H	0.720520	-0.576753	-0.404511
H112	H	1.220520	-0.076753	0.095489
C113	C	1.069175	-0.335013	-0.722847
C114	C	1.569175	0.164987	-0.222847
N115	N	1.105062	-0.283894	-0.752140
N116	N	1.605062	0.216106	-0.252140
H117	H	0.592286	-0.576756	-0.404526
H118	H	1.092286	-0.076756	0.095474
C119	C	0.374821	-0.334976	-0.235404
C120	C	0.874821	0.165024	0.264596
N121	N	0.404090	-0.283790	-0.199595
N122	N	0.904090	0.216210	0.300405
C123	C	0.226385	-0.334986	-0.235422
C124	C	0.726385	0.165014	0.264578
N125	N	0.197095	-0.283802	-0.199627
N126	N	0.697095	0.216198	0.300373
H127	H	1.056830	-0.352573	-0.940268
H128	H	1.556830	0.147427	-0.440268
C129	C	0.582146	-0.334964	-0.235393
C130	C	1.082146	0.165036	0.264607
N131	N	0.552854	-0.283789	-0.199594
N132	N	1.052854	0.216211	0.300406
C133	C	0.226419	-0.594435	-0.416906
C134	C	0.726419	-0.094435	0.083094
N135	N	0.197142	-0.645617	-0.452711
N136	N	0.697142	-0.145617	0.047289
H137	H	0.899699	-0.576398	-0.940213
H138	H	1.399699	-0.076398	-0.440213
H139	H	1.056846	-0.352530	-1.068513
H140	H	1.556846	0.147470	-0.568513
C141	C	0.887335	-0.593965	-1.078544
C142	C	1.387335	-0.093965	-0.578544
N143	N	0.851455	-0.645057	-1.107813
N144	N	1.351455	-0.145057	-0.607813
H145	H	0.364760	-0.576775	-0.404542
H146	H	0.864760	-0.076775	0.095458
C147	C	0.730591	-0.334953	-0.235375
C148	C	1.230591	0.165047	0.264625
N149	N	0.759865	-0.283768	-0.199569
N150	N	1.259865	0.216232	0.300431
C151	C	0.887285	-0.594070	-0.722783
C152	C	1.387285	-0.094070	-0.222783
N153	N	0.851405	-0.645159	-0.752054
N154	N	1.351405	-0.145159	-0.252054
C155	C	0.887269	-0.594132	-0.574337
C156	C	1.387269	-0.094132	-0.074337
N157	N	0.851383	-0.645250	-0.545043
N158	N	1.351383	-0.145250	-0.045043
H159	H	1.056785	-0.352690	-0.584508
H160	H	1.556785	0.147310	-0.084508
