data_functionalizedCrystal
_audit_creation_method	'MofGen! by Chris Wilmer'
_symmetry_space_group_name_H-M	'P1'
_symmetry_Int_Tables_number	1
_symmetry_cell_setting	triclinic
loop_
_symmetry_equiv_pos_as_xyz
  x,y,z
_cell_length_a	16.120530
_cell_length_b	16.120256
_cell_length_c	12.827892
_cell_angle_alpha	87.122182
_cell_angle_beta	92.888896
_cell_angle_gamma	90.128265
loop_
_atom_site_label
_atom_site_type_symbol
_atom_site_fract_x
_atom_site_fract_y
_atom_site_fract_z
Zn1	Zn	1.247498	-0.534592	0.529459
Zn2	Zn	1.254468	-0.395542	0.695814
Zn3	Zn	1.115487	-0.388509	0.511794
Zn4	Zn	1.108424	-0.527512	0.694856
O5	O	1.181469	-0.461539	0.607981
O6	O	1.364790	-0.522054	0.559319
O7	O	1.241904	-0.278243	0.664411
O8	O	1.133038	-0.407907	0.367905
O9	O	1.369910	-0.419894	0.681540
O10	O	1.230026	-0.515234	0.380883
O11	O	1.139796	-0.273076	0.529213
O12	O	0.998183	-0.401041	0.528284
O13	O	1.121000	-0.644818	0.679908
O14	O	0.992994	-0.503166	0.662779
O15	O	1.223177	-0.650019	0.558391
O16	O	1.235055	-0.413029	0.841919
O17	O	1.127758	-0.509986	0.841216
C18	C	0.965416	-0.450573	0.593512
C19	C	0.872986	-0.445901	0.587348
C20	C	0.703755	-0.437379	0.576072
C21	C	0.660021	-0.485759	0.639970
C22	C	0.565855	-0.481018	0.633696
C23	C	0.797929	-0.442120	0.582345
C24	C	1.170523	-0.678435	0.621013
C25	C	1.165859	-0.770863	0.626567
C26	C	1.205792	-0.983844	0.578992
C27	C	1.157315	-0.940083	0.636661
C28	C	1.162070	-0.845920	0.631043
C29	C	1.201038	-1.078016	0.584609
C30	C	1.398367	-0.472548	0.622507
C31	C	1.490795	-0.477240	0.628697
C32	C	1.181418	-0.461522	0.879486
C33	C	1.181471	-0.461546	0.995644
C34	C	1.192420	-0.245489	0.594927
C35	C	1.197246	-0.153070	0.589089
C36	C	1.181542	-0.461576	0.335417
C37	C	1.181574	-0.461591	0.219267
C38	C	1.234622	-0.413627	1.047750
C39	C	1.234678	-0.413651	1.167805
H40	H	0.670478	-0.392402	0.516660
H41	H	1.250864	-0.950593	0.525405
H42	H	1.112236	-0.973337	0.690247
H43	H	1.280090	-0.372587	1.003482
F44	F	1.294155	-0.360022	1.226369
F45	F	1.122048	-0.515198	1.053505
F46	F	0.703516	-0.544558	0.717628
F47	F	1.122087	-0.515213	1.160710
