data_functionalizedCrystal
_audit_creation_method	'MofGen! by Chris Wilmer'
_symmetry_space_group_name_H-M	'P1'
_symmetry_Int_Tables_number	1
_symmetry_cell_setting	triclinic
loop_
_symmetry_equiv_pos_as_xyz
  x,y,z
_cell_length_a	12.503572
_cell_length_b	17.699083
_cell_length_c	17.699083
_cell_angle_alpha	83.283015
_cell_angle_beta	93.515225
_cell_angle_gamma	86.494917
loop_
_atom_site_label
_atom_site_type_symbol
_atom_site_fract_x
_atom_site_fract_y
_atom_site_fract_z
O1	O	0.089171	-1.008441	-0.091332
O2	O	0.422505	-0.675108	0.242001
O3	O	0.755838	-0.341774	0.575335
O4	O	0.089207	-0.788064	-0.103783
O5	O	0.422540	-0.454731	0.229551
O6	O	0.755874	-0.121398	0.562884
O7	O	0.089179	-0.904478	0.012631
O8	O	0.422512	-0.571145	0.345965
O9	O	0.755845	-0.237812	0.679298
O10	O	0.089200	-0.892027	-0.207746
O11	O	0.422533	-0.558694	0.125587
O12	O	0.755866	-0.225360	0.458921
O13	O	-0.089461	-0.895723	0.003862
O14	O	0.243872	-0.562390	0.337195
O15	O	0.577206	-0.229057	0.670529
O16	O	-0.089433	-0.779309	-0.112552
O17	O	0.243900	-0.445976	0.220781
O18	O	0.577234	-0.112643	0.554114
O19	O	-0.089468	-0.999686	-0.100101
O20	O	0.243865	-0.666353	0.233232
O21	O	0.577198	-0.333019	0.566565
Cu22	Cu	-0.105762	-0.888698	-0.107128
Cu23	Cu	0.227571	-0.555365	0.226206
Cu24	Cu	0.560905	-0.222032	0.559539
Cu25	Cu	0.105500	-0.899052	-0.096757
Cu26	Cu	0.438834	-0.565719	0.236577
Cu27	Cu	0.772167	-0.232385	0.569910
O28	O	-0.089440	-0.883272	-0.216516
O29	O	0.243893	-0.549939	0.116818
O30	O	0.577226	-0.216605	0.450151
C31	C	-0.000109	-0.755490	-0.107721
C32	C	0.333225	-0.422157	0.225612
C33	C	0.666558	-0.088823	0.558946
C34	C	-0.000095	-0.671473	-0.106382
C35	C	0.333238	-0.338139	0.226952
C36	C	0.666571	-0.004806	0.560285
N37	N	-0.254352	-0.881421	-0.114421
N38	N	0.078981	-0.548088	0.218912
N39	N	0.412314	-0.214755	0.552245
C40	C	-0.000141	-0.899655	0.036444
C41	C	0.333192	-0.566321	0.369777
C42	C	0.666525	-0.232988	0.703110
C43	C	-0.000142	-0.898316	0.120462
C44	C	0.333192	-0.564983	0.453795
C45	C	0.666525	-0.231649	0.787128
C46	C	-0.473465	-0.870717	-0.125157
C47	C	-0.140132	-0.537384	0.208176
C48	C	0.193202	-0.204050	0.541509
C49	C	-0.526803	-0.917037	-0.078723
C50	C	-0.193470	-0.583704	0.254610
C51	C	0.139863	-0.250370	0.587943
C52	C	-0.648725	-0.911081	-0.084697
C53	C	-0.315392	-0.577748	0.248636
C54	C	0.017941	-0.244414	0.581970
C55	C	-0.351532	-0.876672	-0.119185
C56	C	-0.018199	-0.543339	0.214149
C57	C	0.315134	-0.210005	0.547482
N58	N	0.254091	-0.906335	-0.089457
N59	N	0.587424	-0.573002	0.243877
N60	N	0.920758	-0.239668	0.577210
C61	C	-0.000151	-1.032260	-0.096163
C62	C	0.333183	-0.698927	0.237170
C63	C	0.666516	-0.365594	0.570504
C64	C	-0.000157	-1.116278	-0.097502
C65	C	0.333177	-0.782945	0.235831
C66	C	0.666510	-0.449612	0.569165
C67	C	-0.000089	-0.622852	-0.174715
C68	C	0.333244	-0.289519	0.158618
C69	C	0.666577	0.043815	0.491952
C70	C	-0.000103	-0.543908	-0.173453
C71	C	0.333230	-0.210575	0.159880
C72	C	0.666563	0.122759	0.493213
C73	C	-0.000116	-0.513587	-0.103857
C74	C	0.333218	-0.180253	0.229476
C75	C	0.666551	0.153080	0.562809
C76	C	-0.000125	-0.562213	-0.035519
C77	C	0.333208	-0.228880	0.297814
C78	C	0.666542	0.104453	0.631147
C79	C	-0.000119	-0.641155	-0.036782
C80	C	0.333215	-0.307822	0.296551
C81	C	0.666548	0.025511	0.629885
C82	C	-0.000152	-0.243849	-0.030425
C83	C	0.333181	0.089484	0.302908
C84	C	0.666515	0.422818	0.636241
C85	C	-0.000155	-0.164901	-0.029168
C86	C	0.333178	0.168433	0.304166
C87	C	0.666511	0.501766	0.637499
C88	C	-0.000137	-0.146602	-0.167097
C89	C	0.333197	0.186732	0.166237
C90	C	0.666530	0.520065	0.499570
C91	C	-0.000130	-0.225544	-0.168359
C92	C	0.333203	0.107790	0.164974
C93	C	0.666536	0.441123	0.498307
C94	C	-0.000145	-0.274163	-0.100022
C95	C	0.333188	0.059170	0.233311
C96	C	0.666521	0.392504	0.566645
C97	C	-0.000132	-0.359763	-0.101391
C98	C	0.333201	-0.026430	0.231943
C99	C	0.666535	0.306904	0.565276
C100	C	-0.000121	-0.427989	-0.102487
C101	C	0.333212	-0.094655	0.230846
C102	C	0.666545	0.238678	0.564179
C103	C	-0.000118	-0.888096	-0.240328
C104	C	0.333215	-0.554762	0.093006
C105	C	0.666549	-0.221429	0.426339
C106	C	-0.000111	-0.889435	-0.324345
C107	C	0.333223	-0.556101	0.008988
C108	C	0.666556	-0.222768	0.342321
C109	C	-0.000154	-0.966649	0.169082
C110	C	0.333179	-0.633316	0.502415
C111	C	0.666513	-0.299982	0.835749
C112	C	-0.000144	-0.965387	0.248026
C113	C	0.333189	-0.632054	0.581359
C114	C	0.666522	-0.298720	0.914692
C115	C	-0.000130	-0.895791	0.278347
C116	C	0.333204	-0.562458	0.611681
C117	C	0.666537	-0.229125	0.945014
C118	C	-0.000114	-0.827453	0.229721
C119	C	0.333219	-0.494120	0.563054
C120	C	0.666553	-0.160787	0.896388
C121	C	-0.000116	-0.828716	0.150779
C122	C	0.333217	-0.495383	0.484112
C123	C	0.666551	-0.162050	0.817446
C124	C	-0.000105	-0.822359	0.548084
C125	C	0.333229	-0.489025	0.881418
C126	C	0.666562	-0.155692	1.214751
C127	C	-0.000106	-0.821101	0.627032
C128	C	0.333228	-0.487767	0.960366
C129	C	0.666561	-0.154434	1.293699
C130	C	-0.000133	-0.959029	0.645331
C131	C	0.333201	-0.625696	0.978665
C132	C	0.666534	-0.292363	1.311998
C133	C	-0.000135	-0.960292	0.566389
C134	C	0.333199	-0.626959	0.899723
C135	C	0.666532	-0.293626	1.233056
C136	C	-0.000113	-0.891955	0.517770
C137	C	0.333220	-0.558622	0.851103
C138	C	0.666553	-0.225288	1.184437
C139	C	-0.000122	-0.893324	0.432171
C140	C	0.333211	-0.559991	0.765504
C141	C	0.666545	-0.226658	1.098837
C142	C	-0.000129	-0.894421	0.363945
C143	C	0.333204	-0.561088	0.697278
C144	C	0.666538	-0.227754	1.030612
H145	H	-0.480901	-0.961167	-0.034484
H146	H	-0.147568	-0.627833	0.298849
H147	H	0.185765	-0.294500	0.632183
O148	O	-0.000131	-0.496569	-0.239764
O149	O	0.333203	-0.163235	0.093569
O150	O	0.666536	0.170098	0.426903
C151	C	-0.000113	-0.420392	-0.223728
C152	C	0.333221	-0.087058	0.109605
C153	C	0.666554	0.246275	0.442938
H154	H	-0.033956	-0.415818	-0.165951
H155	H	0.299377	-0.082485	0.167382
H156	H	0.632711	0.250849	0.500715
H157	H	-0.051961	-0.382008	-0.269847
H158	H	0.281372	-0.048675	0.063486
H159	H	0.614706	0.284659	0.396820
H160	H	0.085590	-0.401749	-0.222420
H161	H	0.418924	-0.068416	0.110913
H162	H	0.752257	0.264918	0.444246
O163	O	-0.528336	-0.818041	-0.177838
O164	O	-0.195003	-0.484707	0.155495
O165	O	0.138331	-0.151374	0.488828
C166	C	-0.593375	-0.768206	-0.140592
C167	C	-0.260041	-0.434873	0.192741
C168	C	0.073292	-0.101540	0.526075
H169	H	-0.610083	-0.797556	-0.082090
H170	H	-0.276749	-0.464223	0.251243
H171	H	0.056584	-0.130890	0.584576
H172	H	-0.672513	-0.752430	-0.176028
H173	H	-0.339180	-0.419096	0.157305
H174	H	-0.005846	-0.085763	0.490639
H175	H	-0.550123	-0.714337	-0.133540
H176	H	-0.216790	-0.381004	0.199794
H177	H	0.116543	-0.047670	0.533127
H178	H	-0.000165	-0.283426	0.025219
H179	H	0.333168	0.049907	0.358553
H180	H	0.666501	0.383241	0.691886
O181	O	-0.000123	-0.652175	-0.242390
O182	O	0.333210	-0.318841	0.090943
O183	O	0.666543	0.014492	0.424277
C184	C	-0.000096	-0.592330	-0.302430
C185	C	0.333238	-0.258996	0.030904
C186	C	0.666571	0.074337	0.364237
H187	H	-0.033923	-0.537087	-0.282970
H188	H	0.299410	-0.203754	0.050363
H189	H	0.632744	0.129579	0.383696
H190	H	-0.051953	-0.606200	-0.353576
H191	H	0.281381	-0.272867	-0.020242
H192	H	0.614714	0.060466	0.313091
H193	H	0.085608	-0.585309	-0.319294
H194	H	0.418942	-0.251976	0.014039
H195	H	0.752275	0.081358	0.347373
H196	H	-0.000115	-0.250227	-0.225031
H197	H	0.333218	0.083107	0.108302
H198	H	0.666551	0.416440	0.441636
O199	O	-0.000272	-0.753502	0.656515
O200	O	0.333062	-0.420168	0.989848
O201	O	0.666395	-0.086835	1.323182
C202	C	-0.092776	-0.744113	0.697108
C203	C	0.240558	-0.410780	1.030441
C204	C	0.573891	-0.077446	1.363775
H205	H	-0.157456	-0.780451	0.675335
H206	H	0.175877	-0.447118	1.008668
H207	H	0.509211	-0.113785	1.342002
H208	H	-0.123809	-0.681578	0.688391
H209	H	0.209525	-0.348244	1.021725
H210	H	0.542858	-0.014911	1.355058
H211	H	-0.071865	-0.762717	0.760421
H212	H	0.261468	-0.429383	1.093754
H213	H	0.594801	-0.096050	1.427087
H214	H	-0.000095	-0.770788	0.254415
H215	H	0.333238	-0.437454	0.587748
H216	H	0.666571	-0.104121	0.921082
H217	H	-0.000130	-0.107005	-0.222741
H218	H	0.333203	0.226328	0.110593
H219	H	0.666537	0.559661	0.443926
O220	O	-0.000152	-0.762266	0.103652
O221	O	0.333182	-0.428932	0.436986
O222	O	0.666515	-0.095599	0.770319
C223	C	-0.000111	-0.700568	0.147342
C224	C	0.333222	-0.367235	0.480675
C225	C	0.666556	-0.033902	0.814008
H226	H	-0.033939	-0.718226	0.204637
H227	H	0.299394	-0.384893	0.537971
H228	H	0.632728	-0.051559	0.871304
H229	H	-0.051961	-0.650155	0.115586
H230	H	0.281373	-0.316821	0.448920
H231	H	0.614706	0.016512	0.782253
H232	H	0.085597	-0.683433	0.157129
H233	H	0.418930	-0.350100	0.490462
H234	H	0.752264	-0.016766	0.823796
O235	O	-0.000032	-0.135542	0.038496
O236	O	0.333302	0.197791	0.371829
O237	O	0.666635	0.531124	0.705163
C238	C	0.092491	-0.164909	0.084686
C239	C	0.425824	0.168424	0.418019
C240	C	0.759157	0.501757	0.751353
H241	H	0.123342	-0.221136	0.065680
H242	H	0.456675	0.112198	0.399014
H243	H	0.790009	0.445531	0.732347
H244	H	0.071666	-0.174960	0.146711
H245	H	0.405000	0.158374	0.480044
H246	H	0.738333	0.491707	0.813378
H247	H	0.157277	-0.122381	0.079018
H248	H	0.490611	0.210952	0.412351
H249	H	0.823944	0.544285	0.745685
O250	O	-0.000092	-0.532638	0.032023
O251	O	0.333242	-0.199305	0.365356
O252	O	0.666575	0.134029	0.698690
C253	C	-0.000120	-0.452534	0.018485
C254	C	0.333214	-0.119201	0.351819
C255	C	0.666547	0.214132	0.685152
H256	H	0.033708	-0.435540	-0.038952
H257	H	0.367041	-0.102207	0.294382
H258	H	0.700375	0.231126	0.627715
H259	H	0.051737	-0.430914	0.065557
H260	H	0.385070	-0.097581	0.398891
H261	H	0.718404	0.235752	0.732224
H262	H	-0.085824	-0.426374	0.017905
H263	H	0.247509	-0.093041	0.351238
H264	H	0.580843	0.240293	0.684571
O265	O	-0.000168	-0.688494	0.029525
O266	O	0.333165	-0.355160	0.362858
O267	O	0.666499	-0.021827	0.696191
C268	C	-0.000135	-0.764673	0.013489
C269	C	0.333198	-0.431339	0.346822
C270	C	0.666531	-0.098006	0.680156
H271	H	-0.033947	-0.765934	-0.047615
H272	H	0.299387	-0.432601	0.285719
H273	H	0.632720	-0.099268	0.619052
H274	H	-0.052003	-0.797984	0.054507
H275	H	0.281330	-0.464650	0.387840
H276	H	0.614663	-0.131317	0.721174
H277	H	0.085568	-0.791700	0.020608
H278	H	0.418902	-0.458367	0.353941
H279	H	0.752235	-0.125034	0.687275
O280	O	-0.000024	-1.034215	0.139548
O281	O	0.333309	-0.700882	0.472881
O282	O	0.666642	-0.367548	0.806215
C283	C	0.092507	-1.043614	0.098985
C284	C	0.425840	-0.710281	0.432319
C285	C	0.759174	-0.376948	0.765652
H286	H	0.123359	-0.985436	0.080725
H287	H	0.456693	-0.652103	0.414058
H288	H	0.790026	-0.318769	0.747391
H289	H	0.071694	-1.072672	0.046327
H290	H	0.405028	-0.739339	0.379660
H291	H	0.738361	-0.406005	0.712993
H292	H	0.157289	-1.080335	0.137103
H293	H	0.490622	-0.747001	0.470436
H294	H	0.823955	-0.413668	0.803769
H295	H	-0.000157	-1.021031	0.287610
H296	H	0.333176	-0.687697	0.620943
H297	H	0.666510	-0.354364	0.954276
H298	H	-0.000152	-1.016964	0.541706
H299	H	0.333181	-0.683631	0.875039
H300	H	0.666515	-0.350297	1.208373
O301	O	-0.000094	-1.025348	0.692672
O302	O	0.333240	-0.692014	1.026006
O303	O	0.666573	-0.358681	1.359339
C304	C	-0.000111	-1.009314	0.768850
C305	C	0.333223	-0.675981	1.102184
C306	C	0.666556	-0.342648	1.435517
H307	H	0.033724	-0.951531	0.773428
H308	H	0.367057	-0.618198	1.106761
H309	H	0.700391	-0.284864	1.440094
H310	H	0.051746	-1.055425	0.807237
H311	H	0.385079	-0.722091	1.140571
H312	H	0.718412	-0.388758	1.473904
H313	H	-0.085812	-1.008023	0.787486
H314	H	0.247521	-0.674690	1.120819
H315	H	0.580854	-0.341357	1.454152
H316	H	-0.000087	-0.766714	0.508508
H317	H	0.333246	-0.433381	0.841841
H318	H	0.666579	-0.100047	1.175174
