data_functionalizedCrystal
_audit_creation_method	'MofGen! by Chris Wilmer'
_symmetry_space_group_name_H-M	'P1'
_symmetry_Int_Tables_number	1
_symmetry_cell_setting	triclinic
loop_
_symmetry_equiv_pos_as_xyz
  x,y,z
_cell_length_a	14.519709
_cell_length_b	10.654549
_cell_length_c	9.130307
_cell_angle_alpha	89.997449
_cell_angle_beta	89.997102
_cell_angle_gamma	95.916469
loop_
_atom_site_label
_atom_site_type_symbol
_atom_site_fract_x
_atom_site_fract_y
_atom_site_fract_z
O1	O	-0.129552	1.666588	-0.121813
O2	O	-0.141889	1.300991	-0.121806
O3	O	-0.001532	1.493483	-0.121823
O4	O	-0.269908	1.474096	-0.121796
O5	O	-0.001531	1.493476	0.121776
O6	O	-0.141887	1.300985	0.121793
O7	O	-0.129551	1.666581	0.121786
Cu8	Cu	-0.135719	1.483783	0.144032
Cu9	Cu	-0.135721	1.483790	-0.144052
O10	O	-0.269907	1.474090	0.121803
C11	C	-0.140981	1.254199	-0.000006
C12	C	-0.138268	1.114782	-0.000004
C13	C	-0.301009	0.823233	-0.000029
C14	C	-0.386204	0.873950	-0.000014
C15	C	-0.388756	1.004944	0.000005
C16	C	-0.306105	1.085224	0.000005
C17	C	-0.220910	1.034506	-0.000009
C18	C	-0.218367	0.903508	-0.000024
C19	C	-0.053074	1.064064	-0.000019
C20	C	-0.050520	0.933071	-0.000028
C21	C	0.029577	1.144344	-0.000018
C22	C	0.114773	1.093627	-0.000023
C23	C	0.117322	0.962625	-0.000040
C24	C	0.034674	0.882353	-0.000043
C25	C	-0.304272	1.474997	0.000007
C26	C	-0.406668	1.477704	0.000017
C27	C	-0.781615	1.487671	-0.000042
C28	C	-0.677293	1.484903	-0.000025
C29	C	-0.594145	1.482688	-0.000011
C30	C	-0.489816	1.479919	0.000003
C31	C	0.032833	1.492576	-0.000030
C32	C	0.135228	1.489869	-0.000049
C33	C	-0.130458	1.713374	-0.000017
C34	C	-0.133171	1.852791	-0.000028
N35	N	-0.135717	1.483787	0.346655
N36	N	-0.135715	1.483796	-0.346675
C37	C	-0.011468	1.654307	0.346630
C38	C	0.050653	1.739576	0.423284
C39	C	0.050654	1.739588	0.576617
C40	C	-0.011472	1.654321	0.653300
C41	C	-0.073594	1.569052	0.576646
C42	C	-0.073589	1.569051	0.423309
C43	C	-0.197837	1.398527	0.576671
C44	C	-0.197843	1.398519	0.423338
C45	C	-0.259963	1.313260	0.653354
C46	C	-0.322090	1.227995	0.576700
C47	C	-0.322089	1.227987	0.423357
C48	C	-0.259965	1.313250	0.346683
H49	H	-0.458128	1.046237	0.000019
H50	H	-0.372673	1.158546	0.360953
H51	H	-0.259962	1.313256	0.221831
H52	H	-0.308190	1.191885	0.000004
O53	O	0.110998	1.822259	0.348597
C54	C	0.168383	1.754942	0.259883
H55	H	0.132369	1.656724	0.236959
H56	H	0.236634	1.746343	0.318913
C57	C	0.231751	1.946335	0.142361
C58	C	0.187515	1.825705	0.114194
H59	H	0.243556	1.989986	0.052495
H60	H	0.193092	1.991689	0.202132
H61	H	0.288622	1.939152	0.191556
H62	H	0.130640	1.832889	0.065017
H63	H	0.226164	1.780353	0.054410
O64	O	0.111037	1.822530	0.650860
C65	C	0.165893	1.897758	0.550308
H66	H	0.128075	1.899263	0.441006
H67	H	0.234682	1.856832	0.534002
C68	C	0.230423	2.031336	0.744395
C69	C	0.183972	2.033193	0.610152
H70	H	0.241580	2.114878	0.781310
H71	H	0.193469	1.980651	0.812140
H72	H	0.287743	1.997226	0.730788
H73	H	0.126649	2.067288	0.623764
H74	H	0.220917	2.083887	0.542410
H75	H	0.027493	1.251005	-0.000010
H76	H	-0.011460	1.654326	0.778152
O77	O	-0.382398	1.145295	0.651413
C78	C	-0.369053	1.163560	0.803185
H79	H	-0.335271	1.263328	0.824111
H80	H	-0.322304	1.092388	0.846694
C81	C	-0.504754	1.022347	0.856231
C82	C	-0.463269	1.144887	0.881933
H83	H	-0.562869	1.010823	0.904809
H84	H	-0.513743	1.010037	0.753980
H85	H	-0.465786	0.963051	0.892488
H86	H	-0.502230	1.204180	0.845660
H87	H	-0.454288	1.157207	0.984181
O88	O	0.200059	0.913301	-0.000316
C89	C	0.206547	0.838402	-0.126467
H90	H	0.158154	0.869497	-0.214638
H91	H	0.185937	0.735149	-0.097951
C92	C	0.366282	0.815871	-0.075394
C93	C	0.306851	0.854069	-0.183691
H94	H	0.428154	0.825529	-0.110689
H95	H	0.361911	0.866328	0.009600
H96	H	0.349096	0.729829	-0.051640
H97	H	0.324030	0.940113	-0.207430
H98	H	0.311227	0.803627	-0.268691
H99	H	-0.011470	1.654316	0.221778
H100	H	-0.298940	0.716569	-0.000019
H101	H	-0.453496	0.808572	-0.000020
H102	H	0.182061	1.159000	-0.000032
H103	H	0.036741	0.775689	-0.000044
H104	H	-0.259956	1.313268	0.778206
