data_functionalizedCrystal
_audit_creation_method	'MofGen! by Chris Wilmer'
_symmetry_space_group_name_H-M	'P1'
_symmetry_Int_Tables_number	1
_symmetry_cell_setting	triclinic
loop_
_symmetry_equiv_pos_as_xyz
  x,y,z
_cell_length_a	10.654550
_cell_length_b	9.130313
_cell_length_c	10.654550
_cell_angle_alpha	90.004369
_cell_angle_beta	84.484931
_cell_angle_gamma	90.000276
loop_
_atom_site_label
_atom_site_type_symbol
_atom_site_fract_x
_atom_site_fract_y
_atom_site_fract_z
O1	O	1.667839	0.121690	0.176399
O2	O	2.167839	0.621690	0.676399
O3	O	1.302361	0.121716	0.193205
O4	O	1.802361	0.621716	0.693205
O5	O	1.493503	0.121693	0.002063
O6	O	1.993503	0.621693	0.502063
O7	O	1.476697	0.121713	0.367541
O8	O	1.976697	0.621713	0.867541
O9	O	1.493490	-0.121906	0.002057
O10	O	1.993490	0.378094	0.502057
O11	O	1.302348	-0.121882	0.193199
O12	O	1.802348	0.378118	0.693199
O13	O	1.667826	-0.121909	0.176393
O14	O	2.167826	0.378091	0.676393
Cu15	Cu	1.485086	-0.144138	0.184796
Cu16	Cu	1.985086	0.355862	0.684796
Cu17	Cu	1.485101	0.143946	0.184802
Cu18	Cu	1.985101	0.643946	0.684802
O19	O	1.476684	-0.121886	0.367535
O20	O	1.976684	0.378114	0.867535
C21	C	1.255556	-0.000080	0.191968
C22	C	1.755556	0.499920	0.691968
C23	C	1.116113	-0.000070	0.188276
C24	C	1.616113	0.499930	0.688276
N25	N	1.485084	-0.346761	0.184790
N26	N	1.985084	0.153239	0.684790
C27	C	1.036628	-0.000068	0.300818
C28	C	1.536628	0.499932	0.800818
C29	C	0.905607	-0.000093	0.297341
C30	C	1.405607	0.499907	0.797341
C31	C	0.933570	-0.000117	0.068772
C32	C	1.433570	0.499883	0.568772
C33	C	1.064588	-0.000101	0.072250
C34	C	1.564588	0.499899	0.572250
C35	C	1.569751	-0.423423	0.100188
C36	C	2.069751	0.076577	0.600188
C37	C	1.569763	-0.576760	0.100189
C38	C	2.069763	-0.076760	0.600189
C39	C	1.400437	-0.576759	0.269404
C40	C	1.900437	-0.076759	0.769404
C41	C	1.400420	-0.423425	0.269396
C42	C	1.900420	0.076575	0.769396
C43	C	1.714631	-0.000110	0.177630
C44	C	2.214631	0.499890	0.677630
C45	C	1.854074	-0.000110	0.181322
C46	C	2.354074	0.499890	0.681322
C47	C	1.492263	-0.000105	-0.044738
C48	C	1.992263	0.499895	0.455262
C49	C	1.488571	-0.000103	-0.184181
C50	C	1.988571	0.499897	0.315819
N51	N	1.485113	0.346568	0.184798
N52	N	1.985113	0.846568	0.684798
C53	C	1.601112	-0.000111	-0.263667
C54	C	2.101112	0.499889	0.236333
C55	C	1.597636	-0.000092	-0.394688
C56	C	2.097636	0.499908	0.105312
C57	C	1.369066	-0.000065	-0.366725
C58	C	1.869066	0.499935	0.133275
C59	C	1.372544	-0.000073	-0.235706
C60	C	1.872544	0.499927	0.264294
C61	C	1.477925	-0.000084	0.414336
C62	C	1.977925	0.499916	0.914336
C63	C	1.481616	-0.000077	0.553779
C64	C	1.981616	0.499923	1.053779
H65	H	1.078574	-0.000053	0.395294
H66	H	1.578574	0.499947	0.895294
H67	H	1.274601	-0.000043	-0.408693
H68	H	1.774601	0.499957	0.091307
Br69	Br	1.219798	-0.000042	-0.127823
Br70	Br	1.719798	0.499958	0.372177
Br71	Br	1.750378	-0.000094	-0.502558
Br72	Br	2.250378	0.499906	-0.002558
H73	H	0.840894	-0.000095	0.388984
H74	H	1.340894	0.499905	0.888984
Br75	Br	0.863635	-0.000154	-0.088685
Br76	Br	1.363635	0.499846	0.411315
Br77	Br	1.684648	-0.319384	-0.014636
Br78	Br	2.184648	0.180616	0.485364
Br79	Br	1.684666	-0.680799	-0.014638
Br80	Br	2.184666	-0.180799	0.485362
H81	H	1.331468	-0.361002	0.338290
H82	H	1.831468	0.138998	0.838290
H83	H	1.129309	-0.000107	-0.019401
H84	H	1.629309	0.499893	0.480599
H85	H	1.331508	-0.639194	0.338290
H86	H	1.831508	-0.139194	0.838290
H87	H	1.695588	-0.000132	-0.221720
H88	H	2.195588	0.499868	0.278280
