data_functionalizedCrystal
_audit_creation_method	'MofGen! by Chris Wilmer'
_symmetry_space_group_name_H-M	'P1'
_symmetry_Int_Tables_number	1
_symmetry_cell_setting	triclinic
loop_
_symmetry_equiv_pos_as_xyz
  x,y,z
_cell_length_a	15.538191
_cell_length_b	27.732048
_cell_length_c	14.750779
_cell_angle_alpha	77.459753
_cell_angle_beta	97.572172
_cell_angle_gamma	64.957374
loop_
_atom_site_label
_atom_site_type_symbol
_atom_site_fract_x
_atom_site_fract_y
_atom_site_fract_z
O1	O	1.231553	-0.143284	-0.079812
O2	O	0.956477	-0.087327	-0.079821
O3	O	1.102563	-0.187172	-0.079798
O4	O	1.085467	-0.043439	-0.079835
O5	O	1.143860	-0.215394	0.079859
O6	O	0.997774	-0.115550	0.079836
O7	O	1.272849	-0.171506	0.079845
Zn8	Zn	1.141868	-0.148009	0.105189
Zn9	Zn	1.087458	-0.110825	-0.105165
O10	O	1.126764	-0.071662	0.079822
C11	C	0.941944	-0.095584	0.000007
C12	C	0.837116	-0.078145	0.000004
C13	C	0.551855	-0.251395	0.000034
C14	C	0.453349	-0.234996	0.000029
C15	C	0.429558	-0.142756	0.000005
C16	C	0.528065	-0.159148	0.000015
C17	C	0.589206	-0.213468	0.000028
C18	C	0.565415	-0.121222	0.000009
C19	C	0.663912	-0.137612	0.000014
C20	C	0.725059	-0.191928	0.000024
C21	C	0.687703	-0.229858	0.000032
C22	C	0.504271	-0.066901	-0.000011
C23	C	0.541621	-0.028974	-0.000017
C24	C	0.640122	-0.045365	-0.000005
C25	C	0.701268	-0.099682	0.000005
C26	C	0.677478	-0.007436	-0.000014
C27	C	0.775975	-0.023826	-0.000009
C28	C	0.799765	-0.116072	0.000010
C29	C	1.122853	-0.219229	0.000033
C30	C	1.121775	-0.272700	0.000041
C31	C	1.201288	-0.625155	-0.000006
C32	C	1.197277	-0.826125	-0.000019
O33	O	1.269986	-0.869854	-0.000059
N34	N	1.110657	-0.830382	-0.000021
C35	C	1.025032	-0.784391	-0.000026
O36	O	0.951262	-0.792622	-0.000038
C37	C	1.029042	-0.583422	-0.000019
C38	C	1.115670	-0.579170	-0.000008
C39	C	1.287908	-0.620901	0.000005
C40	C	1.288911	-0.570663	0.000014
C41	C	1.203294	-0.524678	0.000012
C42	C	1.116673	-0.528931	0.000001
C43	C	0.943416	-0.537431	-0.000031
C44	C	0.944426	-0.487187	-0.000032
C45	C	1.031054	-0.482935	-0.000020
C46	C	1.032059	-0.432708	0.000008
N47	N	1.118679	-0.428450	0.000010
C48	C	1.204296	-0.474435	0.000012
C49	C	1.022934	-0.889905	-0.000028
C50	C	1.021931	-0.940147	-0.000028
C51	C	1.194176	-0.981877	-0.000022
C52	C	1.195179	-0.931635	-0.000016
C53	C	1.109554	-0.885648	-0.000026
C54	C	1.206396	-0.368929	0.000031
C55	C	1.207393	-0.318685	0.000043
C56	C	1.035147	-0.276959	0.000033
C57	C	1.034152	-0.327199	0.000025
C58	C	1.119783	-0.373185	0.000021
O59	O	0.959386	-0.388955	0.000036
O60	O	1.278050	-0.466189	0.000002
C61	C	1.200285	-0.675394	-0.000014
C62	C	1.113664	-0.679647	-0.000025
C63	C	1.028046	-0.633662	-0.000027
C64	C	1.112662	-0.729890	-0.000025
C65	C	1.198279	-0.775875	-0.000023
C66	C	1.284899	-0.771617	-0.000021
C67	C	1.285902	-0.721379	-0.000012
C68	C	0.941427	-0.637920	-0.000029
C69	C	0.940431	-0.688160	-0.000036
C70	C	1.026048	-0.734145	-0.000034
C71	C	1.287382	-0.163249	0.000015
C72	C	1.392208	-0.180687	0.000012
C73	C	1.106473	-0.039604	-0.000011
C74	C	1.107549	0.013868	-0.000025
N75	N	1.179009	-0.173388	0.248751
N76	N	1.050325	-0.085451	-0.248727
C77	C	0.946598	-0.014593	0.600532
C78	C	0.972630	-0.032375	0.701036
C79	C	1.102015	-0.120767	0.701019
C80	C	1.075991	-0.102994	0.600514
C81	C	0.998282	-0.049906	0.550278
C82	C	1.127675	-0.138307	0.550259
C83	C	1.101655	-0.120534	0.449763
C84	C	1.023951	-0.067447	0.399521
C85	C	0.972262	-0.032133	0.449782
C86	C	1.205388	-0.191393	0.600497
C87	C	1.257072	-0.226706	0.550242
C88	C	1.231048	-0.208935	0.449744
C89	C	1.153344	-0.155848	0.399502
C90	C	1.282737	-0.244249	0.399483
C91	C	1.256717	-0.226476	0.298986
C92	C	1.127325	-0.138075	0.299005
H93	H	0.601642	-0.295628	0.000050
H94	H	0.627680	0.036793	-0.000034
Br95	Br	0.826670	0.027647	-0.000023
H96	H	0.883313	0.028635	0.559629
H97	H	1.265719	-0.928178	-0.000007
Br98	Br	1.406477	-0.564897	0.000003
Br99	Br	1.324968	-0.312920	0.000060
H100	H	1.276125	-0.406366	0.000023
Br101	Br	0.346571	-0.069038	-0.000022
H102	H	1.263889	-1.019327	-0.000020
H103	H	0.737490	-0.274091	0.000049
H104	H	0.953203	-0.852463	-0.000035
H105	H	0.872873	-0.540881	-0.000046
H106	H	1.357632	-0.658340	0.000003
Br107	Br	0.828212	-0.424776	-0.000050
H108	H	1.356444	-0.717924	-0.000003
H109	H	0.951395	-0.943606	-0.000020
Br110	Br	0.916590	-0.332975	0.000032
H111	H	0.965441	-0.239510	0.000035
Br112	Br	1.362535	-0.298751	0.618425
Br113	Br	0.825217	-0.575515	-0.000037
Br114	Br	1.240704	-0.215510	0.736887
Br115	Br	1.401095	-0.834037	-0.000010
Br116	Br	0.822855	-0.693923	-0.000045
H117	H	1.165289	-0.163991	0.741932
Br118	Br	0.858734	-0.214173	0.000020
Br119	Br	1.021847	-0.066029	0.230823
H120	H	1.002770	-0.052976	0.317690
Br121	Br	0.402666	-0.286476	0.000050
H122	H	0.908977	0.011095	0.408878
Br123	Br	1.388208	-0.316291	0.467668
Br124	Br	0.458634	0.044744	-0.000044
H125	H	0.930537	-0.003613	0.741948
H126	H	0.849552	-0.160306	0.000026
Br127	Br	1.326868	-0.274400	0.230781
H128	H	0.424068	-0.053558	-0.000018
