data_functionalizedCrystal
_audit_creation_method	'MofGen! by Chris Wilmer'
_symmetry_space_group_name_H-M	'P1'
_symmetry_Int_Tables_number	1
_symmetry_cell_setting	triclinic
loop_
_symmetry_equiv_pos_as_xyz
  x,y,z
_cell_length_a	16.974885
_cell_length_b	16.992695
_cell_length_c	15.455313
_cell_angle_alpha	92.847427
_cell_angle_beta	90.969048
_cell_angle_gamma	87.023153
loop_
_atom_site_label
_atom_site_type_symbol
_atom_site_fract_x
_atom_site_fract_y
_atom_site_fract_z
O1	O	1.055362	0.099990	0.001883
O2	O	1.555362	0.599990	0.501883
O3	O	0.826686	0.111961	-0.014157
O4	O	1.326686	0.611961	0.485843
O5	O	0.940107	-0.008168	-0.006194
O6	O	1.440107	0.491832	0.493806
O7	O	0.941941	0.220120	-0.006080
O8	O	1.441941	0.720120	0.493920
O9	O	0.933619	-0.001327	0.137612
O10	O	1.433619	0.498673	0.637612
O11	O	0.820198	0.118803	0.129650
O12	O	1.320198	0.618803	0.629650
O13	O	1.048874	0.106832	0.145689
O14	O	1.548874	0.606832	0.645689
Cu15	Cu	0.933944	0.113442	0.150800
Cu16	Cu	1.433944	0.613442	0.650800
Cu17	Cu	0.941616	0.105351	-0.019268
Cu18	Cu	1.441616	0.605351	0.480732
O19	O	0.935453	0.226962	0.137727
O20	O	1.435453	0.726962	0.637727
C21	C	0.794046	0.114801	0.055685
C22	C	1.294046	0.614801	0.555685
C23	C	0.706455	0.113059	0.049541
C24	C	1.206455	0.613059	0.549541
C25	C	0.213798	0.102824	0.006487
C26	C	0.713798	0.602824	0.506487
C27	C	0.296098	0.104461	0.012271
C28	C	0.796098	0.604461	0.512271
C29	C	0.333703	0.109015	0.093552
C30	C	0.833703	0.609015	0.593552
C31	C	0.289004	0.111923	0.169055
C32	C	0.789004	0.611923	0.669055
C33	C	0.206706	0.110280	0.163270
C34	C	0.706706	0.610280	0.663270
C35	C	0.579458	0.114324	0.119259
C36	C	1.079458	0.614324	0.619259
C37	C	0.661762	0.115969	0.125038
C38	C	1.161762	0.615969	0.625038
C39	C	0.668851	0.108505	-0.031747
C40	C	1.168851	0.608505	0.468253
C41	C	0.586550	0.106867	-0.037524
C42	C	1.086550	0.606867	0.462476
C43	C	0.541859	0.109772	0.037978
C44	C	1.041859	0.609772	0.537978
N45	N	0.417827	0.110691	0.099467
N46	N	0.917827	0.610691	0.599467
N47	N	0.457737	0.108090	0.032063
N48	N	0.957737	0.608090	0.532063
C49	C	0.934504	-0.033966	0.065543
C50	C	1.434504	0.466034	0.565543
C51	C	0.927467	-0.121025	0.065050
C52	C	1.427467	0.378975	0.565050
C53	C	0.995367	-0.171115	0.069813
C54	C	1.495367	0.328885	0.569813
C55	C	0.988751	-0.252916	0.069341
C56	C	1.488751	0.247084	0.569341
C57	C	0.914233	-0.284627	0.064111
C58	C	1.414233	0.215373	0.564111
C59	C	0.846328	-0.234532	0.059345
C60	C	1.346328	0.265468	0.559345
C61	C	0.852946	-0.152732	0.059811
C62	C	1.352946	0.347268	0.559811
C63	C	0.886806	-0.528286	0.062175
C64	C	1.386806	-0.028286	0.562175
C65	C	0.880193	-0.610093	0.061712
C66	C	1.380193	-0.110093	0.561712
C67	C	1.022617	-0.628472	0.071707
C68	C	1.522617	-0.128472	0.571707
C69	C	1.029227	-0.546669	0.072177
C70	C	1.529227	-0.046669	0.572177
C71	C	0.961323	-0.496581	0.067407
C72	C	1.461323	0.003419	0.567407
N73	N	0.907468	-0.368241	0.063631
N74	N	1.407468	0.131759	0.563631
N75	N	0.968089	-0.412969	0.067881
N76	N	1.468089	0.087031	0.567881
C77	C	1.081514	0.103992	0.075846
C78	C	1.581514	0.603992	0.575846
C79	C	1.169105	0.105734	0.081984
C80	C	1.669105	0.605734	0.581984
C81	C	0.941056	0.252759	0.065987
C82	C	1.441056	0.752759	0.565987
C83	C	0.948093	0.339818	0.066476
C84	C	1.448093	0.839818	0.566476
N85	N	0.928553	0.119132	0.270417
N86	N	1.428553	0.619132	0.770417
N87	N	0.947013	0.099655	-0.138884
N88	N	1.447013	0.599655	0.361116
C89	C	0.976757	0.068115	0.319196
C90	C	1.476757	0.568115	0.819196
C91	C	0.972688	0.072426	0.409718
C92	C	1.472688	0.572426	0.909718
C93	C	0.920418	0.127757	0.451461
C94	C	1.420418	0.627757	0.951461
C95	C	0.872209	0.178776	0.402676
C96	C	1.372209	0.678776	0.902676
C97	C	0.876274	0.174461	0.312155
C98	C	1.376274	0.674461	0.812155
C99	C	0.902869	0.146359	0.721810
C100	C	1.402869	0.646359	1.221810
C101	C	0.898808	0.150672	0.812338
C102	C	1.398808	0.650672	1.312338
C103	C	0.999287	0.044320	0.819373
C104	C	1.499287	0.544320	1.319373
C105	C	1.003352	0.040014	0.728851
C106	C	1.503352	0.540014	1.228851
C107	C	0.955139	0.091030	0.680074
C108	C	1.455139	0.591030	1.180074
N109	N	0.916260	0.132166	0.543989
N110	N	1.416260	0.632166	1.043989
N111	N	0.959294	0.086616	0.587547
N112	N	1.459294	0.586616	1.087547
H113	H	0.183186	0.099121	-0.059702
H114	H	0.683186	0.599121	0.440298
O115	O	0.773990	-0.265432	0.054152
O116	O	1.273990	0.234568	0.554152
C117	C	0.769255	-0.315724	-0.020905
C118	C	1.269255	0.184276	0.479095
H119	H	0.831212	-0.337138	-0.041468
H120	H	1.331212	0.162862	0.458532
H121	H	0.733709	-0.368560	-0.006594
H122	H	1.233709	0.131440	0.493406
H123	H	0.739016	-0.282142	-0.075344
H124	H	1.239016	0.217858	0.424656
O125	O	0.339559	0.101501	-0.061040
O126	O	0.839559	0.601501	0.438960
C127	C	0.392043	0.034383	-0.062045
C128	C	0.892043	0.534383	0.437955
H129	H	0.368481	-0.011424	-0.019075
H130	H	0.868481	0.488576	0.480925
H131	H	0.397679	0.008329	-0.131201
H132	H	0.897679	0.508329	0.368799
H133	H	0.452410	0.051969	-0.036671
H134	H	0.952410	0.551969	0.463329
H135	H	1.011940	0.030883	0.449433
H136	H	1.511940	0.530883	0.949433
O137	O	0.163197	0.113210	0.236546
O138	O	0.663197	0.613210	0.736546
C139	C	0.110736	0.180346	0.237570
C140	C	0.610736	0.680346	0.737570
H141	H	0.099934	0.199483	0.168531
H142	H	0.599934	0.699483	0.668531
H143	H	0.052410	0.165506	0.266754
H144	H	0.552410	0.665506	0.766754
H145	H	0.137441	0.230335	0.278252
H146	H	0.637441	0.730335	0.778252
H147	H	0.555938	0.103158	-0.103713
H148	H	1.055938	0.603158	0.396287
O149	O	1.046188	-0.005279	0.866626
O150	O	1.546188	0.494721	1.366626
C151	C	1.093175	-0.055057	0.810370
C152	C	1.593175	0.444943	1.310370
H153	H	1.098993	-0.025974	0.746045
H154	H	1.598993	0.474026	1.246045
H155	H	1.154187	-0.065610	0.840874
H156	H	1.654187	0.434390	1.340874
H157	H	1.064342	-0.113839	0.798702
H158	H	1.564342	0.386161	1.298702
H159	H	0.705247	0.106140	-0.093217
H160	H	1.205247	0.606140	0.406783
H161	H	1.077901	-0.669262	0.075589
H162	H	1.577901	-0.169262	0.575589
H163	H	0.863613	0.187900	0.682103
H164	H	1.363613	0.687900	1.182103
O165	O	0.847953	0.204438	0.852748
O166	O	1.347953	0.704438	1.352748
C167	C	0.806281	0.248551	0.790287
C168	C	1.306281	0.748551	1.290287
H169	H	0.806270	0.213325	0.725561
H170	H	1.306270	0.713325	1.225561
H171	H	0.742916	0.261570	0.812097
H172	H	1.242916	0.761570	1.312097
H173	H	0.835956	0.306429	0.782697
H174	H	1.335956	0.806429	1.282697
O175	O	0.821389	0.232420	0.443317
O176	O	1.321389	0.732420	0.943317
C177	C	0.767763	0.192779	0.492088
C178	C	1.267763	0.692779	0.992088
H179	H	0.794683	0.132149	0.507582
H180	H	1.294683	0.632149	1.007582
H181	H	0.754498	0.228510	0.555010
H182	H	1.254498	0.728510	1.055010
H183	H	0.710744	0.185625	0.453111
H184	H	1.210744	0.685625	0.953111
H185	H	0.797654	-0.111949	0.055932
H186	H	1.297654	0.388051	0.555932
H187	H	0.837020	0.216003	0.272440
H188	H	1.337020	0.716003	0.772440
H189	H	1.056047	-0.145302	0.074077
H190	H	1.556047	0.354698	0.574077
H191	H	0.692377	0.119683	0.191231
H192	H	1.192377	0.619683	0.691231
O193	O	0.535956	0.117243	0.192534
O194	O	1.035956	0.617243	0.692534
C195	C	0.483489	0.184375	0.193562
C196	C	0.983489	0.684375	0.693562
H197	H	0.472687	0.203517	0.124525
H198	H	0.972687	0.703517	0.624525
H199	H	0.425164	0.169527	0.222741
H200	H	0.925164	0.669527	0.722741
H201	H	0.510188	0.234364	0.234250
H202	H	1.010188	0.734364	0.734250
O203	O	0.325629	0.116240	0.247964
O204	O	0.825629	0.616240	0.747964
C205	C	0.377664	0.049552	0.256344
C206	C	0.877664	0.549552	0.756344
H207	H	0.394625	0.023934	0.189261
H208	H	0.894625	0.523934	0.689261
H209	H	0.432989	0.067550	0.293513
H210	H	0.932989	0.567550	0.793513
H211	H	0.347459	0.003246	0.293035
H212	H	0.847459	0.503246	0.793035
H213	H	1.044042	-0.293696	0.073221
H214	H	1.544042	0.206304	0.573221
O215	O	1.053830	-0.014076	0.688383
O216	O	1.553830	0.485924	1.188383
C217	C	1.010625	-0.065034	0.633142
C218	C	1.510625	0.434966	1.133142
H219	H	0.951710	-0.034345	0.615229
H220	H	1.451710	0.465655	1.115229
H221	H	1.045549	-0.080875	0.571807
H222	H	1.545549	0.419125	1.071807
H223	H	0.999680	-0.121089	0.667720
H224	H	1.499680	0.378911	1.167720
H225	H	1.089907	-0.520857	0.076436
H226	H	1.589907	-0.020857	0.576436
H227	H	0.819508	-0.635907	0.057467
H228	H	1.319508	-0.135907	0.557467
H229	H	0.831512	-0.487514	0.058291
H230	H	1.331512	0.012486	0.558291
H231	H	1.019325	0.023062	0.285215
H232	H	1.519325	0.523062	0.785215
