data_functionalizedCrystal
_audit_creation_method	'MofGen! by Chris Wilmer'
_symmetry_space_group_name_H-M	'P1'
_symmetry_Int_Tables_number	1
_symmetry_cell_setting	triclinic
loop_
_symmetry_equiv_pos_as_xyz
  x,y,z
_cell_length_a	17.699097
_cell_length_b	26.809956
_cell_length_c	27.732048
_cell_angle_alpha	90.000636
_cell_angle_beta	97.034473
_cell_angle_gamma	89.986911
loop_
_atom_site_label
_atom_site_type_symbol
_atom_site_fract_x
_atom_site_fract_y
_atom_site_fract_z
O1	O	-1.003536	0.041534	0.061149
O2	O	-0.783089	0.041525	0.069095
O3	O	-0.900159	0.041521	-0.005250
O4	O	-0.886466	0.041539	0.135494
O5	O	-0.900137	-0.041439	-0.005238
O6	O	-0.783067	-0.041434	0.069107
O7	O	-1.003514	-0.041425	0.061161
Zn8	Zn	-0.893287	-0.054601	0.065135
Zn9	Zn	-0.893316	0.054701	0.065121
O10	O	-0.886444	-0.041420	0.135506
C11	C	-0.754884	0.000044	0.068815
C12	C	-0.670874	0.000040	0.067958
C13	C	-0.155214	0.045277	0.062696
C14	C	-0.234151	0.045275	0.063498
C15	C	-0.273601	0.000052	0.063906
C16	C	-0.234112	-0.045172	0.063507
C17	C	-0.155177	-0.045169	0.062702
C18	C	-0.552447	-0.045182	0.066756
C19	C	-0.631387	-0.045181	0.067564
C20	C	-0.631421	0.045263	0.067553
C21	C	-0.552487	0.045265	0.066747
C22	C	-0.513004	0.000041	0.066346
C23	C	-0.427412	0.000044	0.065475
C24	C	-0.359192	0.000049	0.064781
N25	N	-0.893273	-0.129197	0.065145
C26	C	-0.945148	-0.473825	0.032209
C27	C	-0.945166	-0.682703	0.032201
O28	O	-0.989242	-0.709708	0.004200
N29	N	-0.893321	-0.708824	0.065110
C30	C	-0.841463	-0.682723	0.098020
O31	O	-0.797361	-0.709733	0.126008
C32	C	-0.841442	-0.473846	0.098025
C33	C	-0.893297	-0.447727	0.065118
C34	C	-0.996998	-0.447707	-0.000696
C35	C	-0.996996	-0.395490	-0.000692
C36	C	-0.945144	-0.369393	0.032217
C37	C	-0.893294	-0.395511	0.065122
C38	C	-0.789582	-0.447746	0.130933
C39	C	-0.789580	-0.395523	0.130930
C40	C	-0.841434	-0.369405	0.098023
C41	C	-0.841440	-0.317197	0.098035
N42	N	-0.893286	-0.291076	0.065126
C43	C	-0.945138	-0.317174	0.032217
C44	C	-0.841479	-0.792386	0.098016
C45	C	-0.841485	-0.844605	0.098016
C46	C	-0.945187	-0.844581	0.032196
C47	C	-0.945184	-0.792362	0.032199
C48	C	-0.893325	-0.766265	0.065108
C49	C	-0.945130	-0.207516	0.032228
C50	C	-0.945125	-0.155295	0.032236
C51	C	-0.841420	-0.155323	0.098054
C52	C	-0.841427	-0.207539	0.098048
C53	C	-0.893285	-0.233634	0.065131
O54	O	-0.797382	-0.290159	0.126017
O55	O	-0.989223	-0.290154	0.004227
C56	C	-0.945151	-0.526041	0.032205
C57	C	-0.893301	-0.552160	0.065110
C58	C	-0.841449	-0.526062	0.098019
C59	C	-0.893307	-0.604379	0.065109
C60	C	-0.945159	-0.630477	0.032200
C61	C	-0.997005	-0.604355	-0.000708
C62	C	-0.997002	-0.552139	-0.000704
C63	C	-0.789604	-0.552184	0.130927
C64	C	-0.789611	-0.604400	0.130921
C65	C	-0.841462	-0.630498	0.098012
C66	C	-0.031720	0.000055	0.061441
C67	C	-0.115730	0.000056	0.062298
C68	C	-0.899861	0.000040	-0.023252
C69	C	-0.898995	0.000035	-0.076910
N70	N	-0.893337	0.129297	0.065107
C71	C	-0.962727	0.000064	-0.415494
C72	C	-0.959516	0.000070	-0.617165
O73	O	-1.017794	0.000095	-0.648209
N74	N	-0.890098	0.000067	-0.636541
C75	C	-0.821478	0.000065	-0.605495
O76	O	-0.762361	0.000068	-0.626602
C77	C	-0.824691	0.000062	-0.403824
C78	C	-0.894113	0.000060	-0.384452
C79	C	-1.032144	0.000062	-0.396121
C80	C	-1.032946	0.000058	-0.345706
C81	C	-0.964331	0.000055	-0.314664
C82	C	-0.894915	0.000056	-0.334037
C83	C	-0.756072	0.000064	-0.372780
C84	C	-0.756881	0.000064	-0.322359
C85	C	-0.826303	0.000063	-0.302987
C86	C	-0.827102	0.000048	-0.252580
N87	N	-0.896520	0.000052	-0.233205
C88	C	-0.965135	0.000055	-0.264247
C89	C	-0.819797	0.000066	-0.711375
C90	C	-0.818994	0.000066	-0.761792
C91	C	-0.957032	0.000072	-0.773459
C92	C	-0.957834	0.000069	-0.723041
C93	C	-0.889215	0.000069	-0.692000
C94	C	-0.966814	0.000045	-0.158372
C95	C	-0.967610	0.000039	-0.107952
C96	C	-0.829573	0.000035	-0.096289
C97	C	-0.828776	0.000039	-0.146705
C98	C	-0.897403	0.000046	-0.177745
O99	O	-0.768855	0.000030	-0.221508
O100	O	-1.024244	0.000063	-0.243130
C101	C	-0.961925	0.000068	-0.465909
C102	C	-0.892509	0.000069	-0.485282
C103	C	-0.823894	0.000066	-0.454240
C104	C	-0.891705	0.000069	-0.535699
C105	C	-0.960320	0.000072	-0.566741
C106	C	-1.029738	0.000076	-0.547365
C107	C	-1.030540	0.000071	-0.496951
C108	C	-0.754476	0.000063	-0.473615
C109	C	-0.753680	0.000066	-0.524031
C110	C	-0.822294	0.000070	-0.555073
C111	C	-0.886743	0.000062	0.153508
C112	C	-0.887608	0.000069	0.207166
H113	H	-0.520312	-0.082006	0.066422
O114	O	-0.785541	-0.764242	0.133512
H115	H	-0.817116	-0.740440	0.156981
O116	O	-1.001043	-0.127123	-0.003266
H117	H	-1.037595	-0.103327	0.017048
H118	H	-0.987408	-0.771099	0.005403
O119	O	-0.733649	-0.367375	0.166428
H120	H	-0.697601	-0.394313	0.189310
H121	H	-0.698601	0.000061	-0.448345
H122	H	-0.663506	-0.082009	0.067896
H123	H	-0.747386	-0.625662	0.157723
H124	H	-1.024144	0.000036	-0.092182
H125	H	-1.022697	0.000052	-0.183639
H126	H	-0.697144	0.000064	-0.539798
H127	H	-0.987356	-0.228756	0.005423
O128	O	-1.052918	-0.523972	-0.036206
H129	H	-1.089472	-0.500174	-0.015894
H130	H	-0.266239	-0.081993	0.063837
O131	O	-0.755572	0.000031	-0.062801
H132	H	-0.707160	0.000028	-0.084739
H133	H	-0.123029	-0.081993	0.062383
H134	H	-0.799210	-0.228805	0.124849
H135	H	-1.039227	-0.625613	-0.027503
H136	H	-1.087070	0.000070	-0.481183
O137	O	-0.509929	0.094038	0.066306
H138	H	-0.481095	0.096189	0.033007
H139	H	-0.799205	-0.134066	0.124850
H140	H	-0.663578	0.082086	0.067878
H141	H	-0.266296	0.082098	0.063819
H142	H	-0.987408	-0.865839	0.005401
O143	O	-1.032710	0.000070	-0.702148
H144	H	-1.036386	0.033882	-0.679456
H145	H	-1.089477	0.000059	-0.329938
H146	H	-1.039218	-0.374227	-0.027490
O147	O	-0.733680	-0.524038	0.166427
H148	H	-0.697638	-0.550979	0.189310
O149	O	-1.106155	0.000059	-0.429599
H150	H	-1.154552	0.000053	-0.407649
O151	O	-0.744118	0.000061	-0.782686
H152	H	-0.696545	0.000064	-0.752625
H153	H	-1.012900	0.000074	-0.798742
O154	O	-0.745776	0.000060	-0.677902
H155	H	-0.742832	0.033874	-0.654654
O156	O	-1.052938	-0.475851	-0.036187
H157	H	-1.088992	-0.448908	-0.059060
H158	H	-0.772247	0.000027	-0.162478
O159	O	-0.681194	0.000067	-0.393667
H160	H	-0.633625	0.000071	-0.363605
O161	O	-0.785582	-0.872774	0.133524
H162	H	-0.749530	-0.845849	0.156407
H163	H	-0.747357	-0.469004	0.157729
H164	H	-1.085606	0.000076	-0.572649
O165	O	-0.112667	0.094053	0.062246
H166	H	-0.153390	0.125497	0.062649
O167	O	-0.682869	0.000059	-0.288878
H168	H	-0.634466	0.000056	-0.310823
