data_functionalizedCrystal
_audit_creation_method	'MofGen! by Chris Wilmer'
_symmetry_space_group_name_H-M	'P1'
_symmetry_Int_Tables_number	1
_symmetry_cell_setting	triclinic
loop_
_symmetry_equiv_pos_as_xyz
  x,y,z
_cell_length_a	10.686220
_cell_length_b	13.897448
_cell_length_c	10.685314
_cell_angle_alpha	94.334330
_cell_angle_beta	98.357559
_cell_angle_gamma	94.399460
loop_
_atom_site_label
_atom_site_type_symbol
_atom_site_fract_x
_atom_site_fract_y
_atom_site_fract_z
Zn1	Zn	1.885474	-0.306580	-0.569001
Zn2	Zn	2.385474	0.193420	-0.069001
Zn3	Zn	1.901609	-0.454532	-0.356765
Zn4	Zn	2.401609	0.045468	0.143235
Zn5	Zn	1.689484	-0.306660	-0.373036
Zn6	Zn	2.189484	0.193340	0.126964
Zn7	Zn	1.673193	-0.481248	-0.585202
Zn8	Zn	2.173193	0.018752	-0.085202
O9	O	1.787440	-0.387255	-0.471001
O10	O	2.287440	0.112745	0.028999
O11	O	2.065230	-0.314992	-0.527258
O12	O	2.565230	0.185008	-0.027258
O13	O	1.887041	-0.423768	-0.181310
O14	O	2.387041	0.076232	0.318690
O15	O	1.715549	-0.171666	-0.399061
O16	O	2.215549	0.328334	0.100939
O17	O	2.077084	-0.423691	-0.371329
O18	O	2.577084	0.076309	0.128671
O19	O	1.859542	-0.171607	-0.543035
O20	O	2.359542	0.328393	-0.043035
O21	O	1.731194	-0.315128	-0.193264
O22	O	2.231194	0.184872	0.306736
O23	O	1.509708	-0.341034	-0.414770
O24	O	2.009708	0.158966	0.085230
O25	O	1.687781	-0.469226	-0.760667
O26	O	2.187781	0.030774	-0.260667
O27	O	1.497738	-0.469303	-0.570648
O28	O	1.997738	0.030697	-0.070648
O29	O	1.843744	-0.340898	-0.748764
O30	O	2.343744	0.159102	-0.248764
O31	O	1.871243	-0.593059	-0.387038
O32	O	2.371243	-0.093059	0.112962
O33	O	1.703427	-0.612688	-0.554870
O34	O	2.203427	-0.112688	-0.054870
C35	C	1.457669	-0.408077	-0.496233
C36	C	1.957669	0.091923	0.003767
C37	C	1.316589	-0.417009	-0.507058
C38	C	1.816589	0.082991	-0.007058
C39	C	1.787350	-0.637873	-0.470972
C40	C	2.287350	-0.137873	0.029028
C41	C	1.787425	-0.745084	-0.470992
C42	C	2.287425	-0.245084	0.029008
C43	C	1.787552	-0.941375	-0.471062
C44	C	2.287552	-0.441375	0.028938
C45	C	1.787477	-0.832145	-0.471027
C46	C	2.287477	-0.332145	0.028973
C47	C	2.118499	-0.366353	-0.445671
C48	C	2.618499	0.133647	0.054329
C49	C	2.259576	-0.357445	-0.434877
C50	C	2.759576	0.142555	0.065123
C51	C	1.762146	-0.408033	-0.802056
C52	C	2.262146	0.091967	-0.302056
C53	C	1.751367	-0.416887	-0.943132
C54	C	2.251367	0.083113	-0.443132
C55	C	1.787563	-0.135658	-0.471056
C56	C	2.287563	0.364342	0.028944
C57	C	1.787615	-0.028442	-0.471079
C58	C	2.287615	0.471558	0.028921
C59	C	1.812709	-0.366483	-0.141228
C60	C	2.312709	0.133517	0.358772
C61	C	1.823734	-0.357342	-0.000134
C62	C	2.323734	0.142658	0.499866
H63	H	1.318695	-0.299617	-0.364797
H64	H	1.818695	0.200383	0.135203
Br65	Br	1.218055	-0.513416	-0.623854
Br66	Br	1.718055	-0.013416	-0.123854
Br67	Br	1.940728	-0.261063	-0.901594
Br68	Br	2.440728	0.238937	-0.401594
H69	H	1.681157	-0.474643	-1.002265
H70	H	2.181157	0.025357	-0.502265
