data_functionalizedCrystal
_audit_creation_method	'MofGen! by Chris Wilmer'
_symmetry_space_group_name_H-M	'P1'
_symmetry_Int_Tables_number	1
_symmetry_cell_setting	triclinic
loop_
_symmetry_equiv_pos_as_xyz
  x,y,z
_cell_length_a	16.120566
_cell_length_b	16.120507
_cell_length_c	16.120297
_cell_angle_alpha	95.611825
_cell_angle_beta	90.125018
_cell_angle_gamma	90.176284
loop_
_atom_site_label
_atom_site_type_symbol
_atom_site_fract_x
_atom_site_fract_y
_atom_site_fract_z
Zn1	Zn	-1.224924	0.422253	0.554860
Zn2	Zn	-0.724924	0.922253	1.054860
Zn3	Zn	-1.224800	0.554936	0.422159
Zn4	Zn	-0.724800	1.054936	0.922159
Zn5	Zn	-1.093665	0.408169	0.408096
Zn6	Zn	-0.593665	0.908169	0.908096
Zn7	Zn	-1.078798	0.554170	0.554084
Zn8	Zn	-0.578798	1.054170	1.054084
O9	O	-1.155547	0.484882	0.484800
O10	O	-0.655547	0.984882	0.984800
O11	O	-1.340942	0.446068	0.543467
O12	O	-0.840942	0.946068	1.043467
O13	O	-1.213575	0.529894	0.303661
O14	O	-0.713575	1.029894	0.803661
O15	O	-1.117351	0.293408	0.422004
O16	O	-0.617351	0.793408	0.922004
O17	O	-1.340851	0.543550	0.445972
O18	O	-0.840851	1.043550	0.945972
O19	O	-1.213786	0.303754	0.529831
O20	O	-0.713786	0.803754	1.029831
O21	O	-1.117231	0.422065	0.293330
O22	O	-0.617231	0.922065	0.793330
O23	O	-0.975659	0.421322	0.421252
O24	O	-0.475659	0.921322	0.921252
O25	O	-1.092012	0.542244	0.670819
O26	O	-0.592012	1.042244	1.170819
O27	O	-0.964736	0.528588	0.528508
O28	O	-0.464736	1.028588	1.028508
O29	O	-1.199370	0.445325	0.671389
O30	O	-0.699370	0.945325	1.171389
O31	O	-1.199159	0.671464	0.445219
O32	O	-0.699159	1.171464	0.945219
O33	O	-1.091892	0.670901	0.542144
O34	O	-0.591892	1.170901	1.042144
C35	C	-0.940111	0.473344	0.473270
C36	C	-0.440111	0.973344	0.973270
C37	C	-0.847944	0.468429	0.468358
C38	C	-0.347944	0.968429	0.968358
C39	C	-1.143920	0.701426	0.495143
C40	C	-0.643920	1.201426	0.995143
C41	C	-1.139021	0.794069	0.499599
C42	C	-0.639021	1.294069	0.999599
C43	C	-0.679194	0.459437	0.459397
C44	C	-0.179194	0.959437	0.959397
C45	C	-0.632736	0.510399	0.510213
C46	C	-0.132736	1.010399	1.010213
C47	C	-0.538838	0.505396	0.505226
C48	C	-0.038838	1.005396	1.005226
C49	C	-0.773101	0.464439	0.464382
C50	C	-0.273101	0.964439	0.964382
C51	C	-0.371825	0.496467	0.496361
C52	C	0.128175	0.996467	0.996361
C53	C	-0.463991	0.501409	0.501254
C54	C	0.036009	1.001409	1.001254
C55	C	-1.181032	1.005226	0.461813
C56	C	-0.681032	1.505226	0.961813
C57	C	-1.130090	0.963687	0.507746
C58	C	-0.630090	1.463687	1.007746
C59	C	-1.135061	0.869303	0.503212
C60	C	-0.635061	1.369303	1.003212
C61	C	-1.176063	1.099618	0.466346
C62	C	-0.676063	1.599618	0.966346
C63	C	-1.144046	0.495270	0.702191
C64	C	-0.644046	0.995270	1.202191
C65	C	-1.139145	0.499696	0.794830
C66	C	-0.639145	0.999696	1.294830
C67	C	-1.167209	1.267492	0.474421
C68	C	-0.667209	1.767492	0.974421
C69	C	-1.172099	1.174848	0.469962
C70	C	-0.672099	1.674848	0.969962
C71	C	-1.167054	0.474477	0.268254
C72	C	-0.667054	0.974477	0.768254
C73	C	-1.172128	0.469824	0.175613
C74	C	-0.672128	0.969824	0.675613
C75	C	-1.130167	0.507758	0.964440
C76	C	-0.630167	1.007758	1.464440
C77	C	-1.181103	0.461765	1.006007
C78	C	-0.681103	0.961765	1.506007
C79	C	-1.176108	0.466250	1.100385
C80	C	-0.676108	0.966250	1.600385
C81	C	-1.135161	0.503273	0.870055
C82	C	-0.635161	1.003273	1.370055
H83	H	-0.663482	0.557786	0.557463
H84	H	-0.163482	1.057786	1.057463
Br85	Br	-0.627952	0.380458	0.380649
Br86	Br	-0.127952	0.880458	0.880649
Br87	Br	-1.260057	0.390540	0.947191
Br88	Br	-0.760057	0.890540	1.447191
H89	H	-1.082813	0.550500	0.999731
H90	H	-0.582813	1.050500	1.499731
H91	H	-1.082744	0.999008	0.550475
H92	H	-0.582744	1.499008	1.050475
H93	H	-1.228375	0.969908	0.419086
H94	H	-0.728375	1.469908	0.919086
