data_functionalizedCrystal
_audit_creation_method	'MofGen! by Chris Wilmer'
_symmetry_space_group_name_H-M	'P1'
_symmetry_Int_Tables_number	1
_symmetry_cell_setting	triclinic
loop_
_symmetry_equiv_pos_as_xyz
  x,y,z
_cell_length_a	10.540514
_cell_length_b	15.072220
_cell_length_c	15.995292
_cell_angle_alpha	89.993815
_cell_angle_beta	96.008112
_cell_angle_gamma	90.004425
loop_
_atom_site_label
_atom_site_type_symbol
_atom_site_fract_x
_atom_site_fract_y
_atom_site_fract_z
O1	O	1.684246	0.073787	-0.117906
O2	O	1.314672	0.073785	-0.129046
O3	O	1.509600	0.073787	-0.001645
O4	O	1.489318	0.073785	-0.245307
O5	O	1.509588	-0.073778	-0.001629
O6	O	1.314660	-0.073780	-0.129030
O7	O	1.684233	-0.073778	-0.117890
Zn8	Zn	1.499444	-0.097208	-0.123458
Zn9	Zn	1.499461	0.097215	-0.123478
O10	O	1.489306	-0.073780	-0.245291
C11	C	1.267374	0.000003	-0.128207
C12	C	1.126460	0.000003	-0.125721
C13	C	1.054473	0.000003	-0.216837
C14	C	0.907896	0.000343	-0.214281
C15	C	0.934826	0.084111	-0.076177
C16	C	1.081320	0.084177	-0.079378
C17	C	1.081727	-0.083638	-0.078012
C18	C	0.934761	-0.084739	-0.077133
N19	N	1.499442	-0.229897	-0.123443
C20	C	1.499462	-0.589099	-0.123472
C21	C	1.604103	-0.551463	-0.055534
C22	C	1.603830	-0.448637	-0.055279
C23	C	1.499454	-0.410894	-0.123458
C24	C	1.367024	-0.448238	-0.103593
C25	C	1.367644	-0.551095	-0.103112
C26	C	1.526058	-0.551176	-0.211470
C27	C	1.529065	-0.448312	-0.210899
C28	C	1.499440	-0.310181	-0.123451
C29	C	1.499467	-0.689812	-0.123476
C30	C	1.731532	0.000006	-0.118729
C31	C	1.872446	0.000012	-0.121215
C32	C	1.508768	0.000007	0.029563
C33	C	1.506294	0.000014	0.122531
N34	N	1.499474	0.229904	-0.123486
C35	C	1.490137	0.000002	-0.276499
C36	C	1.492612	0.000001	-0.369467
C37	C	1.497196	0.000006	0.460323
C38	C	1.637889	-0.000324	0.436178
C39	C	1.640564	0.000012	0.339487
C40	C	1.501710	0.000009	0.292741
C41	C	1.431377	0.084273	0.322249
C42	C	1.429684	0.084340	0.419050
C43	C	1.426796	-0.083469	0.418941
C44	C	1.432010	-0.084579	0.322418
C45	C	1.504254	0.000014	0.198029
C46	C	1.494648	0.000007	0.555034
H47	H	1.129928	-0.084449	-0.010805
H48	H	1.109087	0.147282	-0.112286
H49	H	1.082488	-0.060296	-0.253793
O50	O	1.493210	-0.158863	0.299817
C51	C	1.598641	-0.134506	0.257395
H52	H	1.582694	-0.065175	0.229789
H53	H	1.609685	-0.183828	0.204616
H54	H	1.688797	-0.134818	0.303475
H55	H	1.343003	-0.422485	-0.040118
H56	H	0.891790	0.146936	-0.107062
H57	H	1.478404	0.147331	0.445571
O58	O	1.638742	-0.582053	-0.234164
C59	C	1.659682	-0.546810	-0.313214
H60	H	1.564529	-0.526650	-0.348584
H61	H	1.707132	-0.599098	-0.350982
H62	H	1.724316	-0.486186	-0.303999
H63	H	1.112790	-0.147402	-0.108336
H64	H	0.865673	0.060982	-0.249567
H65	H	1.586840	-0.424039	0.010009
H66	H	1.449752	-0.575520	-0.262037
O67	O	1.303297	-0.084039	0.436467
C68	C	1.280517	-0.009371	0.485843
H69	H	1.374538	0.014907	0.519886
H70	H	1.212702	-0.028350	0.533937
H71	H	1.235890	0.045708	0.443634
H72	H	1.344199	-0.575095	-0.038911
H73	H	1.084194	0.060222	-0.253264
O74	O	0.856567	-0.071658	-0.256468
C75	C	0.908608	-0.149661	-0.218174
H76	H	1.004686	-0.133900	-0.181643
H77	H	0.922289	-0.201217	-0.268597
H78	H	0.840933	-0.176941	-0.173319
H79	H	1.587361	-0.577321	0.009383
H80	H	1.471098	-0.147341	0.446775
H81	H	1.130268	0.087769	-0.012448
H82	H	1.326526	0.088156	0.434210
H83	H	1.695647	-0.060390	0.320142
H84	H	1.702271	-0.423388	-0.067224
O85	O	1.721844	-0.581072	-0.069660
C86	C	1.711383	-0.636239	-0.141233
H87	H	1.610505	-0.664203	-0.152013
H88	H	1.782594	-0.693129	-0.131058
H89	H	1.732591	-0.595997	-0.198502
H90	H	1.287440	-0.575993	-0.150672
H91	H	1.692114	-0.060753	0.463861
O92	O	1.272029	-0.418962	-0.161056
C93	C	1.324050	-0.364174	-0.220264
H94	H	1.419115	-0.336048	-0.191443
H95	H	1.255375	-0.307385	-0.238800
H96	H	1.339725	-0.404783	-0.278425
H97	H	0.913473	0.087002	-0.007823
O98	O	1.311113	-0.090507	0.283755
C99	C	1.286811	-0.017981	0.228728
H100	H	1.353965	0.038938	0.249673
H101	H	1.183802	0.004648	0.229839
H102	H	1.303011	-0.038879	0.162176
O103	O	1.702036	0.071431	0.470430
C104	C	1.620335	0.121912	0.516171
H105	H	1.516903	0.107582	0.491648
H106	H	1.641022	0.195507	0.508274
H107	H	1.637014	0.103469	0.585576
O108	O	0.885092	-0.158943	-0.116330
C109	C	0.752183	-0.161093	-0.112123
H110	H	0.727453	-0.119056	-0.056846
H111	H	0.720483	-0.232475	-0.103167
H112	H	0.701138	-0.133490	-0.172955
H113	H	0.911529	-0.090066	-0.009296
O114	O	1.309515	0.088177	0.284913
C115	C	1.292498	0.167013	0.237612
H116	H	1.366385	0.218102	0.263134
H117	H	1.192642	0.194247	0.242478
H118	H	1.304706	0.152438	0.168977
H119	H	1.626485	-0.423905	-0.225955
O120	O	1.444193	-0.417566	-0.274158
C121	C	1.509760	-0.369920	-0.332155
H122	H	1.604781	-0.345438	-0.299729
H123	H	1.449729	-0.310718	-0.356782
H124	H	1.527789	-0.415076	-0.386852
O125	O	1.706486	0.072300	0.317153
C126	C	1.646311	0.149998	0.342217
H127	H	1.541810	0.135260	0.349024
H128	H	1.652768	0.203882	0.292821
H129	H	1.695696	0.173682	0.405073
O130	O	1.489661	0.159027	0.297831
C131	C	1.486321	0.160193	0.209488
H132	H	1.474804	0.089582	0.184297
H133	H	1.579020	0.189593	0.190946
H134	H	1.402441	0.202344	0.181784
