data_functionalizedCrystal
_audit_creation_method	'MofGen! by Chris Wilmer'
_symmetry_space_group_name_H-M	'P1'
_symmetry_Int_Tables_number	1
_symmetry_cell_setting	triclinic
loop_
_symmetry_equiv_pos_as_xyz
  x,y,z
_cell_length_a	18.760490
_cell_length_b	23.196402
_cell_length_c	23.196401
_cell_angle_alpha	59.999265
_cell_angle_beta	90.024169
_cell_angle_gamma	60.025025
loop_
_atom_site_label
_atom_site_type_symbol
_atom_site_fract_x
_atom_site_fract_y
_atom_site_fract_z
Zr1	Zr	0.686544	0.631241	-0.075569
O2	O	0.572735	0.751484	-0.167633
O3	O	0.721430	0.510982	-0.047350
O4	O	0.721407	0.631268	-0.167625
O5	O	0.572780	0.631181	0.047520
O6	O	0.838685	0.631307	-0.167614
O7	O	0.572758	0.631198	-0.047359
O8	O	0.838727	0.416138	0.047536
O9	O	0.572738	0.846351	-0.167629
O10	O	0.823836	0.560481	-0.035302
O11	O	0.736328	0.560440	0.035497
O12	O	0.736301	0.702061	-0.106111
O13	O	0.648793	0.702019	-0.035313
Zr14	Zr	0.873625	0.631277	0.075769
Zr15	Zr	0.873590	0.631303	-0.075551
Zr16	Zr	0.686579	0.631215	0.075752
Zr17	Zr	0.686550	0.782543	-0.075562
Zr18	Zr	0.873620	0.479975	0.075763
O19	O	0.838739	0.751536	0.047550
O20	O	0.838690	0.751573	-0.167608
O21	O	0.572784	0.751447	0.047525
O22	O	0.987434	0.511034	0.167834
O23	O	0.987385	0.511071	-0.047325
O24	O	0.721480	0.510945	0.167809
O25	O	0.987389	0.631337	-0.047320
O26	O	0.838762	0.631250	0.167825
O27	O	0.721484	0.631211	0.167814
O28	O	0.987411	0.631320	0.047559
O29	O	0.721414	0.846401	-0.167615
O30	O	0.838755	0.416117	0.167816
O31	O	0.987431	0.416167	0.167830
O32	O	0.987404	0.416188	0.047550
O33	O	0.572765	0.846330	-0.047349
O34	O	0.721442	0.846380	-0.047335
O35	O	0.823868	0.560457	0.106312
O36	O	0.911376	0.560498	0.035513
O37	O	0.823841	0.702078	-0.035296
O38	O	0.736333	0.702037	0.035503
C39	C	0.780078	0.442003	0.000092
C40	C	0.780076	0.377771	0.000089
C41	C	0.546119	0.631181	0.000078
C42	C	0.466713	0.631154	0.000071
C43	C	0.825748	0.347622	-0.036870
C44	C	0.825756	0.287261	-0.036864
C45	C	0.780076	0.257063	0.000091
C46	C	0.734402	0.287215	0.037058
C47	C	0.734402	0.347570	0.037057
C48	C	0.703549	0.195009	-0.005191
C49	C	0.703546	0.134659	-0.005195
C50	C	0.780077	0.070908	0.000098
C51	C	0.856609	0.067521	0.005381
C52	C	0.856610	0.127875	0.005380
C53	C	0.780071	0.191618	0.000097
C54	C	0.825762	-0.024692	-0.036856
C55	C	0.825773	-0.085058	-0.036845
C56	C	0.734410	-0.085096	0.037072
C57	C	0.734408	-0.024738	0.037066
C58	C	0.780082	0.005464	0.000098
C59	C	0.130713	0.631351	-0.052148
C60	C	0.130853	0.631333	0.052396
C61	C	0.205500	0.631293	0.052384
C62	C	0.242757	0.631280	0.000106
C63	C	0.205368	0.631308	-0.052160
C64	C	0.242899	0.631257	0.104654
C65	C	0.317551	0.631215	0.104645
C66	C	0.354806	0.631208	0.052363
C67	C	0.317412	0.631237	0.000094
C68	C	0.354669	0.631225	-0.052184
C69	C	0.317273	0.631260	-0.104456
C70	C	0.242623	0.631302	-0.104442
C71	C	0.429456	0.631166	0.052349
C72	C	0.429324	0.631182	-0.052196
C73	C	1.014050	0.631337	0.000122
C74	C	1.093456	0.631364	0.000130
C75	C	0.780041	0.631291	-0.189179
C76	C	0.780027	0.631303	-0.253419
C77	C	0.780091	0.820515	0.000108
C78	C	0.780093	0.884747	0.000111
C79	C	0.844638	0.631326	-0.283576
C80	C	0.844658	0.631309	-0.343922
C81	C	0.780052	0.631286	-0.374118
C82	C	0.715434	0.631258	-0.343951
C83	C	0.715422	0.631267	-0.283602
C84	C	0.701205	0.678754	-0.493505
C85	C	0.701218	0.678751	-0.553856
C86	C	0.780090	0.631257	-0.560254
C87	C	0.858956	0.583777	-0.506299
C88	C	0.858944	0.583785	-0.445950
C89	C	0.780059	0.631277	-0.439556
C90	C	0.844728	0.631261	-0.655845
C91	C	0.844748	0.631240	-0.716190
C92	C	0.715518	0.631197	-0.716222
C93	C	0.715505	0.631210	-0.655874
C94	C	0.780110	0.631246	-0.625691
C95	C	0.780128	0.631226	0.189379
C96	C	0.780142	0.631215	0.253619
C97	C	1.014044	0.442081	0.000114
C98	C	1.093447	0.377876	0.000119
C99	C	0.780121	0.441970	0.189371
C100	C	0.780134	0.377727	0.253608
C101	C	1.014087	0.442049	0.189393
C102	C	1.093505	0.377832	0.253637
C103	C	0.546082	0.820469	-0.189193
C104	C	0.466664	0.884686	-0.253437
C105	C	0.546125	0.820437	0.000086
C106	C	0.466722	0.884642	0.000082
C107	C	0.780048	0.820548	-0.189171
C108	C	0.780035	0.884791	-0.253408
C109	C	1.085041	0.347715	-0.036850
C110	C	1.159642	0.287396	-0.036860
C111	C	1.242649	0.257234	0.000104
C112	C	1.251053	0.287401	0.037074
C113	C	1.176453	0.347723	0.037079
C114	C	0.825835	0.347567	0.320746
C115	C	0.825843	0.287213	0.381109
C116	C	0.780155	0.257015	0.374333
C117	C	0.734449	0.287181	0.307188
C118	C	0.734436	0.347539	0.246827
C119	C	1.176487	0.347697	0.246851
C120	C	1.251116	0.287368	0.307210
C121	C	1.242762	0.257170	0.374354
C122	C	1.159771	0.287311	0.381139
C123	C	1.085144	0.347644	0.320781
C124	C	0.383682	0.914828	-0.246651
C125	C	0.309053	0.975176	-0.307009
C126	C	0.317407	1.005377	-0.374154
C127	C	0.400398	0.975232	-0.380939
C128	C	0.475025	0.914889	-0.320581
C129	C	0.475128	0.914809	0.037044
C130	C	0.400527	0.975145	0.037037
C131	C	0.317520	1.005309	0.000072
C132	C	0.309116	0.975140	-0.036896
C133	C	0.383716	0.914809	-0.036892
C134	C	0.825732	0.914969	-0.246609
C135	C	0.825737	0.975324	-0.306961
C136	C	0.780040	1.005504	-0.374110
C137	C	0.734342	0.975319	-0.380907
C138	C	0.734342	0.914961	-0.320556
H139	H	0.862949	0.262709	-0.066961
H140	H	0.256783	1.054434	0.000075
H141	H	0.923159	0.545123	-0.402020
N142	N	0.875118	0.380128	0.328064
H143	H	0.904064	0.351858	0.379759
H144	H	0.833164	0.440702	0.304626
N145	N	0.090666	0.631353	0.108774
H146	H	0.125680	0.631331	0.141881
H147	H	0.090737	0.581110	0.136195
H148	H	0.897367	0.631254	-0.740742
H149	H	0.697251	0.262586	0.301682
N150	N	0.357459	0.631253	-0.160843
H151	H	0.322445	0.631283	-0.193957
H152	H	0.419467	0.580973	-0.137986
H153	H	0.862944	0.890406	-0.191938
H154	H	0.407190	0.999830	-0.435615
H155	H	0.256634	1.054512	-0.423295
H156	H	1.318647	0.262834	0.067168
H157	H	0.697208	0.372117	0.067154
N158	N	0.685147	0.007785	0.076929
H159	H	0.656209	-0.020504	0.100342
H160	H	0.639209	0.068359	0.042990
H161	H	0.542590	0.890348	-0.326115
H162	H	1.017580	0.372172	0.326317
N163	N	0.645721	0.631254	-0.251079
H164	H	0.655515	0.631267	-0.208269
H165	H	0.648582	0.580983	-0.236487
H166	H	0.542709	0.890254	0.067151
N167	N	0.616131	0.729985	-0.486609
H168	H	0.566175	0.760067	-0.529947
H169	H	0.617135	0.770566	-0.481861
H170	H	0.212566	0.631261	0.147220
N171	N	0.090374	0.631389	-0.108521
H172	H	0.134369	0.581128	-0.106242
H173	H	0.072292	0.681678	-0.156482
N174	N	1.185526	0.380247	0.076958
H175	H	1.249431	0.351981	0.100372
H176	H	1.156578	0.369720	0.114118
N177	N	0.374659	0.882259	-0.174236
H178	H	0.310761	0.910520	-0.179106
H179	H	0.403636	0.892761	-0.147576
H180	H	0.407387	0.999698	0.067143
H181	H	0.897274	0.631328	-0.368481
H182	H	0.697137	0.999901	-0.435588
H183	H	0.862949	0.999894	-0.301413
H184	H	0.780047	1.054651	-0.423246
N185	N	0.219550	1.007680	-0.299682
H186	H	0.225589	0.979382	-0.247987
H187	H	0.186592	0.997177	-0.323122
H188	H	0.863066	0.262658	0.435775
H189	H	0.241522	0.999708	-0.066992
H190	H	0.376860	0.890249	-0.066990
N191	N	0.357890	0.631165	0.161027
H192	H	0.322963	0.631174	0.194148
H193	H	0.357830	0.681405	0.138170
N194	N	0.780175	0.191914	0.439440
H195	H	0.816064	0.177392	0.482998
H196	H	0.806158	0.141882	0.439410
N197	N	0.685046	0.882423	-0.327901
H198	H	0.621133	0.928463	-0.354574
H199	H	0.692040	0.839595	-0.279462
N200	N	0.875009	0.380196	-0.076739
H201	H	0.903944	0.351933	-0.100152
H202	H	0.920949	0.369704	-0.042801
N203	N	0.469797	0.631120	0.108725
H204	H	0.434870	0.631129	0.141847
H205	H	0.469733	0.681362	0.085865
N206	N	1.340619	0.254865	0.299882
H207	H	1.334580	0.283147	0.248187
H208	H	1.373574	0.194287	0.323318
N209	N	1.323256	0.192097	0.439451
H210	H	1.377090	0.177591	0.424957
H211	H	1.323225	0.142051	0.468475
H212	H	0.923182	0.545102	-0.511505
N213	N	0.939147	0.124226	0.011079
H214	H	0.987633	0.074685	0.014432
H215	H	0.956176	0.120577	0.054698
N216	N	0.469502	0.631177	-0.108586
H217	H	0.434482	0.631207	-0.141696
H218	H	0.531511	0.580898	-0.085734
H219	H	0.641228	0.137426	-0.009500
N220	N	0.685090	0.380108	0.174415
H221	H	0.656135	0.351829	0.179289
H222	H	0.726988	0.369648	0.147726
H223	H	1.183306	0.372275	0.192184
H224	H	0.862956	-0.000104	-0.066955
N225	N	0.939161	-0.001231	0.011089
H226	H	0.927553	-0.038956	0.010292
H227	H	0.986279	-0.032567	0.056786
N228	N	0.875041	-0.117582	-0.076706
H229	H	0.903971	-0.089288	-0.100125
H230	H	0.833081	-0.107092	-0.113862
N231	N	0.202279	0.631358	-0.160827
H232	H	0.149334	0.631390	-0.152886
H233	H	0.246327	0.581101	-0.158531
N234	N	1.150763	0.254736	0.453559
H235	H	1.179692	0.265241	0.480253
H236	H	1.179684	0.194167	0.480184
N237	N	0.685147	-0.117665	0.076938
H238	H	0.692079	-0.160477	0.071333
H239	H	0.621251	-0.071593	0.057528
H240	H	1.017460	0.372273	-0.066959
H241	H	0.641219	0.246925	-0.009516
H242	H	0.697209	0.262623	0.067148
H243	H	0.897336	0.631287	-0.631268
N244	N	0.914318	0.631360	-0.251020
H245	H	0.955254	0.631371	-0.279284
H246	H	0.948205	0.581104	-0.200835
H247	H	0.662917	0.631174	-0.740804
N248	N	0.645816	0.631185	-0.623342
H249	H	0.604891	0.631166	-0.651625
H250	H	0.611920	0.681446	-0.623446
H251	H	0.637001	0.717417	-0.597785
H252	H	0.662832	0.631238	-0.368538
N253	N	1.150566	0.254868	-0.076737
H254	H	1.086661	0.283127	-0.100145
H255	H	1.179539	0.194287	-0.042805
H256	H	1.303386	0.208115	0.000094
