data_functionalizedCrystal
_audit_creation_method	'MofGen! by Chris Wilmer'
_symmetry_space_group_name_H-M	'P1'
_symmetry_Int_Tables_number	1
_symmetry_cell_setting	triclinic
loop_
_symmetry_equiv_pos_as_xyz
  x,y,z
_cell_length_a	10.686220
_cell_length_b	18.050589
_cell_length_c	10.686551
_cell_angle_alpha	85.596139
_cell_angle_beta	90.308082
_cell_angle_gamma	94.409750
loop_
_atom_site_label
_atom_site_type_symbol
_atom_site_fract_x
_atom_site_fract_y
_atom_site_fract_z
Zn1	Zn	1.972217	-0.181059	-0.562396
Zn2	Zn	1.955936	-0.315479	-0.352644
Zn3	Zn	1.746328	-0.200057	-0.368714
Zn4	Zn	1.762366	-0.313974	-0.578422
O5	O	1.859212	-0.252642	-0.465544
O6	O	2.145602	-0.191569	-0.521139
O7	O	1.914605	-0.308749	-0.179231
O8	O	1.776395	-0.093607	-0.394425
O9	O	2.133640	-0.290327	-0.367036
O10	O	1.942354	-0.079649	-0.536722
O11	O	1.760607	-0.223949	-0.191038
O12	O	1.572911	-0.222489	-0.409965
O13	O	1.803729	-0.287762	-0.751841
O14	O	1.584694	-0.306184	-0.564036
O15	O	1.957906	-0.190110	-0.740067
O16	O	1.930156	-0.419209	-0.382576
O17	O	1.787942	-0.418104	-0.548454
C18	C	1.533286	-0.266235	-0.490484
C19	C	1.393856	-0.272067	-0.501183
C20	C	1.859059	-0.445602	-0.465535
C21	C	1.859111	-0.528144	-0.465564
C22	C	1.781855	-0.727018	-0.555733
C23	C	1.742482	-0.783311	-0.443604
C24	C	1.859236	-0.679268	-0.465571
C25	C	1.898671	-0.770054	-0.577708
C26	C	1.859354	-0.825247	-0.465588
C27	C	1.819798	-0.734480	-0.353387
C28	C	1.976046	-0.721212	-0.487563
C29	C	1.936711	-0.777484	-0.375352
C30	C	1.859164	-0.595174	-0.465563
C31	C	1.859425	-0.909341	-0.465583
C32	C	2.186411	-0.238997	-0.440508
C33	C	2.325843	-0.233182	-0.429838
C34	C	1.884423	-0.236649	-0.792743
C35	C	1.895166	-0.229833	-0.932176
C36	C	1.859402	-0.058926	-0.465578
C37	C	1.859483	0.023624	-0.465593
C38	C	1.834171	-0.268517	-0.139612
C39	C	1.823671	-0.275113	-0.000161
H40	H	1.643756	-0.810397	-0.425021
C41	C	1.571145	-0.728731	-0.635198
C42	C	1.693372	-0.697131	-0.658536
H43	H	1.516520	-0.710274	-0.698657
H44	H	1.570018	-0.781387	-0.635427
H45	H	1.544000	-0.715950	-0.555688
H46	H	1.720522	-0.709916	-0.738043
H47	H	1.694504	-0.644462	-0.658320
C48	C	1.300776	-0.147419	-0.272470
C49	C	1.391225	-0.182216	-0.336324
H50	H	1.341148	-0.115959	-0.214732
H51	H	1.253919	-0.118497	-0.331078
H52	H	1.245932	-0.184204	-0.228277
H53	H	1.446063	-0.145430	-0.380525
H54	H	1.438102	-0.211140	-0.277708
C55	C	2.065120	-0.758798	-0.729617
C56	C	1.943645	-0.791459	-0.705712
H57	H	2.092878	-0.772016	-0.808640
H58	H	2.064654	-0.706152	-0.730775
H59	H	2.120214	-0.776086	-0.665656
H60	H	1.888549	-0.774166	-0.769669
H61	H	1.944103	-0.844116	-0.704565
C62	C	1.369661	-0.299736	-0.716579
C63	C	1.328469	-0.323037	-0.594699
H64	H	1.329298	-0.331205	-0.774308
H65	H	1.349696	-0.249842	-0.736689
H66	H	1.457927	-0.302372	-0.721399
H67	H	1.240203	-0.320396	-0.589876
H68	H	1.348425	-0.372944	-0.574584
H69	H	1.786378	-0.718720	-0.258543
H70	H	2.002194	-0.799490	-0.299031
C71	C	2.190768	-0.711156	-0.419515
C72	C	2.109299	-0.684644	-0.512724
H73	H	2.273035	-0.688582	-0.435066
H74	H	2.162901	-0.699173	-0.339797
H75	H	2.191634	-0.763694	-0.420487
H76	H	2.108427	-0.632106	-0.511746
H77	H	2.137174	-0.696621	-0.592463
C78	C	1.794920	-0.382862	-0.853970
C79	C	1.729942	-0.334486	-0.934736
H80	H	1.737053	-0.419513	-0.813568
H81	H	1.853425	-0.406522	-0.900905
H82	H	1.838333	-0.355358	-0.792649
H83	H	1.686537	-0.361989	-0.996063
H84	H	1.671415	-0.310825	-0.887799
H85	H	1.964605	-0.185853	-0.980647
