data_functionalizedCrystal
_audit_creation_method	'MofGen! by Chris Wilmer'
_symmetry_space_group_name_H-M	'P1'
_symmetry_Int_Tables_number	1
_symmetry_cell_setting	triclinic
loop_
_symmetry_equiv_pos_as_xyz
  x,y,z
_cell_length_a	12.837943
_cell_length_b	11.892095
_cell_length_c	12.837942
_cell_angle_alpha	94.302569
_cell_angle_beta	85.171060
_cell_angle_gamma	94.310562
loop_
_atom_site_label
_atom_site_type_symbol
_atom_site_fract_x
_atom_site_fract_y
_atom_site_fract_z
O1	O	1.408367	0.093982	-0.266110
O2	O	1.908367	0.593982	0.233890
O3	O	1.105234	0.093989	-0.252667
O4	O	1.605234	0.593989	0.247333
O5	O	1.250078	0.093979	-0.107822
O6	O	1.750078	0.593979	0.392178
O7	O	1.263522	0.093992	-0.410955
O8	O	1.763522	0.593992	0.089045
O9	O	1.237999	-0.094028	-0.119879
O10	O	1.737999	0.405972	0.380121
O11	O	1.093155	-0.094018	-0.264723
O12	O	1.593155	0.405982	0.235277
O13	O	1.396288	-0.094025	-0.278167
O14	O	1.896288	0.405975	0.221833
Zn15	Zn	1.242803	-0.123871	-0.273359
Zn16	Zn	1.742803	0.376129	0.226641
Zn17	Zn	1.258718	0.123836	-0.257474
Zn18	Zn	1.758718	0.623836	0.242526
O19	O	1.251443	-0.094014	-0.423011
O20	O	1.751443	0.405986	0.076989
C21	C	1.060125	-0.000014	-0.254153
C22	C	1.560125	0.499986	0.245847
C23	C	0.943710	-0.000011	-0.240609
C24	C	1.443710	0.499989	0.259391
N25	N	1.231950	-0.292925	-0.284200
N26	N	1.731950	0.207075	0.215800
C27	C	0.718835	-0.000020	-0.403439
C28	C	1.218835	0.499980	0.096561
C29	C	0.609453	-0.000019	-0.390717
C30	C	1.109453	0.499981	0.109283
C31	C	0.615561	-0.000015	-0.202446
C32	C	1.115561	0.499985	0.297554
C33	C	0.724943	-0.000017	-0.215167
C34	C	1.224943	0.499983	0.284833
C35	C	0.776577	-0.000017	-0.315667
C36	C	1.276577	0.499983	0.184333
C37	C	0.885961	-0.000011	-0.328387
C38	C	1.385961	0.499989	0.171613
C39	C	0.892066	-0.000015	-0.140117
C40	C	1.392066	0.499985	0.359883
C41	C	0.782684	-0.000014	-0.127395
C42	C	1.282684	0.499986	0.372605
C43	C	1.345098	-0.529580	-0.171130
C44	C	1.845098	-0.029580	0.328870
C45	C	1.337519	-0.647922	-0.178716
C46	C	1.837519	-0.147922	0.321284
C47	C	1.209210	-0.647951	-0.306952
C48	C	1.709210	-0.147951	0.193048
C49	C	1.216788	-0.529610	-0.299366
C50	C	1.716788	-0.029610	0.200634
C51	C	1.284736	-0.470428	-0.231454
C52	C	1.784736	0.029572	0.268546
C53	C	1.292319	-0.352085	-0.223874
C54	C	1.792319	0.147915	0.276126
C55	C	1.164005	-0.352116	-0.352104
C56	C	1.664005	0.147884	0.147896
C57	C	1.156426	-0.470458	-0.359690
C58	C	1.656426	0.029542	0.140310
C59	C	1.441397	-0.000020	-0.276680
C60	C	1.941397	0.499980	0.223320
C61	C	1.557812	-0.000015	-0.290224
C62	C	2.057812	0.499985	0.209776
C63	C	1.239497	-0.000024	-0.074781
C64	C	1.739497	0.499976	0.425219
C65	C	1.225953	-0.000022	0.041634
C66	C	1.725953	0.499978	0.541634
N67	N	1.269579	0.292889	-0.246626
N68	N	1.769579	0.792889	0.253374
C69	C	1.262024	-0.000009	-0.456052
C70	C	1.762024	0.499991	0.043948
C71	C	1.275569	-0.000004	-0.572467
C72	C	1.775569	0.499996	-0.072467
C73	C	1.388784	-0.000002	0.266509
C74	C	1.888784	0.499998	0.766509
C75	C	1.376062	0.000000	0.375892
C76	C	1.876062	0.500000	0.875892
C77	C	1.187791	-0.000007	0.369784
C78	C	1.687791	0.499993	0.869784
C79	C	1.200512	-0.000009	0.260402
C80	C	1.700512	0.499991	0.760402
C81	C	1.301011	-0.000008	0.208768
C82	C	1.801011	0.499992	0.708768
C83	C	1.313731	-0.000019	0.099383
C84	C	1.813731	0.499981	0.599383
C85	C	1.125461	-0.000018	0.093278
C86	C	1.625461	0.499982	0.593278
C87	C	1.112740	-0.000016	0.202660
C88	C	1.612740	0.499984	0.702660
H89	H	0.928000	-0.000013	-0.410219
H90	H	1.428000	0.499987	0.089781
H91	H	1.105969	0.000004	0.411844
H92	H	1.605969	0.500004	0.911844
Cl93	Cl	0.536867	-0.000026	-0.501064
Cl94	Cl	1.036867	0.499974	-0.001064
H95	H	1.030916	-0.000012	0.244716
H96	H	1.530916	0.499988	0.744716
Cl97	Cl	0.550631	-0.000029	-0.076115
Cl98	Cl	1.050631	0.499971	0.423885
Cl99	Cl	1.015111	-0.000041	0.020681
Cl100	Cl	1.515111	0.499959	0.520681
H101	H	0.760876	-0.000019	-0.485269
H102	H	1.260876	0.499981	0.014731
H103	H	0.740628	-0.000026	-0.045572
H104	H	1.240628	0.499974	0.454428
Cl105	Cl	1.377739	-0.277688	-0.138502
Cl106	Cl	1.877739	0.222312	0.361498
H107	H	1.101102	-0.518656	-0.414980
H108	H	1.601102	-0.018656	0.085020
Cl109	Cl	1.430526	-0.455180	-0.085768
Cl110	Cl	1.930526	0.044820	0.414232
H111	H	1.395563	-0.000022	0.057344
H112	H	1.895563	0.499978	0.557344
H113	H	1.114857	-0.303941	-0.401227
H114	H	1.614857	0.196059	0.098773
H115	H	1.386671	-0.696080	-0.129593
H116	H	1.886671	-0.196080	0.370407
Cl117	Cl	1.123784	-0.722361	-0.392311
Cl118	Cl	1.623784	-0.222361	0.107689
H119	H	0.939091	-0.000005	-0.068646
H120	H	1.439091	0.499995	0.431354
Cl121	Cl	1.515120	-0.000029	0.201593
Cl122	Cl	2.015120	0.499971	0.701593
H123	H	1.447536	0.000009	0.422901
H124	H	1.947536	0.500009	0.922901
