data_functionalizedCrystal
_audit_creation_method	'MofGen! by Chris Wilmer'
_symmetry_space_group_name_H-M	'P1'
_symmetry_Int_Tables_number	1
_symmetry_cell_setting	triclinic
loop_
_symmetry_equiv_pos_as_xyz
  x,y,z
_cell_length_a	10.654550
_cell_length_b	8.559649
_cell_length_c	9.130313
_cell_angle_alpha	90.000859
_cell_angle_beta	89.996220
_cell_angle_gamma	77.131784
loop_
_atom_site_label
_atom_site_type_symbol
_atom_site_fract_x
_atom_site_fract_y
_atom_site_fract_z
O1	O	1.644677	0.224178	-0.121910
O2	O	1.276992	0.245536	-0.121886
O3	O	1.493228	0.002614	-0.121899
O4	O	1.428441	0.467100	-0.121898
O5	O	1.493225	0.002621	0.121700
O6	O	1.276989	0.245543	0.121713
O7	O	1.644674	0.224184	0.121688
Cu8	Cu	1.460831	0.234864	0.143943
Cu9	Cu	1.460835	0.234856	-0.144141
O10	O	1.428438	0.467107	0.121701
C11	C	1.230355	0.243972	-0.000084
C12	C	1.091396	0.239279	-0.000075
C13	C	1.498136	-0.056858	-0.000103
C14	C	1.512750	-0.234076	-0.000112
C15	C	0.997136	0.382308	-0.000096
C16	C	0.866571	0.377890	-0.000121
C17	C	0.924542	0.087401	-0.000111
C18	C	1.055103	0.091821	-0.000075
C19	C	0.963666	0.550020	-0.000108
C20	C	0.833101	0.545601	-0.000133
C21	C	1.691311	0.225749	-0.000117
C22	C	1.830270	0.230441	-0.000136
C23	C	1.423530	0.526579	-0.000098
C24	C	1.408916	0.703797	-0.000099
N25	N	1.460838	0.234869	0.346566
N26	N	1.460839	0.234839	-0.346763
C27	C	1.556605	0.127340	0.423212
C28	C	1.556604	0.127320	0.576549
C29	C	1.365062	0.342374	0.576580
C30	C	1.365060	0.342384	0.423245
C31	C	1.667194	0.003185	0.423195
C32	C	1.667192	0.003166	0.576532
H33	H	0.894975	-0.032654	-0.000133
H34	H	1.287069	0.429928	0.360841
O35	O	1.632249	-0.332132	-0.000051
C36	C	1.861195	-0.350143	-0.000164
C37	C	1.725944	-0.238913	-0.000197
H38	H	1.936984	-0.274820	-0.000314
H39	H	1.873439	-0.428943	0.101811
H40	H	1.873285	-0.429029	-0.102081
H41	H	1.713762	-0.159927	0.101650
H42	H	1.713763	-0.160222	-0.102240
H43	H	1.308838	-0.213815	-0.000088
O44	O	0.990379	0.628246	0.121623
C45	C	0.907838	0.766526	0.343290
C46	C	0.877414	0.677942	0.205513
H47	H	0.816520	0.806760	0.411137
H48	H	0.983958	0.682735	0.411384
H49	H	0.945554	0.875771	0.309284
H50	H	0.839646	0.568701	0.239387
H51	H	0.801341	0.761842	0.137452
H52	H	1.648655	-0.112769	0.624081
O53	O	1.779002	0.035869	0.625940
C54	C	1.982799	0.095257	0.561907
C55	C	1.856224	0.058281	0.505755
H56	H	2.045280	0.113354	0.464767
H57	H	1.960449	0.208854	0.631238
H58	H	2.036414	-0.009187	0.631305
H59	H	1.802547	0.162626	0.436297
H60	H	1.878662	-0.055370	0.436504
H61	H	1.287081	0.429908	0.639029
O62	O	0.775419	0.620749	-0.121807
C63	C	0.658451	0.597262	-0.343608
C64	C	0.723698	0.511979	-0.205864
H65	H	0.616641	0.509350	-0.411622
H66	H	0.577899	0.702531	-0.309729
H67	H	0.732601	0.643026	-0.411501
H68	H	0.649645	0.466113	-0.137909
H69	H	0.804274	0.406786	-0.239844
H70	H	1.131848	-0.024647	-0.000037
O71	O	0.999406	0.613832	-0.125632
C72	C	0.932862	0.728993	-0.361638
C73	C	0.892204	0.656800	-0.219540
H74	H	0.846218	0.763723	-0.437615
H75	H	0.970917	0.839928	-0.334337
H76	H	1.011591	0.636658	-0.418203
H77	H	0.813442	0.749017	-0.162906
H78	H	0.854227	0.545834	-0.246936
O79	O	0.772365	0.605777	0.125417
C80	C	0.652824	0.554855	0.337438
C81	C	0.721583	0.486513	0.195305
H82	H	0.611725	0.458474	0.393967
H83	H	0.724451	0.595037	0.413479
H84	H	0.571309	0.661706	0.310031
H85	H	0.803093	0.379615	0.222575
H86	H	0.649875	0.446441	0.119305
H87	H	1.658424	-0.119498	0.381577
H88	H	1.754362	0.042059	0.375631
