data_functionalizedCrystal
_audit_creation_method	'MofGen! by Chris Wilmer'
_symmetry_space_group_name_H-M	'P1'
_symmetry_Int_Tables_number	1
_symmetry_cell_setting	triclinic
loop_
_symmetry_equiv_pos_as_xyz
  x,y,z
_cell_length_a	17.699083
_cell_length_b	16.776229
_cell_length_c	17.699104
_cell_angle_alpha	89.992410
_cell_angle_beta	96.712734
_cell_angle_gamma	90.001114
loop_
_atom_site_label
_atom_site_type_symbol
_atom_site_fract_x
_atom_site_fract_y
_atom_site_fract_z
O1	O	1.004086	0.066178	-0.095712
O2	O	0.783708	0.066204	-0.108164
O3	O	0.900115	0.066183	0.008250
O4	O	0.887679	0.066199	-0.212126
O5	O	0.900099	-0.066393	0.008257
O6	O	0.783693	-0.066372	-0.108157
O7	O	1.004070	-0.066398	-0.095705
Zn8	Zn	0.893879	-0.087435	-0.101930
Zn9	Zn	0.893899	0.087241	-0.101939
O10	O	0.887664	-0.066377	-0.212119
C11	C	0.755503	-0.000081	-0.107715
C12	C	0.671485	-0.000071	-0.106376
N13	N	0.893871	-0.206646	-0.101923
C14	C	0.622869	-0.000066	-0.174709
C15	C	0.543926	-0.000076	-0.173446
C16	C	0.513600	-0.000086	-0.103851
C17	C	0.562222	-0.000093	-0.035513
C18	C	0.641164	-0.000088	-0.036776
C19	C	0.243859	-0.000113	-0.030418
C20	C	0.164911	-0.000115	-0.029160
C21	C	0.146621	-0.000101	-0.167088
C22	C	0.225563	-0.000097	-0.168351
C23	C	0.274178	-0.000108	-0.100014
C24	C	0.359777	-0.000098	-0.101383
C25	C	0.428002	-0.000090	-0.102480
C26	C	0.945431	-0.248372	-0.050396
C27	C	0.945435	-0.331824	-0.050395
C28	C	0.893882	-0.373549	-0.101926
C29	C	0.842316	-0.331816	-0.153456
C30	C	0.842309	-0.248366	-0.153452
C31	C	0.842343	-0.668364	-0.153470
C32	C	0.842356	-0.751820	-0.153472
C33	C	0.945470	-0.751822	-0.050414
C34	C	0.945463	-0.668372	-0.050410
C35	C	0.893894	-0.626647	-0.101937
C36	C	0.893890	-0.536158	-0.101936
C37	C	0.893890	-0.464036	-0.101931
C38	C	1.032275	-0.000112	-0.096155
C39	C	1.116293	-0.000116	-0.097493
C40	C	0.899659	-0.000105	0.036450
C41	C	0.898314	-0.000105	0.120467
N42	N	0.893914	0.206452	-0.101940
C43	C	0.888120	-0.000087	-0.240319
C44	C	0.889464	-0.000082	-0.324337
C45	C	0.959058	-0.000090	0.645338
C46	C	0.960317	-0.000097	0.566395
C47	C	0.891982	-0.000091	0.517777
C48	C	0.822383	-0.000085	0.548107
C49	C	0.821125	-0.000084	0.627049
C50	C	0.827456	-0.000092	0.229741
C51	C	0.828720	-0.000092	0.150794
C52	C	0.966648	-0.000106	0.169086
C53	C	0.965390	-0.000104	0.248029
C54	C	0.895792	-0.000103	0.278352
C55	C	0.894427	-0.000097	0.363951
C56	C	0.893345	-0.000091	0.432179
H57	H	0.647554	-0.000058	-0.231382
Br58	Br	1.015409	-0.388456	0.019538
Br59	Br	0.477949	-0.000068	-0.266188
H60	H	1.023319	-0.000096	0.144388
H61	H	0.766743	-0.000085	0.508516
H62	H	0.800322	-0.214393	-0.195410
H63	H	0.537525	-0.000112	0.021153
H64	H	0.764455	-0.000084	0.651738
H65	H	0.987445	-0.634402	-0.008452
Br66	Br	1.015457	-0.808453	0.019518
H67	H	0.250249	-0.000085	-0.225023
Br68	Br	0.707144	-0.000101	0.055965
Br69	Br	0.080639	-0.000087	-0.259834
Br70	Br	0.733001	-0.000085	0.270884
Br71	Br	1.058134	-0.000108	0.314006
Br72	Br	0.772387	-0.808446	-0.223412
H73	H	0.140223	-0.000124	0.027517
Br74	Br	0.309827	-0.000130	0.062327
H75	H	0.800356	-0.634398	-0.195426
Br76	Br	1.015406	-0.191755	0.019537
Br77	Br	0.772343	-0.388439	-0.223387
Br78	Br	1.054769	-0.000088	0.525242
H79	H	0.773070	-0.000088	0.111210
H80	H	1.014705	-0.000088	0.684918
