data_functionalizedCrystal
_audit_creation_method	'MofGen! by Chris Wilmer'
_symmetry_space_group_name_H-M	'P1'
_symmetry_Int_Tables_number	1
_symmetry_cell_setting	triclinic
loop_
_symmetry_equiv_pos_as_xyz
  x,y,z
_cell_length_a	12.759401
_cell_length_b	12.759399
_cell_length_c	16.994726
_cell_angle_alpha	90.084759
_cell_angle_beta	89.953316
_cell_angle_gamma	89.984308
loop_
_atom_site_label
_atom_site_type_symbol
_atom_site_fract_x
_atom_site_fract_y
_atom_site_fract_z
Zn1	Zn	1.606542	0.417615	-0.445971
Zn2	Zn	1.606347	0.593507	-0.314080
Zn3	Zn	1.430757	0.417843	-0.314087
Zn4	Zn	1.430830	0.593253	-0.445949
O5	O	1.518619	0.505554	-0.380022
O6	O	1.753537	0.440958	-0.428481
O7	O	1.582943	0.570406	-0.203699
O8	O	1.454127	0.270792	-0.331594
O9	O	1.753394	0.570185	-0.331582
O10	O	1.583275	0.270624	-0.428488
O11	O	1.453938	0.441347	-0.203705
O12	O	1.283746	0.441101	-0.331573
O13	O	1.454250	0.569753	-0.556333
O14	O	1.283799	0.569974	-0.428451
O15	O	1.583345	0.440712	-0.556349
O16	O	1.583013	0.740494	-0.331561
O17	O	1.454061	0.740308	-0.428444
C18	C	1.245652	0.505535	-0.380011
C19	C	1.128875	0.505552	-0.380025
C20	C	1.518553	0.778522	-0.380017
C21	C	1.518620	0.895298	-0.380041
C22	C	1.074068	0.572764	-0.430386
C23	C	0.964344	0.572777	-0.430395
C24	C	0.964243	0.438364	-0.329674
C25	C	1.073965	0.438346	-0.329670
C26	C	1.128978	0.639970	-0.480741
C27	C	1.074171	0.707188	-0.531106
C28	C	0.964447	0.707201	-0.531114
C29	C	0.909530	0.639997	-0.480758
C30	C	1.585839	0.950223	-0.329652
C31	C	1.585902	1.059947	-0.329681
C32	C	1.451518	1.059813	-0.430490
C33	C	1.451461	0.950091	-0.430465
C34	C	1.652998	0.895430	-0.279228
C35	C	1.720222	0.950355	-0.228834
C36	C	1.720285	1.060079	-0.228863
C37	C	1.653124	1.114878	-0.279286
C38	C	1.792652	0.505575	-0.380033
C39	C	1.909429	0.505583	-0.380038
C40	C	1.518710	1.231521	-0.380055
C41	C	1.518740	1.114744	-0.380095
C42	C	1.518469	0.505845	-0.175081
C43	C	1.518587	0.505706	-0.085760
C44	C	1.518940	0.505029	-0.675083
C45	C	1.518834	0.505188	-0.585760
Zn46	Zn	1.430715	0.592725	0.185412
Zn47	Zn	1.606995	0.417657	0.184819
Zn48	Zn	1.606231	0.593560	0.053329
Zn49	Zn	1.431211	0.417328	0.053150
O50	O	1.518788	0.505317	0.119178
O51	O	1.454211	0.569290	0.295714
O52	O	1.753914	0.441478	0.167204
O53	O	1.582421	0.740469	0.071173
O54	O	1.583723	0.440668	0.295279
O55	O	1.453470	0.739856	0.168214
O56	O	1.753352	0.570713	0.070599
O57	O	1.582902	0.570394	-0.057075
O58	O	1.284125	0.440107	0.070868
O59	O	1.454316	0.440917	-0.057207
O60	O	1.283761	0.568971	0.168040
O61	O	1.584204	0.270593	0.167030
O62	O	1.455057	0.270351	0.070294
C63	C	1.519818	0.232352	0.118545
C64	C	1.520409	0.115577	0.118206
C65	C	1.244756	0.504409	0.119500
C66	C	1.127981	0.504022	0.119638
C67	C	1.517862	0.779349	0.119823
C68	C	1.517615	0.896125	0.120207
C69	C	1.791753	0.506297	0.118901
C70	C	1.908528	0.506977	0.118915
C71	C	1.587871	0.060876	0.168450
C72	C	1.588416	-0.048847	0.168134
C73	C	1.454035	-0.049158	0.067322
C74	C	1.453486	0.060562	0.067643
C75	C	1.654795	0.115890	0.219014
C76	C	1.722263	0.061189	0.269261
C77	C	1.722808	-0.048534	0.268945
C78	C	1.655885	-0.103555	0.218380
C79	C	1.072927	0.570927	0.170294
C80	C	0.963204	0.570562	0.170417
C81	C	0.963597	0.436380	0.069225
C82	C	1.073318	0.436750	0.069098
C83	C	1.127590	0.638198	0.220833
C84	C	1.072537	0.705107	0.271494
C85	C	0.962813	0.704743	0.271617
C86	C	0.908143	0.637470	0.221079
H87	H	1.218320	0.639969	-0.480738
C88	C	1.653201	1.235579	-0.279317
N89	N	1.653256	1.326489	-0.279337
C90	C	1.377637	1.120097	-0.485944
N91	N	1.321983	1.165503	-0.527709
H92	H	1.396726	0.905371	-0.471497
C93	C	1.797009	-0.108701	0.324227
N94	N	1.852902	-0.154018	0.365868
C95	C	1.654198	0.236587	0.219369
N96	N	1.653747	0.327496	0.219636
H97	H	1.775029	1.104795	-0.187835
H98	H	1.117056	0.759886	0.312635
C99	C	1.248288	0.638606	0.220702
N100	N	1.339197	0.638911	0.220603
C101	C	0.787443	0.637077	0.221214
N102	N	0.696534	0.636779	0.221319
H103	H	1.776743	0.105995	0.310433
C104	C	1.380434	-0.109687	0.011699
N105	N	1.325000	-0.155276	-0.030200
C106	C	0.903455	0.362368	0.013649
N107	N	0.858157	0.306614	-0.028206
H108	H	1.656322	-0.192899	0.218136
H109	H	0.917992	0.759231	0.312862
C110	C	1.133880	0.363150	0.013375
N111	N	1.179495	0.307714	-0.028598
H112	H	1.118891	0.761897	-0.572109
H113	H	0.820185	0.640004	-0.480776
H114	H	1.652952	0.806088	-0.279196
H115	H	1.398563	0.105101	0.026722
H116	H	0.919826	0.761926	-0.572129
H117	H	1.118590	0.383609	-0.288668
C118	C	1.794097	0.890073	-0.173374
N119	N	1.849740	0.844670	-0.131599
C120	C	0.903830	0.364450	-0.274282
N121	N	0.858327	0.308780	-0.232557
