data_functionalizedCrystal
_audit_creation_method	'MofGen! by Chris Wilmer'
_symmetry_space_group_name_H-M	'P1'
_symmetry_Int_Tables_number	1
_symmetry_cell_setting	triclinic
loop_
_symmetry_equiv_pos_as_xyz
  x,y,z
_cell_length_a	12.759399
_cell_length_b	12.594517
_cell_length_c	12.759393
_cell_angle_alpha	90.027548
_cell_angle_beta	89.969094
_cell_angle_gamma	89.989946
loop_
_atom_site_label
_atom_site_type_symbol
_atom_site_fract_x
_atom_site_fract_y
_atom_site_fract_z
Zn1	Zn	-0.418357	-1.627292	-0.594202
Zn2	Zn	-0.594073	-1.627180	-0.418521
Zn3	Zn	-0.418393	-1.449291	-0.418517
Zn4	Zn	-0.593979	-1.449281	-0.594138
O5	O	-0.506201	-1.538261	-0.506345
O6	O	-0.441691	-1.776223	-0.570926
O7	O	-0.570823	-1.603540	-0.271500
O8	O	-0.271367	-1.472954	-0.441847
O9	O	-0.570788	-1.776141	-0.441854
O10	O	-0.271341	-1.603731	-0.570923
O11	O	-0.441751	-1.472845	-0.271497
O12	O	-0.441661	-1.300344	-0.441785
O13	O	-0.570629	-1.472937	-0.741168
O14	O	-0.570663	-1.300337	-0.570813
O15	O	-0.441600	-1.603721	-0.741215
O16	O	-0.741081	-1.603531	-0.441792
O17	O	-0.741013	-1.472829	-0.570817
C18	C	-0.506156	-1.261720	-0.506292
C19	C	-0.506163	-1.143415	-0.506295
C20	C	-0.779168	-1.538196	-0.506321
C21	C	-0.895945	-1.538265	-0.506346
C22	C	-0.950807	-1.606399	-0.439239
C23	C	-1.060531	-1.606468	-0.439274
C24	C	-1.060520	-1.470259	-0.573526
C25	C	-0.950798	-1.470196	-0.573495
C26	C	-0.435897	-1.074134	-0.436245
C27	C	-0.531726	-1.003324	-0.410397
C28	C	-0.410363	-1.003426	-0.532145
C29	C	-0.602042	-1.074163	-0.480396
C30	C	-0.480615	-1.074270	-0.602190
C31	C	-0.576510	-1.003492	-0.576377
C32	C	-0.232167	-1.538356	-0.506392
C33	C	-0.115391	-1.538396	-0.506412
C34	C	-0.506100	-1.538341	-0.780378
C35	C	-0.506057	-1.538375	-0.897155
C36	C	-0.506225	-0.815882	-0.506378
C37	C	-0.506181	-0.934187	-0.506343
C38	C	-0.438861	-1.606479	-0.952043
C39	C	-0.438815	-1.606497	-1.061767
C40	C	-0.573171	-1.470303	-1.061705
C41	C	-0.573210	-1.470281	-0.951983
C42	C	-0.506225	-1.538243	-0.233377
C43	C	-0.505972	-1.538415	-0.116601
H44	H	-0.906148	-1.661827	-0.384563
O45	O	-0.709398	-1.115143	-0.451331
H46	H	-0.762751	-1.047054	-0.436950
H47	H	-1.105196	-1.661951	-0.384630
H48	H	-0.636008	-0.972669	-0.635637
H49	H	-0.458962	-1.105457	-0.683241
O50	O	-1.119682	-1.396823	-0.645930
H51	H	-1.205196	-1.408299	-0.634667
H52	H	-0.627929	-1.414815	-0.907292
H53	H	-0.906126	-1.414713	-0.628147
H54	H	-0.376541	-1.105153	-0.376940
H55	H	-0.553349	-0.972163	-0.329321
H56	H	-0.627848	-1.414866	-1.106360
O57	O	-0.366433	-1.679920	-0.892905
H58	H	-0.312996	-1.632294	-0.842902
O59	O	-0.303053	-0.962244	-0.561103
H60	H	-0.249386	-1.030228	-0.574781
O61	O	-0.366347	-1.679958	-1.120972
H62	H	-0.319667	-1.727306	-1.064410
