data_functionalizedCrystal
_audit_creation_method	'MofGen! by Chris Wilmer'
_symmetry_space_group_name_H-M	'P1'
_symmetry_Int_Tables_number	1
_symmetry_cell_setting	triclinic
loop_
_symmetry_equiv_pos_as_xyz
  x,y,z
_cell_length_a	8.559649
_cell_length_b	15.995350
_cell_length_c	7.088906
_cell_angle_alpha	83.779172
_cell_angle_beta	95.324376
_cell_angle_gamma	76.635520
loop_
_atom_site_label
_atom_site_type_symbol
_atom_site_fract_x
_atom_site_fract_y
_atom_site_fract_z
O1	O	2.103730	-0.018746	-0.158958
O2	O	1.638526	0.024496	-0.158965
O3	O	1.883845	-0.119830	-0.158960
O4	O	1.858411	0.125581	-0.158964
O5	O	1.916625	-0.139155	0.159016
O6	O	1.671306	0.005172	0.159011
O7	O	2.136511	-0.038070	0.159018
Cu8	Cu	1.906901	-0.018214	0.188048
Cu9	Cu	1.868135	0.004639	-0.187995
O10	O	1.891192	0.106256	0.159012
C11	C	1.595386	0.018111	0.000022
C12	C	1.418005	0.027866	0.000019
C13	C	1.899183	-0.160619	0.000025
C14	C	1.896030	-0.253367	0.000014
C15	C	1.884710	-0.590386	0.000020
C16	C	1.709925	-0.531674	-0.000696
C17	C	1.713152	-0.435230	0.000021
C18	C	1.890325	-0.423187	0.000016
C19	C	1.995218	-0.480840	0.181594
C20	C	1.990844	-0.577203	0.181746
C21	C	1.957176	-0.555818	-0.179852
C22	C	1.956887	-0.458724	-0.182252
C23	C	1.893508	-0.328694	0.000020
C24	C	1.881533	-0.684880	0.000029
C25	C	2.179650	-0.031685	0.000027
C26	C	2.357029	-0.041439	0.000017
C27	C	1.875853	0.147046	0.000024
C28	C	1.879005	0.239793	0.000022
N29	N	1.934180	-0.034289	0.452537
N30	N	1.840857	0.020714	0.547516
H31	H	1.440525	-0.108235	0.000009
H32	H	1.744141	0.077713	0.465868
H33	H	1.334498	0.094668	0.000007
H34	H	2.030913	-0.091286	0.534195
H35	H	1.626670	-0.537802	-0.130908
C36	C	1.604786	-0.381112	-0.173581
C37	C	1.535819	-0.435157	-0.280077
C38	C	1.435954	-0.385335	-0.439996
H39	H	1.667112	-0.352669	-0.250621
H40	H	1.521473	-0.339105	-0.132773
H41	H	1.619119	-0.477148	-0.320887
H42	H	1.473465	-0.463601	-0.203094
H43	H	1.352642	-0.343328	-0.399188
H44	H	1.498293	-0.356894	-0.517020
H45	H	1.389137	-0.421996	-0.512264
H46	H	1.653753	-0.554667	0.128790
H47	H	1.658399	-0.410904	0.130403
H48	H	2.126078	-0.475495	0.188343
C49	C	1.861840	-0.567182	-0.363155
C50	C	1.736202	-0.605472	-0.317929
C51	C	1.648315	-0.615941	-0.486726
H52	H	1.931438	-0.603329	-0.434188
H53	H	1.817822	-0.512154	-0.437295
H54	H	1.780219	-0.660492	-0.243821
H55	H	1.666567	-0.569337	-0.246923
H56	H	1.604297	-0.560913	-0.560865
H57	H	1.717925	-0.652087	-0.557746
H58	H	1.563051	-0.641914	-0.456064
C59	C	1.854676	-0.405900	-0.361314
C60	C	1.860799	-0.318998	-0.365796
C61	C	1.766675	-0.270306	-0.530725
H62	H	1.745829	-0.410061	-0.360332
H63	H	1.895545	-0.427651	-0.471144
H64	H	1.819922	-0.297252	-0.255995
H65	H	1.969622	-0.314810	-0.366808
H66	H	1.807545	-0.292058	-0.640555
H67	H	1.657835	-0.274474	-0.529728
H68	H	1.770829	-0.211339	-0.533797
C69	C	1.926011	-0.607322	0.362868
C70	C	2.042557	-0.676530	0.469516
C71	C	1.982890	-0.704285	0.636387
H72	H	1.830337	-0.625704	0.329940
H73	H	1.902177	-0.560819	0.436670
H74	H	2.066370	-0.723023	0.395728
H75	H	2.138238	-0.658169	0.502493
H76	H	1.959056	-0.657782	0.710189
H77	H	1.887217	-0.722662	0.603440
H78	H	2.061962	-0.751239	0.708777
C79	C	2.163127	-0.631732	0.192858
C80	C	2.270692	-0.577848	0.199400
C81	C	2.429408	-0.628046	0.209674
H82	H	2.174105	-0.661025	0.083410
H83	H	2.186857	-0.673038	0.304870
H84	H	2.246969	-0.536558	0.087400
H85	H	2.259765	-0.548555	0.308843
H86	H	2.453139	-0.669352	0.321686
H87	H	2.440370	-0.657337	0.100224
H88	H	2.502411	-0.591494	0.214132
H89	H	1.949296	-0.456822	0.316721
C90	C	2.127688	-0.448402	-0.196497
C91	C	2.177508	-0.409685	-0.041181
C92	C	2.334856	-0.400177	-0.054209
H93	H	2.129467	-0.412860	-0.312279
H94	H	2.198862	-0.503767	-0.194873
H95	H	2.106353	-0.354329	-0.042823
H96	H	2.175767	-0.445214	0.074623
H97	H	2.406030	-0.455542	-0.052584
H98	H	2.336620	-0.364637	-0.169997
H99	H	2.368685	-0.373914	0.051178
C100	C	2.128814	-0.608984	-0.181791
C101	C	2.192035	-0.577570	-0.342566
C102	C	2.350144	-0.626522	-0.344385
H103	H	2.127931	-0.667995	-0.186551
H104	H	2.194078	-0.604475	-0.069205
H105	H	2.126789	-0.582088	-0.455124
H106	H	2.192959	-0.518566	-0.337840
H107	H	2.415408	-0.622012	-0.231799
H108	H	2.349245	-0.685530	-0.349140
H109	H	2.393065	-0.605209	-0.453459
