data_functionalizedCrystal
_audit_creation_method	'MofGen! by Chris Wilmer'
_symmetry_space_group_name_H-M	'P1'
_symmetry_Int_Tables_number	1
_symmetry_cell_setting	triclinic
loop_
_symmetry_equiv_pos_as_xyz
  x,y,z
_cell_length_a	17.077404
_cell_length_b	19.805405
_cell_length_c	17.077396
_cell_angle_alpha	89.971037
_cell_angle_beta	89.981638
_cell_angle_gamma	90.024696
loop_
_atom_site_label
_atom_site_type_symbol
_atom_site_fract_x
_atom_site_fract_y
_atom_site_fract_z
Zn1	Zn	1.200034	-0.269500	-0.443816
Zn2	Zn	1.533367	0.063833	-0.110483
Zn3	Zn	1.866700	0.397167	0.222850
Zn4	Zn	1.199932	-0.382693	-0.312549
Zn5	Zn	1.533265	-0.049360	0.020784
Zn6	Zn	1.866599	0.283974	0.354118
Zn7	Zn	1.068765	-0.269519	-0.312567
Zn8	Zn	1.402099	0.063814	0.020767
Zn9	Zn	1.735432	0.397148	0.354100
Zn10	Zn	1.068725	-0.382648	-0.443775
Zn11	Zn	1.402058	-0.049315	-0.110442
Zn12	Zn	1.735391	0.284018	0.222891
O13	O	1.134364	-0.326090	-0.378177
O14	O	1.467697	0.007243	-0.044844
O15	O	1.801031	0.340577	0.288490
O16	O	1.309867	-0.284526	-0.426413
O17	O	1.643200	0.048808	-0.093080
O18	O	1.976534	0.382141	0.240254
O19	O	1.182507	-0.367707	-0.202704
O20	O	1.515840	-0.034374	0.130629
O21	O	1.849174	0.298960	0.463962
O22	O	1.086238	-0.174800	-0.330002
O23	O	1.419571	0.158533	0.003332
O24	O	1.752905	0.491867	0.336665
O25	O	1.309792	-0.367688	-0.329972
O26	O	1.643126	-0.034355	0.003362
O27	O	1.976459	0.298979	0.336695
O28	O	1.182680	-0.174786	-0.426430
O29	O	1.516014	0.158548	-0.093097
O30	O	1.849347	0.491881	0.240236
O31	O	1.086139	-0.284559	-0.202717
O32	O	1.419473	0.048775	0.130616
O33	O	1.752806	0.382108	0.463949
O34	O	0.958913	-0.284515	-0.329962
O35	O	1.292246	0.048818	0.003371
O36	O	1.625580	0.382151	0.336705
O37	O	1.086169	-0.367612	-0.553628
O38	O	1.419502	-0.034279	-0.220294
O39	O	1.752835	0.299055	0.113039
O40	O	0.958883	-0.367631	-0.426360
O41	O	1.292216	-0.034297	-0.093027
O42	O	1.625550	0.299036	0.240306
O43	O	1.182641	-0.284482	-0.553658
O44	O	1.515974	0.048851	-0.220324
O45	O	1.849307	0.382184	0.113009
O46	O	1.182467	-0.477404	-0.329932
O47	O	1.515801	-0.144070	0.003401
O48	O	1.849134	0.189263	0.336735
O49	O	1.086070	-0.477371	-0.426343
O50	O	1.419403	-0.144037	-0.093010
O51	O	1.752737	0.189296	0.240323
C52	C	0.930416	-0.326071	-0.378159
C53	C	1.263749	0.007262	-0.044826
C54	C	1.597083	0.340596	0.288507
C55	C	0.843166	-0.326079	-0.378170
C56	C	1.176500	0.007254	-0.044837
C57	C	1.509833	0.340588	0.288496
C58	C	0.802216	-0.282853	-0.428464
C59	C	1.135549	0.050480	-0.095131
C60	C	1.468882	0.383813	0.238203
C61	C	0.720235	-0.282858	-0.428468
C62	C	1.053569	0.050476	-0.095134
C63	C	1.386902	0.383809	0.238199
C64	C	0.679207	-0.326092	-0.378181
C65	C	1.012540	0.007242	-0.044848
C66	C	1.345874	0.340575	0.288486
C67	C	0.720163	-0.369319	-0.327882
C68	C	1.053496	-0.035986	0.005452
C69	C	1.386830	0.297348	0.338785
C70	C	0.802142	-0.369311	-0.327875
C71	C	1.135475	-0.035978	0.005459
C72	C	1.468809	0.297356	0.338792
C73	C	0.549293	-0.369335	-0.327901
C74	C	0.882626	-0.036001	0.005432
C75	C	1.215960	0.297332	0.338765
C76	C	0.467308	-0.369344	-0.327909
C77	C	0.800642	-0.036011	0.005424
C78	C	1.133975	0.297323	0.338758
C79	C	0.467386	-0.282881	-0.428494
C80	C	0.800720	0.050452	-0.095161
C81	C	1.134053	0.383785	0.238173
C82	C	0.549365	-0.282873	-0.428487
C83	C	0.882699	0.050460	-0.095154
C84	C	1.216032	0.383794	0.238180
C85	C	0.590316	-0.326102	-0.378189
C86	C	0.923649	0.007232	-0.044855
C87	C	1.256983	0.340565	0.288478
C88	C	1.134274	-0.501946	-0.378148
C89	C	1.467608	-0.168613	-0.044815
C90	C	1.800941	0.164721	0.288518
C91	C	1.134308	-0.577178	-0.378163
C92	C	1.467641	-0.243845	-0.044829
C93	C	1.800975	0.089489	0.288504
C94	C	1.184496	-0.612457	-0.428412
C95	C	1.517829	-0.279123	-0.095079
C96	C	1.851162	0.054210	0.238255
C97	C	1.184524	-0.683145	-0.428427
C98	C	1.517857	-0.349812	-0.095093
C99	C	1.851191	-0.016478	0.238240
C100	C	1.134368	-0.718554	-0.378187
C101	C	1.467701	-0.385220	-0.044854
C102	C	1.801035	-0.051887	0.288479
C103	C	1.084175	-0.683270	-0.327935
C104	C	1.417508	-0.349937	0.005398
C105	C	1.750841	-0.016603	0.338731
C106	C	1.084143	-0.612583	-0.327925
C107	C	1.417476	-0.279250	0.005408
C108	C	1.750810	0.054084	0.338741
C109	C	1.084301	-0.968343	-0.327976
C110	C	1.417634	-0.635010	0.005358
C111	C	1.750968	-0.301677	0.338691
C112	C	1.084338	-1.039035	-0.327988
C113	C	1.417671	-0.705702	0.005345
C114	C	1.751005	-0.372369	0.338679
C115	C	1.184682	-1.038905	-0.428477
C116	C	1.518015	-0.705572	-0.095144
C117	C	1.851349	-0.372239	0.238190
C118	C	1.184650	-0.968218	-0.428467
C119	C	1.517984	-0.634885	-0.095134
C120	C	1.851317	-0.301552	0.238200
C121	C	1.134454	-0.932941	-0.378218
C122	C	1.467788	-0.599608	-0.044885
C123	C	1.801121	-0.266274	0.288448
C124	C	1.134423	-0.856293	-0.378204
C125	C	1.467757	-0.522959	-0.044871
C126	C	1.801090	-0.189626	0.288462
C127	C	1.134403	-0.795201	-0.378197
C128	C	1.467736	-0.461867	-0.044863
C129	C	1.801069	-0.128534	0.288470
C130	C	1.339108	-0.326110	-0.378195
C131	C	1.672441	0.007224	-0.044862
C132	C	2.005775	0.340557	0.288472
C133	C	1.426358	-0.326118	-0.378203
C134	C	1.759691	0.007215	-0.044869
C135	C	2.093025	0.340548	0.288464
C136	C	1.134411	-0.326040	-0.582921
C137	C	1.467745	0.007293	-0.249588
C138	C	1.801078	0.340627	0.083745
C139	C	1.134432	-0.326019	-0.670171
C140	C	1.467765	0.007314	-0.336838
C141	C	1.801098	0.340648	-0.003504
C142	C	1.134475	-0.149547	-0.378223
C143	C	1.467808	0.183786	-0.044889
C144	C	1.801142	0.517119	0.288444
C145	C	1.134522	-0.074315	-0.378242
C146	C	1.467856	0.259018	-0.044909
C147	C	1.801189	0.592351	0.288425
C148	C	1.184667	-0.282730	-0.711178
C149	C	1.518000	0.050604	-0.377845
C150	C	1.851333	0.383937	-0.044511
C151	C	1.184676	-0.282707	-0.793159
C152	C	1.518009	0.050626	-0.459825
C153	C	1.851343	0.383959	-0.126492
C154	C	1.134454	-0.325978	-0.834131
C155	C	1.467787	0.007356	-0.500797
C156	C	1.801121	0.340689	-0.167464
C157	C	1.084214	-0.369269	-0.793118
C158	C	1.417547	-0.035936	-0.459784
C159	C	1.750880	0.297398	-0.126451
C160	C	1.084201	-0.369287	-0.711139
C161	C	1.417534	-0.035954	-0.377805
C162	C	1.750867	0.297379	-0.044472
C163	C	1.084245	-0.369228	-0.963988
C164	C	1.417578	-0.035895	-0.630655
C165	C	1.750912	0.297438	-0.297321
C166	C	1.084259	-0.369211	-1.045973
C167	C	1.417592	-0.035877	-0.712639
C168	C	1.750925	0.297456	-0.379306
C169	C	1.184720	-0.282648	-1.046008
C170	C	1.518054	0.050685	-0.712674
C171	C	1.851387	0.384019	-0.379341
C172	C	1.184708	-0.282666	-0.964029
C173	C	1.518041	0.050667	-0.630695
C174	C	1.851374	0.384000	-0.297362
C175	C	1.134468	-0.325959	-0.923022
C176	C	1.467801	0.007375	-0.589688
C177	C	1.801135	0.340708	-0.256355
C178	C	1.134362	-0.326091	-0.174229
C179	C	1.467695	0.007242	0.159104
C180	C	1.801028	0.340576	0.492438
C181	C	1.134494	-0.325921	-0.086980
C182	C	1.467827	0.007412	0.246354
C183	C	1.801160	0.340745	0.579687
H184	H	0.835483	-0.404509	-0.286920
H185	H	1.168816	-0.071176	0.046413
H186	H	1.502150	0.262157	0.379747
H187	H	1.043274	-0.583860	-0.287008
H188	H	1.376607	-0.250527	0.046325
H189	H	1.709941	0.082807	0.379659
H190	H	1.225584	-0.247458	-0.826543
H191	H	1.558917	0.085875	-0.493210
H192	H	1.892251	0.419208	-0.159876
Br193	Br	0.605047	-0.224205	-0.496743
Br194	Br	0.938380	0.109128	-0.163410
Br195	Br	1.271714	0.442461	0.169924
H196	H	1.225342	-0.583632	-0.469320
H197	H	1.558675	-0.250298	-0.135986
H198	H	1.892009	0.083035	0.197347
H199	H	1.043491	-1.067863	-0.287075
H200	H	1.376825	-0.734530	0.046258
H201	H	1.710158	-0.401197	0.379591
H202	H	1.043286	-0.404531	-0.677752
H203	H	1.376620	-0.071198	-0.344418
H204	H	1.709953	0.262135	-0.011085
H205	H	0.433905	-0.404549	-0.286962
H206	H	0.767239	-0.071216	0.046372
H207	H	1.100572	0.262117	0.379705
Br208	Br	0.411812	-0.224213	-0.496756
Br209	Br	0.745145	0.109120	-0.163423
Br210	Br	1.078479	0.442453	0.169910
H211	H	1.225607	-0.247436	-0.930672
H212	H	1.558941	0.085898	-0.597338
H213	H	1.892274	0.419231	-0.264005
Br214	Br	1.252625	-0.731021	-0.496639
Br215	Br	1.585959	-0.397687	-0.163306
Br216	Br	1.919292	-0.064354	0.170027
H217	H	1.043322	-0.404471	-0.930602
H218	H	1.376656	-0.071137	-0.597269
H219	H	1.709989	0.262196	-0.263936
Br220	Br	0.664662	-0.224192	-0.496727
Br221	Br	0.997996	0.109141	-0.163394
Br222	Br	1.331329	0.442475	0.169940
H223	H	1.043362	-0.404444	-1.079330
H224	H	1.376695	-0.071111	-0.745996
H225	H	1.710029	0.262223	-0.412663
Br226	Br	1.252725	-0.920167	-0.496648
Br227	Br	1.586059	-0.586834	-0.163314
Br228	Br	1.919392	-0.253500	0.170019
H229	H	1.225626	-0.247397	-1.079400
H230	H	1.558959	0.085937	-0.746066
H231	H	1.892293	0.419270	-0.412733
H232	H	1.043334	-0.712105	-0.287033
H233	H	1.376667	-0.378772	0.046301
H234	H	1.710000	-0.045439	0.379634
Br235	Br	0.857889	-0.224180	-0.496720
Br236	Br	1.191223	0.109153	-0.163386
Br237	Br	1.524556	0.442487	0.169947
Br238	Br	0.604869	-0.428006	-0.259643
Br239	Br	0.938202	-0.094673	0.073691
Br240	Br	1.271535	0.238660	0.407024
H241	H	1.225551	-1.067637	-0.469395
H242	H	1.558885	-0.734303	-0.136061
H243	H	1.892218	-0.400970	0.197272
Br244	Br	1.016168	-0.920476	-0.259791
Br245	Br	1.349501	-0.587142	0.073542
Br246	Br	1.682835	-0.253809	0.406876
H247	H	0.686751	-0.404518	-0.286934
H248	H	1.020085	-0.071184	0.046400
H249	H	1.353418	0.262149	0.379733
H250	H	1.225566	-0.247496	-0.677825
H251	H	1.558899	0.085838	-0.344491
H252	H	1.892232	0.419171	-0.011158
H253	H	1.043319	-0.404498	-0.826484
H254	H	1.376652	-0.071165	-0.493150
H255	H	1.709986	0.262169	-0.159817
