data_functionalizedCrystal
_audit_creation_method	'MofGen! by Chris Wilmer'
_symmetry_space_group_name_H-M	'P1'
_symmetry_Int_Tables_number	1
_symmetry_cell_setting	triclinic
loop_
_symmetry_equiv_pos_as_xyz
  x,y,z
_cell_length_a	17.077404
_cell_length_b	21.295417
_cell_length_c	17.077396
_cell_angle_alpha	89.966808
_cell_angle_beta	89.980499
_cell_angle_gamma	90.030732
loop_
_atom_site_label
_atom_site_type_symbol
_atom_site_fract_x
_atom_site_fract_y
_atom_site_fract_z
Zn1	Zn	1.200013	-0.250605	-0.443817
Zn2	Zn	1.700013	0.249395	0.056183
Zn3	Zn	1.199903	-0.355878	-0.312540
Zn4	Zn	1.699903	0.144122	0.187460
Zn5	Zn	1.068745	-0.250628	-0.312565
Zn6	Zn	1.568745	0.249372	0.187435
Zn7	Zn	1.068695	-0.355841	-0.443764
Zn8	Zn	1.568695	0.144159	0.056236
O9	O	1.134339	-0.303238	-0.378171
O10	O	1.634339	0.196762	0.121829
O11	O	1.309845	-0.264577	-0.426415
O12	O	1.809845	0.235423	0.073585
O13	O	1.182479	-0.341942	-0.202697
O14	O	1.682479	0.158058	0.297303
O15	O	1.086225	-0.162535	-0.330008
O16	O	1.586225	0.337465	0.169992
O17	O	1.309764	-0.341920	-0.329966
O18	O	1.809764	0.158080	0.170034
O19	O	1.182667	-0.162519	-0.426439
O20	O	1.682667	0.337481	0.073561
O21	O	1.086118	-0.264614	-0.202715
O22	O	1.586118	0.235386	0.297285
O23	O	0.958891	-0.264578	-0.329957
O24	O	1.458891	0.235422	0.170043
O25	O	1.086140	-0.341857	-0.553618
O26	O	1.586140	0.158143	-0.053618
O27	O	0.958855	-0.341878	-0.426348
O28	O	1.458855	0.158122	0.073652
O29	O	1.182619	-0.264540	-0.553657
O30	O	1.682619	0.235460	-0.053657
O31	O	1.182431	-0.443963	-0.329915
O32	O	1.682431	0.056037	0.170085
O33	O	1.086033	-0.443935	-0.426324
O34	O	1.586033	0.056065	0.073676
C35	C	0.930391	-0.303227	-0.378150
C36	C	1.430391	0.196773	0.121850
C37	C	0.843141	-0.303237	-0.378159
C38	C	1.343141	0.196763	0.121841
C39	C	0.802153	-0.343548	-0.428270
C40	C	1.302153	0.156452	0.071730
C41	C	0.720172	-0.343549	-0.428282
C42	C	1.220172	0.156451	0.071718
C43	C	0.679182	-0.303242	-0.378180
C44	C	1.179182	0.196758	0.121820
C45	C	0.720176	-0.262927	-0.328067
C46	C	1.220176	0.237073	0.171933
C47	C	0.802155	-0.262923	-0.328059
C48	C	1.302155	0.237077	0.171941
C49	C	0.549306	-0.262940	-0.328086
C50	C	1.049306	0.237060	0.171914
C51	C	0.467322	-0.262944	-0.328093
C52	C	0.967322	0.237056	0.171907
C53	C	0.467323	-0.343566	-0.428309
C54	C	0.967323	0.156434	0.071691
C55	C	0.549302	-0.343562	-0.428301
C56	C	1.049302	0.156438	0.071699
C57	C	0.590291	-0.303247	-0.378187
C58	C	1.090291	0.196753	0.121813
C59	C	1.134236	-0.466790	-0.378128
C60	C	1.634236	0.033210	0.121872
C61	C	1.134264	-0.536758	-0.378136
C62	C	1.634264	-0.036758	0.121864
C63	C	1.184503	-0.569618	-0.327987
C64	C	1.684503	-0.069618	0.172013
C65	C	1.184539	-0.635360	-0.328004
C66	C	1.684539	-0.135360	0.171996
C67	C	1.134323	-0.668240	-0.378163
C68	C	1.634323	-0.168240	0.121837
C69	C	1.084081	-0.635372	-0.428321
C70	C	1.584081	-0.135372	0.071679
C71	C	1.084051	-0.569631	-0.428308
C72	C	1.584051	-0.069631	0.071692
N73	N	1.065655	-0.771506	-0.384140
N74	N	1.565655	-0.271506	0.115860
N75	N	1.065685	-0.833958	-0.384148
N76	N	1.565685	-0.333958	0.115852
C77	C	1.134411	-0.866315	-0.378208
C78	C	1.634411	-0.366315	0.121792
N79	N	1.203107	-0.833862	-0.372244
N80	N	1.703107	-0.333862	0.127756
N81	N	1.203076	-0.771405	-0.372231
N82	N	1.703076	-0.271405	0.127769
C83	C	1.134351	-0.739526	-0.378183
C84	C	1.634351	-0.239526	0.121817
C85	C	1.184694	-0.970461	-0.328075
C86	C	1.684694	-0.470461	0.171925
C87	C	1.184732	-1.036204	-0.328098
C88	C	1.684732	-0.536204	0.171902
C89	C	1.084267	-1.036215	-0.428411
C90	C	1.584267	-0.536215	0.071589
C91	C	1.084236	-0.970473	-0.428392
C92	C	1.584236	-0.470473	0.071608
C93	C	1.134449	-0.937599	-0.378220
C94	C	1.634449	-0.437599	0.121780
C95	C	1.339083	-0.303250	-0.378194
C96	C	1.839083	0.196750	0.121806
C97	C	1.426333	-0.303255	-0.378203
C98	C	1.926333	0.196745	0.121797
C99	C	1.134386	-0.303192	-0.582916
C100	C	1.634386	0.196808	-0.082916
C101	C	1.134407	-0.303172	-0.670166
C102	C	1.634407	0.196828	-0.170166
C103	C	1.134464	-0.139048	-0.378232
C104	C	1.634464	0.360952	0.121768
C105	C	1.134517	-0.069080	-0.378258
C106	C	1.634517	0.430920	0.121742
C107	C	1.184645	-0.262910	-0.711177
C108	C	1.684645	0.237090	-0.211177
C109	C	1.184654	-0.262889	-0.793158
C110	C	1.684654	0.237111	-0.293158
C111	C	1.134429	-0.303134	-0.834125
C112	C	1.634429	0.196866	-0.334125
C113	C	1.084185	-0.343397	-0.793108
C114	C	1.584185	0.156603	-0.293108
C115	C	1.084172	-0.343415	-0.711129
C116	C	1.584172	0.156585	-0.211129
C117	C	1.084217	-0.343360	-0.963978
C118	C	1.584217	0.156640	-0.463978
C119	C	1.084231	-0.343343	-1.045963
C120	C	1.584231	0.156657	-0.545963
C121	C	1.184699	-0.262834	-1.046007
C122	C	1.684699	0.237166	-0.546007
C123	C	1.184686	-0.262851	-0.964028
C124	C	1.684686	0.237149	-0.464028
C125	C	1.134443	-0.303116	-0.923016
C126	C	1.634443	0.196884	-0.423016
C127	C	1.134337	-0.303239	-0.174224
C128	C	1.634337	0.196761	0.325776
C129	C	1.134469	-0.303081	-0.086974
C130	C	1.634469	0.196919	0.413026
H131	H	0.686803	-0.376375	-0.469086
H132	H	1.186803	0.123625	0.030914
H133	H	1.225588	-0.230084	-0.930675
H134	H	1.725588	0.269916	-0.430675
H135	H	1.225565	-0.230105	-0.826546
H136	H	1.725565	0.269895	-0.326546
H137	H	1.043255	-0.376194	-0.677738
H138	H	1.543255	0.123806	-0.177738
H139	H	0.835521	-0.376372	-0.469066
H140	H	1.335521	0.123628	0.030934
H141	H	1.225453	-0.662120	-0.287167
H142	H	1.725453	-0.162120	0.212833
H143	H	0.582677	-0.230106	-0.287285
H144	H	1.082677	0.269894	0.212715
F145	F	1.238172	-0.219981	-1.089656
F146	F	1.738172	0.280019	-0.589656
F147	F	0.592926	-0.386465	-0.481620
F148	F	1.092926	0.113535	0.018380
H149	H	1.043196	-0.662147	-0.469162
H150	H	1.543196	-0.162147	0.030838
H151	H	0.433946	-0.376389	-0.469116
H152	H	0.933946	0.123611	0.030884
H153	H	0.686795	-0.230106	-0.287276
H154	H	1.186795	0.269894	0.212724
F155	F	1.030728	-0.386226	-0.836710
F156	F	1.530728	0.113774	-0.336710
H157	H	0.835527	-0.230095	-0.287258
H158	H	1.335527	0.269905	0.212742
H159	H	1.043291	-0.376138	-0.930589
H160	H	1.543291	0.123862	-0.430589
F161	F	1.030769	-0.386171	-1.089561
F162	F	1.530769	0.113829	-0.589561
F163	F	1.237952	-0.534635	-0.274597
F164	F	1.737952	-0.034635	0.225403
F165	F	1.030578	-0.534658	-0.481686
F166	F	1.530578	-0.034658	0.018314
F167	F	1.238212	-1.071176	-0.274725
F168	F	1.738212	-0.571176	0.225275
F169	F	1.238133	-0.935472	-0.274678
F170	F	1.738133	-0.435472	0.225322
H171	H	1.043384	-1.062985	-0.469255
H172	H	1.543384	-0.562985	0.030745
F173	F	1.030761	-0.935499	-0.481765
F174	F	1.530761	-0.435499	0.018235
F175	F	1.238107	-0.220079	-0.667584
F176	F	1.738107	0.279921	-0.167584
F177	F	0.423698	-0.220048	-0.274765
F178	F	0.923698	0.279952	0.225235
