data_functionalizedCrystal
_audit_creation_method	'MofGen! by Chris Wilmer'
_symmetry_space_group_name_H-M	'P1'
_symmetry_Int_Tables_number	1
_symmetry_cell_setting	triclinic
loop_
_symmetry_equiv_pos_as_xyz
  x,y,z
_cell_length_a	23.532407
_cell_length_b	23.532407
_cell_length_c	22.610064
_cell_angle_alpha	90.002839
_cell_angle_beta	89.999397
_cell_angle_gamma	97.151322
loop_
_atom_site_label
_atom_site_type_symbol
_atom_site_fract_x
_atom_site_fract_y
_atom_site_fract_z
O1	O	0.069127	-0.755263	-0.049117
O2	O	0.569127	-0.255263	0.450883
O3	O	0.079130	-0.589400	-0.049135
O4	O	0.579130	-0.089400	0.450865
O5	O	-0.008803	-0.677333	-0.049114
O6	O	0.491197	-0.177333	0.450886
O7	O	0.157060	-0.667330	-0.049137
O8	O	0.657060	-0.167330	0.450863
O9	O	-0.008790	-0.677318	0.049255
O10	O	0.491210	-0.177318	0.549255
O11	O	0.079143	-0.589385	0.049234
O12	O	0.579143	-0.089385	0.549234
O13	O	0.069140	-0.755248	0.049252
O14	O	0.569140	-0.255248	0.549252
Zn15	Zn	0.074144	-0.672314	0.064862
Zn16	Zn	0.574144	-0.172314	0.564862
Zn17	Zn	0.074127	-0.672334	-0.064744
Zn18	Zn	0.574127	-0.172334	0.435256
O19	O	0.157073	-0.667315	0.049232
O20	O	0.657073	-0.167315	0.549232
C21	C	-0.030013	-0.677071	0.000072
C22	C	0.469987	-0.177071	0.500072
C23	C	-0.093230	-0.676305	0.000076
C24	C	0.406770	-0.176305	0.500076
C25	C	0.078882	-0.568176	0.000048
C26	C	0.578882	-0.068176	0.500048
C27	C	0.078116	-0.504959	0.000041
C28	C	0.578116	-0.004959	0.500041
C29	C	0.069388	-0.776472	0.000069
C30	C	0.569388	-0.276472	0.500069
C31	C	0.070154	-0.839689	0.000071
C32	C	0.570154	-0.339689	0.500071
C33	C	-0.492333	-0.723539	0.000049
C34	C	0.007667	-0.223539	0.500049
C35	C	-0.551733	-0.722827	0.000044
C36	C	-0.051733	-0.222827	0.500044
O37	O	-0.588478	-0.766613	0.000027
O38	O	-0.088478	-0.266613	0.500027
N39	N	-0.574359	-0.670551	0.000039
N40	N	-0.074359	-0.170551	0.500039
C41	C	-0.537582	-0.618983	0.000032
C42	C	-0.037582	-0.118983	0.500032
O43	O	-0.562281	-0.574452	0.000027
O44	O	-0.062281	-0.074452	0.500027
C45	C	-0.478182	-0.619695	0.000033
C46	C	0.021818	-0.119695	0.500033
C47	C	-0.455560	-0.671974	0.000044
C48	C	0.044440	-0.171974	0.500044
C49	C	-0.469710	-0.775814	0.000060
C50	C	0.030290	-0.275814	0.500060
C51	C	-0.410313	-0.776525	0.000065
C52	C	0.089687	-0.276525	0.500065
C53	C	-0.373540	-0.724961	0.000060
C54	C	0.126460	-0.224961	0.500060
C55	C	-0.396164	-0.672685	0.000050
C56	C	0.103836	-0.172685	0.500050
C57	C	-0.441406	-0.568127	0.000022
C58	C	0.058594	-0.068127	0.500022
C59	C	-0.382004	-0.568844	0.000021
C60	C	0.117996	-0.068844	0.500021
C61	C	-0.359381	-0.621123	0.000033
C62	C	0.140619	-0.121123	0.500033
C63	C	-0.299995	-0.621832	0.000050
C64	C	0.200005	-0.121832	0.500050
N65	N	-0.277368	-0.674109	0.000056
N66	N	0.222632	-0.174109	0.500056
C67	C	-0.314141	-0.725673	0.000061
C68	C	0.185859	-0.225673	0.500061
C69	C	-0.662324	-0.617491	0.000031
C70	C	-0.162324	-0.117491	0.500031
C71	C	-0.721722	-0.616778	0.000034
C72	C	-0.221722	-0.116778	0.500034
C73	C	-0.735869	-0.720623	0.000045
C74	C	-0.235869	-0.220623	0.500045
C75	C	-0.676470	-0.721335	0.000046
C76	C	-0.176470	-0.221335	0.500046
C77	C	-0.639698	-0.669767	0.000036
C78	C	-0.139698	-0.169767	0.500036
C79	C	-0.189405	-0.727163	0.000073
C80	C	0.310595	-0.227163	0.500073
C81	C	-0.130003	-0.727869	0.000081
C82	C	0.369997	-0.227869	0.500081
C83	C	-0.115860	-0.624025	0.000067
C84	C	0.384140	-0.124025	0.500067
C85	C	-0.175257	-0.623318	0.000062
C86	C	0.324743	-0.123318	0.500062
C87	C	-0.212029	-0.674891	0.000063
C88	C	0.287971	-0.174891	0.500063
O89	O	-0.263215	-0.578070	0.000065
O90	O	0.236785	-0.078070	0.500065
O91	O	-0.289433	-0.770196	0.000058
O92	O	0.210567	-0.270196	0.500058
C93	C	0.178283	-0.667577	0.000045
C94	C	0.678283	-0.167577	0.500045
C95	C	0.241500	-0.668343	0.000036
C96	C	0.741500	-0.168343	0.500036
N97	N	0.074155	-0.672304	0.153314
N98	N	0.574155	-0.172304	0.653314
C99	C	0.125350	-0.105856	0.000061
C100	C	0.625350	0.394144	0.500061
C101	C	0.124638	-0.046456	0.000065
C102	C	0.624638	0.453544	0.500065
O103	O	0.168424	-0.009711	0.000081
O104	O	0.668424	0.490289	0.500081
N105	N	0.072362	-0.023830	0.000071
N106	N	0.572362	0.476170	0.500071
C107	C	0.020794	-0.060607	0.000080
C108	C	0.520794	0.439393	0.500080
O109	O	-0.023737	-0.035908	0.000086
O110	O	0.476263	0.464092	0.500086
C111	C	0.021506	-0.120006	0.000080
C112	C	0.521506	0.379994	0.500080
C113	C	0.073785	-0.142629	0.000068
C114	C	0.573785	0.357371	0.500068
C115	C	0.177625	-0.128479	0.000050
C116	C	0.677625	0.371521	0.500050
C117	C	0.178336	-0.187876	0.000045
C118	C	0.678336	0.312124	0.500045
C119	C	0.126772	-0.224649	0.000052
C120	C	0.626772	0.275351	0.500052
C121	C	0.074497	-0.202025	0.000063
C122	C	0.574497	0.297975	0.500063
C123	C	-0.030062	-0.156783	0.000093
C124	C	0.469938	0.343217	0.500093
C125	C	-0.029345	-0.216185	0.000094
C126	C	0.470655	0.283815	0.500094
C127	C	0.022934	-0.238808	0.000082
C128	C	0.522934	0.261192	0.500082
C129	C	0.023643	-0.298194	0.000065
C130	C	0.523643	0.201806	0.500065
N131	N	0.075920	-0.320820	0.000059
N132	N	0.575920	0.179180	0.500059
C133	C	0.127484	-0.284048	0.000052
C134	C	0.627484	0.215952	0.500052
C135	C	0.019302	0.064135	0.000080
C136	C	0.519302	0.564135	0.500080
C137	C	0.018589	0.123533	0.000075
C138	C	0.518589	0.623533	0.500075
C139	C	0.122434	0.137680	0.000061
C140	C	0.622434	0.637680	0.500061
C141	C	0.123146	0.078281	0.000062
C142	C	0.623146	0.578281	0.500062
C143	C	0.071578	0.041509	0.000074
C144	C	0.571578	0.541509	0.500074
C145	C	0.128974	-0.408784	0.000042
C146	C	0.628974	0.091216	0.500042
C147	C	0.129680	-0.468186	0.000034
C148	C	0.629680	0.031814	0.500034
C149	C	0.025836	-0.482329	0.000051
C150	C	0.525836	0.017671	0.500051
C151	C	0.025129	-0.422932	0.000055
C152	C	0.525129	0.077068	0.500055
C153	C	0.076702	-0.386160	0.000052
C154	C	0.576702	0.113840	0.500052
O155	O	-0.020119	-0.334974	0.000052
O156	O	0.479881	0.165026	0.500052
O157	O	0.172007	-0.308755	0.000054
O158	O	0.672007	0.191245	0.500054
N159	N	0.074111	-0.672349	-0.153196
N160	N	0.574111	-0.172349	0.346804
C161	C	0.035196	-0.711273	0.561965
C162	C	0.535196	-0.211273	1.061965
C163	C	0.035192	-0.711276	0.623884
C164	C	0.535192	-0.211276	1.123884
O165	O	0.002076	-0.744384	0.655911
O166	O	0.502076	-0.244384	1.155911
N167	N	0.074115	-0.672334	0.654851
N168	N	0.574115	-0.172334	1.154851
C169	C	0.113041	-0.633383	0.623895
C170	C	0.613041	-0.133383	1.123895
O171	O	0.146147	-0.600259	0.655920
O172	O	0.646147	-0.100259	1.155920
C173	C	0.113042	-0.633377	0.561976
C174	C	0.613042	-0.133377	1.061976
C175	C	0.074120	-0.672326	0.531013
C176	C	0.574120	-0.172326	1.031013
C177	C	-0.003724	-0.750218	0.531001
C178	C	0.496276	-0.250218	1.031001
C179	C	-0.003719	-0.750215	0.469085
C180	C	0.496281	-0.250215	0.969085
C181	C	0.035206	-0.711268	0.438133
C182	C	0.535206	-0.211268	0.938133
C183	C	0.074125	-0.672323	0.469097
C184	C	0.574125	-0.172323	0.969097
C185	C	0.151965	-0.594424	0.531021
C186	C	0.651965	-0.094424	1.031021
C187	C	0.151962	-0.594422	0.469098
C188	C	0.651962	-0.094422	0.969098
C189	C	0.113040	-0.633370	0.438134
C190	C	0.613040	-0.133370	0.938134
C191	C	0.113054	-0.633374	0.376229
C192	C	0.613054	-0.133374	0.876229
N193	N	0.074131	-0.672316	0.345262
N194	N	0.574131	-0.172316	0.845262
C195	C	0.035207	-0.711263	0.376214
C196	C	0.535207	-0.211263	0.876214
C197	C	0.113035	-0.633396	0.753928
C198	C	0.613035	-0.133396	1.253928
C199	C	0.113037	-0.633403	0.815846
C200	C	0.613037	-0.133403	1.315846
C201	C	0.035187	-0.711296	0.815831
C202	C	0.535187	-0.211296	1.315831
C203	C	0.035188	-0.711291	0.753913
C204	C	0.535188	-0.211291	1.253913
C205	C	0.074112	-0.672338	0.722962
C206	C	0.574112	-0.172338	1.222962
C207	C	0.035220	-0.711255	0.246187
C208	C	0.535220	-0.211255	0.746187
C209	C	0.035230	-0.711251	0.184266
C210	C	0.535230	-0.211251	0.684266
C211	C	0.113078	-0.633357	0.184286
C212	C	0.613078	-0.133357	0.684286
C213	C	0.113071	-0.633363	0.246202
C214	C	0.613071	-0.133363	0.746202
C215	C	0.074137	-0.672314	0.277151
C216	C	0.574137	-0.172314	0.777151
O217	O	0.146152	-0.600281	0.344163
O218	O	0.646152	-0.100281	0.844163
O219	O	0.002101	-0.744376	0.344182
O220	O	0.502101	-0.244376	0.844182
H221	H	-0.111587	-0.770443	0.000092
H222	H	0.388413	-0.270443	0.500092
H223	H	-0.740136	-0.574207	0.000035
H224	H	-0.240136	-0.074207	0.500035
O225	O	-0.342343	-0.513221	0.000019
O226	O	0.157657	-0.013221	0.500019
H227	H	-0.350352	-0.488192	-0.040076
H228	H	0.149648	0.011808	0.459924
O229	O	-0.084967	-0.255847	0.000110
O230	O	0.415033	0.244153	0.500110
H231	H	-0.087136	-0.283253	-0.039981
H232	H	0.412864	0.216747	0.460019
O233	O	0.155058	-0.591352	0.150892
O234	O	0.655058	-0.091352	0.650892
H235	H	0.182128	-0.564271	0.182822
H236	H	0.682128	-0.064271	0.682822
H237	H	0.144770	-0.601653	0.271413
H238	H	0.644770	-0.101653	0.771413
O239	O	-0.086454	-0.132398	0.000114
O240	O	0.413546	0.367602	0.500114
H241	H	-0.089285	-0.105681	-0.039979
H242	H	0.410715	0.394319	0.460021
H243	H	-0.022693	0.034198	0.000084
H244	H	0.477307	0.534198	0.500084
H245	H	-0.765821	-0.762610	0.000047
H246	H	-0.265821	-0.262610	0.500047
H247	H	-0.658056	-0.763906	0.000054
H248	H	-0.158056	-0.263906	0.500054
O249	O	-0.509364	-0.831437	0.000068
O250	O	-0.009364	-0.331437	0.500068
H251	H	-0.554472	-0.822171	0.000064
H252	H	-0.054472	-0.322171	0.500064
H253	H	-0.035423	-0.781933	0.556197
H254	H	0.464577	-0.281933	1.056197
O255	O	-0.385915	-0.832912	0.000071
O256	O	0.114085	-0.332912	0.500071
H257	H	-0.359189	-0.835723	-0.040020
H258	H	0.140811	-0.335723	0.459980
O259	O	-0.229059	-0.782788	0.000085
O260	O	0.270941	-0.282788	0.500085
H261	H	-0.221045	-0.807834	-0.039999
H262	H	0.278955	-0.307834	0.460001
H263	H	0.165717	0.059867	0.000055
H264	H	0.665717	0.559867	0.500055
O265	O	-0.622662	-0.561868	0.000036
O266	O	-0.122662	-0.061868	0.500036
H267	H	-0.648380	-0.525402	0.000039
H268	H	-0.148380	-0.025402	0.500039
H269	H	0.172255	-0.486602	0.000024
H270	H	0.672255	0.013398	0.500024
O271	O	-0.031256	-0.398525	0.000066
O272	O	0.468744	0.101475	0.500066
H273	H	-0.066992	-0.434078	0.000073
H274	H	0.433008	0.065922	0.500073
O275	O	-0.465798	-0.511739	0.000007
O276	O	0.034202	-0.011739	0.500007
H277	H	-0.430240	-0.476009	-0.000003
H278	H	0.069760	0.023991	0.499997
H279	H	0.170970	-0.378851	0.000041
H280	H	0.670970	0.121149	0.500041
H281	H	0.183658	-0.562709	0.556223
H282	H	0.683658	-0.062709	1.056223
O283	O	-0.006797	-0.753293	0.720517
O284	O	0.493203	-0.253293	1.220517
H285	H	-0.033863	-0.780371	0.752448
H286	H	0.466137	-0.280371	1.252448
H287	H	-0.193677	-0.580748	0.000069
H288	H	0.306323	-0.080748	0.500069
H289	H	-0.085909	-0.582043	0.000065
H290	H	0.414091	-0.082043	0.500065
H291	H	0.220908	-0.206289	0.000035
H292	H	0.720908	0.293711	0.500035
H293	H	0.219617	-0.098544	0.000046
H294	H	0.719617	0.401456	0.500046
O295	O	0.178054	0.177348	0.000064
O296	O	0.678054	0.677348	0.500064
H297	H	0.168771	0.222451	0.000074
H298	H	0.668771	0.722451	0.500074
H299	H	-0.023982	0.141947	0.000076
H300	H	0.476018	0.641947	0.500076
H301	H	-0.016146	-0.512280	0.000054
H302	H	0.483854	-0.012280	0.500054
H303	H	0.144737	-0.601694	0.841052
H304	H	0.644737	-0.101694	1.341052
H305	H	0.003535	-0.742969	0.159057
H306	H	0.503535	-0.242969	0.659057
O307	O	-0.006764	-0.753273	0.279564
O308	O	0.493236	-0.253273	0.779564
H309	H	-0.033817	-0.780355	0.247623
H310	H	0.466183	-0.280355	0.747623
H311	H	-0.035414	-0.781929	0.443878
H312	H	0.464586	-0.281929	0.943878
H313	H	0.003492	-0.743008	0.841044
H314	H	0.503492	-0.243008	1.341044
O315	O	0.155028	-0.591388	0.720546
O316	O	0.655028	-0.091388	1.220546
H317	H	0.182094	-0.564317	0.752486
H318	H	0.682094	-0.064317	1.252486
O319	O	0.193948	-0.552411	0.435714
O320	O	0.693948	-0.052411	0.935714
H321	H	0.221013	-0.525335	0.467651
H322	H	0.721013	-0.025335	0.967651
