data_functionalizedCrystal
_audit_creation_method	'MofGen! by Chris Wilmer'
_symmetry_space_group_name_H-M	'P1'
_symmetry_Int_Tables_number	1
_symmetry_cell_setting	triclinic
loop_
_symmetry_equiv_pos_as_xyz
  x,y,z
_cell_length_a	14.519709
_cell_length_b	15.538191
_cell_length_c	14.185569
_cell_angle_alpha	97.872928
_cell_angle_beta	76.815374
_cell_angle_gamma	65.476119
loop_
_atom_site_label
_atom_site_type_symbol
_atom_site_fract_x
_atom_site_fract_y
_atom_site_fract_z
O1	O	-1.154348	-0.144690	-0.083283
O2	O	-0.880973	-0.159231	-0.083313
O3	O	-1.070874	-0.014921	-0.083297
O4	O	-0.964447	-0.289001	-0.083299
O5	O	-1.126970	0.027706	0.083542
O6	O	-0.937069	-0.116605	0.083526
O7	O	-1.210445	-0.102064	0.083556
Cu8	Cu	-1.078879	-0.105442	0.098775
Cu9	Cu	-1.012538	-0.155853	-0.098532
O10	O	-1.020544	-0.246375	0.083540
C11	C	-0.874888	-0.137242	0.000102
C12	C	-0.773185	-0.135215	0.000091
C13	C	-1.110056	0.041469	0.000120
C14	C	-1.143221	0.145985	0.000114
C15	C	-1.216529	-0.124054	0.000138
C16	C	-1.318229	-0.126082	0.000143
C17	C	-0.400818	-0.127731	0.000136
C18	C	-0.504424	-0.129810	0.000123
C19	C	-0.586998	-0.131473	0.000113
C20	C	-0.690611	-0.133552	0.000102
C21	C	-0.981361	-0.302764	0.000120
C22	C	-0.948193	-0.407282	0.000120
N23	N	-1.125547	-0.069986	0.237550
C24	C	-0.813708	0.434327	0.000099
C25	C	-0.844899	0.532542	0.000105
C26	C	-1.020336	0.554694	0.000124
C27	C	-0.989158	0.456478	0.000113
C28	C	-0.885843	0.396302	0.000102
C29	C	-1.061293	0.418453	0.000116
C30	C	-1.030119	0.320246	0.000111
C31	C	-0.926810	0.260065	0.000103
C32	C	-0.854669	0.298096	0.000097
C33	C	-1.164610	0.478632	0.000134
C34	C	-1.236745	0.440607	0.000137
C35	C	-1.205569	0.342397	0.000125
C36	C	-1.102260	0.282216	0.000117
C37	C	-1.277710	0.304367	0.000130
C38	C	-1.246536	0.206161	0.000125
C39	C	-1.071086	0.184010	0.000111
N40	N	-0.965880	-0.191302	-0.237307
C41	C	-0.828785	-0.295432	0.605174
C42	C	-0.864139	-0.268580	0.710199
C43	C	-1.032306	-0.140841	0.710174
C44	C	-0.996963	-0.167678	0.605148
C45	C	-0.895202	-0.244975	0.552656
C46	C	-1.063381	-0.117222	0.552629
C47	C	-1.028044	-0.144061	0.447612
C48	C	-0.926288	-0.221357	0.395113
C49	C	-0.859865	-0.271814	0.447638
C50	C	-1.165145	-0.039930	0.605123
C51	C	-1.231563	0.010527	0.552604
C52	C	-1.196222	-0.016308	0.447585
C53	C	-1.094467	-0.093603	0.395086
C54	C	-1.262646	0.034150	0.395059
C55	C	-1.227308	0.007311	0.290041
C56	C	-1.059129	-0.120443	0.290068
H57	H	-0.986955	0.135009	0.000095
H58	H	-0.901432	0.180101	0.000104
C59	C	-1.451550	0.097338	0.427363
C60	C	-1.374499	0.119114	0.452762
H61	H	-1.520603	0.149792	0.462990
H62	H	-1.440004	0.088580	0.357310
H63	H	-1.446308	0.038879	0.444580
H64	H	-1.379736	0.177569	0.435538
H65	H	-1.386049	0.127883	0.522831
H66	H	-0.770538	0.249094	0.000080
C67	C	-0.625721	0.363287	-0.085696
C68	C	-0.700138	0.368168	0.000077
H69	H	-0.555613	0.322447	-0.085705
H70	H	-0.637106	0.336886	-0.143859
H71	H	-0.633967	0.427220	-0.085683
H72	H	-0.691898	0.304235	0.000061
H73	H	-0.688749	0.394566	0.058256
C74	C	-1.325087	0.161867	0.257578
C75	C	-1.300281	0.062725	0.232258
H76	H	-1.370126	0.196058	0.221885
H77	H	-1.360735	0.188945	0.327617
H78	H	-1.261221	0.167834	0.240387
H79	H	-1.364147	0.056757	0.249456
H80	H	-1.264635	0.035639	0.162203
H81	H	-1.314419	0.073460	0.595355
C82	C	-1.307343	0.068063	0.755544
C83	C	-1.203995	-0.010428	0.720561
H84	H	-1.331327	0.086270	0.826810
H85	H	-1.306881	0.122188	0.731791
H86	H	-1.353912	0.048954	0.731768
H87	H	-1.157424	0.008684	0.744331
H88	H	-1.204450	-0.064564	0.744324
H89	H	-1.305277	0.175201	0.000129
H90	H	-0.776997	-0.334750	0.404898
H91	H	-0.786155	0.563500	0.000117
H92	H	-0.976261	-0.183379	0.247328
H93	H	-1.361832	0.353379	0.000149
C94	C	-0.666082	-0.419021	0.615737
C95	C	-0.716925	-0.380398	0.547465
H96	H	-0.597031	-0.471478	0.580107
H97	H	-0.659837	-0.369288	0.656696
H98	H	-0.706890	-0.442506	0.656698
H99	H	-0.676120	-0.356907	0.506508
H100	H	-0.723164	-0.430140	0.506489
H101	H	-0.810045	-0.309676	0.752954
C102	C	-0.956118	-0.278999	0.244658
C103	C	-0.887439	-0.250861	0.279675
H104	H	-0.932135	-0.297208	0.173392
H105	H	-0.956570	-0.333125	0.268414
H106	H	-1.026223	-0.225737	0.268408
H107	H	-0.817335	-0.304126	0.255930
H108	H	-0.886976	-0.196729	0.255908
C109	C	-1.146027	0.715072	0.000134
C110	C	-1.133895	0.620843	0.000131
H111	H	-1.216132	0.755905	0.000130
H112	H	-1.134664	0.741473	0.058312
H113	H	-1.095521	0.711744	-0.058049
H114	H	-1.184396	0.624170	0.058318
H115	H	-1.145269	0.594436	-0.058053
C116	C	-1.344742	0.541987	-0.085619
C117	C	-1.350305	0.506755	0.000144
H118	H	-1.414851	0.582817	-0.085619
H119	H	-1.306252	0.578690	-0.085609
H120	H	-1.309366	0.488345	-0.143795
H121	H	-1.385674	0.560398	0.058320
H122	H	-1.388811	0.470052	0.000142
H123	H	-1.189985	0.558595	0.000130
H124	H	-1.115162	-0.077907	0.752925
