data_functionalizedCrystal
_audit_creation_method	'MofGen! by Chris Wilmer'
_symmetry_space_group_name_H-M	'P1'
_symmetry_Int_Tables_number	1
_symmetry_cell_setting	triclinic
loop_
_symmetry_equiv_pos_as_xyz
  x,y,z
_cell_length_a	6.817900
_cell_length_b	17.329528
_cell_length_c	17.110544
_cell_angle_alpha	92.670163
_cell_angle_beta	99.061223
_cell_angle_gamma	103.027692
loop_
_atom_site_label
_atom_site_type_symbol
_atom_site_fract_x
_atom_site_fract_y
_atom_site_fract_z
V1	V	-3.971142	-0.108484	-0.239564
O2	O	-3.965658	0.005477	-0.242381
O3	O	-3.917323	-0.215358	-0.230830
O4	O	-3.901091	-0.106699	-0.347283
O5	O	-3.982001	-0.103935	-0.125122
V6	V	-4.458277	-0.094866	-0.226738
O7	O	-4.224476	-0.138354	-0.267699
O8	O	-4.655141	-0.064996	-0.198602
O9	O	-4.288890	0.012009	-0.235472
O10	O	-4.581158	-0.208827	-0.223920
O11	O	-4.564815	-0.099415	-0.341180
O12	O	-4.305121	-0.096651	-0.119018
C13	C	-3.761706	-0.241416	-0.225220
C14	C	-3.798845	-0.328787	-0.218797
C15	C	-3.741000	-0.102809	-0.373766
C16	C	-3.764974	-0.102057	-0.461781
C17	C	-4.007492	-0.822366	-0.178802
C18	C	-3.972610	-0.740274	-0.184851
C19	C	-3.980199	-0.710386	-0.259605
C20	C	-4.022653	-0.762595	-0.328314
C21	C	-4.057519	-0.844685	-0.322265
C22	C	-3.876165	-0.463085	-0.281457
C23	C	-3.841300	-0.380989	-0.287502
C24	C	-3.791256	-0.358673	-0.144037
C25	C	-3.826137	-0.440766	-0.137995
C26	C	-3.868577	-0.492968	-0.206704
C27	C	-3.944552	-0.626475	-0.265789
C28	C	-3.904209	-0.576876	-0.200519
C29	C	-3.891467	-0.097715	-0.959392
C30	C	-3.868946	-0.098400	-0.876692
C31	C	-4.038783	-0.102666	-0.839117
C32	C	-4.231150	-0.106240	-0.884246
C33	C	-4.253666	-0.105550	-0.966945
C34	C	-3.979857	-0.104941	-0.589609
C35	C	-3.957327	-0.105633	-0.506905
C36	C	-3.595123	-0.097791	-0.499355
C37	C	-3.617658	-0.097106	-0.582056
C38	C	-3.810020	-0.100676	-0.627178
C39	C	-4.015769	-0.103368	-0.754584
C40	C	-3.833029	-0.099968	-0.711709
C41	C	-4.107849	0.038062	-0.241079
C42	C	-4.049947	0.125432	-0.247507
C43	C	-4.128555	-0.100543	-0.092531
C44	C	-4.083820	-0.101291	-0.004516
H45	H	-4.001317	-0.846693	-0.117930
H46	H	-3.847525	-0.356659	-0.348379
H47	H	-3.938049	-0.697774	-0.128904
H48	H	-3.479356	-0.093635	-0.612644
H49	H	-4.369430	-0.109708	-0.853646
H50	H	-3.756695	-0.316163	-0.088098
H51	H	-4.028817	-0.738254	-0.389180
H52	H	-3.819959	-0.465094	-0.077123
H53	H	-4.410299	-0.108463	-1.003684
H54	H	-3.438507	-0.094884	-0.462608
H55	H	-4.092083	-0.887188	-0.378212
H56	H	-3.712326	-0.095510	-0.839957
H57	H	-3.910725	-0.505578	-0.337406
H58	H	-4.095640	-0.109109	-0.476314
H59	H	-3.898020	-0.601214	-0.139655
H60	H	-3.950731	-0.602132	-0.326654
H61	H	-3.753165	-0.094245	-0.989980
H62	H	-4.136486	-0.107846	-0.626337
H63	H	-3.694748	-0.096490	-0.742306
H64	H	-4.154046	-0.106841	-0.723981
