data_functionalizedCrystal
_audit_creation_method	'MofGen! by Chris Wilmer'
_symmetry_space_group_name_H-M	'P1'
_symmetry_Int_Tables_number	1
_symmetry_cell_setting	triclinic
loop_
_symmetry_equiv_pos_as_xyz
  x,y,z
_cell_length_a	13.897449
_cell_length_b	13.033615
_cell_length_c	13.033429
_cell_angle_alpha	105.197869
_cell_angle_beta	82.838309
_cell_angle_gamma	97.186198
loop_
_atom_site_label
_atom_site_type_symbol
_atom_site_fract_x
_atom_site_fract_y
_atom_site_fract_z
Zn1	Zn	1.370042	-0.346479	0.546888
Zn2	Zn	1.703376	-0.013146	0.880221
Zn3	Zn	2.036709	0.320187	1.213554
Zn4	Zn	1.369962	-0.546694	0.346728
Zn5	Zn	1.703295	-0.213360	0.680061
Zn6	Zn	2.036628	0.119973	1.013395
Zn7	Zn	1.226901	-0.369099	0.369286
Zn8	Zn	1.560235	-0.035765	0.702619
Zn9	Zn	1.893568	0.297568	1.035952
Zn10	Zn	1.190574	-0.524059	0.524300
Zn11	Zn	1.523907	-0.190726	0.857634
Zn12	Zn	1.857241	0.142608	1.190967
O13	O	1.289370	-0.446583	0.446800
O14	O	1.622703	-0.113249	0.780134
O15	O	1.956037	0.220084	1.113467
O16	O	1.505011	-0.373045	0.520348
O17	O	1.838344	-0.039711	0.853682
O18	O	2.171678	0.293622	1.187015
O19	O	1.366154	-0.542074	0.201079
O20	O	1.699487	-0.208741	0.534412
O21	O	2.032820	0.124593	0.867745
O22	O	1.261126	-0.217456	0.411739
O23	O	1.594459	0.115877	0.745072
O24	O	1.927793	0.449210	1.078405
O25	O	1.504952	-0.520141	0.373292
O26	O	1.838285	-0.186808	0.706625
O27	O	2.171619	0.146526	1.039959
O28	O	1.366291	-0.200838	0.542222
O29	O	1.699624	0.132495	0.875555
O30	O	2.032958	0.465829	1.208889
O31	O	1.261048	-0.411596	0.217652
O32	O	1.594381	-0.078263	0.550985
O33	O	1.927714	0.255071	0.884319
O34	O	1.087103	-0.389648	0.389836
O35	O	1.420436	-0.056315	0.723170
O36	O	1.753770	0.277018	1.056503
O37	O	1.199212	-0.481564	0.675938
O38	O	1.532545	-0.148231	1.009271
O39	O	1.865878	0.185103	1.342605
O40	O	1.060414	-0.503497	0.503725
O41	O	1.393747	-0.170164	0.837058
O42	O	1.727080	0.163170	1.170392
O43	O	1.331066	-0.351097	0.692533
O44	O	1.664400	-0.017764	1.025866
O45	O	1.997733	0.315570	1.359200
O46	O	1.330929	-0.692333	0.351390
O47	O	1.664262	-0.359000	0.684723
O48	O	1.997595	-0.025666	1.018056
O49	O	1.199133	-0.675703	0.481851
O50	O	1.532467	-0.342370	0.815185
O51	O	1.865800	-0.009037	1.148518
C52	C	1.261104	-0.722556	0.411745
C53	C	1.594438	-0.389223	0.745078
C54	C	1.927771	-0.055890	1.078412
C55	C	1.249097	-0.840615	0.396784
C56	C	1.582430	-0.507281	0.730117
C57	C	1.915763	-0.173948	1.063450
C58	C	1.038759	-0.446572	0.446778
C59	C	1.372093	-0.113238	0.780111
C60	C	1.705426	0.220095	1.113445
C61	C	0.931542	-0.446589	0.446790
C62	C	1.264875	-0.113256	0.780124
C63	C	1.598209	0.220077	1.113457
C64	C	1.261096	-0.411283	0.723854
C65	C	1.594429	-0.077949	1.057188
C66	C	1.927762	0.255384	1.390521
C67	C	1.249047	-0.396240	0.841918
C68	C	1.582380	-0.062906	1.175251
C69	C	1.915714	0.270427	1.508585
C70	C	0.735244	-0.446589	0.446818
C71	C	1.068577	-0.113256	0.780151
C72	C	1.401910	0.220077	1.113484
C73	C	0.844479	-0.446586	0.446800
C74	C	1.177812	-0.113253	0.780133
C75	C	1.511145	0.220080	1.113467
C76	C	1.540959	-0.446595	0.446823
C77	C	1.874292	-0.113261	0.780157
C78	C	2.207625	0.220072	1.113490
C79	C	1.648171	-0.446600	0.446833
C80	C	1.981504	-0.113266	0.780167
C81	C	2.314838	0.220067	1.113500
C82	C	1.317770	-0.169528	0.482016
C83	C	1.651103	0.163805	0.815349
C84	C	1.984436	0.497138	1.148683
C85	C	1.329872	-0.051464	0.497023
C86	C	1.663205	0.281869	0.830356
C87	C	1.996539	0.615202	1.163690
C88	C	1.283234	-0.007050	0.439153
C89	C	1.616567	0.326283	0.772486
C90	C	1.949901	0.659616	1.105819
C91	C	1.295741	0.114975	0.454662
C92	C	1.629075	0.448308	0.787995
C93	C	1.962408	0.781642	1.121328
C94	C	1.317597	-0.481669	0.170834
C95	C	1.650931	-0.148336	0.504167
C96	C	1.984264	0.184998	0.837501
C97	C	1.329863	-0.496413	0.052809
C98	C	1.663197	-0.163079	0.386142
C99	C	1.996530	0.170254	0.719475
C100	C	1.283232	-0.438559	1.008374
C101	C	1.616565	-0.105226	1.341707
C102	C	1.949898	0.228108	1.675041
C103	C	1.295685	-0.454101	0.886349
C104	C	1.629019	-0.120768	1.219683
C105	C	1.962352	0.212566	1.553016
H106	H	1.234042	-0.059364	0.378130
H107	H	1.567376	0.273969	0.711464
H108	H	1.900709	0.607303	1.044797
Cl109	Cl	1.405745	-0.590646	0.972077
Cl110	Cl	1.739079	-0.257313	1.305411
Cl111	Cl	2.072412	0.076021	1.638744
Cl112	Cl	1.371684	0.195733	0.548895
Cl113	Cl	1.705017	0.529066	0.882228
Cl114	Cl	2.038351	0.862399	1.215562
H115	H	1.199898	0.107077	0.335759
H116	H	1.533232	0.440410	0.669092
H117	H	1.866565	0.773744	1.002426
H118	H	1.344836	-0.515138	0.834058
H119	H	1.678169	-0.181804	1.167391
H120	H	2.011503	0.151529	1.500724
H121	H	1.379056	0.000849	0.558053
H122	H	1.712389	0.334182	0.891387
H123	H	2.045723	0.667516	1.224720
Cl124	Cl	1.173173	-0.301989	0.922645
Cl125	Cl	1.506506	0.031344	1.255978
Cl126	Cl	1.839840	0.364677	1.589312
H127	H	1.234092	-0.377519	1.060670
H128	H	1.567426	-0.044185	1.394003
H129	H	1.900759	0.289148	1.727337
