data_functionalizedCrystal
_audit_creation_method	'MofGen! by Chris Wilmer'
_symmetry_space_group_name_H-M	'P1'
_symmetry_Int_Tables_number	1
_symmetry_cell_setting	triclinic
loop_
_symmetry_equiv_pos_as_xyz
  x,y,z
_cell_length_a	15.299447
_cell_length_b	12.827893
_cell_length_c	12.827892
_cell_angle_alpha	89.984638
_cell_angle_beta	80.298813
_cell_angle_gamma	99.694985
loop_
_atom_site_label
_atom_site_type_symbol
_atom_site_fract_x
_atom_site_fract_y
_atom_site_fract_z
Zn1	Zn	-0.510089	-1.699949	-0.313749
Zn2	Zn	-0.359232	-1.669595	-0.518762
Zn3	Zn	-0.359244	-1.494944	-0.344033
Zn4	Zn	-0.510054	-1.525169	-0.488456
O5	O	-0.434655	-1.597414	-0.416250
O6	O	-0.490087	-1.842161	-0.340954
O7	O	-0.232986	-1.621074	-0.520941
O8	O	-0.379274	-1.522193	-0.193776
O9	O	-0.379253	-1.819859	-0.491576
O10	O	-0.490099	-1.672809	-0.171526
O11	O	-0.232995	-1.492759	-0.392568
O12	O	-0.379240	-1.352716	-0.363181
O13	O	-0.636307	-1.573707	-0.439923
O14	O	-0.490039	-1.374922	-0.469288
O15	O	-0.636332	-1.702117	-0.311567
O16	O	-0.379220	-1.650382	-0.660981
O17	O	-0.490028	-1.544273	-0.638716
C18	C	-0.434638	-1.325901	-0.416233
C19	C	-0.434652	-1.209751	-0.416247
C20	C	-0.434638	-1.597346	-0.687763
C21	C	-0.434661	-1.597418	-0.803912
C22	C	-0.669970	-1.644669	-0.368987
C23	C	-0.770247	-1.664806	-0.348846
C24	C	-1.052858	-1.454146	-0.559388
C25	C	-0.958643	-1.435216	-0.578306
C26	C	-0.911539	-1.492612	-0.520943
C27	C	-0.958660	-1.568942	-0.444658
C28	C	-1.052885	-1.587868	-0.425733
C29	C	-0.911566	-1.626334	-0.387287
C30	C	-0.958687	-1.702663	-0.311003
C31	C	-1.052902	-1.721586	-0.292081
C32	C	-1.100006	-1.664190	-0.349444
C33	C	-0.817341	-1.607407	-0.406213
C34	C	-0.817368	-1.741129	-0.272557
C35	C	-0.911583	-1.760059	-0.253640
C36	C	-0.200256	-1.550403	-0.463254
C37	C	-0.099979	-1.530469	-0.483100
C38	C	-0.434673	-1.869988	-0.416267
C39	C	-0.434680	-1.986143	-0.416275
C40	C	-0.489394	-1.168965	-0.468868
C41	C	-0.489410	-1.048918	-0.468883
C42	C	-0.489550	-1.671929	-0.844593
C43	C	-0.489575	-1.672006	-0.964639
C44	C	-0.434691	-1.597516	-0.143672
C45	C	-0.434707	-1.597559	-0.027516
H46	H	-0.778984	-1.545253	-0.468318
O47	O	-0.378715	-1.521246	-0.868309
C48	C	-0.398310	-1.420972	-0.837836
H49	H	-0.470349	-1.430050	-0.793266
H50	H	-0.349856	-1.383879	-0.784340
C51	C	-0.299375	-1.338132	-0.991765
C52	C	-0.387857	-1.349281	-0.937030
H53	H	-0.292923	-1.293907	-1.052950
H54	H	-0.286170	-1.405688	-1.012293
H55	H	-0.259007	-1.307225	-0.947174
H56	H	-0.428222	-1.380200	-0.981617
H57	H	-0.401068	-1.281728	-0.916511
H58	H	-0.536274	-1.013800	-0.513938
O59	O	-0.957320	-1.834338	-0.179652
C60	C	-0.934284	-1.933856	-0.207108
H61	H	-0.908367	-1.933898	-0.295795
H62	H	-0.879606	-1.950212	-0.162061
C63	C	-1.049820	-2.020359	-0.069219
C64	C	-1.017996	-2.020414	-0.178148
H65	H	-1.101456	-2.073753	-0.051352
H66	H	-1.065338	-1.953312	-0.050719
H67	H	-1.004247	-2.033986	-0.031693
H68	H	-1.063564	-2.006774	-0.215672
H69	H	-1.002487	-2.087461	-0.196654
O70	O	-0.545553	-1.748104	-0.780255
C71	C	-0.525933	-1.848378	-0.810687
H72	H	-0.491326	-1.843750	-0.896922
H73	H	-0.479522	-1.874210	-0.758588
C74	C	-0.656445	-1.934954	-0.691899
C75	C	-0.613948	-1.929271	-0.797818
H76	H	-0.710735	-1.984854	-0.683958
H77	H	-0.669663	-1.867397	-0.671393
H78	H	-0.617760	-1.956477	-0.648496
H79	H	-0.652628	-1.907736	-0.841218
H80	H	-0.600738	-1.996826	-0.818331
H81	H	-0.536564	-1.735801	-0.999667
O82	O	-0.545382	-1.233180	-0.522618
C83	C	-0.596268	-1.171946	-0.571570
H84	H	-0.599523	-1.094773	-0.528204
H85	H	-0.563125	-1.153707	-0.657548
C86	C	-0.688228	-1.328731	-0.620746
C87	C	-0.692233	-1.233949	-0.567477
H88	H	-0.747423	-1.366978	-0.618226
H89	H	-0.653944	-1.369987	-0.587770
H90	H	-0.660605	-1.313518	-0.692389
H91	H	-0.719845	-1.249164	-0.495833
H92	H	-0.726525	-1.192698	-0.600442
H93	H	-1.176724	-1.679602	-0.334049
H94	H	-1.091265	-1.783731	-0.229958
H95	H	-0.387808	-1.021252	-0.371226
H96	H	-0.779016	-1.787862	-0.225844
O97	O	-0.378621	-1.145485	-0.362589
C98	C	-0.288648	-1.153972	-0.403334
H99	H	-0.286653	-1.232839	-0.443824
H100	H	-0.258237	-1.086444	-0.463177
C101	C	-0.236590	-1.051062	-0.262576
C102	C	-0.234139	-1.147931	-0.312299
H103	H	-0.202965	-1.047331	-0.206423
H104	H	-0.297206	-1.045340	-0.235127
H105	H	-0.211249	-0.994799	-0.312456
H106	H	-0.259490	-1.204192	-0.262423
H107	H	-0.173526	-1.153662	-0.339737
H108	H	-0.387708	-1.533767	-0.992497
H109	H	-0.920284	-1.373077	-0.640425
O110	O	-1.098753	-1.398520	-0.615036
C111	C	-1.192016	-1.431569	-0.581947
H112	H	-1.204889	-1.514818	-0.545152
H113	H	-1.218753	-1.374981	-0.520909
C114	C	-1.224576	-1.329409	-0.723149
C115	C	-1.240387	-1.431661	-0.677965
H116	H	-1.254414	-1.329461	-0.782376
H117	H	-1.161743	-1.307139	-0.745440
H118	H	-1.246856	-1.282263	-0.672275
H119	H	-1.218096	-1.478801	-0.728835
H120	H	-1.303217	-1.453938	-0.655685
O121	O	-0.820019	-1.474336	-0.539494
C122	C	-0.788541	-1.494787	-0.645986
H123	H	-0.842845	-1.551221	-0.678283
H124	H	-0.771806	-1.417425	-0.694609
C125	C	-0.636711	-1.476084	-0.613336
C126	C	-0.703405	-1.545404	-0.653001
H127	H	-0.584193	-1.507302	-0.617665
H128	H	-0.657917	-1.462301	-0.541591
H129	H	-0.622776	-1.411620	-0.653860
H130	H	-0.717347	-1.609860	-0.612469
H131	H	-0.682199	-1.559198	-0.724740
