data_functionalizedCrystal
_audit_creation_method	'MofGen! by Chris Wilmer'
_symmetry_space_group_name_H-M	'P1'
_symmetry_Int_Tables_number	1
_symmetry_cell_setting	triclinic
loop_
_symmetry_equiv_pos_as_xyz
  x,y,z
_cell_length_a	19.805407
_cell_length_b	16.625546
_cell_length_c	19.805399
_cell_angle_alpha	89.972133
_cell_angle_beta	89.980427
_cell_angle_gamma	90.022468
loop_
_atom_site_label
_atom_site_type_symbol
_atom_site_fract_x
_atom_site_fract_y
_atom_site_fract_z
Zn1	Zn	1.034754	-0.321020	-0.382718
Zn2	Zn	1.368088	0.012313	-0.049385
Zn3	Zn	1.701421	0.345646	0.283948
Zn4	Zn	1.034677	-0.455857	-0.269529
Zn5	Zn	1.368010	-0.122524	0.063804
Zn6	Zn	1.701344	0.210809	0.397137
Zn7	Zn	0.921569	-0.321043	-0.269543
Zn8	Zn	1.254902	0.012291	0.063790
Zn9	Zn	1.588236	0.345624	0.397124
Zn10	Zn	0.921540	-0.455815	-0.382676
Zn11	Zn	1.254873	-0.122481	-0.049343
Zn12	Zn	1.588207	0.210852	0.283990
O13	O	0.978135	-0.388434	-0.326117
O14	O	1.311468	-0.055100	0.007217
O15	O	1.644802	0.278233	0.340550
O16	O	1.129461	-0.338915	-0.367716
O17	O	1.462794	-0.005582	-0.034382
O18	O	1.796127	0.327751	0.298951
O19	O	1.019652	-0.438001	-0.174815
O20	O	1.352986	-0.104668	0.158519
O21	O	1.686319	0.228665	0.491852
O22	O	0.936628	-0.208207	-0.284579
O23	O	1.269961	0.125126	0.048754
O24	O	1.603294	0.458459	0.382088
O25	O	1.129404	-0.437980	-0.284556
O26	O	1.462737	-0.104646	0.048777
O27	O	1.796070	0.228687	0.382110
O28	O	1.019784	-0.208191	-0.367729
O29	O	1.353118	0.125142	-0.034395
O30	O	1.686451	0.458476	0.298938
O31	O	0.936553	-0.338953	-0.174825
O32	O	1.269886	-0.005620	0.158509
O33	O	1.603219	0.327713	0.491842
O34	O	0.826848	-0.338912	-0.284538
O35	O	1.160182	-0.005578	0.048795
O36	O	1.493515	0.327755	0.382128
O37	O	0.936579	-0.437907	-0.477398
O38	O	1.269912	-0.104573	-0.144065
O39	O	1.603245	0.228760	0.189268
O40	O	0.826827	-0.437928	-0.367657
O41	O	1.160161	-0.104595	-0.034324
O42	O	1.493494	0.228738	0.299010
O43	O	1.019756	-0.338874	-0.477429
O44	O	1.353090	-0.005540	-0.144096
O45	O	1.686423	0.327793	0.189237
O46	O	1.019625	-0.568684	-0.284515
O47	O	1.352958	-0.235351	0.048818
O48	O	1.686291	0.097982	0.382151
O49	O	0.936504	-0.568653	-0.367644
O50	O	1.269837	-0.235319	-0.034311
O51	O	1.603170	0.098014	0.299023
C52	C	0.802279	-0.388418	-0.326095
C53	C	1.135612	-0.055085	0.007238
C54	C	1.468946	0.278248	0.340572
C55	C	0.727047	-0.388431	-0.326102
C56	C	1.060380	-0.055098	0.007232
C57	C	1.393714	0.278236	0.340565
C58	C	0.691710	-0.440067	-0.369311
C59	C	1.025043	-0.106733	-0.035978
C60	C	1.358376	0.226600	0.297355
C61	C	0.621021	-0.440068	-0.369321
C62	C	0.954354	-0.106735	-0.035988
C63	C	1.287688	0.226599	0.297346
C64	C	0.585671	-0.388437	-0.326117
C65	C	0.919005	-0.055104	0.007217
C66	C	1.252338	0.278229	0.340550
C67	C	0.621014	-0.336796	-0.282905
C68	C	0.954347	-0.003463	0.050428
C69	C	1.287680	0.329870	0.383762
C70	C	0.691701	-0.336791	-0.282899
C71	C	1.025034	-0.003458	0.050434
C72	C	1.358368	0.329875	0.383767
C73	C	0.335941	-0.336814	-0.282927
C74	C	0.669274	-0.003481	0.050406
C75	C	1.002607	0.329853	0.383739
C76	C	0.265248	-0.336825	-0.282935
C77	C	0.598582	-0.003491	0.050398
C78	C	0.931915	0.329842	0.383732
C79	C	0.265261	-0.440091	-0.369349
C80	C	0.598594	-0.106757	-0.036016
C81	C	0.931927	0.226576	0.297318
C82	C	0.335948	-0.440086	-0.369343
C83	C	0.669281	-0.106753	-0.036010
C84	C	1.002615	0.226581	0.297323
C85	C	0.371284	-0.388442	-0.326134
C86	C	0.704617	-0.055109	0.007199
C87	C	1.037951	0.278225	0.340532
C88	C	0.447932	-0.388440	-0.326125
C89	C	0.781266	-0.055107	0.007208
C90	C	1.114599	0.278227	0.340541
C91	C	0.509024	-0.388443	-0.326122
C92	C	0.842358	-0.055110	0.007212
C93	C	1.175691	0.278224	0.340545
C94	C	0.978071	-0.597925	-0.326088
C95	C	1.311404	-0.264591	0.007245
C96	C	1.644738	0.068742	0.340578
C97	C	0.978105	-0.687546	-0.326099
C98	C	1.311439	-0.354212	0.007234
C99	C	1.644772	-0.020879	0.340568
C100	C	0.978224	-1.015721	-0.326169
C101	C	1.311557	-0.682388	0.007164
C102	C	1.644890	-0.349055	0.340497
C103	C	0.978189	-0.924413	-0.326152
C104	C	1.311522	-0.591079	0.007182
C105	C	1.644855	-0.257746	0.340515
C106	C	0.978164	-0.851636	-0.326134
C107	C	1.311497	-0.518303	0.007200
C108	C	1.644831	-0.184970	0.340533
C109	C	0.978130	-0.760322	-0.326117
C110	C	1.311463	-0.426989	0.007217
C111	C	1.644797	-0.093655	0.340550
C112	C	1.154678	-0.388450	-0.326139
C113	C	1.488011	-0.055116	0.007194
C114	C	1.821344	0.278217	0.340528
C115	C	1.229910	-0.388457	-0.326149
C116	C	1.563243	-0.055123	0.007185
C117	C	1.896576	0.278210	0.340518
C118	C	0.978173	-0.388383	-0.502660
C119	C	1.311506	-0.055050	-0.169326
C120	C	1.644840	0.278284	0.164007
C121	C	0.978189	-0.388361	-0.577892
C122	C	1.311522	-0.055028	-0.244558
C123	C	1.644856	0.278305	0.088775
C124	C	0.978218	-0.178125	-0.326160
C125	C	1.311551	0.155209	0.007173
C126	C	1.644884	0.488542	0.340507
C127	C	0.978253	-0.088504	-0.326178
C128	C	1.311586	0.244830	0.007155
C129	C	1.644920	0.578163	0.340488
C130	C	1.021501	-0.336792	-0.613253
C131	C	1.354834	-0.003459	-0.279920
C132	C	1.688168	0.329874	0.053414
C133	C	1.021508	-0.336769	-0.683941
C134	C	1.354841	-0.003436	-0.350608
C135	C	1.688174	0.329898	-0.017275
C136	C	0.978206	-0.388319	-0.719267
C137	C	1.311539	-0.054986	-0.385934
C138	C	1.644873	0.278347	-0.052601
C139	C	0.934889	-0.439890	-0.683901
C140	C	1.268223	-0.106557	-0.350568
C141	C	1.601556	0.226776	-0.017234
C142	C	0.934880	-0.439909	-0.613214
C143	C	1.268213	-0.106576	-0.279880
C144	C	1.601546	0.226758	0.053453
C145	C	0.934928	-0.439815	-0.968974
C146	C	1.268261	-0.106482	-0.635641
C147	C	1.601594	0.226851	-0.302308
C148	C	0.934942	-0.439794	-1.039667
C149	C	1.268276	-0.106461	-0.706333
C150	C	1.601609	0.226872	-0.373000
C151	C	1.021556	-0.336675	-1.039702
C152	C	1.354889	-0.003342	-0.706369
C153	C	1.688223	0.329992	-0.373035
C154	C	1.021546	-0.336694	-0.969015
C155	C	1.354879	-0.003360	-0.635681
C156	C	1.688213	0.329973	-0.302348
C157	C	0.978227	-0.388262	-0.933655
C158	C	1.311561	-0.054928	-0.600321
C159	C	1.644894	0.278405	-0.266988
C160	C	0.978219	-0.388285	-0.857006
C161	C	1.311553	-0.054952	-0.523673
C162	C	1.644886	0.278381	-0.190340
C163	C	0.978217	-0.388300	-0.795914
C164	C	1.311550	-0.054967	-0.462581
C165	C	1.644883	0.278366	-0.129248
C166	C	0.978136	-0.388426	-0.150261
C167	C	1.311469	-0.055093	0.183073
C168	C	1.644803	0.278241	0.516406
C169	C	0.978251	-0.388221	-0.075029
C170	C	1.311584	-0.054887	0.258304
C171	C	1.644918	0.278446	0.591638
H172	H	0.236469	-0.294776	-0.247753
H173	H	0.569802	0.038558	0.085581
H174	H	0.903135	0.371891	0.418914
N175	N	0.890629	-0.492585	-0.577101
N176	N	1.223962	-0.159252	-0.243768
N177	N	1.557296	0.174081	0.089566
N178	N	0.851968	-0.538607	-0.608648
N179	N	1.185301	-0.205274	-0.275315
N180	N	1.518634	0.128059	0.058019
H181	H	0.820711	-0.575809	-0.583145
H182	H	1.154045	-0.242476	-0.249811
H183	H	1.487378	0.090858	0.083522
H184	H	1.056826	-0.294683	-1.068501
H185	H	1.390159	0.038650	-0.735167
H186	H	1.723492	0.371983	-0.401834
H187	H	0.899678	-0.481774	-1.068427
H188	H	1.233011	-0.148441	-0.735094
H189	H	1.566345	0.184892	-0.401760
N190	N	0.372027	-0.284060	-0.238793
N191	N	0.705360	0.049274	0.094540
N192	N	1.038694	0.382607	0.427873
N193	N	0.364150	-0.209666	-0.243392
N194	N	0.697484	0.123667	0.089941
N195	N	1.030817	0.457001	0.423274
H196	H	0.389638	-0.172406	-0.212219
H197	H	0.722971	0.160927	0.121114
H198	H	1.056305	0.494261	0.454447
H199	H	0.236481	-0.482139	-0.404534
H200	H	0.569815	-0.148805	-0.071201
H201	H	0.903148	0.184528	0.262132
N202	N	1.065766	-0.284033	-0.932921
N203	N	1.399099	0.049301	-0.599588
N204	N	1.732433	0.382634	-0.266254
N205	N	1.065748	-0.284054	-0.869808
N206	N	1.399081	0.049280	-0.536475
N207	N	1.732414	0.382613	-0.203141
H208	H	1.096976	-0.246858	-0.844316
H209	H	1.430309	0.086475	-0.510983
H210	H	1.763643	0.419809	-0.177649
N211	N	0.727789	-0.284034	-0.238764
N212	N	1.061122	0.049299	0.094570
N213	N	1.394456	0.382633	0.427903
N214	N	0.696221	-0.237935	-0.200194
N215	N	1.029554	0.095398	0.133139
N216	N	1.362888	0.428732	0.466472
H217	H	0.721707	-0.200669	-0.169025
H218	H	1.055040	0.132664	0.164308
H219	H	1.388374	0.465998	0.497642
N220	N	1.065743	-0.284093	-0.720070
N221	N	1.399077	0.049240	-0.386737
N222	N	1.732410	0.382574	-0.053404
N223	N	1.041957	-0.232696	-0.759518
N224	N	1.375290	0.100638	-0.426185
N225	N	1.708624	0.433971	-0.092852
H226	H	1.073199	-0.195489	-0.785035
H227	H	1.406533	0.137844	-0.451701
H228	H	1.739866	0.471177	-0.118368
H229	H	0.899665	-0.481817	-0.940193
H230	H	1.232998	-0.148483	-0.606859
H231	H	1.566332	0.184850	-0.273526
N232	N	0.890656	-0.492537	-0.719993
N233	N	1.223989	-0.159203	-0.386660
N234	N	1.557323	0.174130	-0.053327
N235	N	0.890670	-0.492514	-0.783106
N236	N	1.224003	-0.159181	-0.449773
N237	N	1.557337	0.174152	-0.116440
H238	H	0.859430	-0.529698	-0.808597
H239	H	1.192763	-0.196364	-0.475264
H240	H	1.526096	0.136969	-0.141930
H241	H	0.720486	-0.482113	-0.404491
H242	H	1.053820	-0.148780	-0.071158
H243	H	1.387153	0.184554	0.262176
H244	H	0.364726	-0.482132	-0.404522
H245	H	0.698059	-0.148798	-0.071189
H246	H	1.031393	0.184535	0.262144
N247	N	0.584936	-0.492813	-0.413467
N248	N	0.918269	-0.159480	-0.080134
N249	N	1.251602	0.173854	0.253200
N250	N	0.616506	-0.538909	-0.452038
N251	N	0.949839	-0.205576	-0.118704
N252	N	1.283172	0.127758	0.214629
H253	H	0.591021	-0.576161	-0.483220
H254	H	0.924354	-0.242828	-0.149886
H255	H	1.257688	0.090505	0.183447
H256	H	0.592226	-0.294754	-0.247730
H257	H	0.925560	0.038579	0.085603
H258	H	1.258893	0.371912	0.418936
H259	H	1.056764	-0.294817	-0.584496
H260	H	1.390098	0.038517	-0.251162
H261	H	1.723431	0.371850	0.082171
