data_functionalizedCrystal
_audit_creation_method	'MofGen! by Chris Wilmer'
_symmetry_space_group_name_H-M	'P1'
_symmetry_Int_Tables_number	1
_symmetry_cell_setting	triclinic
loop_
_symmetry_equiv_pos_as_xyz
  x,y,z
_cell_length_a	15.297327
_cell_length_b	12.759401
_cell_length_c	12.759393
_cell_angle_alpha	89.982105
_cell_angle_beta	99.641734
_cell_angle_gamma	99.709186
loop_
_atom_site_label
_atom_site_type_symbol
_atom_site_fract_x
_atom_site_fract_y
_atom_site_fract_z
Zn1	Zn	-0.359038	1.533812	-0.666268
Zn2	Zn	-0.509927	1.503261	-0.520974
Zn3	Zn	-0.359093	1.358103	-0.490620
Zn4	Zn	-0.509865	1.327670	-0.696604
O5	O	-0.434481	1.430712	-0.593616
O6	O	-0.379057	1.676780	-0.647001
O7	O	-0.489967	1.483956	-0.369936
O8	O	-0.232840	1.406933	-0.488521
O9	O	-0.489915	1.654334	-0.540254
O10	O	-0.232800	1.536025	-0.617568
O11	O	-0.379150	1.377309	-0.347635
O12	O	-0.379090	1.207045	-0.517937
O13	O	-0.489809	1.355065	-0.839592
O14	O	-0.489862	1.184687	-0.669273
O15	O	-0.378997	1.506516	-0.817303
O16	O	-0.636165	1.454447	-0.569671
O17	O	-0.636119	1.325441	-0.698706
C18	C	-0.668876	1.383355	-0.640797
C19	C	-0.769152	1.363192	-0.661016
C20	C	-0.434476	1.157745	-0.593604
C21	C	-0.434495	1.040965	-0.593628
C22	C	-0.434390	1.430803	-0.867632
C23	C	-0.434351	1.430843	-0.984400
C24	C	-1.051781	1.575254	-0.449465
C25	C	-0.957567	1.594198	-0.430463
C26	C	-0.910458	1.536449	-0.488100
C27	C	-0.957573	1.459751	-0.564742
C28	C	-1.051796	1.440800	-0.583740
C29	C	-0.910474	1.401994	-0.622375
C30	C	-0.957588	1.325296	-0.699017
C31	C	-1.051802	1.306349	-0.718012
C32	C	-1.098910	1.364098	-0.660375
C33	C	-0.816251	1.420945	-0.603376
C34	C	-0.816266	1.286491	-0.737651
C35	C	-0.910479	1.267547	-0.756653
C36	C	-0.199170	1.478282	-0.546275
C37	C	-0.098895	1.498553	-0.526100
C38	C	-0.434487	1.704744	-0.593630
C39	C	-0.434489	1.821520	-0.593635
C40	C	-0.376771	1.888070	-0.649206
C41	C	-0.376776	1.997793	-0.649206
C42	C	-0.492220	1.974406	-0.538055
C43	C	-0.492219	1.864684	-0.538062
C44	C	-0.319042	1.844905	-0.704779
C45	C	-0.261318	1.911457	-0.760354
C46	C	-0.261323	2.021180	-0.760353
C47	C	-0.319051	2.064352	-0.704779
C48	C	-0.376646	1.509714	-1.027658
C49	C	-0.376613	1.509745	-1.137375
C50	C	-0.491999	1.352030	-1.160570
C51	C	-0.492026	1.351995	-1.050854
C52	C	-0.318971	1.588561	-0.961204
C53	C	-0.261262	1.667440	-1.004461
C54	C	-0.261229	1.667471	-1.114178
C55	C	-0.318906	1.588624	-1.180639
C56	C	-0.434506	1.430694	-0.320654
C57	C	-0.434291	1.430909	-0.203835
H58	H	-0.777899	1.483393	-0.540974
O59	O	-0.548203	2.016521	-0.484083
C60	C	-0.535841	2.127632	-0.496014
H61	H	-0.466207	2.156704	-0.516413
H62	H	-0.541986	2.168062	-0.418552
H63	H	-0.589334	2.147979	-0.562723
O64	O	-0.205294	1.744107	-1.156342
C65	C	-0.256642	1.801614	-1.230126
H66	H	-0.325005	1.750742	-1.260309
H67	H	-0.219872	1.823142	-1.299889
H68	H	-0.266568	1.877457	-1.189846
H69	H	-0.318864	1.588646	-1.269976
H70	H	-0.539220	1.810496	-0.492814
O71	O	-0.548000	1.275555	-1.225285
C72	C	-0.535587	1.292486	-1.331397
H73	H	-0.506036	1.379543	-1.340440
H74	H	-0.603153	1.271717	-1.386682
H75	H	-0.487538	1.239890	-1.352873
H76	H	-0.318993	1.588546	-0.871866
H77	H	-0.539001	1.287758	-1.015631
O78	O	-0.205189	1.743886	-0.939782
C79	C	-0.146921	1.695834	-0.864612
H80	H	-0.178743	1.609779	-0.854566
H81	H	-0.134850	1.741052	-0.785032
H82	H	-0.080054	1.697817	-0.893451
O83	O	-0.818940	1.554850	-0.469452
C84	C	-0.787549	1.534205	-0.362416
H85	H	-0.841873	1.541252	-0.312868
H86	H	-0.724496	1.594289	-0.331063
H87	H	-0.770893	1.450383	-0.356764
O88	O	-0.911943	1.668773	-0.356021
C89	C	-0.973721	1.715666	-0.309207
H90	H	-1.040852	1.705776	-0.365778
H91	H	-0.946445	1.803936	-0.292573
H92	H	-0.983821	1.675206	-0.231417
H93	H	-1.175627	1.348681	-0.675845
O94	O	-1.097680	1.631250	-0.393578
C95	C	-1.190941	1.598035	-0.426744
H96	H	-1.203786	1.561044	-0.510403
H97	H	-1.226715	1.669522	-0.426841
H98	H	-1.217733	1.536682	-0.369809
O99	O	-0.205219	1.869692	-0.814434
C100	C	-0.154263	1.951966	-0.863464
H101	H	-0.191217	2.022709	-0.874534
H102	H	-0.144610	1.922244	-0.944301
H103	H	-0.085759	1.977472	-0.811207
O104	O	-1.097527	1.231961	-0.792598
C105	C	-1.074401	1.259502	-0.892665
H106	H	-1.048437	1.348654	-0.892803
H107	H	-1.136334	1.237967	-0.957051
H108	H	-1.019734	1.214157	-0.909057
O109	O	-0.956211	1.193162	-0.831239
C110	C	-0.933088	1.220701	-0.931308
H111	H	-0.907116	1.309851	-0.931446
H112	H	-0.995025	1.199174	-0.995690
H113	H	-0.878428	1.175347	-0.947706
H114	H	-0.777911	1.239464	-0.784582
H115	H	-0.319027	1.755566	-0.704780
H116	H	-0.214328	2.075362	-0.805613
H117	H	-0.319044	2.153698	-0.704774
