data_functionalizedCrystal
_audit_creation_method	'MofGen! by Chris Wilmer'
_symmetry_space_group_name_H-M	'P1'
_symmetry_Int_Tables_number	1
_symmetry_cell_setting	triclinic
loop_
_symmetry_equiv_pos_as_xyz
  x,y,z
_cell_length_a	14.908571
_cell_length_b	16.625539
_cell_length_c	14.908520
_cell_angle_alpha	86.731803
_cell_angle_beta	89.794039
_cell_angle_gamma	86.686754
loop_
_atom_site_label
_atom_site_type_symbol
_atom_site_fract_x
_atom_site_fract_y
_atom_site_fract_z
Zn1	Zn	1.353972	-0.548158	0.437408
Zn2	Zn	1.345187	-0.420623	0.587773
Zn3	Zn	1.203605	-0.405151	0.428750
Zn4	Zn	1.194900	-0.547226	0.579032
O5	O	1.274416	-0.480290	0.508241
O6	O	1.478632	-0.538105	0.464636
O7	O	1.326373	-0.305739	0.566712
O8	O	1.230871	-0.418036	0.304076
O9	O	1.472177	-0.444406	0.575108
O10	O	1.341345	-0.523103	0.310438
O11	O	1.222353	-0.294371	0.449879
O12	O	1.076625	-0.417133	0.441404
O13	O	1.216035	-0.660182	0.560212
O14	O	1.070230	-0.521514	0.551816
O15	O	1.332904	-0.660867	0.456161
O16	O	1.317932	-0.443503	0.712435
O17	O	1.207516	-0.536517	0.706014
C18	C	1.040803	-0.467544	0.494722
C19	C	0.940860	-0.462111	0.488961
C20	C	0.746437	-0.560466	0.593284
C21	C	0.652532	-0.555364	0.587874
C22	C	0.659145	-0.446812	0.472724
C23	C	0.753050	-0.451913	0.478135
C24	C	0.796692	-0.508741	0.538418
C25	C	0.890598	-0.513838	0.543833
C26	C	0.897209	-0.405290	0.428680
C27	C	0.803305	-0.400188	0.423269
C28	C	1.274478	-0.690599	0.508177
C29	C	1.274505	-0.780220	0.508150
C30	C	1.274552	-1.108393	0.508052
C31	C	1.274536	-1.017085	0.508082
C32	C	1.274529	-0.944309	0.508102
C33	C	1.274512	-0.852996	0.508130
C34	C	1.508942	-0.493086	0.521813
C35	C	1.608883	-0.498539	0.527596
C36	C	1.260850	-0.491607	0.741850
C37	C	1.255129	-0.496479	0.841794
C38	C	1.274410	-0.270799	0.508242
C39	C	1.274572	-0.181175	0.508026
C40	C	1.288059	-0.468947	0.273721
C41	C	1.293873	-0.464114	0.173782
C42	C	1.359472	-0.408870	1.036231
C43	C	1.354100	-0.413446	1.130137
C44	C	1.239017	-0.510211	1.123515
C45	C	1.244389	-0.505635	1.029608
C46	C	1.304618	-0.454962	0.985970
C47	C	1.309986	-0.450382	0.892062
C48	C	1.194908	-0.547151	0.885441
C49	C	1.189535	-0.551728	0.979347
H50	H	0.767758	-0.353923	0.374186
F51	F	1.125442	-0.605658	1.025800
H52	H	0.938137	-0.363170	0.384005
F53	F	0.792886	-0.620939	0.657449
F54	F	1.412485	-0.364390	1.183626
F55	F	0.599050	-0.610419	0.646268
F56	F	1.136514	-0.596200	0.831942
H57	H	0.926130	-0.560109	0.592920
H58	H	0.623595	-0.400550	0.423639
H59	H	1.359024	-0.409119	0.856532
F60	F	1.423560	-0.354929	0.989785
F61	F	1.174933	-0.564147	1.169973
