data_functionalizedCrystal
_audit_creation_method	'MofGen! by Chris Wilmer'
_symmetry_space_group_name_H-M	'P1'
_symmetry_Int_Tables_number	1
_symmetry_cell_setting	triclinic
loop_
_symmetry_equiv_pos_as_xyz
  x,y,z
_cell_length_a	18.215407
_cell_length_b	18.215405
_cell_length_c	21.395355
_cell_angle_alpha	89.980149
_cell_angle_beta	89.977330
_cell_angle_gamma	90.019398
loop_
_atom_site_label
_atom_site_type_symbol
_atom_site_fract_x
_atom_site_fract_y
_atom_site_fract_z
Zn1	Zn	1.125107	-0.293177	-0.354224
Zn2	Zn	1.125005	-0.416226	-0.249444
Zn3	Zn	1.002029	-0.293166	-0.249464
Zn4	Zn	1.002006	-0.416195	-0.354188
O5	O	1.063537	-0.354691	-0.301830
O6	O	1.228078	-0.309518	-0.340332
O7	O	1.108659	-0.399909	-0.161769
O8	O	1.018408	-0.190183	-0.263384
O9	O	1.228003	-0.399921	-0.263350
O10	O	1.108833	-0.190191	-0.340351
O11	O	1.018310	-0.309498	-0.161784
O12	O	0.899042	-0.309468	-0.263349
O13	O	1.018368	-0.399868	-0.441871
O14	O	0.899024	-0.399857	-0.340289
O15	O	1.108810	-0.309488	-0.441897
O16	O	1.108636	-0.519206	-0.263315
O17	O	1.018269	-0.519183	-0.340270
C18	C	0.872331	-0.354658	-0.301818
C19	C	0.790532	-0.354662	-0.301827
C20	C	1.063459	-0.545897	-0.301800
C21	C	1.063493	-0.627696	-0.301808
C22	C	0.525507	-0.307709	-0.341978
C23	C	0.602366	-0.307697	-0.341976
C24	C	0.602307	-0.401697	-0.261696
C25	C	0.525450	-0.401712	-0.261701
C26	C	0.487052	-0.354714	-0.301842
C27	C	0.640768	-0.354687	-0.301834
C28	C	0.724102	-0.354674	-0.301832
C29	C	0.403713	-0.354727	-0.301845
C30	C	1.110658	-0.815877	-0.261811
C31	C	1.110691	-0.892736	-0.261827
C32	C	1.016510	-0.892752	-0.341894
C33	C	1.016481	-0.815895	-0.341881
C34	C	1.063554	-0.777459	-0.301837
C35	C	1.063616	-0.931176	-0.301864
C36	C	1.063651	-1.014509	-0.301881
C37	C	1.063520	-0.694121	-0.301821
C38	C	1.255490	-0.354724	-0.301843
C39	C	1.337289	-0.354738	-0.301848
C40	C	1.063598	-0.354676	-0.465253
C41	C	1.063624	-0.354670	-0.534895
C42	C	1.063635	-0.162738	-0.301874
C43	C	1.063677	-0.080939	-0.301893
C44	C	1.110715	-0.307607	-0.567623
C45	C	1.110714	-0.307575	-0.633058
C46	C	1.063630	-0.354619	-0.665763
C47	C	1.016529	-0.401686	-0.633027
C48	C	1.016526	-0.401711	-0.567593
C49	C	1.057792	-0.420883	-0.769427
C50	C	1.057800	-0.420859	-0.834860
C51	C	1.063634	-0.354542	-0.867584
C52	C	1.069476	-0.288246	-0.834866
C53	C	1.069473	-0.288271	-0.769432
C54	C	1.063627	-0.354597	-0.736716
C55	C	1.110727	-0.307440	-0.971265
C56	C	1.110721	-0.307407	-1.036701
C57	C	1.016540	-0.401525	-1.036669
C58	C	1.016542	-0.401551	-0.971234
C59	C	1.063639	-0.354510	-0.938535
C60	C	1.063518	-0.354653	-0.139043
C61	C	1.063635	-0.354452	-0.069402
H62	H	0.494246	-0.269439	-0.374663
H63	H	0.633673	-0.269421	-0.374660
Br64	Br	0.952556	-0.763752	-0.396211
H65	H	1.074228	-0.234244	-0.861508
Br66	Br	0.654423	-0.465475	-0.207221
H67	H	1.149048	-0.924012	-0.229235
Br68	Br	0.952628	-0.944919	-0.396237
H69	H	1.148989	-0.784585	-0.229206
H70	H	0.494139	-0.439993	-0.229017
Br71	Br	1.174630	-0.243762	-0.523249
H72	H	1.149060	-0.269246	-0.659711
Br73	Br	1.077397	-0.198304	-0.725031
H74	H	0.978190	-0.439988	-0.659660
H75	H	1.149072	-0.269132	-0.944640
Br76	Br	1.174647	-0.243541	-1.081119
Br77	Br	0.952629	-0.465363	-1.081047
Br78	Br	0.952630	-0.465428	-0.926814
Br79	Br	1.049882	-0.510831	-0.879256
H80	H	1.052844	-0.474873	-0.742790
Br81	Br	0.952611	-0.465586	-0.523173
