data_functionalizedCrystal
_audit_creation_method	'MofGen! by Chris Wilmer'
_symmetry_space_group_name_H-M	'P1'
_symmetry_Int_Tables_number	1
_symmetry_cell_setting	triclinic
loop_
_symmetry_equiv_pos_as_xyz
  x,y,z
_cell_length_a	17.639054
_cell_length_b	16.120484
_cell_length_c	17.639306
_cell_angle_alpha	104.591192
_cell_angle_beta	65.665306
_cell_angle_gamma	104.622514
loop_
_atom_site_label
_atom_site_type_symbol
_atom_site_fract_x
_atom_site_fract_y
_atom_site_fract_z
Zn1	Zn	1.346299	-0.200702	-0.729271
Zn2	Zn	1.846299	0.299298	-0.229271
Zn3	Zn	1.313627	-0.318696	-0.596148
Zn4	Zn	1.813627	0.181304	-0.096148
Zn5	Zn	1.180610	-0.200678	-0.563548
Zn6	Zn	1.680610	0.299322	-0.063548
Zn7	Zn	1.201777	-0.366298	-0.707904
Zn8	Zn	1.701777	0.133702	-0.207904
O9	O	1.260578	-0.271593	-0.649218
O10	O	1.760578	0.228407	-0.149218
O11	O	1.458116	-0.196443	-0.734198
O12	O	1.958116	0.303557	-0.234198
O13	O	1.273450	-0.283110	-0.475698
O14	O	1.773450	0.216890	0.024302
O15	O	1.207404	-0.081987	-0.580831
O16	O	1.707404	0.418013	-0.080831
O17	O	1.434111	-0.283133	-0.636393
O18	O	1.934111	0.216867	-0.136393
O19	O	1.329135	-0.082005	-0.702587
O20	O	1.829135	0.417995	-0.202587
O21	O	1.175723	-0.196402	-0.451747
O22	O	1.675723	0.303598	0.048253
O23	O	1.067268	-0.242559	-0.560112
O24	O	1.567268	0.257441	-0.060112
O25	O	1.243481	-0.364262	-0.826865
O26	O	1.743481	0.135738	-0.326865
O27	O	1.082819	-0.364239	-0.666170
O28	O	1.582819	0.135761	-0.166170
O29	O	1.349660	-0.242600	-0.842563
O30	O	1.849660	0.257400	-0.342563
O31	O	1.293975	-0.443705	-0.615674
O32	O	1.793975	0.056295	-0.115674
O33	O	1.211799	-0.478677	-0.697781
O34	O	1.711799	0.021323	-0.197781
C35	C	1.044927	-0.308562	-0.607286
C36	C	1.544927	0.191438	-0.107286
C37	C	0.952673	-0.324402	-0.589367
C38	C	1.452673	0.175598	-0.089367
C39	C	0.810135	-0.391760	-0.513110
C40	C	1.310135	0.108240	-0.013110
C41	C	0.896823	-0.376871	-0.529953
C42	C	1.396823	0.123129	-0.029953
C43	C	0.921851	-0.286804	-0.631966
C44	C	1.421851	0.213196	-0.131966
C45	C	0.835164	-0.301689	-0.615134
C46	C	1.335164	0.198311	-0.115134
C47	C	0.779312	-0.354167	-0.555705
C48	C	1.279312	0.145833	-0.055705
C49	C	0.804341	-0.264096	-0.657730
C50	C	1.304341	0.235904	-0.157730
C51	C	0.717661	-0.278976	-0.640896
C52	C	1.217661	0.221024	-0.140896
C53	C	0.661804	-0.331449	-0.581468
C54	C	1.161804	0.168551	-0.081468
C55	C	0.692632	-0.369047	-0.538872
C56	C	1.192632	0.130953	-0.038872
C57	C	0.860193	-0.211614	-0.717154
C58	C	1.360193	0.288386	-0.217154
C59	C	0.829370	-0.174021	-0.759749
C60	C	1.329370	0.325979	-0.259749
C61	C	0.742689	-0.188905	-0.742921
C62	C	1.242689	0.311095	-0.242921
C63	C	0.686832	-0.241379	-0.683492
C64	C	1.186832	0.258621	-0.183492
C65	C	0.711860	-0.151308	-0.785517
C66	C	1.211860	0.348692	-0.285517
C67	C	0.625180	-0.166188	-0.768683
C68	C	1.125180	0.333812	-0.268683
C69	C	0.600152	-0.256259	-0.666659
C70	C	1.100152	0.243741	-0.166659
C71	C	1.251665	-0.491966	-0.657969
C72	C	1.751665	0.008034	-0.157969
C73	C	1.247933	-0.586234	-0.661755
C74	C	1.747933	-0.086234	-0.161755
C75	C	1.241127	-0.758823	-0.668685
C76	C	1.741127	-0.258823	-0.168685
C77	C	1.280181	-0.783500	-0.629794
C78	C	1.780181	-0.283500	-0.129794
C79	C	1.276394	-0.879535	-0.633650
C80	C	1.776394	-0.379535	-0.133650
C81	C	1.244913	-0.662780	-0.664830
C82	C	1.744913	-0.162780	-0.164830
C83	C	1.477072	-0.234481	-0.691315
C84	C	1.977072	0.265519	-0.191315
C85	C	1.569329	-0.218666	-0.709254
C86	C	2.069329	0.281334	-0.209254
C87	C	1.302576	-0.308744	-0.865666
C88	C	1.802576	0.191256	-0.365666
C89	C	1.320473	-0.324575	-0.957903
C90	C	1.820473	0.175425	-0.457903
C91	C	1.269553	-0.050360	-0.640456
C92	C	1.769553	0.449640	-0.140456
C93	C	1.273378	0.043917	-0.636722
C94	C	1.773378	0.543917	-0.136722
C95	C	1.124953	-0.150954	-1.198940
C96	C	1.624953	0.349046	-0.698940
C97	C	1.141788	-0.165844	-1.285616
C98	C	1.641788	0.334156	-0.785616
C99	C	1.243540	-0.256124	-1.310533
C100	C	1.743540	0.243876	-0.810533
C101	C	1.226717	-0.241238	-1.223859
C102	C	1.726717	0.258762	-0.723859
C103	C	1.167422	-0.188653	-1.168069
C104	C	1.667422	0.311347	-0.668069
C105	C	1.269185	-0.278936	-1.192987
C106	C	1.769185	0.221064	-0.692987
C107	C	1.252360	-0.264055	-1.106320
C108	C	1.752360	0.235945	-0.606320
C109	C	1.193066	-0.211474	-1.050524
C110	C	1.693066	0.288526	-0.550524
C111	C	1.150596	-0.173771	-1.081401
C112	C	1.650596	0.326229	-0.581401
C113	C	1.328476	-0.331526	-1.248778
C114	C	1.828476	0.168474	-0.748778
C115	C	1.370944	-0.369225	-1.217906
C116	C	1.870944	0.130775	-0.717906
C117	C	1.354124	-0.354338	-1.131238
C118	C	1.854124	0.145662	-0.631238
C119	C	1.294830	-0.301758	-1.075442
C120	C	1.794830	0.198242	-0.575442
C121	C	1.396593	-0.392042	-1.100361
C122	C	1.896593	0.107958	-0.600361
C123	C	1.379768	-0.377160	-1.013693
C124	C	1.879768	0.122840	-0.513693
C125	C	1.278004	-0.286876	-0.988775
C126	C	1.778004	0.213124	-0.488775
C127	C	1.218794	-0.234518	-0.433619
C128	C	1.718794	0.265482	0.066381
C129	C	1.201068	-0.218421	-0.341404
C130	C	1.701068	0.281579	0.158596
H131	H	0.591222	-0.343549	-0.567750
H132	H	1.091222	0.156451	-0.067750
H133	H	1.316460	-0.732503	-0.593601
H134	H	1.816460	-0.232503	-0.093601
N135	N	0.772108	-0.094721	-0.849621
N136	N	1.272108	0.405279	-0.349621
H137	H	0.803127	-0.043410	-0.821386
H138	H	1.303127	0.456590	-0.321386
H139	H	0.814081	-0.129748	-0.896350
H140	H	1.314081	0.370252	-0.396350
N141	N	1.214049	-0.230159	-0.928595
N142	N	1.714049	0.269841	-0.428595
H143	H	1.209837	-0.226456	-0.869008
H144	H	1.709837	0.273544	-0.369008
H145	H	1.232369	-0.169968	-0.943858
H146	H	1.732369	0.330032	-0.443858
H147	H	1.342175	-0.343638	-1.319348
H148	H	1.842175	0.156362	-0.819348
N149	N	1.193069	-0.826364	-0.716621
N150	N	1.693069	-0.326364	-0.216621
H151	H	1.197143	-0.886384	-0.712610
H152	H	1.697143	-0.386384	-0.212610
H153	H	1.131879	-0.818940	-0.691520
H154	H	1.631879	-0.318940	-0.191520
N155	N	1.095976	-0.125195	-1.318922
N156	N	1.595976	0.374805	-0.818922
H157	H	1.108388	-0.059792	-1.303961
H158	H	1.608388	0.440208	-0.803961
H159	H	1.115657	-0.142678	-1.382284
H160	H	1.615657	0.357322	-0.882284
H161	H	0.647155	-0.411788	-0.490486
H162	H	1.147155	0.088212	0.009514
N163	N	1.174924	-0.195412	-0.957047
N164	N	1.674924	0.304588	-0.457047
H165	H	1.130919	-0.156379	-0.926391
H166	H	1.630919	0.343621	-0.426391
H167	H	1.153291	-0.252660	-0.935571
H168	H	1.653291	0.247340	-0.435571
N169	N	0.539905	-0.312853	-0.602554
N170	N	1.039905	0.187147	-0.102554
H171	H	0.480317	-0.316570	-0.598353
H172	H	0.980317	0.183430	-0.098353
H173	H	0.555093	-0.373051	-0.620717
H174	H	1.055093	0.126949	-0.120717
N175	N	0.749888	-0.448372	-0.449021
N176	N	1.249888	0.051628	0.050979
H177	H	0.782565	-0.469937	-0.424593
H178	H	1.282565	0.030063	0.075407
H179	H	0.707869	-0.413381	-0.402313
H180	H	1.207869	0.086619	0.097687
N181	N	1.307483	-0.312847	-1.370707
N182	N	1.807483	0.187153	-0.870707
H183	H	1.311697	-0.316559	-1.430295
H184	H	1.811697	0.183441	-0.930295
H185	H	1.364358	-0.286882	-1.366560
H186	H	1.864358	0.213118	-0.866560
H187	H	0.930772	-0.199496	-0.730855
H188	H	1.430772	0.300504	-0.230855
H189	H	0.967336	-0.244074	-0.680351
H190	H	1.467336	0.255926	-0.180351
N191	N	1.086650	-0.117046	-1.021219
N192	N	1.586650	0.382954	-0.521219
H193	H	1.062299	-0.095416	-1.053925
H194	H	1.562299	0.404584	-0.553925
H195	H	1.039857	-0.151984	-0.979161
H196	H	1.539857	0.348016	-0.479161
N197	N	1.061007	-0.094229	-1.138758
N198	N	1.561007	0.405771	-0.638758
H199	H	1.036656	-0.072599	-1.171464
H200	H	1.536656	0.427401	-0.671464
H201	H	1.014214	-0.129167	-1.096700
H202	H	1.514214	0.370833	-0.596700
H203	H	0.874855	-0.131291	-0.808135
H204	H	1.374855	0.368709	-0.308135
N205	N	1.460539	-0.448758	-1.160546
N206	N	1.960539	0.051242	-0.660546
H207	H	1.517452	-0.422830	-1.156476
H208	H	2.017452	0.077170	-0.656476
H209	H	1.442188	-0.508965	-1.145319
H210	H	1.942188	-0.008965	-0.645319
N211	N	0.930069	-0.417417	-0.484005
N212	N	1.430069	0.082583	0.015995
H213	H	0.881532	-0.452917	-0.443804
H214	H	1.381532	0.047083	0.056196
H215	H	0.970997	-0.456336	-0.526266
H216	H	1.470997	0.043664	-0.026266
H217	H	1.419219	-0.412043	-1.263341
H218	H	1.919219	0.087957	-0.763341
H219	H	1.414362	-0.407845	-0.988560
H220	H	1.914362	0.092155	-0.488560
N221	N	0.591927	-0.125642	-0.814620
N222	N	1.091927	0.374358	-0.314620
H223	H	0.640461	-0.090142	-0.854824
H224	H	1.140461	0.409858	-0.354824
H225	H	0.562015	-0.172985	-0.847356
H226	H	1.062015	0.327015	-0.347356
