data_functionalizedCrystal
_audit_creation_method	'MofGen! by Chris Wilmer'
_symmetry_space_group_name_H-M	'P1'
_symmetry_Int_Tables_number	1
_symmetry_cell_setting	triclinic
loop_
_symmetry_equiv_pos_as_xyz
  x,y,z
_cell_length_a	17.038272
_cell_length_b	10.654541
_cell_length_c	9.730217
_cell_angle_alpha	90.000068
_cell_angle_beta	89.996329
_cell_angle_gamma	92.202258
loop_
_atom_site_label
_atom_site_type_symbol
_atom_site_fract_x
_atom_site_fract_y
_atom_site_fract_z
O1	O	0.109868	-1.678040	-0.114249
O2	O	0.609868	-1.178040	0.385751
O3	O	0.120338	-1.313533	-0.114261
O4	O	0.620338	-0.813533	0.385739
O5	O	0.001275	-1.493620	-0.114245
O6	O	0.501275	-0.993620	0.385755
O7	O	0.228930	-1.497953	-0.114266
O8	O	0.728930	-0.997953	0.385734
O9	O	0.001274	-1.493614	0.114336
O10	O	0.501274	-0.993614	0.614336
O11	O	0.120337	-1.313527	0.114319
O12	O	0.620337	-0.813527	0.614319
O13	O	0.109867	-1.678034	0.114331
O14	O	0.609867	-1.178034	0.614331
Zn15	Zn	0.115102	-1.495780	0.150617
Zn16	Zn	0.615102	-0.995780	0.650617
Zn17	Zn	0.115103	-1.495788	-0.150547
Zn18	Zn	0.615103	-0.995788	0.349453
O19	O	0.228929	-1.497947	0.114314
O20	O	0.728929	-0.997947	0.614314
C21	C	0.119569	-1.266661	0.000027
C22	C	0.619569	-0.766661	0.500027
C23	C	0.117270	-1.127004	0.000023
C24	C	0.617270	-0.627004	0.500023
C25	C	-0.027875	-1.489677	0.000045
C26	C	0.472125	-0.989677	0.500045
C27	C	-0.114734	-1.477920	0.000044
C28	C	0.385266	-0.977920	0.500044
C29	C	0.110635	-1.724907	0.000039
C30	C	0.610635	-1.224907	0.500039
C31	C	0.112934	-1.864564	0.000034
C32	C	0.612934	-1.364564	0.500034
C33	C	-0.164246	-1.585864	0.000049
C34	C	0.335754	-1.085864	0.500049
C35	C	-0.245858	-1.574809	0.000036
C36	C	0.254142	-1.074809	0.500036
C37	C	-0.277957	-1.455809	0.000027
C38	C	0.222043	-0.955809	0.500027
C39	C	-0.228439	-1.347857	0.000018
C40	C	0.271561	-0.847857	0.500018
C41	C	-0.146828	-1.358913	0.000022
C42	C	0.353172	-0.858913	0.500022
C43	C	-0.523933	-1.416751	0.000007
C44	C	-0.023933	-0.916751	0.500007
C45	C	-0.605550	-1.405704	0.000008
C46	C	-0.105550	-0.905704	0.500008
C47	C	-0.622963	-1.632657	0.000023
C48	C	-0.122963	-1.132657	0.500023
C49	C	-0.541350	-1.643703	0.000035
C50	C	-0.041350	-1.143703	0.500035
C51	C	-0.491839	-1.535750	0.000018
C52	C	0.008161	-1.035750	0.500018
C53	C	-0.361377	-1.444507	0.000018
C54	C	0.138623	-0.944507	0.500018
C55	C	-0.408420	-1.547054	0.000018
C56	C	0.091580	-1.047054	0.500018
C57	C	0.258080	-1.501891	0.000021
C58	C	0.758080	-1.001891	0.500021
C59	C	0.344939	-1.513648	0.000013
C60	C	0.844939	-1.013648	0.500013
N61	N	0.115100	-1.495784	0.356153
N62	N	0.615100	-0.995784	0.856153
C63	C	0.259642	-1.112253	-0.000008
C64	C	0.759642	-0.612253	0.499992
C65	C	0.329744	-1.039268	-0.000029
C66	C	0.829744	-0.539268	0.499971
C67	C	0.327580	-0.908049	-0.000030
C68	C	0.827580	-0.408049	0.499970
C69	C	0.255304	-0.849813	-0.000006
C70	C	0.755304	-0.349813	0.499994
C71	C	0.185202	-0.922798	0.000015
C72	C	0.685202	-0.422798	0.500015
C73	C	0.187374	-1.054019	0.000012
C74	C	0.687374	-0.554019	0.500012
C75	C	0.042832	-0.937548	0.000055
C76	C	0.542832	-0.437548	0.500055
C77	C	0.044995	-1.068768	0.000047
C78	C	0.544995	-0.568768	0.500047
C79	C	-0.029443	-0.879312	0.000079
C80	C	0.470557	-0.379312	0.500079
C81	C	-0.099548	-0.952297	0.000090
C82	C	0.400452	-0.452297	0.500090
C83	C	-0.097380	-1.083524	0.000090
C84	C	0.402620	-0.583524	0.500090
C85	C	-0.025108	-1.141753	0.000067
C86	C	0.474892	-0.641753	0.500067
N87	N	0.115098	-1.495793	-0.356084
N88	N	0.615098	-0.995793	0.143916
C89	C	0.009701	-1.655323	0.356159
C90	C	0.509701	-1.155323	0.856159
C91	C	-0.042996	-1.735102	0.428101
C92	C	0.457004	-1.235102	0.928101
C93	C	-0.042997	-1.735115	0.571981
C94	C	0.457003	-1.235115	1.071981
C95	C	0.009704	-1.655338	0.643922
C96	C	0.509704	-1.155338	1.143922
C97	C	0.062402	-1.575559	0.571979
C98	C	0.562402	-1.075559	1.071979
C99	C	0.062398	-1.575558	0.428096
C100	C	0.562398	-1.075558	0.928096
C101	C	0.167796	-1.416015	0.571973
C102	C	0.667796	-0.916015	1.071973
C103	C	0.167801	-1.416007	0.428094
C104	C	0.667801	-0.916007	0.928094
C105	C	0.220496	-1.336238	0.643914
C106	C	0.720496	-0.836238	1.143914
C107	C	0.273199	-1.256464	0.571971
C108	C	0.773199	-0.756464	1.071971
C109	C	0.273198	-1.256455	0.428083
C110	C	0.773198	-0.756455	0.928083
C111	C	0.220498	-1.336228	0.356151
C112	C	0.720498	-0.836228	0.856151
H113	H	-0.138118	-1.682766	0.000065
H114	H	0.361882	-1.182766	0.500065
Br115	Br	-0.404947	-1.283011	-0.000007
Br116	Br	0.095053	-0.783011	0.499993
H117	H	0.253548	-0.742967	0.000010
H118	H	0.753548	-0.242967	0.500010
H119	H	-0.158388	-0.904870	0.000108
H120	H	0.341612	-0.404870	0.500108
H121	H	-0.663284	-1.720546	0.000034
H122	H	-0.163284	-1.220546	0.500034
H123	H	-0.106516	-1.271013	0.000017
H124	H	0.393484	-0.771013	0.500017
Br125	Br	-0.649112	-1.244193	0.000010
Br126	Br	-0.149112	-0.744193	0.500010
Br127	Br	0.422719	-0.808993	-0.000039
Br128	Br	0.922719	-0.308993	0.499961
H129	H	-0.286168	-1.662709	0.000043
H130	H	0.213832	-1.162709	0.500043
H131	H	0.316101	-1.191509	0.630554
H132	H	0.816101	-0.691509	1.130554
H133	H	-0.382282	-1.643943	-0.000005
H134	H	0.117718	-1.143943	0.499995
H135	H	0.009703	-1.655332	0.239004
H136	H	0.509703	-1.155332	0.739004
Br137	Br	-0.272000	-1.186355	-0.000016
Br138	Br	0.228000	-0.686355	0.499984
H139	H	0.261412	-1.219098	-0.000037
H140	H	0.761412	-0.719098	0.499963
H141	H	-0.515222	-1.740605	0.000042
H142	H	-0.015222	-1.240605	0.500042
H143	H	0.009694	-1.655342	0.761076
H144	H	0.509694	-1.155342	1.261076
Br145	Br	-0.114521	-1.843359	0.330468
Br146	Br	0.385479	-1.343359	0.830468
H147	H	-0.483630	-1.328848	-0.000006
H148	H	0.016370	-0.828848	0.499994
Br149	Br	0.427828	-1.118307	-0.000057
Br150	Br	0.927828	-0.618307	0.499943
Br151	Br	-0.032383	-0.701228	0.000089
Br152	Br	0.467617	-0.201228	0.500089
H153	H	-0.154466	-1.142941	0.000112
H154	H	0.345534	-0.642941	0.500112
H155	H	-0.023336	-1.248597	0.000051
H156	H	0.476664	-0.748597	0.500051
Br157	Br	-0.114521	-1.843375	0.669622
Br158	Br	0.385479	-1.343375	1.169622
H159	H	0.316107	-1.191485	0.369514
H160	H	0.816107	-0.691485	0.869514
H161	H	0.220491	-1.336246	0.761068
H162	H	0.720491	-0.836246	1.261068
Br163	Br	0.220497	-1.336232	0.160884
Br164	Br	0.720497	-0.836232	0.660884
