data_functionalizedCrystal
_audit_creation_method	'MofGen! by Chris Wilmer'
_symmetry_space_group_name_H-M	'P1'
_symmetry_Int_Tables_number	1
_symmetry_cell_setting	triclinic
loop_
_symmetry_equiv_pos_as_xyz
  x,y,z
_cell_length_a	14.519710
_cell_length_b	15.538191
_cell_length_c	14.750779
_cell_angle_alpha	97.569385
_cell_angle_beta	102.666570
_cell_angle_gamma	114.523881
loop_
_atom_site_label
_atom_site_type_symbol
_atom_site_fract_x
_atom_site_fract_y
_atom_site_fract_z
O1	O	1.155521	-0.143799	-0.079795
O2	O	0.882154	-0.158334	-0.079801
O3	O	1.072049	-0.014027	-0.079801
O4	O	0.965626	-0.288105	-0.079794
O5	O	1.125729	0.026762	0.079849
O6	O	0.935833	-0.117545	0.079850
O7	O	1.209201	-0.103009	0.079855
Zn8	Zn	1.081040	-0.103801	0.105200
Zn9	Zn	1.010315	-0.157542	-0.105146
O10	O	1.019305	-0.247316	0.079856
C11	C	0.874861	-0.137262	0.000024
C12	C	0.773162	-0.135233	0.000021
C13	C	1.110023	0.041443	0.000021
C14	C	1.143187	0.145959	0.000012
C15	C	1.216492	-0.124082	0.000029
C16	C	1.318190	-0.126112	0.000025
C17	C	1.690572	-0.133585	0.000025
C18	C	1.586962	-0.131510	0.000024
C19	C	1.504384	-0.129849	0.000024
C20	C	1.400768	-0.127773	0.000025
C21	C	0.981331	-0.302787	0.000032
C22	C	0.948164	-0.407304	0.000034
N23	N	1.129315	-0.067123	0.248756
C24	C	0.813683	0.434308	0.000026
C25	C	0.844873	0.532522	0.000029
C26	C	1.020305	0.554670	0.000032
C27	C	0.989128	0.456455	0.000024
C28	C	0.885817	0.396281	0.000022
C29	C	1.061261	0.418428	0.000021
C30	C	1.030088	0.320223	0.000018
C31	C	0.926782	0.260044	0.000019
C32	C	0.854644	0.298076	0.000020
C33	C	1.164575	0.478605	0.000030
C34	C	1.236708	0.440579	0.000026
C35	C	1.205533	0.342370	0.000017
C36	C	1.102227	0.282191	0.000018
C37	C	1.277672	0.304338	0.000016
C38	C	1.246499	0.206132	0.000014
C39	C	1.071054	0.183985	0.000015
N40	N	0.962049	-0.194213	-0.248701
C41	C	0.827238	-0.296607	0.600575
C42	C	0.861071	-0.270912	0.701074
C43	C	1.029233	-0.143175	0.701036
C44	C	0.995412	-0.168857	0.600535
C45	C	0.894414	-0.245574	0.550312
C46	C	1.062589	-0.117824	0.550272
C47	C	1.028773	-0.143507	0.449780
C48	C	0.927780	-0.220223	0.399551
C49	C	0.860598	-0.271257	0.449820
C50	C	1.163589	-0.041112	0.600497
C51	C	1.230766	0.009921	0.550234
C52	C	1.196947	-0.015757	0.449740
C53	C	1.095954	-0.092473	0.399511
C54	C	1.264129	0.035277	0.399471
C55	C	1.230313	0.009594	0.298978
C56	C	1.062138	-0.118156	0.299018
H57	H	0.901405	0.180081	0.000023
H58	H	1.361791	0.353348	0.000027
N59	N	1.200065	-0.013415	0.708885
H60	H	1.150199	0.006621	0.733108
H61	H	1.274255	0.042897	0.732997
N62	N	1.339698	0.092659	0.604405
H63	H	1.350930	0.101185	0.675694
H64	H	1.345499	0.154983	0.586839
H65	H	0.770515	0.249077	0.000011
H66	H	0.986925	0.134986	0.000007
N67	N	0.702264	0.369389	0.000043
H68	H	0.665521	0.313024	-0.059134
H69	H	0.661367	0.408441	0.000084
H70	H	0.744991	-0.359071	0.559682
H71	H	1.305237	0.175171	0.000012
H72	H	0.900250	-0.241136	0.317723
H73	H	0.979891	-0.180620	0.258125
N74	N	0.751663	-0.354000	0.395639
H75	H	0.708888	-0.328576	0.353952
H76	H	0.714319	-0.382401	0.442786
H77	H	0.786131	0.563481	0.000045
H78	H	1.346366	0.097735	0.440375
H79	H	1.320826	0.489586	0.000031
H80	H	0.806359	-0.312477	0.741993
H81	H	1.285016	0.051150	0.258054
N82	N	1.131733	0.619575	0.000043
H83	H	1.140538	0.687560	0.000048
H84	H	1.144691	0.592130	-0.059143
N85	N	1.198194	0.584527	0.000032
H86	H	1.220253	0.597414	-0.059146
H87	H	1.260009	0.627579	0.059258
H88	H	1.111468	-0.080714	0.741939
