data_functionalizedCrystal
_audit_creation_method	'MofGen! by Chris Wilmer'
_symmetry_space_group_name_H-M	'P1'
_symmetry_Int_Tables_number	1
_symmetry_cell_setting	triclinic
loop_
_symmetry_equiv_pos_as_xyz
  x,y,z
_cell_length_a	10.967971
_cell_length_b	17.000383
_cell_length_c	9.482900
_cell_angle_alpha	81.454780
_cell_angle_beta	111.340423
_cell_angle_gamma	80.259119
loop_
_atom_site_label
_atom_site_type_symbol
_atom_site_fract_x
_atom_site_fract_y
_atom_site_fract_z
O1	O	0.025136	1.068007	-0.114698
O2	O	0.072444	0.835314	-0.102826
O3	O	-0.141683	0.961853	-0.156476
O4	O	0.239263	0.941467	-0.061048
O5	O	-0.098026	0.936147	0.096255
O6	O	0.116101	0.809608	0.149905
O7	O	0.068793	1.042300	0.138033
Cu8	Cu	0.096433	0.923607	0.167045
Cu9	Cu	0.044804	0.954007	-0.131838
O10	O	0.282920	0.915761	0.191683
C11	C	0.096814	0.792755	0.024179
C12	C	0.104369	0.704243	0.026079
C13	C	0.153140	0.203044	0.038242
C14	C	0.146032	0.286210	0.036463
C15	C	0.022650	0.339704	0.005566
C16	C	-0.093634	0.310028	-0.023568
C17	C	-0.086526	0.226864	-0.021799
C18	C	-0.004807	0.591403	-0.001286
C19	C	-0.011905	0.674572	-0.003048
C20	C	0.227761	0.650749	0.056980
C21	C	0.234859	0.567583	0.058755
C22	C	0.118574	0.537915	0.029613
C23	C	0.015382	0.424713	0.003751
C24	C	0.125842	0.452908	0.031417
C25	C	-0.168357	0.949459	-0.042264
C26	C	-0.312878	0.950818	-0.078476
C27	C	-0.354701	0.938107	0.036301
C28	C	-0.504070	0.939510	-0.001123
C29	C	0.309594	0.928155	0.077468
C30	C	0.454113	0.926798	0.113669
N31	N	0.132745	0.902230	0.377264
C32	C	0.044423	1.084859	0.011025
C33	C	0.036866	1.173372	0.009115
N34	N	0.008481	0.975390	-0.342059
C35	C	0.055508	0.947697	0.430111
C36	C	0.085730	0.929917	0.605100
H37	H	0.322433	0.674914	0.080704
O38	O	-0.456886	0.912600	0.264047
C39	C	-0.524771	0.901034	0.363498
H40	H	-0.636844	0.931385	0.296910
H41	H	-0.481508	0.929749	0.466461
H42	H	-0.510853	0.832618	0.407541
O43	O	-0.131888	0.726434	-0.033176
C44	C	-0.232996	0.682414	-0.058489
H45	H	-0.201068	0.624508	-0.096271
H46	H	-0.331526	0.722244	-0.153377
H47	H	-0.248154	0.664894	0.053710
H48	H	-0.279926	0.926190	0.162270
O49	O	-0.593274	0.953585	-0.151378
C50	C	-0.650597	0.885806	-0.173477
H51	H	-0.580256	0.829006	-0.081113
H52	H	-0.665719	0.874934	-0.293834
H53	H	-0.752168	0.898671	-0.163358
O54	O	-0.104543	0.476674	-0.026530
C55	C	-0.198341	0.476908	-0.175230
H56	H	-0.142090	0.456382	-0.248674
H57	H	-0.264949	0.541477	-0.233943
H58	H	-0.263832	0.433057	-0.163319
O59	O	-0.199483	0.198026	-0.050350
C60	C	-0.225138	0.163939	-0.181995
H61	H	-0.175086	0.191557	-0.256981
H62	H	-0.338631	0.177999	-0.252457
H63	H	-0.182443	0.094699	-0.143000
O64	O	-0.402085	0.964891	-0.228722
C65	C	-0.459408	0.897113	-0.250821
H66	H	-0.389067	0.840313	-0.158457
H67	H	-0.474530	0.886240	-0.371178
H68	H	-0.560979	0.909978	-0.240701
O69	O	-0.117630	0.562469	-0.029361
C70	C	-0.098090	0.501765	0.100768
H71	H	0.014556	0.474523	0.170730
H72	H	-0.148895	0.451322	0.059863
H73	H	-0.144127	0.530361	0.176934
O74	O	-0.213565	0.361986	-0.053863
C75	C	-0.307353	0.362218	-0.202568
H76	H	-0.251092	0.341699	-0.276007
H77	H	-0.373970	0.426784	-0.261280
H78	H	-0.372835	0.318359	-0.190665
O79	O	-0.050102	1.009767	0.329350
C80	C	-0.141280	0.977852	0.218466
H81	H	-0.086129	0.916812	0.209688
H82	H	-0.184978	1.022863	0.100393
H83	H	-0.226461	0.968076	0.255649
O84	O	-0.097378	1.037360	0.557307
C85	C	-0.188460	1.005255	0.446706
H86	H	-0.133090	0.944318	0.437805
H87	H	-0.232605	1.050261	0.328593
H88	H	-0.273335	0.995228	0.484283
O89	O	0.191171	0.867724	0.705783
C90	C	0.143017	0.810470	0.781760
H91	H	0.041387	0.841757	0.778937
H92	H	0.218117	0.785518	0.907678
H93	H	0.130610	0.757838	0.720105
O94	O	0.245579	0.400891	0.061208
C95	C	0.234253	0.365411	-0.066883
H96	H	0.123734	0.367743	-0.136323
H97	H	0.295040	0.298891	-0.023499
H98	H	0.274825	0.400909	-0.144402
O99	O	0.238198	0.839986	0.477730
C100	C	0.219699	0.765297	0.436014
H101	H	0.107907	0.771277	0.366067
H102	H	0.257398	0.714381	0.545644
H103	H	0.278834	0.749837	0.362601
O104	O	0.272979	0.151143	0.067993
C105	C	0.321534	0.177557	-0.045057
H106	H	0.233655	0.216698	-0.154588
H107	H	0.372971	0.121937	-0.074220
H108	H	0.397238	0.215395	0.002219
H109	H	0.335329	0.524034	0.083910
O110	O	0.258909	0.315122	0.064905
C111	C	0.284613	0.349191	0.196575
H112	H	0.187059	0.367537	0.213918
H113	H	0.325211	0.405638	0.178547
H114	H	0.362353	0.301949	0.303727
