data_functionalizedCrystal
_audit_creation_method	'MofGen! by Chris Wilmer'
_symmetry_space_group_name_H-M	'P1'
_symmetry_Int_Tables_number	1
_symmetry_cell_setting	triclinic
loop_
_symmetry_equiv_pos_as_xyz
  x,y,z
_cell_length_a	11.792241
_cell_length_b	10.654550
_cell_length_c	10.268362
_cell_angle_alpha	89.999831
_cell_angle_beta	90.000220
_cell_angle_gamma	84.339159
loop_
_atom_site_label
_atom_site_type_symbol
_atom_site_fract_x
_atom_site_fract_y
_atom_site_fract_z
O1	O	-1.507307	-0.172129	0.108151
O2	O	-1.007307	0.327871	0.608151
O3	O	-1.177007	-0.189869	0.108185
O4	O	-0.677007	0.310131	0.608185
O5	O	-1.349751	0.001761	0.108162
O6	O	-0.849751	0.501761	0.608162
O7	O	-1.334563	-0.363760	0.108173
O8	O	-0.834563	0.136240	0.608173
O9	O	-1.349735	0.001755	-0.108438
O10	O	-0.849735	0.501755	0.391562
O11	O	-1.176990	-0.189876	-0.108416
O12	O	-0.676990	0.310124	0.391584
O13	O	-1.507291	-0.172136	-0.108450
O14	O	-1.007291	0.327864	0.391550
Cu15	Cu	-1.342139	-0.181006	-0.128210
Cu16	Cu	-0.842139	0.318994	0.371790
Cu17	Cu	-1.342159	-0.180999	0.127945
Cu18	Cu	-0.842159	0.319001	0.627945
O19	O	-1.334546	-0.363767	-0.108427
O20	O	-0.834546	0.136233	0.391573
C21	C	-1.134705	-0.188758	-0.000111
C22	C	-0.634705	0.311242	0.499889
C23	C	-1.008684	-0.185423	-0.000098
C24	C	-0.508684	0.314577	0.499902
N25	N	-1.342133	-0.181011	-0.308376
N26	N	-0.842133	0.318989	0.191624
C27	C	-1.348628	0.048553	-0.000136
C28	C	-0.848628	0.548553	0.499864
C29	C	-1.345291	0.187987	-0.000132
C30	C	-0.845291	0.687987	0.499868
C31	C	-0.777957	-0.179290	-0.000133
C32	C	-0.277957	0.320710	0.499867
C33	C	-0.906351	-0.182697	-0.000114
C34	C	-0.406351	0.317303	0.499886
C35	C	-0.549592	-0.173247	-0.000148
C36	C	-0.049592	0.326753	0.499852
C37	C	-0.675614	-0.176582	-0.000143
C38	C	-0.175614	0.323418	0.499857
C39	C	-1.335670	-0.410558	-0.000126
C40	C	-0.835670	0.089442	0.499874
C41	C	-1.339006	-0.549992	-0.000122
C42	C	-0.839006	-0.049992	0.499878
C43	C	-1.447000	0.267760	-0.000146
C44	C	-0.947000	0.767760	0.499854
C45	C	-1.443858	0.398772	-0.000137
C46	C	-0.943858	0.898772	0.499863
C47	C	-1.237290	0.370224	-0.000104
C48	C	-0.737290	0.870224	0.499896
C49	C	-1.240433	0.239215	-0.000104
C50	C	-0.740433	0.739215	0.499896
C51	C	-1.551859	0.216532	-0.000174
C52	C	-1.051859	0.716532	0.499826
C53	C	-1.653577	0.296307	-0.000190
C54	C	-1.153577	0.796307	0.499810
C55	C	-1.650435	0.427319	-0.000180
C56	C	-1.150435	0.927319	0.499820
C57	C	-1.545575	0.478556	-0.000155
C58	C	-1.045575	0.978556	0.499845
C59	C	-1.342142	-0.181012	-0.426218
C60	C	-0.842142	0.318988	0.073782
C61	C	-1.342156	-0.181000	-0.574056
C62	C	-0.842156	0.319000	-0.074056
N63	N	-1.342173	-0.180984	0.308111
N64	N	-0.842173	0.319016	0.808111
H65	H	-1.738949	0.254580	-0.000178
H66	H	-1.238949	0.754580	0.499822
O67	O	-1.555243	0.075227	-0.000189
O68	O	-1.055243	0.575227	0.499811
H69	H	-1.600662	0.046832	0.088085
H70	H	-1.100662	0.546832	0.588085
O71	O	-1.124197	0.425482	-0.000087
O72	O	-0.624197	0.925482	0.499913
H73	H	-1.075266	0.393480	-0.088359
H74	H	-0.575266	0.893480	0.411641
O75	O	-1.130736	0.153159	-0.000101
O76	O	-0.630736	0.653159	0.499899
H77	H	-1.057293	0.210789	-0.000105
H78	H	-0.557293	0.710789	0.499895
O79	O	-1.760135	0.513367	-0.000203
O80	O	-1.260135	1.013367	0.499797
H81	H	-1.833572	0.455730	-0.000235
H82	H	-1.333572	0.955730	0.499765
H83	H	-1.543025	0.585236	-0.000133
H84	H	-1.043025	1.085236	0.499867
