data_functionalizedCrystal
_audit_creation_method	'MofGen! by Chris Wilmer'
_symmetry_space_group_name_H-M	'P1'
_symmetry_Int_Tables_number	1
_symmetry_cell_setting	triclinic
loop_
_symmetry_equiv_pos_as_xyz
  x,y,z
_cell_length_a	19.188905
_cell_length_b	23.532407
_cell_length_c	18.266242
_cell_angle_alpha	90.009798
_cell_angle_beta	90.016065
_cell_angle_gamma	82.991616
loop_
_atom_site_label
_atom_site_type_symbol
_atom_site_fract_x
_atom_site_fract_y
_atom_site_fract_z
O1	O	0.925934	0.071033	0.061009
O2	O	0.722589	0.080619	0.060985
O3	O	0.830393	-0.007093	0.060984
O4	O	0.818130	0.158745	0.061010
O5	O	0.830375	-0.007095	-0.060778
O6	O	0.722571	0.080617	-0.060777
O7	O	0.925915	0.071031	-0.060753
Zn8	Zn	0.824240	0.075823	-0.080097
Zn9	Zn	0.824264	0.075827	0.080329
O10	O	0.818111	0.158743	-0.060752
C11	C	0.696570	0.080310	0.000101
C12	C	0.619067	0.079385	0.000091
C13	C	0.582687	0.078942	0.066465
C14	C	0.509866	0.078067	0.066474
C15	C	0.473430	0.077623	0.000105
C16	C	0.509819	0.078070	-0.066278
C17	C	0.582638	0.078951	-0.066285
N18	N	0.364511	0.043830	-0.049292
N19	N	0.295336	0.042992	-0.049281
C20	C	0.254032	0.074970	0.000122
N21	N	0.284517	0.107811	0.049525
N22	N	0.353698	0.108647	0.049516
C23	C	0.394471	0.076668	0.000105
C24	C	0.138691	0.073579	0.066511
C25	C	0.065868	0.072707	0.066517
C26	C	0.065824	0.072704	-0.066237
C27	C	0.138644	0.073582	-0.066241
C28	C	0.175074	0.074016	0.000135
C29	C	0.830072	-0.028311	0.000101
C30	C	0.829133	-0.091530	0.000096
C31	C	0.887040	-0.490514	0.000143
C32	C	0.886168	-0.549916	0.000148
O33	O	0.939848	-0.586551	0.000181
N34	N	0.822078	-0.572674	0.000140
C35	C	0.758857	-0.536026	0.000134
O36	O	0.704264	-0.560837	0.000128
C37	C	0.759730	-0.476625	0.000134
C38	C	0.823824	-0.453871	0.000134
C39	C	0.951129	-0.467759	0.000144
C40	C	0.952000	-0.408362	0.000137
C41	C	0.888784	-0.371718	0.000129
C42	C	0.824696	-0.394473	0.000127
C43	C	0.696509	-0.439978	0.000133
C44	C	0.697388	-0.380574	0.000133
C45	C	0.761482	-0.357820	0.000134
C46	C	0.762351	-0.298432	0.000112
N47	N	0.826440	-0.275674	0.000120
C48	C	0.889657	-0.312317	0.000129
C49	C	0.757029	-0.660772	0.000136
C50	C	0.756155	-0.720172	0.000131
C51	C	0.883466	-0.734058	0.000146
C52	C	0.884339	-0.674657	0.000146
C53	C	0.821118	-0.638014	0.000144
C54	C	0.891483	-0.187577	0.000114
C55	C	0.892350	-0.128173	0.000104
C56	C	0.765039	-0.114292	0.000092
C57	C	0.764172	-0.173691	0.000098
C58	C	0.827400	-0.210332	0.000111
O59	O	0.708699	-0.261762	0.000082
O60	O	0.944241	-0.287498	0.000144
C61	C	0.951935	0.071340	0.000133
C62	C	1.029437	0.072265	0.000147
C63	C	0.818433	0.179961	0.000132
C64	C	0.819372	0.243180	0.000143
N65	N	0.824229	0.075821	-0.189584
C66	C	0.866329	0.110277	-0.227876
C67	C	0.866340	0.110275	-0.304521
C68	C	0.824239	0.075824	-0.342871
C69	C	0.782137	0.041361	-0.304570
C70	C	0.782132	0.041360	-0.227927
N71	N	0.763095	0.074426	-0.463232
N72	N	0.763102	0.074431	-0.536040
C73	C	0.824253	0.075826	-0.573794
N74	N	0.885398	0.077228	-0.535989
N75	N	0.885391	0.077226	-0.463174
C76	C	0.824240	0.075822	-0.425978
C77	C	0.866369	0.110282	-0.695193
C78	C	0.866382	0.110276	-0.771839
C79	C	0.782172	0.041366	-0.771886
C80	C	0.782166	0.041369	-0.695242
C81	C	0.824263	0.075830	-0.656899
N82	N	0.824281	0.075825	0.189816
H83	H	0.480148	0.077710	-0.120316
H84	H	0.480239	0.077707	0.120526
H85	H	1.004192	-0.389841	0.000141
O86	O	0.030542	0.072300	-0.130774
C87	C	0.078276	0.072861	-0.189362
H88	H	0.127171	0.091514	-0.169905
H89	H	0.093663	0.027275	-0.209778
C90	C	-0.016474	0.086948	-0.275960
C91	C	0.043578	0.109862	-0.252065
H92	H	-0.037877	0.109769	-0.314640
H93	H	-0.048633	0.086567	-0.236490
H94	H	-0.003642	0.048960	-0.292969
H95	H	0.030745	0.147846	-0.235048
H96	H	0.075735	0.110249	-0.291534
H97	H	0.747848	0.013301	-0.196750
H98	H	0.168353	0.073939	0.120558
O99	O	0.030638	0.072253	0.131063
C100	C	0.078409	0.072839	0.189641
H101	H	0.133328	0.055440	0.170173
H102	H	0.078511	0.118610	0.210063
C103	C	-0.011188	0.056521	0.276254
C104	C	0.056264	0.035147	0.252344
H105	H	-0.024848	0.033274	0.314934
H106	H	-0.043373	0.056129	0.236789
H107	H	-0.011094	0.094664	0.293267
H108	H	0.056168	-0.002992	0.235323
H109	H	0.088449	0.035532	0.291808
O110	O	0.618134	0.079449	0.130895
C111	C	0.651978	0.129280	0.134882
H112	H	0.660116	0.145851	0.077255
H113	H	0.618137	0.163471	0.167641
C114	C	0.713673	0.094787	0.243605
C115	C	0.723674	0.115138	0.172826
H116	H	0.757897	0.086066	0.267014
H117	H	0.690870	0.061216	0.240921
H118	H	0.685470	0.123283	0.270896
H119	H	0.751869	0.086640	0.145535
H120	H	0.746483	0.148704	0.175506
O121	O	0.907186	0.143829	-0.190716
C122	C	0.887423	0.201678	-0.209425
H123	H	0.860325	0.204178	-0.265080
H124	H	0.849822	0.222733	-0.166295
C125	C	0.986512	0.229981	-0.144588
C126	C	0.953236	0.233051	-0.212947
H127	H	1.027108	0.249334	-0.146757
H128	H	0.999826	0.191007	-0.131980
H129	H	0.955171	0.247525	-0.108653
H130	H	0.984575	0.215500	-0.248878
H131	H	0.939929	0.272023	-0.225560
H132	H	0.612258	0.079312	-0.120337
O133	O	0.174078	0.073928	-0.130672
C134	C	0.224445	0.025116	-0.134661
H135	H	0.238128	0.008811	-0.077035
H136	H	0.202152	-0.009755	-0.167416
C137	C	0.274286	0.060954	-0.243394
C138	C	0.291097	0.040931	-0.172616
H139	H	0.315400	0.070708	-0.266809
H140	H	0.240352	0.093839	-0.240708
H141	H	0.255708	0.031891	-0.270680
H142	H	0.309666	0.069996	-0.145328
H143	H	0.325036	0.008051	-0.175297
O144	O	0.954675	-0.106166	0.000140
C145	C	1.010282	-0.151250	0.000133
H146	H	0.990998	-0.191552	0.023187
H147	H	1.029753	-0.159715	-0.058279
C148	C	1.094454	-0.085125	0.019575
C149	C	1.070771	-0.134622	0.047896
H150	H	1.131768	-0.074867	0.049034
H151	H	1.056991	-0.054750	0.019576
H152	H	1.110675	-0.092185	-0.029102
H153	H	1.054542	-0.127560	0.096567
H154	H	1.108233	-0.164996	0.047903
H155	H	0.942970	-0.217404	0.000127
O156	O	0.907330	0.143767	-0.658055
C157	C	0.944484	0.174186	-0.708292
H158	H	0.948730	0.150600	-0.762930
H159	H	0.915410	0.218950	-0.716446
C160	C	1.013394	0.207774	-0.611241
C161	C	1.018614	0.178803	-0.678346
H162	H	1.059119	0.210625	-0.592768
H163	H	0.988361	0.187282	-0.577395
H164	H	0.989163	0.245075	-0.618045
H165	H	1.042837	0.141501	-0.671539
H166	H	1.043653	0.199289	-0.712191
O167	O	0.635992	-0.344956	0.000259
C168	C	0.632705	-0.310160	0.063307
H169	H	0.668574	-0.331992	0.107388
H170	H	0.650461	-0.267008	0.049046
C171	C	0.512619	-0.274134	0.037757
C172	C	0.556670	-0.300951	0.091899
H173	H	0.465718	-0.268451	0.055393
H174	H	0.514834	-0.297575	-0.004722
H175	H	0.527425	-0.238177	0.025878
H176	H	0.541870	-0.336911	0.103771
H177	H	0.554451	-0.277516	0.134381
H178	H	1.002610	-0.497589	0.000154
H179	H	0.936530	-0.656135	0.000147
H180	H	0.934940	-0.763904	0.000156
O181	O	0.703697	-0.078610	0.000118
C182	C	0.718219	-0.021304	0.000097
H183	H	0.773051	-0.019163	0.023149
H184	H	0.715437	-0.004126	-0.058319
C185	C	0.596425	0.012566	0.019534
C186	C	0.663768	0.015197	0.047853
H187	H	0.562835	0.035083	0.048989
H188	H	0.586640	-0.026042	0.019545
H189	H	0.594117	0.026881	-0.029145
H190	H	0.666077	0.000876	0.096528
H191	H	0.673551	0.053803	0.047851
O192	O	0.907265	0.143694	-0.809152
C193	C	0.898235	0.136314	-0.885022
H194	H	0.878637	0.093218	-0.895506
H195	H	0.858210	0.172116	-0.906782
C196	C	0.992982	0.191039	-0.911463
C197	C	0.968917	0.138105	-0.924341
H198	H	1.036580	0.192146	-0.935718
H199	H	0.999064	0.196012	-0.860348
H200	H	0.959621	0.220867	-0.929597
H201	H	1.002273	0.108278	-0.906199
H202	H	0.962842	0.133126	-0.975454
O203	O	0.693833	-0.742177	0.000154
C204	C	0.638229	-0.697090	0.000125
H205	H	0.657522	-0.656781	0.023175
H206	H	0.618742	-0.688646	-0.058293
C207	C	0.554057	-0.763204	0.019562
C208	C	0.577751	-0.713697	0.047878
H209	H	0.516749	-0.773449	0.049015
H210	H	0.591518	-0.793581	0.019579
H211	H	0.537822	-0.756161	-0.029119
H212	H	0.593993	-0.720743	0.096555
H213	H	0.540291	-0.683322	0.047870
O214	O	0.741198	0.007888	-0.658154
C215	C	0.704053	-0.022531	-0.708435
H216	H	0.699818	0.001054	-0.763065
H217	H	0.733129	-0.067296	-0.716586
C218	C	0.635125	-0.056119	-0.611454
C219	C	0.629918	-0.027148	-0.678550
H220	H	0.589396	-0.058969	-0.593019
H221	H	0.660152	-0.035627	-0.577578
H222	H	0.659357	-0.093419	-0.618256
H223	H	0.605694	0.010154	-0.671746
H224	H	0.604885	-0.047634	-0.712424
H225	H	0.705543	-0.630940	0.000127
H226	H	0.644318	-0.458493	0.000137
H227	H	0.711982	-0.192218	0.000077
H228	H	0.900623	0.138335	-0.335704
H229	H	0.747859	0.013311	-0.335800
H230	H	0.747893	0.013315	-0.803110
