data_functionalizedCrystal
_audit_creation_method	'MofGen! by Chris Wilmer'
_symmetry_space_group_name_H-M	'P1'
_symmetry_Int_Tables_number	1
_symmetry_cell_setting	triclinic
loop_
_symmetry_equiv_pos_as_xyz
  x,y,z
_cell_length_a	8.597340
_cell_length_b	13.596369
_cell_length_c	8.559649
_cell_angle_alpha	89.998986
_cell_angle_beta	77.625043
_cell_angle_gamma	82.303879
loop_
_atom_site_label
_atom_site_type_symbol
_atom_site_fract_x
_atom_site_fract_y
_atom_site_fract_z
O1	O	2.053703	-0.092256	0.238048
O2	O	2.303703	0.157744	0.488048
O3	O	2.553703	0.407744	0.738048
O4	O	2.803703	0.657744	0.988048
O5	O	1.594580	-0.053346	0.256305
O6	O	1.844580	0.196654	0.506305
O7	O	2.094580	0.446654	0.756305
O8	O	2.344580	0.696654	1.006305
O9	O	1.864591	-0.076230	0.015207
O10	O	2.114591	0.173770	0.265207
O11	O	2.364591	0.423770	0.515207
O12	O	2.614591	0.673770	0.765207
O13	O	1.783692	-0.069372	0.479146
O14	O	2.033692	0.180628	0.729146
O15	O	2.283692	0.430628	0.979146
O16	O	2.533692	0.680628	1.229146
O17	O	1.864559	-0.239810	0.015220
O18	O	2.114559	0.010190	0.265220
O19	O	2.364559	0.260190	0.515220
O20	O	2.614559	0.510190	0.765220
O21	O	1.594548	-0.216926	0.256319
O22	O	1.844548	0.033074	0.506319
O23	O	2.094548	0.283074	0.756319
O24	O	2.344548	0.533074	1.006319
O25	O	2.053672	-0.255836	0.238061
O26	O	2.303672	-0.005836	0.488061
O27	O	2.553672	0.244164	0.738061
O28	O	2.803672	0.494164	0.988061
Zn29	Zn	1.824105	-0.262353	0.247192
Zn30	Zn	2.074105	-0.012353	0.497192
Zn31	Zn	2.324105	0.237647	0.747192
Zn32	Zn	2.574105	0.487647	0.997192
Zn33	Zn	1.824146	-0.046829	0.247175
Zn34	Zn	2.074146	0.203171	0.497175
Zn35	Zn	2.324146	0.453171	0.747175
Zn36	Zn	2.574146	0.703171	0.997175
O37	O	1.783661	-0.232952	0.479160
O38	O	2.033661	0.017048	0.729160
O39	O	2.283661	0.267048	0.979160
O40	O	2.533661	0.517048	1.229160
C41	C	1.536330	-0.130201	0.254350
C42	C	1.786330	0.119799	0.504350
C43	C	2.036330	0.369799	0.754350
C44	C	2.286330	0.619799	1.004350
C45	C	1.362814	-0.115495	0.248486
C46	C	1.612814	0.134505	0.498486
C47	C	1.862814	0.384505	0.748486
C48	C	2.112814	0.634505	0.998486
N49	N	1.824089	-0.409444	0.247203
N50	N	2.074089	-0.159444	0.497203
N51	N	2.324089	0.090556	0.747203
N52	N	2.574089	0.340556	0.997203
C53	C	1.824096	-0.498442	0.247207
C54	C	2.074096	-0.248442	0.497207
C55	C	2.324096	0.001558	0.747207
C56	C	2.574096	0.251558	0.997207
C57	C	1.824113	-0.610095	0.247196
C58	C	2.074113	-0.360095	0.497196
C59	C	2.324113	-0.110095	0.747196
C60	C	2.574113	0.139905	0.997196
C61	C	1.824135	-0.699087	0.247178
C62	C	2.074135	-0.449087	0.497178
C63	C	2.324135	-0.199087	0.747178
C64	C	2.574135	0.050913	0.997178
C65	C	1.824154	-0.810747	0.247169
C66	C	2.074154	-0.560747	0.497169
C67	C	2.324154	-0.310747	0.747169
C68	C	2.574154	-0.060747	0.997169
C69	C	2.111922	-0.178979	0.240016
C70	C	2.361922	0.071021	0.490016
C71	C	2.611922	0.321021	0.740016
C72	C	2.861922	0.571021	0.990016
C73	C	2.285438	-0.193678	0.245881
C74	C	2.535438	0.056322	0.495881
C75	C	2.785438	0.306322	0.745881
C76	C	3.035438	0.556322	0.995881
C77	C	1.870706	-0.158538	-0.044220
C78	C	2.120706	0.091462	0.205780
C79	C	2.370706	0.341462	0.455780
C80	C	2.620706	0.591462	0.705780
C81	C	1.888955	-0.160079	-0.221315
C82	C	2.138955	0.089921	0.028685
C83	C	2.388955	0.339921	0.278685
C84	C	2.638955	0.589921	0.528685
N85	N	1.824177	0.100260	0.247151
N86	N	2.074177	0.350260	0.497151
N87	N	2.324177	0.600260	0.747151
N88	N	2.574177	0.850260	0.997151
C89	C	1.777546	-0.150642	0.538587
C90	C	2.027546	0.099358	0.788587
C91	C	2.277546	0.349358	1.038587
C92	C	2.527546	0.599358	1.288587
C93	C	1.759297	-0.149095	0.715682
C94	C	2.009297	0.100905	0.965682
C95	C	2.259297	0.350905	1.215682
C96	C	2.509297	0.600905	1.465682
H97	H	1.296307	-0.037300	0.246230
H98	H	1.546307	0.212700	0.496230
H99	H	1.796307	0.462700	0.746230
H100	H	2.046307	0.712700	0.996230
H101	H	2.013929	-0.170678	-0.302868
H102	H	2.263929	0.079322	-0.052868
H103	H	2.513929	0.329322	0.197132
H104	H	2.763929	0.579322	0.447132
H105	H	1.634331	-0.138507	-0.202774
H106	H	1.884331	0.111493	0.047226
H107	H	2.134331	0.361493	0.297226
H108	H	2.384331	0.611493	0.547226
H109	H	1.351940	-0.271868	0.248125
H110	H	1.601940	-0.021868	0.498125
H111	H	1.851940	0.228132	0.748125
H112	H	2.101940	0.478132	0.998125
