data_functionalizedCrystal
_audit_creation_method	'MofGen! by Chris Wilmer'
_symmetry_space_group_name_H-M	'P1'
_symmetry_Int_Tables_number	1
_symmetry_cell_setting	triclinic
loop_
_symmetry_equiv_pos_as_xyz
  x,y,z
_cell_length_a	16.956984
_cell_length_b	10.654550
_cell_length_c	16.053802
_cell_angle_alpha	92.591674
_cell_angle_beta	87.610701
_cell_angle_gamma	80.269161
loop_
_atom_site_label
_atom_site_type_symbol
_atom_site_fract_x
_atom_site_fract_y
_atom_site_fract_z
O1	O	1.061660	0.046369	-0.069432
O2	O	0.829746	0.090434	-0.069433
O3	O	0.951035	-0.114964	-0.069429
O4	O	0.940371	0.251767	-0.069436
O5	O	0.944359	-0.103702	0.069429
O6	O	0.823070	0.101696	0.069426
O7	O	1.054984	0.057631	0.069426
Zn8	Zn	0.937967	0.081451	0.091473
Zn9	Zn	0.946763	0.066613	-0.091479
O10	O	0.933695	0.263029	0.069423
C11	C	0.796712	0.098321	-0.000003
C12	C	0.708229	0.105030	-0.000004
C13	C	0.675524	-0.007136	-0.000000
C14	C	0.592384	-0.000826	-0.000006
C15	C	0.541950	0.117653	-0.000010
C16	C	0.574660	0.229827	-0.000016
C17	C	0.657799	0.223515	-0.000016
C18	C	0.292350	0.148896	-0.000016
C19	C	0.209206	0.155200	-0.000014
C20	C	0.226936	-0.075454	-0.000006
C21	C	0.310076	-0.081755	-0.000001
C22	C	0.342779	0.030419	-0.000011
N23	N	0.456967	0.124106	-0.000013
N24	N	0.427760	0.023964	-0.000013
C25	C	0.946914	-0.156039	-0.000001
C26	C	0.944571	-0.295208	-0.000004
C27	C	1.015984	-0.383087	-0.000001
C28	C	1.013779	-0.513849	-0.000007
C29	C	0.868740	-0.468838	-0.000015
C30	C	0.870947	-0.338079	-0.000015
C31	C	1.089608	-0.340215	0.000009
C32	C	1.161027	-0.428097	0.000013
C33	C	1.158821	-0.558859	0.000007
C34	C	1.085197	-0.601739	-0.000002
C35	C	1.088018	0.049743	-0.000005
C36	C	1.176501	0.043034	-0.000010
C37	C	0.937816	0.304104	-0.000007
C38	C	0.940159	0.443272	-0.000010
N39	N	0.931969	0.091577	0.216333
N40	N	0.952767	0.056477	-0.216340
C41	C	0.983597	0.004206	0.260028
C42	C	0.979409	0.011300	0.347435
C43	C	0.923597	0.105771	0.391145
C44	C	0.871964	0.193145	0.347443
C45	C	0.876148	0.186045	0.260038
C46	C	0.905318	0.136751	0.652554
C47	C	0.901139	0.143847	0.739965
C48	C	1.008584	-0.038000	0.739951
C49	C	1.012767	-0.045087	0.652544
C50	C	0.961131	0.042283	0.608850
N51	N	0.919317	0.113027	0.480488
N52	N	0.965408	0.035020	0.519508
H53	H	0.200300	-0.166780	-0.000007
O54	O	1.228252	-0.644113	-0.000105
C55	C	1.276361	-0.631696	-0.072027
H56	H	1.258495	-0.532301	-0.096002
H57	H	1.341999	-0.646495	-0.055847
H58	H	1.267494	-0.706251	-0.122388
O59	O	0.359094	-0.196801	0.000144
C60	C	0.404274	-0.201505	0.072048
H61	H	0.371770	-0.130090	0.122315
H62	H	0.411902	-0.301620	0.096187
H63	H	0.465681	-0.176612	0.055788
O64	O	1.232586	-0.386594	0.000128
C65	C	1.272697	-0.426386	0.072053
H66	H	1.249321	-0.512983	0.096027
H67	H	1.339740	-0.452761	0.055878
H68	H	1.261467	-0.345594	0.122414
H69	H	1.050623	-0.109134	0.775534
H70	H	0.168143	0.251685	-0.000013
H71	H	0.863275	0.207894	0.616985
H72	H	1.083407	-0.708217	-0.000016
H73	H	0.808799	-0.503763	-0.000021
H74	H	1.091412	-0.233745	0.000017
H75	H	0.812796	-0.266525	-0.000016
H76	H	0.565760	-0.092164	-0.000004
H77	H	0.318967	0.240236	-0.000030
O78	O	0.525554	0.344817	0.000018
C79	C	0.445161	0.326338	0.000000
H80	H	0.440159	0.230220	0.026291
H81	H	0.405967	0.405658	0.040315
H82	H	0.424348	0.328193	-0.066616
H83	H	0.826516	0.270062	0.383037
O84	O	0.825964	0.271054	0.217719
C85	C	0.775791	0.355941	0.275039
H86	H	0.805490	0.359061	0.337336
H87	H	0.765392	0.455375	0.249776
H88	H	0.715923	0.322033	0.284354
O89	O	0.689437	0.332599	0.000020
C90	C	0.627098	0.438525	-0.000004
H91	H	0.569168	0.411350	0.026289
H92	H	0.642984	0.520630	0.040306
H93	H	0.618733	0.469248	-0.066623
O94	O	1.066635	-0.137214	0.609959
C95	C	1.059069	-0.125017	0.523444
H96	H	1.030861	-0.022962	0.511382
H97	H	1.120819	-0.148801	0.490025
H98	H	1.019410	-0.193423	0.498966
H99	H	1.029049	-0.072717	0.224446
H100	H	0.855687	0.220782	0.775550
H101	H	1.021448	-0.059844	0.383011
H102	H	0.716582	-0.103614	0.000006
