data_functionalizedCrystal
_audit_creation_method	'MofGen! by Chris Wilmer'
_symmetry_space_group_name_H-M	'P1'
_symmetry_Int_Tables_number	1
_symmetry_cell_setting	triclinic
loop_
_symmetry_equiv_pos_as_xyz
  x,y,z
_cell_length_a	12.759401
_cell_length_b	16.120444
_cell_length_c	12.759393
_cell_angle_alpha	92.863275
_cell_angle_beta	89.981594
_cell_angle_gamma	92.925484
loop_
_atom_site_label
_atom_site_type_symbol
_atom_site_fract_x
_atom_site_fract_y
_atom_site_fract_z
Zn1	Zn	1.584961	-0.331876	-0.615154
Zn2	Zn	1.575910	-0.471315	-0.448370
Zn3	Zn	1.409261	-0.331918	-0.439496
Zn4	Zn	1.400310	-0.471247	-0.624007
O5	O	1.492610	-0.401589	-0.531757
O6	O	1.730781	-0.350384	-0.593039
O7	O	1.553761	-0.452869	-0.300174
O8	O	1.440102	-0.215247	-0.455380
O9	O	1.724131	-0.452829	-0.470503
O10	O	1.569188	-0.215216	-0.584435
O11	O	1.431325	-0.350455	-0.293655
O12	O	1.261053	-0.350389	-0.463963
O13	O	1.424846	-0.452713	-0.769851
O14	O	1.254477	-0.452754	-0.599522
O15	O	1.560509	-0.350318	-0.763347
O16	O	1.545082	-0.587971	-0.479087
O17	O	1.416070	-0.587922	-0.608126
C18	C	1.219644	-0.401569	-0.531741
C19	C	1.102867	-0.401581	-0.531760
C20	C	1.051454	-0.348339	-0.595675
C21	C	0.941729	-0.348354	-0.595683
C22	C	0.934839	-0.454863	-0.467858
C23	C	1.044562	-0.454842	-0.467846
C24	C	1.055431	-0.286849	-0.669478
C25	C	0.945706	-0.286865	-0.669485
C26	C	1.478651	-0.618197	-0.545553
C27	C	1.472775	-0.710862	-0.551490
C28	C	1.523349	-0.921808	-0.501184
C29	C	1.462066	-0.880518	-0.562341
C30	C	1.468026	-0.786113	-0.556302
C31	C	1.517390	-1.016222	-0.507222
C32	C	1.766642	-0.401609	-0.531773
C33	C	1.883418	-0.401618	-0.531780
C34	C	1.492689	-0.401504	-0.805785
C35	C	1.492722	-0.401467	-0.922559
C36	C	1.506653	-0.184135	-0.517930
C37	C	1.512637	-0.091470	-0.512038
C38	C	1.429019	-0.348109	-1.083757
C39	C	1.428992	-0.348132	-0.974034
C40	C	1.556492	-0.454776	-0.980812
C41	C	1.556524	-0.454748	-1.090533
C42	C	1.355405	-0.286542	-1.079843
C43	C	1.355377	-0.286565	-0.970121
C44	C	1.492597	-0.401614	-0.258791
C45	C	1.492782	-0.401415	-0.142002
H46	H	1.088008	-0.310046	-0.748195
O47	O	1.386633	-0.927606	-0.637697
H48	H	1.342661	-0.882794	-0.681570
O49	O	1.389813	-0.201011	-1.113871
H50	H	1.406644	-0.159161	-1.043515
O51	O	1.598772	-0.874729	-0.425820
H52	H	1.680193	-0.891308	-0.444955
O53	O	1.625242	-0.512292	-0.925291
H54	H	1.669593	-0.549349	-0.984229
H55	H	1.086418	-0.498189	-0.415789
O56	O	1.100366	-0.201291	-0.635337
H57	H	1.148401	-0.205382	-0.563444
O58	O	1.625284	-0.512250	-1.153360
H59	H	1.669586	-0.549348	-1.099134
O60	O	1.251059	-0.317148	-1.126879
H61	H	1.195711	-0.333395	-1.063082
O62	O	1.399223	-0.205336	-0.919879
H63	H	1.351019	-0.153966	-0.943507
H64	H	0.915601	-0.225504	-0.636571
O65	O	1.246111	-0.309477	-0.932108
H66	H	1.220894	-0.372341	-0.965110
H67	H	0.887354	-0.498226	-0.415821
H68	H	0.914846	-0.304239	-0.751930
