data_functionalizedCrystal
_audit_creation_method	'MofGen! by Chris Wilmer'
_symmetry_space_group_name_H-M	'P1'
_symmetry_Int_Tables_number	1
_symmetry_cell_setting	triclinic
loop_
_symmetry_equiv_pos_as_xyz
  x,y,z
_cell_length_a	18.215407
_cell_length_b	16.625546
_cell_length_c	18.215399
_cell_angle_alpha	89.968415
_cell_angle_beta	89.985195
_cell_angle_gamma	90.016981
loop_
_atom_site_label
_atom_site_type_symbol
_atom_site_fract_x
_atom_site_fract_y
_atom_site_fract_z
Zn1	Zn	1.125062	-0.321109	-0.416070
Zn2	Zn	1.625062	0.178891	0.083930
Zn3	Zn	1.124982	-0.455955	-0.293001
Zn4	Zn	1.624982	0.044045	0.206999
Zn5	Zn	1.002001	-0.321127	-0.293022
Zn6	Zn	1.502001	0.178873	0.206978
Zn7	Zn	1.001966	-0.455890	-0.416030
Zn8	Zn	1.501966	0.044110	0.083970
O9	O	1.063503	-0.388520	-0.354531
O10	O	1.563503	0.111480	0.145469
O11	O	1.228036	-0.339016	-0.399753
O12	O	1.728036	0.160984	0.100247
O13	O	1.108650	-0.438104	-0.190019
O14	O	1.608650	0.061896	0.309981
O15	O	1.018374	-0.208292	-0.309369
O16	O	1.518374	0.291708	0.190631
O17	O	1.227977	-0.438087	-0.309334
O18	O	1.727977	0.061913	0.190666
O19	O	1.108786	-0.208279	-0.399773
O20	O	1.608786	0.291721	0.100227
O21	O	1.018297	-0.339047	-0.190035
O22	O	1.518297	0.160953	0.309965
O23	O	0.899013	-0.338984	-0.309331
O24	O	1.399013	0.161016	0.190669
O25	O	1.018314	-0.437977	-0.519020
O26	O	1.518314	0.062023	-0.019020
O27	O	0.898987	-0.437994	-0.399705
O28	O	1.398987	0.062006	0.100295
O29	O	1.108752	-0.338953	-0.519049
O30	O	1.608752	0.161047	-0.019049
O31	O	1.108616	-0.568779	-0.309296
O32	O	1.608616	-0.068779	0.190704
O33	O	1.018236	-0.568731	-0.399685
O34	O	1.518236	-0.068731	0.100315
C35	C	0.872297	-0.388485	-0.354516
C36	C	1.372297	0.111515	0.145484
C37	C	0.790498	-0.388489	-0.354528
C38	C	1.290498	0.111511	0.145472
C39	C	0.525465	-0.337033	-0.401686
C40	C	1.025465	0.162967	0.098314
C41	C	0.602324	-0.337020	-0.401684
C42	C	1.102324	0.162980	0.098316
C43	C	0.602282	-0.440033	-0.307391
C44	C	1.102282	0.059967	0.192609
C45	C	0.525425	-0.440050	-0.307398
C46	C	1.025425	0.059950	0.192602
C47	C	0.487018	-0.388545	-0.354544
C48	C	0.987018	0.111455	0.145456
C49	C	0.640734	-0.388516	-0.354535
C50	C	1.140734	0.111484	0.145465
C51	C	0.724068	-0.388502	-0.354532
C52	C	1.224068	0.111498	0.145468
C53	C	0.403679	-0.388560	-0.354548
C54	C	0.903679	0.111440	0.145452
C55	C	1.063433	-0.598011	-0.354500
C56	C	1.563433	-0.098011	0.145500
C57	C	1.063471	-0.687632	-0.354511
C58	C	1.563471	-0.187632	0.145489
C59	C	1.063599	-1.015808	-0.354588
C60	C	1.563599	-0.515808	0.145412
C61	C	1.063561	-0.924499	-0.354569
C62	C	1.563561	-0.424499	0.145431
C63	C	1.063535	-0.851723	-0.354549
C64	C	1.563535	-0.351723	0.145451
C65	C	1.063498	-0.760409	-0.354531
C66	C	1.563498	-0.260409	0.145469
C67	C	1.255456	-0.388556	-0.354546
C68	C	1.755456	0.111444	0.145454
C69	C	1.337255	-0.388572	-0.354552
C70	C	1.837255	0.111428	0.145448
C71	C	1.063538	-0.388456	-0.546484
C72	C	1.563538	0.111544	-0.046484
C73	C	1.063553	-0.388428	-0.628283
C74	C	1.563553	0.111572	-0.128283
C75	C	1.063593	-0.178211	-0.354578
C76	C	1.563593	0.321789	0.145422
C77	C	1.063631	-0.088590	-0.354598
C78	C	1.563631	0.411410	0.145402
C79	C	1.016545	-0.336814	-0.816485
C80	C	1.516545	0.163186	-0.316485
C81	C	1.016558	-0.336798	-0.893344
C82	C	1.516558	0.163202	-0.393344
C83	C	1.110648	-0.439946	-0.893318
C84	C	1.610648	0.060054	-0.393318
C85	C	1.110631	-0.439966	-0.816460
C86	C	1.610631	0.060034	-0.316460
C87	C	1.063581	-0.388395	-0.778046
C88	C	1.563581	0.111605	-0.278046
C89	C	1.063611	-0.388359	-0.931762
C90	C	1.563611	0.111641	-0.431762
C91	C	1.063625	-0.388342	-1.015096
C92	C	1.563625	0.111658	-0.515096
C93	C	1.063565	-0.388413	-0.694707
C94	C	1.563565	0.111587	-0.194707
C95	C	1.063511	-0.388526	-0.163324
C96	C	1.563511	0.111474	0.336676
C97	C	1.063639	-0.388326	-0.081526
C98	C	1.563639	0.111674	0.418474
H99	H	0.633624	-0.295075	-0.440073
H100	H	1.133624	0.204925	0.059927
H101	H	0.494120	-0.482001	-0.269008
H102	H	0.994120	0.017999	0.230992
N103	N	1.158712	-0.492600	-0.932575
N104	N	1.658712	0.007400	-0.432575
N105	N	1.205623	-0.464215	-0.975471
N106	N	1.705623	0.035785	-0.475471
H107	H	1.239571	-0.501400	-1.003199
H108	H	1.739571	-0.001400	-0.503199
N109	N	0.968486	-0.284130	-0.777257
N110	N	1.468486	0.215870	-0.277257
N111	N	0.926495	-0.238077	-0.811591
N112	N	1.426495	0.261923	-0.311591
H113	H	0.892552	-0.200866	-0.783888
H114	H	1.392552	0.299134	-0.283888
N115	N	0.968504	-0.284108	-0.932597
N116	N	1.468504	0.215892	-0.432597
N117	N	0.926498	-0.238074	-0.898287
N118	N	1.426498	0.261926	-0.398287
H119	H	0.892556	-0.200860	-0.926008
H120	H	1.392556	0.299140	-0.426008
N121	N	1.158673	-0.492652	-0.777176
N122	N	1.658673	0.007348	-0.277176
N123	N	1.132749	-0.544034	-0.734268
N124	N	1.632749	-0.044034	-0.234268
H125	H	1.166676	-0.581242	-0.706521
H126	H	1.666676	-0.081242	-0.206521
H127	H	0.494197	-0.295095	-0.440076
H128	H	0.994197	0.204905	0.059924
H129	H	0.633562	-0.481965	-0.269004
H130	H	1.133562	0.018035	0.230996
