data_functionalizedCrystal
_audit_creation_method	'MofGen! by Chris Wilmer'
_symmetry_space_group_name_H-M	'P1'
_symmetry_Int_Tables_number	1
_symmetry_cell_setting	triclinic
loop_
_symmetry_equiv_pos_as_xyz
  x,y,z
_cell_length_a	15.625950
_cell_length_b	15.538191
_cell_length_c	10.065875
_cell_angle_alpha	95.296196
_cell_angle_beta	99.044807
_cell_angle_gamma	66.741480
loop_
_atom_site_label
_atom_site_type_symbol
_atom_site_fract_x
_atom_site_fract_y
_atom_site_fract_z
O1	O	1.089414	0.174833	0.425503
O2	O	0.841339	0.174512	0.302767
O3	O	1.013667	0.040523	0.388021
O4	O	0.917085	0.308821	0.340250
O5	O	0.980773	0.066182	0.598736
O6	O	0.808444	0.200170	0.513483
O7	O	1.056520	0.200491	0.636219
Zn8	Zn	0.927259	0.204404	0.608306
Zn9	Zn	0.970599	0.170598	0.330680
O10	O	0.884191	0.334479	0.550965
C11	C	0.793917	0.184809	0.392800
C12	C	0.701627	0.177253	0.347139
C13	C	0.308358	0.222365	0.771106
C14	C	0.221639	0.215276	0.728138
C15	C	0.257542	0.187308	0.498446
C16	C	0.344264	0.194399	0.541394
C17	C	0.369665	0.211927	0.677726
C18	C	0.405571	0.183961	0.448013
C19	C	0.492288	0.191047	0.490959
C20	C	0.517697	0.208571	0.627286
C21	C	0.456382	0.219013	0.720672
C22	C	0.380171	0.166427	0.311684
C23	C	0.441478	0.155988	0.218303
C24	C	0.528194	0.163081	0.261247
C25	C	0.553604	0.180605	0.397574
C26	C	0.589510	0.152639	0.167861
C27	C	0.676226	0.159725	0.210807
C28	C	0.640320	0.187691	0.440520
C29	C	1.007326	0.018880	0.498374
C30	C	1.037427	-0.083837	0.513253
C31	C	0.738398	-0.390085	0.365337
C32	C	0.766701	-0.486603	0.379343
C33	C	0.925902	-0.499217	0.458107
C34	C	0.897613	-0.402699	0.444102
C35	C	0.803860	-0.348140	0.397717
C36	C	0.963075	-0.360754	0.476482
C37	C	0.934787	-0.264244	0.462484
C38	C	0.841037	-0.209678	0.416105
C39	C	0.775572	-0.251629	0.383719
C40	C	1.056827	-0.415314	0.522875
C41	C	1.122289	-0.373369	0.555256
C42	C	1.094002	-0.276858	0.541249
C43	C	1.000253	-0.222292	0.494870
C44	C	1.159468	-0.234907	0.573635
C45	C	1.131180	-0.138396	0.559637
C46	C	0.971965	-0.125782	0.480872
C47	C	1.103942	0.190194	0.546183
C48	C	1.196233	0.197749	0.591836
C49	C	0.890533	0.356122	0.440610
C50	C	0.860434	0.458838	0.425722
N51	N	0.897687	0.227476	0.797782
N52	N	1.000180	0.147520	0.141208
C53	C	0.960307	0.178619	0.896540
C54	C	0.937552	0.196383	1.042450
H55	H	0.477058	0.233300	0.831684
C56	C	1.087942	-0.521480	0.538269
N57	N	1.111378	-0.601444	0.549859
C58	C	0.842359	0.270659	1.074142
N59	N	0.770660	0.326603	1.098016
C60	C	1.225415	-0.433395	0.606276
N61	N	1.303092	-0.478606	0.644701
C62	C	1.203193	-0.092255	0.595250
N63	N	1.257434	-0.057501	0.622077
C64	C	1.055484	0.104327	0.864834
N65	N	1.127171	0.048363	0.840954
C66	C	0.336301	0.241652	0.921078
N67	N	0.357349	0.256177	1.034032
C68	C	1.095374	0.073244	1.109519
N69	N	1.167075	0.017303	1.085650
H70	H	0.662056	-0.345660	0.327557
H71	H	0.827228	0.282451	0.821251
C72	C	0.672438	-0.191609	0.332692
N73	N	0.594760	-0.146401	0.294266
H74	H	0.171714	0.223799	0.804186
C75	C	0.561559	0.133350	0.017902
N76	N	0.540507	0.118822	-0.095049
C77	C	0.668263	0.206978	0.590491
N78	N	0.689311	0.221502	0.703445
H79	H	1.235800	-0.279341	0.611414
C80	C	0.868831	-0.065761	0.429845
N81	N	0.791153	-0.020553	0.391419
H82	H	0.588309	0.214339	0.662250
H83	H	0.309558	0.160663	0.276720
C84	C	0.413526	0.136709	0.068341
N85	N	0.392472	0.122190	-0.044613
C86	C	0.229590	0.168028	0.348485
N87	N	0.208536	0.153510	0.235530
H88	H	0.726143	0.151229	0.134766
H89	H	0.818006	-0.131092	0.404716
H90	H	0.713384	-0.520747	0.352990
H91	H	1.002235	-0.543652	0.495879
