data_functionalizedCrystal
_audit_creation_method	'MofGen! by Chris Wilmer'
_symmetry_space_group_name_H-M	'P1'
_symmetry_Int_Tables_number	1
_symmetry_cell_setting	triclinic
loop_
_symmetry_equiv_pos_as_xyz
  x,y,z
_cell_length_a	16.625548
_cell_length_b	16.625548
_cell_length_c	21.395361
_cell_angle_alpha	89.983559
_cell_angle_beta	89.968224
_cell_angle_gamma	90.008236
loop_
_atom_site_label
_atom_site_type_symbol
_atom_site_fract_x
_atom_site_fract_y
_atom_site_fract_z
Zn1	Zn	1.232536	0.455880	0.249525
Zn2	Zn	1.565869	0.789214	0.582858
Zn3	Zn	1.899203	1.122547	0.916191
Zn4	Zn	1.232449	0.321036	0.354275
Zn5	Zn	1.565782	0.654369	0.687609
Zn6	Zn	1.899116	0.987702	1.020942
Zn7	Zn	1.097727	0.321061	0.249517
Zn8	Zn	1.431060	0.654394	0.582851
Zn9	Zn	1.764394	0.987728	0.916184
Zn10	Zn	1.097649	0.455825	0.354270
Zn11	Zn	1.430982	0.789159	0.687604
Zn12	Zn	1.764316	1.122492	1.020937
O13	O	1.165090	0.388451	0.301897
O14	O	1.498424	0.721784	0.635230
O15	O	1.831757	1.055117	0.968564
O16	O	1.345357	0.438005	0.263425
O17	O	1.678690	0.771339	0.596758
O18	O	2.012024	1.104672	0.930092
O19	O	1.214574	0.208207	0.340378
O20	O	1.547907	0.541540	0.673711
O21	O	1.881241	0.874873	1.007045
O22	O	1.115679	0.338979	0.161840
O23	O	1.449012	0.672312	0.495174
O24	O	1.782345	1.005645	0.828507
O25	O	1.345293	0.338935	0.340385
O26	O	1.678626	0.672269	0.673718
O27	O	2.011960	1.005602	1.007052
O28	O	1.214722	0.438030	0.161846
O29	O	1.548056	0.771363	0.495179
O30	O	1.881389	1.104697	0.828512
O31	O	1.115594	0.208225	0.263413
O32	O	1.448928	0.541559	0.596746
O33	O	1.782261	0.874892	0.930079
O34	O	0.984884	0.338925	0.263408
O35	O	1.318218	0.672259	0.596741
O36	O	1.651551	1.005592	0.930075
O37	O	1.115546	0.568665	0.340377
O38	O	1.448879	0.901998	0.673710
O39	O	1.782213	1.235332	1.007043
O40	O	0.984827	0.437936	0.340370
O41	O	1.318160	0.771269	0.673703
O42	O	1.651494	1.104603	1.007036
O43	O	1.214647	0.568705	0.263420
O44	O	1.547980	0.902039	0.596754
O45	O	1.881314	1.235372	0.930087
O46	O	1.214498	0.338882	0.441952
O47	O	1.547832	0.672215	0.775286
O48	O	1.881165	1.005549	1.108619
O49	O	1.115461	0.437912	0.441949
O50	O	1.448795	0.771245	0.775282
O51	O	1.782128	1.104578	1.108616
C52	C	0.955599	0.388428	0.301888
C53	C	1.288933	0.721761	0.635221
C54	C	1.622266	1.055095	0.968555
C55	C	0.865978	0.388437	0.301899
C56	C	1.199312	0.721771	0.635233
C57	C	1.532645	1.055104	0.968566
C58	C	0.537803	0.388472	0.301903
C59	C	0.871136	0.721805	0.635237
C60	C	1.204469	1.055139	0.968570
C61	C	0.629111	0.388460	0.301900
C62	C	0.962444	0.721793	0.635234
C63	C	1.295778	1.055126	0.968567
C64	C	0.701888	0.388454	0.301902
C65	C	1.035221	0.721787	0.635235
C66	C	1.368554	1.055121	0.968568
C67	C	0.793202	0.388443	0.301898
C68	C	1.126535	0.721777	0.635231
C69	C	1.459868	1.055110	0.968565
C70	C	1.165097	0.598759	0.301899
C71	C	1.498431	0.932093	0.635232
C72	C	1.831764	1.265426	0.968565
C73	C	1.165100	0.688380	0.301899
C74	C	1.498434	1.021714	0.635233
C75	C	1.831767	1.355047	0.968566
C76	C	1.165067	1.016556	0.301905
C77	C	1.498400	1.349889	0.635238
C78	C	1.831734	1.683223	0.968572
C79	C	1.165074	0.925248	0.301905
C80	C	1.498407	1.258581	0.635239
C81	C	1.831741	1.591914	0.968572
C82	C	1.165084	0.852471	0.301903
C83	C	1.498417	1.185805	0.635236
C84	C	1.831751	1.519138	0.968569
C85	C	1.165090	0.761157	0.301902
C86	C	1.498424	1.094490	0.635236
C87	C	1.831757	1.427824	0.968569
C88	C	1.375399	0.388474	0.301906
C89	C	1.708732	0.721807	0.635240
C90	C	2.042066	1.055140	0.968573
C91	C	1.465020	0.388483	0.301910
C92	C	1.798354	0.721817	0.635244
C93	C	2.131687	1.055150	0.968577
C94	C	1.164984	0.388406	0.464685
C95	C	1.498317	0.721739	0.798018
C96	C	1.831650	1.055072	1.131351
C97	C	1.165012	0.388413	0.534326
C98	C	1.498345	0.721747	0.867659
C99	C	1.831679	1.055080	1.200992
C100	C	1.165075	1.178960	0.301908
C101	C	1.498409	1.512293	0.635241
C102	C	1.831742	1.845626	0.968574
C103	C	1.165067	1.089339	0.301903
C104	C	1.498401	1.422672	0.635236
C105	C	1.831734	1.756005	0.968570
C106	C	1.165219	0.388513	0.138474
C107	C	1.498552	0.721847	0.471807
C108	C	1.831886	1.055180	0.805140
C109	C	1.165274	0.388540	0.068832
C110	C	1.498607	0.721873	0.402166
C111	C	1.831941	1.055207	0.735499
C112	C	1.216626	0.336902	0.567020
C113	C	1.549960	0.670235	0.900353
C114	C	1.883293	1.003568	1.233687
C115	C	1.216664	0.336920	0.632455
C116	C	1.549997	0.670253	0.965789
C117	C	1.883330	1.003586	1.299122
C118	C	1.165073	0.388441	0.665194
C119	C	1.498406	0.721774	0.998527
C120	C	1.831739	1.055108	1.331861
C121	C	1.113455	0.439963	0.632492
C122	C	1.446788	0.773296	0.965825
C123	C	1.780121	1.106630	1.299159
C124	C	1.113424	0.439949	0.567058
C125	C	1.446758	0.773282	0.900391
C126	C	1.780091	1.106616	1.233725
C127	C	1.092471	0.394760	0.768911
C128	C	1.425804	0.728093	1.102244
C129	C	1.759138	1.061426	1.435577
C130	C	1.092500	0.394768	0.834344
C131	C	1.425833	0.728101	1.167677
C132	C	1.759167	1.061434	1.501010
C133	C	1.165167	0.388488	0.867015
C134	C	1.498500	0.721822	1.200348
C135	C	1.831833	1.055155	1.533681
C136	C	1.237806	0.382184	0.834245
C137	C	1.571140	0.715517	1.167578
C138	C	1.904473	1.048850	1.500912
C139	C	1.237776	0.382170	0.768811
C140	C	1.571109	0.715503	1.102144
C141	C	1.904443	1.048837	1.435477
C142	C	1.165100	0.388462	0.736146
C143	C	1.498433	0.721795	1.069480
C144	C	1.831767	1.055129	1.402813
C145	C	1.216826	0.336993	0.970662
C146	C	1.550159	0.670327	1.303995
C147	C	1.883492	1.003660	1.637328
C148	C	1.216865	0.337017	1.036098
C149	C	1.550198	0.670350	1.369431
C150	C	1.883531	1.003684	1.702765
C151	C	1.113648	0.440056	1.036133
C152	C	1.446982	0.773389	1.369467
C153	C	1.780315	1.106723	1.702800
C154	C	1.113617	0.440037	0.970698
C155	C	1.446950	0.773370	1.304031
C156	C	1.780283	1.106703	1.637365
C157	C	1.165204	0.388501	0.937966
C158	C	1.498538	0.721834	1.271299
C159	C	1.831871	1.055168	1.604633
H160	H	1.258634	0.294940	0.540371
H161	H	1.591967	0.628274	0.873705
H162	H	1.925300	0.961607	1.207038
C163	C	1.056645	0.496610	0.531090
C164	C	1.389979	0.829944	0.864423
C165	C	1.723312	1.163277	1.197757
H166	H	1.064019	0.489225	0.487431
H167	H	1.397352	0.822558	0.820765
H168	H	1.730686	1.155892	1.154098
H169	H	1.002484	0.484767	0.541857
H170	H	1.335817	0.818100	0.875190
H171	H	1.669151	1.151434	1.208524
H172	H	1.068417	0.550802	0.541784
H173	H	1.401750	0.884135	0.875117
H174	H	1.735083	1.217469	1.208451
C175	C	1.273435	0.280248	0.668427
C176	C	1.606768	0.613582	1.001760
C177	C	1.940102	0.946915	1.335093
H178	H	1.304150	0.249550	0.639561
H179	H	1.637483	0.582884	0.972894
H180	H	1.970816	0.916217	1.306227
H181	H	1.308556	0.311122	0.693920
H182	H	1.641890	0.644456	1.027254
H183	H	1.975223	0.977789	1.360587
H184	H	1.242616	0.245095	0.693983
H185	H	1.575949	0.578429	1.027316
H186	H	1.909282	0.911762	1.360650
C187	C	1.056830	0.496690	0.934733
C188	C	1.390164	0.830023	1.268066
C189	C	1.723497	1.163357	1.601399
H190	H	1.026104	0.527373	0.963601
H191	H	1.359437	0.860706	1.296934
H192	H	1.692770	1.194040	1.630267
H193	H	1.087631	0.531845	0.909170
H194	H	1.420964	0.865179	1.242504
H195	H	1.754297	1.198512	1.575837
H196	H	1.021709	0.465800	0.909245
H197	H	1.355042	0.799133	1.242579
H198	H	1.688375	1.132466	1.575912
C199	C	1.317671	0.375248	0.732763
C200	C	1.651004	0.708582	1.066096
C201	C	1.984338	1.041915	1.399430
H202	H	1.307242	0.376136	0.689115
H203	H	1.640575	0.709469	1.022448
H204	H	1.973908	1.042803	1.355782
H205	H	1.351556	0.419145	0.743447
H206	H	1.684890	0.752478	1.076781
H207	H	2.018223	1.085812	1.410114
H208	H	1.343500	0.326184	0.743482
H209	H	1.676833	0.659517	1.076815
H210	H	2.010167	0.992851	1.410148
C211	C	1.317745	0.375283	0.870174
C212	C	1.651078	0.708616	1.203507
C213	C	1.984411	1.041949	1.536841
H214	H	1.307363	0.376204	0.913837
H215	H	1.640697	0.709538	1.247171
H216	H	1.974030	1.042871	1.580504
H217	H	1.343564	0.326219	0.859453
H218	H	1.676897	0.659552	1.192786
H219	H	2.010231	0.992886	1.526119
H220	H	1.351617	0.419181	0.859406
H221	H	1.684951	0.752514	1.192739
H222	H	2.018284	1.085847	1.526073
H223	H	1.258834	0.295032	0.944010
H224	H	1.592167	0.628366	1.277343
H225	H	1.925501	0.961699	1.610677
C226	C	1.056705	0.496633	0.668502
C227	C	1.390038	0.829967	1.001835
C228	C	1.723371	1.163300	1.335168
H229	H	1.064109	0.489258	0.712155
H230	H	1.397442	0.822592	1.045488
H231	H	1.730775	1.155925	1.378822
H232	H	1.068457	0.550817	0.657752
H233	H	1.401790	0.884151	0.991086
H234	H	1.735124	1.217484	1.324419
H235	H	1.002531	0.484776	0.657819
H236	H	1.335864	0.818109	0.991152
H237	H	1.669198	1.151443	1.324486
H238	H	1.258900	0.295071	1.062717
H239	H	1.592233	0.628405	1.396050
H240	H	1.925567	0.961738	1.729383
H241	H	1.033292	0.399876	0.742316
H242	H	1.366626	0.733210	1.075650
H243	H	1.699959	1.066543	1.408983
C244	C	1.056903	0.496733	1.072138
C245	C	1.390236	0.830066	1.405471
C246	C	1.723570	1.163399	1.738805
H247	H	1.064311	0.489362	1.115791
H248	H	1.397644	0.822696	1.449125
H249	H	1.730977	1.156029	1.782458
H250	H	1.068657	0.550915	1.061385
H251	H	1.401991	0.884248	1.394718
H252	H	1.735324	1.217582	1.728051
H253	H	1.002728	0.484877	1.061459
H254	H	1.336061	0.818210	1.394793
H255	H	1.669394	1.151543	1.728126
C256	C	1.012604	0.401709	0.870387
C257	C	1.345937	0.735042	1.203721
C258	C	1.679270	1.068376	1.537054
H259	H	1.023027	0.400810	0.914036
H260	H	1.356361	0.734143	1.247370
H261	H	1.689694	1.067477	1.580703
H262	H	0.986787	0.450774	0.859664
H263	H	1.320121	0.784107	1.192997
H264	H	1.653454	1.117440	1.526331
H265	H	0.978709	0.357814	0.859704
H266	H	1.312042	0.691147	1.193037
H267	H	1.645375	1.024481	1.526371
