data_functionalizedCrystal
_audit_creation_method	'MofGen! by Chris Wilmer'
_symmetry_space_group_name_H-M	'P1'
_symmetry_Int_Tables_number	1
_symmetry_cell_setting	triclinic
loop_
_symmetry_equiv_pos_as_xyz
  x,y,z
_cell_length_a	19.288864
_cell_length_b	11.026607
_cell_length_c	18.366186
_cell_angle_alpha	89.996969
_cell_angle_beta	89.977106
_cell_angle_gamma	95.861131
loop_
_atom_site_label
_atom_site_type_symbol
_atom_site_fract_x
_atom_site_fract_y
_atom_site_fract_z
O1	O	0.940539	0.151279	-0.060786
O2	O	0.740867	0.171686	-0.060737
O3	O	0.824154	-0.015080	-0.060755
O4	O	0.857252	0.338045	-0.060768
O5	O	0.824135	-0.015089	0.060345
O6	O	0.740847	0.171677	0.060363
O7	O	0.940520	0.151270	0.060313
Zn8	Zn	0.840681	0.161472	0.079565
Zn9	Zn	0.840706	0.161484	-0.079988
O10	O	0.857232	0.338036	0.060331
C11	C	0.714897	0.171025	-0.000181
C12	C	0.637544	0.169054	-0.000161
C13	C	0.818039	-0.060262	-0.000204
C14	C	0.799837	-0.194876	-0.000202
C15	C	0.606746	0.278640	-0.000177
C16	C	0.534064	0.276788	-0.000185
C17	C	0.492182	0.165344	-0.000192
C18	C	0.522988	0.055744	-0.000172
C19	C	0.595669	0.057599	-0.000157
C20	C	0.372816	0.077740	-0.042640
C21	C	0.300137	0.075890	-0.042659
C22	C	0.268011	0.159618	-0.000236
C23	C	0.308573	0.245218	0.042198
C24	C	0.381254	0.247073	0.042213
C25	C	0.413372	0.163320	-0.000208
C26	C	0.158403	0.267204	-0.000259
C27	C	0.085720	0.265347	-0.000263
C28	C	0.074645	0.044300	-0.000257
C29	C	0.147327	0.046159	-0.000246
C30	C	0.189202	0.157615	-0.000251
C31	C	0.850095	-0.268957	-0.000216
C32	C	0.831284	-0.408088	-0.000214
C33	C	0.966489	0.151931	-0.000244
C34	C	1.043843	0.153902	-0.000268
C35	C	0.863348	0.383218	-0.000221
C36	C	0.881550	0.517833	-0.000227
N37	N	0.840668	0.161463	0.188456
N38	N	0.840723	0.161484	-0.188880
C39	C	0.877569	0.078804	0.226549
C40	C	0.877572	0.078798	0.302777
C41	C	0.840685	0.161473	0.340909
C42	C	0.803777	0.244139	0.302807
C43	C	0.803768	0.244134	0.226581
C44	C	0.845400	0.271967	0.461667
C45	C	0.845414	0.271974	0.537891
C46	C	0.840707	0.161488	0.576017
C47	C	0.836000	0.050992	0.537907
C48	C	0.835992	0.050987	0.461681
C49	C	0.840689	0.161487	0.423564
C50	C	0.877613	0.078816	0.696764
C51	C	0.877611	0.078809	0.772993
C52	C	0.803820	0.244161	0.773023
C53	C	0.803817	0.244157	0.696795
C54	C	0.840717	0.161486	0.658670
H55	H	0.640837	0.369396	-0.000182
H56	H	0.773773	0.311471	0.665778
H57	H	0.938508	-0.442594	-0.000296
H58	H	0.488883	-0.034995	-0.000188
H59	H	0.398967	0.009556	-0.077190
H60	H	0.907622	0.011484	0.333797
O61	O	0.628893	-0.060601	-0.000144
H62	H	0.587563	-0.138410	-0.000152
O63	O	0.724391	-0.247285	-0.000179
H64	H	0.721455	-0.348340	-0.000173
H65	H	0.849250	0.361946	0.568914
O66	O	0.425001	0.339387	0.087983
H67	H	0.480936	0.326611	0.080860
O68	O	0.180546	-0.072043	-0.000235
H69	H	0.238121	-0.052031	-0.000217
H70	H	0.907613	0.011485	0.195510
O71	O	0.925542	-0.216548	-0.000234
H72	H	0.928477	-0.115493	-0.000228
H73	H	0.282418	0.313397	0.076744
O74	O	0.755834	-0.460491	-0.000190
H75	H	0.752898	-0.561546	-0.000185
O76	O	0.830904	-0.068179	0.420574
H77	H	0.827626	-0.145012	0.459885
H78	H	0.267116	0.006194	-0.077215
O79	O	0.830916	-0.068189	0.579014
H80	H	0.831702	-0.049629	0.638421
H81	H	0.907656	0.011497	0.665722
H82	H	0.040545	-0.046440	-0.000308
H83	H	0.849222	0.361943	0.430631
H84	H	0.907657	0.011491	0.804009
O85	O	0.764034	0.333339	0.814138
H86	H	0.770242	0.319462	0.873544
O87	O	0.763998	0.333329	0.343926
H88	H	0.723884	0.282447	0.378688
O89	O	0.500833	0.394987	-0.000210
H90	H	0.542162	0.472799	-0.000215
O91	O	0.203576	0.387408	-0.000249
H92	H	0.169947	0.463302	-0.000247
H93	H	0.773719	0.311447	0.195565
H94	H	0.060646	0.354589	-0.000271
