data_functionalizedCrystal
_audit_creation_method	'MofGen! by Chris Wilmer'
_symmetry_space_group_name_H-M	'P1'
_symmetry_Int_Tables_number	1
_symmetry_cell_setting	triclinic
loop_
_symmetry_equiv_pos_as_xyz
  x,y,z
_cell_length_a	15.995300
_cell_length_b	15.995350
_cell_length_c	13.101039
_cell_angle_alpha	93.364563
_cell_angle_beta	86.641414
_cell_angle_gamma	83.482091
loop_
_atom_site_label
_atom_site_type_symbol
_atom_site_fract_x
_atom_site_fract_y
_atom_site_fract_z
O1	O	1.115620	0.103102	-0.085247
O2	O	0.871838	0.116474	-0.085241
O3	O	1.000393	-0.012101	-0.085243
O4	O	0.987065	0.231677	-0.085245
O5	O	0.991169	-0.002861	0.085187
O6	O	0.862615	0.125714	0.085189
O7	O	1.106396	0.112342	0.085183
Zn8	Zn	0.983041	0.120495	0.112246
Zn9	Zn	0.995194	0.108321	-0.112303
O10	O	0.977842	0.240917	0.085185
C11	C	0.836031	0.120549	-0.000025
C12	C	0.743078	0.118914	-0.000022
C13	C	0.572896	0.115894	-0.000030
C14	C	0.525430	0.207442	-0.000028
C15	C	0.428763	0.205751	-0.000418
C16	C	0.405339	0.112922	-0.000037
C17	C	0.451729	0.062235	-0.097168
C18	C	0.548367	0.064548	-0.097247
C19	C	0.538156	0.073701	0.096570
C20	C	0.441143	0.073778	0.097844
C21	C	0.310644	0.111237	-0.000044
C22	C	0.667591	0.117576	-0.000030
C23	C	0.995230	-0.038675	-0.000030
C24	C	0.993579	-0.131626	-0.000036
C25	C	0.987646	-0.469372	-0.000032
C26	C	0.896113	-0.421942	-0.000412
C27	C	0.897744	-0.325231	-0.000028
C28	C	0.990589	-0.301812	-0.000035
C29	C	1.030480	-0.337621	0.097286
C30	C	1.028175	-0.434252	0.097368
C31	C	1.040556	-0.445119	-0.096443
C32	C	1.040603	-0.348243	-0.097729
C33	C	0.992257	-0.207115	-0.000033
C34	C	0.985981	-0.564069	-0.000027
C35	C	1.142204	0.108267	-0.000035
C36	C	1.235157	0.109902	-0.000045
C37	C	0.983004	0.267492	-0.000030
C38	C	0.984656	0.360442	-0.000031
N39	N	0.974753	0.128804	0.265494
N40	N	1.003488	0.100006	-0.265552
C41	C	0.963478	0.140115	0.474537
C42	C	1.014761	0.088697	0.525412
C43	C	1.008487	0.094991	0.641730
C44	C	0.969750	0.133822	0.358208
H45	H	0.437810	-0.006169	-0.100507
H46	H	1.063378	0.039951	0.481608
H47	H	0.858226	-0.293571	0.069856
H48	H	0.914865	0.188859	0.518335
H49	H	0.396532	0.245214	0.069194
H50	H	0.548802	0.239914	-0.069578
C51	C	1.131797	-0.488084	-0.097338
C52	C	1.158206	-0.544899	-0.011058
C53	C	1.249443	-0.587865	-0.011940
C54	C	1.314271	-0.574016	-0.099102
C55	C	1.287863	-0.517199	-0.185388
C56	C	1.196626	-0.474233	-0.184506
H57	H	1.110215	-0.555153	0.053471
H58	H	1.268992	-0.629925	0.051936
H59	H	1.381810	-0.605822	-0.099755
H60	H	1.335854	-0.506945	-0.249917
H61	H	1.177078	-0.432173	-0.248382
C62	C	0.545323	0.262255	0.094045
C63	C	0.604912	0.224563	0.172018
C64	C	0.624814	0.279379	0.266092
C65	C	0.585128	0.371887	0.282194
C66	C	0.525535	0.409584	0.204219
C67	C	0.505633	0.354768	0.110144
H68	H	0.634294	0.156079	0.160100
H69	H	0.668929	0.251473	0.323814
H70	H	0.599861	0.412465	0.351833
H71	H	0.496153	0.478068	0.216136
H72	H	0.461518	0.382674	0.052422
C73	C	1.132503	-0.327943	-0.105674
C74	C	1.205611	-0.399464	-0.105995
C75	C	1.297514	-0.379164	-0.113928
C76	C	1.316308	-0.287342	-0.121540
C77	C	1.243198	-0.215815	-0.121220
C78	C	1.151296	-0.236115	-0.113287
H79	H	1.191699	-0.467442	-0.100360
H80	H	1.351634	-0.432114	-0.114165
H81	H	1.384340	-0.272315	-0.127412
H82	H	1.257110	-0.147837	-0.126855
H83	H	1.097175	-0.183165	-0.113050
C84	C	0.396255	0.248619	-0.095033
C85	C	0.301724	0.255609	-0.114214
C86	C	0.269217	0.298476	-0.208836
C87	C	0.331241	0.334353	-0.284278
C88	C	0.425778	0.327364	-0.265100
C89	C	0.458285	0.284497	-0.170477
H90	H	0.255804	0.229050	-0.058365
H91	H	0.199234	0.303650	-0.223033
H92	H	0.307178	0.366086	-0.354324
H93	H	0.471698	0.353923	-0.320949
H94	H	0.528268	0.279324	-0.156281
C95	C	0.578448	0.103435	-0.195702
C96	C	0.565036	0.061276	-0.301260
C97	C	0.595112	0.100166	-0.399717
C98	C	0.638600	0.181216	-0.392615
C99	C	0.652014	0.223380	-0.287053
C100	C	0.621939	0.184490	-0.188596
H101	H	0.532841	0.001274	-0.306521
H102	H	0.585181	0.068953	-0.477861
H103	H	0.660864	0.210005	-0.465498
H104	H	0.684209	0.283382	-0.281792
H105	H	0.631869	0.215703	-0.110452
C106	C	0.592276	-0.026568	-0.102848
C107	C	0.539374	-0.101200	-0.107239
C108	C	0.583279	-0.192314	-0.112846
C109	C	0.680085	-0.208795	-0.114062
C110	C	0.732992	-0.134160	-0.109671
C111	C	0.689088	-0.043047	-0.104064
H112	H	0.467707	-0.089002	-0.106339
H113	H	0.544112	-0.247563	-0.116097
H114	H	0.712586	-0.276242	-0.118213
H115	H	0.804659	-0.146359	-0.110571
H116	H	0.728254	0.012202	-0.100813
H117	H	0.427270	0.089440	-0.169726
H118	H	0.554671	0.107834	0.170214
C119	C	0.398957	0.123851	0.194923
C120	C	0.302672	0.130351	0.216412
C121	C	0.260482	0.180429	0.313486
C122	C	0.314575	0.224007	0.389070
C123	C	0.410865	0.217509	0.367583
C124	C	0.453056	0.167430	0.270509
H125	H	0.262624	0.098090	0.160458
H126	H	0.189201	0.185240	0.329392
H127	H	0.283343	0.261079	0.460930
H128	H	0.450914	0.249769	0.423537
H129	H	0.524337	0.162620	0.254603
C130	C	0.419940	-0.017214	0.106138
C131	C	0.327276	-0.035126	0.113795
C132	C	0.306059	-0.126117	0.122066
C133	C	0.377505	-0.199197	0.122682
C134	C	0.470175	-0.181288	0.115025
C135	C	0.491392	-0.090296	0.106753
H136	H	0.274382	0.018974	0.113339
H137	H	0.237458	-0.139375	0.127734
H138	H	0.361798	-0.266555	0.128805
H139	H	0.523069	-0.235388	0.115480
H140	H	0.559993	-0.077038	0.101085
C141	C	0.854874	-0.291926	-0.094258
C142	C	0.818912	-0.353349	-0.170387
C143	C	0.776030	-0.320047	-0.264614
C144	C	0.769109	-0.225322	-0.282713
C145	C	0.805072	-0.163892	-0.206582
C146	C	0.847954	-0.197194	-0.112355
H147	H	0.824035	-0.423476	-0.156991
H148	H	0.749409	-0.365522	-0.320970
H149	H	0.737365	-0.200669	-0.352465
H150	H	0.799949	-0.093765	-0.219978
H151	H	0.874575	-0.151720	-0.055998
H152	H	0.569887	0.006254	0.097505
H153	H	0.855926	-0.437767	0.068992
C154	C	0.851777	-0.452066	-0.094701
C155	C	0.898139	-0.520105	-0.172507
C156	C	0.853806	-0.550229	-0.266804
C157	C	0.763110	-0.512316	-0.283296
C158	C	0.716742	-0.444273	-0.205487
C159	C	0.761075	-0.414149	-0.111190
H160	H	0.965283	-0.548174	-0.160301
H161	H	0.888131	-0.600599	-0.324403
H162	H	0.730291	-0.534616	-0.353100
H163	H	0.649599	-0.416204	-0.217693
H164	H	0.726750	-0.363779	-0.053591
C165	C	0.978362	-0.453646	0.195643
C166	C	0.940953	-0.381270	0.273504
C167	C	0.891135	-0.400658	0.371780
C168	C	0.878726	-0.492423	0.392195
C169	C	0.916136	-0.564805	0.314333
C170	C	0.965954	-0.545417	0.216057
H171	H	0.950137	-0.313335	0.258393
H172	H	0.863442	-0.347075	0.429418
H173	H	0.841848	-0.506775	0.464945
H174	H	0.906951	-0.632740	0.329443
H175	H	0.993647	-0.599000	0.158418
C176	C	0.982813	-0.293979	0.195137
C177	C	0.907743	-0.225892	0.186936
C178	C	0.860071	-0.182251	0.284783
C179	C	0.887467	-0.206697	0.390831
C180	C	0.962540	-0.274787	0.399036
C181	C	1.010213	-0.318428	0.301189
H182	H	0.887460	-0.207792	0.108429
H183	H	0.804496	-0.131846	0.278709
H184	H	0.852177	-0.174392	0.463264
H185	H	0.982824	-0.292887	0.477543
H186	H	1.065787	-0.368833	0.307263
C187	C	1.001256	-0.316656	-0.194967
C188	C	0.966066	-0.379019	-0.270634
C189	C	0.926681	-0.347438	-0.367854
C190	C	0.922485	-0.253494	-0.389406
C191	C	0.957676	-0.191125	-0.313737
C192	C	0.997062	-0.222705	-0.216517
H193	H	0.969171	-0.448568	-0.254682
H194	H	0.900630	-0.393609	-0.423870
H195	H	0.893330	-0.230116	-0.461374
H196	H	0.954572	-0.121576	-0.329689
H197	H	1.023112	-0.176535	-0.160501
H198	H	1.098494	-0.323312	0.100901
H199	H	1.095154	-0.466273	0.101779
H200	H	1.014614	-0.469652	-0.170207
