data_functionalizedCrystal
_audit_creation_method	'MofGen! by Chris Wilmer'
_symmetry_space_group_name_H-M	'P1'
_symmetry_Int_Tables_number	1
_symmetry_cell_setting	triclinic
loop_
_symmetry_equiv_pos_as_xyz
  x,y,z
_cell_length_a	17.699104
_cell_length_b	17.699083
_cell_length_c	16.176319
_cell_angle_alpha	89.998611
_cell_angle_beta	90.011330
_cell_angle_gamma	96.712733
loop_
_atom_site_label
_atom_site_type_symbol
_atom_site_fract_x
_atom_site_fract_y
_atom_site_fract_z
O1	O	-0.095712	1.004086	-0.068639
O2	O	-0.108164	0.783708	-0.068667
O3	O	0.008250	0.900115	-0.068637
O4	O	-0.212126	0.887679	-0.068669
O5	O	0.008257	0.900099	0.068856
O6	O	-0.108157	0.783692	0.068826
O7	O	-0.095705	1.004070	0.068854
Cu8	Cu	-0.101930	0.893880	0.081394
Cu9	Cu	-0.101939	0.893899	-0.081207
O10	O	-0.212119	0.887663	0.068824
C11	C	-0.107715	0.755503	0.000076
C12	C	-0.106376	0.671485	0.000066
C13	C	0.036450	0.899659	0.000111
C14	C	0.120467	0.898314	0.000117
C15	C	-0.174709	0.622869	0.000057
C16	C	-0.173446	0.543926	0.000067
C17	C	-0.103851	0.513600	0.000082
C18	C	-0.035513	0.562222	0.000094
C19	C	-0.036776	0.641164	0.000089
C20	C	-0.030418	0.243859	0.000115
C21	C	-0.029160	0.164911	0.000117
C22	C	-0.167088	0.146621	0.000094
C23	C	-0.168351	0.225563	0.000089
C24	C	-0.100014	0.274178	0.000105
C25	C	-0.101383	0.359777	0.000095
C26	C	-0.102480	0.428002	0.000086
C27	C	0.645338	0.959058	0.000137
C28	C	0.566395	0.960317	0.000139
C29	C	0.517777	0.891982	0.000129
C30	C	0.548107	0.822383	0.000126
C31	C	0.627049	0.821125	0.000130
C32	C	0.229741	0.827456	0.000112
C33	C	0.150794	0.828720	0.000105
C34	C	0.169086	0.966648	0.000121
C35	C	0.248029	0.965390	0.000125
C36	C	0.278352	0.895792	0.000126
C37	C	0.363951	0.894427	0.000125
C38	C	0.432179	0.893345	0.000124
C39	C	0.759681	0.888120	0.000091
C40	C	0.675663	0.889464	0.000131
N41	N	-0.101924	0.893872	0.195760
C42	C	-0.096155	1.032275	0.000109
C43	C	-0.097493	1.116293	0.000114
N44	N	-0.101940	0.893912	-0.195572
C45	C	-0.050396	0.945432	0.239037
C46	C	-0.050396	0.945436	0.325584
C47	C	-0.101926	0.893883	0.368852
C48	C	-0.153456	0.842317	0.325569
C49	C	-0.153453	0.842310	0.239023
C50	C	-0.153470	0.842343	0.674597
C51	C	-0.153471	0.842355	0.761149
C52	C	-0.050413	0.945469	0.761158
C53	C	-0.050410	0.945462	0.674612
C54	C	-0.101936	0.893894	0.631336
C55	C	-0.101936	0.893889	0.537492
C56	C	-0.101931	0.893890	0.462695
H57	H	-0.231382	0.647554	0.000044
H58	H	-0.008438	0.987420	0.360820
H59	H	0.651738	0.764455	0.000131
C60	C	0.698031	1.033311	0.000018
C61	C	0.684320	1.075241	-0.070703
C62	C	0.732837	1.143653	-0.070832
H63	H	0.749416	1.022704	-0.000024
H64	H	0.688845	1.061889	0.047944
H65	H	0.693512	1.046669	-0.118616
H66	H	0.632945	1.085868	-0.070675
H67	H	0.723651	1.172231	-0.022906
H68	H	0.784219	1.133039	-0.070873
H69	H	0.723536	1.172115	-0.118811
H70	H	0.508516	0.766743	0.000123
H71	H	0.144388	1.023319	0.000110
C72	C	0.043857	0.296508	0.000087
C73	C	0.105073	0.253050	0.000076
C74	C	0.173509	0.301528	0.000040
H75	H	0.046343	0.327700	0.048021
H76	H	0.046274	0.327674	-0.047879
H77	H	0.102657	0.221898	0.048037
H78	H	0.102612	0.221860	-0.047854
H79	H	0.175927	0.332694	-0.047926
H80	H	0.175988	0.332718	0.047975
H81	H	0.215052	0.272049	0.000025
C82	C	0.005661	1.001413	0.808041
C83	C	0.080020	0.989285	0.786989
C84	C	0.131693	1.040811	0.830152
H85	H	-0.001610	0.994087	0.865794
H86	H	-0.002449	1.051923	0.793834
H87	H	0.088127	0.938787	0.801202
H88	H	0.087316	0.996618	0.729244
H89	H	0.123583	1.091322	0.815945
H90	H	0.124415	1.033481	0.887902
H91	H	0.182151	1.032594	0.815868
C92	C	-0.209314	0.786220	0.372502
C93	C	-0.197115	0.711871	0.351481
C94	C	-0.248551	0.660175	0.394706
H95	H	-0.259852	0.794240	0.358340
H96	H	-0.201933	0.793559	0.430251
H97	H	-0.204502	0.704535	0.293744
H98	H	-0.146588	0.703827	0.365644
H99	H	-0.241170	0.667514	0.452456
H100	H	-0.299085	0.668201	0.380541
H101	H	-0.240276	0.609723	0.380455
C102	C	0.533370	1.035824	0.000012
C103	C	0.488557	1.040574	-0.070715
C104	C	0.458117	1.110119	-0.070855
H105	H	0.573555	1.076404	-0.000030
H106	H	0.502920	1.039191	0.047934
H107	H	0.519005	1.037215	-0.118625
H108	H	0.448360	1.000010	-0.070689
H109	H	0.427667	1.113486	-0.022933
H110	H	0.498307	1.150694	-0.070894
H111	H	0.427703	1.113348	-0.118838
H112	H	-0.229090	0.504346	0.000059
C113	C	-0.209330	0.786253	0.808085
C114	C	-0.197125	0.711904	0.787068
C115	C	-0.248557	0.660206	0.830297
H116	H	-0.259868	0.794267	0.793924
H117	H	-0.201947	0.793595	0.865833
H118	H	-0.204513	0.704565	0.729332
H119	H	-0.146596	0.703865	0.801231
H120	H	-0.241174	0.667549	0.888046
H121	H	-0.299092	0.668228	0.816133
H122	H	-0.240278	0.609755	0.816049
H123	H	-0.195426	0.800356	0.639369
H124	H	-0.008451	0.987444	0.639386
H125	H	0.287610	1.021036	0.000129
C126	C	0.098132	0.754441	0.000142
C127	C	0.141583	0.693219	0.000167
C128	C	0.093098	0.624787	0.000211
H129	H	0.066935	0.751960	-0.047795
H130	H	0.066972	0.752025	0.048105
H131	H	0.172729	0.695634	-0.047791
H132	H	0.172779	0.695675	0.048100
H133	H	0.061938	0.622371	0.048174
H134	H	0.061903	0.622315	-0.047727
H135	H	0.122572	0.583241	0.000235
C136	C	-0.209521	0.786418	0.192076
C137	C	-0.283882	0.798570	0.213088
C138	C	-0.335551	0.747100	0.169850
H139	H	-0.201467	0.735891	0.206234
H140	H	-0.202189	0.793799	0.134329
H141	H	-0.291211	0.791182	0.270823
H142	H	-0.291960	0.849087	0.198929
H143	H	-0.328219	0.754481	0.112102
H144	H	-0.327490	0.696576	0.184011
H145	H	-0.386011	0.755342	0.184095
H146	H	0.254420	0.770785	0.000102
H147	H	-0.225023	0.250249	0.000073
C148	C	0.005692	1.001319	0.192130
C149	C	0.080039	0.989148	0.213215
C150	C	0.131739	1.040610	0.170025
H151	H	-0.002356	1.051849	0.206277
H152	H	-0.001614	0.993943	0.134375
H153	H	0.087343	0.996531	0.270957
H154	H	0.088111	0.938629	0.199066
H155	H	0.124432	1.033234	0.112271
H156	H	0.123684	1.091136	0.184176
H157	H	0.182189	1.032354	0.184320
C158	C	0.039973	0.529153	0.000069
C159	C	0.026456	0.449613	0.000047
C160	C	0.095976	0.419126	0.000010
H161	H	0.068163	0.545765	0.048007
H162	H	0.068108	0.545806	-0.047893
H163	H	-0.001667	0.432966	0.048004
H164	H	-0.001723	0.432979	-0.047888
H165	H	0.124111	0.435779	-0.047952
H166	H	0.124161	0.435744	0.047949
H167	H	0.086814	0.365155	-0.000012
H168	H	-0.222732	0.107028	0.000085
H169	H	0.027517	0.140223	0.000130
H170	H	0.018868	0.680747	0.000096
