data_functionalizedCrystal
_audit_creation_method	'MofGen! by Chris Wilmer'
_symmetry_space_group_name_H-M	'P1'
_symmetry_Int_Tables_number	1
_symmetry_cell_setting	triclinic
loop_
_symmetry_equiv_pos_as_xyz
  x,y,z
_cell_length_a	11.169417
_cell_length_b	19.077432
_cell_length_c	11.169409
_cell_angle_alpha	92.335551
_cell_angle_beta	90.019513
_cell_angle_gamma	87.728377
loop_
_atom_site_label
_atom_site_type_symbol
_atom_site_fract_x
_atom_site_fract_y
_atom_site_fract_z
Zn1	Zn	1.854016	-0.280118	0.659311
Zn2	Zn	2.354016	0.219882	1.159311
Zn3	Zn	1.861913	-0.397837	0.450551
Zn4	Zn	2.361913	0.102163	0.950551
Zn5	Zn	1.653305	-0.280162	0.458644
Zn6	Zn	2.153305	0.219838	0.958644
Zn7	Zn	1.661313	-0.397781	0.651200
Zn8	Zn	2.161313	0.102219	1.151200
O9	O	1.757637	-0.338975	0.554927
O10	O	2.257637	0.161025	1.054927
O11	O	2.023014	-0.295739	0.631626
O12	O	2.523014	0.204261	1.131626
O13	O	1.834194	-0.382269	0.283671
O14	O	2.334194	0.117731	0.783671
O15	O	1.673274	-0.181666	0.492044
O16	O	2.173274	0.318334	0.992044
O17	O	2.028816	-0.382227	0.478251
O18	O	2.528816	0.117773	0.978251
O19	O	1.820735	-0.181634	0.639474
O20	O	2.320735	0.318366	1.139474
O21	O	1.680931	-0.295814	0.289618
O22	O	2.180931	0.204186	0.789618
O23	O	1.486417	-0.295759	0.484180
O24	O	1.986417	0.204241	0.984180
O25	O	1.686922	-0.382131	0.820229
O26	O	2.186922	0.117869	1.320229
O27	O	1.492301	-0.382173	0.625650
O28	O	1.992301	0.117827	1.125650
O29	O	1.828501	-0.295684	0.826188
O30	O	2.328501	0.204316	1.326188
O31	O	1.841960	-0.496320	0.470386
O32	O	2.341960	0.003680	0.970386
O33	O	1.694580	-0.496279	0.617802
O34	O	2.194580	0.003721	1.117802
C35	C	1.445812	-0.338965	0.554914
C36	C	1.945812	0.161035	1.054914
C37	C	1.312413	-0.338978	0.554935
C38	C	1.812413	0.161022	1.054935
C39	C	1.770028	-0.521837	0.542362
C40	C	2.270028	-0.021837	1.042362
C41	C	1.775439	-0.600066	0.537027
C42	C	2.275439	-0.100066	1.037027
C43	C	1.701195	-0.636822	0.611209
C44	C	2.201195	-0.136822	1.111209
C45	C	1.706285	-0.710327	0.606191
C46	C	2.206285	-0.210327	1.106191
C47	C	1.785624	-0.747074	0.526996
C48	C	2.285624	-0.247074	1.026996
C49	C	1.859870	-0.710312	0.452806
C50	C	2.359870	-0.210312	0.952806
C51	C	1.854774	-0.636809	0.457819
C52	C	2.354774	-0.136809	0.957819
C53	C	1.809094	-0.966905	0.503776
C54	C	2.309094	-0.466905	1.003776
C55	C	1.814187	-1.040413	0.498771
C56	C	2.314187	-0.540413	0.998771
C57	C	1.660599	-1.040422	0.652155
C58	C	2.160599	-0.540422	1.152155
C59	C	1.655515	-0.966918	0.657166
C60	C	2.155515	-0.466918	1.157166
C61	C	1.729757	-0.930163	0.582971
C62	C	2.229757	-0.430163	1.082971
N63	N	1.790830	-0.822207	0.521868
N64	N	2.290830	-0.322207	1.021868
N65	N	1.724543	-0.855030	0.588094
N66	N	2.224543	-0.355030	1.088094
C67	C	2.070680	-0.338985	0.554940
C68	C	2.570680	0.161015	1.054940
C69	C	2.204080	-0.338989	0.554946
C70	C	2.704080	0.161011	1.054946
C71	C	1.757724	-0.338896	0.867975
C72	C	2.257724	0.161104	1.367975
C73	C	1.757761	-0.338863	1.001377
C74	C	2.257761	0.161137	1.501377
C75	C	1.745230	-0.155398	0.567567
C76	C	2.245230	0.344602	1.067567
C77	C	1.739943	-0.077169	0.572953
C78	C	2.239943	0.422831	1.072953
C79	C	1.757616	-0.339002	0.243100
C80	C	2.257616	0.160998	0.743100
C81	C	1.757798	-0.338837	0.109712
C82	C	2.257798	0.161163	0.609712
H83	H	1.636594	-0.606907	0.675703
H84	H	2.136594	-0.106907	1.175703
H85	H	1.869547	-0.936984	0.443366
H86	H	2.369547	-0.436984	0.943366
C87	C	1.935858	-0.822982	0.376995
C88	C	2.435858	-0.322982	0.876995
C89	C	1.947064	-0.750703	0.365734
C90	C	2.447064	-0.250703	0.865734
H91	H	1.989691	-0.847915	0.323239
H92	H	2.489691	-0.347915	0.823239
H93	H	1.856070	-0.835074	0.358552
H94	H	2.356070	-0.335074	0.858552
H95	H	1.954234	-0.834977	0.456829
H96	H	2.454234	-0.334977	0.956829
H97	H	1.928680	-0.738707	0.285902
H98	H	2.428680	-0.238707	0.785902
H99	H	2.026871	-0.738607	0.384169
H100	H	2.526871	-0.238607	0.884169
H101	H	1.645817	-0.740250	0.666587
H102	H	2.145817	-0.240250	1.166587
C103	C	1.504177	-0.974313	0.808243
C104	C	2.004177	-0.474313	1.308243
C105	C	1.568281	-0.926527	0.744198
C106	C	2.068281	-0.426527	1.244198
H107	H	1.450316	-0.949376	0.861965
H108	H	1.950316	-0.449376	1.361965
H109	H	1.558422	-1.002924	0.852258
H110	H	2.058422	-0.502924	1.352258
H111	H	1.460304	-1.003039	0.753936
H112	H	1.960304	-0.503039	1.253936
H113	H	1.612161	-0.897804	0.798505
H114	H	2.112161	-0.397804	1.298505
H115	H	1.514029	-0.897904	0.700180
H116	H	2.014029	-0.397904	1.200180
H117	H	1.600154	-1.070356	0.712559
H118	H	2.100154	-0.570356	1.212559
C119	C	1.890049	-1.153086	0.422844
C120	C	2.390049	-0.653086	0.922844
C121	C	1.901297	-1.080808	0.411609
C122	C	2.401297	-0.580808	0.911609
H123	H	1.943801	-1.178023	0.369012
H124	H	2.443801	-0.678023	0.869012
H125	H	1.810229	-1.165150	0.404489
H126	H	2.310229	-0.665150	0.904489
H127	H	1.908510	-1.165103	0.502648
H128	H	2.408510	-0.665103	1.002648
H129	H	1.882828	-1.068790	0.331806
H130	H	2.382828	-0.568790	0.831806
H131	H	1.981136	-1.068739	0.429956
H132	H	2.481136	-0.568739	0.929956
H133	H	1.915230	-0.606883	0.397410
H134	H	2.415230	-0.106883	0.897410
