data_functionalizedCrystal
_audit_creation_method	'MofGen! by Chris Wilmer'
_symmetry_space_group_name_H-M	'P1'
_symmetry_Int_Tables_number	1
_symmetry_cell_setting	triclinic
loop_
_symmetry_equiv_pos_as_xyz
  x,y,z
_cell_length_a	14.044191
_cell_length_b	12.503552
_cell_length_c	14.044220
_cell_angle_alpha	93.839943
_cell_angle_beta	86.809673
_cell_angle_gamma	93.842477
loop_
_atom_site_label
_atom_site_type_symbol
_atom_site_fract_x
_atom_site_fract_y
_atom_site_fract_z
O1	O	1.282215	0.089273	-0.225150
O2	O	1.005543	0.089287	-0.216836
O3	O	1.139726	0.089270	-0.082658
O4	O	1.148032	0.089291	-0.359328
O5	O	1.129622	-0.089372	-0.092758
O6	O	0.995440	-0.089354	-0.226936
O7	O	1.272112	-0.089368	-0.235250
Cu8	Cu	1.132853	-0.105672	-0.232015
Cu9	Cu	1.144802	0.105591	-0.220071
O10	O	1.137929	-0.089351	-0.369428
C11	C	0.964870	-0.000032	-0.218250
C12	C	0.858727	-0.000027	-0.207402
C13	C	0.613268	-0.000034	-0.264503
C14	C	0.664393	-0.000038	-0.187587
C15	C	0.772531	-0.000032	-0.198615
C16	C	0.505121	-0.000040	-0.253477
N17	N	1.124457	-0.254264	-0.240416
C18	C	1.165552	-0.526702	-0.199302
C19	C	1.112113	-0.473372	-0.252774
C20	C	1.118983	-0.351449	-0.245896
C21	C	1.158683	-0.648636	-0.206179
C22	C	1.312785	-0.000046	-0.233836
C23	C	1.418929	-0.000044	-0.244683
C24	C	1.131038	-0.000051	-0.052086
C25	C	1.120194	-0.000052	0.054057
N26	N	1.153205	0.254183	-0.211663
C27	C	1.146617	-0.000027	-0.400000
C28	C	1.157462	-0.000020	-0.506143
C29	C	1.100368	-0.000036	0.248396
C30	C	1.177283	-0.000036	0.299524
C31	C	1.166252	-0.000027	0.407661
C32	C	1.111398	-0.000045	0.140249
H33	H	1.061203	-0.519281	-0.303719
O34	O	1.226426	-0.472072	-0.138593
C35	C	1.320733	-0.499439	-0.163656
H36	H	1.319199	-0.581125	-0.204983
H37	H	1.357809	-0.436174	-0.210167
C38	C	1.377620	-0.404122	-0.021621
C39	C	1.375737	-0.504455	-0.072373
H40	H	1.411551	-0.407212	0.034686
H41	H	1.314085	-0.385681	-0.004736
H42	H	1.408515	-0.351412	-0.060390
H43	H	1.344832	-0.557160	-0.033608
H44	H	1.439269	-0.522905	-0.089249
O45	O	0.658084	0.000030	-0.352865
C46	C	0.757640	0.000008	-0.344342
H47	H	0.776503	0.033816	-0.269864
H48	H	0.780921	-0.085692	-0.356117
C49	C	0.786289	0.028560	-0.511207
C50	C	0.809458	0.070092	-0.419735
H51	H	0.818254	0.071787	-0.557715
H52	H	0.719216	0.028571	-0.516951
H53	H	0.805691	-0.042856	-0.521006
H54	H	0.790045	0.141501	-0.409933
H55	H	0.876529	0.070095	-0.413991
O56	O	1.265653	-0.000099	0.254710
C57	C	1.257142	-0.000080	0.155153
H58	H	1.182666	-0.033890	0.136282
H59	H	1.268922	0.085619	0.131866
C60	C	1.424010	-0.028628	0.126526
C61	C	1.332539	-0.070163	0.103348
H62	H	1.470520	-0.071854	0.094570
H63	H	1.429745	-0.028637	0.193600
H64	H	1.433813	0.042787	0.107120
H65	H	1.322733	-0.141572	0.122765
H66	H	1.326804	-0.070168	0.036276
O67	O	1.011873	-0.000176	0.292937
C68	C	0.956770	-0.092713	0.261000
H69	H	0.986769	-0.123562	0.187946
H70	H	0.959393	-0.157496	0.314016
C71	C	0.815669	-0.026725	0.342904
C72	C	0.852509	-0.064609	0.253175
H73	H	0.751354	-0.009392	0.338081
H74	H	0.852793	0.035617	0.364424
H75	H	0.817863	-0.080717	0.387075
H76	H	0.850325	-0.010613	0.209009
H77	H	0.815382	-0.126942	0.231647
O78	O	0.619849	0.000106	-0.099086
C79	C	0.651798	0.092643	-0.043991
H80	H	0.724852	0.123486	-0.073997
H81	H	0.598787	0.157428	-0.046614
C82	C	0.569898	0.026663	0.097119
C83	C	0.659628	0.064540	0.060271
H84	H	0.574723	0.009331	0.161434
H85	H	0.548370	-0.035679	0.060001
H86	H	0.525731	0.080657	0.094925
H87	H	0.703790	0.010542	0.062454
H88	H	0.681163	0.126873	0.097392
