data_functionalizedCrystal
_audit_creation_method	'MofGen! by Chris Wilmer'
_symmetry_space_group_name_H-M	'P1'
_symmetry_Int_Tables_number	1
_symmetry_cell_setting	triclinic
loop_
_symmetry_equiv_pos_as_xyz
  x,y,z
_cell_length_a	16.992694
_cell_length_b	12.996460
_cell_length_c	14.519731
_cell_angle_alpha	89.988498
_cell_angle_beta	92.821461
_cell_angle_gamma	89.999814
loop_
_atom_site_label
_atom_site_type_symbol
_atom_site_fract_x
_atom_site_fract_y
_atom_site_fract_z
O1	O	1.040679	0.085459	-0.195571
O2	O	1.540679	0.585459	0.304429
O3	O	0.812391	0.085489	-0.193425
O4	O	1.312391	0.585489	0.306575
O5	O	0.932579	0.085452	-0.060695
O6	O	1.432579	0.585452	0.439305
O7	O	0.920491	0.085495	-0.328302
O8	O	1.420491	0.585495	0.171698
O9	O	0.932567	-0.085682	-0.060686
O10	O	1.432567	0.414318	0.439314
O11	O	0.812378	-0.085645	-0.193417
O12	O	1.312378	0.414355	0.306583
O13	O	1.040667	-0.085675	-0.195562
O14	O	1.540667	0.414325	0.304438
Cu15	Cu	0.926521	-0.101286	-0.194489
Cu16	Cu	1.426521	0.398714	0.305511
Cu17	Cu	0.926536	0.101100	-0.194499
Cu18	Cu	1.426536	0.601100	0.305501
O19	O	0.920479	-0.085639	-0.328293
O20	O	1.420479	0.414361	0.171707
C21	C	0.783168	-0.000075	-0.190661
C22	C	1.283168	0.499925	0.309339
C23	C	0.696112	-0.000064	-0.182426
C24	C	1.196112	0.499936	0.317574
N25	N	0.926517	-0.243633	-0.194481
N26	N	1.426517	0.256367	0.305519
C27	C	0.645988	-0.000052	-0.261885
C28	C	1.145988	0.499948	0.238115
C29	C	0.564190	-0.000068	-0.254142
C30	C	1.064190	0.499932	0.245858
C31	C	0.532517	-0.000088	-0.166938
C32	C	1.032517	0.499912	0.333062
C33	C	0.582648	-0.000103	-0.087473
C34	C	1.082648	0.499897	0.412527
C35	C	0.664444	-0.000095	-0.095217
C36	C	1.164444	0.499905	0.404783
C37	C	0.288873	-0.000120	-0.134841
C38	C	0.788873	0.499880	0.365159
C39	C	0.207070	-0.000125	-0.127103
C40	C	0.707070	0.499875	0.372897
C41	C	0.188618	-0.000092	-0.293773
C42	C	0.688618	0.499908	0.206227
C43	C	0.270416	-0.000078	-0.301509
C44	C	0.770416	0.499922	0.198491
C45	C	0.320539	-0.000098	-0.222044
C46	C	0.820539	0.499902	0.277956
N47	N	0.448907	-0.000100	-0.159021
N48	N	0.948907	0.499900	0.340979
N49	N	0.404148	-0.000093	-0.229962
N50	N	0.904148	0.499907	0.270038
C51	C	0.926535	-0.663447	-0.194500
C52	C	1.426535	-0.163447	0.305500
C53	C	0.926528	-0.546642	-0.194498
C54	C	1.426528	-0.046642	0.305502
C55	C	0.926526	-0.453544	-0.194491
C56	C	1.426526	0.046456	0.305509
C57	C	0.926518	-0.336731	-0.194488
C58	C	1.426518	0.163269	0.305512
C59	C	1.069890	-0.000110	-0.198327
C60	C	1.569890	0.499890	0.301673
C61	C	1.156946	-0.000113	-0.206562
C62	C	1.656946	0.499887	0.293438
C63	C	0.932006	-0.000118	-0.026290
C64	C	1.432006	0.499882	0.473710
C65	C	0.930309	-0.000127	0.076212
C66	C	1.430309	0.499873	0.576212
N67	N	0.926547	0.243447	-0.194500
N68	N	1.426547	0.743447	0.305500
C69	C	0.928930	-0.000132	0.159455
C70	C	1.428930	0.499868	0.659455
C71	C	0.927207	-0.000132	0.263887
C72	C	1.427207	0.499868	0.763887
C73	C	0.925839	-0.000133	0.347124
C74	C	1.425839	0.499867	0.847124
C75	C	0.924116	-0.000135	0.451563
C76	C	1.424116	0.499865	0.951563
C77	C	0.921051	-0.000088	0.637303
C78	C	1.421051	0.499912	1.137303
C79	C	0.922748	-0.000136	0.534801
C80	C	1.422748	0.499864	1.034801
H81	H	0.671769	-0.000035	-0.332896
H82	H	1.171769	0.499965	0.167104
H83	H	0.523382	-0.000057	-0.318846
H84	H	1.023382	0.499943	0.181154
H85	H	0.181286	-0.000141	-0.056087
H86	H	0.681286	0.499859	0.443913
C87	C	0.305250	-0.000071	-0.397433
C88	C	0.805250	0.499929	0.102567
H89	H	0.263682	-0.000077	-0.443649
H90	H	0.763682	0.499923	0.056351
H91	H	0.336775	0.059608	-0.403926
H92	H	0.836775	0.559608	0.096074
H93	H	0.336776	-0.059756	-0.403909
H94	H	0.836776	0.440244	0.096091
H95	H	0.329674	-0.000138	-0.070134
H96	H	0.829674	0.499862	0.429866
C97	C	0.133482	-0.000083	-0.381176
C98	C	0.633482	0.499917	0.118824
H99	H	0.080230	-0.000099	-0.364078
H100	H	0.580230	0.499901	0.135922
H101	H	0.143091	0.059600	-0.416692
H102	H	0.643091	0.559600	0.083308
H103	H	0.143101	-0.059764	-0.416677
H104	H	0.643101	0.440236	0.083323
C105	C	0.547810	-0.000123	0.008450
C106	C	1.047810	0.499877	0.508450
H107	H	0.491916	-0.000115	0.001683
H108	H	0.991916	0.499885	0.501683
H109	H	0.565008	-0.059805	0.041425
H110	H	1.065008	0.440195	0.541425
H111	H	0.565006	0.059559	0.041415
H112	H	1.065006	0.559559	0.541415
C113	C	0.719580	-0.000098	-0.007812
C114	C	1.219580	0.499902	0.492188
H115	H	0.689004	-0.000099	0.045233
H116	H	1.189004	0.499901	0.545233
H117	H	0.751878	-0.059771	-0.007363
H118	H	1.251878	0.440229	0.492637
H119	H	0.751867	0.059593	-0.007374
H120	H	1.251867	0.559593	0.492626
