data_functionalizedCrystal
_audit_creation_method	'MofGen! by Chris Wilmer'
_symmetry_space_group_name_H-M	'P1'
_symmetry_Int_Tables_number	1
_symmetry_cell_setting	triclinic
loop_
_symmetry_equiv_pos_as_xyz
  x,y,z
_cell_length_a	18.215407
_cell_length_b	18.050589
_cell_length_c	18.215399
_cell_angle_alpha	89.973988
_cell_angle_beta	89.983176
_cell_angle_gamma	90.028669
loop_
_atom_site_label
_atom_site_type_symbol
_atom_site_fract_x
_atom_site_fract_y
_atom_site_fract_z
Zn1	Zn	1.125033	-0.295641	-0.416138
Zn2	Zn	1.458366	0.037693	-0.082805
Zn3	Zn	1.791700	0.371026	0.250529
Zn4	Zn	1.124941	-0.419841	-0.293081
Zn5	Zn	1.458274	-0.086507	0.040252
Zn6	Zn	1.791607	0.246826	0.373586
Zn7	Zn	1.001972	-0.295670	-0.293085
Zn8	Zn	1.335305	0.037663	0.040248
Zn9	Zn	1.668639	0.370997	0.373581
Zn10	Zn	1.001924	-0.419794	-0.416106
Zn11	Zn	1.335258	-0.086461	-0.082773
Zn12	Zn	1.668591	0.246872	0.250561
O13	O	1.063468	-0.357736	-0.354603
O14	O	1.396801	-0.024403	-0.021269
O15	O	1.730134	0.308930	0.312064
O16	O	1.228005	-0.312123	-0.399826
O17	O	1.561338	0.021210	-0.066493
O18	O	1.894672	0.354544	0.266841
O19	O	1.108610	-0.403401	-0.190097
O20	O	1.441943	-0.070068	0.143236
O21	O	1.775277	0.263266	0.476569
O22	O	1.018355	-0.191742	-0.309424
O23	O	1.351688	0.141592	0.023909
O24	O	1.685022	0.474925	0.357243
O25	O	1.227937	-0.403372	-0.309417
O26	O	1.561271	-0.070039	0.023917
O27	O	1.894604	0.263294	0.357250
O28	O	1.108767	-0.191720	-0.399830
O29	O	1.442101	0.141613	-0.066497
O30	O	1.775434	0.474947	0.266837
O31	O	1.018265	-0.312173	-0.190101
O32	O	1.351599	0.021160	0.143233
O33	O	1.684932	0.354493	0.476566
O34	O	0.898981	-0.312128	-0.309393
O35	O	1.232315	0.021205	0.023941
O36	O	1.565648	0.354538	0.357274
O37	O	1.018274	-0.403293	-0.519095
O38	O	1.351607	-0.069960	-0.185761
O39	O	1.684940	0.263374	0.147572
O40	O	0.898946	-0.403322	-0.399775
O41	O	1.232280	-0.069988	-0.066442
O42	O	1.565613	0.263345	0.266891
O43	O	1.108721	-0.312078	-0.519118
O44	O	1.442054	0.021255	-0.185785
O45	O	1.775388	0.354589	0.147549
O46	O	1.108564	-0.523759	-0.309385
O47	O	1.441897	-0.190426	0.023948
O48	O	1.775230	0.142907	0.357281
O49	O	1.018184	-0.523725	-0.399771
O50	O	1.351517	-0.190392	-0.066438
O51	O	1.684851	0.142942	0.266895
C52	C	0.872261	-0.357724	-0.354582
C53	C	1.205595	-0.024390	-0.021248
C54	C	1.538928	0.308943	0.312085
C55	C	0.790462	-0.357736	-0.354590
C56	C	1.123796	-0.024403	-0.021257
C57	C	1.457129	0.308931	0.312077
C58	C	1.063379	-0.550689	-0.354590
C59	C	1.396712	-0.217355	-0.021257
C60	C	1.730045	0.115978	0.312076
C61	C	1.063408	-0.633234	-0.354610
C62	C	1.396741	-0.299901	-0.021277
C63	C	1.730075	0.033432	0.312057
C64	C	0.602269	-0.405295	-0.401593
C65	C	0.935603	-0.071962	-0.068260
C66	C	1.268936	0.261371	0.265073
C67	C	0.525411	-0.405298	-0.401602
C68	C	0.858744	-0.071964	-0.068269
C69	C	1.192077	0.261369	0.265064
C70	C	0.525418	-0.310191	-0.307628
C71	C	0.858751	0.023142	0.025705
C72	C	1.192084	0.356476	0.359038
C73	C	0.602275	-0.310185	-0.307623
C74	C	0.935608	0.023148	0.025710
C75	C	1.268942	0.356481	0.359043
C76	C	0.640699	-0.357742	-0.354605
C77	C	0.974032	-0.024408	-0.021271
C78	C	1.307366	0.308925	0.312062
C79	C	0.486983	-0.357750	-0.354619
C80	C	0.820316	-0.024416	-0.021285
C81	C	1.153649	0.308917	0.312048
C82	C	0.403649	-0.357752	-0.354628
C83	C	0.736983	-0.024418	-0.021295
C84	C	1.070316	0.308915	0.312038
C85	C	0.724038	-0.357739	-0.354596
C86	C	1.057371	-0.024406	-0.021263
C87	C	1.390705	0.308928	0.312070
C88	C	1.014308	-0.832693	-0.403744
C89	C	1.347641	-0.499360	-0.070411
C90	C	1.680975	-0.166027	0.262922
C91	C	0.996372	-0.882137	-0.336590
C92	C	1.329705	-0.548803	-0.003257
C93	C	1.663038	-0.215470	0.330076
C94	C	1.063480	-0.784365	-0.354619
C95	C	1.396814	-0.451031	-0.021286
C96	C	1.730147	-0.117698	0.312047
C97	C	1.081453	-0.882003	-0.421781
C98	C	1.414786	-0.548670	-0.088448
C99	C	1.748119	-0.215336	0.244885
C100	C	1.063549	-0.930350	-0.354635
C101	C	1.396882	-0.597016	-0.021301
C102	C	1.730215	-0.263683	0.312032
C103	C	1.045509	-0.832721	-0.287430
C104	C	1.378842	-0.499387	0.045904
C105	C	1.712176	-0.166054	0.379237
C106	C	1.130621	-0.832583	-0.372666
C107	C	1.463954	-0.499249	-0.039333
C108	C	1.797288	-0.165916	0.294001
C109	C	1.112710	-0.882004	-0.305466
C110	C	1.446044	-0.548670	0.027868
C111	C	1.779377	-0.215337	0.361201
C112	C	1.063439	-0.700266	-0.354612
C113	C	1.396772	-0.366933	-0.021278
C114	C	1.730106	-0.033600	0.312055
C115	C	1.063590	-1.014446	-0.354635
C116	C	1.396924	-0.681113	-0.021301
C117	C	1.730257	-0.347780	0.312032
C118	C	1.255420	-0.357750	-0.354624
C119	C	1.588754	-0.024416	-0.021291
C120	C	1.922087	0.308917	0.312042
C121	C	1.337219	-0.357755	-0.354634
C122	C	1.670553	-0.024422	-0.021300
C123	C	2.003886	0.308911	0.312033
C124	C	1.063502	-0.357677	-0.546556
C125	C	1.396836	-0.024344	-0.213222
C126	C	1.730169	0.308990	0.120111
C127	C	1.063517	-0.357652	-0.628355
C128	C	1.396850	-0.024318	-0.295021
C129	C	1.730184	0.309015	0.038312
C130	C	1.063577	-0.164031	-0.354631
C131	C	1.396910	0.169303	-0.021298
C132	C	1.730243	0.502636	0.312036
C133	C	1.063623	-0.081485	-0.354643
C134	C	1.396957	0.251848	-0.021310
C135	C	1.730290	0.585182	0.312024
C136	C	1.016515	-0.310117	-0.816551
C137	C	1.349848	0.023216	-0.483218
C138	C	1.683181	0.356549	-0.149885
C139	C	1.016527	-0.310103	-0.893410
C140	C	1.349861	0.023231	-0.560077
C141	C	1.683194	0.356564	-0.226743
C142	C	1.110608	-0.405098	-0.893396
C143	C	1.443941	-0.071764	-0.560063
C144	C	1.777274	0.261569	-0.226729
C145	C	1.110591	-0.405116	-0.816539
C146	C	1.443924	-0.071782	-0.483205
C147	C	1.777257	0.261551	-0.149872
C148	C	1.063545	-0.357621	-0.778118
C149	C	1.396879	-0.024288	-0.444785
C150	C	1.730212	0.309045	-0.111452
C151	C	1.063575	-0.357588	-0.931834
C152	C	1.396908	-0.024255	-0.598501
C153	C	1.730242	0.309078	-0.265168
C154	C	1.063589	-0.357572	-1.015168
C155	C	1.396923	-0.024239	-0.681835
C156	C	1.730256	0.309094	-0.348501
C157	C	1.063530	-0.357638	-0.694779
C158	C	1.396863	-0.024305	-0.361446
C159	C	1.730196	0.309029	-0.028113
C160	C	1.063475	-0.357742	-0.163396
C161	C	1.396809	-0.024409	0.169937
C162	C	1.730142	0.308925	0.503270
C163	C	1.063603	-0.357558	-0.081598
C164	C	1.396936	-0.024225	0.251735
C165	C	1.730270	0.309109	0.585069
H166	H	0.633552	-0.444017	-0.439850
H167	H	0.966885	-0.110683	-0.106517
H168	H	1.300219	0.222650	0.226816
H169	H	0.494124	-0.271473	-0.269377
H170	H	0.827457	0.061860	0.063957
H171	H	1.160790	0.395193	0.397290
H172	H	0.633565	-0.271457	-0.269360
H173	H	0.966898	0.061876	0.063974
H174	H	1.300232	0.395210	0.397307
H175	H	0.494125	-0.444019	-0.439866
H176	H	0.827458	-0.110686	-0.106533
H177	H	1.160792	0.222647	0.226800
H178	H	1.148911	-0.443765	-0.924687
H179	H	1.482244	-0.110432	-0.591354
H180	H	1.815578	0.222902	-0.258021
H181	H	0.978207	-0.271445	-0.785272
H182	H	1.311540	0.061889	-0.451938
H183	H	1.644874	0.395222	-0.118605
H184	H	0.939625	-0.903919	-0.321340
H185	H	1.272958	-0.570586	0.011993
H186	H	1.606292	-0.237253	0.345326
H187	H	0.972663	-0.811041	-0.445229
H188	H	1.305997	-0.477708	-0.111896
H189	H	1.639330	-0.144374	0.221438
H190	H	1.187355	-0.810802	-0.387948
H191	H	1.520688	-0.477469	-0.054615
H192	H	1.854021	-0.144135	0.278718
H193	H	1.148891	-0.443802	-0.785246
H194	H	1.482224	-0.110469	-0.451912
H195	H	1.815557	0.222865	-0.118579
H196	H	1.030269	-0.811162	-0.230622
H197	H	1.363603	-0.477829	0.102711
H198	H	1.696936	-0.144496	0.436045
H199	H	0.978230	-0.271421	-0.924699
H200	H	1.311563	0.061913	-0.591365
H201	H	1.644896	0.395246	-0.258032
H202	H	1.096626	-0.903651	-0.478573
H203	H	1.429960	-0.570318	-0.145240
H204	H	1.763293	-0.236984	0.188093
H205	H	1.154323	-0.903519	-0.263881
H206	H	1.487657	-0.570186	0.069453
H207	H	1.820990	-0.236852	0.402786
