data_functionalizedCrystal
_audit_creation_method	'MofGen! by Chris Wilmer'
_symmetry_space_group_name_H-M	'P1'
_symmetry_Int_Tables_number	1
_symmetry_cell_setting	triclinic
loop_
_symmetry_equiv_pos_as_xyz
  x,y,z
_cell_length_a	10.654550
_cell_length_b	15.186229
_cell_length_c	16.109301
_cell_angle_alpha	90.005167
_cell_angle_beta	96.026794
_cell_angle_gamma	89.999884
loop_
_atom_site_label
_atom_site_type_symbol
_atom_site_fract_x
_atom_site_fract_y
_atom_site_fract_z
O1	O	1.666255	-0.073166	-0.116773
O2	O	1.300626	-0.073182	-0.127898
O3	O	1.493485	-0.073165	-0.001364
O4	O	1.473396	-0.073184	-0.243307
O5	O	1.493472	0.073292	-0.001363
O6	O	1.300613	0.073275	-0.127897
O7	O	1.666242	0.073291	-0.116771
Zn8	Zn	1.483425	0.096536	-0.122334
Zn9	Zn	1.483442	-0.096427	-0.122336
O10	O	1.473383	0.073274	-0.243305
C11	C	1.253832	0.000044	-0.127081
C12	C	1.114422	0.000038	-0.124637
N13	N	1.483423	0.228229	-0.122331
N14	N	1.483455	-0.228120	-0.122332
C15	C	1.033926	0.000035	-0.199138
C16	C	0.902936	0.000050	-0.196836
C17	C	0.932952	0.000069	-0.045526
C18	C	1.063939	0.000060	-0.047828
C19	C	0.705901	0.051365	-0.284580
C20	C	0.625400	0.051347	-0.359086
C21	C	0.654655	0.000015	-0.426627
C22	C	0.764409	-0.051319	-0.419667
C23	C	0.844905	-0.051308	-0.345160
C24	C	0.815651	0.000044	-0.277622
C25	C	1.260975	-0.051263	0.039910
C26	C	1.341473	-0.051258	0.114418
C27	C	1.312222	0.000068	0.181966
C28	C	1.202465	0.051389	0.175014
C29	C	1.121967	0.051384	0.100507
C30	C	1.151228	0.000060	0.032958
C31	C	1.713036	0.000063	-0.117589
C32	C	1.852446	0.000063	-0.120033
C33	C	1.492664	0.000064	0.029616
C34	C	1.490225	0.000065	0.121926
C35	C	1.568850	0.453960	-0.066321
C36	C	1.568854	0.546149	-0.066319
C37	C	1.398019	0.546143	-0.178344
C38	C	1.398010	0.453955	-0.178342
C39	C	1.483432	0.407866	-0.122331
C40	C	1.483445	0.592243	-0.122332
C41	C	1.483449	0.692199	-0.122330
C42	C	1.483428	0.307903	-0.122332
C43	C	1.474203	0.000043	-0.274286
C44	C	1.476643	0.000036	-0.366596
C45	C	1.598991	0.000056	0.343552
C46	C	1.596689	0.000049	0.430286
C47	C	1.367868	0.000042	0.411772
C48	C	1.370172	0.000043	0.325039
C49	C	1.485737	0.000055	0.290932
C50	C	1.481131	0.000046	0.464398
C51	C	1.478634	0.000038	0.558439
C52	C	1.488234	0.000061	0.196885
H53	H	0.934255	-0.093113	-0.339489
H54	H	0.536039	0.093149	-0.364747
C55	C	1.305083	0.596141	-0.239058
C56	C	1.181688	0.573744	-0.224801
C57	C	1.096042	0.619792	-0.280709
H58	H	1.318520	0.581064	-0.294667
H59	H	1.317239	0.657655	-0.231034
H60	H	1.169536	0.512244	-0.232833
H61	H	1.168210	0.588824	-0.169204
H62	H	1.108198	0.681306	-0.272684
H63	H	1.109491	0.604712	-0.336313
H64	H	1.012309	0.604609	-0.271038
H65	H	0.682082	0.093178	-0.229592
H66	H	1.328446	0.416422	-0.223952
C67	C	1.661638	0.404078	-0.005413
C68	C	1.736420	0.464182	0.043654
C69	C	1.821898	0.418267	0.099782
H70	H	1.714019	0.368105	-0.035541
H71	H	1.616506	0.368142	0.029520
H72	H	1.781548	0.500103	0.008725
H73	H	1.684074	0.500157	0.073800
H74	H	1.776766	0.382330	0.134715
H75	H	1.874269	0.382296	0.069647
H76	H	1.872639	0.459040	0.133085
C77	C	1.661396	0.596241	-0.005413
C78	C	1.594533	0.649155	0.045910
C79	C	1.679742	0.695302	0.102038
H80	H	1.713691	0.632271	-0.035544
H81	H	1.712247	0.555613	0.027991
H82	H	1.543704	0.689778	0.012510
H83	H	1.542243	0.613147	0.076060
H84	H	1.730593	0.654675	0.135442
H85	H	1.732033	0.731328	0.071899
H86	H	1.634389	0.731204	0.136872
H87	H	1.273779	0.000034	0.439553
C88	C	1.724585	0.000011	0.306680
C89	C	1.823274	-0.000015	0.371331
C90	C	1.938992	-0.000073	0.337399
H91	H	1.730426	0.051069	0.273246
H92	H	1.730304	-0.051083	0.273250
H93	H	1.817558	0.051074	0.404746
H94	H	1.817475	-0.051070	0.404770
H95	H	1.944711	-0.051168	0.303969
H96	H	1.944819	0.050986	0.303966
H97	H	2.005966	-0.000099	0.381259
H98	H	1.277941	0.000039	0.282194
H99	H	1.688912	0.000048	0.473126
H100	H	0.788214	-0.093121	-0.474667
C101	C	1.088981	-0.000027	-0.282444
C102	C	1.220924	-0.000060	-0.268519
C103	C	1.271679	-0.000128	-0.345242
H104	H	1.061495	0.051030	-0.313217
H105	H	1.061409	-0.051122	-0.313158
H106	H	1.248485	0.051030	-0.237818
H107	H	1.248445	-0.051114	-0.237758
H108	H	1.244107	-0.051223	-0.375956
H109	H	1.244184	0.050930	-0.376009
H110	H	1.361207	-0.000158	-0.335804
C111	C	0.877895	0.000039	0.037779
C112	C	0.745952	0.000020	0.023852
C113	C	0.695195	-0.000022	0.100575
H114	H	0.905394	0.051099	0.068552
H115	H	0.905453	-0.051053	0.068495
H116	H	0.718406	0.051107	-0.006850
H117	H	0.718419	-0.051036	-0.006907
H118	H	0.722752	-0.051113	0.131290
H119	H	0.722703	0.051040	0.131341
H120	H	0.605667	-0.000042	0.091135
C121	C	1.002743	0.107044	0.093112
C122	C	0.925349	0.080310	0.153520
C123	C	0.815519	0.131568	0.146739
H124	H	0.958842	0.099734	0.039116
H125	H	1.024646	0.167265	0.101548
H126	H	0.903445	0.020103	0.145077
H127	H	0.969211	0.087623	0.207524
H128	H	0.837421	0.191789	0.155175
H129	H	0.771629	0.124254	0.092741
H130	H	0.762999	0.113442	0.187729
H131	H	0.589102	0.000002	-0.487291
H132	H	1.377768	0.000057	0.242637
C133	C	1.170643	0.107265	0.248242
C134	C	1.164146	0.195942	0.224399
C135	C	1.134820	0.247435	0.291835
H136	H	1.234240	0.100033	0.293653
H137	H	1.091539	0.089281	0.264740
H138	H	1.243239	0.213920	0.207913
H139	H	1.100546	0.203201	0.178998
H140	H	1.055716	0.229451	0.308332
H141	H	1.198422	0.240196	0.337242
H142	H	1.130397	0.307607	0.275665
H143	H	1.284808	-0.093055	-0.015093
H144	H	1.430820	-0.093074	0.120084
