data_functionalizedCrystal
_audit_creation_method	'MofGen! by Chris Wilmer'
_symmetry_space_group_name_H-M	'P1'
_symmetry_Int_Tables_number	1
_symmetry_cell_setting	triclinic
loop_
_symmetry_equiv_pos_as_xyz
  x,y,z
_cell_length_a	10.540510
_cell_length_b	10.540510
_cell_length_c	18.366186
_cell_angle_alpha	89.996284
_cell_angle_beta	89.990723
_cell_angle_gamma	84.513311
loop_
_atom_site_label
_atom_site_type_symbol
_atom_site_fract_x
_atom_site_fract_y
_atom_site_fract_z
O1	O	1.685898	0.178725	-0.060550
O2	O	1.316479	0.195620	-0.060550
O3	O	1.509636	0.002463	-0.060550
O4	O	1.492741	0.371882	-0.060550
O5	O	1.509603	0.002453	0.060550
O6	O	1.316445	0.195610	0.060549
O7	O	1.685865	0.178715	0.060550
Zn8	Zn	1.501150	0.187161	0.079777
Zn9	Zn	1.501194	0.187174	-0.079777
O10	O	1.492707	0.371872	0.060549
C11	C	1.269159	0.194356	-0.000000
C12	C	1.128209	0.190589	-0.000000
C13	C	0.910739	0.324775	-0.000279
C14	C	1.057334	0.328793	-0.000002
C15	C	1.083438	0.119837	0.069152
C16	C	0.936677	0.116797	0.069205
C17	C	0.936909	0.113930	-0.068507
C18	C	1.083250	0.120486	-0.069417
C19	C	1.508361	-0.044846	-0.000001
C20	C	1.504594	-0.185795	-0.000006
C21	C	1.638780	-0.403265	0.000272
C22	C	1.642798	-0.256670	-0.000005
C23	C	1.433866	-0.230541	-0.069158
C24	C	1.430826	-0.377301	-0.069212
C25	C	1.427910	-0.377121	0.068500
C26	C	1.434466	-0.230781	0.069411
C27	C	1.733185	0.179979	-0.000002
C28	C	1.874135	0.183746	-0.000006
C29	C	1.493983	0.419181	-0.000001
C30	C	1.497750	0.560130	-0.000001
N31	N	1.501129	0.187151	0.188668
N32	N	1.501224	0.187174	-0.188668
C33	C	1.586688	0.101664	0.226768
C34	C	1.586696	0.101658	0.302996
C35	C	1.501158	0.187162	0.341121
C36	C	1.415583	0.272656	0.303011
C37	C	1.415568	0.272651	0.226784
C38	C	1.485561	0.302630	0.461881
C39	C	1.485584	0.302637	0.538106
C40	C	1.501194	0.187178	0.576228
C41	C	1.516808	0.071708	0.538116
C42	C	1.516793	0.071703	0.461890
C43	C	1.501163	0.187177	0.423775
C44	C	1.586766	0.101678	0.696983
C45	C	1.586765	0.101670	0.773213
C46	C	1.415658	0.272679	0.773226
C47	C	1.415652	0.272676	0.696998
C48	C	1.501213	0.187176	0.658881
H49	H	0.896441	0.165142	0.120897
Br50	Br	1.702879	-0.014368	0.824925
H51	H	1.472879	0.396660	0.569130
H52	H	0.867213	0.378304	0.049033
H53	H	0.894371	0.157518	-0.120921
Br54	Br	1.131023	0.206242	-0.154689
Br55	Br	1.538009	-0.084997	0.589843
H56	H	1.333565	-0.181703	0.073586
H57	H	1.656431	0.032055	0.665948
Br58	Br	1.299555	0.388708	0.824960
Br59	Br	1.299536	0.388703	0.645284
Br60	Br	1.735616	-0.209316	-0.082771
Br61	Br	1.165041	-0.047694	-0.076377
Br62	Br	1.299484	0.388690	0.354748
Br63	Br	1.162420	-0.049751	0.073438
H64	H	1.656354	0.032042	0.195736
H65	H	1.472828	0.396656	0.430848
H66	H	1.332123	-0.183141	-0.071729
Br67	Br	1.299443	0.388677	0.175072
H68	H	1.698139	-0.227336	0.049565
Br69	Br	1.728508	-0.473204	0.082931
Br70	Br	1.515776	-0.179122	-0.154936
Br71	Br	1.106266	0.421055	-0.082624
Br72	Br	0.900016	-0.059017	-0.069284
H73	H	0.913692	0.013429	0.072347
H74	H	0.868794	0.378622	-0.049872
Br75	Br	1.104656	0.421588	0.082762
H76	H	1.471816	-0.419312	0.120918
H77	H	1.114273	0.168965	0.120615
Br78	Br	1.728035	-0.475778	-0.081916
Br79	Br	1.511442	-0.444340	-0.155366
Br80	Br	1.520230	-0.183099	0.154682
Br81	Br	1.258547	-0.415618	-0.074447
Br82	Br	1.254964	-0.414019	0.069279
H83	H	1.656371	0.032041	0.334023
H84	H	1.529503	-0.022317	0.430862
