data_functionalizedCrystal
_audit_creation_method	'MofGen! by Chris Wilmer'
_symmetry_space_group_name_H-M	'P1'
_symmetry_Int_Tables_number	1
_symmetry_cell_setting	triclinic
loop_
_symmetry_equiv_pos_as_xyz
  x,y,z
_cell_length_a	11.169417
_cell_length_b	18.050589
_cell_length_c	11.169409
_cell_angle_alpha	89.967150
_cell_angle_beta	89.980487
_cell_angle_gamma	90.029470
loop_
_atom_site_label
_atom_site_type_symbol
_atom_site_fract_x
_atom_site_fract_y
_atom_site_fract_z
Zn1	Zn	1.834813	-0.295575	-0.678528
Zn2	Zn	2.168147	0.037759	-0.345195
Zn3	Zn	2.501480	0.371092	-0.011862
Zn4	Zn	1.834640	-0.419790	-0.477844
Zn5	Zn	2.167973	-0.086456	-0.144510
Zn6	Zn	2.501307	0.246877	0.188823
Zn7	Zn	1.634099	-0.295621	-0.477864
Zn8	Zn	1.967432	0.037713	-0.144531
Zn9	Zn	2.300766	0.371046	0.188803
Zn10	Zn	1.634044	-0.419730	-0.678490
Zn11	Zn	1.967377	-0.086397	-0.345156
Zn12	Zn	2.300711	0.246937	-0.011823
O13	O	1.734399	-0.357679	-0.578181
O14	O	2.067732	-0.024345	-0.244848
O15	O	2.401066	0.308988	0.088485
O16	O	2.002740	-0.312058	-0.651915
O17	O	2.336073	0.021276	-0.318582
O18	O	2.669407	0.354609	0.014752
O19	O	1.807988	-0.403363	-0.309896
O20	O	2.141322	-0.070029	0.023437
O21	O	2.474655	0.263304	0.356770
O22	O	1.660820	-0.191690	-0.504507
O23	O	1.994153	0.141643	-0.171174
O24	O	2.327486	0.474977	0.162159
O25	O	2.002613	-0.403318	-0.504473
O26	O	2.335946	-0.069985	-0.171139
O27	O	2.669279	0.263349	0.162194
O28	O	1.808284	-0.191656	-0.651935
O29	O	2.141617	0.141677	-0.318601
O30	O	2.474950	0.475011	0.014732
O31	O	1.660652	-0.312136	-0.309911
O32	O	1.993985	0.021197	0.023422
O33	O	2.327318	0.354530	0.356755
O34	O	1.466142	-0.312078	-0.504470
O35	O	1.799475	0.021255	-0.171136
O36	O	2.132809	0.354588	0.162197
O37	O	1.660726	-0.403216	-0.846445
O38	O	1.994059	-0.069883	-0.513111
O39	O	2.327393	0.263450	-0.179778
O40	O	1.466102	-0.403261	-0.651868
O41	O	1.799435	-0.069928	-0.318535
O42	O	2.132768	0.263406	0.014798
O43	O	1.808230	-0.312000	-0.846473
O44	O	2.141564	0.021334	-0.513140
O45	O	2.474897	0.354667	-0.179806
O46	O	1.807935	-0.523706	-0.504435
O47	O	2.141268	-0.190373	-0.171102
O48	O	2.474602	0.142960	0.162232
O49	O	1.660558	-0.523662	-0.651849
O50	O	1.993891	-0.190329	-0.318515
O51	O	2.327225	0.143004	0.014818
C52	C	1.422574	-0.357669	-0.578168
C53	C	1.755908	-0.024335	-0.244834
C54	C	2.089241	0.308998	0.088499
C55	C	1.289174	-0.357682	-0.578190
C56	C	1.622508	-0.024349	-0.244857
C57	C	1.955841	0.308984	0.088476
C58	C	1.734254	-0.550631	-0.578161
C59	C	2.067588	-0.217298	-0.244828
C60	C	2.400921	0.116036	0.088505
C61	C	1.734302	-0.633177	-0.578193
C62	C	2.067635	-0.299843	-0.244860
C63	C	2.400969	0.033490	0.088474
C64	C	1.654237	-0.832630	-0.658329
C65	C	1.987571	-0.499297	-0.324995
C66	C	2.320904	-0.165964	0.008338
C67	C	1.624974	-0.882082	-0.548814
C68	C	1.958307	-0.548749	-0.215480
C69	C	2.291641	-0.215415	0.117853
C70	C	1.734420	-0.784307	-0.578209
C71	C	2.067753	-0.450974	-0.244875
C72	C	2.401087	-0.117640	0.088458
C73	C	1.763742	-0.881937	-0.687736
C74	C	2.097075	-0.548604	-0.354403
C75	C	2.430409	-0.215270	-0.021070
C76	C	1.734532	-0.930292	-0.578233
C77	C	2.067865	-0.596959	-0.244900
C78	C	2.401198	-0.263625	0.088433
C79	C	1.705099	-0.832671	-0.468636
C80	C	2.038432	-0.499338	-0.135302
C81	C	2.371766	-0.166005	0.198031
C82	C	1.843918	-0.832522	-0.607632
C83	C	2.177252	-0.499189	-0.274299
C84	C	2.510585	-0.165855	0.059034
C85	C	1.814697	-0.881951	-0.498042
C86	C	2.148030	-0.548618	-0.164708
C87	C	2.481363	-0.215285	0.168625
C88	C	1.734353	-0.700209	-0.578196
C89	C	2.067686	-0.366875	-0.244863
C90	C	2.401019	-0.033542	0.088471
C91	C	1.734599	-1.014389	-0.578234
C92	C	2.067932	-0.681055	-0.244900
C93	C	2.401266	-0.347722	0.088433
C94	C	2.047441	-0.357689	-0.578196
C95	C	2.380775	-0.024356	-0.244863
C96	C	2.714108	0.308977	0.088471
C97	C	2.180841	-0.357694	-0.578202
C98	C	2.514175	-0.024360	-0.244869
C99	C	2.847508	0.308973	0.088465
C100	C	1.734491	-0.357596	-0.891224
C101	C	2.067825	-0.024263	-0.557891
C102	C	2.401158	0.309070	-0.224557
C103	C	1.734531	-0.357561	-1.024624
C104	C	2.067864	-0.024228	-0.691291
C105	C	2.401197	0.309106	-0.357957
C106	C	1.734577	-0.163973	-0.578228
C107	C	2.067911	0.169360	-0.244894
C108	C	2.401244	0.502694	0.088439
C109	C	1.734653	-0.081427	-0.578247
C110	C	2.067986	0.251906	-0.244914
C111	C	2.401320	0.585239	0.088419
C112	C	1.734376	-0.357707	-0.266357
C113	C	2.067710	-0.024374	0.066977
C114	C	2.401043	0.308959	0.400310
C115	C	1.734570	-0.357533	-0.132957
C116	C	2.067903	-0.024200	0.200376
C117	C	2.401236	0.309133	0.533709
H118	H	1.586330	-0.810974	-0.725987
H119	H	1.919663	-0.477640	-0.392654
H120	H	2.252996	-0.144307	-0.059321
H121	H	1.936444	-0.810739	-0.632549
H122	H	2.269777	-0.477405	-0.299216
H123	H	2.603111	-0.144072	0.034118
C124	C	1.499941	-0.911491	-0.515197
C125	C	1.833274	-0.578158	-0.181864
C126	C	2.166608	-0.244825	0.151470
N127	N	1.405764	-0.933640	-0.489885
N128	N	1.739097	-0.600307	-0.156552
N129	N	2.072430	-0.266973	0.176781
C130	C	1.797189	-0.911173	-0.812856
C131	C	2.130522	-0.577839	-0.479523
C132	C	2.463855	-0.244506	-0.146190
N133	N	1.822372	-0.933190	-0.907099
N134	N	2.155705	-0.599856	-0.573766
N135	N	2.489039	-0.266523	-0.240433
H136	H	1.680236	-0.811120	-0.375994
H137	H	2.013569	-0.477787	-0.042661
H138	H	2.346902	-0.144453	0.290673
C139	C	1.906363	-0.911030	-0.406418
C140	C	2.239696	-0.577697	-0.073085
C141	C	2.573030	-0.244363	0.260248
N142	N	1.975400	-0.932934	-0.337404
N143	N	2.308733	-0.599601	-0.004071
N144	N	2.642067	-0.266268	0.329263
