data_functionalizedCrystal
_audit_creation_method	'MofGen! by Chris Wilmer'
_symmetry_space_group_name_H-M	'P1'
_symmetry_Int_Tables_number	1
_symmetry_cell_setting	triclinic
loop_
_symmetry_equiv_pos_as_xyz
  x,y,z
_cell_length_a	12.759401
_cell_length_b	13.897447
_cell_length_c	12.759393
_cell_angle_alpha	90.031000
_cell_angle_beta	90.020938
_cell_angle_gamma	90.021055
loop_
_atom_site_label
_atom_site_type_symbol
_atom_site_fract_x
_atom_site_fract_y
_atom_site_fract_z
Zn1	Zn	1.606231	-0.383929	0.594016
Zn2	Zn	1.939564	-0.050596	0.927350
Zn3	Zn	2.272898	0.282738	1.260683
Zn4	Zn	1.606107	-0.545255	0.418335
Zn5	Zn	1.939441	-0.211922	0.751668
Zn6	Zn	2.272774	0.121411	1.085002
Zn7	Zn	1.430530	-0.383980	0.418352
Zn8	Zn	1.763863	-0.050647	0.751685
Zn9	Zn	2.097197	0.282686	1.085018
Zn10	Zn	1.430507	-0.545188	0.593972
Zn11	Zn	1.763840	-0.211855	0.927306
Zn12	Zn	2.097174	0.121479	1.260639
O13	O	1.518344	-0.464588	0.506169
O14	O	1.851677	-0.131255	0.839502
O15	O	2.185010	0.202079	1.172835
O16	O	1.753236	-0.405336	0.570723
O17	O	2.086569	-0.072003	0.904057
O18	O	2.419902	0.261331	1.237390
O19	O	1.582774	-0.523912	0.271316
O20	O	1.916108	-0.190578	0.604649
O21	O	2.249441	0.142755	0.937983
O22	O	1.453898	-0.248992	0.441679
O23	O	1.787232	0.084341	0.775013
O24	O	2.120565	0.417675	1.108346
O25	O	1.753145	-0.523862	0.441651
O26	O	2.086478	-0.190528	0.774984
O27	O	2.419811	0.142805	1.108318
O28	O	1.582985	-0.248954	0.570740
O29	O	1.916319	0.084379	0.904073
O30	O	2.249652	0.417713	1.237406
O31	O	1.453778	-0.405423	0.271328
O32	O	1.787112	-0.072090	0.604662
O33	O	2.120445	0.261243	0.937995
O34	O	1.283506	-0.405358	0.441636
O35	O	1.616839	-0.072025	0.774970
O36	O	1.950172	0.261309	1.108303
O37	O	1.453859	-0.523747	0.740999
O38	O	1.787193	-0.190414	1.074333
O39	O	2.120526	0.142920	1.407666
O40	O	1.283489	-0.523797	0.570664
O41	O	1.616822	-0.190463	0.903998
O42	O	1.950156	0.142870	1.237331
O43	O	1.582963	-0.405271	0.741032
O44	O	1.916296	-0.071937	1.074365
O45	O	2.249630	0.261396	1.407698
O46	O	1.582752	-0.680228	0.441608
O47	O	1.916086	-0.346895	0.774942
O48	O	2.249419	-0.013561	1.108275
O49	O	1.453739	-0.680179	0.570648
O50	O	1.787073	-0.346845	0.903981
O51	O	2.120406	-0.013512	1.237315
C52	C	1.245376	-0.464576	0.506148
C53	C	1.578710	-0.131243	0.839481
C54	C	1.912043	0.202090	1.172815
C55	C	1.128600	-0.464595	0.506164
C56	C	1.461933	-0.131261	0.839497
C57	C	1.795266	0.202072	1.172831
C58	C	1.073757	-0.526359	0.573243
C59	C	1.407090	-0.193026	0.906576
C60	C	1.740423	0.140307	1.239910
C61	C	0.964033	-0.526363	0.573264
C62	C	1.297366	-0.193030	0.906597
C63	C	1.630699	0.140304	1.239930
C64	C	0.964005	-0.402834	0.439118
C65	C	1.297338	-0.069501	0.772451
C66	C	1.630671	0.263832	1.105784
C67	C	1.073727	-0.402827	0.439103
C68	C	1.407060	-0.069493	0.772436
C69	C	1.740393	0.263840	1.105770
C70	C	1.518258	-0.715203	0.506144
C71	C	1.851592	-0.381869	0.839478
C72	C	2.184925	-0.048536	1.172811
C73	C	1.518318	-0.822416	0.506169
C74	C	1.851651	-0.489083	0.839503
C75	C	2.184985	-0.155750	1.172836
C76	C	1.518369	-0.909486	0.506193
C77	C	1.851702	-0.576153	0.839526
C78	C	2.185035	-0.242820	1.172860
C79	C	1.518442	-1.018719	0.506220
C80	C	1.851776	-0.685385	0.839553
C81	C	2.185109	-0.352052	1.172887
C82	C	1.792377	-0.464601	0.506190
C83	C	2.125710	-0.131267	0.839524
C84	C	2.459044	0.202066	1.172857
C85	C	1.909154	-0.464606	0.506200
C86	C	2.242487	-0.131273	0.839533
C87	C	2.575820	0.202061	1.172866
C88	C	1.518422	-0.464496	0.780202
C89	C	1.851756	-0.131162	1.113536
C90	C	2.185089	0.202171	1.446869
C91	C	1.518456	-0.464456	0.896979
C92	C	1.851789	-0.131123	1.230312
C93	C	2.185123	0.202211	1.563646
C94	C	1.518458	-0.212995	0.506216
C95	C	1.851792	0.120338	0.839550
C96	C	2.185125	0.453672	1.172883
C97	C	1.518507	-0.105781	0.506236
C98	C	1.851840	0.227552	0.839570
C99	C	2.185174	0.560885	1.172903
C100	C	1.518326	-0.464611	0.233201
C101	C	1.851659	-0.131277	0.566535
C102	C	2.184993	0.202056	0.899868
C103	C	1.518496	-0.464379	0.116425
C104	C	1.851829	-0.131045	0.449759
C105	C	2.185163	0.202288	0.783092
C106	C	1.585685	-0.402756	0.951860
C107	C	1.919019	-0.069422	1.285193
C108	C	2.252352	0.263911	1.618526
C109	C	1.585703	-0.402714	1.061584
C110	C	1.919036	-0.069381	1.394917
C111	C	2.252370	0.263953	1.728250
C112	C	1.451259	-0.526082	1.061537
C113	C	1.784593	-0.192748	1.394870
C114	C	2.117926	0.140585	1.728204
C115	C	1.451237	-0.526118	0.951815
C116	C	1.784570	-0.192784	1.285148
C117	C	2.117904	0.140549	1.618482
H118	H	1.118381	-0.352524	0.384479
H119	H	1.451715	-0.019191	0.717812
H120	H	1.785048	0.314142	1.051146
O121	O	1.378762	-0.592589	1.120680
O122	O	1.712095	-0.259255	1.454013
O123	O	2.045428	0.074078	1.787346
H124	H	1.390076	-0.582204	1.206197
H125	H	1.723409	-0.248871	1.539530
H126	H	2.056743	0.084462	1.872864
O127	O	1.378692	-0.592641	0.892610
O128	O	1.712025	-0.259308	1.225943
O129	O	2.045359	0.074026	1.559276
H130	H	1.331954	-0.635512	0.949172
H131	H	1.665287	-0.302178	1.282505
H132	H	1.998620	0.031155	1.615839
H133	H	0.919384	-0.576657	0.627888
H134	H	1.252717	-0.243323	0.961221
H135	H	1.586051	0.090010	1.294554
O136	O	1.132947	-0.592965	0.645581
O137	O	1.466280	-0.259632	0.978915
O138	O	1.799613	0.073701	1.312248
H139	H	1.076372	-0.635906	0.692237
H140	H	1.409705	-0.302573	1.025570
H141	H	1.743039	0.030760	1.358904
H142	H	1.640446	-0.352470	1.106263
H143	H	1.973780	-0.019136	1.439596
H144	H	2.307113	0.314197	1.772929
H145	H	0.919314	-0.352547	0.384517
H146	H	1.252647	-0.019213	0.717851
H147	H	1.585980	0.314120	1.051184
H148	H	1.640416	-0.352544	0.907215
H149	H	1.973750	-0.019211	1.240549
H150	H	2.307083	0.314123	1.573882
