data_functionalizedCrystal
_audit_creation_method	'MofGen! by Chris Wilmer'
_symmetry_space_group_name_H-M	'P1'
_symmetry_Int_Tables_number	1
_symmetry_cell_setting	triclinic
loop_
_symmetry_equiv_pos_as_xyz
  x,y,z
_cell_length_a	10.654556
_cell_length_b	15.625429
_cell_length_c	9.130313
_cell_angle_alpha	108.077005
_cell_angle_beta	90.003471
_cell_angle_gamma	84.353401
loop_
_atom_site_label
_atom_site_type_symbol
_atom_site_fract_x
_atom_site_fract_y
_atom_site_fract_z
O1	O	1.666517	0.126641	0.189065
O2	O	1.300914	0.138699	0.195468
O3	O	1.493484	0.001498	0.122600
O4	O	1.473947	0.263842	0.261934
O5	O	1.493470	0.001506	-0.120995
O6	O	1.300900	0.138707	-0.048126
O7	O	1.666503	0.126649	-0.054529
Cu8	Cu	1.483701	0.132679	-0.073570
Cu9	Cu	1.483716	0.132669	0.214509
O10	O	1.473933	0.263850	0.018339
C11	C	1.254118	0.137817	0.073200
C12	C	1.114703	0.135164	0.071791
C13	C	0.918219	0.131427	0.202604
C14	C	1.049215	0.133914	0.203919
C15	C	1.049189	0.133918	-0.061664
C16	C	0.918196	0.131425	-0.062981
C17	C	0.918234	0.131429	0.355939
C18	C	1.049231	0.133916	0.357253
C19	C	1.492593	-0.032090	-0.017035
C20	C	1.489943	-0.132184	-0.070187
C21	C	1.481228	-0.461405	0.418866
C22	C	1.478732	-0.555458	0.368877
C23	C	1.478718	-0.555435	0.103327
C24	C	1.481220	-0.461381	0.153294
C25	C	1.482473	-0.414373	0.311066
C26	C	1.482466	-0.414349	0.045493
C27	C	1.484961	-0.320302	0.095457
C28	C	1.486210	-0.273287	0.253222
C29	C	1.484968	-0.320326	0.361029
C30	C	1.481203	-0.461358	-0.112277
C31	C	1.482449	-0.414326	-0.220078
C32	C	1.484953	-0.320278	-0.170115
C33	C	1.486202	-0.273263	-0.012350
C34	C	1.486195	-0.273239	-0.277922
C35	C	1.488690	-0.179192	-0.227958
C36	C	1.488697	-0.179216	0.037614
C37	C	1.713299	0.127532	0.067742
C38	C	1.852714	0.130184	0.069161
C39	C	1.474824	0.297439	0.157978
C40	C	1.477474	0.397533	0.211139
N41	N	1.483699	0.132685	-0.276189
C42	C	1.559954	0.187868	-0.323547
C43	C	1.559972	0.187851	-0.476892
C44	C	1.407470	0.077467	-0.535511
C45	C	1.407460	0.077479	-0.382170
C46	C	1.647995	0.251601	-0.289704
C47	C	1.648014	0.251584	-0.443049
N48	N	1.483728	0.132656	0.417124
H49	H	0.865863	0.195631	0.437615
C50	C	1.490066	-0.127455	-0.346545
N51	N	1.491102	-0.088486	-0.435868
C52	C	1.782115	0.221673	-0.249348
N53	N	1.883132	0.199128	-0.218954
C54	C	0.885592	0.045433	0.389792
N55	N	0.861006	-0.019340	0.415284
H56	H	1.102521	0.134928	-0.169249
C57	C	1.119996	0.047178	0.375469
N58	N	1.173298	-0.018152	0.389184
H59	H	1.073404	0.197572	0.449919
H60	H	1.477693	-0.593722	-0.025131
H61	H	1.489729	-0.140941	0.166086
C62	C	1.488957	-0.169832	0.308183
N63	N	1.491029	-0.091910	0.349580
C64	C	1.323583	0.016767	-0.330088
N65	N	1.260403	-0.028963	-0.290861
H66	H	1.742899	0.223248	-0.505632
C67	C	1.477328	-0.607187	0.487482
N68	N	1.476254	-0.646147	0.576814
C69	C	1.323604	0.016749	-0.652099
N70	N	1.260430	-0.028983	-0.739912
H71	H	1.486000	-0.282050	0.489502
H72	H	0.864870	0.130394	-0.171653
C73	C	1.478473	-0.564814	-0.167235
N74	N	1.476425	-0.642738	-0.208628
C75	C	1.593640	0.343306	-0.176774
N76	N	1.552701	0.412379	-0.091714
H77	H	1.482260	-0.423129	0.547339
H78	H	1.481423	-0.452612	-0.348536
H79	H	1.485161	-0.311526	-0.406379
C80	C	1.605221	0.347616	-0.448308
N81	N	1.572988	0.419945	-0.452269
