data_functionalizedCrystal
_audit_creation_method	'MofGen! by Chris Wilmer'
_symmetry_space_group_name_H-M	'P1'
_symmetry_Int_Tables_number	1
_symmetry_cell_setting	triclinic
loop_
_symmetry_equiv_pos_as_xyz
  x,y,z
_cell_length_a	23.532407
_cell_length_b	10.723024
_cell_length_c	22.610064
_cell_angle_alpha	89.991998
_cell_angle_beta	90.000603
_cell_angle_gamma	96.341727
loop_
_atom_site_label
_atom_site_type_symbol
_atom_site_fract_x
_atom_site_fract_y
_atom_site_fract_z
O1	O	0.079864	-1.654709	0.049187
O2	O	0.087510	-1.291318	0.049190
O3	O	0.000826	-1.483972	0.049178
O4	O	0.166548	-1.462056	0.049200
O5	O	0.000839	-1.483938	-0.049191
O6	O	0.087522	-1.291284	-0.049179
O7	O	0.079877	-1.654675	-0.049182
Zn8	Zn	0.083702	-1.472974	-0.064799
Zn9	Zn	0.083685	-1.473019	0.064807
O10	O	0.166560	-1.462022	-0.049169
C11	C	0.086960	-1.244819	0.000006
C12	C	0.085295	-1.106317	0.000006
C13	C	-0.020387	-1.483397	-0.000008
C14	C	-0.083615	-1.481719	-0.000013
N15	N	0.083713	-1.472953	-0.153251
C16	C	-0.482047	-1.585203	0.000019
C17	C	-0.541457	-1.583644	0.000023
O18	O	-0.577579	-1.679575	0.000045
N19	N	-0.564826	-1.469112	0.000024
C20	C	-0.528782	-1.356131	0.000026
O21	O	-0.554114	-1.258569	0.000027
C22	C	-0.469373	-1.357691	0.000025
C23	C	-0.446007	-1.472230	0.000019
C24	C	-0.458680	-1.699733	0.000013
C25	C	-0.399274	-1.701291	0.000008
C26	C	-0.363234	-1.588319	0.000008
C27	C	-0.386600	-1.473789	0.000013
C28	C	-0.433329	-1.244711	0.000032
C29	C	-0.373917	-1.246281	0.000032
C30	C	-0.350551	-1.360821	0.000025
C31	C	-0.291154	-1.362374	0.000008
N32	N	-0.267785	-1.476907	0.000008
C33	C	-0.303825	-1.589879	0.000007
C34	C	-0.653545	-1.352863	0.000027
C35	C	-0.712953	-1.351302	0.000023
C36	C	-0.725625	-1.578816	0.000022
C37	C	-0.666215	-1.580376	0.000022
C38	C	-0.630176	-1.467395	0.000027
C39	C	-0.179067	-1.593143	-0.000005
C40	C	-0.119655	-1.594691	-0.000013
C41	C	-0.106989	-1.367178	-0.000009
C42	C	-0.166396	-1.365629	-0.000004
C43	C	-0.202434	-1.478622	0.000000
O44	O	-0.254997	-1.266494	-0.000011
O45	O	-0.278484	-1.687425	0.000014
C46	C	0.187774	-1.462597	0.000018
C47	C	0.251001	-1.464275	0.000026
C48	C	0.080427	-1.701174	0.000004
C49	C	0.082092	-1.839677	0.000007
C50	C	0.133798	-1.029823	0.000013
C51	C	0.132079	-0.886673	0.000014
C52	C	0.045308	-1.558330	-0.561898
C53	C	0.045303	-1.558336	-0.623818
O54	O	0.012658	-1.630873	-0.655841
N55	N	0.083673	-1.473018	-0.654788
C56	C	0.122045	-1.387680	-0.623836
O57	O	0.154681	-1.315110	-0.655864
C58	C	0.122046	-1.387669	-0.561917
C59	C	0.083678	-1.473000	-0.530950
C60	C	0.006942	-1.643654	-0.530931
C61	C	0.006947	-1.643649	-0.469015
C62	C	0.045318	-1.558319	-0.438067
C63	C	0.083683	-1.472995	-0.469034
C64	C	0.160416	-1.302325	-0.530965
C65	C	0.160413	-1.302321	-0.469042
C66	C	0.122045	-1.387653	-0.438075
C67	C	0.122059	-1.387661	-0.376170
N68	N	0.083689	-1.472979	-0.345199
C69	C	0.045318	-1.558308	-0.376148
C70	C	0.122040	-1.387709	-0.753869
C71	C	0.122042	-1.387725	-0.815787
C72	C	0.045299	-1.558380	-0.815765
C73	C	0.045300	-1.558369	-0.753846
C74	C	0.083670	-1.473027	-0.722899
C75	C	0.045332	-1.558291	-0.246121
C76	C	0.045342	-1.558282	-0.184199
C77	C	0.122083	-1.387623	-0.184227
C78	C	0.122075	-1.387636	-0.246142
C79	C	0.083695	-1.472975	-0.277088
O80	O	0.154685	-1.315157	-0.344107
O81	O	0.012683	-1.630855	-0.344112
N82	N	0.083669	-1.473051	0.153259
H83	H	-0.100634	-1.687967	-0.000020
H84	H	0.173602	-0.820947	0.000022
H85	H	0.176597	-1.070312	0.000015
H86	H	0.040567	-0.905395	0.000005
Cl87	Cl	-0.636848	-1.724373	0.000015
Cl88	Cl	-0.061671	-1.225164	-0.000007
H89	H	0.042497	-1.065828	0.000016
H90	H	-0.488018	-1.791734	0.000015
Cl91	Cl	-0.002895	-1.665566	-0.145272
H92	H	0.014079	-1.627781	-0.271309
Cl93	Cl	-0.369909	-1.845292	0.000016
H94	H	-0.024297	-1.713130	-0.443805
H95	H	0.014057	-1.627853	-0.728636
H96	H	0.153325	-1.318152	-0.159019
Cl97	Cl	-0.770943	-1.720839	0.000026
Cl98	Cl	-0.328613	-1.104239	0.000039
H99	H	-0.024306	-1.713139	-0.556123
Cl100	Cl	0.170317	-1.280371	-0.285071
Cl101	Cl	-0.002939	-1.665648	-0.854684
H102	H	0.153291	-1.318253	-0.840996
H103	H	-0.185421	-1.272361	-0.000015
Cl104	Cl	-0.224363	-1.735193	-0.000001
Cl105	Cl	0.170286	-1.280421	-0.714970
Cl106	Cl	-0.462688	-1.100709	0.000044
H107	H	0.191658	-1.232840	-0.556170
Cl108	Cl	0.208652	-1.195024	-0.430142
H109	H	-0.624205	-1.260855	0.000026
Cl110	Cl	-0.742320	-1.207303	0.000020
