data_functionalizedCrystal
_audit_creation_method	'MofGen! by Chris Wilmer'
_symmetry_space_group_name_H-M	'P1'
_symmetry_Int_Tables_number	1
_symmetry_cell_setting	triclinic
loop_
_symmetry_equiv_pos_as_xyz
  x,y,z
_cell_length_a	13.897449
_cell_length_b	16.625546
_cell_length_c	16.625548
_cell_angle_alpha	90.013404
_cell_angle_beta	90.007099
_cell_angle_gamma	90.023748
loop_
_atom_site_label
_atom_site_type_symbol
_atom_site_fract_x
_atom_site_fract_y
_atom_site_fract_z
Zn1	Zn	1.474541	-0.321108	0.455873
Zn2	Zn	1.974541	0.178892	0.955873
Zn3	Zn	1.474460	-0.455911	0.321035
Zn4	Zn	1.974460	0.044089	0.821035
Zn5	Zn	1.313268	-0.321099	0.321056
Zn6	Zn	1.813268	0.178901	0.821056
Zn7	Zn	1.313198	-0.455905	0.455828
Zn8	Zn	1.813198	0.044095	0.955828
O9	O	1.393867	-0.388506	0.388448
O10	O	1.893867	0.111494	0.888448
O11	O	1.609512	-0.338996	0.437997
O12	O	2.109512	0.161004	0.937997
O13	O	1.453073	-0.438027	0.208206
O14	O	1.953073	0.061973	0.708206
O15	O	1.334725	-0.208268	0.338968
O16	O	1.834725	0.291732	0.838968
O17	O	1.609452	-0.438035	0.338932
O18	O	2.109452	0.061965	0.838932
O19	O	1.453211	-0.208274	0.438017
O20	O	1.953211	0.291726	0.938017
O21	O	1.334646	-0.338981	0.208221
O22	O	1.834646	0.161019	0.708221
O23	O	1.178277	-0.338975	0.338924
O24	O	1.678277	0.161025	0.838924
O25	O	1.334605	-0.438025	0.568666
O26	O	1.834605	0.061975	1.068666
O27	O	1.178226	-0.438017	0.437940
O28	O	1.678226	0.061983	0.937940
O29	O	1.453143	-0.338990	0.568699
O30	O	1.953143	0.161010	1.068699
O31	O	1.453005	-0.568743	0.338888
O32	O	1.953005	-0.068743	0.838888
O33	O	1.334527	-0.568738	0.437920
O34	O	1.834527	-0.068738	0.937920
C35	C	1.143252	-0.388495	0.388430
C36	C	1.643252	0.111505	0.888430
C37	C	1.036038	-0.388510	0.388441
C38	C	1.536038	0.111490	0.888441
C39	C	0.839743	-0.388513	0.388462
C40	C	1.339743	0.111487	0.888462
C41	C	0.948976	-0.388509	0.388448
C42	C	1.448976	0.111491	0.888448
C43	C	1.393775	-0.597997	0.388414
C44	C	1.893775	-0.097997	0.888414
C45	C	1.393825	-0.687618	0.388427
C46	C	1.893825	-0.187618	0.888427
C47	C	1.393993	-1.015793	0.388511
C48	C	1.893993	-0.515793	0.888511
C49	C	1.393943	-0.924485	0.388490
C50	C	1.893943	-0.424485	0.888490
C51	C	1.393908	-0.851708	0.388468
C52	C	1.893908	-0.351708	0.888468
C53	C	1.393860	-0.760394	0.388448
C54	C	1.893860	-0.260394	0.888448
C55	C	1.645460	-0.388517	0.388467
C56	C	2.145460	0.111483	0.888467
C57	C	1.752674	-0.388522	0.388475
C58	C	2.252674	0.111478	0.888475
C59	C	1.393875	-0.388508	0.598757
C60	C	1.893875	0.111492	1.098757
C61	C	1.393879	-0.388509	0.688378
C62	C	1.893879	0.111491	1.188378
C63	C	1.393985	-0.178197	0.388500
C64	C	1.893985	0.321803	0.888500
C65	C	1.394035	-0.088576	0.388521
C66	C	1.894035	0.411424	0.888521
C67	C	1.393839	-0.388516	1.016554
C68	C	1.893839	0.111484	1.516554
C69	C	1.393847	-0.388517	0.925245
C70	C	1.893847	0.111483	1.425245
C71	C	1.393859	-0.388513	0.852469
C72	C	1.893859	0.111487	1.352469
C73	C	1.393867	-0.388513	0.761154
C74	C	1.893867	0.111487	1.261154
C75	C	1.393849	-0.388520	1.178957
C76	C	1.893849	0.111480	1.678957
C77	C	1.393839	-0.388514	1.089336
C78	C	1.893839	0.111486	1.589336
