data_functionalizedCrystal
_audit_creation_method	'MofGen! by Chris Wilmer'
_symmetry_space_group_name_H-M	'P1'
_symmetry_Int_Tables_number	1
_symmetry_cell_setting	triclinic
loop_
_symmetry_equiv_pos_as_xyz
  x,y,z
_cell_length_a	29.839134
_cell_length_b	29.839131
_cell_length_c	29.839125
_cell_angle_alpha	89.982291
_cell_angle_beta	90.012189
_cell_angle_gamma	89.978008
loop_
_atom_site_label
_atom_site_type_symbol
_atom_site_fract_x
_atom_site_fract_y
_atom_site_fract_z
Zn1	Zn	0.686719	0.179149	0.254008
Zn2	Zn	0.686652	0.254261	0.178878
Zn3	Zn	0.611602	0.179121	0.178890
Zn4	Zn	0.611550	0.254227	0.253979
O5	O	0.649131	0.216690	0.216439
O6	O	0.749578	0.189139	0.244048
O7	O	0.676690	0.244296	0.116012
O8	O	0.621617	0.116257	0.188872
O9	O	0.749528	0.244324	0.188851
O10	O	0.676805	0.116278	0.244060
O11	O	0.621551	0.189090	0.116021
O12	O	0.548728	0.189058	0.188844
O13	O	0.621528	0.244266	0.316850
O14	O	0.548690	0.244238	0.244011
O15	O	0.676755	0.189106	0.316871
O16	O	0.676639	0.317124	0.188823
O17	O	0.621462	0.317099	0.243999
C18	C	0.532408	0.216641	0.216426
C19	C	0.482474	0.216632	0.216431
C20	C	0.125909	0.188015	0.245237
C21	C	0.313582	0.187979	0.245226
O22	O	0.337865	0.163591	0.269715
N23	N	0.337029	0.216661	0.216442
C24	C	0.313555	0.245357	0.187660
O25	O	0.337804	0.269755	0.163181
C26	C	0.125883	0.245395	0.187673
C27	C	0.102438	0.216707	0.216456
C28	C	0.102464	0.159330	0.274017
C29	C	0.055548	0.159338	0.274018
C30	C	0.032078	0.188030	0.245238
C31	C	0.055522	0.216715	0.216457
C32	C	0.102409	0.274092	0.158894
C33	C	0.055488	0.274100	0.158901
C34	C	0.032044	0.245412	0.187684
C35	C	-0.014864	0.245415	0.187677
N36	N	-0.038311	0.216732	0.216461
C37	C	-0.014840	0.188040	0.245242
C38	C	0.412085	0.245334	0.187655
C39	C	0.459003	0.245324	0.187651
C40	C	0.459027	0.187947	0.245218
C41	C	0.412108	0.187955	0.245219
C42	C	0.388638	0.216652	0.216439
C43	C	-0.113366	0.188058	0.245240
C44	C	-0.160286	0.188067	0.245237
C45	C	-0.160305	0.245445	0.187672
C46	C	-0.113390	0.245435	0.187674
C47	C	-0.089921	0.216740	0.216461
O48	O	-0.039176	0.269794	0.163204
O49	O	-0.039098	0.163652	0.269725
C50	C	0.172824	0.188007	0.245236
C51	C	0.196269	0.216692	0.216455
C52	C	0.172798	0.245384	0.187675
C53	C	0.243187	0.216682	0.216451
C54	C	0.266657	0.187990	0.245231
C55	C	0.243210	0.159308	0.274016
C56	C	0.196295	0.159315	0.274016
C57	C	0.196245	0.274067	0.158891
C58	C	0.243161	0.274056	0.158892
C59	C	0.266631	0.245364	0.187672
C60	C	0.649050	0.333412	0.216416
C61	C	0.649056	0.383347	0.216422
C62	C	0.649143	0.216686	0.333617
C63	C	0.649148	0.216684	0.383551
C64	C	0.766309	0.216738	0.216451
C65	C	0.816244	0.216759	0.216457
C66	C	0.649225	0.099511	0.216471
C67	C	0.649264	0.049577	0.216484
C68	C	0.677914	0.692990	0.187750
C69	C	0.677969	0.880663	0.187767
O70	O	0.702440	0.904928	0.163373
N71	N	0.649224	0.904132	0.216472
C72	C	0.620465	0.880679	0.245177
O73	O	0.596020	0.904946	0.269596
C74	C	0.620412	0.693007	0.245162
C75	C	0.649156	0.669541	0.216452
C76	C	0.706655	0.669524	0.159043
C77	C	0.706640	0.622609	0.159037
C78	C	0.677882	0.599159	0.187738
C79	C	0.649140	0.622625	0.216446
C80	C	0.591656	0.669555	0.273868
C81	C	0.591646	0.622634	0.273863
C82	C	0.620390	0.599168	0.245153
C83	C	0.620367	0.552260	0.245141
N84	N	0.649112	0.528792	0.216437
C85	C	0.677869	0.552242	0.187735
C86	C	0.620494	0.979209	0.245183
C87	C	0.620507	1.026127	0.245186
C88	C	0.678012	1.026109	0.187777
C89	C	0.677996	0.979190	0.187772
C90	C	0.649239	0.955741	0.216478
C91	C	0.677834	0.453716	0.187725
C92	C	0.677814	0.406796	0.187720
C93	C	0.620311	0.406819	0.245131
C94	C	0.620329	0.453734	0.245134
C95	C	0.649094	0.477182	0.216429
O96	O	0.595912	0.527966	0.269527
O97	O	0.702318	0.527966	0.163327
C98	C	0.677930	0.739906	0.187756
C99	C	0.649188	0.763372	0.216463
C100	C	0.620430	0.739922	0.245165
C101	C	0.649200	0.810289	0.216467
C102	C	0.677958	0.833739	0.187765
C103	C	0.706703	0.810271	0.159060
C104	C	0.706687	0.763355	0.159054
C105	C	0.591685	0.763390	0.273870
C106	C	0.591703	0.810306	0.273873
C107	C	0.620461	0.833755	0.245171
C108	C	0.649145	0.216661	0.099716
C109	C	0.649227	0.216536	0.049782
C110	C	0.677935	0.187887	0.693209
C111	C	0.677957	0.187849	0.880882
O112	O	0.702399	0.163407	0.905159
N113	N	0.649208	0.216564	0.904337
C114	C	0.620449	0.245288	0.880870
O115	O	0.595993	0.269708	0.905126
C116	C	0.620424	0.245324	0.693198
C117	C	0.649179	0.216610	0.669746
C118	C	0.706687	0.159175	0.669757
C119	C	0.706683	0.159187	0.622841
C120	C	0.677927	0.187910	0.599378
C121	C	0.649175	0.216622	0.622830
C122	C	0.591663	0.274045	0.669732
C123	C	0.591659	0.274051	0.622811
C124	C	0.620414	0.245337	0.599359
C125	C	0.620415	0.245356	0.552451
N126	N	0.649164	0.216642	0.528997
C127	C	0.677920	0.187918	0.552460
C128	C	0.620464	0.245268	0.979401
C129	C	0.620471	0.245260	1.026319
C130	C	0.677979	0.187820	1.026327
C131	C	0.677974	0.187830	0.979409
C132	C	0.649213	0.216553	0.955946
C133	C	0.677910	0.187945	0.453934
C134	C	0.677904	0.187961	0.407015
C135	C	0.620395	0.245399	0.407010
C136	C	0.620401	0.245385	0.453926
C137	C	0.649160	0.216655	0.477386
O138	O	0.595982	0.269782	0.528146
O139	O	0.702365	0.163495	0.528196
C140	C	0.677939	0.187875	0.740124
C141	C	0.649187	0.216587	0.763577
C142	C	0.620431	0.245310	0.740113
C143	C	0.649194	0.216579	0.810494
C144	C	0.677950	0.187856	0.833958
C145	C	0.706699	0.159141	0.810503
C146	C	0.706695	0.159152	0.763588
C147	C	0.591682	0.274025	0.763568
C148	C	0.591689	0.274011	0.810483
C149	C	0.620445	0.245288	0.833947
H150	H	-0.179372	0.164704	0.268675
H151	H	0.177140	0.297432	0.135454
Cl152	Cl	0.555524	0.699043	0.309968
Cl153	Cl	0.555514	0.310146	0.699203
Cl154	Cl	0.584255	0.281485	0.483409
Cl155	Cl	0.026082	0.123276	0.310209
Cl156	Cl	0.714056	0.151862	0.377535
Cl157	Cl	0.714133	0.949695	0.151678
Cl158	Cl	0.714163	1.055596	0.151695
H159	H	0.701220	0.387692	0.164340
H160	H	0.730046	0.603506	0.135660
Cl161	Cl	0.714062	0.151825	0.483421
H162	H	0.701393	0.164432	1.045439
Cl163	Cl	0.742854	0.839759	0.122978
Cl164	Cl	0.584365	1.055622	0.281275
H165	H	-0.179424	0.268804	0.164238
H166	H	0.568233	0.297436	0.603710
Cl167	Cl	0.555563	0.839800	0.309969
H168	H	0.730093	0.744253	0.135676
Cl169	Cl	0.584327	0.281365	1.055796
H170	H	0.568265	0.297416	0.744469
H171	H	0.730097	0.135805	0.603751
H172	H	0.177210	0.135955	0.297454
H173	H	-0.094264	0.164691	0.268682
H174	H	0.730104	0.135783	0.688855
Cl175	Cl	0.555528	0.733918	0.309955
H176	H	0.568274	0.297398	0.829574
H177	H	0.262245	0.297416	0.135449
H178	H	0.596925	0.472841	0.268513
Cl179	Cl	0.272725	0.123237	0.310195
H180	H	0.478145	0.164583	0.268651
Cl181	Cl	0.713995	0.483185	0.151638
H182	H	0.568229	0.603544	0.297240
H183	H	0.701388	0.164449	0.960317
Cl184	Cl	0.584163	0.377331	0.281213
H185	H	0.121569	0.135965	0.297456
Cl186	Cl	0.382640	0.151890	0.281405
H187	H	0.730076	0.688612	0.135670
H188	H	0.597044	0.268660	0.960302
H189	H	0.478088	0.268679	0.164208
H190	H	0.597076	0.960121	0.268559
Cl191	Cl	0.584245	0.281505	0.377505
H192	H	0.730110	0.135771	0.744497
Cl193	Cl	0.742851	0.123033	0.840009
Cl194	Cl	0.131871	0.310152	0.122701
Cl195	Cl	0.025986	0.310181	0.122721
Cl196	Cl	0.382587	0.281407	0.151464
H197	H	-0.094300	0.268791	0.164232
