data_functionalizedCrystal
_audit_creation_method	'MofGen! by Chris Wilmer'
_symmetry_space_group_name_H-M	'P1'
_symmetry_Int_Tables_number	1
_symmetry_cell_setting	triclinic
loop_
_symmetry_equiv_pos_as_xyz
  x,y,z
_cell_length_a	27.440280
_cell_length_b	27.440279
_cell_length_c	27.440280
_cell_angle_alpha	60.011579
_cell_angle_beta	90.008003
_cell_angle_gamma	60.011417
loop_
_atom_site_label
_atom_site_type_symbol
_atom_site_fract_x
_atom_site_fract_y
_atom_site_fract_z
Zr1	Zr	0.469680	0.533217	-0.063774
O2	O	0.391894	0.634857	-0.141572
O3	O	0.493502	0.431576	-0.039940
O4	O	0.493535	0.533205	-0.141581
O5	O	0.391863	0.533238	0.040262
O6	O	0.573737	0.533195	-0.141571
O7	O	0.391861	0.533229	-0.039931
O8	O	0.573679	0.351400	0.040245
O9	O	0.391921	0.715033	-0.141554
O10	O	0.563545	0.473375	-0.029750
O11	O	0.503691	0.473389	0.030090
O12	O	0.503730	0.593044	-0.089578
O13	O	0.443876	0.593058	-0.029738
Zr14	Zr	0.597596	0.533217	0.064141
Zr15	Zr	0.597594	0.533202	-0.063758
Zr16	Zr	0.469682	0.533232	0.064125
Zr17	Zr	0.469723	0.661088	-0.063746
Zr18	Zr	0.597553	0.405346	0.064113
O19	O	0.573774	0.634857	0.040307
O20	O	0.573772	0.634836	-0.141549
O21	O	0.391897	0.634879	0.040285
O22	O	0.675382	0.431576	0.141939
O23	O	0.675379	0.431555	-0.039918
O24	O	0.493504	0.431597	0.141916
O25	O	0.675414	0.533195	-0.039895
O26	O	0.573741	0.533229	0.141948
O27	O	0.493539	0.533238	0.141938
O28	O	0.675415	0.533205	0.040298
O29	O	0.493596	0.715021	-0.141541
O30	O	0.573680	0.351412	0.141908
O31	O	0.675355	0.351400	0.141921
O32	O	0.675354	0.351388	0.040258
O33	O	0.391923	0.715045	-0.039891
O34	O	0.493597	0.715033	-0.039878
O35	O	0.563546	0.473389	0.089945
O36	O	0.623400	0.473375	0.030105
O37	O	0.563585	0.593044	-0.029723
O38	O	0.503731	0.593058	0.030117
C39	C	0.533584	0.373269	0.000148
C40	C	0.533566	0.318985	0.000137
C41	C	0.502387	0.084233	0.031423
C42	C	0.502376	0.135264	0.031415
O43	O	0.475817	0.161646	0.057992
N44	N	0.533610	0.160781	0.000172
C45	C	0.564864	0.135261	-0.031061
O46	O	0.591431	0.161651	-0.057636
C47	C	0.564879	0.084229	-0.031049
C48	C	0.533637	0.058718	0.000191
C49	C	0.471149	0.058723	0.062662
C50	C	0.471160	0.007697	0.062668
C51	C	0.502409	-0.017818	0.031437
C52	C	0.533648	0.007693	0.000198
C53	C	0.596135	0.058706	-0.062278
C54	C	0.596147	0.007669	-0.062263
C55	C	0.564906	-0.017841	-0.031023
C56	C	0.564908	-0.068848	-0.031027
N57	N	0.533674	-0.094366	0.000217
C58	C	0.502424	-0.068851	0.031448
C59	C	0.564831	0.242433	-0.031082
C60	C	0.564813	0.293468	-0.031098
C61	C	0.502326	0.293466	0.031379
C62	C	0.502341	0.242433	0.031391
C63	C	0.533596	0.216915	0.000161
C64	C	0.502449	-0.176008	0.031460
C65	C	0.502461	-0.227036	0.031462
C66	C	0.564950	-0.227032	-0.031012
C67	C	0.564936	-0.176006	-0.031017
C68	C	0.533684	-0.150497	0.000223
O69	O	0.591456	-0.095265	-0.057588
O70	O	0.475868	-0.095254	0.058026
C71	C	0.373637	0.533235	0.000163
C72	C	0.319334	0.533242	0.000157
C73	C	0.013859	0.470740	0.031430
C74	C	-0.037159	0.470736	0.031435
O75	O	-0.036994	0.417611	0.058013
N76	N	-0.093899	0.533201	0.000205
C77	C	-0.099619	0.595674	-0.031028
O78	O	-0.152565	0.648805	-0.057591
C79	C	-0.048601	0.595677	-0.031030
C80	C	0.008137	0.533208	0.000198
C81	C	0.070595	0.408275	0.062656
C82	C	0.121610	0.408280	0.062649
C83	C	0.115889	0.470748	0.031417
C84	C	0.059152	0.533212	0.000192
C85	C	-0.054322	0.658149	-0.062259
C86	C	-0.003298	0.658147	-0.062257
C87	C	0.053441	0.595678	-0.031030
C88	C	0.104446	0.595684	-0.031047
N89	N	0.161185	0.533219	0.000184
C90	C	0.166907	0.470751	0.031416
C91	C	-0.206758	0.595663	-0.031022
C92	C	-0.257775	0.595660	-0.031024
C93	C	-0.195312	0.470722	0.031440
C94	C	-0.144294	0.470725	0.031439
C95	C	-0.150018	0.533197	0.000209
C96	C	0.274039	0.470764	0.031400
C97	C	0.325056	0.470774	0.031389
C98	C	0.262588	0.595712	-0.031073
C99	C	0.211575	0.595702	-0.031065
C100	C	0.217305	0.533223	0.000176
O101	O	0.104326	0.648782	-0.057609
O102	O	0.219854	0.417629	0.057981
C103	C	0.693639	0.533198	0.000204
C104	C	0.747942	0.533192	0.000210
C105	C	0.533636	0.533198	-0.159799
C106	C	0.533635	0.533192	-0.214095
C107	C	0.533692	0.693164	0.000218
C108	C	0.533710	0.747449	0.000230
C109	C	0.502421	0.595694	-0.582060
C110	C	0.502422	0.595698	-0.633082
O111	O	0.475887	0.648822	-0.686030
N112	N	0.533644	0.533233	-0.627369
C113	C	0.564871	0.470760	-0.570630
O114	O	0.591428	0.417628	-0.570456
C115	C	0.564872	0.470756	-0.519609
C116	C	0.533644	0.533226	-0.525326
C117	C	0.471195	0.658158	-0.587774
C118	C	0.471193	0.658154	-0.536755
C119	C	0.502416	0.595686	-0.480022
C120	C	0.533641	0.533222	-0.474307
C121	C	0.596102	0.408284	-0.462870
C122	C	0.596101	0.408287	-0.411849
C123	C	0.564873	0.470756	-0.417566
C124	C	0.564862	0.470749	-0.366555
N125	N	0.533640	0.533214	-0.372267
C126	C	0.502417	0.595683	-0.429001
C127	C	0.564866	0.470771	-0.677780
C128	C	0.564862	0.470773	-0.728799
C129	C	0.502414	0.595712	-0.791248
C130	C	0.502415	0.595708	-0.740227
C131	C	0.533645	0.533236	-0.683492
C132	C	0.502414	0.595669	-0.321855
C133	C	0.502412	0.595660	-0.270829
C134	C	0.564862	0.470722	-0.208385
C135	C	0.564861	0.470731	-0.259406
C136	C	0.533636	0.533210	-0.316143
O137	O	0.591386	0.417652	-0.313588
O138	O	0.475871	0.648805	-0.429164
C139	C	0.533640	0.533235	0.160166
C140	C	0.533641	0.533242	0.214462
C141	C	0.693585	0.373251	0.000169
C142	C	0.747870	0.318960	0.000163
C143	C	0.533587	0.373288	0.160131
C144	C	0.533569	0.319010	0.214416
C145	C	0.693588	0.373269	0.160151
C146	C	0.747873	0.318985	0.214442
C147	C	0.373688	0.693164	-0.159784
C148	C	0.319403	0.747449	-0.214075
C149	C	0.373691	0.693183	0.000198
C150	C	0.319406	0.747474	0.000204
C151	C	0.533690	0.693145	-0.159764
C152	C	0.533707	0.747424	-0.214049
C153	C	0.742119	0.293464	-0.031088
C154	C	0.793120	0.242459	-0.031105
C155	C	0.849872	0.216947	0.000134
C156	C	0.855622	0.242447	0.031386
C157	C	0.804621	0.293455	0.031399
C158	C	0.564805	0.293520	0.271157
C159	C	0.564786	0.242527	0.322168
C160	C	0.533535	0.217021	0.316437
C161	C	0.502295	0.242516	0.259689
C162	C	0.502311	0.293511	0.208679
C163	C	0.804614	0.293485	0.208702
C164	C	0.855626	0.242486	0.259710
C165	C	0.849895	0.216984	0.316457
C166	C	0.793148	0.242489	0.322196
C167	C	0.742138	0.293491	0.271189
C168	C	0.262662	0.772955	-0.208335
C169	C	0.211650	0.823970	-0.259343
C170	C	0.217381	0.849474	-0.316090
C171	C	0.274128	0.823966	-0.321829
C172	C	0.325139	0.772955	-0.270822
C173	C	0.325157	0.772975	0.031450
C174	C	0.274156	0.823994	0.031452
C175	C	0.217404	0.849508	0.000212
C176	C	0.211654	0.824005	-0.031038
C177	C	0.262655	0.772990	-0.031044
C178	C	0.564964	0.772913	-0.208298
C179	C	0.564992	0.823907	-0.259299
C180	C	0.533759	0.849413	-0.316051
C181	C	0.502501	0.823918	-0.321801
C182	C	0.502477	0.772922	-0.270800
H183	H	0.476881	0.314249	0.056810
H184	H	0.788491	0.221718	0.368406
H185	H	0.621533	0.357415	-0.458203
H186	H	0.901836	0.221668	0.056819
C187	C	0.906010	0.160878	0.372560
H188	H	0.940622	0.149342	0.361009
H189	H	0.906028	0.177591	0.395648
H190	H	0.906005	0.121078	0.395628
H191	H	0.590227	0.221775	0.368370
H192	H	0.590284	0.419904	-0.724137
H193	H	0.621533	0.357413	-0.365653
C194	C	0.468072	0.664428	-0.853660
H195	H	0.449471	0.701634	-0.849761
H196	H	0.495043	0.667018	-0.874853
H197	H	0.438505	0.667027	-0.874867
C198	C	0.387551	0.744896	-0.277143
H199	H	0.383652	0.767389	-0.318246
H200	H	0.408769	0.753246	-0.258538
H201	H	0.408731	0.696740	-0.258556
H202	H	0.533527	0.175497	0.357977
H203	H	0.809292	0.314241	0.162501
H204	H	0.175840	0.891010	-0.357619
C205	C	0.679725	0.321527	0.277510
H206	H	0.683624	0.299026	0.318613
H207	H	0.658527	0.369683	0.258918
H208	H	0.658525	0.313154	0.258910
H209	H	0.476851	0.221741	0.255031
C210	C	0.810955	0.321487	0.065786
H211	H	0.852060	0.298979	0.084392
H212	H	0.792369	0.369641	0.038840
H213	H	0.792354	0.313119	0.095352
C214	C	0.599180	0.321572	0.277471
H215	H	0.594724	0.355592	0.238968
H216	H	0.583754	0.341477	0.298668
H217	H	0.640275	0.284950	0.298669
C218	C	0.436847	0.726871	-0.543051
H219	H	0.418260	0.764070	-0.584150
H220	H	0.407279	0.729479	-0.524456
H221	H	0.463821	0.729464	-0.524442
H222	H	0.371363	0.752205	0.056893
C223	C	0.436842	0.726879	-0.650177
H224	H	0.418245	0.764074	-0.646263
H225	H	0.463802	0.729486	-0.671381
H226	H	0.407271	0.729481	-0.671380
H227	H	0.175881	0.891047	0.000222
H228	H	-0.211427	0.646538	-0.056456
H229	H	0.901828	0.221725	0.255027
H230	H	0.476901	0.221666	0.056830
H231	H	0.165440	0.844786	-0.056473
C232	C	0.468096	-0.255098	0.065828
H233	H	0.472571	-0.289139	0.061357
H234	H	0.483514	-0.274978	0.106922
H235	H	0.426996	-0.218485	0.050396
H236	H	0.476877	0.314258	0.162479
C237	C	0.468068	-0.147950	0.065819
H238	H	0.449463	-0.170453	0.084417
H239	H	0.495016	-0.156284	0.095379
H240	H	0.438502	-0.099797	0.038848
C241	C	0.256346	0.744917	-0.145920
H242	H	0.215244	0.767426	-0.149816
H243	H	0.274930	0.696763	-0.124723
H244	H	0.274958	0.753282	-0.124721
H245	H	0.590398	0.752154	-0.162092
H246	H	0.278787	0.844738	-0.368039
H247	H	0.695913	0.314235	-0.056533
H248	H	0.165449	0.844730	-0.254659
H249	H	0.476986	0.646576	-0.744888
C250	C	0.280492	0.852032	0.065835
H251	H	0.321596	0.829518	0.084447
H252	H	0.261912	0.900184	0.038885
H253	H	0.261883	0.843675	0.095396
H254	H	0.590446	0.844659	-0.254606
C255	C	0.256324	0.744934	-0.065408
H256	H	0.294823	0.710899	-0.060944
H257	H	0.235113	0.725049	-0.049983
H258	H	0.235135	0.781552	-0.106506
C259	C	-0.009599	0.726868	-0.096614
H260	H	-0.050698	0.764068	-0.115214
H261	H	0.009009	0.729472	-0.069653
H262	H	0.008997	0.729466	-0.126184
C263	C	0.533786	0.905513	-0.372146
H264	H	0.556871	0.917042	-0.360588
H265	H	0.550507	0.888798	-0.395232
H266	H	0.493991	0.945317	-0.395220
C267	C	0.468142	0.851985	-0.384229
H268	H	0.472631	0.886013	-0.413775
H269	H	0.483550	0.815377	-0.388723
H270	H	0.427040	0.871900	-0.388707
H271	H	0.477021	0.752174	-0.275491
H272	H	0.788427	0.221702	-0.056554
C273	C	0.468061	0.664395	-0.384258
H274	H	0.449461	0.701591	-0.380345
H275	H	0.495023	0.667001	-0.405459
H276	H	0.438492	0.666995	-0.405463
C277	C	0.436801	-0.020366	0.097039
H278	H	0.441277	-0.054411	0.092573
H279	H	0.452222	-0.040242	0.138131
H280	H	0.395701	0.016245	0.081608
C281	C	0.436767	0.086786	0.097015
H282	H	0.418164	0.064280	0.115615
H283	H	0.463712	0.078456	0.126574
H284	H	0.407199	0.134938	0.070043
H285	H	0.590281	0.419862	-0.162184
C286	C	0.599175	0.321527	-0.065466
H287	H	0.617789	0.299015	-0.084060
H288	H	0.572215	0.369678	-0.095030
H289	H	0.628732	0.313183	-0.038503
H290	H	0.590281	0.221662	-0.056519
H291	H	0.621575	0.079469	-0.087716
C292	C	0.076897	0.339556	0.097013
H293	H	0.038391	0.348489	0.092551
H294	H	0.098090	0.313889	0.081580
H295	H	0.098094	0.313896	0.138111
C296	C	0.630527	-0.020395	-0.096620
H297	H	0.649125	0.002113	-0.115228
H298	H	0.660088	-0.068546	-0.069656
H299	H	0.603569	-0.012052	-0.126181
H300	H	0.590369	-0.155228	-0.056463
C301	C	0.599325	-0.255105	-0.065363
H302	H	0.617927	-0.232603	-0.083975
H303	H	0.628883	-0.303256	-0.038393
H304	H	0.572368	-0.246766	-0.094922
C305	C	0.387468	0.402057	0.065742
H306	H	0.417036	0.411001	0.061263
H307	H	0.391942	0.376393	0.106838
H308	H	0.391932	0.376388	0.050307
C309	C	0.280348	0.402039	0.065760
H310	H	0.321448	0.364843	0.084349
H311	H	0.261752	0.399434	0.095327
H312	H	0.261742	0.399436	0.038792
H313	H	0.476979	0.646532	-0.275491
C314	C	0.184017	0.339563	0.097007
H315	H	0.180109	0.302364	0.115611
H316	H	0.205220	0.336954	0.070047
H317	H	0.205218	0.336970	0.126573
H318	H	0.590294	0.419895	-0.631584
C319	C	-0.116725	0.726866	-0.096605
H320	H	-0.112815	0.764064	-0.115196
H321	H	-0.137937	0.729472	-0.126171
H322	H	-0.137918	0.729464	-0.069633
H323	H	-0.190661	0.419857	0.056869
C324	C	-0.081886	0.402010	0.065796
H325	H	-0.085791	0.364809	0.084398
H326	H	-0.060682	0.399404	0.038836
H327	H	-0.060687	0.399418	0.095363
C328	C	-0.320184	0.664374	-0.065379
H329	H	-0.349753	0.655432	-0.060909
H330	H	-0.324647	0.690044	-0.049949
H331	H	-0.324656	0.690036	-0.106478
H332	H	0.257939	0.646572	-0.056504
C333	C	0.149163	0.664416	-0.065414
H334	H	0.153064	0.701620	-0.084012
H335	H	0.127950	0.667014	-0.094973
H336	H	0.127974	0.667011	-0.038437
H337	H	0.590282	0.419864	-0.254750
C338	C	0.905969	0.160834	0.000122
H339	H	0.940595	0.149291	0.023200
H340	H	0.905951	0.121046	0.016836
H341	H	0.905972	0.177556	-0.039681
