data_functionalizedCrystal
_audit_creation_method	'MofGen! by Chris Wilmer'
_symmetry_space_group_name_H-M	'P1'
_symmetry_Int_Tables_number	1
_symmetry_cell_setting	triclinic
loop_
_symmetry_equiv_pos_as_xyz
  x,y,z
_cell_length_a	17.000371
_cell_length_b	17.000383
_cell_length_c	9.016244
_cell_angle_alpha	89.998310
_cell_angle_beta	89.992397
_cell_angle_gamma	75.599775
loop_
_atom_site_label
_atom_site_type_symbol
_atom_site_fract_x
_atom_site_fract_y
_atom_site_fract_z
O1	O	1.054090	0.028818	-0.123345
O2	O	0.820325	0.057848	-0.123346
O3	O	0.951721	-0.073549	-0.123340
O4	O	0.922694	0.160215	-0.123352
O5	O	0.951703	-0.073545	0.123341
O6	O	0.820307	0.057852	0.123335
O7	O	1.054071	0.028822	0.123335
Cu8	Cu	0.937188	0.043337	0.145859
Cu9	Cu	0.937209	0.043333	-0.145870
O10	O	0.922676	0.160219	0.123329
C11	C	0.790554	0.059409	-0.000006
C12	C	0.701870	0.064046	-0.000006
C13	C	0.674838	-0.007305	0.000000
C14	C	0.591510	-0.002944	-0.000011
C15	C	0.535216	0.072769	-0.000017
C16	C	0.562253	0.144125	-0.000028
C17	C	0.645580	0.139763	-0.000028
C18	C	0.282890	0.089619	-0.000028
C19	C	0.199559	0.093975	-0.000024
C20	C	0.228822	-0.053094	-0.000010
C21	C	0.312149	-0.057450	-0.000000
C22	C	0.339179	0.013906	-0.000019
C23	C	0.450040	0.077229	-0.000024
C24	C	0.424353	0.009446	-0.000023
C25	C	0.953271	-0.103310	-0.000001
C26	C	0.957907	-0.191992	-0.000006
C27	C	0.987840	-0.694304	-0.000012
C28	C	0.983478	-0.610976	-0.000003
C29	C	0.907765	-0.554682	-0.000010
C30	C	0.836409	-0.581720	-0.000011
C31	C	0.840772	-0.665047	-0.000010
C32	C	0.890914	-0.302357	-0.000006
C33	C	0.886556	-0.219026	-0.000012
C34	C	1.033626	-0.248287	-0.000001
C35	C	1.037982	-0.331614	-0.000008
C36	C	0.966626	-0.358645	-0.000001
C37	C	0.903305	-0.469507	-0.000006
C38	C	0.971088	-0.443819	0.000005
C39	C	1.083843	0.027261	-0.000008
C40	C	1.172526	0.022624	-0.000018
C41	C	0.921126	0.189980	-0.000013
C42	C	0.916490	0.278663	-0.000018
N43	N	0.937179	0.043340	0.351045
N44	N	0.937225	0.043323	-0.351056
C45	C	0.866708	0.113426	0.586074
C46	C	0.866833	0.113658	0.414183
C47	C	1.019363	0.055729	0.413383
C48	C	1.018970	0.056217	0.585327
C49	C	0.926313	-0.039413	0.585593
C50	C	0.924349	-0.038716	0.413639
H51	H	0.470191	-0.052199	-0.000026
H52	H	0.824898	-0.173191	-0.000013
N53	N	1.052744	-0.504537	0.000009
H54	H	1.084141	-0.496437	-0.091436
H55	H	1.084064	-0.496406	0.091513
N56	N	0.988556	-0.110456	0.356735
H57	H	0.978753	-0.162261	0.398780
H58	H	0.985944	-0.112030	0.244900
H59	H	0.832811	-0.324355	-0.000018
H60	H	0.357980	-0.119103	0.000011
H61	H	0.977806	-0.091512	0.626247
N62	N	0.821651	-0.408778	0.000011
H63	H	0.816574	-0.373547	-0.091424
H64	H	0.777148	-0.438591	0.000067
N65	N	0.138833	0.175638	-0.000072
H66	H	0.146945	0.207009	-0.091539
H67	H	0.081977	0.167491	-0.000019
H68	H	0.774762	-0.535879	-0.000008
N69	N	0.874988	0.194472	0.643206
H70	H	0.924216	0.185974	0.709645
H71	H	0.881463	0.230098	0.556727
H72	H	1.029478	0.116377	0.625413
N73	N	0.763816	-0.694209	-0.000003
H74	H	0.715190	-0.645904	-0.000008
H75	H	0.762429	-0.728148	-0.091445
N76	N	0.849063	-0.057104	0.643078
H77	H	0.862625	-0.109921	0.700029
H78	H	0.820393	-0.011617	0.710723
H79	H	0.516411	0.205772	-0.000043
H80	H	0.304887	0.147722	-0.000053
H81	H	0.667587	0.197865	-0.000026
H82	H	0.805556	0.107138	0.372040
N83	N	0.785258	0.105053	0.640902
H84	H	0.793276	0.055738	0.707032
H85	H	0.757748	0.155192	0.698859
H86	H	0.873189	0.175178	0.373034
H87	H	1.072772	0.006858	0.626912
N88	N	1.090209	-0.010426	0.359222
H89	H	1.069662	-0.049154	0.293595
H90	H	1.128522	0.014625	0.300895
N91	N	1.033818	0.134460	0.356322
H92	H	0.987246	0.162203	0.290108
H93	H	1.037778	0.171017	0.442832
H94	H	0.404196	0.138875	-0.000027
H95	H	0.863924	-0.048254	0.372897
H96	H	0.569505	-0.061045	-0.000007
N97	N	0.735548	-0.088971	0.000020
H98	H	0.727449	-0.120361	-0.091424
H99	H	0.792411	-0.080845	0.000080
N100	N	0.199668	-0.130053	0.000016
H101	H	0.138340	-0.115805	0.000017
H102	H	0.220628	-0.162930	-0.091428
H103	H	1.049495	-0.740134	-0.000018
H104	H	1.041580	-0.588971	0.000003
H105	H	1.091720	-0.226269	-0.000018
N106	N	1.119644	-0.392330	0.000011
H107	H	1.164184	-0.362560	0.000022
H108	H	1.124642	-0.427535	0.091464
