data_functionalizedCrystal
_audit_creation_method	'MofGen! by Chris Wilmer'
_symmetry_space_group_name_H-M	'P1'
_symmetry_Int_Tables_number	1
_symmetry_cell_setting	triclinic
loop_
_symmetry_equiv_pos_as_xyz
  x,y,z
_cell_length_a	13.339070
_cell_length_b	10.540539
_cell_length_c	11.804365
_cell_angle_alpha	101.953828
_cell_angle_beta	74.875130
_cell_angle_gamma	100.077393
loop_
_atom_site_label
_atom_site_type_symbol
_atom_site_fract_x
_atom_site_fract_y
_atom_site_fract_z
O1	O	1.367200	0.619505	-0.099049
O2	O	1.072067	0.535766	-0.099045
O3	O	1.226367	0.395225	-0.099046
O4	O	1.212901	0.760047	-0.099049
O5	O	1.185745	0.432172	0.099010
O6	O	1.031446	0.572714	0.099011
O7	O	1.326579	0.656453	0.099007
Cu8	Cu	1.175303	0.617957	0.117093
Cu9	Cu	1.223343	0.574262	-0.117131
O10	O	1.172279	0.796994	0.099007
C11	C	1.013965	0.540095	-0.000017
C12	C	0.901358	0.497931	-0.000015
C13	C	1.205047	0.366051	-0.000020
C14	C	1.202026	0.224072	-0.000026
C15	C	0.538938	0.825770	-0.000037
C16	C	0.644738	0.865388	-0.000042
C17	C	0.708898	0.773527	-0.000035
C18	C	0.667248	0.642042	-0.000023
C19	C	0.561440	0.602418	-0.000028
C20	C	0.731400	0.550175	-0.000026
C21	C	0.689750	0.418690	-0.000014
C22	C	0.583951	0.379073	-0.000018
C23	C	0.519791	0.470934	-0.000025
C24	C	0.837208	0.589799	-0.000021
C25	C	0.859710	0.366447	-0.000012
C26	C	0.753910	0.326829	-0.000007
C27	C	1.086340	0.001099	-0.000469
C28	C	1.089311	0.148845	-0.000023
C29	C	1.233073	0.202001	0.113073
C30	C	1.229207	0.054163	0.113168
C31	C	1.277693	0.012410	-0.112059
C32	C	1.279038	0.159467	-0.113554
C33	C	1.384682	0.652124	-0.000024
C34	C	1.497290	0.694286	-0.000034
C35	C	1.193600	0.826168	-0.000021
C36	C	1.196622	0.968145	-0.000023
N37	N	1.141522	0.648691	0.281834
N38	N	1.257132	0.543521	-0.281872
C39	C	1.338253	0.469692	0.655781
C40	C	1.363807	0.446436	0.531120
C41	C	1.308237	0.496997	0.468792
C42	C	1.227110	0.570820	0.531138
C43	C	1.201559	0.594087	0.655812
C44	C	1.171544	0.621392	0.468823
C45	C	1.090417	0.695214	0.531169
C46	C	1.064869	0.718477	0.655831
C47	C	1.120438	0.667916	0.718159
C48	C	1.197095	0.598125	0.344149
C49	C	1.060402	0.722520	0.344180
C50	C	1.034847	0.745776	0.468842
H51	H	0.871108	0.696856	-0.000026
H52	H	1.015154	0.763695	0.293434
H53	H	0.795045	0.805792	-0.000042
Br54	Br	1.039848	-0.097077	-0.135653
H55	H	1.025454	-0.029177	0.080183
Br56	Br	0.989907	0.219284	0.135328
Br57	Br	1.133486	0.010667	0.254079
H58	H	1.383495	0.428540	0.706537
Br59	Br	0.376197	0.417171	-0.000011
H60	H	1.178130	0.247459	0.197238
H61	H	0.486693	0.900547	-0.000052
H62	H	1.263149	0.538019	0.293398
H63	H	1.309217	0.034782	0.118298
H64	H	0.550047	0.272006	-0.000022
Br65	Br	1.413647	-0.020287	-0.113332
Br66	Br	1.369600	0.287585	0.120087
H67	H	1.429860	0.386332	0.480362
Br68	Br	0.946779	0.241766	-0.000018
Br69	Br	1.246186	-0.087542	-0.254936
Br70	Br	0.697372	0.148389	0.000010
H71	H	1.329047	0.478058	0.367287
Br72	Br	0.954784	0.818687	0.740448
H73	H	0.678644	0.972442	-0.000060
H74	H	1.063258	0.161776	-0.081097
Br75	Br	1.242059	0.180017	-0.253031
H76	H	1.362617	0.210424	-0.120385
H77	H	1.099630	0.686846	0.819669
Br78	Br	0.924747	0.845959	0.553467
