data_functionalizedCrystal
_audit_creation_method	'MofGen! by Chris Wilmer'
_symmetry_space_group_name_H-M	'P1'
_symmetry_Int_Tables_number	1
_symmetry_cell_setting	triclinic
loop_
_symmetry_equiv_pos_as_xyz
  x,y,z
_cell_length_a	15.712078
_cell_length_b	15.625325
_cell_length_c	14.185569
_cell_angle_alpha	94.303044
_cell_angle_beta	107.170411
_cell_angle_gamma	101.032154
loop_
_atom_site_label
_atom_site_type_symbol
_atom_site_fract_x
_atom_site_fract_y
_atom_site_fract_z
O1	O	1.168802	0.479356	0.090724
O2	O	0.911547	0.414638	0.067232
O3	O	1.036510	0.325393	0.034747
O4	O	1.043839	0.568602	0.123210
O5	O	1.073426	0.299033	0.191986
O6	O	0.948463	0.388279	0.224472
O7	O	1.205718	0.452996	0.247964
Cu8	Cu	1.080461	0.418231	0.250575
Cu9	Cu	1.036804	0.449404	0.064621
O10	O	1.080754	0.542242	0.280450
C11	C	0.896886	0.390886	0.142012
C12	C	0.798203	0.359373	0.130568
C13	C	0.454287	0.626910	0.227811
C14	C	0.361551	0.597286	0.217011
C15	C	0.369295	0.448829	0.163010
C16	C	0.462032	0.478441	0.173801
C17	C	0.504521	0.567483	0.206203
C18	C	0.512266	0.419014	0.152193
C19	C	0.604997	0.448623	0.162988
C20	C	0.647493	0.537660	0.195392
C21	C	0.597251	0.597092	0.216998
C22	C	0.469777	0.329972	0.119798
C23	C	0.520012	0.270544	0.098190
C24	C	0.612742	0.300155	0.108978
C25	C	0.655239	0.389192	0.141381
C26	C	0.662984	0.240723	0.087371
C27	C	0.755714	0.270332	0.098166
C28	C	0.747969	0.418801	0.152177
C29	C	1.051638	0.280366	0.101781
C30	C	1.041704	0.185471	0.067260
C31	C	1.109674	-0.198463	0.382295
C32	C	1.100340	-0.287628	0.349841
C33	C	1.060097	-0.258882	0.178428
C34	C	1.069424	-0.169714	0.210868
C35	C	1.094214	-0.139512	0.312802
C36	C	1.053963	-0.110762	0.141375
C37	C	1.063294	-0.021601	0.173812
C38	C	1.088085	0.008609	0.275742
C39	C	1.103544	-0.050350	0.345240
C40	C	1.029180	-0.140965	0.039441
C41	C	1.013719	-0.082013	-0.030052
C42	C	1.023043	0.007149	0.002385
C43	C	1.047834	0.037359	0.104315
C44	C	1.007584	0.066108	-0.067112
C45	C	1.016914	0.155269	-0.034675
C46	C	1.057165	0.126520	0.136753
C47	C	1.220378	0.476749	0.173182
C48	C	1.319060	0.508263	0.184620
C49	C	1.065626	0.587269	0.213413
C50	C	1.075559	0.682165	0.247928
N51	N	1.111173	0.396306	0.381366
N52	N	1.006098	0.471324	-0.066171
C53	C	0.915861	0.535701	0.799755
C54	C	0.939132	0.519101	0.898735
C55	C	1.049816	0.440124	0.869948
C56	C	1.026551	0.456714	0.770963
C57	C	0.959574	0.504503	0.735875
C58	C	1.070263	0.425516	0.707083
C59	C	1.047004	0.442109	0.608108
C60	C	0.980031	0.489898	0.573013
C61	C	0.936314	0.521096	0.636900
C62	C	1.137245	0.377732	0.742174
C63	C	1.180957	0.346535	0.678294
C64	C	1.157693	0.363122	0.579315
C65	C	1.090721	0.410911	0.544221
C66	C	1.201410	0.331924	0.515428
C67	C	1.178150	0.348517	0.416453
C68	C	1.067461	0.427504	0.445246
H69	H	0.723001	0.561766	0.204184
Cl70	Cl	0.976439	0.028131	-0.195252
H71	H	1.213747	0.323113	0.364441
Cl72	Cl	1.285617	0.271860	0.559553
H73	H	0.796616	0.221940	0.080568
H74	H	1.112929	-0.335626	0.406439
H75	H	0.782566	0.491307	0.178563
Cl76	Cl	1.166487	0.356880	0.866604
Cl77	Cl	0.609561	0.128787	0.046653
Cl78	Cl	0.353202	0.292747	0.106236
H79	H	1.039917	-0.283485	0.095433
Cl80	Cl	1.134707	-0.012376	0.473388
H81	H	1.077322	0.151106	0.219756
H82	H	0.631848	0.669598	0.243385
Cl83	Cl	1.099821	0.120700	0.316524
Cl84	Cl	1.265157	0.286461	0.722413
Cl85	Cl	0.997481	0.229385	-0.122038
Cl86	Cl	1.140837	-0.160489	0.510444
H87	H	0.903531	0.544511	0.950744
Cl88	Cl	0.831649	0.595769	0.755638
Cl89	Cl	0.298403	0.672004	0.244188
Cl90	Cl	0.507705	0.738852	0.268534
H91	H	0.334690	0.376329	0.136639
Cl92	Cl	1.017460	-0.253053	-0.001336
H93	H	0.993538	-0.106616	-0.113047
H94	H	1.104352	0.401216	0.898529
H95	H	0.485407	0.198044	0.071818
H96	H	0.961097	0.503411	0.492422
Cl97	Cl	0.983249	0.487572	0.401128
H98	H	0.881768	0.560003	0.608329
