data_functionalizedCrystal
_audit_creation_method	'MofGen! by Chris Wilmer'
_symmetry_space_group_name_H-M	'P1'
_symmetry_Int_Tables_number	1
_symmetry_cell_setting	triclinic
loop_
_symmetry_equiv_pos_as_xyz
  x,y,z
_cell_length_a	14.853566
_cell_length_b	19.188930
_cell_length_c	13.330367
_cell_angle_alpha	89.990231
_cell_angle_beta	89.995295
_cell_angle_gamma	83.389598
loop_
_atom_site_label
_atom_site_type_symbol
_atom_site_fract_x
_atom_site_fract_y
_atom_site_fract_z
O1	O	1.195863	0.091151	-0.083369
O2	O	0.933343	0.102011	-0.083387
O3	O	1.072178	-0.005050	-0.083358
O4	O	1.057027	0.198211	-0.083398
O5	O	1.072158	-0.005052	0.083489
O6	O	0.933323	0.102008	0.083460
O7	O	1.195843	0.091148	0.083478
Cu8	Cu	1.064581	0.096578	0.098704
Cu9	Cu	1.064605	0.096581	-0.098612
O10	O	1.057007	0.198209	0.083449
C11	C	0.899747	0.101518	0.000035
C12	C	0.799671	0.100043	0.000029
C13	C	0.376532	0.093810	-0.090901
C14	C	0.376531	0.093808	0.091002
C15	C	0.470558	0.095192	0.090999
C16	C	0.517575	0.095886	0.000044
C17	C	0.470567	0.095196	-0.090907
C18	C	0.517572	0.095889	0.181949
C19	C	0.611604	0.097274	0.181949
C20	C	0.658624	0.097964	0.090993
C21	C	0.611610	0.097273	0.000038
C22	C	0.658628	0.097967	-0.090916
C23	C	0.611616	0.097271	-0.181873
C24	C	0.517587	0.095886	-0.181863
C25	C	0.752653	0.099349	0.090983
C26	C	0.752662	0.099354	-0.090923
C27	C	1.071678	-0.031063	0.000069
C28	C	1.070205	-0.108573	0.000077
C29	C	1.151669	-0.153225	0.000088
C30	C	1.150285	-0.226054	0.000071
C31	C	1.067433	-0.254226	0.000065
C32	C	0.985958	-0.209564	0.000049
C33	C	0.987344	-0.136737	0.000055
N34	N	1.004095	-0.362443	0.056842
N35	N	1.002784	-0.431626	0.056838
C36	C	1.063252	-0.473649	0.000044
N37	N	1.125094	-0.443877	-0.056733
N38	N	1.126408	-0.374688	-0.056725
C39	C	1.065921	-0.333194	0.000058
C40	C	1.143221	-0.597271	0.000036
C41	C	1.141834	-0.670100	0.000013
C42	C	0.977504	-0.653609	0.000001
C43	C	0.978893	-0.580781	0.000013
C44	C	1.061754	-0.552617	0.000036
C45	C	1.229439	0.091642	0.000054
C46	C	1.329514	0.093116	0.000054
C47	C	1.057508	0.224223	0.000020
C48	C	1.058980	0.301732	0.000005
N49	N	1.064571	0.096576	0.237485
N50	N	1.064622	0.096578	-0.237394
C51	C	1.003125	0.143969	0.710095
C52	C	1.126108	0.049188	0.710089
C53	C	1.126098	0.049186	0.605071
C54	C	1.064601	0.096576	0.552560
C55	C	1.003115	0.143969	0.605067
C56	C	1.187589	0.001798	0.552555
C57	C	1.187582	0.001795	0.447531
C58	C	1.126080	0.049183	0.395018
C59	C	1.064591	0.096577	0.447532
C60	C	1.003095	0.143968	0.395021
C61	C	0.941600	0.191359	0.447533
C62	C	0.941614	0.191357	0.552554
C63	C	1.126067	0.049185	0.289996
C64	C	1.003085	0.143969	0.289993
H65	H	0.790925	0.099923	0.165038
H66	H	1.219141	-0.130299	0.000102
C67	C	0.949688	0.264764	0.742399
C68	C	0.935528	0.196060	0.767805
H69	H	0.907950	0.296921	0.778022
H70	H	1.009813	0.272431	0.759611
H71	H	0.940888	0.271536	0.672333
H72	H	0.944335	0.189286	0.837870
H73	H	0.875389	0.188390	0.750600
H74	H	0.338251	0.093241	-0.164955
H75	H	0.649909	0.097841	-0.255928
H76	H	1.210691	-0.574338	0.000049
H77	H	0.891548	0.229942	0.595316
H78	H	0.649874	0.097839	0.256011
H79	H	1.216626	-0.262417	0.000076
C80	C	1.179513	-0.071607	0.742447
C81	C	1.193694	-0.002906	0.767810
H82	H	1.221241	-0.103769	0.778083
H83	H	1.119383	-0.079261	0.759672
H84	H	1.188314	-0.078384	0.672384
H85	H	1.184887	0.003873	0.837873
H86	H	1.253838	0.004751	0.750592
H87	H	0.479283	0.095329	0.255999
C88	C	1.240991	-0.118996	0.584911
C89	C	1.255168	-0.050297	0.610283
H90	H	1.282712	-0.151160	0.620553
H91	H	1.180858	-0.126651	0.602124
H92	H	1.249802	-0.125772	0.514850
H93	H	1.246351	-0.043520	0.680344
H94	H	1.315315	-0.042639	0.593077
C95	C	0.743217	0.099220	-0.270731
C96	C	0.804340	0.100121	-0.190905
H97	H	0.775121	0.099699	-0.332454
H98	H	0.713585	0.057996	-0.266938
H99	H	0.699499	0.139362	-0.266944
H100	H	0.848054	0.059976	-0.194688
H101	H	0.833987	0.141349	-0.194700
C102	C	1.207255	-0.093342	0.329726
C103	C	1.255065	-0.050455	0.389938
H104	H	1.248886	-0.125643	0.294204
H105	H	1.169729	-0.118346	0.370803
H106	H	1.170736	-0.065121	0.283325
H107	H	1.291578	-0.078676	0.436344
H108	H	1.292606	-0.025449	0.348857
H109	H	0.918498	-0.232507	0.000042
C110	C	0.886991	0.233440	0.286537
C111	C	0.874004	0.243451	0.389805
H112	H	0.845257	0.265596	0.250898
H113	H	0.947118	0.241112	0.269326
H114	H	0.877389	0.186825	0.269350
H115	H	0.883613	0.290064	0.406993
H116	H	0.813863	0.235785	0.407022
H117	H	0.921004	-0.100380	0.000047
H118	H	1.208175	-0.706457	0.000016
C119	C	0.902414	-0.757921	-0.000015
C120	C	0.886429	-0.684568	-0.000009
H121	H	0.846185	-0.777034	-0.000019
H122	H	0.935948	-0.773228	-0.058192
H123	H	0.935937	-0.773247	0.058175
H124	H	0.852911	-0.669241	-0.058203
H125	H	0.852881	-0.669254	0.058175
H126	H	0.479301	0.095318	-0.255914
H127	H	0.912556	-0.544424	0.000011
H128	H	1.176139	0.010603	0.247246
C129	C	0.232390	0.091688	0.171774
C130	C	0.324851	0.093048	0.190976
H131	H	0.200486	0.091214	0.233498
H132	H	0.209956	0.132142	0.134403
H133	H	0.224024	0.050776	0.134412
H134	H	0.333218	0.133962	0.228332
H135	H	0.347292	0.052589	0.228363
H136	H	0.953003	0.182558	0.247245
