data_functionalizedCrystal
_audit_creation_method	'MofGen! by Chris Wilmer'
_symmetry_space_group_name_H-M	'P1'
_symmetry_Int_Tables_number	1
_symmetry_cell_setting	triclinic
loop_
_symmetry_equiv_pos_as_xyz
  x,y,z
_cell_length_a	21.395362
_cell_length_b	17.640280
_cell_length_c	21.395355
_cell_angle_alpha	101.215078
_cell_angle_beta	90.043940
_cell_angle_gamma	78.812025
loop_
_atom_site_label
_atom_site_type_symbol
_atom_site_fract_x
_atom_site_fract_y
_atom_site_fract_z
Zn1	Zn	1.008318	-0.314390	0.304290
Zn2	Zn	1.029429	-0.446530	0.178373
Zn3	Zn	0.903539	-0.314427	0.199486
Zn4	Zn	0.924713	-0.446546	0.283075
O5	O	0.966500	-0.380473	0.241306
O6	O	1.098793	-0.331896	0.287630
O7	O	1.012702	-0.429015	0.093494
O8	O	0.899742	-0.203828	0.231102
O9	O	1.114303	-0.428979	0.195119
O10	O	0.976723	-0.203801	0.308102
O11	O	0.920212	-0.331959	0.109006
O12	O	0.818673	-0.331975	0.210531
O13	O	0.935830	-0.429007	0.373569
O14	O	0.834230	-0.429043	0.271944
O15	O	0.997254	-0.331912	0.389155
O16	O	1.033234	-0.557126	0.174548
O17	O	0.956300	-0.557138	0.251472
C18	C	0.803719	-0.380515	0.241227
C19	C	0.734083	-0.380552	0.241204
C20	C	0.709497	-0.431162	0.273111
C21	C	0.644059	-0.431143	0.273143
C22	C	0.603210	-0.380521	0.241254
C23	C	0.627802	-0.329901	0.209346
C24	C	0.693239	-0.329917	0.209321
C25	C	0.498463	-0.374155	0.185867
C26	C	0.433029	-0.374145	0.185890
C27	C	0.401381	-0.380470	0.241331
C28	C	0.435178	-0.386821	0.296749
C29	C	0.500615	-0.386836	0.296724
C30	C	0.532254	-0.380499	0.241278
C31	C	0.305840	-0.431062	0.273275
C32	C	0.240399	-0.431037	0.273308
C33	C	0.224144	-0.329800	0.209505
C34	C	0.289583	-0.329820	0.209478
C35	C	0.330428	-0.380456	0.241362
C36	C	0.999372	-0.585808	0.208431
C37	C	1.013493	-0.673651	0.194387
C38	C	0.859485	-0.962724	0.348219
C39	C	0.872755	-1.045266	0.335003
C40	C	0.952916	-1.045188	0.254983
C41	C	0.939655	-0.962645	0.268194
C42	C	0.892939	-0.921419	0.314813
C43	C	0.973109	-0.921340	0.234788
C44	C	0.959847	-0.838803	0.247996
C45	C	0.913131	-0.797572	0.294610
C46	C	0.879677	-0.838883	0.328021
C47	C	1.019822	-0.962567	0.188167
C48	C	1.053276	-0.921262	0.154760
C49	C	1.040017	-0.838724	0.167971
C50	C	0.993301	-0.797492	0.214586
C51	C	1.073472	-0.797413	0.134561
C52	C	1.060209	-0.714877	0.147769
C53	C	0.980039	-0.714956	0.227794
C54	C	1.129916	-0.380432	0.241386
C55	C	1.199555	-0.380414	0.241420
C56	C	0.966549	-0.380457	0.404732
C57	C	0.966570	-0.380450	0.474374
C58	C	0.933515	-0.174337	0.274324
C59	C	0.919460	-0.086494	0.288394
C60	C	0.966477	-0.380432	0.078525
C61	C	0.966542	-0.380216	0.008919
C62	C	0.998552	-0.329891	0.515205
C63	C	0.998545	-0.329857	0.580646
C64	C	0.966566	-0.380397	0.605251
C65	C	0.934577	-0.430960	0.564412
C66	C	0.934579	-0.430986	0.498974
C67	C	0.973012	-0.451559	0.697531
C68	C	0.973014	-0.451533	0.762968
C69	C	0.966557	-0.380313	0.807086
C70	C	0.960109	-0.309116	0.785758
C71	C	0.960111	-0.309143	0.720320
C72	C	0.966560	-0.380373	0.676208
C73	C	0.998533	-0.329712	0.918875
C74	C	0.998522	-0.329677	0.984317
C75	C	0.934559	-0.430787	0.968082
C76	C	0.934565	-0.430815	0.902642
C77	C	0.966556	-0.380279	0.878042
H78	H	0.220383	-0.472248	0.299295
O79	O	1.029689	-0.280733	0.894931
C80	C	1.112562	-0.270114	0.822794
C81	C	1.077340	-0.325672	0.849865
H82	H	1.151086	-0.306424	0.786344
H83	H	1.135463	-0.233982	0.863194
H84	H	1.077175	-0.228794	0.798773
H85	H	1.112687	-0.367040	0.873880
H86	H	1.054428	-0.361749	0.809441
O87	O	0.903523	-0.480032	0.459222
C88	C	0.875218	-0.524921	0.351209
C89	C	0.910400	-0.469322	0.396160
H90	H	0.880778	-0.516294	0.300212
H91	H	0.822463	-0.511049	0.366206
H92	H	0.896408	-0.588630	0.353930
H93	H	0.889264	-0.405595	0.393460
H94	H	0.963154	-0.483263	0.381149
H95	H	0.908527	-0.471991	0.869396
O96	O	0.834265	-0.798952	0.373315
C97	C	0.756192	-0.807730	0.451344
C98	C	0.807587	-0.853050	0.400055
H99	H	0.734618	-0.851448	0.472987
H100	H	0.717202	-0.769157	0.428748
H101	H	0.778744	-0.769023	0.490303
H102	H	0.785092	-0.891800	0.361081
H103	H	0.846571	-0.891573	0.422698
H104	H	1.111504	-0.830991	0.096601
H105	H	0.902330	-0.730366	0.305359
H106	H	0.908538	-0.472107	0.584451
H107	H	0.713255	-0.288701	0.183339
H108	H	1.024564	-0.288501	1.017562
H109	H	0.624037	-0.472355	0.299127
H110	H	0.978100	-0.509540	0.661617
O111	O	0.313486	-0.280581	0.178580
C112	C	0.370351	-0.173917	0.187337
C113	C	0.343300	-0.229623	0.222411
H114	H	0.394474	-0.132715	0.222756
H115	H	0.329936	-0.137674	0.164569
H116	H	0.406710	-0.210167	0.148703
H117	H	0.306950	-0.193434	0.261073
H118	H	0.383748	-0.265869	0.245134
H119	H	0.405517	-0.368979	0.140765
O120	O	0.529112	-0.368048	0.131943
C121	C	0.520071	-0.355454	0.021993
C122	C	0.485286	-0.362379	0.083011
H123	H	0.484650	-0.350853	-0.017580
H124	H	0.559359	-0.409817	0.006557
H125	H	0.541952	-0.300505	0.031847
H126	H	0.463366	-0.417296	0.073207
H127	H	0.446031	-0.307978	0.098430
O128	O	0.345560	-0.480324	0.304148
C129	C	0.436511	-0.587031	0.295333
C130	C	0.391570	-0.531304	0.260287
H131	H	0.473730	-0.628252	0.259889
H132	H	0.407731	-0.623254	0.318129
H133	H	0.461370	-0.550799	0.333943
H134	H	0.366700	-0.567476	0.221650
H135	H	0.420384	-0.495080	0.237536
H136	H	0.742749	-0.472392	0.299075
O137	O	0.998365	-1.085157	0.209745
C138	C	1.109004	-1.110336	0.175465
C139	C	1.057593	-1.065008	0.226736
H140	H	1.156903	-1.094075	0.189191
H141	H	1.095476	-1.094125	0.127513
H142	H	1.112697	-1.176417	0.171756
H143	H	1.053873	-0.998917	0.230503
H144	H	1.071142	-1.081285	0.274662
O145	O	0.979256	-0.520757	0.783575
C146	C	0.992083	-0.662020	0.754062
C147	C	0.985006	-0.583678	0.730640
H148	H	0.996747	-0.712914	0.711277
H149	H	0.948297	-0.660842	0.784838
H150	H	1.036495	-0.670303	0.783419
H151	H	0.940619	-0.575346	0.701258
H152	H	1.028824	-0.584893	0.699898
H153	H	0.594538	-0.288684	0.183383
H154	H	0.821448	-0.929157	0.386185
H155	H	1.024587	-0.288681	0.613897
H156	H	0.528130	-0.392005	0.341848
O157	O	0.184472	-0.280748	0.178427
C158	C	0.108777	-0.269971	0.095600
C159	C	0.153690	-0.325609	0.130741
H160	H	0.083868	-0.306218	0.057048
H161	H	0.137579	-0.233830	0.072737
H162	H	0.071598	-0.228663	0.131036
H163	H	0.190877	-0.366965	0.095346
H164	H	0.124845	-0.361695	0.153615
H165	H	1.030620	-1.029773	0.177416
O166	O	0.840219	-1.085268	0.367540
C167	C	0.759277	-1.076634	0.448284
C168	C	0.796085	-1.031234	0.411497
H169	H	0.723578	-1.032967	0.483822
H170	H	0.794195	-1.115203	0.474952
H171	H	0.732779	-1.115352	0.413272
H172	H	0.822586	-0.992473	0.446465
H173	H	0.761137	-0.992715	0.384819
H174	H	0.409412	-0.391970	0.341895
O175	O	0.903600	-0.479972	0.991986
C176	C	0.912243	-0.586623	1.048816
C177	C	0.947387	-0.530980	1.021761
H178	H	0.947627	-0.627866	1.072907
H179	H	0.889411	-0.622826	1.008404
H180	H	0.873658	-0.550326	1.085207
H181	H	0.986000	-0.567216	0.985380
H182	H	0.970174	-0.494775	1.062208
O183	O	1.098720	-0.961352	0.109557
C184	C	1.198241	-1.054485	0.086320
C185	C	1.146833	-1.009117	0.137581
H186	H	1.237146	-1.093126	0.108955
H187	H	1.219928	-1.010825	0.064712
H188	H	1.175679	-1.093134	0.047328
H189	H	1.169346	-0.970468	0.176611
H190	H	1.125151	-1.052819	0.159138
O191	O	1.092687	-0.674833	0.115219
C192	C	1.119058	-0.649527	0.012729
C193	C	1.082263	-0.694941	0.049514
H194	H	1.110633	-0.665755	-0.040399
H195	H	1.172184	-0.665694	0.021155
H196	H	1.101562	-0.583459	0.030209
H197	H	1.099706	-0.761019	0.032057
H198	H	1.029143	-0.678709	0.041087
O199	O	1.029629	-0.280722	0.491419
C200	C	1.093104	-0.180469	0.514426
C201	C	1.057924	-0.236101	0.541450
H202	H	1.116001	-0.144391	0.554861
H203	H	1.057750	-0.139110	0.490406
H204	H	1.131645	-0.216769	0.477989
H205	H	1.019384	-0.199865	0.577911
H206	H	1.093318	-0.277463	0.565431
H207	H	0.954860	-0.251173	0.702958
O208	O	0.953715	-0.239931	0.828629
C209	C	0.891621	-0.151357	0.916649
C210	C	0.898781	-0.229718	0.868125
H211	H	0.847217	-0.143083	0.948603
H212	H	0.886966	-0.100449	0.890194
H213	H	0.935414	-0.152554	0.947104
H214	H	0.855003	-0.228599	0.837657
H215	H	0.903466	-0.280593	0.894620
H216	H	0.942002	-0.681389	0.265760
