data_functionalizedCrystal
_audit_creation_method	'MofGen! by Chris Wilmer'
_symmetry_space_group_name_H-M	'P1'
_symmetry_Int_Tables_number	1
_symmetry_cell_setting	triclinic
loop_
_symmetry_equiv_pos_as_xyz
  x,y,z
_cell_length_a	16.974800
_cell_length_b	10.723023
_cell_length_c	16.053802
_cell_angle_alpha	92.591082
_cell_angle_beta	91.074188
_cell_angle_gamma	83.927595
loop_
_atom_site_label
_atom_site_type_symbol
_atom_site_fract_x
_atom_site_fract_y
_atom_site_fract_z
O1	O	1.049937	0.159066	0.001541
O2	O	1.549937	0.659066	0.501541
O3	O	0.820579	0.178168	-0.013963
O4	O	1.320579	0.678168	0.486037
O5	O	0.940548	-0.013013	-0.005850
O6	O	1.440548	0.486987	0.494150
O7	O	0.929967	0.350247	-0.006572
O8	O	1.429967	0.850247	0.493428
O9	O	0.933945	-0.002533	0.132562
O10	O	1.433945	0.497467	0.632562
O11	O	0.813975	0.188648	0.124449
O12	O	1.313975	0.688648	0.624449
O13	O	1.043333	0.169546	0.139954
O14	O	1.543333	0.669546	0.639954
Zn15	Zn	0.927606	0.180761	0.154177
Zn16	Zn	1.427606	0.680761	0.654177
Zn17	Zn	0.936306	0.166953	-0.028187
Zn18	Zn	1.436306	0.666953	0.471813
O19	O	0.923363	0.360727	0.131840
O20	O	1.423363	0.860727	0.631840
C21	C	0.787909	0.182490	0.053258
C22	C	1.287909	0.682490	0.553258
C23	C	0.700401	0.179738	0.047342
C24	C	1.200401	0.679738	0.547342
C25	C	0.655695	0.184155	0.120013
C26	C	1.155695	0.684155	0.620013
C27	C	0.573474	0.181550	0.114458
C28	C	1.073474	0.681550	0.614458
C29	C	0.535960	0.174537	0.036230
C30	C	1.035960	0.674537	0.536230
C31	C	0.580672	0.170116	-0.036447
C32	C	1.080672	0.670116	0.463553
C33	C	0.662893	0.172712	-0.030890
C34	C	1.162893	0.672712	0.469110
C35	C	0.290444	0.166151	0.011521
C36	C	0.790444	0.666151	0.511521
C37	C	0.208217	0.163559	0.005969
C38	C	0.708217	0.663559	0.505969
C39	C	0.201025	0.174990	0.156875
C40	C	0.701025	0.674990	0.656875
C41	C	0.283246	0.177594	0.162425
C42	C	0.783246	0.677594	0.662425
C43	C	0.327952	0.173166	0.089748
C44	C	0.827952	0.673166	0.589748
N45	N	0.451916	0.171877	0.030549
N46	N	0.951916	0.671877	0.530549
N47	N	0.411995	0.175816	0.095430
N48	N	0.911995	0.675816	0.595430
C49	C	0.936477	-0.054265	0.063303
C50	C	1.436477	0.445735	0.563303
C51	C	0.934173	-0.192796	0.063145
C52	C	1.434173	0.307204	0.563145
C53	C	0.936567	-0.259980	-0.008627
C54	C	1.436567	0.240020	0.491373
C55	C	0.934187	-0.403159	-0.008793
C56	C	1.434187	0.096841	0.491207
C57	C	1.076003	0.165224	0.072731
C58	C	1.576003	0.665224	0.572731
C59	C	1.163511	0.167975	0.078641
C60	C	1.663511	0.667975	0.578641
C61	C	0.927435	0.401979	0.062685
C62	C	1.427435	0.901979	0.562685
C63	C	0.929739	0.540509	0.062838
C64	C	1.429739	1.040509	0.562838
N65	N	0.921673	0.190183	0.278636
N66	N	1.421673	0.690183	0.778636
N67	N	0.942245	0.157521	-0.152646
N68	N	1.442245	0.657521	0.347354
C69	C	0.972740	0.108864	0.325784
C70	C	1.472740	0.608864	0.825784
C71	C	0.968597	0.115467	0.412910
C72	C	1.468597	0.615467	0.912910
C73	C	0.913392	0.203396	0.452888
C74	C	1.413392	0.703396	0.952888
C75	C	0.862320	0.284718	0.405734
C76	C	1.362320	0.784718	0.905734
C77	C	0.866459	0.278109	0.318609
C78	C	1.366459	0.778109	0.818609
C79	C	0.895312	0.232233	0.713075
C80	C	1.395312	0.732233	1.213075
C81	C	0.891178	0.238840	0.800207
C82	C	1.391178	0.738840	1.300207
C83	C	0.997455	0.069586	0.807377
C84	C	1.497455	0.569586	1.307377
C85	C	1.001592	0.062989	0.720250
C86	C	1.501592	0.562989	1.220250
C87	C	0.950518	0.144307	0.673103
C88	C	1.450518	0.644307	1.173103
N89	N	0.909158	0.210150	0.541946
N90	N	1.409158	0.710150	1.041946
N91	N	0.954748	0.137546	0.584047
N92	N	1.454748	0.637546	1.084047
H93	H	0.313785	0.183298	0.226126
H94	H	0.813785	0.683298	0.726126
Br95	Br	0.926338	-0.363245	0.165265
Br96	Br	1.426338	0.136755	0.665265
Br97	Br	0.937606	-0.499416	-0.111215
Br98	Br	1.437606	0.000584	0.388785
Br99	Br	1.047671	-0.010465	0.271538
Br100	Br	1.547671	0.489535	0.771538
Br101	Br	0.706598	0.193686	0.226185
Br102	Br	1.206598	0.693686	0.726185
H103	H	0.853726	0.298448	0.674695
H104	H	1.353726	0.798448	1.174695
Br105	Br	1.037900	0.005100	0.476899
Br106	Br	1.537900	0.505100	0.976899
Br107	Br	0.787391	0.404044	0.459986
Br108	Br	1.287391	0.904044	0.959986
Br109	Br	1.076517	-0.056338	0.665993
Br110	Br	1.576517	0.443662	1.165993
Br111	Br	1.066765	-0.040771	0.871364
Br112	Br	1.566765	0.459229	1.371364
Br113	Br	0.816253	0.358188	0.854457
Br114	Br	1.316253	0.858188	1.354457
H115	H	0.537079	0.185125	0.173635
H116	H	1.037079	0.685125	0.673635
H117	H	0.326834	0.162541	-0.047658
H118	H	0.826834	0.662541	0.452342
Br119	Br	0.797147	0.388467	0.254622
Br120	Br	1.297147	0.888467	0.754622
H121	H	0.550122	0.164397	-0.100142
H122	H	1.050122	0.664397	0.399858
H123	H	0.164617	0.178593	0.216044
H124	H	0.664617	0.678593	0.716044
H125	H	0.177676	0.157851	-0.057736
H126	H	0.677676	0.657851	0.442264
Br127	Br	0.723568	0.166706	-0.129520
Br128	Br	1.223568	0.666706	0.370480
H129	H	0.940376	-0.211499	-0.069952
H130	H	1.440376	0.288501	0.430048
H131	H	0.930356	-0.241276	0.124469
H132	H	1.430356	0.258724	0.624469
