data_functionalizedCrystal
_audit_creation_method	'MofGen! by Chris Wilmer'
_symmetry_space_group_name_H-M	'P1'
_symmetry_Int_Tables_number	1
_symmetry_cell_setting	triclinic
loop_
_symmetry_equiv_pos_as_xyz
  x,y,z
_cell_length_a	16.109301
_cell_length_b	14.971486
_cell_length_c	14.048226
_cell_angle_alpha	89.993360
_cell_angle_beta	89.996259
_cell_angle_gamma	83.537805
loop_
_atom_site_label
_atom_site_type_symbol
_atom_site_fract_x
_atom_site_fract_y
_atom_site_fract_z
O1	O	1.103277	0.114973	-0.079101
O2	O	1.436611	0.448307	0.254232
O3	O	1.769944	0.781640	0.587566
O4	O	0.861233	0.129281	-0.079116
O5	O	1.194566	0.462615	0.254217
O6	O	1.527900	0.795948	0.587551
O7	O	0.988743	-0.008082	-0.079101
O8	O	1.322076	0.325251	0.254232
O9	O	1.655409	0.658585	0.587565
O10	O	0.975768	0.252337	-0.079116
O11	O	1.309101	0.585670	0.254218
O12	O	1.642434	0.919003	0.587551
O13	O	0.988727	-0.008090	0.079220
O14	O	1.322061	0.325243	0.412553
O15	O	1.655394	0.658576	0.745887
O16	O	0.861218	0.129273	0.079205
O17	O	1.194551	0.462607	0.412539
O18	O	1.527884	0.795940	0.745872
O19	O	1.103262	0.114965	0.079220
O20	O	1.436595	0.448299	0.412554
O21	O	1.769929	0.781632	0.745887
Zn22	Zn	0.982237	0.122118	0.104350
Zn23	Zn	1.315571	0.455451	0.437683
Zn24	Zn	1.648904	0.788785	0.771016
Zn25	Zn	0.982258	0.122129	-0.104245
Zn26	Zn	1.315591	0.455462	0.229088
Zn27	Zn	1.648924	0.788795	0.562421
O28	O	0.975752	0.252329	0.079206
O29	O	1.309086	0.585662	0.412539
O30	O	1.642419	0.918995	0.745872
C31	C	0.988155	-0.041410	0.000059
C32	C	1.321488	0.291923	0.333392
C33	C	1.654821	0.625257	0.666726
C34	C	0.986416	-0.140705	0.000058
C35	C	1.319749	0.192629	0.333391
C36	C	1.653083	0.525962	0.666725
C37	C	0.830250	0.128698	0.000043
C38	C	1.163583	0.462031	0.333376
C39	C	1.496917	0.795364	0.666709
C40	C	0.737952	0.126960	0.000037
C41	C	1.071286	0.460293	0.333370
C42	C	1.404619	0.793627	0.666704
C43	C	1.061324	-0.198038	0.000063
C44	C	1.394658	0.135295	0.333397
C45	C	1.727991	0.468629	0.666730
C46	C	1.059685	-0.291335	0.000054
C47	C	1.393019	0.041998	0.333387
C48	C	1.726352	0.375332	0.666720
C49	C	0.983137	-0.327297	0.000046
C50	C	1.316471	0.006036	0.333379
C51	C	1.649804	0.339370	0.666712
C52	C	0.908223	-0.269956	0.000037
C53	C	1.241557	0.063377	0.333371
C54	C	1.574890	0.396710	0.666704
C55	C	0.909863	-0.176661	0.000040
C56	C	1.243196	0.156672	0.333374
C57	C	1.576530	0.490006	0.666707
C58	C	0.904811	-0.464414	0.000034
C59	C	1.238144	-0.131081	0.333367
C60	C	1.571478	0.202253	0.666700
C61	C	0.903171	-0.557716	0.000033
C62	C	1.236504	-0.224382	0.333366
C63	C	1.569838	0.108951	0.666699
C64	C	1.054633	-0.579088	0.000047
C65	C	1.387967	-0.245755	0.333381
C66	C	1.721300	0.087579	0.666714
C67	C	1.056273	-0.485793	0.000050
C68	C	1.389606	-0.152459	0.333383
C69	C	1.722940	0.180874	0.666717
C70	C	0.981359	-0.428458	0.000044
C71	C	1.314692	-0.095125	0.333377
C72	C	1.648025	0.238208	0.666710
C73	C	0.515777	0.204428	0.000044
C74	C	0.849110	0.537762	0.333377
C75	C	1.182443	0.871095	0.666711
C76	C	0.429054	0.202789	0.000050
C77	C	0.762387	0.536122	0.333383
C78	C	1.095721	0.869455	0.666717
C79	C	0.448725	0.039812	0.000055
C80	C	0.782059	0.373145	0.333388
C81	C	1.115392	0.706479	0.666722
C82	C	0.535446	0.041452	0.000056
C83	C	0.868779	0.374786	0.333389
C84	C	1.202113	0.708119	0.666722
C85	C	0.568969	0.123763	0.000045
C86	C	0.902302	0.457097	0.333379
C87	C	1.235636	0.790430	0.666712
C88	C	0.395526	0.120483	0.000051
C89	C	0.728859	0.453816	0.333384
C90	C	1.062193	0.787150	0.666718
C91	C	0.301498	0.118705	0.000058
C92	C	0.634831	0.452038	0.333391
C93	C	0.968164	0.785371	0.666724
C94	C	0.663003	0.125542	0.000040
C95	C	0.996337	0.458876	0.333374
C96	C	1.329670	0.792209	0.666707
C97	C	1.134245	0.115549	0.000060
C98	C	1.467579	0.448882	0.333393
C99	C	1.800912	0.782216	0.666726
C100	C	1.226543	0.117286	0.000059
C101	C	1.559876	0.450620	0.333392
C102	C	1.893209	0.783953	0.666726
C103	C	0.976340	0.285657	0.000043
C104	C	1.309674	0.618990	0.333377
C105	C	1.643007	0.952323	0.666710
C106	C	0.978079	0.384951	0.000038
C107	C	1.311413	0.718284	0.333371
C108	C	1.644746	1.051618	0.666705
N109	N	0.982230	0.122110	0.246710
N110	N	1.315563	0.455443	0.580044
N111	N	1.648896	0.788777	0.913377
N112	N	0.982272	0.122129	-0.246606
N113	N	1.315605	0.455463	0.086727
N114	N	1.648939	0.788796	0.420061
C115	C	1.038709	0.061311	0.296535
C116	C	1.372042	0.394644	0.629868
C117	C	1.705375	0.727977	0.963202
C118	C	1.038714	0.061310	0.396193
C119	C	1.372048	0.394644	0.729526
C120	C	1.705381	0.727977	1.062859
C121	C	0.982244	0.122114	0.446024
C122	C	1.315578	0.455447	0.779357
C123	C	1.648911	0.788781	1.112691
C124	C	0.925759	0.182916	0.396192
C125	C	1.259093	0.516250	0.729526
C126	C	1.592426	0.849583	1.062859
C127	C	0.925750	0.182912	0.296537
C128	C	1.259084	0.516245	0.629870
C129	C	1.592417	0.849579	0.963203
C130	C	0.925783	0.182923	0.603907
C131	C	1.259117	0.516256	0.937240
C132	C	1.592450	0.849590	1.270573
C133	C	0.925793	0.182929	0.703569
C134	C	1.259126	0.516262	1.036903
C135	C	1.592460	0.849595	1.370236
C136	C	1.038747	0.061321	0.703563
C137	C	1.372081	0.394654	1.036896
C138	C	1.705414	0.727988	1.370229
C139	C	1.038738	0.061317	0.603907
C140	C	1.372072	0.394650	0.937240
C141	C	1.705405	0.727983	1.270574
C142	C	0.982254	0.122120	0.554082
C143	C	1.315587	0.455454	0.887416
C144	C	1.648921	0.788787	1.220749
H145	H	1.123658	-0.168766	0.000076
H146	H	1.456992	0.164568	0.333409
H147	H	1.790325	0.497901	0.666743
H148	H	0.421420	-0.027203	0.000069
H149	H	0.754753	0.306130	0.333403
H150	H	1.088087	0.639464	0.666736
Cl151	Cl	1.153861	-0.363408	0.000063
Cl152	Cl	1.487194	-0.030075	0.333397
Cl153	Cl	1.820527	0.303259	0.666730
Cl154	Cl	0.602322	-0.059964	0.000065
Cl155	Cl	0.935655	0.273370	0.333398
Cl156	Cl	1.268989	0.606703	0.666732
Cl157	Cl	1.109734	-0.015117	0.541260
Cl158	Cl	1.443067	0.318216	0.874593
Cl159	Cl	1.776401	0.651550	1.207927
Cl160	Cl	0.854742	0.259346	0.233901
Cl161	Cl	1.188075	0.592679	0.567234
Cl162	Cl	1.521408	0.926013	0.900567
H163	H	0.385748	0.268475	0.000051
H164	H	0.719081	0.601808	0.333384
H165	H	1.052414	0.935141	0.666718
H166	H	1.115632	-0.625774	0.000050
H167	H	1.448965	-0.292441	0.333383
H168	H	1.782298	0.040892	0.666716
Cl169	Cl	0.806938	-0.602924	0.000023
Cl170	Cl	1.140271	-0.269590	0.333356
Cl171	Cl	1.473604	0.063743	0.666690
H172	H	1.118605	-0.456516	0.000064
H173	H	1.451939	-0.123183	0.333397
H174	H	1.785272	0.210151	0.666730
H175	H	1.084738	0.011813	0.744136
H176	H	1.418071	0.345146	1.077469
H177	H	1.751405	0.678479	1.410803
Cl178	Cl	1.109708	-0.015129	0.233901
Cl179	Cl	1.443041	0.318204	0.567234
Cl180	Cl	1.776375	0.651537	0.900567
Cl181	Cl	0.557917	0.307905	0.000037
Cl182	Cl	0.891250	0.641238	0.333370
Cl183	Cl	1.224584	0.974571	0.666703
Cl184	Cl	1.109717	-0.015126	0.458831
Cl185	Cl	1.443050	0.318208	0.792164
Cl186	Cl	1.776383	0.651541	1.125498
H187	H	0.843807	-0.417734	0.000026
H188	H	1.177141	-0.084401	0.333359
H189	H	1.510474	0.248933	0.666693
H190	H	0.879785	0.232433	0.563343
H191	H	1.213118	0.565766	0.896676
H192	H	1.546452	0.899100	1.230009
Cl193	Cl	0.854797	0.259370	0.766207
Cl194	Cl	1.188130	0.592703	1.099540
Cl195	Cl	1.521463	0.926036	1.432874
Cl196	Cl	0.815688	-0.104584	0.000030
Cl197	Cl	1.149022	0.228749	0.333363
Cl198	Cl	1.482355	0.562083	0.666696
Cl199	Cl	0.854763	0.259353	0.458835
Cl200	Cl	1.188096	0.592686	0.792169
Cl201	Cl	1.521430	0.926020	1.125502
H202	H	0.845896	-0.299244	0.000025
H203	H	1.179230	0.034090	0.333358
H204	H	1.512563	0.367423	0.666691
