data_functionalizedCrystal
_audit_creation_method	'MofGen! by Chris Wilmer'
_symmetry_space_group_name_H-M	'P1'
_symmetry_Int_Tables_number	1
_symmetry_cell_setting	triclinic
loop_
_symmetry_equiv_pos_as_xyz
  x,y,z
_cell_length_a	17.699083
_cell_length_b	17.699083
_cell_length_c	16.176319
_cell_angle_alpha	89.992304
_cell_angle_beta	89.998611
_cell_angle_gamma	83.283015
loop_
_atom_site_label
_atom_site_type_symbol
_atom_site_fract_x
_atom_site_fract_y
_atom_site_fract_z
O1	O	1.004079	0.095713	-0.068632
O2	O	1.504079	0.595713	0.431368
O3	O	0.783700	0.108166	-0.068660
O4	O	1.283700	0.608166	0.431340
O5	O	0.900116	-0.008250	-0.068638
O6	O	1.400116	0.491750	0.431362
O7	O	0.887663	0.212129	-0.068654
O8	O	1.387663	0.712129	0.431346
O9	O	0.900100	-0.008257	0.068855
O10	O	1.400100	0.491743	0.568855
O11	O	0.783684	0.108158	0.068834
O12	O	1.283684	0.608158	0.568834
O13	O	1.004063	0.095706	0.068861
O14	O	1.504063	0.595706	0.568861
Cu15	Cu	0.893872	0.101931	0.081401
Cu16	Cu	1.393872	0.601931	0.581401
Cu17	Cu	0.893891	0.101940	-0.081200
Cu18	Cu	1.393891	0.601940	0.418800
O19	O	0.887647	0.212121	0.068839
O20	O	1.387647	0.712121	0.568839
C21	C	0.755495	0.107716	0.000084
C22	C	1.255495	0.607716	0.500084
C23	C	0.671477	0.106377	0.000073
C24	C	1.171477	0.606377	0.500073
C25	C	0.899662	-0.036451	0.000109
C26	C	1.399662	0.463549	0.500109
C27	C	0.898323	-0.120469	0.000109
C28	C	1.398323	0.379531	0.500109
C29	C	0.622856	0.174710	0.000069
C30	C	1.122856	0.674710	0.500069
C31	C	0.543913	0.173448	0.000079
C32	C	1.043913	0.673448	0.500079
C33	C	0.513592	0.103852	0.000089
C34	C	1.013592	0.603852	0.500089
C35	C	0.562219	0.035513	0.000096
C36	C	1.062219	0.535513	0.500096
C37	C	0.641161	0.036776	0.000091
C38	C	1.141161	0.536776	0.500091
C39	C	0.243856	0.030418	0.000117
C40	C	0.743856	0.530418	0.500117
C41	C	0.164908	0.029160	0.000120
C42	C	0.664908	0.529160	0.500120
C43	C	0.146608	0.167090	0.000105
C44	C	0.646608	0.667090	0.500105
C45	C	0.225550	0.168353	0.000100
C46	C	0.725550	0.668353	0.500100
C47	C	0.274170	0.100015	0.000112
C48	C	0.774170	0.600015	0.500112
C49	C	0.359769	0.101384	0.000102
C50	C	0.859769	0.601384	0.500102
C51	C	0.427995	0.102481	0.000093
C52	C	0.927995	0.602481	0.500093
C53	C	0.966656	-0.169090	0.000119
C54	C	1.466656	0.330910	0.500119
C55	C	0.965394	-0.248033	0.000111
C56	C	1.465394	0.251967	0.500111
C57	C	0.895798	-0.278354	0.000100
C58	C	1.395798	0.221646	0.500100
C59	C	0.827459	-0.229727	0.000088
C60	C	1.327459	0.270273	0.500088
C61	C	0.828722	-0.150785	0.000089
C62	C	1.328722	0.349215	0.500089
C63	C	0.822364	-0.548090	0.000080
C64	C	1.322364	-0.048090	0.500080
C65	C	0.821106	-0.627038	0.000081
C66	C	1.321106	-0.127038	0.500081
C67	C	0.959036	-0.645338	0.000102
C68	C	1.459036	-0.145338	0.500102
C69	C	0.960299	-0.566396	0.000104
C70	C	1.460299	-0.066396	0.500104
C71	C	0.891961	-0.517776	0.000087
C72	C	1.391961	-0.017776	0.500087
C73	C	0.893330	-0.432177	0.000094
C74	C	1.393330	0.067823	0.500094
C75	C	0.894427	-0.363951	0.000099
C76	C	1.394427	0.136049	0.500099
C77	C	1.032268	0.096156	0.000116
C78	C	1.532268	0.596156	0.500116
C79	C	1.116286	0.097494	0.000121
C80	C	1.616286	0.597494	0.500121
C81	C	0.888102	0.240322	0.000091
C82	C	1.388102	0.740322	0.500091
C83	C	0.889440	0.324340	0.000085
C84	C	1.389440	0.824340	0.500085
N85	N	0.893864	0.101925	0.195767
N86	N	1.393864	0.601925	0.695767
N87	N	0.893905	0.101941	-0.195565
N88	N	1.393905	0.601941	0.304435
C89	C	0.945429	0.050397	0.239040
C90	C	1.445429	0.550397	0.739040
C91	C	0.945432	0.050396	0.325588
C92	C	1.445432	0.550396	0.825588
C93	C	0.893875	0.101927	0.368859
C94	C	1.393875	0.601927	0.868859
C95	C	0.842305	0.153457	0.325579
C96	C	1.342305	0.653457	0.825579
C97	C	0.842299	0.153454	0.239034
C98	C	1.342299	0.653454	0.739034
C99	C	0.842331	0.153472	0.674608
C100	C	1.342331	0.653472	1.174608
C101	C	0.842344	0.153473	0.761159
C102	C	1.342344	0.653473	1.261159
C103	C	0.945465	0.050414	0.761161
C104	C	1.445465	0.550414	1.261161
C105	C	0.945458	0.050410	0.674616
C106	C	1.445458	0.550410	1.174616
C107	C	0.893886	0.101937	0.631344
C108	C	1.393886	0.601937	1.131344
C109	C	0.893882	0.101937	0.537499
C110	C	1.393882	0.601937	1.037499
C111	C	0.893883	0.101932	0.462702
C112	C	1.393883	0.601932	0.962702
H113	H	0.504328	0.229092	0.000075
H114	H	1.004328	0.729092	0.500075
H115	H	0.764429	-0.651721	0.000074
H116	H	1.264429	-0.151721	0.500074
H117	H	0.800323	0.195413	0.360816
H118	H	1.300323	0.695413	0.860816
H119	H	0.766718	-0.508512	0.000067
H120	H	1.266718	-0.008512	0.500067
C121	C	1.034210	-0.698819	0.000111
C122	C	1.534210	-0.198819	0.500111
H123	H	1.075838	-0.669453	0.000127
H124	H	1.575838	-0.169453	0.500127
H125	H	1.036595	-0.729989	-0.047836
H126	H	1.536595	-0.229989	0.452164
H127	H	1.036577	-0.730000	0.048063
H128	H	1.536577	-0.230000	0.548063
C129	C	0.258903	0.244907	0.000087
C130	C	0.758903	0.744907	0.500087
H131	H	0.312881	0.235871	0.000077
H132	H	0.812881	0.735871	0.500077
H133	H	0.242208	0.273037	0.048031
H134	H	0.742208	0.773037	0.548031
H135	H	0.242203	0.273037	-0.047869
H136	H	0.742203	0.773037	0.452131
H137	H	0.647537	0.231384	0.000060
H138	H	1.147537	0.731384	0.500060
H139	H	0.800341	0.195428	0.639382
H140	H	1.300341	0.695428	1.139382
C141	C	1.002147	-0.006281	0.191445
C142	C	1.502147	0.493719	0.691445
H143	H	0.994765	0.001101	0.133703
H144	H	1.494765	0.501101	0.633703
H145	H	0.994030	-0.056786	0.205637
H146	H	1.494030	0.443214	0.705637
H147	H	1.052642	0.001887	0.205625
H148	H	1.552642	0.501887	0.705625
H149	H	0.107012	0.222734	0.000100
H150	H	0.607012	0.722734	0.500100
C151	C	1.036854	-0.533047	0.000112
C152	C	1.536854	-0.033047	0.500112
H153	H	1.077372	-0.573311	0.000109
H154	H	1.577372	-0.073311	0.500109
H155	H	1.040211	-0.502636	0.048058
H156	H	1.540211	-0.002636	0.548058
H157	H	1.040215	-0.502629	-0.047842
H158	H	1.540215	-0.002629	0.452158
C159	C	0.785581	0.210137	0.191433
C160	C	1.285581	0.710137	0.691433
H161	H	0.754881	0.240833	0.229597
H162	H	1.254881	0.740833	0.729597
H163	H	0.754126	0.182949	0.157680
H164	H	1.254126	0.682949	0.657680
H165	H	0.812749	0.241611	0.157663
H166	H	1.312749	0.741611	0.657663
C167	C	0.131557	-0.047400	0.000138
C168	C	0.631557	0.452600	0.500138
H169	H	0.171819	-0.087919	0.000153
H170	H	0.671819	0.412081	0.500153
H171	H	0.101141	-0.050761	-0.047806
H172	H	0.601141	0.449239	0.452194
H173	H	0.101143	-0.050752	0.048094
H174	H	0.601143	0.449248	0.548094
C175	C	0.750904	-0.263077	0.000078
C176	C	1.250904	0.236923	0.500078
H177	H	0.759938	-0.317056	0.000088
H178	H	1.259938	0.182944	0.500088
H179	H	0.722778	-0.246375	-0.047872
H180	H	1.222778	0.253625	0.452128
H181	H	0.722772	-0.246383	0.048028
H182	H	1.222772	0.253617	0.548028
C183	C	0.753556	-0.097302	0.000081
C184	C	1.253556	0.402698	0.500081
H185	H	0.711925	-0.126664	0.000081
H186	H	1.211925	0.373336	0.500081
H187	H	0.751188	-0.066120	-0.047866
H188	H	1.251188	0.433880	0.452134
H189	H	0.751175	-0.066132	0.048034
H190	H	1.251175	0.433868	0.548034
C191	C	0.297328	-0.044751	0.000124
C192	C	0.797328	0.455249	0.500124
H193	H	0.267962	-0.086379	0.000122
H194	H	0.767962	0.413621	0.500122
H195	H	0.328505	-0.047130	0.048070
H196	H	0.828505	0.452870	0.548070
H197	H	0.328503	-0.047125	-0.047830
H198	H	0.828503	0.452875	0.452170
C199	C	0.785626	0.210155	0.808761
C200	C	1.285626	0.710155	1.308761
H201	H	0.793024	0.202780	0.866501
H202	H	1.293024	0.702780	1.366501
H203	H	0.735130	0.201994	0.794591
H204	H	1.235130	0.701994	1.294591
H205	H	0.793748	0.260662	0.794566
H206	H	1.293748	0.760662	1.294566
H207	H	1.021038	-0.287618	0.000121
H208	H	1.521038	0.212382	0.500121
H209	H	0.680748	-0.018868	0.000095
H210	H	1.180748	0.481132	0.500095
C211	C	0.528869	-0.041041	0.000105
C212	C	1.028869	0.458959	0.500105
H213	H	0.474890	-0.032008	0.000099
H214	H	0.974890	0.467992	0.500099
H215	H	0.545567	-0.069176	0.048053
H216	H	1.045567	0.430824	0.548053
H217	H	0.545567	-0.069166	-0.047847
H218	H	1.045567	0.430834	0.452153
C219	C	1.002160	-0.006277	0.373185
C220	C	1.502160	0.493723	0.873185
H221	H	1.032872	-0.036959	0.335019
H222	H	1.532872	0.463041	0.835019
H223	H	0.975006	-0.037754	0.406959
H224	H	1.475006	0.462246	0.906959
H225	H	1.033614	0.020923	0.406934
H226	H	1.533614	0.520923	0.906934
H227	H	1.023330	-0.144409	0.000133
H228	H	1.523330	0.355591	0.500133
C229	C	1.002169	-0.006276	0.627021
C230	C	1.502169	0.493724	1.127021
H231	H	1.032875	-0.036970	0.665190
H232	H	1.532875	0.463030	1.165190
H233	H	1.033619	0.020907	0.593247
H234	H	1.533619	0.520907	1.093247
H235	H	0.974992	-0.037751	0.593273
H236	H	1.474992	0.462249	1.093273
H237	H	0.987456	0.008455	0.796403
H238	H	1.487456	0.508455	1.296403
