data_functionalizedCrystal
_audit_creation_method	'MofGen! by Chris Wilmer'
_symmetry_space_group_name_H-M	'P1'
_symmetry_Int_Tables_number	1
_symmetry_cell_setting	triclinic
loop_
_symmetry_equiv_pos_as_xyz
  x,y,z
_cell_length_a	14.971486
_cell_length_b	14.971494
_cell_length_c	13.448316
_cell_angle_alpha	90.004885
_cell_angle_beta	90.001801
_cell_angle_gamma	83.615843
loop_
_atom_site_label
_atom_site_type_symbol
_atom_site_fract_x
_atom_site_fract_y
_atom_site_fract_z
O1	O	-1.186951	-0.116564	-0.082574
O2	O	-0.686951	0.383436	0.417426
O3	O	-0.926551	-0.130523	-0.082600
O4	O	-0.426551	0.369477	0.417400
O5	O	-1.063726	0.006656	-0.082584
O6	O	-0.563726	0.506656	0.417416
O7	O	-1.049776	-0.253743	-0.082590
O8	O	-0.549776	0.246257	0.417410
O9	O	-1.063709	0.006664	0.082800
O10	O	-0.563709	0.506664	0.582800
O11	O	-0.926534	-0.130515	0.082784
O12	O	-0.426534	0.369485	0.582784
O13	O	-1.186934	-0.116556	0.082810
O14	O	-0.686934	0.383444	0.582810
Cu15	Cu	-1.056732	-0.123534	0.097898
Cu16	Cu	-0.556732	0.376466	0.597898
Cu17	Cu	-1.056753	-0.123544	-0.097688
Cu18	Cu	-0.556753	0.376456	0.402312
O19	O	-1.049758	-0.253735	0.082794
O20	O	-0.549758	0.246265	0.582794
C21	C	-0.893218	-0.129895	0.000088
C22	C	-0.393218	0.370105	0.500088
C23	C	-0.793921	-0.128024	0.000078
C24	C	-0.293921	0.371976	0.500078
C25	C	-1.063093	0.039985	0.000106
C26	C	-0.563093	0.539985	0.500106
C27	C	-1.061219	0.139281	0.000102
C28	C	-0.561219	0.639281	0.500102
C29	C	-1.220267	-0.117184	0.000120
C30	C	-0.720267	0.382816	0.500120
C31	C	-1.319564	-0.119055	0.000123
C32	C	-0.819564	0.380945	0.500123
N33	N	-1.056724	-0.123527	0.235462
N34	N	-0.556724	0.376473	0.735462
C35	C	-0.736698	-0.208613	0.000078
C36	C	-0.236698	0.291387	0.500078
C37	C	-0.643398	-0.206850	0.000092
C38	C	-0.143398	0.293150	0.500092
C39	C	-0.607323	-0.124497	0.000101
C40	C	-0.107323	0.375503	0.500101
C41	C	-0.664554	-0.043902	0.000104
C42	C	-0.164554	0.456098	0.500104
C43	C	-0.757851	-0.045666	0.000096
C44	C	-0.257851	0.454334	0.500096
C45	C	-0.470091	-0.040231	0.000118
C46	C	0.029909	0.459769	0.500118
C47	C	-0.376787	-0.038466	0.000124
C48	C	0.123213	0.461534	0.500124
C49	C	-0.355638	-0.201415	0.000114
C50	C	0.144362	0.298585	0.500114
C51	C	-0.448936	-0.203179	0.000106
C52	C	0.051064	0.296821	0.500106
C53	C	-0.506160	-0.122583	0.000108
C54	C	-0.006160	0.377417	0.500108
C55	C	-1.050392	-0.287064	0.000101
C56	C	-0.550392	0.212936	0.500101
C57	C	-1.052266	-0.386360	0.000100
C58	C	-0.552266	0.113640	0.500100
C59	C	-1.060350	0.185921	-0.090050
C60	C	-0.560350	0.685921	0.409950
C61	C	-1.058584	0.279221	-0.090052
C62	C	-0.558584	0.779221	0.409948
C63	C	-1.057693	0.325879	0.000100
C64	C	-0.557693	0.825879	0.500100
C65	C	-1.058559	0.279232	0.090259
C66	C	-0.558559	0.779232	0.590259
C67	C	-1.060319	0.185933	0.090259
C68	C	-0.560319	0.685933	0.590259
C69	C	-1.054893	0.473695	0.090252
C70	C	-0.554893	0.973695	0.590252
C71	C	-1.053135	0.567000	0.090252
C72	C	-0.553135	1.067000	0.590252
C73	C	-1.053158	0.566982	-0.090059
C74	C	-0.553158	1.066982	0.409941
C75	C	-1.054918	0.473684	-0.090059
C76	C	-0.554918	0.973684	0.409941
C77	C	-1.055786	0.427043	0.000100
C78	C	-0.555786	0.927043	0.500100
N79	N	-1.056768	-0.123545	-0.235252
N80	N	-0.556768	0.376455	0.264748
C81	C	-1.117484	-0.062809	0.287510
C82	C	-0.617484	0.437191	0.787510
C83	C	-1.117490	-0.062808	0.391613
C84	C	-0.617490	0.437192	0.891613
C85	C	-1.056739	-0.123530	0.443667
C86	C	-0.556739	0.376470	0.943667
C87	C	-0.995973	-0.184251	0.391612
C88	C	-0.495973	0.315749	0.891612
C89	C	-0.995963	-0.184247	0.287510
C90	C	-0.495963	0.315753	0.787510
C91	C	-0.995997	-0.184257	0.608592
C92	C	-0.495997	0.315743	1.108592
C93	C	-0.996007	-0.184263	0.712700
C94	C	-0.496007	0.315737	1.212700
C95	C	-1.117524	-0.062819	0.712694
C96	C	-0.617524	0.437181	1.212694
C97	C	-1.117515	-0.062814	0.608593
C98	C	-0.617515	0.437186	1.108593
C99	C	-1.056749	-0.123536	0.556545
C100	C	-0.556749	0.376464	1.056545
H101	H	-0.766062	-0.275674	0.000070
H102	H	-0.266062	0.224326	0.500070
H103	H	-0.804442	0.019958	0.000096
H104	H	-0.304442	0.519958	0.500096
H105	H	-0.946485	-0.233688	0.245134
H106	H	-0.446485	0.266312	0.745134
H107	H	-1.052402	0.604985	0.163661
H108	H	-0.552402	1.104985	0.663661
H109	H	-1.055580	0.435721	0.163669
H110	H	-0.555580	0.935721	0.663669
H111	H	-1.057880	0.317191	-0.163463
H112	H	-0.557880	0.817191	0.336537
C113	C	-0.929137	-0.251038	0.448875
C114	C	-0.429137	0.248962	0.948875
N115	N	-0.878795	-0.301343	0.492004
N116	N	-0.378795	0.198657	0.992004
C117	C	-1.061277	0.134630	0.189433
C118	C	-0.561277	0.634630	0.689433
N119	N	-1.061997	0.095989	0.264134
N120	N	-0.561997	0.595989	0.764134
C121	C	-0.580456	-0.295504	0.000110
C122	C	-0.080456	0.204496	0.500110
N123	N	-0.533049	-0.362283	0.000130
N124	N	-0.033049	0.137717	0.500130
H125	H	-1.166959	-0.013366	0.245134
H126	H	-0.666959	0.486634	0.745134
C127	C	-1.184310	0.004008	0.448860
C128	C	-0.684310	0.504008	0.948860
N129	N	-1.234633	0.054345	0.491979
N130	N	-0.734633	0.554345	0.991979
C131	C	-0.624868	0.046688	0.000115
C132	C	-0.124868	0.546688	0.500115
N133	N	-0.594978	0.114922	0.000119
N134	N	-0.094978	0.614922	0.500119
C135	C	-0.292690	-0.290071	0.000118
C136	C	0.207310	0.209929	0.500118
N137	N	-0.245274	-0.356844	0.000117
N138	N	0.254726	0.143156	0.500117
C139	C	-1.184364	0.003980	0.769949
C140	C	-0.684364	0.503980	1.269949
N141	N	-1.234707	0.054289	0.813077
N142	N	-0.734707	0.554289	1.313077
H143	H	-1.055650	0.435698	-0.163468
H144	H	-0.555650	0.935698	0.336532
H145	H	-1.061080	0.147940	-0.163463
H146	H	-0.561080	0.647940	0.336537
C147	C	-0.929173	-0.251055	0.769958
C148	C	-0.429173	0.248945	1.269958
N149	N	-0.878831	-0.301363	0.813084
N150	N	-0.378831	0.198637	1.313084
H151	H	-0.478304	-0.270238	0.000090
H152	H	0.021696	0.229762	0.500090
H153	H	-1.166987	-0.013374	0.566211
H154	H	-0.666987	0.486626	1.066211
H155	H	-0.347418	0.028593	0.000132
H156	H	0.152582	0.528593	0.500132
H157	H	-0.516681	0.025399	0.000121
H158	H	-0.016681	0.525399	0.500121
H159	H	-0.946512	-0.233701	0.566218
H160	H	-0.446512	0.266299	1.066218
C161	C	-1.052198	0.618287	-0.189236
C162	C	-0.552198	1.118287	0.310764
N163	N	-1.051477	0.656935	-0.263932
N164	N	-0.551477	1.156935	0.236068
C165	C	-1.057572	0.330558	0.189427
C166	C	-0.557572	0.830558	0.689427
N167	N	-1.056831	0.369216	0.264122
N168	N	-0.556831	0.869216	0.764122
