data_functionalizedCrystal
_audit_creation_method	'MofGen! by Chris Wilmer'
_symmetry_space_group_name_H-M	'P1'
_symmetry_Int_Tables_number	1
_symmetry_cell_setting	triclinic
loop_
_symmetry_equiv_pos_as_xyz
  x,y,z
_cell_length_a	14.560432
_cell_length_b	14.628931
_cell_length_c	14.628931
_cell_angle_alpha	59.999972
_cell_angle_beta	90.000750
_cell_angle_gamma	60.001318
loop_
_atom_site_label
_atom_site_type_symbol
_atom_site_fract_x
_atom_site_fract_y
_atom_site_fract_z
Zr1	Zr	0.884750	1.000601	-0.119964
O2	O	0.738105	1.191303	-0.265925
O3	O	0.929705	0.809897	-0.075219
O4	O	0.929705	1.000602	-0.265925
O5	O	0.738105	1.000598	0.075213
O6	O	1.080842	1.000606	-0.265925
O7	O	0.738105	1.000598	-0.075219
O8	O	1.080843	0.659469	0.075213
O9	O	0.738105	1.341735	-0.265925
O10	O	1.061670	0.888340	-0.056136
O11	O	0.948878	0.888337	0.056130
O12	O	0.948878	1.112869	-0.168402
O13	O	0.836086	1.112866	-0.056136
Zr14	Zr	1.125798	1.000607	0.119957
Zr15	Zr	1.125797	1.000607	-0.119964
Zr16	Zr	0.884751	1.000601	0.119958
Zr17	Zr	0.884751	1.240523	-0.119964
Zr18	Zr	1.125797	0.760686	0.119957
O19	O	1.080843	1.191312	0.075212
O20	O	1.080843	1.191312	-0.265925
O21	O	0.738105	1.191303	0.075213
O22	O	1.272443	0.809906	0.265918
O23	O	1.272443	0.809906	-0.075220
O24	O	0.929706	0.809897	0.265919
O25	O	1.272443	1.000611	-0.075220
O26	O	1.080843	1.000606	0.265918
O27	O	0.929706	1.000602	0.265918
O28	O	1.272443	1.000611	0.075212
O29	O	0.929705	1.341740	-0.265925
O30	O	1.080843	0.659469	0.265919
O31	O	1.272443	0.659474	0.265918
O32	O	1.272443	0.659474	0.075213
O33	O	0.738105	1.341735	-0.075219
O34	O	0.929706	1.341740	-0.075220
O35	O	1.061670	0.888340	0.168395
O36	O	1.174462	0.888343	0.056129
O37	O	1.061670	1.112871	-0.056136
O38	O	0.948878	1.112869	0.056129
C39	C	1.005274	0.700499	-0.000003
C40	C	1.005273	0.598646	-0.000003
C41	C	1.061226	0.553238	-0.055694
C42	C	1.061227	0.447968	-0.055695
C43	C	0.703761	1.000597	-0.000003
C44	C	0.601430	1.000594	-0.000003
C45	C	0.719169	0.766184	0.117193
C46	C	0.729962	0.648983	0.175785
C47	C	0.633809	0.648989	0.175782
C48	C	0.526856	0.766208	0.117183
C49	C	0.516063	0.883408	0.058591
C50	C	0.612224	0.883390	0.058598
C51	C	0.398325	1.117816	-0.058597
C52	C	0.494476	1.117813	-0.058602
C53	C	0.291372	1.235035	-0.117195
C54	C	0.280578	1.352238	-0.175796
C55	C	0.376739	1.352228	-0.175791
C56	C	0.483684	1.235014	-0.117194
C57	C	1.306787	1.000612	-0.000004
C58	C	1.409118	1.000615	-0.000004
C59	C	1.005273	1.000604	-0.300109
C60	C	1.005273	1.000604	-0.401962
C61	C	1.005274	1.300710	-0.000004
C62	C	1.005275	1.402563	-0.000004
C63	C	1.084402	1.000606	-0.447371
C64	C	1.084404	1.000606	-0.552641
C65	C	1.005275	1.000604	0.300102
C66	C	1.005275	1.000604	0.401955
C67	C	1.306787	0.700507	-0.000004
C68	C	1.409117	0.598657	-0.000004
C69	C	1.005274	0.700499	0.300102
C70	C	1.005274	0.598646	0.401955
C71	C	1.306787	0.700507	0.300102
C72	C	1.409118	0.598657	0.401955
C73	C	0.703761	1.300702	-0.300108
C74	C	0.601430	1.402552	-0.401961
C75	C	0.703761	1.300702	-0.000003
C76	C	0.601431	1.402552	-0.000003
C77	C	1.005274	1.300710	-0.300109
C78	C	1.005274	1.402563	-0.401962
C79	C	1.398787	0.553247	-0.055695
C80	C	1.504550	0.447979	-0.055696
C81	C	1.061227	0.553238	0.503056
C82	C	1.061228	0.447968	0.608328
C83	C	1.510693	0.553250	0.391672
C84	C	1.616459	0.447982	0.496941
H85	H	1.109125	0.408924	-0.103380
H86	H	0.797467	0.766168	0.117192
H87	H	1.495881	0.408924	-0.103372
F88	F	1.123843	0.604284	-0.118012
H89	H	1.496261	0.559605	0.047670
H90	H	1.614797	0.441615	0.047685
H91	H	0.957364	0.441612	0.047673
H92	H	0.642602	0.553553	0.223498
F93	F	0.942654	0.547604	0.390681
F94	F	1.123850	0.396924	0.721690
H95	H	1.109124	0.592303	0.511676
H96	H	0.957374	0.559584	0.047678
F97	F	0.942665	0.453587	0.484682
F98	F	1.172957	1.000599	-0.396321
H99	H	0.817053	0.553546	0.223498
H100	H	1.400458	0.559603	0.488691
F101	F	0.424524	0.766207	0.117200
F102	F	1.522020	0.604303	0.278304
H103	H	1.703595	0.408930	0.488311
H104	H	1.518990	0.441614	0.606674
F105	F	1.172950	1.000618	-0.603685
H106	H	0.213084	1.235031	-0.117188
F107	F	0.166753	1.476977	-0.238145
F108	F	0.916715	1.000611	-0.547017
F109	F	0.365240	1.476972	-0.238148
H110	H	0.561984	1.234994	-0.117188
H111	H	0.937532	1.000596	-0.441015
H112	H	1.311643	0.592308	-0.103378
