data_functionalizedCrystal
_audit_creation_method	'MofGen! by Chris Wilmer'
_symmetry_space_group_name_H-M	'P1'
_symmetry_Int_Tables_number	1
_symmetry_cell_setting	triclinic
loop_
_symmetry_equiv_pos_as_xyz
  x,y,z
_cell_length_a	13.596369
_cell_length_b	9.065218
_cell_length_c	14.519709
_cell_angle_alpha	95.651985
_cell_angle_beta	89.999792
_cell_angle_gamma	89.994623
loop_
_atom_site_label
_atom_site_type_symbol
_atom_site_fract_x
_atom_site_fract_y
_atom_site_fract_z
O1	O	0.081778	-1.957869	0.135228
O2	O	0.581778	-1.457869	0.635228
O3	O	0.081779	-1.528376	0.146320
O4	O	0.581779	-1.028376	0.646320
O5	O	0.081787	-1.754510	0.006619
O6	O	0.581787	-1.254510	0.506619
O7	O	0.081770	-1.731735	0.274929
O8	O	0.581770	-1.231735	0.774929
O9	O	-0.081795	-1.754487	0.006611
O10	O	0.418205	-1.254487	0.506611
O11	O	-0.081804	-1.528354	0.146312
O12	O	0.418196	-1.028354	0.646312
O13	O	-0.081804	-1.957846	0.135221
O14	O	0.418196	-1.457846	0.635221
Zn15	Zn	-0.107777	-1.743096	0.140765
Zn16	Zn	0.392223	-1.243096	0.640765
Zn17	Zn	0.107751	-1.743126	0.140775
Zn18	Zn	0.607751	-1.243126	0.640775
O19	O	-0.081813	-1.731713	0.274922
O20	O	0.418187	-1.231713	0.774922
C21	C	-0.000013	-1.473398	0.145250
C22	C	0.499987	-0.973398	0.645250
C23	C	-0.000012	-1.309615	0.142063
C24	C	0.499988	-0.809615	0.642063
N25	N	-0.254869	-1.743087	0.140758
N26	N	0.245131	-1.243087	0.640758
C27	C	0.000000	-1.753437	-0.027752
C28	C	0.500000	-1.253437	0.472248
C29	C	0.000014	-1.750257	-0.130157
C30	C	0.500014	-1.250257	0.369843
C31	C	-0.656159	-1.743124	0.140776
C32	C	-0.156159	-1.243124	0.640776
C33	C	-0.544508	-1.743109	0.140774
C34	C	-0.044508	-1.243109	0.640774
C35	C	-0.455518	-1.743106	0.140768
C36	C	0.044482	-1.243106	0.640768
C37	C	-0.343859	-1.743090	0.140764
C38	C	0.156141	-1.243090	0.640764
N39	N	0.254843	-1.743147	0.140775
N40	N	0.754843	-1.243147	0.640775
C41	C	-0.000011	-2.012824	0.136290
C42	C	0.499989	-1.512824	0.636290
C43	C	-0.000005	-2.176607	0.139478
C44	C	0.499995	-1.676607	0.639478
C45	C	-0.000024	-1.732785	0.309293
C46	C	0.499976	-1.232785	0.809293
C47	C	-0.000031	-1.735966	0.411697
C48	C	0.499969	-1.235966	0.911697
C49	C	0.000008	-1.747675	0.786679
C50	C	0.500008	-1.247675	1.286679
C51	C	-0.000003	-1.744423	0.682347
C52	C	0.499997	-1.244423	1.182347
C53	C	-0.000012	-1.741821	0.599192
C54	C	0.499988	-1.241821	1.099192
C55	C	-0.000021	-1.738568	0.494853
C56	C	0.499979	-1.238568	0.994853
