data_functionalizedCrystal
_audit_creation_method	'MofGen! by Chris Wilmer'
_symmetry_space_group_name_H-M	'P1'
_symmetry_Int_Tables_number	1
_symmetry_cell_setting	triclinic
loop_
_symmetry_equiv_pos_as_xyz
  x,y,z
_cell_length_a	19.805407
_cell_length_b	16.120484
_cell_length_c	19.805399
_cell_angle_alpha	92.869501
_cell_angle_beta	89.983114
_cell_angle_gamma	92.925608
loop_
_atom_site_label
_atom_site_type_symbol
_atom_site_fract_x
_atom_site_fract_y
_atom_site_fract_z
Zn1	Zn	1.021057	-0.331915	-0.396377
Zn2	Zn	1.015239	-0.471337	-0.288925
Zn3	Zn	0.907876	-0.331942	-0.283202
Zn4	Zn	0.902099	-0.471289	-0.402070
O5	O	0.961568	-0.401621	-0.342643
O6	O	1.115002	-0.350419	-0.382135
O7	O	1.000980	-0.452877	-0.193450
O8	O	0.927742	-0.215272	-0.293437
O9	O	1.110727	-0.452851	-0.303191
O10	O	1.010896	-0.215253	-0.376586
O11	O	0.922101	-0.350464	-0.189246
O12	O	0.812394	-0.350418	-0.298958
O13	O	0.917896	-0.452770	-0.496030
O14	O	0.808149	-0.452796	-0.386289
O15	O	1.005294	-0.350373	-0.491847
O16	O	0.995378	-0.587997	-0.308711
O17	O	0.912255	-0.587962	-0.391838
C18	C	0.785713	-0.401605	-0.342621
C19	C	0.710480	-0.401618	-0.342628
C20	C	0.672940	-0.455007	-0.388035
C21	C	0.602252	-0.455008	-0.388044
C22	C	0.569104	-0.401625	-0.342643
C23	C	0.606649	-0.348230	-0.297235
C24	C	0.677336	-0.348225	-0.297229
C25	C	0.321575	-0.348249	-0.297258
C26	C	0.250882	-0.348260	-0.297266
C27	C	0.246490	-0.455032	-0.388073
C28	C	0.317178	-0.455027	-0.388067
C29	C	0.354717	-0.401630	-0.342661
C30	C	0.431365	-0.401628	-0.342652
C31	C	0.492457	-0.401630	-0.342649
C32	C	0.952577	-0.618229	-0.351528
C33	C	0.948792	-0.710895	-0.355352
C34	C	0.941887	-0.880557	-0.362347
C35	C	0.981370	-0.921844	-0.322951
C36	C	0.977528	-1.016250	-0.326843
C37	C	0.945728	-0.786143	-0.358456
C38	C	1.138110	-0.401638	-0.342666
C39	C	1.213342	-0.401645	-0.342676
C40	C	0.961600	-0.401563	-0.519184
C41	C	0.961614	-0.401538	-0.594415
C42	C	0.970612	-0.184167	-0.333738
C43	C	0.974467	-0.091501	-0.329944
C44	C	0.920554	-0.348207	-0.627569
C45	C	0.920564	-0.348191	-0.698257
C46	C	0.961638	-0.401502	-0.735789
C47	C	1.002699	-0.454840	-0.702630
C48	C	1.002685	-0.454860	-0.631944
C49	C	1.002756	-0.454762	-0.987700
C50	C	1.002768	-0.454736	-1.058391
C51	C	0.920635	-0.348093	-1.054013
C52	C	0.920621	-0.348113	-0.983327
C53	C	0.961679	-0.401453	-0.950174
C54	C	0.961667	-0.401471	-0.873527
C55	C	0.961654	-0.401481	-0.812435
C56	C	0.961577	-0.401618	-0.166787
C57	C	0.961705	-0.401408	-0.091547
H58	H	0.699924	-0.498481	-0.425003
O59	O	0.209997	-0.506776	-0.432255
C60	C	0.129725	-0.518145	-0.524071
C61	C	0.171025	-0.459451	-0.474089
H62	H	0.098195	-0.479907	-0.557898
H63	H	0.165528	-0.556287	-0.556567
H64	H	0.094840	-0.561705	-0.494714
H65	H	0.205913	-0.415840	-0.503392
H66	H	0.135183	-0.421368	-0.441594
H67	H	0.905201	-0.916109	-0.398995
H68	H	0.887126	-0.304766	-0.725248
H69	H	0.887111	-0.304790	-0.597015
O70	O	0.880658	-0.296300	-0.946973
C71	C	0.799217	-0.190488	-0.950091
C72	C	0.844433	-0.249135	-0.991343
H73	H	0.769927	-0.152327	-0.985947
H74	H	0.762184	-0.228732	-0.918577
H75	H	0.832107	-0.146943	-0.915199
H76	H	0.811596	-0.292691	-1.026272
H77	H	0.881469	-0.210838	-1.022812
H78	H	0.887201	-0.304663	-1.081015
H79	H	1.036217	-0.498152	-1.088949
O80	O	0.218790	-0.296317	-0.253139
C81	C	0.230601	-0.190435	-0.163046
C82	C	0.267032	-0.249197	-0.212990
H83	H	0.269587	-0.152336	-0.130563
H84	H	0.199343	-0.146845	-0.192366
H85	H	0.195890	-0.228670	-0.129202
H86	H	0.301776	-0.211029	-0.246846
H87	H	0.298247	-0.292789	-0.183628
H88	H	0.352131	-0.304776	-0.260280
H89	H	1.036181	-0.498204	-0.960716
H90	H	1.036139	-0.498251	-0.733195
O91	O	0.349271	-0.506910	-0.432235
C92	C	0.337451	-0.612848	-0.522285
C93	C	0.301022	-0.554122	-0.472309
H94	H	0.298457	-0.651046	-0.554688
H95	H	0.372123	-0.574662	-0.556202
H96	H	0.368748	-0.656353	-0.492923
H97	H	0.269689	-0.510604	-0.501615
H98	H	0.266390	-0.592358	-0.438392
H99	H	1.018058	-0.886290	-0.286299
O100	O	1.042532	-0.506782	-0.599813
C101	C	1.069446	-0.648611	-0.583960
C102	C	1.024288	-0.589897	-0.620404
H103	H	1.054704	-0.715822	-0.600583
H104	H	1.124645	-0.634046	-0.597277
H105	H	1.062391	-0.639426	-0.526994
H106	H	1.031285	-0.599049	-0.677378
H107	H	0.969106	-0.604477	-0.607031
H108	H	0.571690	-0.498483	-0.425018
H109	H	0.579655	-0.304761	-0.260271
O110	O	0.713701	-0.296342	-0.253052
C111	C	0.710603	-0.190406	-0.163003
C112	C	0.669339	-0.249138	-0.212986
H113	H	0.674754	-0.152214	-0.130606
H114	H	0.742081	-0.228587	-0.129080
H115	H	0.745533	-0.146895	-0.192358
H116	H	0.634372	-0.292661	-0.183686
H117	H	0.637906	-0.210906	-0.246909
