data_functionalizedCrystal
_audit_creation_method	'MofGen! by Chris Wilmer'
_symmetry_space_group_name_H-M	'P1'
_symmetry_Int_Tables_number	1
_symmetry_cell_setting	triclinic
loop_
_symmetry_equiv_pos_as_xyz
  x,y,z
_cell_length_a	10.540539
_cell_length_b	9.616153
_cell_length_c	10.540539
_cell_angle_alpha	90.000094
_cell_angle_beta	95.474508
_cell_angle_gamma	89.995174
loop_
_atom_site_label
_atom_site_type_symbol
_atom_site_fract_x
_atom_site_fract_y
_atom_site_fract_z
O1	O	1.685892	-0.115573	-0.178895
O2	O	1.316479	-0.115589	-0.195751
O3	O	1.509614	-0.115579	-0.002617
O4	O	1.492758	-0.115583	-0.372030
O5	O	1.509587	0.115712	-0.002621
O6	O	1.316452	0.115702	-0.195755
O7	O	1.685865	0.115718	-0.178899
Zn8	Zn	1.501155	0.152433	-0.187328
Zn9	Zn	1.501190	-0.152304	-0.187323
O10	O	1.492731	0.115708	-0.372034
C11	C	1.269163	0.000054	-0.194489
C12	C	1.128215	0.000048	-0.190707
C13	C	1.508336	0.000064	0.044684
C14	C	1.504554	0.000056	0.185632
C15	C	0.944788	0.000589	-0.045790
C16	C	1.091406	0.000054	-0.049624
C17	C	1.066557	-0.132027	-0.258600
C18	C	0.920013	-0.132123	-0.253785
C19	C	0.919494	0.130899	-0.256660
C20	C	1.066476	0.132630	-0.257959
C21	C	1.733182	0.000072	-0.180161
C22	C	1.874130	0.000069	-0.183943
N23	N	1.501140	0.360407	-0.187331
N24	N	1.501215	-0.360278	-0.187310
C25	C	1.397510	0.580772	-0.290298
C26	C	1.397739	0.419604	-0.290684
C27	C	1.633864	0.418862	-0.217464
C28	C	1.633299	0.580080	-0.218193
C29	C	1.473368	0.580319	-0.053892
C30	C	1.470321	0.419092	-0.054757
C31	C	1.494008	0.000062	-0.419335
C32	C	1.497790	0.000060	-0.560283
C33	C	1.359637	-0.000469	0.369059
C34	C	1.363471	0.000052	0.222441
C35	C	1.572435	0.132138	0.247288
C36	C	1.567620	0.132249	0.393832
C37	C	1.570519	-0.130772	0.394355
C38	C	1.571819	-0.132518	0.247373
H39	H	1.134009	0.094731	0.003797
H40	H	1.669084	0.138246	0.441801
F41	F	1.665131	0.629215	-0.345420
H42	H	1.088911	-0.136942	-0.362208
F43	F	1.706266	-0.142946	0.215709
H44	H	0.914592	-0.093600	0.009712
H45	H	1.309662	0.094886	0.180683
H46	H	0.887936	0.231010	-0.211004
H47	H	1.658761	0.378472	-0.313702
H48	H	1.107427	0.230338	-0.208361
F49	F	1.703714	-0.131931	0.456083
F50	F	1.342700	0.369159	-0.024900
H51	H	1.090701	0.140603	-0.360819
H52	H	0.891814	-0.230849	-0.203603
F53	F	1.707858	0.138568	0.218072
H54	H	1.712918	0.380514	-0.144501
F55	F	0.907405	0.124394	0.027058
F56	F	0.857311	-0.139961	-0.386404
F57	F	0.857767	0.132065	-0.389855
H58	H	1.517430	0.230979	0.422030
F59	F	1.510775	0.260609	0.191609
H60	H	1.712941	0.619073	-0.146204
F61	F	1.349518	0.633520	-0.016425
H62	H	1.524869	-0.230881	0.425910
F63	F	1.122234	-0.260504	-0.196953
F64	F	1.562514	0.366444	0.050230
F65	F	1.572196	0.630144	0.046302
H66	H	1.299122	0.380085	-0.272553
F67	F	1.145955	-0.124104	0.020413
H68	H	1.310058	-0.094630	0.179839
F69	F	1.268200	0.631467	-0.266950
H70	H	1.522152	-0.230229	0.206516
F71	F	1.286802	-0.124274	0.406440
F72	F	1.420613	0.633682	-0.418950
H73	H	1.415638	0.381024	-0.389668
H74	H	1.304122	0.093714	0.399265
