data_functionalizedCrystal
_audit_creation_method	'MofGen! by Chris Wilmer'
_symmetry_space_group_name_H-M	'P1'
_symmetry_Int_Tables_number	1
_symmetry_cell_setting	triclinic
loop_
_symmetry_equiv_pos_as_xyz
  x,y,z
_cell_length_a	19.121063
_cell_length_b	19.121385
_cell_length_c	17.640968
_cell_angle_alpha	81.649076
_cell_angle_beta	98.351500
_cell_angle_gamma	85.196193
loop_
_atom_site_label
_atom_site_type_symbol
_atom_site_fract_x
_atom_site_fract_y
_atom_site_fract_z
Zn1	Zn	-0.159122	-1.138814	0.400129
Zn2	Zn	-0.300082	-1.110413	0.276059
Zn3	Zn	-0.187453	-0.997861	0.276056
Zn4	Zn	-0.279617	-1.018252	0.411626
O5	O	-0.231569	-1.066335	0.340968
O6	O	-0.174529	-1.232606	0.378861
O7	O	-0.305562	-1.075063	0.167397
O8	O	-0.086132	-1.019911	0.287701
O9	O	-0.278091	-1.211740	0.287707
O10	O	-0.065317	-1.123469	0.378858
O11	O	-0.222815	-0.992371	0.167395
O12	O	-0.202971	-0.903006	0.298849
O13	O	-0.243212	-1.054665	0.518762
O14	O	-0.270684	-0.917988	0.398453
O15	O	-0.154685	-1.143242	0.510316
O16	O	-0.394930	-1.094836	0.298855
O17	O	-0.379895	-1.027126	0.398456
C18	C	-0.237682	-0.885201	0.349899
C19	C	-0.240310	-0.807714	0.353739
C20	C	-0.256914	-0.369867	0.378116
C21	C	-0.254453	-0.442671	0.374494
C22	C	-0.217880	-0.471268	0.320903
C23	C	-0.183774	-0.427055	0.270926
C24	C	-0.186240	-0.354252	0.274546
C25	C	-0.208670	-0.690698	0.307382
C26	C	-0.206204	-0.763507	0.303768
C27	C	-0.276885	-0.779118	0.407334
C28	C	-0.279344	-0.706313	0.410952
C29	C	-0.245240	-0.662106	0.360973
C30	C	-0.215361	-0.545686	0.317201
C31	C	-0.247764	-0.587688	0.364672
C32	C	-0.412706	-1.060134	0.349919
C33	C	-0.490190	-1.057549	0.353772
C34	C	-0.534388	-1.091631	0.303764
C35	C	-0.607191	-1.089205	0.307392
C36	C	-0.635795	-1.052693	0.361024
C37	C	-0.591591	-1.018611	0.411037
C38	C	-0.518789	-1.021042	0.407412
C39	C	-0.855221	-1.043594	0.374563
C40	C	-0.928030	-1.041164	0.378182
C41	C	-0.943624	-1.111759	0.274537
C42	C	-0.870820	-1.114183	0.270915
C43	C	-0.826622	-1.080104	0.320930
C44	C	-0.710212	-1.050211	0.364731
C45	C	-0.752206	-1.082591	0.317226
C46	C	-0.049720	-1.072583	0.331997
C47	C	0.027772	-1.075246	0.328174
C48	C	-0.193506	-1.104396	0.543501
C49	C	-0.177286	-1.120615	0.629809
C50	C	-0.225430	-0.248175	0.331993
C51	C	-0.222808	-0.325660	0.328145
C52	C	-0.269432	-1.028464	0.139217
C53	C	-0.285451	-1.012387	0.052893
C54	C	-0.354402	-0.943400	0.935653
C55	C	-0.339152	-0.958655	1.016751
C56	C	-0.246976	-1.050882	1.007945
C57	C	-0.262217	-1.035632	0.926845
C58	C	-0.315931	-0.981890	0.890705
C59	C	-0.223745	-1.074123	0.881897
C60	C	-0.238987	-1.058876	0.800804
C61	C	-0.292701	-1.005139	0.764658
C62	C	-0.331173	-0.966644	0.809611
C63	C	-0.170035	-1.127867	0.918039
C64	C	-0.131563	-1.166358	0.873091
C65	C	-0.146802	-1.151108	0.791996
C66	C	-0.200515	-1.097371	0.755850
C67	C	-0.108329	-1.189603	0.747042
C68	C	-0.123571	-1.174357	0.665949
C69	C	-0.215757	-1.082124	0.674757
H70	H	-0.153999	-0.450344	0.227289
H71	H	-0.847532	-1.143913	0.227243
H72	H	-0.370484	-0.927307	1.053345
H73	H	-0.482803	-0.993290	0.448135
C74	C	-0.413488	-0.884286	0.895880
C75	C	-0.408385	-0.807318	0.910646
C76	C	-0.467469	-0.748211	0.870867
C77	C	-0.531655	-0.766071	0.816322
C78	C	-0.536760	-0.843043	0.801554
C79	C	-0.477676	-0.902150	0.841332
H80	H	-0.360868	-0.794093	0.951025
H81	H	-0.463689	-0.691231	0.881800
H82	H	-0.575392	-0.722317	0.786875
H83	H	-0.584277	-0.856267	0.761174
H84	H	-0.481456	-0.959129	0.830399
C85	C	-0.319582	-0.674861	0.469898
C86	C	-0.382308	-0.616591	0.441337
C87	C	-0.422546	-0.585142	0.500285
C88	C	-0.400059	-0.611962	0.587796
C89	C	-0.337330	-0.670235	0.616362
C90	C	-0.297092	-0.701685	0.557413
H91	H	-0.398957	-0.596735	0.376552
H92	H	-0.468982	-0.542004	0.479138
H93	H	-0.429846	-0.588681	0.631433
H94	H	-0.320681	-0.690092	0.681146
H95	H	-0.250656	-0.744823	0.578560
H96	H	-0.157628	-1.140281	0.984070
C97	C	-0.309469	-0.988364	0.675454
C98	C	-0.384241	-0.995628	0.633272
C99	C	-0.401008	-0.978853	0.544068
C100	C	-0.343003	-0.954815	0.497047
C101	C	-0.268225	-0.947550	0.539229
C102	C	-0.251458	-0.964325	0.628433
H103	H	-0.427185	-1.013423	0.668080
H104	H	-0.456364	-0.984231	0.512842
H105	H	-0.355415	-0.942397	0.431014
H106	H	-0.225282	-0.929755	0.504421
H107	H	-0.196102	-0.958947	0.659659
H108	H	-0.087831	-1.210116	0.902527
C109	C	-0.187891	-1.109995	1.047702
C110	C	-0.110922	-1.104928	1.032921
C111	C	-0.051835	-1.164041	1.072674
C112	C	-0.069717	-1.228222	1.127208
C113	C	-0.146690	-1.233291	1.141992
C114	C	-0.205777	-1.174178	1.102238
H115	H	-0.097682	-1.057415	0.992549
H116	H	0.005145	-1.160288	1.061730
H117	H	-0.025978	-1.271981	1.156636
H118	H	-0.159930	-1.280804	1.182364
H119	H	-0.262757	-1.177932	1.113183
H120	H	-0.064600	-1.233364	0.776480
C121	C	-0.390259	-0.907530	0.769839
C122	C	-0.385156	-0.830562	0.784604
C123	C	-0.444240	-0.771455	0.744826
C124	C	-0.508426	-0.789316	0.690281
C125	C	-0.513531	-0.866287	0.675512
C126	C	-0.454447	-0.925394	0.715291
H127	H	-0.337639	-0.817338	0.824984
H128	H	-0.440460	-0.714476	0.755759
H129	H	-0.552163	-0.745561	0.660834
H130	H	-0.561048	-0.879512	0.635133
H131	H	-0.458227	-0.982374	0.704358
H132	H	-0.092243	-1.205699	0.629351
H133	H	-0.286691	-0.346590	0.421759
C134	C	-0.806615	-1.006100	0.429576
C135	C	-0.764804	-0.946724	0.396096
C136	C	-0.716197	-0.909227	0.451113
C137	C	-0.709399	-0.931106	0.539610
C138	C	-0.751211	-0.990485	0.573094
C139	C	-0.799819	-1.027982	0.518077
H140	H	-0.769835	-0.930526	0.330582
H141	H	-0.685245	-0.865271	0.426325
H142	H	-0.673416	-0.903349	0.580336
H143	H	-0.746180	-1.006684	0.638609
H144	H	-0.830770	-1.071938	0.542865
C145	C	-0.171156	-0.642069	0.252413
C146	C	-0.214448	-0.579507	0.195371
C147	C	-0.176935	-0.530871	0.140401
C148	C	-0.096130	-0.544797	0.142472
C149	C	-0.052833	-0.607362	0.199515
C150	C	-0.090346	-0.655998	0.254485
H151	H	-0.274269	-0.569195	0.193837
H152	H	-0.208986	-0.484555	0.098174
H153	H	-0.068360	-0.508793	0.101779
H154	H	0.006988	-0.617674	0.201050
H155	H	-0.058295	-0.702313	0.296713
H156	H	-0.733510	-1.020482	0.408397
H157	H	-0.728913	-1.112322	0.273561
C158	C	-0.959496	-1.001001	0.437182
C159	C	-0.910882	-0.963515	0.492199
C160	C	-0.942349	-0.923351	0.551193
C161	C	-1.022431	-0.920674	0.555172
C162	C	-1.071050	-0.958161	0.500153
C163	C	-1.039582	-0.998324	0.441159
H164	H	-0.851596	-0.965496	0.489255
H165	H	-0.906357	-0.895601	0.591921
H166	H	-1.045725	-0.890942	0.598843
H167	H	-1.130335	-0.956180	0.503097
H168	H	-1.075574	-1.026075	0.400430
H169	H	-0.282227	-0.478662	0.415184
H170	H	-0.304650	-0.815119	0.448024
H171	H	-0.176412	-0.786789	0.260133
H172	H	-0.158465	-0.318259	0.233856
H173	H	-0.277544	-0.564401	0.408302
H174	H	-0.185583	-0.568978	0.273568
C175	C	-0.502926	-1.131795	0.244768
C176	C	-0.529757	-1.109248	0.157267
C177	C	-0.498297	-1.149415	0.098271
C178	C	-0.440005	-1.212129	0.126775
C179	C	-0.413170	-1.234679	0.214281
C180	C	-0.444631	-1.194512	0.273277
H181	H	-0.572911	-1.062821	0.136162
H182	H	-0.518163	-1.132722	0.033493
H183	H	-0.416717	-1.241864	0.083103
H184	H	-0.370016	-1.281106	0.235386
H185	H	-0.424765	-1.211205	0.338054
H186	H	-0.643174	-1.116957	0.266669
H187	H	-0.979617	-1.139506	0.233819
H188	H	-0.259481	-1.038347	0.645330
H189	H	-0.614886	-0.988886	0.454708
