data_functionalizedCrystal
_audit_creation_method	'MofGen! by Chris Wilmer'
_symmetry_space_group_name_H-M	'P1'
_symmetry_Int_Tables_number	1
_symmetry_cell_setting	triclinic
loop_
_symmetry_equiv_pos_as_xyz
  x,y,z
_cell_length_a	15.711784
_cell_length_b	27.731996
_cell_length_c	14.750779
_cell_angle_alpha	77.461457
_cell_angle_beta	106.501624
_cell_angle_gamma	101.105094
loop_
_atom_site_label
_atom_site_type_symbol
_atom_site_fract_x
_atom_site_fract_y
_atom_site_fract_z
O1	O	1.124430	0.271635	-0.079926
O2	O	0.873273	0.234916	-0.079910
O3	O	1.006680	0.184291	-0.079898
O4	O	0.991022	0.322260	-0.079938
O5	O	1.044392	0.169983	0.079756
O6	O	0.910985	0.220607	0.079744
O7	O	1.162142	0.257326	0.079728
Zn8	Zn	1.042551	0.236695	0.105084
Zn9	Zn	0.992863	0.255547	-0.105266
O10	O	1.028735	0.307951	0.079716
C11	C	0.860007	0.221763	-0.000081
C12	C	0.764295	0.203884	-0.000074
C13	C	1.025216	0.159071	-0.000067
C14	C	1.024250	0.105239	-0.000058
C15	C	0.640274	0.136577	-0.000054
C16	C	0.730209	0.153382	-0.000060
C17	C	0.708452	0.237603	-0.000088
C18	C	0.618513	0.220805	-0.000087
C19	C	0.584431	0.170292	-0.000069
C20	C	0.562670	0.254520	-0.000102
C21	C	0.472740	0.237724	-0.000096
C22	C	0.438652	0.187212	-0.000074
C23	C	0.494501	0.153495	-0.000062
C24	C	0.596755	0.305033	-0.000113
C25	C	0.540912	0.338748	-0.000128
C26	C	0.450978	0.321952	-0.000129
C27	C	0.416890	0.271440	-0.000108
C28	C	0.395129	0.355669	-0.000141
C29	C	0.305199	0.338872	-0.000135
C30	C	0.326960	0.254644	-0.000101
C31	C	0.997590	-0.220776	-0.087131
C32	C	0.993910	-0.423099	-0.087148
O33	O	0.975914	-0.442629	-0.161162
N34	N	1.014010	-0.456198	-0.000122
C35	C	1.035026	-0.438715	0.086915
O36	O	1.052029	-0.471511	0.160936
C37	C	1.038700	-0.236394	0.086931
C38	C	1.018607	-0.203296	-0.000101
C39	C	0.977498	-0.187679	-0.174157
C40	C	0.978423	-0.137101	-0.174152
C41	C	0.999440	-0.119620	-0.087121
C42	C	1.019532	-0.152718	-0.000096
C43	C	1.059710	-0.218912	0.173967
C44	C	1.060625	-0.168329	0.173963
C45	C	1.040532	-0.135230	0.086931
C46	C	1.041475	-0.084660	0.086939
N47	N	1.021374	-0.051560	-0.000088
C48	C	1.000357	-0.069041	-0.087118
C49	C	1.033097	-0.544935	0.086901
C50	C	1.032181	-0.595515	0.086897
C51	C	0.991062	-0.579896	-0.087167
C52	C	0.991986	-0.529314	-0.087162
C53	C	1.012997	-0.511836	-0.000126
C54	C	1.002302	0.037176	-0.087101
C55	C	1.003232	0.087758	-0.087088
C56	C	1.044346	0.072134	0.086975
C57	C	1.043420	0.021557	0.086963
C58	C	1.022393	0.004079	-0.000083
O59	O	1.059452	-0.065096	0.160914
O60	O	0.983337	-0.036238	-0.161128
C61	C	0.996665	-0.271354	-0.087137
C62	C	1.016757	-0.304452	-0.000111
C63	C	1.037774	-0.286971	0.086919
C64	C	1.015840	-0.355032	-0.000115
C65	C	0.994823	-0.372512	-0.087145
C66	C	0.974723	-0.339413	-0.174172
C67	C	0.975648	-0.288835	-0.174167
C68	C	1.057875	-0.320071	0.173945
C69	C	1.056949	-0.370648	0.173933
C70	C	1.035932	-0.388128	0.086903
C71	C	1.175407	0.270479	-0.000103
C72	C	1.271117	0.288359	-0.000116
C73	C	1.010199	0.333171	-0.000117
C74	C	1.011163	0.387004	-0.000133
N75	N	1.076468	0.223830	0.248643
N76	N	0.958953	0.268410	-0.248825
C77	C	0.864228	0.304320	0.600441
C78	C	0.888001	0.295309	0.700943
C79	C	1.006157	0.250509	0.700917
C80	C	0.982391	0.259514	0.600413
C81	C	0.911427	0.286420	0.550184
C82	C	1.029590	0.241615	0.550155
C83	C	1.005828	0.250622	0.449661
C84	C	0.934868	0.277528	0.399424
C85	C	0.887665	0.295427	0.449689
C86	C	1.100558	0.214712	0.600387
C87	C	1.147757	0.196813	0.550129
C88	C	1.123991	0.205816	0.449633
C89	C	1.053031	0.232722	0.399396
C90	C	1.171195	0.187917	0.399368
C91	C	1.147433	0.196924	0.298873
C92	C	1.029270	0.241729	0.298901
H93	H	0.299207	0.213512	-0.000097
F94	F	0.788691	0.332951	0.546981
H95	H	0.849561	0.309888	0.741858
F96	F	1.078342	-0.405869	0.266572
H97	H	0.959286	-0.261890	-0.245037
F98	F	0.744734	0.291361	-0.000108
H99	H	1.074991	-0.305844	0.244817
H100	H	0.986872	0.114706	-0.157963
H101	H	0.669983	0.318707	-0.000115
F102	F	1.081684	0.221876	0.754383
H103	H	0.775674	0.125923	-0.000051
F104	F	0.955126	-0.206274	-0.266794
F105	F	1.125847	0.205130	0.707344
H106	H	1.050213	-0.530710	0.157780
H107	H	0.962058	-0.110156	-0.245022
H108	H	0.975623	-0.502369	-0.158031
H109	H	0.985176	0.022953	-0.157981
F110	F	1.223283	0.168180	0.603595
F111	F	1.066715	0.090747	0.179594
H112	H	1.228980	0.166014	0.440278
F113	F	1.197670	0.177874	0.245384
H114	H	0.971477	0.263634	0.258002
H115	H	0.568674	0.379876	-0.000140
F116	F	1.082988	-0.149731	0.266602
F117	F	1.081092	-0.254128	0.266600
F118	F	0.431415	0.409426	-0.000151
H119	H	1.059789	-0.005393	0.157832
F120	F	0.245765	0.374755	-0.000144
F121	F	0.952359	-0.358025	-0.266796
H122	H	0.365426	0.173536	-0.000060
H123	H	0.973950	-0.594136	-0.158030
H124	H	1.048555	-0.622459	0.157768
H125	H	0.915525	0.284863	0.317595
F126	F	0.812128	0.324058	0.396228
H127	H	0.612521	0.095445	-0.000049
F128	F	0.458225	0.099733	-0.000042
