data_functionalizedCrystal
_audit_creation_method	'MofGen! by Chris Wilmer'
_symmetry_space_group_name_H-M	'P1'
_symmetry_Int_Tables_number	1
_symmetry_cell_setting	triclinic
loop_
_symmetry_equiv_pos_as_xyz
  x,y,z
_cell_length_a	11.169417
_cell_length_b	25.639240
_cell_length_c	11.169417
_cell_angle_alpha	90.021742
_cell_angle_beta	90.000863
_cell_angle_gamma	90.033637
loop_
_atom_site_label
_atom_site_type_symbol
_atom_site_fract_x
_atom_site_fract_y
_atom_site_fract_z
Zn1	Zn	1.834551	-0.208224	0.678424
Zn2	Zn	1.834428	-0.295636	0.477692
Zn3	Zn	1.633903	-0.208218	0.477759
Zn4	Zn	1.633766	-0.295631	0.678336
O5	O	1.734162	-0.251927	0.578053
O6	O	2.002484	-0.219824	0.651805
O7	O	1.807834	-0.284040	0.309751
O8	O	1.660628	-0.135053	0.504442
O9	O	2.002394	-0.284045	0.504328
O10	O	1.808043	-0.135058	0.651870
O11	O	1.660509	-0.219814	0.309800
O12	O	1.465935	-0.219809	0.504357
O13	O	1.660394	-0.284037	0.846298
O14	O	1.465834	-0.284031	0.651721
O15	O	1.807910	-0.219819	0.846362
O16	O	1.807701	-0.368801	0.504243
O17	O	1.660275	-0.368797	0.651656
C18	C	1.422337	-0.251919	0.578037
C19	C	1.288937	-0.251929	0.578059
C20	C	1.733992	-0.387770	0.577959
C21	C	1.734029	-0.445884	0.577959
C22	C	1.810959	-0.806211	0.654957
C23	C	1.810994	-0.860815	0.654981
O24	O	1.876201	-0.889021	0.720352
N25	N	1.734328	-0.888166	0.578169
C26	C	1.657613	-0.860911	0.501335
O27	O	1.592405	-0.889189	0.436003
C28	C	1.657573	-0.806307	0.501318
C29	C	1.734252	-0.778959	0.578127
C30	C	1.887631	-0.778862	0.731761
C31	C	1.887597	-0.724262	0.731735
C32	C	1.810891	-0.697010	0.654905
C33	C	1.734218	-0.724358	0.578101
C34	C	1.580853	-0.779052	0.424491
C35	C	1.580818	-0.724445	0.424481
C36	C	1.657498	-0.697097	0.501290
C37	C	1.657478	-0.642506	0.501244
N38	N	1.734144	-0.615154	0.578057
C39	C	1.810850	-0.642406	0.654887
C40	C	1.657703	-0.975581	0.501379
C41	C	1.657749	-1.030183	0.501390
C42	C	1.811128	-1.030084	0.655038
C43	C	1.811088	-0.975481	0.655020
C44	C	1.734369	-0.948230	0.578192
C45	C	1.810773	-0.527741	0.654825
C46	C	1.810736	-0.473136	0.654789
C47	C	1.657352	-0.473240	0.501146
C48	C	1.657394	-0.527841	0.501177
C49	C	1.734108	-0.555090	0.578027
O50	O	1.592301	-0.614265	0.435911
O51	O	1.876036	-0.614121	0.720219
C52	C	2.047204	-0.251936	0.578069
C53	C	2.180604	-0.251939	0.578076
C54	C	1.734150	-0.251928	0.891095
C55	C	1.734145	-0.251928	1.024495
C56	C	1.734365	-0.115554	0.578173
C57	C	1.734451	-0.057440	0.578225
C58	C	1.734159	-0.251936	1.266228
C59	C	1.734149	-0.251929	1.132828
H60	H	1.873182	-0.450870	0.717336
H61	H	1.595321	-1.052446	0.438831
N62	N	1.965968	-0.696335	0.810159
N63	N	2.042481	-0.665863	0.767959
H64	H	2.097852	-0.646146	0.823340
H65	H	1.873233	-0.549921	0.717412
H66	H	1.518412	-0.801310	0.361945
H67	H	1.518340	-0.702260	0.361920
H68	H	1.950095	-0.801045	0.794332
H69	H	1.873526	-0.953217	0.717565
N70	N	1.889482	-1.057935	0.733508
N71	N	1.889497	-1.106688	0.733505
H72	H	1.944833	-1.126360	0.788919
H73	H	1.595233	-0.953396	0.438806
H74	H	1.594965	-0.550109	0.438624
H75	H	1.594902	-0.451043	0.438588
