data_functionalizedCrystal
_audit_creation_method	'MofGen! by Chris Wilmer'
_symmetry_space_group_name_H-M	'P1'
_symmetry_Int_Tables_number	1
_symmetry_cell_setting	triclinic
loop_
_symmetry_equiv_pos_as_xyz
  x,y,z
_cell_length_a	15.944551
_cell_length_b	15.944551
_cell_length_c	15.021413
_cell_angle_alpha	90.002826
_cell_angle_beta	90.003065
_cell_angle_gamma	96.501262
loop_
_atom_site_label
_atom_site_type_symbol
_atom_site_fract_x
_atom_site_fract_y
_atom_site_fract_z
O1	O	0.108321	-1.114529	-0.073941
O2	O	0.441654	-0.781196	0.259392
O3	O	0.774988	-0.447862	0.592726
O4	O	0.121677	-0.869979	-0.073964
O5	O	0.455010	-0.536646	0.259370
O6	O	0.788344	-0.203313	0.592703
O7	O	-0.007276	-0.998932	-0.073944
O8	O	0.326057	-0.665599	0.259390
O9	O	0.659391	-0.332265	0.592723
O10	O	0.237274	-0.985576	-0.073961
O11	O	0.570607	-0.652243	0.259372
O12	O	0.903940	-0.318909	0.592706
O13	O	-0.007257	-0.998912	0.074121
O14	O	0.326076	-0.665578	0.407454
O15	O	0.659409	-0.332245	0.740787
O16	O	0.121695	-0.869959	0.074101
O17	O	0.455029	-0.536625	0.407434
O18	O	0.788362	-0.203292	0.740767
O19	O	0.108339	-1.114508	0.074123
O20	O	0.441673	-0.781175	0.407456
O21	O	0.775006	-0.447842	0.740790
Zn22	Zn	0.115020	-0.992230	0.097620
Zn23	Zn	0.448354	-0.658897	0.430954
Zn24	Zn	0.781687	-0.325564	0.764287
Zn25	Zn	0.114996	-0.992257	-0.097461
Zn26	Zn	0.448329	-0.658924	0.235873
Zn27	Zn	0.781663	-0.325591	0.569206
O28	O	0.237292	-0.985555	0.074103
O29	O	0.570626	-0.652222	0.407437
O30	O	0.903959	-0.318889	0.740770
C31	C	0.121132	-0.838675	0.000066
C32	C	0.454465	-0.505342	0.333399
C33	C	0.787798	-0.172008	0.666732
C34	C	0.119470	-0.745429	0.000057
C35	C	0.452803	-0.412096	0.333391
C36	C	0.786136	-0.078762	0.666724
C37	C	-0.038561	-0.998367	0.000089
C38	C	0.294773	-0.665034	0.333422
C39	C	0.628106	-0.331701	0.666755
C40	C	-0.131807	-0.996705	0.000089
C41	C	0.201527	-0.663372	0.333422
C42	C	0.534860	-0.330038	0.666756
C43	C	0.108885	-1.145813	0.000092
C44	C	0.442218	-0.812479	0.333425
C45	C	0.775551	-0.479146	0.666758
C46	C	0.110547	-1.239059	0.000094
C47	C	0.443880	-0.905725	0.333428
C48	C	0.777214	-0.572392	0.666761
C49	C	-0.346663	-0.912801	0.000069
C50	C	-0.013330	-0.579467	0.333402
C51	C	0.320003	-0.246134	0.666736
C52	C	-0.407672	-0.951753	0.073077
C53	C	-0.074338	-0.618420	0.406410
C54	C	0.258995	-0.285086	0.739744
C55	C	-0.302533	-0.993698	0.000082
C56	C	0.030801	-0.660365	0.333415
C57	C	0.364134	-0.327031	0.666748
C58	C	-0.407673	-0.951792	-0.072903
C59	C	-0.074340	-0.618459	0.260431
C60	C	0.258994	-0.285126	0.593764
C61	C	-0.467445	-0.990787	0.000071
C62	C	-0.134112	-0.657454	0.333404
C63	C	0.199221	-0.324120	0.666738
C64	C	-0.362313	-1.032672	0.073150
C65	C	-0.028979	-0.699339	0.406484
C66	C	0.304354	-0.366006	0.739817
C67	C	-0.362308	-1.032700	-0.072895
C68	C	-0.028974	-0.699367	0.260438
C69	C	0.304359	-0.366034	0.593772
C70	C	-0.423298	-1.071711	0.000131
C71	C	-0.089965	-0.738378	0.333464
C72	C	0.243368	-0.405045	0.666798
C73	C	-0.207530	-0.995372	0.000089
C74	C	0.125803	-0.662039	0.333422
C75	C	0.459136	-0.328706	0.666755
C76	C	-0.562446	-0.989119	0.000070
C77	C	-0.229113	-0.655785	0.333404
C78	C	0.104220	-0.322452	0.666737
C79	C	0.268577	-0.986120	0.000069
C80	C	0.601910	-0.652787	0.333402
C81	C	0.935244	-0.319453	0.666736
C82	C	0.361823	-0.987782	0.000063
C83	C	0.695156	-0.654449	0.333396
C84	C	1.028490	-0.321116	0.666730
N85	N	0.115036	-0.992218	0.230758
N86	N	0.448370	-0.658885	0.564091
N87	N	0.781703	-0.325551	0.897425
C88	C	0.035565	-0.530572	0.000081
C89	C	0.368898	-0.197239	0.333414
C90	C	0.702232	0.136094	0.666747
C91	C	0.074518	-0.469562	-0.072926
C92	C	0.407852	-0.136229	0.260408
C93	C	0.741185	0.197104	0.593741
C94	C	0.116462	-0.574703	0.000068
C95	C	0.449796	-0.241370	0.333402
C96	C	0.783129	0.091964	0.666735
C97	C	0.074556	-0.469564	0.073054
C98	C	0.407889	-0.136231	0.406387
C99	C	0.741222	0.197102	0.739721
C100	C	0.113551	-0.409790	0.000083
C101	C	0.446885	-0.076457	0.333416
C102	C	0.780218	0.256876	0.666749
C103	C	0.155438	-0.514921	-0.072998
C104	C	0.488771	-0.181588	0.260335
C105	C	0.822104	0.151745	0.593668
C106	C	0.155464	-0.514930	0.073047
C107	C	0.488797	-0.181596	0.406380
C108	C	0.822130	0.151737	0.739714
C109	C	0.194476	-0.453937	0.000023
C110	C	0.527809	-0.120604	0.333356
C111	C	0.861143	0.212729	0.666690
C112	C	0.118137	-0.669705	0.000059
C113	C	0.451470	-0.336372	0.333393
C114	C	0.784803	-0.003039	0.666726
C115	C	0.111883	-0.314789	0.000085
C116	C	0.445217	0.018544	0.333418
C117	C	0.778550	0.351877	0.666752
N118	N	0.114973	-0.992276	-0.230598
N119	N	0.448307	-0.658943	0.102735
N120	N	0.781640	-0.325610	0.436068
C121	C	0.174636	-0.932581	0.470432
C122	C	0.507969	-0.599248	0.803765
C123	C	0.841303	-0.265914	1.137099
C124	C	0.190943	-1.008481	0.529772
C125	C	0.524277	-0.675148	0.863105
C126	C	0.857610	-0.341815	1.196439
C127	C	0.115015	-0.992239	0.412365
C128	C	0.448349	-0.658906	0.745698
C129	C	0.781682	-0.325573	1.079031
C130	C	0.098727	-0.916360	0.529766
C131	C	0.432060	-0.583026	0.863100
C132	C	0.765394	-0.249693	1.196433
C133	C	0.114997	-0.992253	0.587789
C134	C	0.448330	-0.658920	0.921122
C135	C	0.781664	-0.325587	1.254456
C136	C	0.131360	-1.068178	0.470398
C137	C	0.464693	-0.734845	0.803732
C138	C	0.798027	-0.401511	1.137065
C139	C	0.039111	-0.976006	0.470387
C140	C	0.372444	-0.642673	0.803721
C141	C	0.705778	-0.309340	1.137054
C142	C	0.055386	-1.051962	0.529701
C143	C	0.388719	-0.718628	0.863034
C144	C	0.722053	-0.385295	1.196368
C145	C	0.115028	-0.992230	0.311307
C146	C	0.448361	-0.658897	0.644641
C147	C	0.781695	-0.325564	0.977974
C148	C	0.114984	-0.992271	0.688844
C149	C	0.448317	-0.658938	1.022177
C150	C	0.781650	-0.325605	1.355511
H151	H	-0.313356	-0.845652	0.000136
H152	H	0.019978	-0.512319	0.333469
H153	H	0.353311	-0.178986	0.666802
F154	F	0.029826	-0.443300	0.153727
F155	F	0.363159	-0.109967	0.487060
F156	F	0.696492	0.223367	0.820393
F157	F	0.274833	-1.026445	0.563867
F158	F	0.608166	-0.693112	0.897200
F159	F	0.941500	-0.359779	1.230534
F160	F	0.240589	-0.866705	0.436413
F161	F	0.573922	-0.533372	0.769746
F162	F	0.907255	-0.200038	1.103080
H163	H	-0.031573	-0.563905	-0.000005
H164	H	0.301760	-0.230572	0.333328
H165	H	0.635094	0.102762	0.666662
H166	H	0.145206	-1.132368	0.444430
H167	H	0.478539	-0.799035	0.777764
H168	H	0.811872	-0.465701	1.111097
H169	H	0.004956	-1.102474	0.555561
H170	H	0.338289	-0.769141	0.888894
H171	H	0.671622	-0.435807	1.222228
F172	F	0.029788	-0.443289	-0.153596
F173	F	0.363121	-0.109956	0.179738
F174	F	0.696455	0.223378	0.513071
H175	H	-0.342314	-1.066851	0.134941
H176	H	-0.008981	-0.733518	0.468274
H177	H	0.324352	-0.400184	0.801607
F178	F	0.200160	-0.541234	0.153719
F179	F	0.533494	-0.207901	0.487053
F180	F	0.866827	0.125433	0.820386
F181	F	-0.433943	-0.907062	-0.153573
F182	F	-0.100610	-0.573728	0.179761
F183	F	0.232723	-0.240395	0.513094
H184	H	-0.025051	-0.962240	0.444283
H185	H	0.308282	-0.628907	0.777616
H186	H	0.641616	-0.295573	1.110949
H187	H	-0.427772	-0.917528	0.134794
H188	H	-0.094439	-0.584195	0.468127
H189	H	0.238894	-0.250861	0.801460
F190	F	-0.466641	-1.159555	0.000190
F191	F	-0.133308	-0.826222	0.333523
F192	F	0.200025	-0.492888	0.666857
H193	H	0.084959	-0.852184	0.555847
H194	H	0.418292	-0.518850	0.889180
H195	H	0.751626	-0.185517	1.222513
H196	H	-0.342185	-1.066896	-0.134615
H197	H	-0.008852	-0.733562	0.198719
H198	H	0.324482	-0.400229	0.532052
F199	F	0.200117	-0.541054	-0.153761
F200	F	0.533451	-0.207721	0.179572
F201	F	0.866784	0.125612	0.512906
F202	F	0.282319	-0.410594	-0.000034
F203	F	0.615652	-0.077260	0.333299
F204	F	0.948986	0.256073	0.666632
