data_functionalizedCrystal
_audit_creation_method	'MofGen! by Chris Wilmer'
_symmetry_space_group_name_H-M	'P1'
_symmetry_Int_Tables_number	1
_symmetry_cell_setting	triclinic
loop_
_symmetry_equiv_pos_as_xyz
  x,y,z
_cell_length_a	19.121102
_cell_length_b	19.121063
_cell_length_c	18.101389
_cell_angle_alpha	92.419391
_cell_angle_beta	87.542698
_cell_angle_gamma	90.126902
loop_
_atom_site_label
_atom_site_type_symbol
_atom_site_fract_x
_atom_site_fract_y
_atom_site_fract_z
Zn1	Zn	1.059843	-0.324984	-0.480945
Zn2	Zn	1.559843	0.175016	0.019055
Zn3	Zn	1.054751	-0.442202	-0.362140
Zn4	Zn	1.554751	0.057798	0.137860
Zn5	Zn	0.942607	-0.319976	-0.351626
Zn6	Zn	1.442607	0.180024	0.148374
Zn7	Zn	0.937568	-0.437174	-0.480449
Zn8	Zn	1.437568	0.062826	0.019551
O9	O	0.998692	-0.381084	-0.418790
O10	O	1.498692	0.118916	0.081210
O11	O	1.157272	-0.344733	-0.469793
O12	O	1.657272	0.155267	0.030207
O13	O	1.039852	-0.425997	-0.257111
O14	O	1.539852	0.074003	0.242889
O15	O	0.962399	-0.222536	-0.364588
O16	O	1.462399	0.277464	0.135412
O17	O	1.153531	-0.430853	-0.382507
O18	O	1.653531	0.069147	0.117493
O19	O	1.048531	-0.226215	-0.459598
O20	O	1.548531	0.273785	0.040402
O21	O	0.957461	-0.336198	-0.249387
O22	O	1.457461	0.163802	0.250613
O23	O	0.843834	-0.331322	-0.364107
O24	O	1.343834	0.168678	0.135893
O25	O	0.953810	-0.422283	-0.584149
O26	O	1.453810	0.077717	-0.084149
O27	O	0.840131	-0.417427	-0.458753
O28	O	1.340131	0.082573	0.041247
O29	O	1.043645	-0.339857	-0.584513
O30	O	1.543645	0.160143	-0.084513
O31	O	1.034966	-0.539639	-0.382026
O32	O	1.534966	-0.039639	0.117974
O33	O	0.948872	-0.535945	-0.468948
O34	O	1.448872	-0.035945	0.031052
C35	C	0.816545	-0.373286	-0.410236
C36	C	1.316545	0.126714	0.089764
C37	C	0.738621	-0.369967	-0.406594
C38	C	1.238621	0.130033	0.093406
C39	C	0.700100	-0.413306	-0.454090
C40	C	1.200100	0.086694	0.045910
C41	C	0.626882	-0.410178	-0.450671
C42	C	1.126882	0.089822	0.049329
C43	C	0.592187	-0.363714	-0.399754
C44	C	1.092187	0.136286	0.100246
C45	C	0.630713	-0.320371	-0.352257
C46	C	1.130713	0.179629	0.147743
C47	C	0.703930	-0.323496	-0.355679
C48	C	1.203930	0.176504	0.144321
C49	C	0.371217	-0.352030	-0.386963
C50	C	0.871217	0.147970	0.113037
C51	C	0.297995	-0.348910	-0.383543
C52	C	0.797995	0.151090	0.116457
C53	C	0.294169	-0.438716	-0.481958
C54	C	0.794169	0.061284	0.018042
C55	C	0.367387	-0.441840	-0.485373
C56	C	0.867387	0.058160	0.014627
C57	C	0.405907	-0.398494	-0.437879
C58	C	0.905907	0.101506	0.062121
C59	C	0.517347	-0.360518	-0.396257
C60	C	1.017347	0.139482	0.103743
C61	C	0.480746	-0.401688	-0.441379
C62	C	0.980746	0.098312	0.058621
C63	C	0.990839	-0.563230	-0.426591
C64	C	1.490839	-0.063230	0.073409
C65	C	0.987543	-0.641156	-0.429956
C66	C	1.487543	-0.141156	0.070044
C67	C	1.030854	-0.679667	-0.386323
C68	C	1.530854	-0.179667	0.113677
C69	C	1.027759	-0.752887	-0.389492
C70	C	1.527759	-0.252887	0.110508
C71	C	0.981349	-0.787594	-0.436292
C72	C	1.481349	-0.287594	0.063708
C73	C	0.938036	-0.749077	-0.479931
C74	C	1.438036	-0.249077	0.020069
C75	C	0.941135	-0.675859	-0.476764
C76	C	1.441135	-0.175859	0.023236
C77	C	0.969750	-1.008570	-0.448117
C78	C	1.469750	-0.508570	0.051883
C79	C	0.966652	-1.081793	-0.451279
C80	C	1.466652	-0.581793	0.048721
C81	C	1.056376	-1.085598	-0.360841
C82	C	1.556376	-0.585598	0.139159
C83	C	1.059469	-1.012378	-0.357676
C84	C	1.559469	-0.512378	0.142324
C85	C	1.016159	-0.973868	-0.401317
C86	C	1.516159	-0.473868	0.098683
C87	C	0.978182	-0.862436	-0.439531
C88	C	1.478182	-0.362436	0.060469
C89	C	1.019329	-0.899028	-0.398081
C90	C	1.519329	-0.399028	0.101919
C91	C	1.181551	-0.388913	-0.427378
C92	C	1.681551	0.111087	0.072622
C93	C	1.259474	-0.392249	-0.431038
C94	C	1.759474	0.107751	0.068962
C95	C	0.998733	-0.381068	-0.611953
C96	C	1.498733	0.118932	-0.111953
C97	C	0.998751	-0.381061	-0.694268
C98	C	1.498751	0.118939	-0.194268
C99	C	1.006595	-0.198227	-0.410975
C100	C	1.506595	0.301773	0.089025
C101	C	1.009963	-0.120304	-0.407645
C102	C	1.509963	0.379696	0.092355
C103	C	0.998797	-0.380931	-0.993355
C104	C	1.498797	0.119069	-0.493355
C105	C	0.942096	-0.432611	-0.961784
C106	C	1.442096	0.067389	-0.461784
C107	C	0.942233	-0.432868	-0.876184
C108	C	1.442233	0.067132	-0.376184
C109	C	0.998774	-0.380996	-0.844974
C110	C	1.498774	0.119004	-0.344974
C111	C	1.071783	-0.404207	-0.880395
C112	C	1.571783	0.095793	-0.380395
C113	C	1.071465	-0.404548	-0.966041
C114	C	1.571465	0.095452	-0.466041
C115	C	0.983136	-0.305948	-0.957710
C116	C	1.483136	0.194052	-0.457710
C117	C	0.981475	-0.306306	-0.872000
C118	C	1.481475	0.193694	-0.372000
C119	C	0.998765	-0.381031	-0.761116
C120	C	1.498765	0.118969	-0.261116
C121	C	0.998811	-0.380898	-1.077214
C122	C	1.498811	0.119102	-0.577214
C123	C	0.998694	-0.381051	-0.226378
C124	C	1.498694	0.118949	0.273622
C125	C	0.998820	-0.380866	-0.144062
C126	C	1.498820	0.119134	0.355938
H127	H	0.508998	-0.439515	-0.482839
H128	H	1.008998	0.060485	0.017161
H129	H	1.085729	-0.458550	-0.862019
H130	H	1.585729	0.041450	-0.362019
N131	N	0.735537	-0.460758	-0.506111
N132	N	1.235537	0.039242	-0.006111
N133	N	0.777469	-0.437900	-0.554203
N134	N	1.277469	0.062100	-0.054203
H135	H	0.802495	-0.471413	-0.590947
H136	H	1.302495	0.028587	-0.090947
H137	H	0.928868	-1.110049	-0.489402
H138	H	1.428868	-0.610049	0.010598
N139	N	0.925506	-0.969250	-0.492699
N140	N	1.425506	-0.469250	0.007301
N141	N	0.884071	-1.000249	-0.534478
N142	N	1.384071	-0.500249	-0.034478
H143	H	0.852821	-0.972478	-0.565966
H144	H	1.352821	-0.472478	-0.065966
H145	H	0.900251	-0.777341	-0.518039
H146	H	1.400251	-0.277341	-0.018039
N147	N	0.254811	-0.482986	-0.530463
N148	N	0.754811	0.017014	-0.030463
N149	N	0.189440	-0.480194	-0.527403
N150	N	0.689440	0.019806	-0.027403
H151	H	0.161642	-0.511460	-0.561662
H152	H	0.661642	-0.011460	-0.061662
N153	N	1.071996	-0.792241	-0.344932
N154	N	1.571996	-0.292241	0.155068
N155	N	1.114928	-0.834955	-0.374892
N156	N	1.614928	-0.334955	0.125108
H157	H	1.146172	-0.862752	-0.343422
H158	H	1.646172	-0.362752	0.156578
N159	N	0.262564	-0.301442	-0.331524
N160	N	0.762564	0.198558	0.168476
N161	N	0.296964	-0.262744	-0.289124
N162	N	0.796964	0.237256	0.210876
H163	H	0.271942	-0.229222	-0.252387
H164	H	0.771942	0.270778	0.247613
H165	H	0.402571	-0.316740	-0.348284
H166	H	0.902571	0.183260	0.151716
N167	N	0.896894	-0.636529	-0.521345
N168	N	1.396894	-0.136529	-0.021345
N169	N	0.855460	-0.667524	-0.563130
N170	N	1.355460	-0.167524	-0.063130
H171	H	0.824215	-0.639748	-0.594620
H172	H	1.324215	-0.139748	-0.094620
H173	H	0.602459	-0.282537	-0.310802
H174	H	1.102459	0.217463	0.189198
H175	H	1.057119	-0.870767	-0.359980
H176	H	1.557119	-0.370767	0.140020
N177	N	0.402830	-0.489308	-0.537373
N178	N	0.902830	0.010692	-0.037373
N179	N	0.441746	-0.535689	-0.515050
N180	N	0.941746	-0.035689	-0.015050
H181	H	0.466777	-0.569220	-0.551771
H182	H	0.966777	-0.069220	-0.051771
N183	N	1.034980	-0.257589	-0.983309
N184	N	1.534980	0.242411	-0.483309
N185	N	1.017253	-0.205660	-1.017794
N186	N	1.517253	0.294340	-0.517794
H187	H	1.053869	-0.171510	-1.035877
H188	H	1.553869	0.328490	-0.535877
N189	N	0.930772	-0.897902	-0.487320
N190	N	1.430772	-0.397902	0.012680
N191	N	0.884390	-0.936905	-0.460890
N192	N	1.384390	-0.436905	0.039110
H193	H	0.850907	-0.961957	-0.494641
H194	H	1.350907	-0.461957	0.005359
N195	N	1.088564	-0.473432	-0.994975
N196	N	1.588564	0.026568	-0.494975
N197	N	1.046120	-0.506764	-1.033600
N198	N	1.546120	-0.006764	-0.533600
H199	H	1.058194	-0.555416	-1.054030
H200	H	1.558194	-0.055416	-0.554030
H201	H	1.114974	-0.368712	-0.987123
H202	H	1.614974	0.131288	-0.487123
N203	N	0.873837	-0.414077	-0.983702
N204	N	1.373837	0.085923	-0.483702
N205	N	0.848999	-0.355169	-0.965296
N206	N	1.348999	0.144831	-0.465296
H207	H	0.800790	-0.342077	-0.980780
H208	H	1.300790	0.157923	-0.480780
N209	N	1.126028	-0.358640	-0.855256
N210	N	1.626028	0.141360	-0.355256
N211	N	1.111448	-0.308431	-0.810846
N212	N	1.611448	0.191569	-0.310846
H213	H	1.149758	-0.276247	-0.793090
H214	H	1.649758	0.223753	-0.293090
N215	N	0.743270	-0.279215	-0.307166
N216	N	1.243270	0.220785	0.192834
N217	N	0.712286	-0.237730	-0.261710
N218	N	1.212286	0.262270	0.238290
H219	H	0.740069	-0.206451	-0.227448
H220	H	1.240069	0.293549	0.272552
H221	H	0.489090	-0.322689	-0.354799
H222	H	0.989090	0.177311	0.145201
N223	N	1.078260	-0.644229	-0.338507
N224	N	1.578260	-0.144229	0.161493
N225	N	1.116927	-0.678627	-0.299552
N226	N	1.616927	-0.178627	0.200448
H227	H	1.150410	-0.653601	-0.265781
H228	H	1.650410	-0.153601	0.234219
H229	H	0.952071	-0.487785	-0.986235
H230	H	1.452071	0.012215	-0.486235
H231	H	0.930990	-0.285415	-0.976036
H232	H	1.430990	0.214585	-0.476036
N233	N	0.914091	-0.284426	-0.842490
N234	N	1.414091	0.215574	-0.342490
N235	N	0.878901	-0.323654	-0.801700
N236	N	1.378901	0.176346	-0.301700
H237	H	0.831311	-0.308204	-0.780855
H238	H	1.331311	0.191796	-0.280855
N239	N	1.106878	-0.976939	-0.309864
N240	N	1.606878	-0.476939	0.190136
N241	N	1.145545	-1.011333	-0.270907
N242	N	1.645545	-0.511333	0.229093
H243	H	1.179027	-0.986305	-0.237137
H244	H	1.679027	-0.486305	0.262863
N245	N	0.874190	-0.414185	-0.845916
N246	N	1.374190	0.085815	-0.345916
N247	N	0.826269	-0.400866	-0.888012
N248	N	1.326269	0.099134	-0.388012
H249	H	0.778209	-0.387674	-0.866640
H250	H	1.278209	0.112326	-0.366640
N251	N	0.954907	-0.502509	-0.854190
N252	N	1.454907	-0.002509	-0.354190
N253	N	0.963685	-0.551073	-0.902088
N254	N	1.463685	-0.051073	-0.402088
H255	H	0.972637	-0.600260	-0.886557
H256	H	1.472637	-0.100260	-0.386557
H257	H	0.595521	-0.445469	-0.489346
H258	H	1.095521	0.054531	0.010654
N259	N	1.029812	-0.255121	-0.845025
N260	N	1.529812	0.244879	-0.345025
N261	N	1.035255	-0.244421	-0.776912
N262	N	1.535255	0.255579	-0.276912
H263	H	1.069398	-0.208275	-0.757857
H264	H	1.569398	0.291725	-0.257857
N265	N	1.100608	-1.124946	-0.316269
N266	N	1.600608	-0.624946	0.183731
N267	N	1.097836	-1.190318	-0.319099
N268	N	1.597836	-0.690318	0.180901
H269	H	1.129078	-1.218109	-0.287619
H270	H	1.629078	-0.718109	0.212381
