data_functionalizedCrystal
_audit_creation_method	'MofGen! by Chris Wilmer'
_symmetry_space_group_name_H-M	'P1'
_symmetry_Int_Tables_number	1
_symmetry_cell_setting	triclinic
loop_
_symmetry_equiv_pos_as_xyz
  x,y,z
_cell_length_a	6.817900
_cell_length_b	13.167930
_cell_length_c	12.200875
_cell_angle_alpha	98.450964
_cell_angle_beta	107.143593
_cell_angle_gamma	105.754568
loop_
_atom_site_label
_atom_site_type_symbol
_atom_site_fract_x
_atom_site_fract_y
_atom_site_fract_z
V1	V	-4.089551	-0.149149	-0.373537
O2	O	-4.054055	0.006916	-0.350116
O3	O	-4.061620	-0.295496	-0.386668
O4	O	-4.058964	-0.146966	-0.529293
O5	O	-4.056729	-0.142643	-0.206505
V6	V	-4.568219	-0.130469	-0.351653
O7	O	-4.361460	-0.190126	-0.421541
O8	O	-4.746507	-0.089493	-0.303649
O9	O	-4.372944	0.015878	-0.338521
O10	O	-4.721113	-0.286534	-0.375073
O11	O	-4.718438	-0.136975	-0.518685
O12	O	-4.375600	-0.132653	-0.195897
C13	C	-3.911023	-0.331169	-0.384823
C14	C	-3.969591	-0.450810	-0.396598
C15	C	-3.970373	-0.644747	-0.205315
C16	C	-4.025400	-0.757160	-0.216373
C17	C	-4.134688	-0.788051	-0.429771
C18	C	-4.079660	-0.675638	-0.418713
C19	C	-3.997500	-0.603990	-0.306481
C20	C	-3.942458	-0.491575	-0.295424
C21	C	-4.051760	-0.522468	-0.508821
C22	C	-4.106787	-0.634880	-0.519879
C23	C	-3.907634	-0.141702	-0.566753
C24	C	-3.964044	-0.140885	-0.694187
C25	C	-4.067283	-0.139390	-0.927503
C26	C	-4.009825	-0.140221	-0.797669
C27	C	-4.186883	0.051545	-0.340364
C28	C	-4.107554	0.171185	-0.328597
C29	C	-4.190272	-0.137920	-0.158431
C30	C	-4.113099	-0.138732	-0.030995
H31	H	-4.003308	-0.790339	-0.133993
H32	H	-4.073838	-0.489272	-0.591198
O33	O	-4.214872	-0.857631	-0.538819
C34	C	-4.499548	-0.923609	-0.730603
C35	C	-4.408998	-0.844772	-0.607143
H36	H	-4.656488	-0.913223	-0.785886
H37	H	-4.534398	-1.010977	-0.721190
H38	H	-4.374683	-0.904935	-0.776162
H39	H	-4.533764	-0.863346	-0.561516
H40	H	-4.374092	-0.757427	-0.616637
O41	O	-4.186948	-0.704452	-0.628931
C42	C	-4.471576	-0.770417	-0.820732
C43	C	-4.381068	-0.691594	-0.697265
H44	H	-4.628510	-0.760032	-0.876023
H45	H	-4.506423	-0.857789	-0.811332
H46	H	-4.346687	-0.751727	-0.866273
H47	H	-4.505858	-0.710185	-0.651655
H48	H	-4.346165	-0.604246	-0.706745
O49	O	-3.862293	-0.421921	-0.186420
C50	C	-3.562350	-0.271825	-0.044099
C51	C	-3.652840	-0.350649	-0.167564
H52	H	-3.393015	-0.214167	-0.028824
H53	H	-3.552252	-0.320215	0.026359
H54	H	-3.674885	-0.222689	-0.038462
H55	H	-3.540389	-0.399804	-0.173317
H56	H	-3.662987	-0.302196	-0.237964
O57	O	-3.890690	-0.575297	-0.096215
C58	C	-3.787990	-0.556513	0.114283
C59	C	-3.878288	-0.635286	-0.009202
H60	H	-3.777891	-0.604982	0.184668
H61	H	-3.900444	-0.507349	0.120018
H62	H	-3.618622	-0.498876	0.129582
H63	H	-4.047630	-0.692990	-0.024583
H64	H	-3.765683	-0.684373	-0.014877
