data_functionalizedCrystal
_audit_creation_method	'MofGen! by Chris Wilmer'
_symmetry_space_group_name_H-M	'P1'
_symmetry_Int_Tables_number	1
_symmetry_cell_setting	triclinic
loop_
_symmetry_equiv_pos_as_xyz
  x,y,z
_cell_length_a	6.817900
_cell_length_b	12.200875
_cell_length_c	11.168129
_cell_angle_alpha	92.527662
_cell_angle_beta	108.508637
_cell_angle_gamma	107.143593
loop_
_atom_site_label
_atom_site_type_symbol
_atom_site_fract_x
_atom_site_fract_y
_atom_site_fract_z
V1	V	-4.093963	-0.357671	-0.174992
O2	O	-4.053850	-0.350852	0.008114
O3	O	-4.070360	-0.355235	-0.346695
O4	O	-4.063311	-0.513659	-0.172429
O5	O	-4.060948	-0.191331	-0.167358
V6	V	-4.572078	-0.337774	-0.153075
O7	O	-4.367084	-0.401316	-0.223068
O8	O	-4.749155	-0.294129	-0.104998
O9	O	-4.372475	-0.340210	0.018629
O10	O	-4.729588	-0.344593	-0.336180
O11	O	-4.722490	-0.504114	-0.160708
O12	O	-4.379524	-0.181786	-0.155637
C13	C	-3.920819	-0.349595	-0.388549
C14	C	-3.982926	-0.348643	-0.528919
C15	C	-3.958246	-0.248384	-0.574285
C16	C	-4.022435	-0.247398	-0.719365
C17	C	-3.911826	-0.551679	-0.166254
C18	C	-3.968211	-0.679201	-0.165295
C19	C	-4.071406	-0.912675	-0.163541
C20	C	-4.013973	-0.782753	-0.164517
C21	C	-4.185358	-0.345847	0.060476
C22	C	-4.102491	-0.346807	0.200845
C23	C	-4.194351	-0.143760	-0.161817
C24	C	-4.117203	-0.016237	-0.162769
H25	H	-4.001398	-0.161561	-0.758443
Br26	Br	-4.097373	-0.490499	-0.643192
Br27	Br	-3.843918	-0.106531	-0.460016
H28	H	-4.123510	-0.432647	-0.760084
