data_functionalizedCrystal
_audit_creation_method	'MofGen! by Chris Wilmer'
_symmetry_space_group_name_H-M	'P1'
_symmetry_Int_Tables_number	1
_symmetry_cell_setting	triclinic
loop_
_symmetry_equiv_pos_as_xyz
  x,y,z
_cell_length_a	19.188933
_cell_length_b	19.188930
_cell_length_c	16.098538
_cell_angle_alpha	92.708456
_cell_angle_beta	87.271982
_cell_angle_gamma	83.145175
loop_
_atom_site_label
_atom_site_type_symbol
_atom_site_fract_x
_atom_site_fract_y
_atom_site_fract_z
O1	O	0.929279	0.084045	-0.069237
O2	O	0.725968	0.095777	-0.069246
O3	O	0.833490	-0.011744	-0.069225
O4	O	0.821757	0.191566	-0.069258
O5	O	0.827209	-0.005487	0.069286
O6	O	0.719687	0.102034	0.069265
O7	O	0.922998	0.090301	0.069274
Zn8	Zn	0.820345	0.097161	0.091262
Zn9	Zn	0.828621	0.088918	-0.091234
O10	O	0.815476	0.197822	0.069253
C11	C	0.696817	0.098525	0.000009
C12	C	0.619312	0.097384	0.000006
C13	C	0.069480	0.085829	-0.075487
C14	C	0.142305	0.086897	-0.075490
C15	C	0.175298	0.090845	0.000012
C16	C	0.135463	0.093706	0.075524
C17	C	0.062641	0.092631	0.075525
N18	N	0.281770	0.134801	0.056206
N19	N	0.350948	0.135824	0.056199
C20	C	0.394707	0.094083	0.000013
N21	N	0.366674	0.051288	-0.056179
N22	N	0.297489	0.050269	-0.056175
C23	C	0.254261	0.092010	0.000019
C24	C	0.513498	0.092374	-0.075497
C25	C	0.586324	0.093438	-0.075497
C26	C	0.579480	0.100254	0.075519
C27	C	0.506656	0.099183	0.075517
C28	C	0.473669	0.095246	0.000007
C29	C	0.829969	-0.034626	0.000033
C30	C	0.828828	-0.112131	0.000040
C31	C	0.891919	-0.157054	0.000047
C32	C	0.890848	-0.229878	0.000033
C33	C	0.826682	-0.257775	0.000030
C34	C	0.763583	-0.212842	0.000018
C35	C	0.764657	-0.140020	0.000024
N36	N	0.775497	-0.363652	0.047166
N37	N	0.774482	-0.432830	0.047163
C38	C	0.823445	-0.477185	0.000013
N39	N	0.873471	-0.449748	-0.047123
N40	N	0.874488	-0.380563	-0.047117
C41	C	0.825511	-0.336738	0.000024
C42	C	0.885378	-0.601073	0.000004
C43	C	0.884305	-0.673899	-0.000015
C44	C	0.757038	-0.656861	-0.000021
C45	C	0.758114	-0.584037	-0.000011
C46	C	0.822285	-0.556148	0.000006
C47	C	0.952149	0.087553	0.000018
C48	C	1.029654	0.088694	0.000015
C49	C	0.818997	0.220705	-0.000007
C50	C	0.820138	0.298209	-0.000019
N51	N	0.814703	0.102786	0.215810
N52	N	0.834269	0.083287	-0.215782
C53	C	0.860356	0.057166	0.259404
C54	C	0.856415	0.061108	0.346592
C55	C	0.806824	0.110673	0.390184
C56	C	0.761166	0.156295	0.346584
C57	C	0.765104	0.152350	0.259398
C58	C	0.792549	0.124964	0.653432
C59	C	0.788616	0.128907	0.740624
C60	C	0.883864	0.033718	0.740626
C61	C	0.887801	0.029780	0.653438
C62	C	0.842140	0.075400	0.609845
C63	C	0.802796	0.114705	0.479305
C64	C	0.846165	0.071364	0.520726
H65	H	0.042627	0.082620	-0.136973
H66	H	0.706738	-0.547460	-0.000012
H67	H	0.900741	0.016807	0.223916
C68	C	0.950977	-0.033359	0.337836
C69	C	0.906610	0.010971	0.394510
H70	H	0.981970	-0.064307	0.367420
H71	H	0.923534	-0.059949	0.303850
H72	H	0.977524	-0.005882	0.303810
H73	H	0.880058	-0.016506	0.428532
H74	H	0.934055	0.037564	0.428510
H75	H	0.944173	-0.134351	0.000057
C76	C	0.256978	0.085526	-0.142539
C77	C	0.186094	0.083750	-0.158486
H78	H	0.284009	0.083579	-0.193778
H79	H	0.262050	0.127803	-0.111519
H80	H	0.272950	0.046391	-0.111514
H81	H	0.170121	0.122889	-0.189505
H82	H	0.181018	0.041468	-0.189519
C83	C	0.705431	-0.316910	0.000021
C84	C	0.693050	-0.243504	0.000018
H85	H	0.661884	-0.335836	0.000023
H86	H	0.733585	-0.334515	-0.048277
H87	H	0.729210	-0.330161	0.048328
H88	H	0.669276	-0.230253	-0.048292
H89	H	0.664885	-0.225893	0.048321
H90	H	0.162331	0.096919	0.136998
H91	H	0.748231	0.169273	0.776114
C92	C	0.698012	0.219455	0.662200
C93	C	0.742365	0.175114	0.605522
H94	H	0.667033	0.250420	0.632618
H95	H	0.671455	0.191992	0.696220
H96	H	0.725471	0.246033	0.696192
H97	H	0.714906	0.148532	0.571534
H98	H	0.768924	0.202580	0.571488
C99	C	0.712842	0.204615	0.480233
C100	C	0.706656	0.210781	0.394500
H101	H	0.679193	0.238258	0.509810
H102	H	0.704756	0.158689	0.494535
H103	H	0.758773	0.212730	0.494497
H104	H	0.660727	0.202661	0.380234
H105	H	0.714736	0.256718	0.380192
H106	H	0.713279	-0.103443	0.000018
C107	C	0.670567	0.246842	0.268148
C108	C	0.714924	0.202500	0.211476
H109	H	0.639589	0.277805	0.238562
H110	H	0.644009	0.219380	0.302167
H111	H	0.698023	0.273423	0.302141
H112	H	0.687468	0.175916	0.177487
H113	H	0.741485	0.229966	0.177443
H114	H	0.030214	0.094968	0.137009
C115	C	0.966705	-0.324868	-0.071159
C116	C	0.960201	-0.279270	0.000046
H117	H	1.009522	-0.355355	-0.071150
H118	H	0.928338	-0.351897	-0.071161
H119	H	0.966676	-0.298274	-0.119455
H120	H	0.960224	-0.305864	0.048342
H121	H	0.998578	-0.252239	0.000056
H122	H	0.921038	-0.003424	0.776127
C123	C	0.527575	0.085743	-0.224769
C124	C	0.477233	0.088041	-0.158495
H125	H	0.505187	0.083065	-0.276007
H126	H	0.550389	0.127005	-0.221632
H127	H	0.561283	0.045593	-0.221619
H128	H	0.443528	0.128194	-0.161641
H129	H	0.454408	0.046775	-0.161633
H130	H	0.618751	0.091099	-0.136982
C131	C	1.011068	-0.625227	-0.000010
C132	C	0.955914	-0.570412	0.000002
H133	H	1.054613	-0.606298	-0.000020
H134	H	1.005818	-0.651101	0.048287
H135	H	1.010181	-0.655450	-0.048317
H136	H	0.956797	-0.540191	0.048312
H137	H	0.961165	-0.544526	-0.048301
H138	H	0.704793	-0.679574	-0.000028
H139	H	0.474229	0.101519	0.136998
C140	C	0.981547	-0.063922	0.662200
C141	C	0.942309	-0.024708	0.605523
H142	H	1.015196	-0.097562	0.632618
H143	H	1.005035	-0.033383	0.696189
H144	H	0.951020	-0.087424	0.696223
H145	H	0.972836	-0.001202	0.571504
H146	H	0.918820	-0.055252	0.571520
C147	C	0.960166	-0.768870	-0.071225
C148	C	0.953661	-0.723280	-0.000013
H149	H	1.002987	-0.799352	-0.071226
H150	H	0.921803	-0.795904	-0.071229
H151	H	0.960129	-0.742269	-0.119516
H152	H	0.953693	-0.749881	0.048278
H153	H	0.992034	-0.696243	-0.000002
H154	H	0.606343	0.103466	0.136994
H155	H	0.886540	0.031005	0.485231
H156	H	0.762420	0.155063	0.514805
