data_functionalizedCrystal
_audit_creation_method	'MofGen! by Chris Wilmer'
_symmetry_space_group_name_H-M	'P1'
_symmetry_Int_Tables_number	1
_symmetry_cell_setting	triclinic
loop_
_symmetry_equiv_pos_as_xyz
  x,y,z
_cell_length_a	10.908937
_cell_length_b	10.967829
_cell_length_c	9.482900
_cell_angle_alpha	87.494390
_cell_angle_beta	83.036371
_cell_angle_gamma	72.684843
loop_
_atom_site_label
_atom_site_type_symbol
_atom_site_fract_x
_atom_site_fract_y
_atom_site_fract_z
O1	O	1.713503	-0.205926	-0.069351
O2	O	1.344305	-0.113206	-0.092572
O3	O	1.530327	-0.334431	-0.037147
O4	O	1.527481	0.015299	-0.124775
O5	O	1.492549	-0.289347	0.193350
O6	O	1.306527	-0.068122	0.137926
O7	O	1.675725	-0.160842	0.161147
Cu8	Cu	1.487677	-0.110365	0.170582
Cu9	Cu	1.532353	-0.163683	-0.102007
O10	O	1.489703	0.060383	0.105722
C11	C	1.278010	-0.081999	0.020507
C12	C	1.136756	-0.056194	0.014045
C13	C	0.937023	-0.123697	0.030933
C14	C	1.083013	-0.150366	0.037633
C15	C	1.508377	-0.355960	0.089141
C16	C	1.499240	-0.487273	0.122033
C17	C	1.514736	-0.569166	0.017292
C18	C	1.505293	-0.704885	0.051286
C19	C	1.742020	-0.192050	0.048065
C20	C	1.883276	-0.217857	0.054517
C21	C	1.511654	0.081911	-0.020569
C22	C	1.520792	0.213222	-0.053471
N23	N	1.456263	-0.072867	0.362308
N24	N	1.563777	-0.201192	-0.293730
C25	C	1.523078	-0.152627	0.454490
C26	C	1.496951	-0.121421	0.614089
H27	H	0.945342	-0.318216	0.079660
H28	H	1.541037	-0.756415	-0.168319
H29	H	0.874959	-0.023342	0.005773
Cl30	Cl	1.178825	-0.305325	0.076458
Cl31	Cl	1.040951	0.098763	-0.024797
Cl32	Cl	1.546044	-0.522305	-0.160015
H33	H	1.485025	-0.735242	0.166132
Cl34	Cl	1.467951	-0.534140	0.299342
H35	H	1.599620	-0.244019	0.415259
H36	H	1.420395	-0.030029	0.653317
H37	H	1.640324	-0.292590	0.667044
H38	H	1.379711	0.018518	0.401543
