data_functionalizedCrystal
_audit_creation_method	'MofGen! by Chris Wilmer'
_symmetry_space_group_name_H-M	'P1'
_symmetry_Int_Tables_number	1
_symmetry_cell_setting	triclinic
loop_
_symmetry_equiv_pos_as_xyz
  x,y,z
_cell_length_a	16.120484
_cell_length_b	16.959455
_cell_length_c	16.959447
_cell_angle_alpha	89.987476
_cell_angle_beta	92.866538
_cell_angle_gamma	92.926296
loop_
_atom_site_label
_atom_site_type_symbol
_atom_site_fract_x
_atom_site_fract_y
_atom_site_fract_z
Zn1	Zn	-0.331871	1.192398	-0.462810
Zn2	Zn	-0.471300	1.185604	-0.337327
Zn3	Zn	-0.331907	1.060225	-0.330653
Zn4	Zn	-0.471247	1.053478	-0.469468
O5	O	-0.401581	1.122926	-0.400064
O6	O	-0.350374	1.302107	-0.446171
O7	O	-0.452846	1.168953	-0.225833
O8	O	-0.215236	1.083425	-0.342604
O9	O	-0.452811	1.297116	-0.353980
O10	O	-0.215210	1.180532	-0.439699
O11	O	-0.350435	1.076837	-0.220929
O12	O	-0.350383	0.948719	-0.349060
O13	O	-0.452721	1.071925	-0.579193
O14	O	-0.452756	0.943762	-0.451047
O15	O	-0.350322	1.173989	-0.574302
O16	O	-0.587958	1.162411	-0.360436
O17	O	-0.587920	1.065338	-0.457518
C18	C	-0.618189	1.112426	-0.410441
C19	C	-0.710855	1.108007	-0.414907
C20	C	-0.401568	0.917561	-0.400052
C21	C	-0.401583	0.829703	-0.400066
C22	C	-0.401512	1.122962	-0.606229
C23	C	-0.401483	1.122978	-0.694085
C24	C	-0.880516	1.099942	-0.423076
C25	C	-0.921805	1.146052	-0.377066
C26	C	-1.016211	1.141565	-0.381611
C27	C	-0.786102	1.104428	-0.418532
C28	C	-0.184127	1.133489	-0.389664
C29	C	-0.091461	1.137990	-0.385233
C30	C	-0.401594	1.329094	-0.400077
C31	C	-0.401600	1.416950	-0.400083
C32	C	-0.454919	1.785830	-0.352068
C33	C	-0.348250	1.791023	-0.448067
C34	C	-0.348254	1.708477	-0.448072
C35	C	-0.401590	1.664604	-0.400074
C36	C	-0.454923	1.703276	-0.352070
C37	C	-0.294916	1.669798	-0.496069
C38	C	-0.294916	1.587247	-0.496076
C39	C	-0.348258	1.543372	-0.448081
C40	C	-0.401593	1.582050	-0.400076
C41	C	-0.454930	1.538177	-0.352077
C42	C	-0.508270	1.576853	-0.304075
C43	C	-0.508264	1.659402	-0.304075
C44	C	-0.348264	1.460823	-0.448081
C45	C	-0.454933	1.455623	-0.352079
C46	C	-0.454709	1.069936	-1.068105
C47	C	-0.348080	1.176217	-1.063007
C48	C	-0.348098	1.176195	-0.980462
C49	C	-0.401423	1.123044	-0.941735
C50	C	-0.454730	1.069914	-0.985553
C51	C	-0.294798	1.229329	-0.936638
C52	C	-0.294814	1.229309	-0.854088
C53	C	-0.348135	1.176154	-0.815359
C54	C	-0.401444	1.123022	-0.859182
C55	C	-0.454769	1.069871	-0.820455
C56	C	-0.508074	1.016734	-0.864277
C57	C	-0.508051	1.016759	-0.946824
C58	C	-0.348158	1.176129	-0.732812
C59	C	-0.454790	1.069849	-0.737903
C60	C	-0.401590	1.122939	-0.194698
C61	C	-0.401384	1.123088	-0.106832
H62	H	-0.886253	1.188897	-0.334261
Br63	Br	-0.939769	1.028534	-0.494415
H64	H	-0.251389	1.272606	-0.968176
H65	H	-0.251409	1.272576	-0.818415
Br66	Br	-0.580644	1.517302	-0.238928
Br67	Br	-0.580448	0.944609	-0.811709
H68	H	-0.498350	1.817324	-0.312988
H69	H	-0.251485	1.555764	-0.535163
Br70	Br	-0.527156	0.997704	-0.685351
H71	H	-0.498370	1.419907	-0.312995
Br72	Br	-0.580646	1.711895	-0.238934
H73	H	-0.304822	1.826749	-0.487142
H74	H	-0.251489	1.705525	-0.535144
H75	H	-0.551452	0.973500	-0.982511
H76	H	-0.304829	1.429337	-0.487157
H77	H	-0.498106	1.026672	-1.103788
Br78	Br	-0.275723	1.248355	-1.115566
H79	H	-0.304760	1.219394	-0.697136
