data_functionalizedCrystal
_audit_creation_method	'MofGen! by Chris Wilmer'
_symmetry_space_group_name_H-M	'P1'
_symmetry_Int_Tables_number	1
_symmetry_cell_setting	triclinic
loop_
_symmetry_equiv_pos_as_xyz
  x,y,z
_cell_length_a	9.565339
_cell_length_b	10.489716
_cell_length_c	10.489711
_cell_angle_alpha	84.528072
_cell_angle_beta	90.002166
_cell_angle_gamma	89.997314
loop_
_atom_site_label
_atom_site_type_symbol
_atom_site_fract_x
_atom_site_fract_y
_atom_site_fract_z
O1	O	0.116236	1.694040	0.179825
O2	O	0.116240	1.322838	0.196750
O3	O	0.116242	1.516905	0.002686
O4	O	0.116234	1.499973	0.373888
O5	O	-0.116278	1.516914	0.002674
O6	O	-0.116280	1.322847	0.196737
O7	O	-0.116284	1.694049	0.179812
Zn8	Zn	-0.153199	1.508449	0.188273
Zn9	Zn	0.153156	1.508438	0.188289
O10	O	-0.116286	1.499982	0.373876
C11	C	-0.000019	1.275311	0.195472
C12	C	-0.000017	1.133680	0.191667
N13	N	-0.362279	1.508467	0.188260
N14	N	0.362235	1.508430	0.188292
C15	C	-0.000016	1.035994	0.310673
C16	C	-0.114666	0.958659	0.247782
C17	C	0.114581	0.958656	0.247766
C18	C	-0.114761	1.058211	0.128826
C19	C	0.114588	1.058214	0.128827
C20	C	-0.000089	0.980928	0.065849
C21	C	0.453429	1.418502	0.277864
C22	C	0.546614	1.392999	0.162277
C23	C	0.546605	1.533913	0.303836
C24	C	0.453368	1.482870	0.072646
C25	C	0.453352	1.623834	0.214281
C26	C	0.546495	1.598380	0.098612
C27	C	-0.000014	1.515639	-0.044852
C28	C	-0.000002	1.511837	-0.186483
C29	C	-0.000022	1.741576	0.181090
C30	C	-0.000014	1.883207	0.184895
C31	C	-0.000018	1.628543	-0.368880
C32	C	-0.114660	1.570251	-0.276737
C33	C	0.114586	1.570211	-0.276748
C34	C	-0.114767	1.446707	-0.346677
C35	C	0.114583	1.446684	-0.346698
C36	C	-0.000088	1.388302	-0.254583
C37	C	-0.000026	1.501248	0.421414
C38	C	-0.000029	1.505050	0.563045
H39	H	-0.000125	1.060652	0.414190
C40	C	-0.245306	0.927177	0.443696
C41	C	-0.245511	0.899943	0.315588
H42	H	-0.326077	0.890923	0.485560
H43	H	-0.245817	1.017307	0.447310
H44	H	-0.163891	0.891748	0.485102
H45	H	-0.326921	0.935380	0.274178
H46	H	-0.245012	0.809795	0.311966
C47	C	0.001007	0.814738	-0.076496
C48	C	-0.000140	0.947959	-0.073996
H49	H	0.000987	0.794390	-0.162831
H50	H	-0.079669	0.779141	-0.033977
H51	H	0.082496	0.780339	-0.034391
H52	H	-0.081634	0.982358	-0.116093
H53	H	0.080544	0.983571	-0.116534
H54	H	-0.211784	1.101536	0.078612
H55	H	-0.211797	1.394500	-0.377487
C56	C	-0.120307	1.186833	-0.223069
C57	C	-0.000169	1.251164	-0.187777
H58	H	-0.120363	1.102175	-0.181816
H59	H	-0.121070	1.183644	-0.313254
H60	H	-0.200964	1.231046	-0.198050
H61	H	0.080489	1.206956	-0.212804
H62	H	0.000607	1.254346	-0.097572
H63	H	0.211494	0.915164	0.298033
C64	C	0.365373	1.441039	-0.353659
C65	C	0.245428	1.376198	-0.388578
H66	H	0.446157	1.397533	-0.379525
H67	H	0.366780	1.443657	-0.263408
H68	H	0.364535	1.525898	-0.394385
H69	H	0.246261	1.291341	-0.347844
H70	H	0.244021	1.373566	-0.478846
C71	C	0.682440	1.275456	0.020630
C72	C	0.601933	1.261280	0.132569
H73	H	0.716581	1.194134	0.002295
H74	H	0.758963	1.330866	0.032290
H75	H	0.626364	1.310964	-0.048615
H76	H	0.658012	1.225780	0.201816
H77	H	0.525399	1.205850	0.120917
C78	C	0.251946	1.453817	-0.058081
C79	C	0.398326	1.453627	-0.059312
H80	H	0.217967	1.435752	-0.139542
H81	H	0.219248	1.535509	-0.039468
H82	H	0.219352	1.390299	0.005592
H83	H	0.430920	1.517151	-0.122979
H84	H	0.431038	1.371923	-0.077940
C85	C	0.204781	1.747029	-0.172590
C86	C	0.245430	1.640768	-0.234957
H87	H	0.285554	1.790597	-0.146802
H88	H	0.150459	1.719253	-0.099370
H89	H	0.150778	1.803312	-0.229315
H90	H	0.299424	1.584479	-0.178229
H91	H	0.299774	1.668542	-0.308187
C92	C	0.365379	1.066489	0.123630
C93	C	0.245440	1.116969	0.061085
H94	H	0.446167	1.102773	0.081820
H95	H	0.366785	0.976196	0.121355
H96	H	0.364535	1.086285	0.210128
H97	H	0.246278	1.097165	-0.025412
H98	H	0.244034	1.207283	0.063346
H99	H	0.412563	1.342386	0.353537
H100	H	0.587101	1.674449	0.022767
H101	H	0.412353	1.721381	0.236324
H102	H	0.587535	1.555468	0.401567
C103	C	-0.001502	1.853667	-0.343749
C104	C	-0.000178	1.765565	-0.435975
H105	H	-0.001617	1.938255	-0.385172
H106	H	0.079179	1.841579	-0.291199
H107	H	-0.082984	1.840927	-0.292343
H108	H	0.081310	1.778299	-0.487375
H109	H	-0.080867	1.777658	-0.488547
H110	H	-0.211584	1.622508	-0.245760
