data_functionalizedCrystal
_audit_creation_method	'MofGen! by Chris Wilmer'
_symmetry_space_group_name_H-M	'P1'
_symmetry_Int_Tables_number	1
_symmetry_cell_setting	triclinic
loop_
_symmetry_equiv_pos_as_xyz
  x,y,z
_cell_length_a	17.699077
_cell_length_b	11.792241
_cell_length_c	16.176319
_cell_angle_alpha	89.999276
_cell_angle_beta	89.993156
_cell_angle_gamma	83.736996
loop_
_atom_site_label
_atom_site_type_symbol
_atom_site_fract_x
_atom_site_fract_y
_atom_site_fract_z
O1	O	1.004847	0.143484	-0.068736
O2	O	1.504847	0.643484	0.431264
O3	O	0.784568	0.162165	-0.068740
O4	O	1.284568	0.662165	0.431260
O5	O	0.900053	-0.012410	-0.068732
O6	O	1.400053	0.487590	0.431268
O7	O	0.889362	0.318059	-0.068744
O8	O	1.389362	0.818059	0.431256
O9	O	0.900036	-0.012401	0.068761
O10	O	1.400036	0.487599	0.568761
O11	O	0.784550	0.162174	0.068753
O12	O	1.284550	0.662174	0.568753
O13	O	1.004830	0.143494	0.068757
O14	O	1.504830	0.643494	0.568757
Cu15	Cu	0.894688	0.152835	0.081309
Cu16	Cu	1.394688	0.652835	0.581309
Cu17	Cu	0.894709	0.152824	-0.081292
Cu18	Cu	1.394709	0.652824	0.418708
O19	O	0.889344	0.318069	0.068749
O20	O	1.389344	0.818069	0.568749
C21	C	0.756358	0.161501	0.000006
C22	C	1.256358	0.661501	0.500006
C23	C	0.672329	0.159497	0.000005
C24	C	1.172329	0.659497	0.500005
C25	C	0.632847	0.158557	0.074953
C26	C	1.132847	0.658557	0.574953
C27	C	0.553895	0.156656	0.074954
C28	C	1.053895	0.656656	0.574954
C29	C	0.514425	0.155701	0.000006
C30	C	1.014425	0.655701	0.500006
C31	C	0.553913	0.156637	-0.074949
C32	C	1.053913	0.656637	0.425051
C33	C	0.632864	0.158531	-0.074949
C34	C	1.132864	0.658531	0.425051
C35	C	0.235509	0.149000	-0.074950
C36	C	0.735509	0.649000	0.425050
C37	C	0.156551	0.147109	-0.074944
C38	C	0.656551	0.647109	0.425056
C39	C	0.156539	0.147124	0.074953
C40	C	0.656539	0.647124	0.574953
C41	C	0.235491	0.149018	0.074953
C42	C	0.735491	0.649018	0.574953
C43	C	0.274972	0.149948	-0.000001
C44	C	0.774972	0.649948	0.499999
C45	C	0.360582	0.152007	-0.000001
C46	C	0.860582	0.652007	0.499999
C47	C	0.428816	0.153650	0.000005
C48	C	0.928816	0.653650	0.500005
C49	C	0.899373	-0.054688	0.000014
C50	C	1.399373	0.445312	0.500014
C51	C	0.897363	-0.180678	0.000013
C52	C	1.397363	0.319322	0.500013
C53	C	0.893666	-0.411346	-0.000000
C54	C	1.393666	0.088654	0.500000
C55	C	0.895720	-0.282985	0.000007
C56	C	1.395720	0.217015	0.500007
C57	C	1.033039	0.144157	0.000009
C58	C	1.533039	0.644157	0.500009
C59	C	1.117068	0.146162	0.000005
C60	C	1.617068	0.646162	0.500005
C61	C	0.890025	0.360347	0.000001
C62	C	1.390025	0.860347	0.500001
C63	C	0.892035	0.486336	-0.000003
C64	C	1.392035	0.986336	0.499997
N65	N	0.894679	0.152842	0.195675
N66	N	1.394679	0.652842	0.695675
N67	N	0.894724	0.152807	-0.195657
N68	N	1.394724	0.652807	0.304343
C69	C	0.945868	0.075533	0.761061
C70	C	1.445868	0.575533	1.261061
C71	C	0.945864	0.075541	0.674514
C72	C	1.445864	0.575541	1.174514
C73	C	0.894713	0.152818	0.631250
C74	C	1.394713	0.652818	1.131250
C75	C	0.843567	0.230101	0.674538
C76	C	1.343567	0.730101	1.174538
C77	C	0.843575	0.230097	0.761083
C78	C	1.343575	0.730097	1.261083
C79	C	0.843537	0.230116	0.325510
C80	C	1.343537	0.730116	0.825510
C81	C	0.843532	0.230112	0.238958
C82	C	1.343532	0.730112	0.738958
C83	C	0.945826	0.075560	0.238940
C84	C	1.445826	0.575560	0.738940
C85	C	0.945834	0.075557	0.325485
C86	C	1.445834	0.575557	0.825485
C87	C	0.894691	0.152843	0.368766
C88	C	1.394691	0.652843	0.868766
C89	C	0.894696	0.152835	0.462610
C90	C	1.394696	0.652835	0.962610
C91	C	0.894704	0.152822	0.537407
C92	C	1.394704	0.652822	1.037407
H93	H	0.521770	0.155852	-0.135973
H94	H	1.021770	0.655852	0.364027
H95	H	0.521754	0.155872	0.135985
H96	H	1.021754	0.655872	0.635985
H97	H	0.801877	0.293044	0.203734
H98	H	1.301877	0.793044	0.703734
H99	H	0.124384	0.146362	0.135984
H100	H	0.624384	0.646362	0.635984
F101	F	1.000272	-0.006695	0.371526
F102	F	1.500272	0.493305	0.871526
H103	H	0.987517	0.012601	0.796280
H104	H	1.487517	0.512601	1.296280
F105	F	0.277517	0.149990	-0.154722
F106	F	0.777517	0.649990	0.345278
H107	H	0.124417	0.146332	-0.135980
H108	H	0.624417	0.646332	0.364020
H109	H	0.665009	0.159298	-0.135979
H110	H	1.165009	0.659298	0.364021
F111	F	0.789131	0.312352	0.628493
F112	F	1.289131	0.812352	1.128493
F113	F	1.000298	-0.006701	0.628450
F114	F	1.500298	0.493299	1.128450
F115	F	1.000260	-0.006692	0.192872
F116	F	1.500260	0.493308	0.692872
H117	H	0.801893	0.293043	0.360742
H118	H	1.301893	0.793043	0.860742
F119	F	0.674847	0.159580	0.154725
F120	F	1.174847	0.659580	0.654725
H121	H	0.801930	0.293023	0.796323
H122	H	1.301930	0.793023	1.296323
H123	H	0.267623	0.149800	0.135984
H124	H	0.767623	0.649800	0.635984
