data_functionalizedCrystal
_audit_creation_method	'MofGen! by Chris Wilmer'
_symmetry_space_group_name_H-M	'P1'
_symmetry_Int_Tables_number	1
_symmetry_cell_setting	triclinic
loop_
_symmetry_equiv_pos_as_xyz
  x,y,z
_cell_length_a	8.559649
_cell_length_b	8.597366
_cell_length_c	7.681481
_cell_angle_alpha	76.525280
_cell_angle_beta	85.068589
_cell_angle_gamma	102.375293
loop_
_atom_site_label
_atom_site_type_symbol
_atom_site_fract_x
_atom_site_fract_y
_atom_site_fract_z
O1	O	0.220958	-2.072793	0.168053
O2	O	0.246420	-1.605617	0.097172
O3	O	0.001084	-1.880364	0.138862
O4	O	0.466294	-1.798046	0.126364
O5	O	-0.029181	-1.914190	0.436852
O6	O	0.216155	-1.639442	0.395162
O7	O	0.190693	-2.106619	0.466043
Zn8	Zn	0.198619	-1.878401	0.477915
Zn9	Zn	0.238494	-1.833835	0.085300
O10	O	0.436029	-1.831871	0.424354
C11	C	0.230240	-1.563275	0.237177
C12	C	0.227099	-1.386715	0.210389
C13	C	-0.073578	-1.903515	0.288800
C14	C	-0.250959	-1.922083	0.291610
C15	C	0.206873	-2.148961	0.326035
C16	C	0.210016	-2.325519	0.352811
C17	C	0.510692	-1.808720	0.274411
C18	C	0.688073	-1.790151	0.271590
N19	N	0.171404	-1.908828	0.745866
N20	N	0.265697	-1.803422	-0.182649
H21	H	-0.334464	-2.049242	0.310908
H22	H	0.239310	-1.304037	0.067951
Br23	Br	0.426120	-1.624083	0.664810
H24	H	0.197792	-1.408209	0.495258
H25	H	-0.228414	-1.662986	0.252310
Br26	Br	0.010998	-2.088198	0.898419
