data_functionalizedCrystal
_audit_creation_method	'MofGen! by Chris Wilmer'
_symmetry_space_group_name_H-M	'P1'
_symmetry_Int_Tables_number	1
_symmetry_cell_setting	triclinic
loop_
_symmetry_equiv_pos_as_xyz
  x,y,z
_cell_length_a	12.594517
_cell_length_b	21.295417
_cell_length_c	12.594509
_cell_angle_alpha	89.965303
_cell_angle_beta	89.978379
_cell_angle_gamma	90.030306
loop_
_atom_site_label
_atom_site_type_symbol
_atom_site_fract_x
_atom_site_fract_y
_atom_site_fract_z
Zn1	Zn	1.627163	-0.250603	-0.601801
Zn2	Zn	1.960496	0.082730	-0.268467
Zn3	Zn	2.293830	0.416063	0.064866
Zn4	Zn	1.627008	-0.355879	-0.423797
Zn5	Zn	1.960341	-0.022546	-0.090464
Zn6	Zn	2.293675	0.310788	0.242869
Zn7	Zn	1.449166	-0.250627	-0.423830
Zn8	Zn	1.782499	0.082706	-0.090496
Zn9	Zn	2.115833	0.416039	0.242837
Zn10	Zn	1.449104	-0.355838	-0.601727
Zn11	Zn	1.782438	-0.022505	-0.268394
Zn12	Zn	2.115771	0.310829	0.064939
O13	O	1.538110	-0.303237	-0.512789
O14	O	1.871444	0.030096	-0.179455
O15	O	2.204777	0.363430	0.153878
O16	O	1.776088	-0.264575	-0.578205
O17	O	2.109422	0.068758	-0.244872
O18	O	2.442755	0.402091	0.088461
O19	O	1.603378	-0.341944	-0.274856
O20	O	1.936711	-0.008611	0.058478
O21	O	2.270045	0.324722	0.391811
O22	O	1.472868	-0.162535	-0.447482
O23	O	1.806202	0.170799	-0.114149
O24	O	2.139535	0.504132	0.219185
O25	O	1.775974	-0.341921	-0.447427
O26	O	2.109308	-0.008588	-0.114094
O27	O	2.442641	0.324746	0.219240
O28	O	1.603642	-0.162517	-0.578237
O29	O	1.936975	0.170816	-0.244903
O30	O	2.270309	0.504150	0.088430
O31	O	1.472718	-0.264616	-0.274879
O32	O	1.806052	0.068717	0.058454
O33	O	2.139385	0.402050	0.391787
O34	O	1.300212	-0.264577	-0.447411
O35	O	1.633545	0.068757	-0.114078
O36	O	1.966879	0.402090	0.219256
O37	O	1.472763	-0.341851	-0.750683
O38	O	1.806097	-0.008518	-0.417350
O39	O	2.139430	0.324815	-0.084016
O40	O	1.300167	-0.341875	-0.578112
O41	O	1.633500	-0.008541	-0.244778
O42	O	1.966833	0.324792	0.088555
O43	O	1.603582	-0.264536	-0.750737
O44	O	1.936916	0.068798	-0.417404
O45	O	2.270249	0.402131	-0.084070
O46	O	1.603318	-0.443963	-0.447356
O47	O	1.936651	-0.110630	-0.114023
O48	O	2.269985	0.222704	0.219311
O49	O	1.472613	-0.443933	-0.578080
O50	O	1.805946	-0.110600	-0.244747
O51	O	2.139280	0.222734	0.088586
C52	C	1.261569	-0.303224	-0.512757
C53	C	1.594903	0.030109	-0.179424
C54	C	1.928236	0.363442	0.153909
C55	C	1.143264	-0.303234	-0.512769
C56	C	1.476597	0.030099	-0.179436
C57	C	1.809931	0.363433	0.153897
C58	C	1.074005	-0.261134	-0.441817
C59	C	1.407338	0.072199	-0.108483
C60	C	1.740671	0.405532	0.224850
C61	C	1.003169	-0.318554	-0.415623
C62	C	1.336502	0.014779	-0.082290
C63	C	1.669836	0.348113	0.251043
C64	C	1.003301	-0.245842	-0.538981
C65	C	1.336634	0.087491	-0.205648
C66	C	1.669967	0.420824	0.127686
C67	C	1.073987	-0.360684	-0.486525
C68	C	1.407320	-0.027351	-0.153192
C69	C	1.740653	0.305983	0.180142
C70	C	1.074124	-0.287934	-0.609928
C71	C	1.407458	0.045400	-0.276595
C72	C	1.740791	0.378733	0.056739
C73	C	1.003321	-0.345393	-0.583771
C74	C	1.336654	-0.012060	-0.250438
C75	C	1.669987	0.321274	0.082896
C76	C	1.537971	-0.466789	-0.512730
C77	C	1.871304	-0.133455	-0.179396
C78	C	2.204638	0.199878	0.153937
C79	C	1.538009	-0.536757	-0.512740
C80	C	1.871342	-0.203423	-0.179407
C81	C	2.204675	0.129910	0.153926
C82	C	1.606127	-0.569618	-0.444742
C83	C	1.939461	-0.236285	-0.111408
C84	C	2.272794	0.097049	0.221925
C85	C	1.606177	-0.635361	-0.444766
C86	C	1.939510	-0.302027	-0.111432
C87	C	2.272844	0.031306	0.221901
C88	C	1.538089	-0.668239	-0.512777
C89	C	1.871423	-0.334906	-0.179444
C90	C	2.204756	-0.001572	0.153890
C91	C	1.469966	-0.635370	-0.580789
C92	C	1.803299	-0.302036	-0.247455
C93	C	2.136633	0.031297	0.085878
C94	C	1.469926	-0.569629	-0.580770
C95	C	1.803259	-0.236295	-0.247437
C96	C	2.136592	0.097038	0.085896
N97	N	1.444979	-0.771504	-0.520881
N98	N	1.778312	-0.438171	-0.187547
N99	N	2.111646	-0.104838	0.145786
N100	N	1.445020	-0.833956	-0.520892
N101	N	1.778354	-0.500623	-0.187558
N102	N	2.111687	-0.167289	0.145775
C103	C	1.538209	-0.866314	-0.512838
C104	C	1.871542	-0.532980	-0.179505
C105	C	2.204875	-0.199647	0.153829
N106	N	1.631356	-0.833861	-0.504752
N107	N	1.964689	-0.500528	-0.171418
N108	N	2.298023	-0.167194	0.161915
N109	N	1.631313	-0.771404	-0.504735
N110	N	1.964647	-0.438071	-0.171401
N111	N	2.297980	-0.104737	0.161932
C112	C	1.538126	-0.739524	-0.512805
C113	C	1.871459	-0.406191	-0.179471
C114	C	2.204793	-0.072858	0.153862
C115	C	1.606387	-0.970461	-0.444862
C116	C	1.939720	-0.637127	-0.111528
C117	C	2.273054	-0.303794	0.221805
C118	C	1.606439	-1.036204	-0.444893
C119	C	1.939772	-0.702871	-0.111560
C120	C	2.273105	-0.369538	0.221773
C121	C	1.470218	-1.036212	-0.580910
C122	C	1.803551	-0.702879	-0.247577
C123	C	2.136885	-0.369546	0.085756
C124	C	1.470176	-0.970470	-0.580885
C125	C	1.803509	-0.637137	-0.247551
C126	C	2.136843	-0.303803	0.085782
C127	C	1.538259	-0.937598	-0.512855
C128	C	1.871592	-0.604265	-0.179521
C129	C	2.204926	-0.270931	0.153812
C130	C	1.815731	-0.303250	-0.512821
C131	C	2.149065	0.030083	-0.179487
C132	C	2.482398	0.363417	0.153846
C133	C	1.934037	-0.303256	-0.512835
C134	C	2.267370	0.030078	-0.179501
C135	C	2.600703	0.363411	0.153832
C136	C	1.538183	-0.303186	-0.790410
C137	C	1.871516	0.030147	-0.457076
C138	C	2.204850	0.363480	-0.123743
C139	C	1.538214	-0.303165	-0.908715
C140	C	1.871547	0.030169	-0.575382
C141	C	2.204881	0.363502	-0.242049
C142	C	1.538279	-0.139047	-0.512871
C143	C	1.871613	0.194287	-0.179538
C144	C	2.204946	0.527620	0.153795
C145	C	1.538352	-0.069078	-0.512906
C146	C	1.871685	0.264255	-0.179573
C147	C	2.205018	0.597588	0.153760
C148	C	1.467106	-0.345164	-1.048703
C149	C	1.800440	-0.011831	-0.715370
C150	C	2.133773	0.321503	-0.382036
C151	C	1.441108	-0.287758	-0.977915
C152	C	1.774441	0.045576	-0.644581
C153	C	2.107775	0.378909	-0.311248
C154	C	1.564165	-0.360565	-0.977932
C155	C	1.897498	-0.027232	-0.644599
C156	C	2.230831	0.306102	-0.311265
C157	C	1.512226	-0.245649	-1.048713
C158	C	1.845560	0.087684	-0.715380
C159	C	2.178893	0.421017	-0.382046
C160	C	1.635328	-0.318495	-1.048736
C161	C	1.968661	0.014838	-0.715403
C162	C	2.301995	0.348172	-0.382070
C163	C	1.609367	-0.261049	-0.977980
C164	C	1.942700	0.072284	-0.644647
C165	C	2.276033	0.405617	-0.311313
C166	C	1.538099	-0.303242	-0.236248
C167	C	1.871433	0.030091	0.097086
C168	C	2.204766	0.363425	0.430419
C169	C	1.538275	-0.303086	-0.117943
C170	C	1.871608	0.030247	0.215390
C171	C	2.204941	0.363580	0.548724
H172	H	1.104907	-0.409243	-0.464291
H173	H	1.438241	-0.075909	-0.130958
H174	H	1.771574	0.257424	0.202376
F175	F	1.388418	-0.391572	-1.089297
F176	F	1.721751	-0.058239	-0.755963
F177	F	2.055084	0.275095	-0.422630
F178	F	1.114891	-0.270980	-0.717258
F179	F	1.448224	0.062354	-0.383925
F180	F	1.781557	0.395687	-0.050591
H181	H	0.972004	-0.331509	-0.333486
H182	H	1.305338	0.001825	-0.000153
H183	H	1.638671	0.335158	0.333181
F184	F	0.962708	-0.182393	-0.567922
F185	F	1.296042	0.150940	-0.234588
F186	F	1.629375	0.484274	0.098745
F187	F	1.397669	-0.935495	-0.653255
F188	F	1.731003	-0.602162	-0.319921
F189	F	2.064336	-0.268828	0.013412
F190	F	1.742611	-0.335514	-1.089432
F191	F	2.075944	-0.002180	-0.756099
F192	F	2.409277	0.331153	-0.422765
F193	F	1.678599	-0.534637	-0.372350
F194	F	2.011933	-0.201304	-0.039016
F195	F	2.345266	0.132030	0.294317
F196	F	1.678951	-1.071178	-0.372523
F197	F	2.012284	-0.737844	-0.039189
F198	F	2.345618	-0.404511	0.294144
H199	H	1.414784	-1.062982	-0.636291
H200	H	1.748118	-0.729648	-0.302958
H201	H	2.081451	-0.396315	0.030375
F202	F	1.678680	-0.670341	-0.372389
F203	F	2.012014	-0.337008	-0.039055
F204	F	2.345347	-0.003675	0.294278
F205	F	1.592815	-0.424056	-0.937282
F206	F	1.926148	-0.090722	-0.603949
F207	F	2.259481	0.242611	-0.270615
H208	H	1.414530	-0.662144	-0.636166
H209	H	1.747864	-0.328810	-0.302832
H210	H	2.081197	0.004523	0.030501
F211	F	1.397421	-0.534654	-0.653147
F212	F	1.730754	-0.201321	-0.319813
F213	F	2.064088	0.132013	0.013520
H214	H	1.661828	-0.943695	-0.389471
H215	H	1.995161	-0.610362	-0.056137
H216	H	2.328495	-0.277029	0.277196
H217	H	1.359006	-0.274754	-0.946806
H218	H	1.692339	0.058579	-0.613473
H219	H	2.025672	0.391912	-0.280139
F220	F	1.483447	-0.182138	-1.089177
F221	F	1.816780	0.151196	-0.755843
F222	F	2.150114	0.484529	-0.422510
H223	H	1.669526	-0.225458	-0.947124
H224	H	2.002859	0.107875	-0.613790
H225	H	2.336192	0.441209	-0.280457
F226	F	0.963007	-0.391992	-0.662236
F227	F	1.296340	-0.058658	-0.328903
F228	F	1.629673	0.274675	0.004431
H229	H	1.105040	-0.225567	-0.381741
H230	H	1.438374	0.107767	-0.048407
H231	H	1.771707	0.441100	0.284926
