data_functionalizedCrystal
_audit_creation_method	'MofGen! by Chris Wilmer'
_symmetry_space_group_name_H-M	'P1'
_symmetry_Int_Tables_number	1
_symmetry_cell_setting	triclinic
loop_
_symmetry_equiv_pos_as_xyz
  x,y,z
_cell_length_a	10.654550
_cell_length_b	8.559649
_cell_length_c	9.730223
_cell_angle_alpha	89.997407
_cell_angle_beta	89.999957
_cell_angle_gamma	77.131797
loop_
_atom_site_label
_atom_site_type_symbol
_atom_site_fract_x
_atom_site_fract_y
_atom_site_fract_z
O1	O	1.644681	0.224185	-0.114181
O2	O	1.276996	0.245543	-0.114206
O3	O	1.493232	0.002621	-0.114190
O4	O	1.428445	0.467107	-0.114197
O5	O	1.493220	0.002614	0.114390
O6	O	1.276985	0.245537	0.114374
O7	O	1.644669	0.224178	0.114398
Zn8	Zn	1.460825	0.234856	0.150678
Zn9	Zn	1.460841	0.234865	-0.150486
O10	O	1.428434	0.467100	0.114383
C11	C	1.230355	0.243972	0.000081
C12	C	1.091396	0.239280	0.000071
C13	C	0.997136	0.382309	0.000073
C14	C	0.866571	0.377890	0.000097
C15	C	0.924541	0.087402	0.000112
C16	C	1.055103	0.091822	0.000097
C17	C	1.498136	-0.056858	0.000097
C18	C	1.512750	-0.234076	0.000091
C19	C	1.691311	0.225750	0.000109
C20	C	1.830270	0.230442	0.000109
C21	C	1.423530	0.526579	0.000092
C22	C	1.408915	0.703797	0.000089
N23	N	1.460824	0.234849	0.356214
N24	N	1.460853	0.234860	-0.356022
C25	C	1.556598	0.127329	0.428147
C26	C	1.556610	0.127330	0.572030
C27	C	1.365070	0.342385	0.572035
C28	C	1.365053	0.342375	0.428154
H29	H	1.131856	-0.024657	0.000100
O30	O	1.261797	0.458375	0.649636
H31	H	1.195193	0.533134	0.575440
O32	O	1.659862	0.011337	0.350538
H33	H	1.755696	0.032804	0.378130
O34	O	1.276347	-0.187075	0.000086
H35	H	1.202587	-0.260455	0.000100
H36	H	1.612835	-0.316473	0.000109
O37	O	0.764909	0.532164	0.000095
H38	H	0.704060	0.537110	0.093278
H39	H	1.287057	0.429932	0.369583
O40	O	1.036288	0.541343	0.000073
H41	H	0.948803	0.640057	0.000096
O42	O	0.885399	-0.071639	0.000130
H43	H	0.778775	-0.050687	0.000127
O44	O	1.659921	0.011383	0.649621
H45	H	1.726517	-0.063370	0.575419
