data_functionalizedCrystal
_audit_creation_method	'MofGen! by Chris Wilmer'
_symmetry_space_group_name_H-M	'P1'
_symmetry_Int_Tables_number	1
_symmetry_cell_setting	triclinic
loop_
_symmetry_equiv_pos_as_xyz
  x,y,z
_cell_length_a	14.519731
_cell_length_b	14.519709
_cell_length_c	9.482900
_cell_angle_alpha	99.350820
_cell_angle_beta	80.692239
_cell_angle_gamma	83.684499
loop_
_atom_site_label
_atom_site_type_symbol
_atom_site_fract_x
_atom_site_fract_y
_atom_site_fract_z
O1	O	1.238206	0.106569	-0.120901
O2	O	1.488206	0.356569	0.129099
O3	O	1.738206	0.606569	0.379099
O4	O	1.988206	0.856569	0.629099
O5	O	0.969732	0.120785	-0.120904
O6	O	1.219732	0.370785	0.129096
O7	O	1.469732	0.620785	0.379096
O8	O	1.719732	0.870785	0.629096
O9	O	1.111086	-0.020559	-0.120889
O10	O	1.361086	0.229441	0.129111
O11	O	1.611086	0.479441	0.379111
O12	O	1.861086	0.729441	0.629111
O13	O	1.096852	0.247913	-0.120915
O14	O	1.346852	0.497913	0.129085
O15	O	1.596852	0.747913	0.379085
O16	O	1.846852	0.997913	0.629085
O17	O	1.082374	0.008266	0.120900
O18	O	1.332374	0.258266	0.370900
O19	O	1.582374	0.508266	0.620900
O20	O	1.832374	0.758266	0.870900
O21	O	0.941020	0.149610	0.120886
O22	O	1.191020	0.399610	0.370886
O23	O	1.441020	0.649610	0.620886
O24	O	1.691020	0.899610	0.870886
O25	O	1.209494	0.135395	0.120889
O26	O	1.459494	0.385395	0.370889
O27	O	1.709494	0.635395	0.620889
O28	O	1.959494	0.885395	0.870889
Cu29	Cu	1.072635	0.145135	0.142965
Cu30	Cu	1.322635	0.395135	0.392965
Cu31	Cu	1.572635	0.645135	0.642965
Cu32	Cu	1.822635	0.895135	0.892965
Cu33	Cu	1.106591	0.111045	-0.142980
Cu34	Cu	1.356591	0.361045	0.107020
Cu35	Cu	1.606591	0.611045	0.357020
Cu36	Cu	1.856591	0.861045	0.607020
O37	O	1.068140	0.276739	0.120874
O38	O	1.318140	0.526739	0.370874
O39	O	1.568140	0.776739	0.620874
O40	O	1.818140	1.026739	0.870874
C41	C	0.921017	0.134531	-0.000009
C42	C	1.171017	0.384531	0.249991
C43	C	1.421017	0.634531	0.499991
C44	C	1.671017	0.884531	0.749991
C45	C	0.818637	0.132535	-0.000010
C46	C	1.068637	0.382535	0.249990
C47	C	1.318637	0.632535	0.499990
C48	C	1.568637	0.882535	0.749990
C49	C	0.735493	0.130913	-0.000015
C50	C	0.985493	0.380913	0.249985
C51	C	1.235493	0.630913	0.499985
C52	C	1.485493	0.880913	0.749985
C53	C	0.631184	0.128886	-0.000016
C54	C	0.881184	0.378886	0.249984
C55	C	1.131184	0.628886	0.499984
C56	C	1.381184	0.878886	0.749984
C57	C	0.548045	0.127278	-0.000015
C58	C	0.798045	0.377278	0.249985
C59	C	1.048045	0.627278	0.499985
C60	C	1.298045	0.877278	0.749985
C61	C	0.443730	0.125251	-0.000018
C62	C	0.693730	0.375251	0.249982
C63	C	0.943730	0.625251	0.499982
C64	C	1.193730	0.875251	0.749982
C65	C	1.096066	-0.040506	0.000006
C66	C	1.346066	0.209494	0.250006
C67	C	1.596066	0.459494	0.500006
C68	C	1.846066	0.709494	0.750006
C69	C	1.094078	-0.142888	0.000007
C70	C	1.344078	0.107112	0.250007
C71	C	1.594078	0.357112	0.500007
C72	C	1.844078	0.607112	0.750007
C73	C	1.086763	-0.517789	-0.000031
C74	C	1.336763	-0.267789	0.249969
C75	C	1.586763	-0.017789	0.499969
C76	C	1.836763	0.232211	0.749969
C77	C	1.088794	-0.413479	-0.000020
C78	C	1.338794	-0.163479	0.249980
C79	C	1.588794	0.086521	0.499980
C80	C	1.838794	0.336521	0.749980
C81	C	1.090420	-0.330341	-0.000011
C82	C	1.340420	-0.080341	0.249989
C83	C	1.590420	0.169659	0.499989
C84	C	1.840420	0.419659	0.749989
C85	C	1.092452	-0.226026	-0.000003
C86	C	1.342452	0.023974	0.249997
C87	C	1.592452	0.273974	0.499997
C88	C	1.842452	0.523974	0.749997
C89	C	1.258210	0.121648	-0.000009
C90	C	1.508210	0.371648	0.249991
C91	C	1.758210	0.621648	0.499991
C92	C	2.008210	0.871648	0.749991
C93	C	1.360591	0.123643	-0.000018
C94	C	1.610591	0.373643	0.249982
C95	C	1.860591	0.623643	0.499982
C96	C	2.110591	0.873643	0.749982
C97	C	1.083160	0.296685	-0.000024
C98	C	1.333160	0.546685	0.249976
C99	C	1.583160	0.796685	0.499976
C100	C	1.833160	1.046685	0.749976
C101	C	1.085150	0.399066	-0.000034
C102	C	1.335150	0.649066	0.249966
C103	C	1.585150	0.899066	0.499966
C104	C	1.835150	1.149066	0.749966
N105	N	1.048760	0.169111	0.344082
N106	N	1.298760	0.419111	0.594082
N107	N	1.548760	0.669111	0.844082
N108	N	1.798760	0.919111	1.094082
N109	N	1.130473	0.087061	-0.344097
N110	N	1.380473	0.337061	-0.094097
N111	N	1.630473	0.587061	0.155903
N112	N	1.880473	0.837061	0.405903
C113	C	1.099542	0.118112	0.416287
C114	C	1.349542	0.368112	0.666287
C115	C	1.599542	0.618112	0.916287
C116	C	1.849542	0.868112	1.166287
C117	C	1.079684	0.138068	0.583702
C118	C	1.329684	0.388068	0.833702
C119	C	1.579684	0.638068	1.083702
C120	C	1.829684	0.888068	1.333702
H121	H	1.021499	0.196504	0.645821
H122	H	1.271499	0.446504	0.895821
H123	H	1.521499	0.696504	1.145821
H124	H	1.771499	0.946504	1.395821
C125	C	1.158605	-0.047113	0.369045
C126	C	1.408605	0.202887	0.619045
C127	C	1.658605	0.452887	0.869045
C128	C	1.908605	0.702887	1.119045
C129	C	1.178086	0.039239	0.332395
C130	C	1.428086	0.289239	0.582395
C131	C	1.678086	0.539239	0.832395
C132	C	1.928086	0.789239	1.082395
H133	H	1.207095	-0.095802	0.317237
H134	H	1.457095	0.154198	0.567237
H135	H	1.707095	0.404198	0.817237
H136	H	1.957095	0.654198	1.067237
H137	H	1.155587	-0.044070	0.470531
H138	H	1.405587	0.205930	0.720531
H139	H	1.655587	0.455930	0.970531
H140	H	1.905587	0.705930	1.220531
H141	H	1.099925	-0.060037	0.344199
H142	H	1.349925	0.189963	0.594199
H143	H	1.599925	0.439963	0.844199
H144	H	1.849925	0.689963	1.094199
H145	H	1.236763	0.052166	0.357251
H146	H	1.486763	0.302166	0.607251
H147	H	1.736763	0.552166	0.857251
H148	H	1.986763	0.802166	1.107251
H149	H	1.181114	0.036197	0.230887
H150	H	1.431114	0.286197	0.480887
H151	H	1.681114	0.536197	0.730887
H152	H	1.931114	0.786197	0.980887
H153	H	1.188652	0.028618	0.593784
H154	H	1.438652	0.278618	0.843784
H155	H	1.688652	0.528618	1.093784
H156	H	1.938652	0.778618	1.343784
C157	C	0.965752	0.252501	0.577552
C158	C	1.215752	0.502501	0.827552
C159	C	1.465752	0.752501	1.077552
C160	C	1.715752	1.002501	1.327552
C161	C	0.970220	0.248001	0.427934
C162	C	1.220220	0.498001	0.677934
C163	C	1.470220	0.748001	0.927934
C164	C	1.720220	0.998001	1.177934
H165	H	0.917267	0.301210	0.629313
H166	H	1.167267	0.551210	0.879313
H167	H	1.417267	0.801210	1.129313
H168	H	1.667267	1.051210	1.379313
H169	H	0.952524	0.193932	0.602424
H170	H	1.202524	0.443932	0.852424
H171	H	1.452524	0.693932	1.102424
H172	H	1.702524	0.943932	1.352424
H173	H	1.024432	0.265429	0.602390
H174	H	1.274432	0.515429	0.852390
H175	H	1.524432	0.765429	1.102390
H176	H	1.774432	1.015429	1.352390
H177	H	0.911542	0.235066	0.403094
H178	H	1.161542	0.485066	0.653094
H179	H	1.411542	0.735066	0.903094
H180	H	1.661542	0.985066	1.153094
H181	H	0.983442	0.306583	0.403053
H182	H	1.233442	0.556583	0.653053
H183	H	1.483442	0.806583	0.903053
H184	H	1.733442	1.056583	1.153053
