data_functionalizedCrystal
_audit_creation_method	'MofGen! by Chris Wilmer'
_symmetry_space_group_name_H-M	'P1'
_symmetry_Int_Tables_number	1
_symmetry_cell_setting	triclinic
loop_
_symmetry_equiv_pos_as_xyz
  x,y,z
_cell_length_a	15.944499
_cell_length_b	16.109301
_cell_length_c	14.586319
_cell_angle_alpha	90.005214
_cell_angle_beta	90.000966
_cell_angle_gamma	96.530455
loop_
_atom_site_label
_atom_site_type_symbol
_atom_site_fract_x
_atom_site_fract_y
_atom_site_fract_z
O1	O	1.114515	-0.107022	-0.076148
O2	O	0.869955	-0.120287	-0.076171
O3	O	0.998953	0.007375	-0.076150
O4	O	0.985516	-0.234685	-0.076170
O5	O	0.998944	0.007377	0.076331
O6	O	0.869946	-0.120286	0.076310
O7	O	1.114506	-0.107020	0.076333
Cu8	Cu	0.992225	-0.113653	0.090244
Cu9	Cu	0.992236	-0.113655	-0.090082
O10	O	0.985508	-0.234683	0.076311
C11	C	0.838656	-0.119743	0.000066
C12	C	0.745408	-0.118115	0.000058
C13	C	0.998404	0.038351	0.000091
C14	C	0.996772	0.130647	0.000092
C15	C	1.145805	-0.107565	0.000093
C16	C	1.239053	-0.109193	0.000096
C17	C	1.530613	-0.035024	0.000084
C18	C	1.469572	-0.073580	-0.075101
C19	C	1.574687	-0.115108	0.000069
C20	C	1.469585	-0.073599	0.075233
C21	C	1.409779	-0.112197	0.000084
C22	C	1.514874	-0.153686	-0.075178
C23	C	1.514893	-0.153694	0.075223
C24	C	1.453869	-0.192308	0.000020
C25	C	1.669687	-0.116782	0.000060
C26	C	1.314781	-0.110529	0.000086
C27	C	0.986056	-0.265659	0.000068
C28	C	0.987688	-0.357954	0.000061
N29	N	0.992224	-0.113651	0.217076
C30	C	1.069523	0.352909	0.000085
C31	C	1.067984	0.439629	0.000077
C32	C	0.914931	0.419776	0.000066
C33	C	0.916472	0.333058	0.000067
C34	C	0.993770	0.299626	0.000081
C35	C	0.990690	0.473066	0.000072
C36	C	0.989020	0.567092	0.000064
C37	C	0.995441	0.205594	0.000088
N38	N	0.992244	-0.113651	-0.216914
C39	C	1.049363	-0.057141	0.452092
C40	C	1.049365	-0.057139	0.548073
C41	C	0.935098	-0.170163	0.548063
C42	C	0.935092	-0.170161	0.452084
C43	C	0.992230	-0.113650	0.404100
C44	C	0.992238	-0.113651	0.596061
C45	C	0.992240	-0.113649	0.700128
C46	C	0.992226	-0.113651	0.300027
H47	H	1.563992	0.031427	-0.000002
C48	C	0.872276	-0.232367	0.399290
N49	N	0.824977	-0.279231	0.359526
H50	H	0.851998	0.447007	0.000057
H51	H	1.095886	-0.011125	0.413026
H52	H	1.449490	-0.039707	-0.138658
C53	C	1.442478	-0.027821	0.161103
N54	N	1.422065	0.006664	0.225776
H55	H	0.854781	0.289672	0.000062
H56	H	1.534841	-0.187533	-0.138811
H57	H	1.095888	-0.011122	0.587145
H58	H	0.888579	-0.216174	0.587141
H59	H	1.534997	-0.187539	0.138783
C60	C	1.154553	0.316138	0.000090
N61	N	1.218601	0.288444	0.000090
H62	H	1.129669	0.483009	0.000078
C63	C	1.409004	-0.282170	-0.000047
N64	N	1.375208	-0.349852	-0.000103
