data_functionalizedCrystal
_audit_creation_method	'MofGen! by Chris Wilmer'
_symmetry_space_group_name_H-M	'P1'
_symmetry_Int_Tables_number	1
_symmetry_cell_setting	triclinic
loop_
_symmetry_equiv_pos_as_xyz
  x,y,z
_cell_length_a	18.101395
_cell_length_b	12.827893
_cell_length_c	12.827885
_cell_angle_alpha	90.020999
_cell_angle_beta	89.967625
_cell_angle_gamma	89.970686
loop_
_atom_site_label
_atom_site_type_symbol
_atom_site_fract_x
_atom_site_fract_y
_atom_site_fract_z
Zn1	Zn	-0.294829	-1.597556	-0.590878
Zn2	Zn	0.205171	-1.097556	-0.090878
Zn3	Zn	-0.418688	-1.597402	-0.416130
Zn4	Zn	0.081312	-1.097402	0.083870
Zn5	Zn	-0.294861	-1.422797	-0.416146
Zn6	Zn	0.205139	-0.922797	0.083854
Zn7	Zn	-0.418629	-1.422734	-0.590825
Zn8	Zn	0.081371	-0.922734	-0.090825
O9	O	-0.356752	-1.510122	-0.503495
O10	O	0.143248	-1.010122	-0.003495
O11	O	-0.311270	-1.743771	-0.567713
O12	O	0.188730	-1.243771	-0.067713
O13	O	-0.402301	-1.574202	-0.269896
O14	O	0.097699	-1.074202	0.230104
O15	O	-0.191224	-1.446070	-0.439354
O16	O	0.308776	-0.946070	0.060646
O17	O	-0.402269	-1.743658	-0.439326
O18	O	0.097731	-1.243658	0.060674
O19	O	-0.191200	-1.574464	-0.567728
O20	O	0.308800	-1.074464	-0.067728
O21	O	-0.311325	-1.445920	-0.269908
O22	O	0.188675	-0.945920	0.230092
O23	O	-0.311268	-1.276553	-0.439302
O24	O	0.188732	-0.776553	0.060698
O25	O	-0.402169	-1.445963	-0.737068
O26	O	0.097831	-0.945963	-0.237068
O27	O	-0.402200	-1.276507	-0.567638
O28	O	0.097800	-0.776507	-0.067638
O29	O	-0.311213	-1.574403	-0.737107
O30	O	0.188787	-1.074403	-0.237107
O31	O	-0.522313	-1.574141	-0.439275
O32	O	-0.022313	-1.074141	0.060725
O33	O	-0.522270	-1.445814	-0.567623
O34	O	-0.022270	-0.945814	-0.067623
C35	C	-0.356732	-1.238612	-0.503467
C36	C	0.143268	-0.738612	-0.003467
C37	C	-0.356741	-1.122459	-0.503480
C38	C	0.143259	-0.622459	-0.003480
C39	C	-0.401815	-0.950635	-0.566896
C40	C	0.098185	-0.450635	-0.066896
C41	C	-0.401806	-1.070685	-0.566885
C42	C	0.098194	-0.570685	-0.066885
C43	C	-0.549163	-1.509982	-0.503464
C44	C	-0.049163	-1.009982	-0.003464
C45	C	-0.631477	-1.510018	-0.503486
C46	C	-0.131477	-1.010018	-0.003486
C47	C	-0.930568	-1.510247	-0.503542
C48	C	-0.430568	-1.010247	-0.003542
C49	C	-0.899246	-1.429695	-0.584495
C50	C	-0.399246	-0.929695	-0.084495
C51	C	-0.813628	-1.429312	-0.584242
C52	C	-0.313628	-0.929312	-0.084242
C53	C	-0.782185	-1.510134	-0.503515
C54	C	-0.282185	-1.010134	-0.003515
C55	C	-0.813343	-1.480314	-0.393380
C56	C	-0.313343	-0.980314	0.106620
C57	C	-0.898988	-1.479795	-0.393864
C58	C	-0.398988	-0.979795	0.106136
C59	C	-0.898912	-1.620796	-0.531755
C60	C	-0.398912	-1.120796	-0.031755
C61	C	-0.813261	-1.620146	-0.534170
C62	C	-0.313261	-1.120146	-0.034170
C63	C	-0.698326	-1.510071	-0.503493
C64	C	-0.198326	-1.010071	-0.003493
C65	C	-1.014427	-1.510307	-0.503557
C66	C	-0.514427	-1.010307	-0.003557
C67	C	-0.163590	-1.510291	-0.503549
C68	C	0.336410	-1.010291	-0.003549
C69	C	-0.081276	-1.510363	-0.503572
C70	C	0.418724	-1.010363	-0.003572
C71	C	-0.356681	-1.510193	-0.776065
C72	C	0.143319	-1.010193	-0.276065
C73	C	-0.356651	-1.510224	-0.892218
C74	C	0.143349	-1.010224	-0.392218
C75	C	-0.356767	-0.782692	-0.503515
C76	C	0.143233	-0.282692	-0.003515
C77	C	-0.356758	-0.898845	-0.503503
C78	C	0.143242	-0.398845	-0.003503
C79	C	-0.311634	-1.573787	-0.944022
C80	C	0.188366	-1.073787	-0.444022
C81	C	-0.311602	-1.573820	-1.064073
C82	C	0.188398	-1.073820	-0.564073
C83	C	-0.356769	-1.510111	-0.231985
C84	C	0.143231	-1.010111	0.268015
C85	C	-0.356591	-1.510284	-0.115832
C86	C	0.143409	-1.010284	0.384168
H87	H	-0.792559	-1.447969	-0.665906
H88	H	-0.292559	-0.947969	-0.165906
H89	H	-0.919789	-1.448166	-0.666424
H90	H	-0.419789	-0.948166	-0.166424
F91	F	-0.452255	-0.892426	-0.637836
F92	F	0.047745	-0.392426	-0.137836
F93	F	-0.406974	-1.439154	-1.057613
F94	F	0.093026	-0.939154	-0.557613
F95	F	-0.406992	-1.439118	-0.950411
F96	F	0.093008	-0.939118	-0.450411
H97	H	-0.792893	-1.642633	-0.615224
H98	H	-0.292893	-1.142633	-0.115224
F99	F	-0.452225	-1.128895	-0.637832
F100	F	0.047775	-0.628895	-0.137832
H101	H	-0.318161	-1.077928	-0.449207
H102	H	0.181839	-0.577928	0.050793
F103	F	-0.927473	-1.323245	-0.560395
F104	F	-0.427473	-0.823245	-0.060395
F105	F	-0.306331	-0.957054	-0.432544
F106	F	0.193669	-0.457054	0.067456
F107	F	-0.261229	-1.644957	-1.122299
F108	F	0.238771	-1.144957	-0.622299
H109	H	-0.793204	-1.347370	-0.565554
H110	H	-0.293204	-0.847370	-0.065554
H111	H	-0.919031	-1.398984	-0.369966
H112	H	-0.419031	-0.898984	0.130034
F113	F	-0.926076	-1.553146	-0.312333
F114	F	-0.426076	-1.053146	0.187667
F115	F	-0.786726	-1.554587	-0.312389
F116	F	-0.286726	-1.054587	0.187611
H117	H	-0.791958	-1.400359	-0.369053
H118	H	-0.291958	-0.900359	0.130947
F119	F	-0.925398	-1.699244	-0.454702
F120	F	-0.425398	-1.199244	0.045298
H121	H	-0.920456	-1.647982	-0.610697
H122	H	-0.420456	-1.147982	-0.110697
H123	H	-0.791853	-1.683337	-0.479506
H124	H	-0.291853	-1.183337	0.020494
F125	F	-0.261273	-1.644866	-0.885830
F126	F	0.238727	-1.144866	-0.385830
