data_functionalizedCrystal
_audit_creation_method	'MofGen! by Chris Wilmer'
_symmetry_space_group_name_H-M	'P1'
_symmetry_Int_Tables_number	1
_symmetry_cell_setting	triclinic
loop_
_symmetry_equiv_pos_as_xyz
  x,y,z
_cell_length_a	17.699077
_cell_length_b	17.699083
_cell_length_c	13.448316
_cell_angle_alpha	90.003125
_cell_angle_beta	90.007944
_cell_angle_gamma	83.281795
loop_
_atom_site_label
_atom_site_type_symbol
_atom_site_fract_x
_atom_site_fract_y
_atom_site_fract_z
O1	O	1.004083	0.095686	0.082681
O2	O	1.504083	0.595686	0.582681
O3	O	0.783704	0.108144	0.082686
O4	O	1.283704	0.608144	0.582686
O5	O	0.900120	-0.008274	0.082674
O6	O	1.400120	0.491726	0.582674
O7	O	0.887668	0.212104	0.082692
O8	O	1.387668	0.712104	0.582692
O9	O	0.900101	-0.008271	-0.082710
O10	O	1.400101	0.491729	0.417290
O11	O	0.783685	0.108147	-0.082698
O12	O	1.283685	0.608147	0.417302
O13	O	1.004064	0.095689	-0.082703
O14	O	1.504064	0.595689	0.417297
Cu15	Cu	0.893873	0.101918	-0.097801
Cu16	Cu	1.393873	0.601918	0.402199
Cu17	Cu	0.893896	0.101915	0.097784
Cu18	Cu	1.393896	0.601915	0.597784
O19	O	0.887648	0.212107	-0.082692
O20	O	1.387648	0.712107	0.417308
C21	C	0.755498	0.107700	-0.000006
C22	C	1.255498	0.607700	0.499994
C23	C	0.671479	0.106363	-0.000004
C24	C	1.171479	0.606363	0.499996
C25	C	0.899664	-0.036470	-0.000018
C26	C	1.399664	0.463530	0.499982
C27	C	0.898326	-0.120488	-0.000018
C28	C	1.398326	0.379512	0.499982
C29	C	0.632001	0.105734	-0.090156
C30	C	1.132001	0.605734	0.409844
C31	C	0.553059	0.104466	-0.090157
C32	C	1.053059	0.604466	0.409843
C33	C	0.513595	0.103832	-0.000005
C34	C	1.013595	0.603832	0.499995
C35	C	0.553079	0.104458	0.090154
C36	C	1.053079	0.604458	0.590154
C37	C	0.632021	0.105721	0.090154
C38	C	1.132021	0.605721	0.590154
C39	C	0.234715	0.099365	0.090155
C40	C	0.734715	0.599365	0.590155
C41	C	0.155768	0.098104	0.090148
C42	C	0.655768	0.598104	0.590148
C43	C	0.155754	0.098110	-0.090156
C44	C	0.655754	0.598110	0.409844
C45	C	0.234695	0.099373	-0.090155
C46	C	0.734695	0.599373	0.409845
C47	C	0.274173	0.099995	0.000003
C48	C	0.774173	0.599995	0.500003
C49	C	0.359772	0.101369	0.000003
C50	C	0.859772	0.601369	0.500003
C51	C	0.427997	0.102464	-0.000004
C52	C	0.927997	0.602464	0.499996
C53	C	0.966659	-0.169110	-0.000021
C54	C	1.466659	0.330890	0.499979
C55	C	0.965397	-0.248054	-0.000012
C56	C	1.465397	0.251946	0.499988
C57	C	0.895800	-0.278373	-0.000008
C58	C	1.395800	0.221627	0.499992
C59	C	0.827461	-0.229744	-0.000002
C60	C	1.327461	0.270256	0.499998
C61	C	0.828724	-0.150803	-0.000003
C62	C	1.328724	0.349197	0.499997
C63	C	0.822366	-0.548107	0.000007
C64	C	1.322366	-0.048107	0.500007
C65	C	0.821108	-0.627055	0.000005
C66	C	1.321108	-0.127055	0.500005
C67	C	0.959039	-0.645358	-0.000002
C68	C	1.459039	-0.145358	0.499998
C69	C	0.960302	-0.566417	-0.000004
C70	C	1.460302	-0.066417	0.499996
C71	C	0.891963	-0.517795	0.000007
C72	C	1.391963	-0.017795	0.500007
C73	C	0.893333	-0.432196	-0.000001
C74	C	1.393333	0.067804	0.499999
C75	C	0.894430	-0.363971	-0.000007
C76	C	1.394430	0.136029	0.499993
C77	C	1.032271	0.096133	-0.000010
C78	C	1.532271	0.596133	0.499990
C79	C	1.116289	0.097470	-0.000005
C80	C	1.616289	0.597470	0.499995
C81	C	0.888104	0.240303	0.000002
C82	C	1.388104	0.740303	0.500002
C83	C	0.889443	0.324321	0.000009
C84	C	1.389443	0.824321	0.500009
N85	N	0.893862	0.101920	-0.235366
N86	N	1.393862	0.601920	0.264634
C87	C	0.945469	0.050378	-0.712589
C88	C	1.445469	0.550378	-0.212589
C89	C	0.945462	0.050383	-0.608486
C90	C	1.445462	0.550383	-0.108486
C91	C	0.893896	0.101914	-0.556447
C92	C	1.393896	0.601914	-0.056447
C93	C	0.842337	0.153448	-0.608517
C94	C	1.342337	0.653448	-0.108517
C95	C	0.842347	0.153446	-0.712618
C96	C	1.342347	0.653446	-0.212618
C97	C	0.842317	0.153448	-0.391537
C98	C	1.342317	0.653448	0.108463
C99	C	0.842306	0.153449	-0.287428
C100	C	1.342306	0.653449	0.212572
C101	C	0.945432	0.050385	-0.287405
C102	C	1.445432	0.550385	0.212595
C103	C	0.945443	0.050382	-0.391506
C104	C	1.445443	0.550382	0.108494
C105	C	0.893883	0.101916	-0.443568
C106	C	1.393883	0.601916	0.056432
N107	N	0.893912	0.101907	0.235348
N108	N	1.393912	0.601907	0.735348
H109	H	0.520921	0.103942	-0.163568
H110	H	1.020921	0.603942	0.336432
H111	H	0.664162	0.106234	0.163565
H112	H	1.164162	0.606234	0.663565
C113	C	0.750114	-0.051402	-0.085015
C114	C	1.250114	0.448598	0.414985
C115	C	0.753611	-0.097352	-0.000001
C116	C	1.253611	0.402648	0.499999
H117	H	0.703742	-0.018402	-0.085004
H118	H	1.203742	0.481598	0.414996
H119	H	0.752475	-0.082579	-0.142678
H120	H	1.252475	0.417421	0.357322
H121	H	0.791748	-0.022052	-0.085007
H122	H	1.291748	0.477948	0.414993
H123	H	0.711980	-0.126706	-0.000013
H124	H	1.211980	0.373294	0.499987
H125	H	0.751242	-0.066171	0.057677
H126	H	1.251242	0.433829	0.557677
H127	H	0.266849	0.099869	0.163567
H128	H	0.766849	0.599869	0.663567
H129	H	0.800366	0.195407	-0.755006
H130	H	1.300366	0.695407	-0.255006
H131	H	0.987457	0.008412	-0.754953
H132	H	1.487457	0.508412	-0.254953
C133	C	1.047388	-0.051500	-0.618919
C134	C	1.547388	0.448500	-0.118919
C135	C	1.002131	-0.006264	-0.551259
C136	C	1.502131	0.493736	-0.051259
H137	H	1.082371	-0.086475	-0.583588
H138	H	1.582371	0.413525	-0.083588
H139	H	1.074556	-0.020031	-0.659510
H140	H	1.574556	0.479969	-0.159510
H141	H	1.015930	-0.078682	-0.659536
H142	H	1.515930	0.421318	-0.159536
H143	H	1.033589	0.020923	-0.510647
H144	H	1.533589	0.520923	-0.010647
H145	H	0.974961	-0.037736	-0.510652
H146	H	1.474961	0.462264	-0.010652
C147	C	0.740407	0.255327	-0.619004
C148	C	1.240407	0.755327	-0.119004
C149	C	0.785655	0.210096	-0.551319
C150	C	1.285655	0.710096	-0.051319
H151	H	0.705416	0.290301	-0.583692
H152	H	1.205416	0.790301	-0.083692
H153	H	0.713249	0.223855	-0.659617
H154	H	1.213249	0.723855	-0.159617
H155	H	0.771871	0.282510	-0.659596
H156	H	1.271871	0.782510	-0.159596
H157	H	0.754191	0.182908	-0.510732
H158	H	1.254191	0.682908	-0.010732
H159	H	0.812814	0.241572	-0.510689
H160	H	1.312814	0.741572	-0.010689
H161	H	1.021041	-0.287639	-0.000017
H162	H	1.521041	0.212361	0.499983
C163	C	0.685899	-0.537956	-0.000008
C164	C	1.185899	-0.037956	0.499992
C165	C	0.747249	-0.494669	-0.000000
C166	C	1.247249	0.005331	0.500000
H167	H	0.639524	-0.504961	-0.000021
H168	H	1.139524	-0.004961	0.499979
H169	H	0.688279	-0.569121	0.057664
H170	H	1.188279	-0.069121	0.557664
H171	H	0.688281	-0.569133	-0.057683
H172	H	1.188281	-0.069133	0.442317
H173	H	0.744870	-0.463496	0.057679
H174	H	1.244870	0.036504	0.557679
H175	H	0.744868	-0.463491	-0.057678
H176	H	1.244868	0.036509	0.442322
C177	C	1.023481	-0.453532	-0.000011
C178	C	1.523481	0.046468	0.499989
C179	C	1.036804	-0.533090	-0.000008
C180	C	1.536804	-0.033090	0.499992
H181	H	1.070712	-0.432960	-0.000016
H182	H	1.570712	0.067040	0.499984
H183	H	0.995361	-0.436837	0.057658
H184	H	1.495361	0.063163	0.557658
H185	H	0.995345	-0.436843	-0.057689
H186	H	1.495345	0.063157	0.442311
H187	H	1.064935	-0.549778	0.057674
H188	H	1.564935	-0.049778	0.557674
H189	H	1.064936	-0.549791	-0.057683
H190	H	1.564936	-0.049791	0.442317
H191	H	0.664126	0.106257	-0.163568
H192	H	1.164126	0.606257	0.336432
H193	H	1.023333	-0.144431	-0.000031
H194	H	1.523333	0.355569	0.499969
H195	H	0.123639	0.097587	0.163565
H196	H	0.623639	0.597587	0.663565
C197	C	0.226751	0.099243	-0.268385
C198	C	0.726751	0.599243	0.231615
C199	C	0.278073	0.100067	-0.189253
C200	C	0.778073	0.600067	0.310747
H201	H	0.253533	0.099664	-0.329563
H202	H	0.753533	0.599664	0.170437
H203	H	0.190109	0.142868	-0.264636
H204	H	0.690109	0.642868	0.235364
H205	H	0.201815	0.054629	-0.264629
H206	H	0.701815	0.554629	0.235371
H207	H	0.303006	0.144683	-0.193005
H208	H	0.803006	0.644683	0.306995
H209	H	0.314729	0.056437	-0.193003
H210	H	0.814729	0.556437	0.306997
C211	C	0.990003	-0.080739	-0.255705
C212	C	1.490003	0.419261	0.244295
C213	C	1.002109	-0.006371	-0.230345
C214	C	1.502109	0.493629	0.269655
H215	H	1.024986	-0.115809	-0.220519
H216	H	1.524986	0.384191	0.279481
H217	H	0.997309	-0.087997	-0.325174
H218	H	1.497309	0.412003	0.174826
H219	H	0.939505	-0.088850	-0.238604
H220	H	1.439505	0.411150	0.261396
H221	H	1.052605	0.001742	-0.247453
H222	H	1.552605	0.501742	0.252547
H223	H	0.994809	0.000890	-0.160861
H224	H	1.494809	0.500890	0.339139
H225	H	0.987429	0.008419	-0.433876
H226	H	1.487429	0.508419	0.066124
H227	H	1.014683	-0.684956	-0.000006
H228	H	1.514683	-0.184956	0.499994
H229	H	0.770794	-0.254436	0.000008
H230	H	1.270794	0.245564	0.500008
H231	H	0.800315	0.195412	-0.245063
H232	H	1.300315	0.695412	0.254937
C233	C	0.739689	-0.705219	0.085036
C234	C	1.239689	-0.205219	0.585036
C235	C	0.744603	-0.660386	0.000020
C236	C	1.244603	-0.160386	0.500020
H237	H	0.692463	-0.725800	0.085039
H238	H	1.192463	-0.225800	0.585039
H239	H	0.743055	-0.674802	0.142698
H240	H	1.243055	-0.174802	0.642698
H241	H	0.780213	-0.745470	0.085016
H242	H	1.280213	-0.245470	0.585016
H243	H	0.704082	-0.620131	0.000044
H244	H	1.204082	-0.120131	0.500044
H245	H	0.741230	-0.690805	-0.057657
H246	H	1.241230	-0.190805	0.442343
H247	H	0.123602	0.097600	-0.163567
H248	H	0.623602	0.597600	0.336433
H249	H	0.520942	0.103936	0.163557
H250	H	1.020942	0.603936	0.663557
H251	H	0.800334	0.195415	-0.433923
H252	H	1.300334	0.695415	0.066077
