data_functionalizedCrystal
_audit_creation_method	'MofGen! by Chris Wilmer'
_symmetry_space_group_name_H-M	'P1'
_symmetry_Int_Tables_number	1
_symmetry_cell_setting	triclinic
loop_
_symmetry_equiv_pos_as_xyz
  x,y,z
_cell_length_a	25.639242
_cell_length_b	29.839131
_cell_length_c	29.839125
_cell_angle_alpha	89.982291
_cell_angle_beta	89.978980
_cell_angle_gamma	90.036947
loop_
_atom_site_label
_atom_site_type_symbol
_atom_site_fract_x
_atom_site_fract_y
_atom_site_fract_z
Zn1	Zn	0.799209	-0.178970	-0.254114
Zn2	Zn	1.299209	0.321030	0.245886
Zn3	Zn	0.799130	-0.254082	-0.178983
Zn4	Zn	1.299130	0.245918	0.321017
Zn5	Zn	0.711787	-0.178961	-0.178984
Zn6	Zn	1.211787	0.321039	0.321016
Zn7	Zn	0.711726	-0.254068	-0.254073
Zn8	Zn	1.211726	0.245932	0.245927
O9	O	0.755463	-0.216520	-0.216539
O10	O	1.255463	0.283480	0.283461
O11	O	0.872364	-0.188943	-0.244164
O12	O	1.372364	0.311057	0.255836
O13	O	0.787536	-0.244119	-0.116116
O14	O	1.287536	0.255881	0.383884
O15	O	0.723442	-0.116095	-0.188968
O16	O	1.223442	0.383905	0.311032
O17	O	0.872306	-0.244128	-0.188966
O18	O	1.372306	0.255872	0.311034
O19	O	0.787671	-0.116102	-0.244165
O20	O	1.287671	0.383898	0.255835
O21	O	0.723366	-0.188928	-0.116117
O22	O	1.223366	0.311072	0.383883
O23	O	0.638614	-0.188914	-0.188928
O24	O	1.138614	0.311086	0.311072
O25	O	0.723339	-0.244104	-0.316946
O26	O	1.223339	0.255896	0.183054
O27	O	0.638569	-0.244095	-0.244096
O28	O	1.138569	0.255905	0.255904
O29	O	0.787612	-0.188930	-0.316975
O30	O	1.287612	0.311070	0.183025
O31	O	0.787477	-0.316947	-0.188927
O32	O	1.287477	0.183053	0.311073
O33	O	0.723262	-0.316937	-0.244095
O34	O	1.223262	0.183063	0.255905
C35	C	0.619621	-0.216502	-0.216508
C36	C	1.119621	0.283498	0.283492
C37	C	0.561507	-0.216506	-0.216506
C38	C	1.061507	0.283494	0.283494
C39	C	0.755369	-0.333243	-0.216516
C40	C	1.255369	0.166757	0.283484
C41	C	0.755376	-0.383177	-0.216522
C42	C	1.255376	0.116823	0.283478
C43	C	0.201129	-0.245301	-0.245237
C44	C	0.701129	0.254699	0.254763
C45	C	0.146525	-0.245303	-0.245244
C46	C	0.646525	0.254697	0.254756
O47	O	0.118276	-0.269764	-0.269647
O48	O	0.618276	0.230236	0.230353
N49	N	0.119224	-0.216533	-0.216568
N50	N	0.619224	0.283467	0.283432
C51	C	0.146531	-0.187754	-0.187886
C52	C	0.646531	0.312246	0.312114
O53	O	0.118295	-0.163282	-0.163496
O54	O	0.618295	0.336718	0.336504
C55	C	0.201134	-0.187749	-0.187881
C56	C	0.701134	0.312251	0.312119
C57	C	0.228432	-0.216525	-0.216556
C58	C	0.728432	0.283475	0.283444
C59	C	0.228427	-0.274074	-0.273910
C60	C	0.728427	0.225926	0.226090
C61	C	0.283028	-0.274072	-0.273902
C62	C	0.783028	0.225928	0.226098
C63	C	0.310330	-0.245296	-0.245221
C64	C	0.810330	0.254704	0.254779
C65	C	0.283032	-0.216523	-0.216549
C66	C	0.783032	0.283477	0.283451
C67	C	0.228439	-0.158968	-0.159202
C68	C	0.728439	0.341032	0.340798
C69	C	0.283046	-0.158966	-0.159200
C70	C	0.783046	0.341034	0.340800
C71	C	0.310344	-0.187742	-0.187875
C72	C	0.810344	0.312258	0.312125
C73	C	0.364936	-0.187745	-0.187860
C74	C	0.864936	0.312255	0.312140
N75	N	0.392236	-0.216516	-0.216536
N76	N	0.892236	0.283484	0.283464
C77	C	0.364934	-0.245292	-0.245217
C78	C	0.864934	0.254708	0.254783
C79	C	0.031860	-0.187765	-0.187898
C80	C	0.531860	0.312235	0.312102
C81	C	-0.022742	-0.187772	-0.187900
C82	C	0.477258	0.312228	0.312100
C83	C	-0.022744	-0.245321	-0.245259
C84	C	0.477256	0.254679	0.254741
C85	C	0.031859	-0.245316	-0.245254
C86	C	0.531859	0.254684	0.254746
C87	C	0.059161	-0.216536	-0.216574
C88	C	0.559161	0.283464	0.283426
C89	C	0.479599	-0.245285	-0.245198
C90	C	0.979599	0.254715	0.254802
C91	C	0.534204	-0.245281	-0.245186
C92	C	1.034204	0.254719	0.254814
C93	C	0.534201	-0.187731	-0.187829
C94	C	1.034201	0.312269	0.312171
C95	C	0.479601	-0.187736	-0.187839
C96	C	0.979601	0.312264	0.312161
C97	C	0.452301	-0.216514	-0.216527
C98	C	0.952301	0.283486	0.283473
O99	O	0.393219	-0.163296	-0.163471
O100	O	0.893219	0.336704	0.336529
O101	O	0.393176	-0.269755	-0.269607
O102	O	0.893176	0.230245	0.230393
C103	C	0.788961	-0.692813	-0.187855
C104	C	1.288961	-0.192813	0.312145
C105	C	0.789025	-0.880486	-0.187872
C106	C	1.289025	-0.380486	0.312128
O107	O	0.817505	-0.904745	-0.163481
O108	O	1.317505	-0.404745	0.336519
N109	N	0.755572	-0.903962	-0.216572
N110	N	1.255572	-0.403962	0.283428
C111	C	0.722102	-0.880517	-0.245273
C112	C	1.222102	-0.380517	0.254727
O113	O	0.693653	-0.904791	-0.269688
O114	O	1.193653	-0.404791	0.230312
C115	C	0.722040	-0.692845	-0.245257
C116	C	1.222040	-0.192845	0.254743
C117	C	0.755493	-0.669371	-0.216552
C118	C	1.255493	-0.169371	0.283448
C119	C	0.822411	-0.669340	-0.159152
C120	C	1.322411	-0.169340	0.340848
C121	C	0.822392	-0.622424	-0.159146
C122	C	1.322392	-0.122424	0.340854
C123	C	0.788924	-0.598982	-0.187843
C124	C	1.288924	-0.098982	0.312157
C125	C	0.755474	-0.622456	-0.216546
C126	C	1.255474	-0.122456	0.283454
C127	C	0.688573	-0.669400	-0.273959
C128	C	1.188573	-0.169400	0.226041
C129	C	0.688562	-0.622479	-0.273954
C130	C	1.188562	-0.122479	0.226046
C131	C	0.722014	-0.599006	-0.245248
C132	C	1.222014	-0.099006	0.254752
C133	C	0.721987	-0.552098	-0.245237
C134	C	1.221987	-0.052098	0.254763
N135	N	0.755441	-0.528623	-0.216537
N136	N	1.255441	-0.028623	0.283463
C137	C	0.788909	-0.552065	-0.187840
C138	C	1.288909	-0.052065	0.312160
C139	C	0.722136	-0.979047	-0.245278
C140	C	1.222136	-0.479047	0.254722
C141	C	0.722150	-1.025965	-0.245282
C142	C	1.222150	-0.525965	0.254718
C143	C	0.789075	-1.025932	-0.187881
C144	C	1.289075	-0.525932	0.312119
C145	C	0.789057	-0.979013	-0.187876
C146	C	1.289057	-0.479013	0.312124
C147	C	0.755590	-0.955572	-0.216578
C148	C	1.255590	-0.455572	0.283422
C149	C	0.788868	-0.453539	-0.187829
C150	C	1.288868	0.046461	0.312171
C151	C	0.788845	-0.406619	-0.187825
C152	C	1.288845	0.093381	0.312175
C153	C	0.721922	-0.406657	-0.245226
C154	C	1.221922	0.093343	0.254774
C155	C	0.721943	-0.453573	-0.245230
C156	C	1.221943	0.046427	0.254770
C157	C	0.755420	-0.477012	-0.216529
C158	C	1.255420	0.022988	0.283471
O159	O	0.693526	-0.527811	-0.269619
O160	O	1.193526	-0.027811	0.230381
O161	O	0.817362	-0.527783	-0.163435
O162	O	1.317362	-0.027783	0.336565
C163	C	0.788979	-0.739729	-0.187860
C164	C	1.288979	-0.239729	0.312140
C165	C	0.755529	-0.763202	-0.216563
C166	C	1.255529	-0.263202	0.283437
C167	C	0.722061	-0.739760	-0.245260
C168	C	1.222061	-0.239760	0.254740
C169	C	0.755544	-0.810120	-0.216567
C170	C	1.255544	-0.310120	0.283433
C171	C	0.789012	-0.833562	-0.187870
C172	C	1.289012	-0.333562	0.312130
C173	C	0.822466	-0.810086	-0.159169
C174	C	1.322466	-0.310086	0.340831
C175	C	0.822448	-0.763171	-0.159163
C176	C	1.322448	-0.263171	0.340837
C177	C	0.688607	-0.763236	-0.273961
C178	C	1.188607	-0.263236	0.226039
C179	C	0.688628	-0.810151	-0.273964
C180	C	1.188628	-0.310151	0.226036
C181	C	0.722097	-0.833594	-0.245267
C182	C	1.222097	-0.333594	0.254733
C183	C	0.891836	-0.216538	-0.216569
C184	C	1.391836	0.283462	0.283431
C185	C	0.949950	-0.216546	-0.216583
C186	C	1.449950	0.283454	0.283417
C187	C	0.755477	-0.216516	-0.333717
C188	C	1.255477	0.283484	0.166283
C189	C	0.755483	-0.216514	-0.383651
C190	C	1.255483	0.283486	0.116349
C191	C	0.755572	-0.099342	-0.216571
C192	C	1.255572	0.400658	0.283429
C193	C	0.755619	-0.049407	-0.216585
C194	C	1.255619	0.450593	0.283415
C195	C	0.788986	-0.187710	-0.693313
C196	C	1.288986	0.312290	-0.193313
C197	C	0.789012	-0.187672	-0.880987
C198	C	1.289012	0.312328	-0.380987
O199	O	0.817458	-0.163224	-0.905267
O200	O	1.317458	0.336776	-0.405267
N201	N	0.755553	-0.216394	-0.904437
N202	N	1.255553	0.283606	-0.404437
C203	C	0.722083	-0.245126	-0.880966
C204	C	1.222083	0.254874	-0.380966
O205	O	0.693621	-0.269552	-0.905218
O206	O	1.193621	0.230448	-0.405218
C207	C	0.722054	-0.245162	-0.693293
C208	C	1.222054	0.254838	-0.193293
C209	C	0.755519	-0.216441	-0.669846
C210	C	1.255519	0.283559	-0.169846
C211	C	0.822447	-0.158991	-0.669866
C212	C	1.322447	0.341009	-0.169866
C213	C	0.822443	-0.159003	-0.622950
C214	C	1.322443	0.340997	-0.122950
C215	C	0.788976	-0.187733	-0.599482
C216	C	1.288976	0.312267	-0.099482
C217	C	0.755514	-0.216452	-0.622930
C218	C	1.255514	0.283548	-0.122930
C219	C	0.688582	-0.273891	-0.669823
C220	C	1.188582	0.226109	-0.169823
C221	C	0.688577	-0.273897	-0.622902
C222	C	1.188577	0.226103	-0.122902
C223	C	0.722042	-0.245176	-0.599455
C224	C	1.222042	0.254824	-0.099455
C225	C	0.722043	-0.245194	-0.552547
C226	C	1.222043	0.254806	-0.052547
N227	N	0.755502	-0.216472	-0.529097
N228	N	1.255502	0.283528	-0.029097
C229	C	0.788968	-0.187741	-0.552565
C230	C	1.288968	0.312259	-0.052565
C231	C	0.722101	-0.245106	-0.979496
C232	C	1.222101	0.254894	-0.479496
C233	C	0.722108	-0.245098	-1.026414
C234	C	1.222108	0.254902	-0.526414
C235	C	0.789037	-0.187643	-1.026432
C236	C	1.289037	0.312357	-0.526432
C237	C	0.789031	-0.187653	-0.979513
C238	C	1.289031	0.312347	-0.479513
C239	C	0.755559	-0.216383	-0.956046
C240	C	1.255559	0.283617	-0.456046
C241	C	0.788956	-0.187768	-0.454039
C242	C	1.288956	0.312232	0.045961
C243	C	0.788950	-0.187784	-0.407119
C244	C	1.288950	0.312216	0.092881
C245	C	0.722020	-0.245237	-0.407106
C246	C	1.222020	0.254763	0.092894
C247	C	0.722028	-0.245223	-0.454021
C248	C	1.222028	0.254777	0.045979
C249	C	0.755498	-0.216485	-0.477487
C250	C	1.255498	0.283515	0.022513
O251	O	0.693608	-0.269626	-0.528238
O252	O	1.193608	0.230374	-0.028238
O253	O	0.817418	-0.163312	-0.528304
O254	O	1.317418	0.336688	-0.028304
C255	C	0.788991	-0.187698	-0.740229
C256	C	1.288991	0.312302	-0.240229
C257	C	0.755529	-0.216417	-0.763677
C258	C	1.255529	0.283583	-0.263677
C259	C	0.722062	-0.245148	-0.740209
C260	C	1.222062	0.254852	-0.240209
C261	C	0.755536	-0.216409	-0.810595
C262	C	1.255536	0.283591	-0.310595
C263	C	0.789003	-0.187679	-0.834062
C264	C	1.289003	0.312321	-0.334062
C265	C	0.822462	-0.158956	-0.810612
C266	C	1.322462	0.341044	-0.310612
C267	C	0.822457	-0.158968	-0.763697
C268	C	1.322457	0.341032	-0.263697
C269	C	0.688604	-0.273870	-0.763659
C270	C	1.188604	0.226130	-0.263659
C271	C	0.688612	-0.273857	-0.810575
C272	C	1.188612	0.226143	-0.310575
C273	C	0.722078	-0.245126	-0.834042
C274	C	1.222078	0.254874	-0.334042
C275	C	0.755479	-0.216492	-0.099816
C276	C	1.255479	0.283508	0.400184
C277	C	0.755575	-0.216367	-0.049882
C278	C	1.255575	0.283633	0.450118
H279	H	0.556428	-0.268716	-0.268537
H280	H	1.056428	0.231284	0.231463
H281	H	0.556441	-0.164304	-0.164477
H282	H	1.056441	0.335696	0.335523
H283	H	-0.044964	-0.164344	-0.164546
H284	H	0.455036	0.335656	0.335454
H285	H	0.694671	-0.387563	-0.268590
H286	H	1.194671	0.112437	0.231410
H287	H	0.816085	-0.387509	-0.164448
H288	H	1.316085	0.112491	0.335552
H289	H	0.206203	-0.297507	-0.297268
H290	H	0.706203	0.202493	0.202732
C291	C	0.651786	-0.305479	-0.737853
C292	C	1.151786	0.194521	-0.237853
C293	C	0.592354	-0.301804	-0.744301
C294	C	1.092354	0.198196	-0.244301
C295	C	0.555535	-0.333417	-0.718499
C296	C	1.055535	0.166583	-0.218499
C297	C	0.578147	-0.368704	-0.686250
C298	C	1.078147	0.131296	-0.186250
C299	C	0.637582	-0.372380	-0.679801
C300	C	1.137582	0.127620	-0.179801
C301	C	0.674402	-0.340768	-0.705603
C302	C	1.174402	0.159232	-0.205603
H303	H	0.575612	-0.275681	-0.768175
H304	H	1.075612	0.224319	-0.268175
H305	H	0.511537	-0.330695	-0.723273
H306	H	1.011537	0.169305	-0.223273
H307	H	0.550891	-0.392106	-0.667150
H308	H	1.050891	0.107894	-0.167150
H309	H	0.654324	-0.398504	-0.655927
H310	H	1.154324	0.101496	-0.155927
H311	H	0.718400	-0.343489	-0.700829
H312	H	1.218400	0.156511	-0.200829
C313	C	0.313076	-0.127307	-0.127649
C314	C	0.813076	0.372693	0.372351
C315	C	0.350580	-0.146714	-0.092335
C316	C	0.850580	0.353286	0.407665
C317	C	0.380608	-0.115056	-0.060784
C318	C	0.880608	0.384944	0.439216
C319	C	0.373133	-0.063991	-0.064547
C320	C	0.873133	0.436009	0.435453
C321	C	0.335628	-0.044581	-0.099862
C322	C	0.835628	0.455419	0.400138
C323	C	0.305599	-0.076239	-0.131414
C324	C	0.805599	0.423761	0.368586
H325	H	0.356115	-0.184517	-0.089549
H326	H	0.856115	0.315483	0.410451
H327	H	0.408372	-0.129424	-0.034641
H328	H	0.908372	0.370576	0.465359
H329	H	0.395361	-0.040556	-0.041191
H330	H	0.895361	0.459444	0.458809
H331	H	0.330092	-0.006777	-0.102649
H332	H	0.830092	0.493223	0.397351
H333	H	0.277836	-0.061871	-0.157557
H334	H	0.777836	0.438129	0.342443
C335	C	0.825688	-0.479318	-0.156257
C336	C	1.325688	0.020682	0.343743
C337	C	0.821454	-0.472886	-0.105182
C338	C	1.321454	0.027114	0.394818
C339	C	0.858271	-0.498666	-0.073607
C340	C	1.358271	0.001334	0.426393
C341	C	0.899322	-0.530877	-0.093107
C342	C	1.399322	-0.030877	0.406893
C343	C	0.903558	-0.537310	-0.144185
C344	C	1.403558	-0.037310	0.355815
C345	C	0.866741	-0.511531	-0.175760
C346	C	1.366741	-0.011531	0.324240
H347	H	0.791064	-0.449040	-0.090744
H348	H	1.291064	0.050960	0.409256
H349	H	0.855135	-0.493903	-0.035796
H350	H	1.355135	0.006097	0.464204
H351	H	0.926576	-0.549960	-0.069733
H352	H	1.426576	-0.049960	0.430267
H353	H	0.933948	-0.561156	-0.158622
H354	H	1.433948	-0.061156	0.341378
H355	H	0.869877	-0.516293	-0.213571
H356	H	1.369877	-0.016293	0.286429
H357	H	0.816326	-1.045026	-0.164515
H358	H	1.316326	-0.545026	0.335485
C359	C	0.859229	-0.695120	-0.127580
C360	C	1.359229	-0.195120	0.372420
C361	C	0.854997	-0.688683	-0.076506
C362	C	1.354997	-0.188683	0.423494
C363	C	0.891815	-0.714459	-0.044929
C364	C	1.391815	-0.214459	0.455071
C365	C	0.932865	-0.746672	-0.064427
C366	C	1.432865	-0.246672	0.435573
C367	C	0.937100	-0.753111	-0.115504
C368	C	1.437100	-0.253111	0.384496
C369	C	0.900282	-0.727335	-0.147081
C370	C	1.400282	-0.227335	0.352919
H371	H	0.824607	-0.664836	-0.062070
H372	H	1.324607	-0.164836	0.437930
H373	H	0.888680	-0.709692	-0.007118
H374	H	1.388680	-0.209692	0.492882
H375	H	0.960120	-0.765753	-0.041052
H376	H	1.460120	-0.265753	0.458948
H377	H	0.967489	-0.776958	-0.129940
H378	H	1.467489	-0.276958	0.370060
H379	H	0.903416	-0.732101	-0.184891
H380	H	1.403416	-0.232101	0.315109
C381	C	0.685348	-1.051783	-0.276855
C382	C	1.185348	-0.551783	0.223145
C383	C	0.648538	-1.025991	-0.308421
C384	C	1.148538	-0.525991	0.191579
C385	C	0.611737	-1.051806	-0.339998
C386	C	1.111737	-0.551806	0.160002
C387	C	0.611747	-1.103414	-0.340008
C388	C	1.111747	-0.603414	0.159992
C389	C	0.648558	-1.129209	-0.308440
C390	C	1.148558	-0.629209	0.191560
C391	C	0.685359	-1.103394	-0.276864
C392	C	1.185359	-0.603394	0.223136
H393	H	0.648530	-0.987785	-0.308415
H394	H	1.148530	-0.487785	0.191585
H395	H	0.584487	-1.032711	-0.363366
H396	H	1.084487	-0.532711	0.136634
H397	H	0.584504	-1.122525	-0.363383
H398	H	1.084504	-0.622525	0.136617
H399	H	0.648567	-1.167415	-0.308446
H400	H	1.148567	-0.667415	0.191554
H401	H	0.712610	-1.122489	-0.253495
H402	H	1.212610	-0.622489	0.246505
C403	C	0.825858	-0.953194	-0.156303
C404	C	1.325858	-0.453194	0.343697
C405	C	0.821636	-0.959670	-0.105228
C406	C	1.321636	-0.459670	0.394772
C407	C	0.858440	-0.933854	-0.073654
C408	C	1.358440	-0.433854	0.426346
C409	C	0.899466	-0.901562	-0.093155
C410	C	1.399466	-0.401562	0.406845
C411	C	0.903689	-0.895084	-0.144233
C412	C	1.403689	-0.395084	0.355767
C413	C	0.866885	-0.920900	-0.175807
C414	C	1.366885	-0.420900	0.324193
H415	H	0.791265	-0.983576	-0.090790
H416	H	1.291265	-0.483576	0.409210
H417	H	0.855313	-0.938650	-0.035843
H418	H	1.355313	-0.438650	0.464157
H419	H	0.926710	-0.882452	-0.069783
H420	H	1.426710	-0.382452	0.430217
H421	H	0.934060	-0.871178	-0.158671
H422	H	1.434060	-0.371178	0.341329
H423	H	0.870012	-0.916105	-0.213617
H424	H	1.370012	-0.416105	0.286383
H425	H	0.054081	-0.268748	-0.268605
H426	H	0.554081	0.231252	0.231395
C427	C	0.449574	-0.276943	-0.276752
C428	C	0.949574	0.223057	0.223248
C429	C	0.457051	-0.328008	-0.272986
C430	C	0.957051	0.171992	0.227014
C431	C	0.427027	-0.359669	-0.304537
C432	C	0.927027	0.140331	0.195463
C433	C	0.389524	-0.340265	-0.339854
C434	C	0.889524	0.159735	0.160146
C435	C	0.382045	-0.289198	-0.343621
C436	C	0.882045	0.210802	0.156379
C437	C	0.412070	-0.257537	-0.312070
C438	C	0.912070	0.242463	0.187930
H439	H	0.484814	-0.342374	-0.246841
H440	H	0.984814	0.157626	0.253159
H441	H	0.432563	-0.397472	-0.301748
H442	H	0.932563	0.102528	0.198252
H443	H	0.367298	-0.363702	-0.363209
H444	H	0.867298	0.136298	0.136791
H445	H	0.354282	-0.274832	-0.369766
H446	H	0.854282	0.225168	0.130234
H447	H	0.406533	-0.219734	-0.314859
H448	H	0.906533	0.280266	0.185141
C449	C	0.685220	-0.276824	-0.479810
C450	C	1.185220	0.223176	0.020190
C451	C	0.644184	-0.257353	-0.512053
C452	C	1.144184	0.242647	-0.012053
C453	C	0.607373	-0.288954	-0.537834
C454	C	1.107373	0.211046	-0.037834
C455	C	0.611597	-0.340026	-0.531372
C456	C	1.111597	0.159974	-0.031372
C457	C	0.652635	-0.359500	-0.499128
C458	C	1.152635	0.140500	0.000872
C459	C	0.689447	-0.327899	-0.473347
C460	C	1.189447	0.172101	0.026653
H461	H	0.641056	-0.219544	-0.516837
H462	H	1.141056	0.280456	-0.016837
H463	H	0.576994	-0.274538	-0.561704
H464	H	1.076994	0.225462	-0.061704
H465	H	0.584347	-0.363419	-0.550457
H466	H	1.084347	0.136581	-0.050457
H467	H	0.655763	-0.397310	-0.494343
H468	H	1.155763	0.102690	0.005657
H469	H	0.719825	-0.342316	-0.449477
H470	H	1.219825	0.157684	0.050523
H471	H	0.661331	-0.297279	-0.688907
H472	H	1.161331	0.202721	-0.188907
H473	H	0.661331	-0.688504	-0.297332
H474	H	1.161331	-0.188504	0.202668
C475	C	-0.052784	-0.276973	-0.276811
C476	C	0.447216	0.223027	0.223189
C477	C	-0.112845	-0.276972	-0.276816
C478	C	0.387155	0.223028	0.223184
C479	C	-0.142886	-0.308623	-0.308366
C480	C	0.357114	0.191377	0.191634
C481	C	-0.112866	-0.340274	-0.339911
C482	C	0.387134	0.159726	0.160089
C483	C	-0.052801	-0.340276	-0.339907
C484	C	0.447199	0.159724	0.160093
C485	C	-0.022760	-0.308626	-0.308358
C486	C	0.477240	0.191374	0.191642
H487	H	-0.135071	-0.253541	-0.253463
H488	H	0.364929	0.246459	0.246537
H489	H	-0.187351	-0.308621	-0.308368
H490	H	0.312649	0.191379	0.191632
H491	H	-0.135104	-0.363704	-0.363266
H492	H	0.364896	0.136296	0.136734
H493	H	-0.030575	-0.363708	-0.363260
H494	H	0.469425	0.136292	0.136740
H495	H	0.021704	-0.308627	-0.308355
H496	H	0.521704	0.191373	0.191645
H497	H	0.661309	-0.603396	-0.297328
H498	H	1.161309	-0.103396	0.202672
H499	H	0.849707	-0.135580	-0.744610
H500	H	1.349707	0.364420	-0.244610
H501	H	0.054086	-0.164329	-0.164540
H502	H	0.554086	0.335671	0.335460
H503	H	0.849633	-0.603315	-0.135773
H504	H	1.349633	-0.103315	0.364227
C505	C	0.651827	-0.835968	-0.305543
C506	C	1.151827	-0.335968	0.194457
C507	C	0.592390	-0.829566	-0.301827
C508	C	1.092390	-0.329566	0.198173
C509	C	0.555594	-0.855380	-0.333408
C510	C	1.055594	-0.355380	0.166592
C511	C	0.578235	-0.887598	-0.368706
C512	C	1.078235	-0.387598	0.131294
C513	C	0.637675	-0.894002	-0.372424
C514	C	1.137675	-0.394002	0.127576
C515	C	0.674471	-0.868187	-0.340843
C516	C	1.174471	-0.368187	0.159157
H517	H	0.575627	-0.805715	-0.275696
H518	H	1.075627	-0.305715	0.224304
H519	H	0.511592	-0.850639	-0.330656
H520	H	1.011592	-0.350639	0.169344
H521	H	0.550996	-0.906707	-0.392085
H522	H	1.050996	-0.406707	0.107915
H523	H	0.654438	-0.917852	-0.398555
H524	H	1.154438	-0.417852	0.101445
H525	H	0.718473	-0.872928	-0.343595
H526	H	1.218473	-0.372928	0.156405
H527	H	0.694881	-0.959965	-0.268651
H528	H	1.194881	-0.459965	0.231349
C529	C	0.825839	-0.156057	-0.953723
C530	C	1.325839	0.343943	-0.453723
C531	C	0.821620	-0.104985	-0.960184
C532	C	1.321620	0.395015	-0.460184
C533	C	0.858429	-0.073386	-0.934396
C534	C	1.358429	0.426614	-0.434396
C535	C	0.899456	-0.092860	-0.902147
C536	C	1.399456	0.407140	-0.402147
C537	C	0.903677	-0.143936	-0.895684
C538	C	1.403677	0.356064	-0.395684
C539	C	0.866869	-0.175534	-0.921472
C540	C	1.366869	0.324466	-0.421472
H541	H	0.791247	-0.090566	-0.984058
H542	H	1.291247	0.409434	-0.484058
H543	H	0.855304	-0.035577	-0.939181
H544	H	1.355304	0.464423	-0.439181
H545	H	0.926704	-0.069469	-0.883058
H546	H	1.426704	0.430531	-0.383058
H547	H	0.934050	-0.158354	-0.871810
H548	H	1.434050	0.341646	-0.371810
H549	H	0.869993	-0.213343	-0.916687
H550	H	1.369993	0.286657	-0.416687
C551	C	0.198426	-0.127314	-0.127655
C552	C	0.698426	0.372686	0.372345
C553	C	0.205979	-0.076249	-0.131416
C554	C	0.705979	0.423751	0.368584
C555	C	0.175969	-0.044592	-0.099865
C556	C	0.675969	0.455408	0.400135
C557	C	0.138404	-0.064001	-0.064553
C558	C	0.638404	0.435999	0.435447
C559	C	0.130849	-0.115069	-0.060791
C560	C	0.630849	0.384931	0.439209
C561	C	0.160859	-0.146726	-0.092342
C562	C	0.660859	0.353274	0.407658
H563	H	0.233789	-0.061878	-0.157557
H564	H	0.733789	0.438122	0.342443
H565	H	0.181562	-0.006788	-0.102650
H566	H	0.681562	0.493212	0.397350
H567	H	0.116188	-0.040568	-0.041197
H568	H	0.616188	0.459432	0.458803
H569	H	0.103040	-0.129439	-0.034651
H570	H	0.603040	0.370561	0.465349
H571	H	0.155266	-0.184529	-0.089557
H572	H	0.655266	0.315471	0.410443
H573	H	0.661314	-0.297288	-0.603798
H574	H	1.161314	0.202712	-0.103798
H575	H	0.457374	-0.164305	-0.164489
H576	H	0.957374	0.335695	0.335511
C577	C	0.685216	-0.276842	-0.381281
C578	C	1.185216	0.223158	0.118719
C579	C	0.644188	-0.257376	-0.349013
C580	C	1.144188	0.242624	0.150987
C581	C	0.607385	-0.288981	-0.323185
C582	C	1.107385	0.211019	0.176815
C583	C	0.611609	-0.340052	-0.329625
C584	C	1.111609	0.159948	0.170375
C585	C	0.652638	-0.359521	-0.361894
C586	C	1.152638	0.140479	0.138106
C587	C	0.689441	-0.327916	-0.387722
C588	C	1.189441	0.172084	0.112278
H589	H	0.641060	-0.219567	-0.344244
H590	H	1.141060	0.280433	0.155756
H591	H	0.577012	-0.274568	-0.299297
H592	H	1.077012	0.225432	0.200703
H593	H	0.584365	-0.363448	-0.310505
H594	H	1.084365	0.136552	0.189495
H595	H	0.655766	-0.397330	-0.366663
H596	H	1.155766	0.102670	0.133337
H597	H	0.719814	-0.342329	-0.411610
H598	H	1.219814	0.157671	0.088390
C599	C	0.685145	-0.479398	-0.276802
C600	C	1.185145	0.020602	0.223198
C601	C	0.625707	-0.473003	-0.273082
C602	C	1.125707	0.026997	0.226918
C603	C	0.588913	-0.498826	-0.304659
C604	C	1.088913	0.001174	0.195341
C605	C	0.611556	-0.531044	-0.339955
C606	C	1.111556	-0.031044	0.160045
C607	C	0.670997	-0.537440	-0.343676
C608	C	1.170997	-0.037440	0.156324
C609	C	0.707791	-0.511618	-0.312100
C610	C	1.207791	-0.011618	0.187900
H611	H	0.608942	-0.449152	-0.246953
H612	H	1.108942	0.050848	0.253047
H613	H	0.544911	-0.494091	-0.301904
H614	H	1.044911	0.005909	0.198096
H615	H	0.584319	-0.550160	-0.363329
H616	H	1.084319	-0.050160	0.136671
H617	H	0.687762	-0.561291	-0.369805
H618	H	1.187762	-0.061291	0.130195
H619	H	0.751794	-0.516353	-0.314854
H620	H	1.251794	-0.016353	0.185146
H621	H	0.849688	-0.744062	-0.135789
H622	H	1.349688	-0.244062	0.364211
H623	H	0.849716	-0.829181	-0.135802
H624	H	1.349716	-0.329181	0.364198
H625	H	0.305249	-0.297503	-0.297253
H626	H	0.805249	0.202497	0.202747
C627	C	0.651792	-0.305450	-0.836362
C628	C	1.151792	0.194550	-0.336362
C629	C	0.655997	-0.356525	-0.829906
C630	C	1.155997	0.143475	-0.329906
C631	C	0.619173	-0.388113	-0.855690
C632	C	1.119173	0.111887	-0.355690
C633	C	0.578143	-0.368626	-0.887930
C634	C	1.078143	0.131374	-0.387930
C635	C	0.573936	-0.317549	-0.894387
C636	C	1.073936	0.182451	-0.394387
C637	C	0.610760	-0.285961	-0.868603
C638	C	1.110760	0.214039	-0.368603
H639	H	0.686372	-0.370952	-0.806039
H640	H	1.186372	0.129048	-0.306039
H641	H	0.622288	-0.425923	-0.850910
H642	H	1.122288	0.074077	-0.350910
H643	H	0.550883	-0.392009	-0.907017
H644	H	1.050883	0.107991	-0.407017
H645	H	0.543561	-0.303122	-0.918254
H646	H	1.043561	0.196878	-0.418254
H647	H	0.607646	-0.248151	-0.873383
H648	H	1.107646	0.251849	-0.373383
C649	C	0.825761	-0.156187	-0.381327
C650	C	1.325761	0.343813	0.118673
C651	C	0.866791	-0.175664	-0.349082
C652	C	1.366791	0.324336	0.150918
C653	C	0.903600	-0.144068	-0.323291
C654	C	1.403600	0.355932	0.176709
C655	C	0.899379	-0.092995	-0.329746
C656	C	1.399379	0.407005	0.170254
C657	C	0.858347	-0.073515	-0.361993
C658	C	1.358347	0.426485	0.138007
C659	C	0.821538	-0.105111	-0.387783
C660	C	1.321538	0.394889	0.112217
H661	H	0.869917	-0.213474	-0.344302
H662	H	1.369917	0.286526	0.155698
H663	H	0.933974	-0.158489	-0.299420
H664	H	1.433974	0.341511	0.200580
H665	H	0.926627	-0.069606	-0.310654
H666	H	1.426627	0.430394	0.189346
H667	H	0.855221	-0.035705	-0.366772
H668	H	1.355221	0.464295	0.133228
H669	H	0.791164	-0.090691	-0.411654
H670	H	1.291164	0.409309	0.088346
H671	H	0.661354	-0.744153	-0.297330
H672	H	1.161354	-0.244153	0.202670
H673	H	0.816287	-0.164249	-1.045547
H674	H	1.316287	0.335751	-0.545547
H675	H	0.816209	-0.164366	-0.473139
H676	H	1.316209	0.335634	0.026861
C677	C	0.859250	-0.127403	-0.597163
C678	C	1.359250	0.372597	-0.097163
C679	C	0.855025	-0.076331	-0.603627
C680	C	1.355025	0.423669	-0.103627
C681	C	0.891833	-0.044729	-0.577844
C682	C	1.391833	0.455271	-0.077844
C683	C	0.932867	-0.064198	-0.545598
C684	C	1.432867	0.435802	-0.045598
C685	C	0.937094	-0.115272	-0.539132
C686	C	1.437094	0.384728	-0.039132
C687	C	0.900286	-0.146875	-0.564915
C688	C	1.400286	0.353125	-0.064915
H689	H	0.824648	-0.061917	-0.627499
H690	H	1.324648	0.438083	-0.127499
H691	H	0.888704	-0.006920	-0.582631
H692	H	1.388704	0.493080	-0.082631
H693	H	0.960114	-0.040803	-0.526512
H694	H	1.460114	0.459197	-0.026512
H695	H	0.967471	-0.129687	-0.515260
H696	H	1.467471	0.370313	-0.015260
H697	H	0.903415	-0.184684	-0.560128
H698	H	1.403415	0.315316	-0.060128
H699	H	0.849700	-0.135593	-0.688968
H700	H	1.349700	0.364407	-0.188968
C701	C	0.685297	-0.276692	-1.052204
C702	C	1.185297	0.223308	-0.552204
C703	C	0.648482	-0.308289	-1.026383
C704	C	1.148482	0.191711	-0.526383
C705	C	0.611665	-0.339881	-1.052171
C706	C	1.111665	0.160119	-0.552171
C707	C	0.611663	-0.339875	-1.103779
C708	C	1.111663	0.160125	-0.603779
C709	C	0.648480	-0.308277	-1.129602
C710	C	1.148480	0.191723	-0.629602
C711	C	0.685297	-0.276685	-1.103814
C712	C	1.185297	0.223315	-0.603814
H713	H	0.648482	-0.308294	-0.988178
H714	H	1.148482	0.191706	-0.488178
H715	H	0.584411	-0.363272	-1.033054
H716	H	1.084411	0.136728	-0.533054
H717	H	0.584409	-0.363261	-1.122868
H718	H	1.084409	0.136739	-0.622868
H719	H	0.648480	-0.308271	-1.167808
H720	H	1.148480	0.191729	-0.667808
H721	H	0.712551	-0.253294	-1.122931
H722	H	1.212551	0.246706	-0.622931
H723	H	0.694844	-0.268504	-0.960394
H724	H	1.194844	0.231496	-0.460394
H725	H	0.849713	-0.135564	-0.829728
H726	H	1.349713	0.364436	-0.329728
