data_functionalizedCrystal
_audit_creation_method	'MofGen! by Chris Wilmer'
_symmetry_space_group_name_H-M	'P1'
_symmetry_Int_Tables_number	1
_symmetry_cell_setting	triclinic
loop_
_symmetry_equiv_pos_as_xyz
  x,y,z
_cell_length_a	17.077404
_cell_length_b	19.805405
_cell_length_c	17.077396
_cell_angle_alpha	90.028963
_cell_angle_beta	90.018362
_cell_angle_gamma	90.024696
loop_
_atom_site_label
_atom_site_type_symbol
_atom_site_fract_x
_atom_site_fract_y
_atom_site_fract_z
Zn1	Zn	1.200034	-0.269500	0.443816
Zn2	Zn	1.450034	-0.019500	0.693816
Zn3	Zn	1.700034	0.230500	0.943816
Zn4	Zn	1.950034	0.480500	1.193816
Zn5	Zn	1.199932	-0.382693	0.312549
Zn6	Zn	1.449932	-0.132693	0.562549
Zn7	Zn	1.699932	0.117307	0.812549
Zn8	Zn	1.949932	0.367307	1.062549
Zn9	Zn	1.068765	-0.269519	0.312567
Zn10	Zn	1.318765	-0.019519	0.562567
Zn11	Zn	1.568765	0.230481	0.812567
Zn12	Zn	1.818765	0.480481	1.062567
Zn13	Zn	1.068725	-0.382648	0.443775
Zn14	Zn	1.318725	-0.132648	0.693775
Zn15	Zn	1.568725	0.117352	0.943775
Zn16	Zn	1.818725	0.367352	1.193775
O17	O	1.134364	-0.326090	0.378177
O18	O	1.384364	-0.076090	0.628177
O19	O	1.634364	0.173910	0.878177
O20	O	1.884364	0.423910	1.128177
O21	O	1.309867	-0.284526	0.426413
O22	O	1.559867	-0.034526	0.676413
O23	O	1.809867	0.215474	0.926413
O24	O	2.059867	0.465474	1.176413
O25	O	1.182507	-0.367707	0.202704
O26	O	1.432507	-0.117707	0.452704
O27	O	1.682507	0.132293	0.702704
O28	O	1.932507	0.382293	0.952704
O29	O	1.086238	-0.174800	0.330002
O30	O	1.336238	0.075200	0.580002
O31	O	1.586238	0.325200	0.830002
O32	O	1.836238	0.575200	1.080002
O33	O	1.309792	-0.367688	0.329972
O34	O	1.559792	-0.117688	0.579972
O35	O	1.809792	0.132312	0.829972
O36	O	2.059792	0.382312	1.079972
O37	O	1.182680	-0.174786	0.426430
O38	O	1.432680	0.075214	0.676430
O39	O	1.682680	0.325214	0.926430
O40	O	1.932680	0.575214	1.176430
O41	O	1.086139	-0.284559	0.202717
O42	O	1.336139	-0.034559	0.452717
O43	O	1.586139	0.215441	0.702717
O44	O	1.836139	0.465441	0.952717
O45	O	0.958913	-0.284515	0.329962
O46	O	1.208913	-0.034515	0.579962
O47	O	1.458913	0.215485	0.829962
O48	O	1.708913	0.465485	1.079962
O49	O	1.086169	-0.367612	0.553628
O50	O	1.336169	-0.117612	0.803628
O51	O	1.586169	0.132388	1.053628
O52	O	1.836169	0.382388	1.303628
O53	O	0.958883	-0.367631	0.426360
O54	O	1.208883	-0.117631	0.676360
O55	O	1.458883	0.132369	0.926360
O56	O	1.708883	0.382369	1.176360
O57	O	1.182641	-0.284482	0.553658
O58	O	1.432641	-0.034482	0.803658
O59	O	1.682641	0.215518	1.053658
O60	O	1.932641	0.465518	1.303658
O61	O	1.182467	-0.477404	0.329932
O62	O	1.432467	-0.227404	0.579932
O63	O	1.682467	0.022596	0.829932
O64	O	1.932467	0.272596	1.079932
O65	O	1.086070	-0.477371	0.426343
O66	O	1.336070	-0.227371	0.676343
O67	O	1.586070	0.022629	0.926343
O68	O	1.836070	0.272629	1.176343
C69	C	0.930416	-0.326071	0.378159
C70	C	1.180416	-0.076071	0.628159
C71	C	1.430416	0.173929	0.878159
C72	C	1.680416	0.423929	1.128159
C73	C	0.843166	-0.326079	0.378170
C74	C	1.093166	-0.076079	0.628170
C75	C	1.343166	0.173921	0.878170
C76	C	1.593166	0.423921	1.128170
C77	C	0.802216	-0.282853	0.428464
C78	C	1.052216	-0.032853	0.678464
C79	C	1.302216	0.217147	0.928464
C80	C	1.552216	0.467147	1.178464
C81	C	0.720235	-0.282858	0.428468
C82	C	0.970235	-0.032858	0.678468
C83	C	1.220235	0.217142	0.928468
C84	C	1.470235	0.467142	1.178468
C85	C	0.679207	-0.326092	0.378181
C86	C	0.929207	-0.076092	0.628181
C87	C	1.179207	0.173908	0.878181
C88	C	1.429207	0.423908	1.128181
C89	C	0.720163	-0.369319	0.327882
C90	C	0.970163	-0.119319	0.577882
C91	C	1.220163	0.130681	0.827882
C92	C	1.470163	0.380681	1.077882
C93	C	0.802142	-0.369311	0.327875
C94	C	1.052142	-0.119311	0.577875
C95	C	1.302142	0.130689	0.827875
C96	C	1.552142	0.380689	1.077875
C97	C	0.549293	-0.369335	0.327901
C98	C	0.799293	-0.119335	0.577901
C99	C	1.049293	0.130665	0.827901
C100	C	1.299293	0.380665	1.077901
C101	C	0.467308	-0.369344	0.327909
C102	C	0.717308	-0.119344	0.577909
C103	C	0.967308	0.130656	0.827909
C104	C	1.217308	0.380656	1.077909
C105	C	0.467386	-0.282881	0.428494
C106	C	0.717386	-0.032881	0.678494
C107	C	0.967386	0.217119	0.928494
C108	C	1.217386	0.467119	1.178494
C109	C	0.549365	-0.282873	0.428487
C110	C	0.799365	-0.032873	0.678487
C111	C	1.049365	0.217127	0.928487
C112	C	1.299365	0.467127	1.178487
C113	C	0.590316	-0.326102	0.378189
C114	C	0.840316	-0.076102	0.628189
C115	C	1.090316	0.173898	0.878189
C116	C	1.340316	0.423898	1.128189
C117	C	1.134274	-0.501946	0.378148
C118	C	1.384274	-0.251946	0.628148
C119	C	1.634274	-0.001946	0.878148
C120	C	1.884274	0.248054	1.128148
C121	C	1.134308	-0.577178	0.378163
C122	C	1.384308	-0.327178	0.628163
C123	C	1.634308	-0.077178	0.878163
C124	C	1.884308	0.172822	1.128163
C125	C	1.184496	-0.612457	0.428412
C126	C	1.434496	-0.362457	0.678412
C127	C	1.684496	-0.112457	0.928412
C128	C	1.934496	0.137543	1.178412
C129	C	1.184524	-0.683145	0.428427
C130	C	1.434524	-0.433145	0.678427
C131	C	1.684524	-0.183145	0.928427
C132	C	1.934524	0.066855	1.178427
C133	C	1.134368	-0.718554	0.378187
C134	C	1.384368	-0.468554	0.628187
C135	C	1.634368	-0.218554	0.878187
C136	C	1.884368	0.031446	1.128187
C137	C	1.084175	-0.683270	0.327935
C138	C	1.334175	-0.433270	0.577935
C139	C	1.584175	-0.183270	0.827935
C140	C	1.834175	0.066730	1.077935
C141	C	1.084143	-0.612583	0.327925
C142	C	1.334143	-0.362583	0.577925
C143	C	1.584143	-0.112583	0.827925
C144	C	1.834143	0.137417	1.077925
C145	C	1.084301	-0.968343	0.327976
C146	C	1.334301	-0.718343	0.577976
C147	C	1.584301	-0.468343	0.827976
C148	C	1.834301	-0.218343	1.077976
C149	C	1.084338	-1.039035	0.327988
C150	C	1.334338	-0.789035	0.577988
C151	C	1.584338	-0.539035	0.827988
C152	C	1.834338	-0.289035	1.077988
C153	C	1.184682	-1.038905	0.428477
C154	C	1.434682	-0.788905	0.678477
C155	C	1.684682	-0.538905	0.928477
C156	C	1.934682	-0.288905	1.178477
C157	C	1.184650	-0.968218	0.428467
C158	C	1.434650	-0.718218	0.678467
C159	C	1.684650	-0.468218	0.928467
C160	C	1.934650	-0.218218	1.178467
C161	C	1.134454	-0.932941	0.378218
C162	C	1.384454	-0.682941	0.628218
C163	C	1.634454	-0.432941	0.878218
C164	C	1.884454	-0.182941	1.128218
C165	C	1.134423	-0.856293	0.378204
C166	C	1.384423	-0.606293	0.628204
C167	C	1.634423	-0.356293	0.878204
C168	C	1.884423	-0.106293	1.128204
C169	C	1.134403	-0.795201	0.378197
C170	C	1.384403	-0.545201	0.628197
C171	C	1.634403	-0.295201	0.878197
C172	C	1.884403	-0.045201	1.128197
C173	C	1.339108	-0.326110	0.378195
C174	C	1.589108	-0.076110	0.628195
C175	C	1.839108	0.173890	0.878195
C176	C	2.089108	0.423890	1.128195
C177	C	1.426358	-0.326118	0.378203
C178	C	1.676358	-0.076118	0.628203
C179	C	1.926358	0.173882	0.878203
C180	C	2.176358	0.423882	1.128203
C181	C	1.134411	-0.326040	0.582921
C182	C	1.384411	-0.076040	0.832921
C183	C	1.634411	0.173960	1.082921
C184	C	1.884411	0.423960	1.332921
C185	C	1.134432	-0.326019	0.670171
C186	C	1.384432	-0.076019	0.920171
C187	C	1.634432	0.173981	1.170171
C188	C	1.884432	0.423981	1.420171
C189	C	1.134475	-0.149547	0.378223
C190	C	1.384475	0.100453	0.628223
C191	C	1.634475	0.350453	0.878223
C192	C	1.884475	0.600453	1.128223
C193	C	1.134522	-0.074315	0.378242
C194	C	1.384522	0.175685	0.628242
C195	C	1.634522	0.425685	0.878242
C196	C	1.884522	0.675685	1.128242
C197	C	1.134362	-0.326091	0.174229
C198	C	1.384362	-0.076091	0.424229
C199	C	1.634362	0.173909	0.674229
C200	C	1.884362	0.423909	0.924229
C201	C	1.134494	-0.325921	0.086980
C202	C	1.384494	-0.075921	0.336980
C203	C	1.634494	0.174079	0.586980
C204	C	1.884494	0.424079	0.836980
C205	C	1.184667	-0.282730	0.711178
C206	C	1.434667	-0.032730	0.961178
C207	C	1.684667	0.217270	1.211178
C208	C	1.934667	0.467270	1.461178
C209	C	1.184676	-0.282707	0.793159
C210	C	1.434676	-0.032707	1.043159
C211	C	1.684676	0.217293	1.293159
C212	C	1.934676	0.467293	1.543159
C213	C	1.134454	-0.325978	0.834131
C214	C	1.384454	-0.075978	1.084131
C215	C	1.634454	0.174022	1.334131
C216	C	1.884454	0.424022	1.584131
C217	C	1.084214	-0.369269	0.793118
C218	C	1.334214	-0.119269	1.043118
C219	C	1.584214	0.130731	1.293118
C220	C	1.834214	0.380731	1.543118
C221	C	1.084201	-0.369287	0.711139
C222	C	1.334201	-0.119287	0.961139
C223	C	1.584201	0.130713	1.211139
C224	C	1.834201	0.380713	1.461139
C225	C	1.084245	-0.369228	0.963988
C226	C	1.334245	-0.119228	1.213988
C227	C	1.584245	0.130772	1.463988
C228	C	1.834245	0.380772	1.713988
C229	C	1.084259	-0.369211	1.045973
C230	C	1.334259	-0.119211	1.295973
C231	C	1.584259	0.130789	1.545973
C232	C	1.834259	0.380789	1.795973
C233	C	1.184720	-0.282648	1.046008
C234	C	1.434720	-0.032648	1.296008
C235	C	1.684720	0.217352	1.546008
C236	C	1.934720	0.467352	1.796008
C237	C	1.184708	-0.282666	0.964029
C238	C	1.434708	-0.032666	1.214029
C239	C	1.684708	0.217334	1.464029
C240	C	1.934708	0.467334	1.714029
C241	C	1.134468	-0.325959	0.923022
C242	C	1.384468	-0.075959	1.173022
C243	C	1.634468	0.174041	1.423022
C244	C	1.884468	0.424041	1.673022
H245	H	0.686751	-0.404518	0.286934
H246	H	0.936751	-0.154518	0.536934
H247	H	1.186751	0.095482	0.786934
H248	H	1.436751	0.345482	1.036934
H249	H	0.835483	-0.404509	0.286920
H250	H	1.085483	-0.154509	0.536920
H251	H	1.335483	0.095491	0.786920
H252	H	1.585483	0.345491	1.036920
H253	H	1.225551	-1.067637	0.469395
H254	H	1.475551	-0.817637	0.719395
H255	H	1.725551	-0.567637	0.969395
H256	H	1.975551	-0.317637	1.219395
H257	H	1.225342	-0.583632	0.469320
H258	H	1.475342	-0.333632	0.719320
H259	H	1.725342	-0.083632	0.969320
H260	H	1.975342	0.166368	1.219320
F261	F	1.030726	-0.575037	0.274444
F262	F	1.280726	-0.325037	0.524444
F263	F	1.530726	-0.075037	0.774444
F264	F	1.780726	0.174963	1.024444
F265	F	1.238125	-0.236678	0.667580
F266	F	1.488125	0.013322	0.917580
F267	F	1.738125	0.263322	1.167580
F268	F	1.988125	0.513322	1.417580
F269	F	1.237932	-0.720688	0.481918
F270	F	1.487932	-0.470688	0.731918
F271	F	1.737932	-0.220688	0.981918
F272	F	1.987932	0.029312	1.231918
F273	F	1.238035	-0.930538	0.481936
F274	F	1.488035	-0.680538	0.731936
F275	F	1.738035	-0.430538	0.981936
F276	F	1.988035	-0.180538	1.231936
F277	F	1.030732	-0.415360	0.667496
F278	F	1.280732	-0.165360	0.917496
F279	F	1.530732	0.084640	1.167496
F280	F	1.780732	0.334640	1.417496
H281	H	1.043431	-0.939626	0.287060
H282	H	1.293431	-0.689626	0.537060
H283	H	1.543431	-0.439626	0.787060
H284	H	1.793431	-0.189626	1.037060
H285	H	0.582768	-0.247672	0.469440
H286	H	0.832768	0.002328	0.719440
H287	H	1.082768	0.252328	0.969440
H288	H	1.332768	0.502328	1.219440
F289	F	1.238170	-0.236656	0.836798
F290	F	1.488170	0.013344	1.086798
F291	F	1.738170	0.263344	1.336798
F292	F	1.988170	0.513344	1.586798
F293	F	0.423644	-0.415371	0.274403
F294	F	0.673644	-0.165371	0.524403
F295	F	0.923644	0.084629	0.774403
F296	F	1.173644	0.334629	1.024403
H297	H	1.043334	-0.712105	0.287033
H298	H	1.293334	-0.462105	0.537033
H299	H	1.543334	-0.212105	0.787033
H300	H	1.793334	0.037895	1.037033
H301	H	0.835615	-0.247649	0.469415
H302	H	1.085615	0.002351	0.719415
H303	H	1.335615	0.252351	0.969415
H304	H	1.585615	0.502351	1.219415
H305	H	0.686897	-0.247660	0.469423
H306	H	0.936897	0.002340	0.719423
H307	H	1.186897	0.252340	0.969423
H308	H	1.436897	0.502340	1.219423
F309	F	1.238164	-0.236617	0.920425
F310	F	1.488164	0.013383	1.170425
F311	F	1.738164	0.263383	1.420425
F312	F	1.988164	0.513383	1.670425
H313	H	1.225626	-0.247397	1.079400
H314	H	1.475626	0.002603	1.329400
H315	H	1.725626	0.252603	1.579400
H316	H	1.975626	0.502603	1.829400
H317	H	1.043491	-1.067863	0.287075
H318	H	1.293491	-0.817863	0.537075
H319	H	1.543491	-0.567863	0.787075
H320	H	1.793491	-0.317863	1.037075
H321	H	1.043362	-0.404444	1.079330
H322	H	1.293362	-0.154444	1.329330
H323	H	1.543362	0.095556	1.579330
H324	H	1.793362	0.345556	1.829330
F325	F	1.030772	-0.415303	0.920347
F326	F	1.280772	-0.165303	1.170347
F327	F	1.530772	0.084697	1.420347
F328	F	1.780772	0.334697	1.670347
H329	H	0.434040	-0.247682	0.469447
H330	H	0.684040	0.002318	0.719447
H331	H	0.934040	0.252318	0.969447
H332	H	1.184040	0.502318	1.219447
F333	F	0.592874	-0.415346	0.274371
F334	F	0.842874	-0.165346	0.524371
F335	F	1.092874	0.084654	0.774371
F336	F	1.342874	0.334654	1.024371
F337	F	1.030760	-0.415318	0.836725
F338	F	1.280760	-0.165318	1.086725
F339	F	1.530760	0.084682	1.336725
F340	F	1.780760	0.334682	1.586725
