data_functionalizedCrystal
_audit_creation_method	'MofGen! by Chris Wilmer'
_symmetry_space_group_name_H-M	'P1'
_symmetry_Int_Tables_number	1
_symmetry_cell_setting	triclinic
loop_
_symmetry_equiv_pos_as_xyz
  x,y,z
_cell_length_a	10.723024
_cell_length_b	23.532357
_cell_length_c	9.198806
_cell_angle_alpha	89.991292
_cell_angle_beta	89.996352
_cell_angle_gamma	83.648080
loop_
_atom_site_label
_atom_site_type_symbol
_atom_site_fract_x
_atom_site_fract_y
_atom_site_fract_z
O1	O	1.654668	0.079873	-0.120903
O2	O	1.291275	0.087518	-0.120910
O3	O	1.483962	0.000833	-0.120876
O4	O	1.461981	0.166558	-0.120936
O5	O	1.483947	0.000833	0.120909
O6	O	1.291259	0.087518	0.120875
O7	O	1.654653	0.079872	0.120882
Cu8	Cu	1.472955	0.083695	0.142956
Cu9	Cu	1.472973	0.083695	-0.142983
O10	O	1.461966	0.166557	0.120849
C11	C	1.244785	0.086961	-0.000017
C12	C	1.106283	0.085297	-0.000019
C13	C	1.483405	-0.020387	0.000021
C14	C	1.481752	-0.083617	0.000035
C15	C	1.029770	0.133801	-0.000037
C16	C	0.886621	0.132082	-0.000039
C17	C	1.471382	-0.475695	-0.131841
C18	C	1.469811	-0.535105	-0.131849
O19	O	1.468963	-0.565827	-0.243938
N20	N	1.469023	-0.564821	-0.000054
C21	C	1.469794	-0.535124	0.131758
O22	O	1.468979	-0.565855	0.243859
C23	C	1.471357	-0.475715	0.131765
C24	C	1.472157	-0.446003	-0.000039
C25	C	1.472181	-0.445983	-0.263634
C26	C	1.473754	-0.386577	-0.263625
C27	C	1.474529	-0.356884	-0.131823
C28	C	1.473731	-0.386597	-0.000030
C29	C	1.472119	-0.446019	0.263575
C30	C	1.473681	-0.386606	0.263571
C31	C	1.474481	-0.356893	0.131767
C32	C	1.476079	-0.297499	0.131781
N33	N	1.476867	-0.267783	-0.000015
C34	C	1.476092	-0.297475	-0.131817
C35	C	1.466511	-0.659887	0.131734
C36	C	1.464958	-0.719296	0.131728
C37	C	1.464972	-0.719272	-0.131880
C38	C	1.466534	-0.659863	-0.131873
C39	C	1.467299	-0.630171	-0.000062
C40	C	1.479398	-0.172720	-0.131788
C41	C	1.480977	-0.113309	-0.131767
C42	C	1.480956	-0.113338	0.131840
C43	C	1.479384	-0.172743	0.131820
C44	C	1.478600	-0.202433	-0.000006
O45	O	1.476923	-0.266739	0.243812
O46	O	1.476891	-0.266736	-0.243899
C47	C	1.701143	0.080429	-0.000013
C48	C	1.839644	0.082093	-0.000021
C49	C	1.462523	0.187778	-0.000051
C50	C	1.464176	0.251007	-0.000075
N51	N	1.472951	0.083694	0.344070
N52	N	1.472986	0.083691	-0.344097
C53	C	1.553860	0.047137	0.416281
C54	C	1.553880	0.047135	0.583693
H55	H	1.070243	0.176600	-0.000045
C56	C	1.481796	-0.080664	0.276815
N57	N	1.482416	-0.056051	0.386011
C58	C	0.797809	0.188181	-0.000059
N59	N	0.730912	0.230436	-0.000071
H60	H	0.905379	0.040568	-0.000015
H61	H	1.623112	0.015838	0.354167
H62	H	1.065811	0.042498	-0.000040
H63	H	1.481631	-0.089120	-0.239103
H64	H	1.464325	-0.743484	0.239056
C65	C	1.478558	-0.205371	-0.276803
N66	N	1.477939	-0.229964	-0.386028
H67	H	1.474401	-0.362390	-0.370954
C68	C	1.647462	0.004851	0.667583
N69	N	1.717950	-0.026999	0.730772
C70	C	1.471382	-0.478638	-0.408640
N71	N	1.470809	-0.503232	-0.517868
C72	C	1.467403	-0.627184	-0.276866
N73	N	1.468053	-0.602573	-0.386081
C74	C	1.379383	0.125974	0.427981
N75	N	1.308905	0.157820	0.491181
C76	C	1.474527	-0.353948	0.408578
N77	N	1.475169	-0.329352	0.517796
H78	H	1.464337	-0.743458	-0.239200
C79	C	1.467372	-0.627232	0.276746
N80	N	1.468021	-0.602639	0.385969
C81	C	1.478515	-0.205429	0.276810
N82	N	1.477850	-0.230043	0.386019
H83	H	1.471470	-0.470201	0.370904
H84	H	1.403717	0.114993	0.593814
