data_functionalizedCrystal
_audit_creation_method	'MofGen! by Chris Wilmer'
_symmetry_space_group_name_H-M	'P1'
_symmetry_Int_Tables_number	1
_symmetry_cell_setting	triclinic
loop_
_symmetry_equiv_pos_as_xyz
  x,y,z
_cell_length_a	25.639242
_cell_length_b	25.639239
_cell_length_c	25.639233
_cell_angle_alpha	89.981253
_cell_angle_beta	89.977834
_cell_angle_gamma	90.034213
loop_
_atom_site_label
_atom_site_type_symbol
_atom_site_fract_x
_atom_site_fract_y
_atom_site_fract_z
Zn1	Zn	0.799225	-0.208277	-0.295742
Zn2	Zn	0.799149	-0.295696	-0.208307
Zn3	Zn	0.711801	-0.208269	-0.208306
Zn4	Zn	0.711746	-0.295676	-0.295696
O5	O	0.755480	-0.251979	-0.252013
O6	O	0.872380	-0.219884	-0.284163
O7	O	0.787553	-0.284103	-0.135141
O8	O	0.723453	-0.135105	-0.219924
O9	O	0.872324	-0.284111	-0.219924
O10	O	0.787683	-0.135111	-0.284163
O11	O	0.723379	-0.219871	-0.135141
O12	O	0.638629	-0.219853	-0.219880
O13	O	0.723360	-0.284078	-0.368868
O14	O	0.638589	-0.284070	-0.284085
O15	O	0.787630	-0.219866	-0.368901
O16	O	0.787499	-0.368858	-0.219880
O17	O	0.723286	-0.368844	-0.284085
C18	C	0.619638	-0.251959	-0.251977
C19	C	0.561524	-0.251963	-0.251975
C20	C	0.201149	-0.285473	-0.285413
C21	C	0.146544	-0.285477	-0.285421
O22	O	0.118297	-0.313943	-0.313821
N23	N	0.119241	-0.251994	-0.252047
C24	C	0.146545	-0.218502	-0.218666
O25	O	0.118308	-0.190022	-0.190280
C26	C	0.201149	-0.218496	-0.218661
C27	C	0.228449	-0.251985	-0.252034
C28	C	0.228449	-0.318959	-0.318783
C29	C	0.283049	-0.318956	-0.318774
C30	C	0.310350	-0.285468	-0.285395
C31	C	0.283049	-0.251983	-0.252024
C32	C	0.228452	-0.185002	-0.185283
C33	C	0.283059	-0.185000	-0.185281
C34	C	0.310359	-0.218488	-0.218654
C35	C	0.364950	-0.218492	-0.218636
N36	N	0.392253	-0.251974	-0.252010
C37	C	0.364953	-0.285463	-0.285389
C38	C	0.031875	-0.218515	-0.218680
C39	C	-0.022728	-0.218523	-0.218683
C40	C	-0.022725	-0.285497	-0.285438
C41	C	0.031878	-0.285492	-0.285433
C42	C	0.059178	-0.251998	-0.252054
C43	C	0.479618	-0.285455	-0.285368
C44	C	0.534223	-0.285451	-0.285354
C45	C	0.534216	-0.218475	-0.218601
C46	C	0.479615	-0.218481	-0.218612
C47	C	0.452318	-0.251972	-0.252000
O48	O	0.393232	-0.190038	-0.190252
O49	O	0.393197	-0.313933	-0.313776
C50	C	0.755392	-0.387822	-0.251989
C51	C	0.755403	-0.445936	-0.251996
C52	C	0.789004	-0.806294	-0.218638
C53	C	0.789024	-0.860898	-0.218645
O54	O	0.817502	-0.889131	-0.190257
N55	N	0.755572	-0.888218	-0.252048
C56	C	0.722102	-0.860932	-0.285449
O57	O	0.693651	-0.889184	-0.313861
C58	C	0.722085	-0.806328	-0.285444
C59	C	0.755535	-0.779011	-0.252036
C60	C	0.822452	-0.778976	-0.185233
C61	C	0.822431	-0.724376	-0.185226
C62	C	0.788962	-0.697093	-0.218623
C63	C	0.755514	-0.724410	-0.252028
C64	C	0.688617	-0.779042	-0.318847
C65	C	0.688603	-0.724435	-0.318840
C66	C	0.722053	-0.697118	-0.285432
C67	C	0.722024	-0.642527	-0.285418
N68	N	0.755475	-0.615206	-0.252016
C69	C	0.788944	-0.642490	-0.218618
C70	C	0.722141	-0.975602	-0.285457
C71	C	0.722155	-1.030204	-0.285459
C72	C	0.789078	-1.030167	-0.218656
C73	C	0.789061	-0.975564	-0.218652
C74	C	0.755593	-0.948282	-0.252055
C75	C	0.788897	-0.527824	-0.218605
C76	C	0.788872	-0.473219	-0.218599
C77	C	0.721951	-0.473261	-0.285403
C78	C	0.721974	-0.527862	-0.285408
C79	C	0.755452	-0.555142	-0.252007
O80	O	0.693562	-0.614260	-0.313793
O81	O	0.817396	-0.614231	-0.190216
C82	C	0.891853	-0.252000	-0.252049
C83	C	0.949967	-0.252009	-0.252064
C84	C	0.755497	-0.251970	-0.388386
C85	C	0.755504	-0.251966	-0.446500
C86	C	0.755583	-0.115606	-0.252048
C87	C	0.755627	-0.057492	-0.252064
C88	C	0.789012	-0.218432	-0.806886
C89	C	0.789019	-0.218417	-0.861491
O90	O	0.817466	-0.189967	-0.889747
N91	N	0.755562	-0.251844	-0.888783
C92	C	0.722093	-0.285283	-0.861468
O93	O	0.693636	-0.313713	-0.889695
C94	C	0.722084	-0.285294	-0.806864
C95	C	0.755547	-0.251870	-0.779575
C96	C	0.822472	-0.185009	-0.779597
C97	C	0.822466	-0.185025	-0.724997
C98	C	0.789000	-0.218462	-0.697685
C99	C	0.755541	-0.251885	-0.724974
C100	C	0.688613	-0.318731	-0.779550
C101	C	0.688607	-0.318739	-0.724943
C102	C	0.722069	-0.285314	-0.697654
C103	C	0.722070	-0.285338	-0.643063
N104	N	0.755526	-0.251912	-0.615771
C105	C	0.788992	-0.218474	-0.643082
C106	C	0.722113	-0.285256	-0.976138
C107	C	0.722124	-0.285247	-1.030741
C108	C	0.789049	-0.218381	-1.030760
C109	C	0.789041	-0.218392	-0.976157
C110	C	0.755570	-0.251829	-0.948846
C111	C	0.788977	-0.218509	-0.528417
C112	C	0.788970	-0.218529	-0.473811
C113	C	0.722043	-0.285393	-0.473797
C114	C	0.722052	-0.285375	-0.528397
C115	C	0.755521	-0.251929	-0.555706
O116	O	0.693635	-0.313773	-0.614771
O117	O	0.817439	-0.190044	-0.614847
C118	C	0.755494	-0.251951	-0.116170
C119	C	0.755588	-0.251807	-0.058057
H120	H	0.556454	-0.191211	-0.191422
H121	H	0.816111	-0.450979	-0.191392
H122	H	0.849670	-0.702137	-0.158024
H123	H	0.661345	-0.345963	-0.702710
H124	H	0.556449	-0.312723	-0.312530
H125	H	0.457399	-0.312726	-0.312556
O126	O	0.821431	-0.554239	-0.186109
C127	C	0.887823	-0.548424	-0.119866
C128	C	0.851000	-0.518446	-0.156635
H129	H	0.911747	-0.519499	-0.096034
H130	H	0.863873	-0.574008	-0.092467
H131	H	0.915137	-0.573966	-0.143905
H132	H	0.823679	-0.492876	-0.132637
H133	H	0.874983	-0.492895	-0.184034
O134	O	0.656129	-0.351273	-0.805989
C135	C	0.630692	-0.440204	-0.822679
C136	C	0.667507	-0.403406	-0.792699
H137	H	0.639885	-0.482361	-0.811954
H138	H	0.588533	-0.431055	-0.811914
H139	H	0.636425	-0.434435	-0.866397
H140	H	0.661820	-0.409154	-0.748974
H141	H	0.709652	-0.412564	-0.803508
O142	O	0.309484	-0.351500	-0.351245
C143	C	0.303703	-0.417948	-0.417439
C144	C	0.273706	-0.381109	-0.380697
H145	H	0.274790	-0.441904	-0.441252
H146	H	0.329277	-0.394008	-0.444855
H147	H	0.329256	-0.445230	-0.393379
H148	H	0.248125	-0.353819	-0.404714
H149	H	0.248165	-0.405082	-0.353279
H150	H	0.816221	-0.191310	-0.451595
H151	H	0.206227	-0.346229	-0.345967
H152	H	0.054103	-0.312760	-0.312609
O153	O	0.821531	-0.949087	-0.186129
C154	C	0.846946	-0.932377	-0.097216
C155	C	0.810147	-0.962400	-0.133989
H156	H	0.837748	-0.943120	-0.055053
H157	H	0.889110	-0.943084	-0.106400
H158	H	0.841198	-0.888665	-0.102973
H159	H	0.815849	-1.006118	-0.128252
H160	H	0.767997	-0.951649	-0.124796
O161	O	0.689536	-0.554379	-0.317931
C162	C	0.664085	-0.571041	-0.406844
C163	C	0.700857	-0.540992	-0.370065
H164	H	0.673218	-0.560221	-0.449001
H165	H	0.669854	-0.614761	-0.401161
H166	H	0.621930	-0.560361	-0.397589
H167	H	0.743026	-0.551628	-0.379297
H168	H	0.695043	-0.497280	-0.375755
H169	H	0.849723	-0.157777	-0.801828
H170	H	0.694912	-1.052442	-0.312659
O171	O	0.855011	-0.152619	-0.698462
C172	C	0.925561	-0.145569	-0.636794
C173	C	0.888752	-0.182337	-0.666820
H174	H	0.952843	-0.169581	-0.611196
H175	H	0.949514	-0.121670	-0.665670
H176	H	0.901545	-0.118230	-0.611258
H177	H	0.912728	-0.209708	-0.692356
H178	H	0.864797	-0.206199	-0.637916
H179	H	0.305283	-0.157721	-0.158103
O180	O	0.821503	-0.185909	-1.057377
C181	C	0.851179	-0.156274	-1.141512
C182	C	0.814395	-0.193065	-1.111432
H183	H	0.845452	-0.162054	-1.185221
H184	H	0.842021	-0.114105	-1.130816
H185	H	0.893327	-0.165451	-1.130761
H186	H	0.772234	-0.183935	-1.122167
H187	H	0.823598	-0.235222	-1.122131
O188	O	0.689573	-0.317737	-1.057165
C189	C	0.623215	-0.384083	-1.051368
C190	C	0.660047	-0.347308	-1.021380
H191	H	0.599341	-0.408008	-1.022448
H192	H	0.595859	-0.360095	-1.076911
H193	H	0.647208	-0.411398	-1.076951
H194	H	0.636096	-0.319985	-0.995769
H195	H	0.687404	-0.371328	-0.995870
O196	O	0.058311	-0.185967	-0.186198
C197	C	0.052534	-0.119522	-0.120005
C198	C	0.022535	-0.156364	-0.156754
H199	H	0.023622	-0.095570	-0.096197
H200	H	0.078056	-0.143458	-0.092583
H201	H	0.078139	-0.092235	-0.144058
H202	H	-0.003099	-0.183658	-0.132743
H203	H	-0.002955	-0.132395	-0.184177
H204	H	0.849709	-0.801185	-0.158037
O205	O	0.821560	-0.185872	-0.949731
C206	C	0.887964	-0.119572	-0.955528
C207	C	0.851154	-0.156369	-0.985516
H208	H	0.911908	-0.095718	-0.984448
H209	H	0.864003	-0.092197	-0.929979
H210	H	0.915259	-0.143592	-0.929952
H211	H	0.823851	-0.132392	-1.011121
H212	H	0.875148	-0.183746	-1.011033
H213	H	0.661376	-0.801275	-0.346049
H214	H	0.457387	-0.191213	-0.191436
O215	O	0.821539	-0.186005	-0.554859
C216	C	0.887902	-0.119668	-0.549100
C217	C	0.851058	-0.156457	-0.519091
H218	H	0.911770	-0.095761	-0.520195
H219	H	0.915262	-0.143644	-0.574655
H220	H	0.863918	-0.092337	-0.574674
H221	H	0.875000	-0.183795	-0.493489
H222	H	0.823696	-0.132449	-0.493569
O223	O	0.656117	-0.697991	-0.351361
C224	C	0.630700	-0.681247	-0.440273
C225	C	0.667513	-0.711237	-0.403503
H226	H	0.639907	-0.691937	-0.482438
H227	H	0.588542	-0.692038	-0.431095
H228	H	0.636421	-0.637531	-0.434505
H229	H	0.661838	-0.754960	-0.409250
H230	H	0.709658	-0.700402	-0.412691
O231	O	-0.049192	-0.318000	-0.317940
C232	C	-0.065900	-0.343485	-0.406834
C233	C	-0.035883	-0.306654	-0.370089
H234	H	-0.055159	-0.334317	-0.449005
H235	H	-0.055185	-0.385640	-0.397622
H236	H	-0.109612	-0.337741	-0.401077
H237	H	0.007836	-0.312351	-0.375825
H238	H	-0.046642	-0.264512	-0.379310
H239	H	0.694883	-0.953392	-0.312656
H240	H	0.816333	-1.052391	-0.191464
H241	H	0.694699	-0.451039	-0.312594
O242	O	0.202022	-0.152419	-0.152851
C243	C	0.207806	-0.086001	-0.086628
C244	C	0.237801	-0.122870	-0.123341
H245	H	0.236721	-0.062109	-0.062751
H246	H	0.182286	-0.058664	-0.110661
H247	H	0.182200	-0.109966	-0.059265
H248	H	0.263436	-0.098948	-0.150711
H249	H	0.263289	-0.150209	-0.099274
H250	H	0.694857	-0.312487	-0.953905
H251	H	0.694809	-0.312597	-0.550617
O252	O	0.689552	-0.317823	-0.447180
C253	C	0.659905	-0.347486	-0.363045
C254	C	0.696722	-0.310728	-0.393125
H255	H	0.665697	-0.341771	-0.319336
H256	H	0.617743	-0.338291	-0.373730
H257	H	0.669044	-0.389641	-0.373807
H258	H	0.687630	-0.268561	-0.382379
H259	H	0.738873	-0.319969	-0.382437
H260	H	-0.044951	-0.191258	-0.191502
