data_functionalizedCrystal
_audit_creation_method	'MofGen! by Chris Wilmer'
_symmetry_space_group_name_H-M	'P1'
_symmetry_Int_Tables_number	1
_symmetry_cell_setting	triclinic
loop_
_symmetry_equiv_pos_as_xyz
  x,y,z
_cell_length_a	16.704494
_cell_length_b	23.196402
_cell_length_c	23.196402
_cell_angle_alpha	90.003744
_cell_angle_beta	63.426305
_cell_angle_gamma	56.635612
loop_
_atom_site_label
_atom_site_type_symbol
_atom_site_fract_x
_atom_site_fract_y
_atom_site_fract_z
Zr1	Zr	0.878575	-0.108147	0.587837
O2	O	1.046022	-0.206383	0.501970
O3	O	0.711126	-0.073740	0.609867
O4	O	0.878574	-0.200198	0.616048
O5	O	0.878576	0.014945	0.495797
O6	O	0.878576	-0.200201	0.710918
O7	O	0.878574	-0.079925	0.495789
O8	O	0.579043	0.026009	0.699862
O9	O	1.178110	-0.211265	0.506853
O10	O	0.780003	-0.064254	0.695250
O11	O	0.780003	0.006549	0.624455
O12	O	0.977151	-0.142339	0.631732
O13	O	0.977151	-0.071536	0.560938
Zr14	Zr	0.878582	0.043154	0.739157
Zr15	Zr	0.878579	-0.108152	0.739144
Zr16	Zr	0.878579	0.043160	0.587850
Zr17	Zr	1.089240	-0.115933	0.595626
Zr18	Zr	0.667917	0.050941	0.731368
O19	O	1.046031	0.008748	0.717127
O20	O	1.046027	-0.206391	0.717108
O21	O	1.046027	0.008755	0.501988
O22	O	0.711136	0.141391	0.825024
O23	O	0.711131	-0.073748	0.825006
O24	O	0.711131	0.141398	0.609886
O25	O	0.878581	-0.079937	0.831197
O26	O	0.878583	0.135205	0.710946
O27	O	0.878581	0.135209	0.616076
O28	O	0.878583	0.014933	0.831205
O29	O	1.178112	-0.211270	0.627122
O30	O	0.579045	0.146277	0.699872
O31	O	0.579048	0.146273	0.820141
O32	O	0.579045	0.026004	0.820130
O33	O	1.178112	-0.090997	0.506864
O34	O	1.178115	-0.091001	0.627132
O35	O	0.780006	0.077347	0.695262
O36	O	0.780006	0.006544	0.766056
O37	O	0.977154	-0.071541	0.702539
O38	O	0.977154	-0.000738	0.631744
C39	C	0.615069	-0.022756	0.653755
C40	C	0.525636	-0.019451	0.650448
C41	C	0.878575	-0.032489	0.474235
C42	C	0.878573	-0.032487	0.410002
C43	C	0.878583	0.156765	0.663513
C44	C	0.878584	0.220999	0.663519
C45	C	0.357567	-0.087153	0.718161
C46	C	0.273537	-0.084049	0.715056
C47	C	0.273539	-0.010135	0.641139
C48	C	0.357569	-0.013239	0.644243
C49	C	0.399581	-0.051750	0.682755
C50	C	0.483618	-0.054858	0.685856
C51	C	0.483614	0.019060	0.611942
C52	C	0.399583	0.022164	0.608837
C53	C	1.142088	-0.042236	0.673239
C54	C	1.231521	-0.045542	0.676546
C55	C	0.878575	-0.221758	0.663481
C56	C	0.878573	-0.285991	0.663475
C57	C	0.981490	0.210414	0.630366
C58	C	0.981492	0.270769	0.630356
C59	C	0.878581	0.341707	0.663512
C60	C	0.775661	0.352289	0.696665
C61	C	0.775663	0.291935	0.696669
C62	C	0.799738	0.468556	0.722498
C63	C	0.799741	0.528908	0.722497
C64	C	0.878573	0.527861	0.663499
C65	C	0.957420	0.466448	0.604505
C66	C	0.957422	0.406094	0.604508
C67	C	0.878568	0.407156	0.663511
C68	C	0.981488	0.582717	0.630333
C69	C	0.981485	0.643074	0.630320
C70	C	0.775652	0.724595	0.696636
C71	C	0.775657	0.664238	0.696642
C72	C	0.878578	0.593301	0.663492
C73	C	0.775667	0.008265	0.412982
C74	C	0.775666	0.008268	0.352628
C75	C	0.878576	-0.032495	0.289294
C76	C	0.981496	-0.073250	0.286316
C77	C	0.981494	-0.073246	0.346670
C78	C	0.957419	-0.097319	0.168274
C79	C	0.957416	-0.097325	0.107923
C80	C	0.878585	-0.032507	0.103140
C81	C	0.799737	0.032318	0.158723
C82	C	0.799736	0.032322	0.219077
C83	C	0.878589	-0.032504	0.223846
C84	C	0.775670	0.008253	0.040680
C85	C	0.775673	0.008258	-0.019677
C86	C	0.981506	-0.073268	-0.085989
C87	C	0.981500	-0.073265	-0.025632
C88	C	0.878579	-0.032507	0.037699
C89	C	0.878583	-0.032503	0.852759
C90	C	0.878584	-0.032505	0.916992
C91	C	0.615073	-0.022763	0.843016
C92	C	0.525642	-0.019460	0.903944
C93	C	0.615073	0.166505	0.653771
C94	C	0.525642	0.234044	0.650470
C95	C	0.615077	0.166498	0.843033
C96	C	0.525647	0.234035	0.903965
C97	C	1.142080	-0.231491	0.483961
C98	C	1.231510	-0.299028	0.423029
C99	C	1.142084	-0.042229	0.483978
C100	C	1.231516	-0.045533	0.423050
C101	C	1.142084	-0.231497	0.673223
C102	C	1.231516	-0.299037	0.676524
C103	C	0.483642	-0.054870	0.895595
C104	C	0.399624	-0.051781	0.952838
C105	C	0.357600	-0.013276	1.018427
C106	C	0.399608	0.022135	1.026774
C107	C	0.483631	0.019041	0.969533
C108	C	0.483646	0.302723	0.685880
C109	C	0.399627	0.366189	0.682776
C110	C	0.357601	0.360974	0.644266
C111	C	0.399605	0.292287	0.608852
C112	C	0.483628	0.228823	0.611952
C113	C	0.483650	0.228793	0.969540
C114	C	0.399633	0.292245	1.026799
C115	C	0.357609	0.360938	1.018482
C116	C	0.399614	0.366179	0.952900
C117	C	0.483636	0.302728	0.895643
C118	C	1.273518	-0.293786	0.357454
C119	C	1.357561	-0.357239	0.300196
C120	C	1.399589	-0.425932	0.308514
C121	C	1.357579	-0.431173	0.374095
C122	C	1.273542	-0.367721	0.431352
C123	C	1.273524	-0.010129	0.431399
C124	C	1.357566	-0.013235	0.374157
C125	C	1.399592	-0.051742	0.308568
C126	C	1.357580	-0.087151	0.300221
C127	C	1.273546	-0.084048	0.357462
C128	C	1.273515	-0.293798	0.715041
C129	C	1.357534	-0.357252	0.718155
C130	C	1.399558	-0.425944	0.682749
C131	C	1.357550	-0.431181	0.644231
C132	C	1.273527	-0.367728	0.641121
H133	H	0.517827	-0.086218	0.717212
H134	H	0.365386	0.422118	0.946138
H135	H	1.065298	-0.106459	-0.137556
H136	H	1.239345	-0.112877	0.350654
Br137	Br	1.216546	-0.374851	0.588837
H138	H	1.065292	0.524957	0.603336
Br139	Br	0.692731	0.120291	0.152247
Br140	Br	1.513640	-0.055946	0.230890
Br141	Br	0.216463	0.042161	0.588908
Br142	Br	1.414627	-0.524406	0.385372
H143	H	0.691871	0.410052	0.723659
H144	H	0.691865	0.041456	0.092247
Br145	Br	0.342637	0.459396	0.730844
Br146	Br	0.342561	0.074391	1.115794
Br147	Br	0.540617	0.309856	0.806650
Br148	Br	1.121168	0.114146	0.585372
H149	H	0.517854	0.172865	0.976326
Br150	Br	0.414602	-0.139427	0.770415
H151	H	0.289183	-0.010762	1.065031
H152	H	0.239329	-0.112876	0.743888
H153	H	0.365362	0.053522	0.577484
Br154	Br	1.513593	-0.512054	0.686977
H155	H	1.391811	-0.118503	0.246810
Br156	Br	1.216537	-0.374848	0.520344
Br157	Br	1.216510	0.042134	0.520406
Br158	Br	0.635993	0.306301	0.741664
H159	H	0.365431	-0.080618	0.946028
Br160	Br	0.540614	0.067109	0.980875
H161	H	1.065286	-0.106439	0.234745
H162	H	0.517854	0.306983	0.717240
Br163	Br	1.216503	-0.200581	0.763098
H164	H	1.391728	-0.352974	0.749520
Br165	Br	1.121167	-0.128578	-0.029677
H166	H	0.517835	0.047885	0.583109
Br167	Br	0.243569	0.447113	0.640065
H168	H	1.065293	0.262150	0.603356
Br169	Br	1.064419	0.322754	0.524447
H170	H	1.065287	0.634449	0.603319
Br171	Br	0.692732	0.612248	0.802559
H172	H	1.391778	-0.487119	0.615405
H173	H	0.691860	0.782353	0.723628
Br174	Br	1.064421	0.465014	0.524432
Br175	Br	0.342557	0.285222	0.556591
Br176	Br	0.540658	-0.107135	0.806588
Br177	Br	1.414561	0.034825	0.385502
H178	H	0.691860	0.672860	0.723642
H179	H	0.735533	0.469421	0.770543
H180	H	1.239302	-0.237857	0.350668
H181	H	0.691860	0.041450	0.464546
H182	H	0.691864	0.041455	0.355055
H183	H	0.735540	0.085105	0.264329
H184	H	0.517810	0.172904	0.583119
H185	H	0.365440	0.287965	1.080194
Br186	Br	0.243578	0.447045	1.096196
H187	H	0.691871	0.041449	-0.017244
H188	H	1.391752	-0.352957	0.246802
H189	H	1.021615	-0.150110	0.062671
H190	H	1.021630	-0.150104	0.172155
H191	H	1.468017	-0.477593	0.261886
Br192	Br	1.121164	-0.128557	0.342625
