data_functionalizedCrystal
_audit_creation_method	'MofGen! by Chris Wilmer'
_symmetry_space_group_name_H-M	'P1'
_symmetry_Int_Tables_number	1
_symmetry_cell_setting	triclinic
loop_
_symmetry_equiv_pos_as_xyz
  x,y,z
_cell_length_a	15.944493
_cell_length_b	15.944551
_cell_length_c	10.268362
_cell_angle_alpha	89.993764
_cell_angle_beta	89.995981
_cell_angle_gamma	83.486891
loop_
_atom_site_label
_atom_site_type_symbol
_atom_site_fract_x
_atom_site_fract_y
_atom_site_fract_z
O1	O	1.114555	0.108101	-0.108286
O2	O	0.869998	0.121508	-0.108293
O3	O	0.998955	-0.007472	-0.108277
O4	O	0.985598	0.237081	-0.108301
O5	O	0.998943	-0.007477	0.108323
O6	O	0.869987	0.121503	0.108308
O7	O	1.114543	0.108095	0.108315
Cu8	Cu	0.992264	0.114799	0.128089
Cu9	Cu	0.992277	0.114805	-0.128066
O10	O	0.985587	0.237075	0.108300
C11	C	0.838698	0.120957	0.000007
C12	C	0.745449	0.119314	0.000005
C13	C	0.509689	0.195235	-0.000003
C14	C	0.459125	0.154291	0.106802
C15	C	0.574728	0.116270	0.000008
C16	C	0.459141	0.154278	-0.106750
C17	C	0.409819	0.113336	0.000005
C18	C	0.525393	0.075348	0.106901
C19	C	0.525412	0.075346	-0.106746
C20	C	0.474880	0.034345	0.000085
C21	C	0.669728	0.117963	0.000010
C22	C	0.314821	0.111637	0.000011
C23	C	0.998395	-0.038768	0.000023
C24	C	0.996732	-0.132014	0.000024
C25	C	0.912826	-0.346853	0.000004
C26	C	0.951784	-0.407881	0.106802
C27	C	0.993725	-0.302739	0.000014
C28	C	0.951814	-0.407860	-0.106749
C29	C	0.990814	-0.467651	-0.000002
C30	C	1.032705	-0.362539	0.106900
C31	C	1.032724	-0.362511	-0.106747
C32	C	1.071741	-0.423521	0.000078
C33	C	0.995399	-0.207737	0.000024
C34	C	0.989146	-0.562652	-0.000002
C35	C	1.145844	0.108646	0.000012
C36	C	1.239092	0.110289	0.000006
C37	C	0.986147	0.268372	-0.000004
C38	C	0.987809	0.361617	-0.000013
N39	N	0.992261	0.114794	0.308255
N40	N	0.992287	0.114803	-0.308232
C41	C	0.992273	0.114803	0.573925
C42	C	0.992264	0.114800	0.426087
H43	H	0.525313	0.263254	0.000090
H44	H	0.430183	0.187637	0.197089
C45	C	1.204607	-0.445453	0.112070
C46	C	1.162465	-0.468314	0.000158
H47	H	1.260613	-0.473113	0.112126
H48	H	1.206146	-0.386079	0.112778
H49	H	1.175646	-0.461678	0.187206
H50	H	1.191423	-0.452084	-0.074978
H51	H	1.160931	-0.527702	-0.000562
H52	H	0.917591	-0.427927	-0.197045
C53	C	0.651861	0.032367	0.227851
C54	C	0.564294	0.030362	0.228928
H55	H	0.675875	0.004600	0.303191
H56	H	0.675123	0.004519	0.152117
H57	H	0.663970	0.089344	0.227538
H58	H	0.552185	-0.026615	0.229232
H59	H	0.541024	0.058208	0.304683
H60	H	1.066916	-0.342386	-0.197039
H61	H	0.554362	0.042026	-0.197039
C62	C	0.487758	-0.098690	0.112086
C63	C	0.453990	-0.057544	0.000174
H64	H	0.474854	-0.155415	0.112147
H65	H	0.547260	-0.098122	0.112790
H66	H	0.464050	-0.070443	0.187222
H67	H	0.477703	-0.085787	-0.074962
H68	H	0.394476	-0.058116	-0.000541
H69	H	0.430207	0.187644	-0.197032
C70	C	0.780011	-0.324596	0.112118
C71	C	0.822180	-0.301862	0.000140
H72	H	0.724054	-0.296814	0.112207
H73	H	0.778335	-0.383951	0.112882
H74	H	0.809041	-0.308427	0.187208
H75	H	0.793153	-0.318037	-0.074951
H76	H	0.823852	-0.242494	-0.000637
C77	C	0.905202	-0.522803	0.227963
C78	C	0.905590	-0.435030	0.228684
H79	H	0.876684	-0.539559	0.303209
H80	H	0.877010	-0.539070	0.152133
H81	H	0.961652	-0.549305	0.228079
H82	H	0.849140	-0.408527	0.228559
H83	H	0.933780	-0.418754	0.304534
H84	H	1.066889	-0.342558	0.197289
