data_functionalizedCrystal
_audit_creation_method	'MofGen! by Chris Wilmer'
_symmetry_space_group_name_H-M	'P1'
_symmetry_Int_Tables_number	1
_symmetry_cell_setting	triclinic
loop_
_symmetry_equiv_pos_as_xyz
  x,y,z
_cell_length_a	12.594516
_cell_length_b	21.395364
_cell_length_c	21.395356
_cell_angle_alpha	90.024334
_cell_angle_beta	89.979423
_cell_angle_gamma	89.967246
loop_
_atom_site_label
_atom_site_type_symbol
_atom_site_fract_x
_atom_site_fract_y
_atom_site_fract_z
Zn1	Zn	-0.423295	-0.957917	-0.354305
Zn2	Zn	-0.601288	-0.957848	-0.249540
Zn3	Zn	-0.423375	-0.853134	-0.249540
Zn4	Zn	-0.601283	-0.853128	-0.354279
O5	O	-0.512310	-0.905507	-0.301916
O6	O	-0.446874	-1.045586	-0.340418
O7	O	-0.577722	-0.943931	-0.161862
O8	O	-0.274419	-0.867065	-0.263448
O9	O	-0.577644	-1.045535	-0.263448
O10	O	-0.274360	-0.944049	-0.340418
O11	O	-0.447011	-0.866998	-0.161862
O12	O	-0.447007	-0.765455	-0.263423
O13	O	-0.577637	-0.867055	-0.441961
O14	O	-0.577716	-0.765451	-0.340375
O15	O	-0.446870	-0.944043	-0.441979
O16	O	-0.750233	-0.943926	-0.263424
O17	O	-0.750230	-0.866988	-0.340375
C18	C	-0.512371	-0.742719	-0.301896
C19	C	-0.512422	-0.673078	-0.301903
C20	C	-0.444443	-0.640414	-0.342043
C21	C	-0.444418	-0.574978	-0.342044
C22	C	-0.512391	-0.542210	-0.301913
C23	C	-0.580375	-0.574882	-0.261765
C24	C	-0.580390	-0.640316	-0.261760
C25	C	-0.608251	-0.438500	-0.296881
C26	C	-0.608238	-0.373067	-0.296890
C27	C	-0.512343	-0.340389	-0.301924
C28	C	-0.416459	-0.373152	-0.306962
C29	C	-0.416474	-0.438586	-0.306957
C30	C	-0.512381	-0.471257	-0.301913
C31	C	-0.444331	-0.236772	-0.342068
C32	C	-0.444304	-0.171335	-0.342065
C33	C	-0.580271	-0.171240	-0.261789
C34	C	-0.580288	-0.236676	-0.261788
C35	C	-0.512320	-0.269438	-0.301931
C36	C	-0.788851	-0.905466	-0.301910
C37	C	-0.907157	-0.905505	-0.301928
C38	C	-0.976447	-0.863655	-0.343753
C39	C	-1.047310	-0.848387	-0.286580
C40	C	-1.047092	-0.920831	-0.359110
C41	C	-0.976462	-0.890207	-0.244726
C42	C	-0.976238	-0.962678	-0.317294
C43	C	-1.047069	-0.947431	-0.260083
C44	C	-0.234689	-0.905565	-0.301936
C45	C	-0.116384	-0.905590	-0.301945
C46	C	-0.512244	-0.905556	-0.465340
C47	C	-0.512216	-0.905577	-0.534981
C48	C	-0.512264	-0.068930	-0.301933
C49	C	-0.512277	-0.138571	-0.301932
C50	C	-0.444147	-0.865529	-0.567684
C51	C	-0.444127	-0.865527	-0.633119
C52	C	-0.512166	-0.905584	-0.665849
C53	C	-0.580248	-0.945635	-0.633138
C54	C	-0.580273	-0.945632	-0.567704
C55	C	-0.520506	-0.962037	-0.769537
C56	C	-0.520473	-0.962042	-0.834970
C57	C	-0.512094	-0.905594	-0.867670
C58	C	-0.503725	-0.849141	-0.834929
C59	C	-0.503750	-0.849137	-0.769495
C60	C	-0.512146	-0.905592	-0.736802
C61	C	-0.444000	-0.865540	-0.971326
C62	C	-0.443987	-0.865537	-1.036762
C63	C	-0.580102	-0.945651	-1.036780
C64	C	-0.580120	-0.945649	-0.971344
C65	C	-0.512063	-0.905594	-0.938621
C66	C	-0.512299	-0.905494	-0.139129
C67	C	-0.512027	-0.905594	-0.069488
H68	H	-0.338372	-0.346547	-0.311061
H69	H	-0.945436	-0.828200	-0.379071
H70	H	-1.077883	-0.982859	-0.224679
H71	H	-0.635718	-0.548198	-0.229089
H72	H	-0.635498	-0.978268	-1.063428
H73	H	-1.078551	-0.800077	-0.273597
H74	H	-0.388980	-0.263448	-0.374750
H75	H	-0.945000	-1.010977	-0.330305
H76	H	-0.388734	-0.832911	-0.541045
H77	H	-0.496938	-0.803171	-0.742840
H78	H	-1.078118	-0.933759	-0.407462
H79	H	-0.388692	-0.832915	-0.659752
H80	H	-0.527320	-1.008007	-0.742918
H81	H	-0.388941	-0.144741	-0.374750
H82	H	-0.389056	-0.548378	-0.374730
H83	H	-0.635616	-0.144561	-0.229113
H84	H	-0.388584	-0.832925	-0.944681
H85	H	-0.945565	-0.877223	-0.196361
H86	H	-0.635649	-0.263271	-0.229105
H87	H	-0.496894	-0.803176	-0.861552
H88	H	-0.686312	-0.346396	-0.292791
H89	H	-0.388561	-0.832920	-1.063388
H90	H	-0.635547	-0.978262	-0.944717
H91	H	-0.527282	-1.008010	-0.861622
H92	H	-0.635645	-0.978250	-0.659791
H93	H	-0.635702	-0.978247	-0.541077
H94	H	-0.635749	-0.666911	-0.229073
H95	H	-0.338403	-0.465259	-0.311057
H96	H	-0.686346	-0.465101	-0.292781
H97	H	-0.389097	-0.667084	-0.374730
