data_functionalizedCrystal
_audit_creation_method	'MofGen! by Chris Wilmer'
_symmetry_space_group_name_H-M	'P1'
_symmetry_Int_Tables_number	1
_symmetry_cell_setting	triclinic
loop_
_symmetry_equiv_pos_as_xyz
  x,y,z
_cell_length_a	14.044191
_cell_length_b	10.489716
_cell_length_c	13.101039
_cell_angle_alpha	93.400284
_cell_angle_beta	86.337551
_cell_angle_gamma	88.860456
loop_
_atom_site_label
_atom_site_type_symbol
_atom_site_fract_x
_atom_site_fract_y
_atom_site_fract_z
O1	O	1.264956	0.301341	-0.085148
O2	O	1.598289	0.634675	0.248186
O3	O	1.931623	0.968008	0.581519
O4	O	0.988912	0.290226	-0.085161
O5	O	1.322245	0.623559	0.248172
O6	O	1.655579	0.956893	0.581505
O7	O	1.133228	0.110822	-0.085158
O8	O	1.466561	0.444155	0.248176
O9	O	1.799894	0.777489	0.581509
O10	O	1.120640	0.480745	-0.085151
O11	O	1.453974	0.814079	0.248182
O12	O	1.787307	1.147412	0.581516
O13	O	1.122873	0.123717	0.085272
O14	O	1.456207	0.457051	0.418605
O15	O	1.789540	0.790384	0.751938
O16	O	0.978558	0.303121	0.085268
O17	O	1.311891	0.636455	0.418602
O18	O	1.645224	0.969788	0.751935
O19	O	1.254602	0.314237	0.085282
O20	O	1.587935	0.647570	0.418615
O21	O	1.921268	0.980903	0.751949
Zn22	Zn	1.114936	0.310726	0.112335
Zn23	Zn	1.448269	0.644060	0.445668
Zn24	Zn	1.781602	0.977393	0.779001
Zn25	Zn	1.128578	0.293736	-0.112214
Zn26	Zn	1.461911	0.627070	0.221120
Zn27	Zn	1.795245	0.960403	0.554453
O28	O	1.110286	0.493641	0.085279
O29	O	1.443619	0.826974	0.418612
O30	O	1.776953	1.160307	0.751945
C31	C	0.948388	0.291811	0.000052
C32	C	1.281721	0.625145	0.333385
C33	C	1.615054	0.958478	0.666718
C34	C	0.843064	0.277307	0.000046
C35	C	1.176397	0.610641	0.333379
C36	C	1.509731	0.943974	0.666713
C37	C	0.593293	0.353654	0.000058
C38	C	0.926626	0.686988	0.333391
C39	C	1.259960	1.020321	0.666724
C40	C	0.650227	0.250813	0.000054
C41	C	0.983560	0.584147	0.333387
C42	C	1.316894	0.917480	0.666721
C43	C	0.757531	0.265558	0.000050
C44	C	1.090865	0.598892	0.333383
C45	C	1.424198	0.932225	0.666716
C46	C	0.485979	0.338911	0.000062
C47	C	0.819312	0.672245	0.333395
C48	C	1.152645	1.005578	0.666729
C49	C	1.127105	0.069641	0.000054
C50	C	1.460438	0.402975	0.333387
C51	C	1.793772	0.736308	0.666720
C52	C	1.124276	-0.072277	0.000044
C53	C	1.457609	0.261056	0.333378
C54	C	1.790943	0.594389	0.666711
C55	C	1.212774	-0.160971	0.000058
C56	C	1.546108	0.172362	0.333391
C57	C	1.879441	0.505696	0.666725
C58	C	1.171115	-0.249435	-0.083972
C59	C	1.504448	0.083899	0.249361
C60	C	1.837781	0.417232	0.582694
C61	C	1.160886	-0.236687	0.084058
C62	C	1.494219	0.096646	0.417391
C63	C	1.827552	0.429980	0.750725
C64	C	1.082658	-0.158877	-0.084055
C65	C	1.415991	0.174456	0.249278
C66	C	1.749324	0.507790	0.582611
C67	C	1.072437	-0.146117	0.084050
C68	C	1.405770	0.187217	0.417384
C69	C	1.739104	0.520550	0.750717
C70	C	1.030714	-0.234539	-0.000001
C71	C	1.364047	0.098794	0.333333
C72	C	1.697380	0.432127	0.666666
C73	C	1.295126	0.312651	0.000067
C74	C	1.628460	0.645985	0.333400
C75	C	1.961793	0.979318	0.666733
C76	C	1.400450	0.327154	0.000066
C77	C	1.733784	0.660488	0.333399
C78	C	2.067117	0.993821	0.666732
C79	C	1.116409	0.534821	0.000065
C80	C	1.449742	0.868154	0.333398
C81	C	1.783076	1.201488	0.666731
C82	C	1.119238	0.676739	0.000067
C83	C	1.452572	1.010073	0.333401
C84	C	1.785905	1.343406	0.666734
N85	N	1.105632	0.322322	0.265583
N86	N	1.438966	0.655655	0.598916
N87	N	1.772299	0.988988	0.932249
N88	N	1.137889	0.282132	-0.265462
N89	N	1.471222	0.615465	0.067871
N90	N	1.804556	0.948798	0.401205
C91	C	1.092974	0.338109	0.474625
C92	C	1.426308	0.671442	0.807958
C93	C	1.759641	1.004776	1.141292
C94	C	1.150544	0.266348	0.525502
C95	C	1.483877	0.599681	0.858835
C96	C	1.817210	0.933015	1.192169
C97	C	1.143501	0.275132	0.641820
C98	C	1.476834	0.608466	0.975154
C99	C	1.810167	0.941799	1.308487
C100	C	1.100016	0.329326	0.358296
C101	C	1.433349	0.662660	0.691630
C102	C	1.766683	0.995993	1.024963
H103	H	0.618386	0.151689	-0.000020
H104	H	0.951719	0.485023	0.333313
H105	H	1.285053	0.818356	0.666647
H106	H	1.030795	-0.101011	0.155092
H107	H	1.364128	0.232323	0.488425
H108	H	1.697461	0.565656	0.821759
H109	H	1.193947	-0.270992	0.155097
H110	H	1.527281	0.062341	0.488431
H111	H	1.860614	0.395675	0.821764
Br112	Br	1.002016	0.451501	0.547623
Br113	Br	1.335349	0.784834	0.880956
Br114	Br	1.668682	1.118167	1.214289
H115	H	1.205120	0.198315	0.481701
H116	H	1.538454	0.531649	0.815035
H117	H	1.871787	0.864982	1.148368
Br118	Br	0.646368	0.518849	0.000050
Br119	Br	0.979702	0.852183	0.333383
Br120	Br	1.313035	1.185516	0.666717
H121	H	1.212789	-0.294514	-0.155012
H122	H	1.546123	0.038819	0.178322
H123	H	1.879456	0.372152	0.511655
Br124	Br	1.341083	-0.106830	-0.000070
Br125	Br	1.674416	0.226503	0.333263
Br126	Br	2.007750	0.559837	0.666596
H127	H	0.953680	-0.266790	-0.000050
H128	H	1.287013	0.066544	0.333284
H129	H	1.620346	0.399877	0.666617
Br130	Br	1.027627	-0.101995	-0.202597
Br131	Br	1.360960	0.231339	0.130737
Br132	Br	1.694294	0.564672	0.464070
