data_functionalizedCrystal
_audit_creation_method	'MofGen! by Chris Wilmer'
_symmetry_space_group_name_H-M	'P1'
_symmetry_Int_Tables_number	1
_symmetry_cell_setting	triclinic
loop_
_symmetry_equiv_pos_as_xyz
  x,y,z
_cell_length_a	19.188930
_cell_length_b	14.044191
_cell_length_c	13.101039
_cell_angle_alpha	86.337551
_cell_angle_beta	93.345801
_cell_angle_gamma	88.168279
loop_
_atom_site_label
_atom_site_type_symbol
_atom_site_fract_x
_atom_site_fract_y
_atom_site_fract_z
O1	O	0.164780	1.262238	-0.085186
O2	O	0.664780	1.762238	0.414814
O3	O	0.158702	0.986294	-0.085198
O4	O	0.658702	1.486294	0.414802
O5	O	0.060600	1.132228	-0.085172
O6	O	0.560600	1.632228	0.414828
O7	O	0.262881	1.116304	-0.085213
O8	O	0.762881	1.616304	0.414787
O9	O	0.067651	1.121757	0.085256
O10	O	0.567651	1.621757	0.585256
O11	O	0.165753	0.975824	0.085229
O12	O	0.665753	1.475824	0.585229
O13	O	0.171831	1.251767	0.085242
O14	O	0.671831	1.751767	0.585242
Zn15	Zn	0.169912	1.112133	0.112295
Zn16	Zn	0.669912	1.612133	0.612295
Zn17	Zn	0.160621	1.125929	-0.112251
Zn18	Zn	0.660621	1.625929	0.387749
O19	O	0.269933	1.105834	0.085215
O20	O	0.769933	1.605834	0.585215
C21	C	0.159568	0.945756	0.000014
C22	C	0.659568	1.445756	0.500014
C23	C	0.151637	0.840563	0.000010
C24	C	0.651637	1.340563	0.500010
C25	C	0.193385	0.590103	0.000012
C26	C	0.693385	1.090103	0.500012
C27	C	0.137150	0.647965	0.000022
C28	C	0.637150	1.147965	0.500022
C29	C	0.145213	0.755136	0.000016
C30	C	0.645213	1.255136	0.500016
C31	C	0.185324	0.482922	0.000019
C32	C	0.685324	0.982922	0.500019
C33	C	0.038081	1.126477	0.000045
C34	C	0.538081	1.626477	0.500045
C35	C	-0.039523	1.124928	0.000054
C36	C	0.460477	1.624928	0.500054
C37	C	-0.078919	1.210558	0.000062
C38	C	0.421081	1.710558	0.500062
C39	C	-0.151837	1.209104	0.000046
C40	C	0.348163	1.709104	0.500046
C41	C	-0.185356	1.122015	0.000041
C42	C	0.314644	1.622015	0.500041
C43	C	-0.145951	1.036374	0.000027
C44	C	0.354049	1.536374	0.500027
C45	C	-0.073034	1.037831	0.000033
C46	C	0.426966	1.537831	0.500033
N47	N	-0.295258	1.051882	0.058038
N48	N	0.204742	1.551882	0.558038
N49	N	-0.364526	1.050504	0.058034
N50	N	0.135474	1.550504	0.558034
C51	C	-0.405049	1.117621	0.000020
C52	C	0.094951	1.617621	0.500020
N53	N	-0.373687	1.186182	-0.057977
N54	N	0.126313	1.686182	0.442023
N55	N	-0.304413	1.187562	-0.057969
N56	N	0.195587	1.687562	0.442031
C57	C	-0.264421	1.120426	0.000034
C58	C	0.235579	1.620426	0.500034
C59	C	-0.523512	1.201681	0.000010
C60	C	-0.023512	1.701681	0.500010
C61	C	-0.596432	1.200224	-0.000013
C62	C	-0.096432	1.700224	0.499987
C63	C	-0.590543	1.027491	-0.000022
C64	C	-0.090543	1.527491	0.499978
C65	C	-0.517625	1.028951	-0.000009
C66	C	-0.017625	1.528951	0.499991
C67	C	-0.484114	1.116048	0.000011
C68	C	0.015886	1.616048	0.500011
C69	C	0.292451	1.111585	-0.000004
C70	C	0.792451	1.611585	0.499996
C71	C	0.370055	1.113134	-0.000019
C72	C	0.870055	1.613134	0.499981
C73	C	0.170964	1.292306	0.000027
C74	C	0.670964	1.792306	0.500027
C75	C	0.178895	1.397499	0.000024
C76	C	0.678895	1.897499	0.500024
N77	N	0.176252	1.102725	0.265541
N78	N	0.676252	1.602725	0.765541
N79	N	0.154275	1.135344	-0.265498
N80	N	0.654275	1.635344	0.234502
C81	C	0.184885	1.089925	0.474582
C82	C	0.684885	1.589925	0.974582
C83	C	0.145645	1.148141	0.525468
C84	C	0.645645	1.648141	1.025468
C85	C	0.150448	1.141019	0.641785
C86	C	0.650448	1.641019	1.141785
C87	C	0.180082	1.097046	0.358254
C88	C	0.680082	1.597046	0.858254
H89	H	-0.183920	1.278836	0.000049
H90	H	0.316080	1.778836	0.500049
C91	C	-0.030162	0.944919	0.000189
C92	C	0.469838	1.444919	0.500189
C93	C	0.015497	0.935333	0.087863
C94	C	0.515497	1.435333	0.587863
C95	C	0.055010	0.849760	0.088036
C96	C	0.555010	1.349760	0.588036
H97	H	-0.060480	0.892759	0.000233
H98	H	0.439520	1.392759	0.500233
H99	H	-0.004003	0.945542	-0.059208
H100	H	0.495997	1.445542	0.440792
H101	H	-0.010660	0.934701	0.147245
H102	H	0.489340	1.434701	0.647245
H103	H	0.045829	0.987472	0.087838
H104	H	0.545829	1.487472	0.587838
H105	H	0.081169	0.850384	0.028639
H106	H	0.581169	1.350384	0.528639
H107	H	0.024687	0.797607	0.088077
H108	H	0.524687	1.297607	0.588077
H109	H	0.085999	0.843249	0.147517
H110	H	0.585999	1.343249	0.647517
C111	C	0.064870	0.606742	0.000239
C112	C	0.564870	1.106742	0.500239
C113	C	0.032334	0.632274	0.087934
C114	C	0.532334	1.132274	0.587934
C115	C	-0.034244	0.594301	0.088170
C116	C	0.465756	1.094301	0.588170
H117	H	0.037691	0.631254	-0.059123
H118	H	0.537691	1.131254	0.440877
H119	H	0.068957	0.539143	0.000293
H120	H	0.568957	1.039143	0.500293
H121	H	0.028243	0.699859	0.087870
H122	H	0.528243	1.199859	0.587870
H123	H	0.059492	0.607763	0.147310
H124	H	0.559492	1.107763	0.647310
H125	H	-0.030156	0.526702	0.088225
H126	H	0.469844	1.026702	0.588225
H127	H	-0.061416	0.618816	0.028804
H128	H	0.438584	1.118816	0.528804
H129	H	-0.056325	0.611612	0.147674
H130	H	0.443675	1.111612	0.647674
H131	H	0.222085	1.034739	0.518369
H132	H	0.722085	1.534739	1.018369
C133	C	-0.487167	1.296279	-0.000198
C134	C	0.012833	1.796279	0.499802
C135	C	-0.510279	1.353400	-0.087898
C136	C	-0.010279	1.853400	0.412102
C137	C	-0.476809	1.440544	-0.088135
C138	C	0.023191	1.940544	0.411865
H139	H	-0.497852	1.328000	0.059160
H140	H	0.002148	1.828000	0.559160
H141	H	-0.438095	1.284924	-0.000247
H142	H	0.061905	1.784924	0.499753
H143	H	-0.559340	1.364758	-0.087840
H144	H	-0.059340	1.864758	0.412160
H145	H	-0.499594	1.321709	-0.147271
H146	H	0.000406	1.821709	0.352729
H147	H	-0.427736	1.429188	-0.088183
H148	H	0.072264	1.929188	0.411817
H149	H	-0.487496	1.472256	-0.028772
H150	H	0.012504	1.972256	0.471228
H151	H	-0.492480	1.479307	-0.147642
H152	H	0.007520	1.979307	0.352358
C153	C	0.265590	0.631553	-0.000065
C154	C	0.765590	1.131553	0.499935
C155	C	0.259330	0.731155	-0.000096
C156	C	0.759330	1.231155	0.499904
C157	C	0.325828	0.769385	-0.000185
C158	C	0.825828	1.269385	0.499815
H159	H	0.292755	0.607123	0.059343
H160	H	0.792755	1.107123	0.559343
H161	H	0.287777	0.614363	-0.059529
H162	H	0.787777	1.114363	0.440471
H163	H	0.237153	0.748337	0.059362
H164	H	0.737153	1.248337	0.559362
H165	H	0.232177	0.755611	-0.059500
H166	H	0.732177	1.255611	0.440500
H167	H	0.348014	0.752195	-0.059649
H168	H	0.848014	1.252195	0.440351
H169	H	0.352987	0.744948	0.059224
H170	H	0.852987	1.244948	0.559224
H171	H	0.321589	0.836969	-0.000216
H172	H	0.821589	1.336969	0.499784
H173	H	-0.051639	1.281479	0.000076
H174	H	0.448361	1.781479	0.500076
H175	H	-0.173246	0.965466	0.000021
H176	H	0.326754	1.465466	0.500021
H177	H	-0.617833	0.956582	-0.000031
H178	H	-0.117833	1.456582	0.499969
H179	H	-0.628508	1.269957	-0.000012
H180	H	-0.128508	1.769957	0.499988
H181	H	-0.485548	0.959222	-0.000011
H182	H	0.014452	1.459222	0.499989
H183	H	0.108443	1.203332	0.481676
H184	H	0.608443	1.703332	0.981676
