data_functionalizedCrystal
_audit_creation_method	'MofGen! by Chris Wilmer'
_symmetry_space_group_name_H-M	'P1'
_symmetry_Int_Tables_number	1
_symmetry_cell_setting	triclinic
loop_
_symmetry_equiv_pos_as_xyz
  x,y,z
_cell_length_a	6.817900
_cell_length_b	16.255661
_cell_length_c	14.858329
_cell_angle_alpha	95.053856
_cell_angle_beta	75.480384
_cell_angle_gamma	76.511078
loop_
_atom_site_label
_atom_site_type_symbol
_atom_site_fract_x
_atom_site_fract_y
_atom_site_fract_z
V1	V	4.031897	-0.264114	-0.129422
O2	O	4.013972	-0.258838	0.005446
O3	O	3.988515	-0.262546	-0.255879
O4	O	3.983393	-0.379194	-0.127771
O5	O	4.019130	-0.141383	-0.123549
V6	V	4.514888	-0.249405	-0.113250
O7	O	4.294322	-0.296378	-0.164897
O8	O	4.702661	-0.217140	-0.077776
O9	O	4.335064	-0.250973	0.013206
O10	O	4.650210	-0.254681	-0.248119
O11	O	4.645052	-0.372136	-0.119124
O12	O	4.340186	-0.134325	-0.114902
C13	C	3.834740	-0.258441	-0.286696
C14	C	3.880557	-0.257927	-0.390078
C15	C	3.917759	-0.257501	-0.474035
C16	C	3.964450	-0.256971	-0.579363
C17	C	4.001679	-0.256549	-0.663314
C18	C	4.048373	-0.256017	-0.768649
C19	C	3.828205	-0.407236	-0.123280
C20	C	3.869864	-0.501316	-0.122766
C21	C	3.780175	-0.724123	-0.116631
C22	C	3.939764	-0.793748	-0.195814
C23	C	3.946210	-0.673563	-0.121803
C24	C	3.860876	-0.771574	-0.041714
C25	C	4.019941	-0.839945	-0.120869
C26	C	4.105283	-0.741958	-0.201057
C27	C	4.026331	-0.719768	-0.046887
C28	C	4.186057	-0.789373	-0.126092
C29	C	3.903731	-0.577715	-0.122342
C30	C	4.062438	-0.935792	-0.120337
C31	C	4.152181	-0.255075	0.044018
C32	C	4.085603	-0.255595	0.147400
C33	C	4.158716	-0.106278	-0.119396
C34	C	4.096295	-0.012197	-0.119905
H35	H	3.903613	-0.825952	-0.258778
N36	N	4.234396	-0.725216	-0.285621
N37	N	4.222949	-0.649774	-0.299691
H38	H	4.314129	-0.637947	-0.359414
N39	N	4.401874	-0.824936	-0.131141
N40	N	4.543323	-0.818977	-0.200421
H41	H	4.695747	-0.844094	-0.203991
H42	H	4.062403	-0.687542	0.016080
N43	N	3.731734	-0.788484	0.042741
N44	N	3.536111	-0.764239	0.060946
H45	H	3.444889	-0.776193	0.120581
H46	H	3.608265	-0.695636	-0.112734
