data_functionalizedCrystal
_audit_creation_method	'MofGen! by Chris Wilmer'
_symmetry_space_group_name_H-M	'P1'
_symmetry_Int_Tables_number	1
_symmetry_cell_setting	triclinic
loop_
_symmetry_equiv_pos_as_xyz
  x,y,z
_cell_length_a	13.033748
_cell_length_b	21.295417
_cell_length_c	13.033429
_cell_angle_alpha	82.774985
_cell_angle_beta	105.146268
_cell_angle_gamma	97.225772
loop_
_atom_site_label
_atom_site_type_symbol
_atom_site_fract_x
_atom_site_fract_y
_atom_site_fract_z
Zn1	Zn	1.547446	-0.101829	-0.394588
Zn2	Zn	1.569841	-0.218988	-0.216978
Zn3	Zn	1.392375	-0.125607	-0.239520
Zn4	Zn	1.369777	-0.218956	-0.417051
O5	O	1.469860	-0.166345	-0.317034
O6	O	1.699042	-0.107432	-0.352193
O7	O	1.565129	-0.216565	-0.071341
O8	O	1.413030	-0.034355	-0.260123
O9	O	1.715495	-0.193508	-0.221704
O10	O	1.526960	-0.016885	-0.374050
O11	O	1.434746	-0.147959	-0.087902
O12	O	1.240752	-0.147928	-0.281904
O13	O	1.374516	-0.193454	-0.562699
O14	O	1.224150	-0.216511	-0.412336
O15	O	1.505048	-0.107401	-0.546195
O16	O	1.543217	-0.307082	-0.243486
O17	O	1.396231	-0.307059	-0.390478
C18	C	1.193914	-0.184797	-0.352004
C19	C	1.075861	-0.192705	-0.366990
C20	C	1.031402	-0.162232	-0.309240
C21	C	0.909388	-0.170404	-0.324727
C22	C	1.469728	-0.329910	-0.316993
C23	C	1.469764	-0.399875	-0.316999
C24	C	1.546351	-0.432724	-0.240522
C25	C	1.546398	-0.498461	-0.240539
C26	C	1.469840	-0.531349	-0.317025
C27	C	1.393247	-0.498492	-0.393516
C28	C	1.393209	-0.432754	-0.393503
N29	N	1.375902	-0.640291	-0.336897
N30	N	1.375942	-0.702738	-0.336903
C31	C	1.469951	-0.729412	-0.317071
N32	N	1.563924	-0.691280	-0.297212
N33	N	1.563883	-0.628827	-0.297201
C34	C	1.469873	-0.602630	-0.317048
C35	C	1.546595	-0.833541	-0.240609
C36	C	1.546643	-0.899279	-0.240633
C37	C	1.393483	-0.899309	-0.393606
C38	C	1.393444	-0.833572	-0.393585
C39	C	1.470000	-0.800692	-0.317081
C40	C	1.746882	-0.147821	-0.281928
C41	C	1.864933	-0.139928	-0.266968
C42	C	1.434763	-0.147772	-0.594062
C43	C	1.419807	-0.139857	-0.712115
C44	C	1.470018	-0.002138	-0.317095
C45	C	1.470085	0.067837	-0.317121
C46	C	1.462200	-0.162102	-0.878562
C47	C	1.477658	-0.170279	-0.756548
C48	C	1.504881	-0.184796	-0.041076
C49	C	1.520042	-0.192520	0.077002
H50	H	1.608689	-0.405955	-0.178230
H51	H	0.857123	-0.202547	-0.385635
H52	H	1.581012	-0.224612	-0.870711
H53	H	1.538632	-0.202374	-0.704264
H54	H	1.609016	-0.926023	-0.178358
H55	H	1.023592	-0.224845	-0.427894
H56	H	1.608768	-0.525212	-0.178262
H57	H	1.358843	-0.107756	-0.764396
H58	H	1.330915	-0.525273	-0.455793
H59	H	1.330841	-0.406008	-0.455781
H60	H	1.608934	-0.806769	-0.178317
H61	H	1.083671	-0.130097	-0.248328
H62	H	1.331152	-0.926086	-0.455886
H63	H	0.917197	-0.107789	-0.206053
H64	H	1.331076	-0.806825	-0.455856
H65	H	1.401239	-0.130004	-0.930848
