data_functionalizedCrystal
_audit_creation_method	'MofGen! by Chris Wilmer'
_symmetry_space_group_name_H-M	'P1'
_symmetry_Int_Tables_number	1
_symmetry_cell_setting	triclinic
loop_
_symmetry_equiv_pos_as_xyz
  x,y,z
_cell_length_a	19.288867
_cell_length_b	15.625429
_cell_length_c	17.766277
_cell_angle_alpha	71.916495
_cell_angle_beta	89.992126
_cell_angle_gamma	83.712539
loop_
_atom_site_label
_atom_site_type_symbol
_atom_site_fract_x
_atom_site_fract_y
_atom_site_fract_z
O1	O	0.921733	0.112472	-0.093262
O2	O	1.421733	0.612472	0.406738
O3	O	0.719524	0.127642	-0.097409
O4	O	1.219524	0.627642	0.402591
O5	O	0.826028	-0.011203	-0.059509
O6	O	1.326028	0.488797	0.440491
O7	O	0.815229	0.251317	-0.131163
O8	O	1.315229	0.751317	0.368837
O9	O	0.826010	-0.011210	0.065681
O10	O	1.326010	0.488790	0.565681
O11	O	0.719505	0.127635	0.027781
O12	O	1.219505	0.627635	0.527781
O13	O	0.921715	0.112465	0.031928
O14	O	1.421715	0.612465	0.531928
Cu15	Cu	0.820608	0.120049	0.041285
Cu16	Cu	1.320608	0.620049	0.541285
Cu17	Cu	0.820630	0.120058	-0.106767
Cu18	Cu	1.320630	0.620058	0.393233
O19	O	0.815210	0.251310	-0.005972
O20	O	1.315210	0.751310	0.494028
C21	C	0.693637	0.127150	-0.034682
C22	C	1.193637	0.627150	0.465318
C23	C	0.616528	0.125684	-0.034284
C24	C	1.116528	0.625684	0.465716
C25	C	0.060937	0.115127	-0.099635
C26	C	0.560937	0.615127	0.400365
C27	C	0.133390	0.116499	-0.100012
C28	C	0.633390	0.616499	0.399988
C29	C	0.169610	0.117186	-0.031959
C30	C	0.669610	0.617186	0.468041
C31	C	0.133375	0.116477	0.036482
C32	C	0.633375	0.616477	0.536482
C33	C	0.060925	0.115096	0.036860
C34	C	0.560925	0.615096	0.536860
C35	C	0.279116	0.172173	0.005313
C36	C	0.779116	0.672173	0.505313
C37	C	0.351564	0.173560	0.004931
C38	C	0.851564	0.673560	0.504931
C39	C	0.393070	0.121442	-0.033121
C40	C	0.893070	0.621442	0.466879
C41	C	0.362118	0.067949	-0.070806
C42	C	0.862118	0.567949	0.429194
C43	C	0.289669	0.066567	-0.070428
C44	C	0.789669	0.566567	0.429572
C45	C	0.248170	0.118683	-0.032361
C46	C	0.748170	0.618683	0.467639
C47	C	0.507858	0.123632	-0.101965
C48	C	1.007858	0.623632	0.398035
C49	C	0.580312	0.124999	-0.102338
C50	C	1.080312	0.624999	0.397662
C51	C	0.580296	0.124985	0.034156
C52	C	1.080296	0.624985	0.534156
C53	C	0.507844	0.123610	0.034529
C54	C	1.007844	0.623610	0.534529
C55	C	0.471629	0.122937	-0.033535
C56	C	0.971629	0.622937	0.466465
C57	C	0.825529	-0.044792	0.012252
C58	C	1.325529	0.455208	0.512252
C59	C	0.824061	-0.144867	0.039562
C60	C	1.324061	0.355133	0.539562
C61	C	0.819264	-0.473982	-0.211798
C62	C	1.319264	0.026018	0.288202
C63	C	0.817881	-0.568017	-0.186113
C64	C	1.317881	-0.068017	0.313887
C65	C	0.817861	-0.568011	-0.049639
C66	C	1.317861	-0.068011	0.450361
C67	C	0.819247	-0.473975	-0.075313
C68	C	1.319247	0.026025	0.424687
C69	C	0.819948	-0.426968	-0.156393
C70	C	1.319948	0.073032	0.343607
C71	C	0.819931	-0.426960	-0.019908
C72	C	1.319931	0.073040	0.480092
C73	C	0.821313	-0.332932	-0.045580
C74	C	1.321313	0.167068	0.454420
C75	C	0.822012	-0.285918	-0.126657
C76	C	1.322012	0.214082	0.373343
C77	C	0.821330	-0.332939	-0.182065
C78	C	1.321330	0.167061	0.317935
C79	C	0.819225	-0.473969	0.061172
C80	C	1.319225	0.026031	0.561172
C81	C	0.819909	-0.426954	0.116577
C82	C	1.319909	0.073046	0.616577
C83	C	0.821296	-0.332924	0.090906
C84	C	1.321296	0.167076	0.590906
C85	C	0.821995	-0.285910	0.009829
C86	C	1.321995	0.214090	0.509829
C87	C	0.821978	-0.285903	0.146314
C88	C	1.321978	0.214097	0.646314
C89	C	0.823360	-0.191874	0.120642
C90	C	1.323360	0.308126	0.620642
C91	C	0.823377	-0.191881	-0.015843
C92	C	1.323377	0.308119	0.484157
C93	C	0.947602	0.112957	-0.030801
C94	C	1.447602	0.612957	0.469199
C95	C	1.024710	0.114423	-0.031203
C96	C	1.524710	0.614423	0.468797
C97	C	0.815710	0.284899	-0.077734
C98	C	1.315710	0.784899	0.422266
C99	C	0.817178	0.384974	-0.105049
C100	C	1.317178	0.884974	0.394951
N101	N	0.820598	0.120043	0.145418
N102	N	1.320598	0.620043	0.645418
N103	N	0.820646	0.120057	-0.210897
N104	N	1.320646	0.620057	0.289103
C105	C	0.867773	0.058593	0.201579
C106	C	1.367773	0.558593	0.701579
C107	C	0.867777	0.058588	0.280381
C108	C	1.367777	0.558588	0.780381
C109	C	0.820612	0.120050	0.303016
C110	C	1.320612	0.620050	0.803016
C111	C	0.773428	0.181505	0.246844
C112	C	1.273428	0.681505	0.746844
C113	C	0.773421	0.181501	0.168045
C114	C	1.273421	0.681501	0.668045
C115	C	0.811592	0.202193	0.405433
C116	C	1.311592	0.702193	0.905433
C117	C	0.811604	0.202198	0.484231
C118	C	1.311604	0.702198	0.984231
C119	C	0.820631	0.120061	0.546060
C120	C	1.320631	0.620061	1.046060
C121	C	0.829660	0.037916	0.529082
C122	C	1.329660	0.537916	1.029082
C123	C	0.829653	0.037912	0.450283
C124	C	1.329653	0.537912	0.950283
C125	C	0.820615	0.120060	0.388459
C126	C	1.320615	0.620060	0.888459
C127	C	0.867813	0.058601	0.687669
C128	C	1.367813	0.558601	1.187669
C129	C	0.867812	0.058596	0.766474
C130	C	1.367812	0.558596	1.266474
C131	C	0.773467	0.181520	0.732933
C132	C	1.273467	0.681520	1.232933
C133	C	0.773464	0.181518	0.654132
C134	C	1.273464	0.681518	1.154132
C135	C	0.820641	0.120059	0.631504
C136	C	1.320641	0.620059	1.131504
H137	H	0.264471	0.023010	-0.101111
H138	H	0.764471	0.523010	0.398889
H139	H	0.031429	0.114526	0.092586
H140	H	0.531429	0.614526	0.592586
N141	N	0.722556	0.247791	0.271258
N142	N	1.222556	0.747791	0.771258
H143	H	0.749136	0.287626	0.293067
H144	H	1.249136	0.787626	0.793067
H145	H	0.692679	0.286659	0.223690
H146	H	1.192679	0.786659	0.723690
N147	N	0.918649	-0.007698	0.177175
N148	N	1.418649	0.492302	0.677175
H149	H	0.949430	0.026652	0.135094
H150	H	1.449430	0.526652	0.635094
H151	H	0.948488	-0.046611	0.224759
H152	H	1.448488	0.453389	0.724759
N153	N	0.817742	-0.575387	0.088863
N154	N	1.317742	-0.075387	0.588863
H155	H	0.817398	-0.598031	0.148632
H156	H	1.317398	-0.098031	0.648632
H157	H	0.774392	-0.590486	0.066154
H158	H	1.274392	-0.090486	0.566154
N159	N	0.801860	0.290791	0.502541
N160	N	1.301860	0.790791	1.002541
H161	H	0.840495	0.328261	0.478585
H162	H	1.340495	0.828261	0.978585
H163	H	0.755297	0.325064	0.479462
H164	H	1.255297	0.825064	0.979462
N165	N	0.918691	-0.007684	0.663256
N166	N	1.418691	0.492316	1.163256
H167	H	0.948575	-0.046620	0.710797
H168	H	1.448575	0.453380	1.210797
H169	H	0.892062	-0.047452	0.641423
H170	H	1.392062	0.452548	1.141423
N171	N	0.172433	0.117220	0.109885
N172	N	0.672433	0.617220	0.609885
H173	H	0.208072	0.061922	0.128018
H174	H	0.708072	0.561922	0.628018
H175	H	0.196868	0.173705	0.097468
H176	H	0.696868	0.673705	0.597468
H177	H	0.817288	-0.606297	0.016377
H178	H	1.317288	-0.106297	0.516377
H179	H	0.478347	0.123040	0.090252
H180	H	0.978347	0.623040	0.590252
N181	N	0.468787	0.122897	-0.175365
N182	N	0.968787	0.622897	0.324635
H183	H	0.475824	0.179011	-0.220517
H184	H	0.975824	0.679011	0.279483
H185	H	0.486990	0.067227	-0.189947
H186	H	0.986990	0.567227	0.310053
H187	H	0.823130	-0.209352	-0.147558
H188	H	1.323130	0.290648	0.352442
H189	H	0.609786	0.125541	0.089566
H190	H	1.109786	0.625541	0.589566
N191	N	0.819940	-0.423202	-0.299241
N192	N	1.319940	0.076798	0.200759
H193	H	0.863511	-0.391623	-0.310932
H194	H	1.363511	0.108377	0.189068
H195	H	0.819247	-0.467251	-0.330440
H196	H	1.319247	0.032749	0.169560
H197	H	0.395911	0.025512	-0.101794
H198	H	0.895911	0.525512	0.398206
H199	H	0.906194	0.008546	0.326116
H200	H	1.406194	0.508546	0.826116
H201	H	0.245328	0.214609	0.036309
H202	H	0.745328	0.714609	0.536309
H203	H	0.609808	0.125565	-0.158063
H204	H	1.109808	0.625565	0.341937
H205	H	0.376757	0.217139	0.035595
H206	H	0.876757	0.717139	0.535595
N207	N	0.821226	-0.336610	0.233761
N208	N	1.321226	0.163390	0.733761
H209	H	0.778441	-0.312762	0.257088
H210	H	1.278441	0.187238	0.757088
H211	H	0.820271	-0.403298	0.241548
H212	H	1.320271	0.096702	0.741548
H213	H	0.837011	-0.028968	0.579423
H214	H	1.337011	0.471032	1.079423
H215	H	0.837003	-0.028973	0.436463
H216	H	1.337003	0.471027	0.936463
N217	N	0.918708	-0.007671	0.827049
N218	N	1.418708	0.492329	1.327049
H219	H	0.948597	-0.046594	0.800751
H220	H	1.448597	0.453406	1.300751
H221	H	0.949437	0.026769	0.850324
H222	H	1.449437	0.526769	1.350324
N223	N	0.021877	0.114387	-0.173038
N224	N	0.521877	0.614387	0.326962
H225	H	0.028911	0.170502	-0.218190
H226	H	0.528911	0.670502	0.281810
H227	H	0.040090	0.058719	-0.187616
H228	H	0.540090	0.558719	0.312384
N229	N	0.824113	-0.141110	-0.103284
N230	N	1.324113	0.358890	0.396716
H231	H	0.866893	-0.164909	-0.126651
H232	H	1.366893	0.335091	0.373349
H233	H	0.780819	-0.149982	-0.130633
H234	H	1.280819	0.350018	0.369367
H235	H	0.735004	0.231543	0.122316
H236	H	1.235004	0.731543	0.622316
H237	H	0.162891	0.117077	-0.155740
H238	H	0.662891	0.617077	0.344260
H239	H	0.817318	-0.606292	-0.231237
H240	H	1.317318	-0.106292	0.268763
H241	H	0.821907	-0.294664	-0.248088
H242	H	1.321907	0.205336	0.251912
N243	N	0.819162	-0.477658	0.204025
N244	N	1.319162	0.022342	0.704025
H245	H	0.818186	-0.544360	0.211883
H246	H	1.318186	-0.044360	0.711883
H247	H	0.862430	-0.468701	0.231368
H248	H	1.362430	0.031299	0.731368
N249	N	0.824093	-0.141157	0.180396
N250	N	1.324093	0.358843	0.680396
H251	H	0.823441	-0.185203	0.235655
H252	H	1.323441	0.314797	0.735655
H253	H	0.867690	-0.109625	0.174758
H254	H	1.367690	0.390375	0.674758
H255	H	0.735062	0.231560	0.751362
H256	H	1.235062	0.731560	1.251362
H257	H	0.735053	0.231560	0.608401
H258	H	1.235053	0.731560	1.108401
N259	N	0.801857	0.290788	0.338749
N260	N	1.301857	0.790788	0.838749
H261	H	0.796146	0.342825	0.361459
H262	H	1.296146	0.842825	0.861459
H263	H	0.844055	0.295907	0.304648
H264	H	1.344055	0.795907	0.804648
