data_functionalizedCrystal
_audit_creation_method	'MofGen! by Chris Wilmer'
_symmetry_space_group_name_H-M	'P1'
_symmetry_Int_Tables_number	1
_symmetry_cell_setting	triclinic
loop_
_symmetry_equiv_pos_as_xyz
  x,y,z
_cell_length_a	17.019311
_cell_length_b	17.038272
_cell_length_c	15.455313
_cell_angle_alpha	92.858370
_cell_angle_beta	83.447586
_cell_angle_gamma	87.245400
loop_
_atom_site_label
_atom_site_type_symbol
_atom_site_fract_x
_atom_site_fract_y
_atom_site_fract_z
O1	O	1.060136	0.092450	-0.151316
O2	O	1.560136	0.592450	0.348684
O3	O	0.830556	0.105958	-0.134170
O4	O	1.330556	0.605958	0.365830
O5	O	0.943981	-0.014605	-0.142634
O6	O	1.443981	0.485395	0.357366
O7	O	0.946711	0.213013	-0.142852
O8	O	1.446711	0.713013	0.357148
O9	O	0.937493	-0.007739	0.002112
O10	O	1.437493	0.492261	0.502112
O11	O	0.824068	0.112824	0.010576
O12	O	1.324068	0.612824	0.510576
O13	O	1.053648	0.099316	-0.006570
O14	O	1.553648	0.599316	0.493430
Cu15	Cu	0.938265	0.106697	0.015220
Cu16	Cu	1.438265	0.606697	0.515220
Cu17	Cu	0.945938	0.098577	-0.155959
Cu18	Cu	1.445938	0.598577	0.344041
O19	O	0.940223	0.219879	0.001895
O20	O	1.440223	0.719879	0.501895
C21	C	0.797792	0.109013	-0.059592
C22	C	1.297792	0.609013	0.440408
C23	C	0.709830	0.107878	-0.053022
C24	C	1.209830	0.607878	0.446978
C25	C	0.938255	-0.040290	-0.070076
C26	C	1.438255	0.459710	0.429924
C27	C	0.930850	-0.127050	-0.069523
C28	C	1.430850	0.372950	0.430477
C29	C	0.212160	0.101672	-0.011910
C30	C	0.712160	0.601672	0.488090
C31	C	0.294809	0.102738	-0.018085
C32	C	0.794809	0.602738	0.481915
C33	C	0.339671	0.099523	-0.100075
C34	C	0.839671	0.599523	0.399925
C35	C	0.301879	0.095248	-0.175895
C36	C	0.801879	0.595248	0.324105
C37	C	0.219231	0.094188	-0.169719
C38	C	0.719231	0.594188	0.330281
C39	C	0.589391	0.102543	-0.122667
C40	C	1.089391	0.602543	0.377333
C41	C	0.672044	0.103602	-0.128837
C42	C	1.172044	0.603602	0.371163
C43	C	0.664968	0.111093	0.028974
C44	C	1.164968	0.611093	0.528974
C45	C	0.582320	0.110027	0.035142
C46	C	1.082320	0.610027	0.535142
C47	C	0.544535	0.105757	-0.040678
C48	C	1.044535	0.605757	0.459322
C49	C	0.424151	0.100610	-0.106388
C50	C	0.924151	0.600610	0.393612
C51	C	0.460055	0.104675	-0.034364
C52	C	0.960055	0.604675	0.465636
C53	C	0.998837	-0.177461	-0.074600
C54	C	1.498837	0.322539	0.425400
C55	C	0.991875	-0.258982	-0.074088
C56	C	1.491875	0.241018	0.425912
C57	C	0.916925	-0.290089	-0.068493
C58	C	1.416925	0.209911	0.431507
C59	C	0.848932	-0.239672	-0.063419
C60	C	1.348932	0.260328	0.436581
C61	C	0.855895	-0.158153	-0.063937
C62	C	1.355895	0.341847	0.436063
C63	C	0.892325	-0.535740	-0.066668
C64	C	1.392325	-0.035740	0.433332
C65	C	0.885367	-0.617265	-0.066148
C66	C	1.385367	-0.117265	0.433852
C67	C	1.028310	-0.636570	-0.076818
C68	C	1.528310	-0.136570	0.423182
C69	C	1.035267	-0.555049	-0.077331
C70	C	1.535267	-0.055049	0.422669
C71	C	0.967275	-0.504638	-0.072261
C72	C	1.467275	-0.004638	0.427739
C73	C	0.909806	-0.373416	-0.067967
C74	C	1.409806	0.126584	0.432033
C75	C	0.974394	-0.421314	-0.072793
C76	C	1.474394	0.078686	0.427207
C77	C	1.086412	0.096261	-0.081149
C78	C	1.586412	0.596261	0.418851
C79	C	1.174374	0.097395	-0.087725
C80	C	1.674374	0.597395	0.412275
C81	C	0.945949	0.245563	-0.070666
C82	C	1.445949	0.745563	0.429334
C83	C	0.953354	0.332324	-0.071224
C84	C	1.453354	0.832324	0.428776
N85	N	0.932874	0.112407	0.135618
N86	N	1.432874	0.612407	0.635618
N87	N	0.951335	0.092860	-0.276358
N88	N	1.451335	0.592860	0.223642
C89	C	0.981081	0.061207	0.177414
C90	C	1.481081	0.561207	0.677414
C91	C	0.977012	0.065533	0.268526
C92	C	1.477012	0.565533	0.768526
C93	C	0.924740	0.121064	0.317839
C94	C	1.424740	0.621064	0.817839
C95	C	0.876528	0.172267	0.276036
C96	C	1.376528	0.672267	0.776036
C97	C	0.880594	0.167936	0.184926
C98	C	1.380594	0.667936	0.684926
C99	C	0.907189	0.139733	0.590730
C100	C	1.407189	0.639733	1.090730
C101	C	0.903129	0.144061	0.681846
C102	C	1.403129	0.644061	1.181846
C103	C	1.003612	0.037325	0.674329
C104	C	1.503612	0.537325	1.174329
C105	C	1.007676	0.033003	0.583218
C106	C	1.507676	0.533003	1.083218
C107	C	0.959462	0.084204	0.541423
C108	C	1.459462	0.584204	1.041423
N109	N	0.920581	0.125488	0.410969
N110	N	1.420581	0.625488	0.910969
N111	N	0.963617	0.079775	0.448295
N112	N	1.463617	0.579775	0.948295
H113	H	0.175639	0.104293	0.054855
H114	H	0.675639	0.604293	0.554855
H115	H	1.047238	-0.300024	-0.078220
H116	H	1.547238	0.199976	0.421780
H117	H	1.096299	-0.529728	-0.081886
H118	H	1.596299	-0.029728	0.418114
H119	H	0.460687	0.097990	-0.173144
H120	H	0.960687	0.597990	0.326856
F121	F	0.549188	0.097995	-0.203363
F122	F	1.049188	0.597995	0.296637
F123	F	1.100667	-0.690225	-0.082215
F124	F	1.600667	-0.190225	0.417785
H125	H	0.338412	0.092635	-0.242653
H126	H	0.838412	0.592635	0.257347
F127	F	0.819961	-0.482100	-0.061274
F128	F	1.319961	0.017900	0.438726
F129	F	0.335020	0.107293	0.062608
F130	F	0.835020	0.607293	0.562608
H131	H	0.695742	0.114571	0.090702
H132	H	1.195742	0.614571	0.590702
H133	H	0.860561	0.189284	0.721993
H134	H	1.360561	0.689284	1.221993
H135	H	1.059870	-0.152141	-0.079150
H136	H	1.559870	0.347859	0.420850
F137	F	0.820891	0.231364	0.328520
F138	F	1.320891	0.731364	0.828520
F139	F	0.829283	0.222430	0.140445
F140	F	1.329283	0.722430	0.640445
F141	F	0.179016	0.089640	-0.250412
F142	F	0.679016	0.589640	0.249588
H143	H	0.708569	0.100990	-0.195606
H144	H	1.208569	0.600990	0.304394
H145	H	0.824329	-0.642588	-0.061577
H146	H	1.324329	-0.142588	0.438423
F147	F	0.769164	-0.272781	-0.057474
F148	F	1.269164	0.227219	0.442526
H149	H	1.023650	0.015991	0.137269
H150	H	1.523650	0.515991	0.637269
H151	H	1.016264	0.023840	0.302556
H152	H	1.516264	0.523840	0.802556
H153	H	0.545799	0.112628	0.101907
H154	H	1.045799	0.612628	0.601907
F155	F	0.412308	0.108102	0.052893
F156	F	0.912308	0.608102	0.552893
F157	F	1.063310	-0.026098	0.530737
F158	F	1.563310	0.473902	1.030737
H159	H	0.867932	0.181424	0.556708
H160	H	1.367932	0.681424	1.056708
F161	F	0.783534	-0.104501	-0.058536
F162	F	1.283534	0.395499	0.441464
H163	H	1.035419	-0.395983	-0.077367
H164	H	1.535419	0.104017	0.422633
H165	H	0.848781	-0.398752	-0.063410
H166	H	1.348781	0.101248	0.436590
H167	H	1.042865	-0.004360	0.708367
H168	H	1.542865	0.495640	1.208367
