data_functionalizedCrystal
_audit_creation_method	'MofGen! by Chris Wilmer'
_symmetry_space_group_name_H-M	'P1'
_symmetry_Int_Tables_number	1
_symmetry_cell_setting	triclinic
loop_
_symmetry_equiv_pos_as_xyz
  x,y,z
_cell_length_a	18.101398
_cell_length_b	25.639240
_cell_length_c	18.101389
_cell_angle_alpha	89.972369
_cell_angle_beta	89.990255
_cell_angle_gamma	90.028316
loop_
_atom_site_label
_atom_site_type_symbol
_atom_site_fract_x
_atom_site_fract_y
_atom_site_fract_z
Zn1	Zn	1.132112	-0.208268	-0.418503
Zn2	Zn	1.132005	-0.295689	-0.294642
Zn3	Zn	1.008271	-0.208263	-0.294696
Zn4	Zn	1.008218	-0.295667	-0.418462
O5	O	1.070152	-0.251972	-0.356576
O6	O	1.235731	-0.219876	-0.402067
O7	O	1.115568	-0.284099	-0.191016
O8	O	1.024766	-0.135098	-0.311159
O9	O	1.235652	-0.284104	-0.311067
O10	O	1.115752	-0.135102	-0.402120
O11	O	1.024662	-0.219867	-0.191056
O12	O	0.904631	-0.219846	-0.311119
O13	O	1.024676	-0.284066	-0.522100
O14	O	0.904593	-0.284061	-0.402049
O15	O	1.115701	-0.219854	-0.522131
O16	O	1.115517	-0.368851	-0.311027
O17	O	1.024572	-0.368835	-0.401997
C18	C	0.877741	-0.251951	-0.356586
C19	C	0.795427	-0.251955	-0.356608
C20	C	0.496336	-0.251986	-0.356577
C21	C	0.527662	-0.292584	-0.413505
C22	C	0.613280	-0.292457	-0.413739
C23	C	0.644719	-0.251971	-0.356592
C24	C	0.613666	-0.196903	-0.377933
C25	C	0.528021	-0.197147	-0.378337
C26	C	0.527883	-0.265969	-0.278171
C27	C	0.613533	-0.267178	-0.278590
C28	C	0.728578	-0.251959	-0.356600
C29	C	0.412477	-0.251994	-0.356571
C30	C	1.070047	-0.387814	-0.356518
C31	C	1.070070	-0.445928	-0.356518
C32	C	1.117551	-0.806255	-0.404024
C33	C	1.117573	-0.860859	-0.404039
O34	O	1.157819	-0.889065	-0.444372
N35	N	1.070254	-0.888211	-0.356647
C36	C	1.022905	-0.860955	-0.309242
O37	O	0.982659	-0.889234	-0.268933
C38	C	1.022880	-0.806352	-0.309231
C39	C	1.070208	-0.779003	-0.356621
C40	C	1.164874	-0.778906	-0.451411
C41	C	1.164853	-0.724305	-0.451395
C42	C	1.117509	-0.697054	-0.403992
C43	C	1.070187	-0.724402	-0.356605
C44	C	0.975528	-0.779097	-0.261831
C45	C	0.975507	-0.724490	-0.261824
C46	C	1.022834	-0.697142	-0.309214
C47	C	1.022822	-0.642550	-0.309186
N48	N	1.070140	-0.615199	-0.356578
C49	C	1.117484	-0.642450	-0.403981
C50	C	1.022961	-0.975626	-0.309269
C51	C	1.022989	-1.030228	-0.309276
C52	C	1.117656	-1.030128	-0.404074
C53	C	1.117631	-0.975525	-0.404063
C54	C	1.070279	-0.948274	-0.356661
C55	C	1.117437	-0.527785	-0.403943
C56	C	1.117414	-0.473180	-0.403920
C57	C	1.022744	-0.473285	-0.309125
C58	C	1.022770	-0.527885	-0.309145
C59	C	1.070119	-0.555134	-0.356560
O60	O	0.982594	-0.614310	-0.268876
O61	O	1.157717	-0.614165	-0.444290
C62	C	1.263314	-0.251993	-0.356566
C63	C	1.345628	-0.252002	-0.356561
C64	C	1.070194	-0.251958	-0.549738
C65	C	1.070213	-0.251953	-0.632052
C66	C	1.070277	-0.115599	-0.356650
C67	C	1.070330	-0.057485	-0.356682
C68	C	1.070256	-0.251855	-0.931143
C69	C	1.012789	-0.292127	-0.899799
C70	C	1.012944	-0.292314	-0.814180
C71	C	1.070234	-0.251903	-0.782760
C72	C	1.148259	-0.266864	-0.813843
C73	C	1.147938	-0.267128	-0.899488
C74	C	1.050377	-0.196533	-0.899585
C75	C	1.048641	-0.196852	-0.813934
C76	C	1.070226	-0.251930	-0.698901
C77	C	1.070269	-0.251829	-1.015002
C78	C	1.070152	-0.251947	-0.164165
C79	C	1.070277	-0.251805	-0.081851
H80	H	0.633783	-0.283205	-0.471833
Br81	Br	0.911239	-0.687510	-0.197491
Br82	Br	1.221544	-0.219512	-0.779930
H83	H	0.634032	-0.165835	-0.337763
H84	H	0.984404	-0.953441	-0.270663
H85	H	1.092233	-0.166528	-0.919857
H86	H	0.984200	-0.451088	-0.270528
H87	H	1.087443	-0.165254	-0.792547
Br88	Br	0.957194	-0.173817	-0.935588
Br89	Br	0.647355	-0.334722	-0.251768
Br90	Br	0.648275	-0.360524	-0.391478
H91	H	1.026068	-0.333320	-0.793685
H92	H	0.954756	-0.282860	-0.920401
H93	H	0.634934	-0.239754	-0.233895
H94	H	0.507626	-0.236398	-0.235754
H95	H	1.155956	-0.450914	-0.442511
Br96	Br	1.176838	-0.333551	-0.778084
Br97	Br	0.494748	-0.177378	-0.473872
H98	H	0.936990	-0.801355	-0.223240
H99	H	1.025782	-0.332883	-0.921312
H100	H	0.991221	-0.185571	-0.793620
Br101	Br	0.916510	-0.276705	-0.779148
Br102	Br	0.958552	-0.565003	-0.244818
H103	H	0.507301	-0.165815	-0.338775
H104	H	1.155988	-0.549965	-0.442558
H105	H	0.984458	-1.052491	-0.270678
Br106	Br	0.649440	-0.176773	-0.472429
Br107	Br	0.491843	-0.331746	-0.245842
Br108	Br	1.229081	-0.687197	-0.515718
H109	H	1.203427	-0.801088	-0.490017
H110	H	1.156168	-0.953261	-0.442653
Br111	Br	1.221676	-0.220329	-0.934053
Br112	Br	0.491792	-0.277374	-0.509770
Br113	Br	0.493295	-0.360871	-0.391467
Br114	Br	1.181910	-1.067123	-0.468407
Br115	Br	1.176027	-0.334532	-0.932777
