data_functionalizedCrystal
_audit_creation_method	'MofGen! by Chris Wilmer'
_symmetry_space_group_name_H-M	'P1'
_symmetry_Int_Tables_number	1
_symmetry_cell_setting	triclinic
loop_
_symmetry_equiv_pos_as_xyz
  x,y,z
_cell_length_a	29.839131
_cell_length_b	29.839134
_cell_length_c	11.169417
_cell_angle_alpha	89.994587
_cell_angle_beta	90.015401
_cell_angle_gamma	89.980268
loop_
_atom_site_label
_atom_site_type_symbol
_atom_site_fract_x
_atom_site_fract_y
_atom_site_fract_z
Zn1	Zn	-0.179187	-0.686684	0.678623
Zn2	Zn	-0.254295	-0.686627	0.477912
Zn3	Zn	-0.179152	-0.611577	0.477941
Zn4	Zn	-0.254262	-0.611514	0.678541
O5	O	-0.216724	-0.649100	0.578254
O6	O	-0.189178	-0.749543	0.652020
O7	O	-0.244327	-0.676673	0.309967
O8	O	-0.116289	-0.621590	0.504608
O9	O	-0.244361	-0.749501	0.504559
O10	O	-0.116315	-0.676771	0.652048
O11	O	-0.189119	-0.621535	0.309988
O12	O	-0.189087	-0.548702	0.504529
O13	O	-0.244303	-0.621483	0.846502
O14	O	-0.244270	-0.548656	0.651909
O15	O	-0.189146	-0.676710	0.846561
O16	O	-0.317158	-0.676612	0.504480
O17	O	-0.317133	-0.621428	0.651881
C18	C	-0.216671	-0.532378	0.578214
C19	C	-0.216659	-0.482444	0.578225
C20	C	-0.188030	-0.125874	0.655157
C21	C	-0.188001	-0.313547	0.655141
O22	O	-0.163615	-0.337827	0.720565
N23	N	-0.216683	-0.336998	0.578245
C24	C	-0.245376	-0.313528	0.501354
O25	O	-0.269775	-0.337781	0.435957
C26	C	-0.245407	-0.125856	0.501377
C27	C	-0.216720	-0.102407	0.578269
C28	C	-0.159345	-0.102425	0.732044
C29	C	-0.159351	-0.055510	0.732043
C30	C	-0.188041	-0.032043	0.655155
C31	C	-0.216726	-0.055492	0.578268
C32	C	-0.274102	-0.102387	0.424493
C33	C	-0.274108	-0.055466	0.424507
C34	C	-0.245421	-0.032017	0.501400
C35	C	-0.245422	0.014890	0.501379
N36	N	-0.216740	0.038341	0.578274
C37	C	-0.188049	0.014875	0.655163
C38	C	-0.245358	-0.412059	0.501345
C39	C	-0.245350	-0.458977	0.501337
C40	C	-0.187975	-0.458992	0.655126
C41	C	-0.187981	-0.412074	0.655127
C42	C	-0.216676	-0.388608	0.578241
C43	C	-0.188063	0.113401	0.655153
C44	C	-0.188070	0.160320	0.655142
C45	C	-0.245447	0.160332	0.501358
C46	C	-0.245438	0.113416	0.501364
C47	C	-0.216745	0.089952	0.578272
O48	O	-0.269799	0.039199	0.435998
O49	O	-0.163662	0.039136	0.720568
C50	C	-0.188024	-0.172790	0.655159
C51	C	-0.216709	-0.196238	0.578272
C52	C	-0.245399	-0.172772	0.501384
C53	C	-0.216700	-0.243156	0.578264
C54	C	-0.188010	-0.266623	0.655152
C55	C	-0.159328	-0.243172	0.732048
C56	C	-0.159334	-0.196256	0.732047
C57	C	-0.274081	-0.196223	0.424488
C58	C	-0.274072	-0.243138	0.424495
C59	C	-0.245382	-0.266605	0.501383
C60	C	-0.333446	-0.649019	0.578195
C61	C	-0.383381	-0.649026	0.578210
C62	C	-0.693025	-0.677887	0.501615
C63	C	-0.880698	-0.677943	0.501661
O64	O	-0.904963	-0.702418	0.436492
N65	N	-0.904166	-0.649194	0.578345
C66	C	-0.880713	-0.620431	0.655028
O67	O	-0.904981	-0.595982	0.720262
C68	C	-0.693041	-0.620378	0.654986
C69	C	-0.669575	-0.649126	0.578289
C70	C	-0.669559	-0.706633	0.424925
C71	C	-0.622643	-0.706617	0.424909
C72	C	-0.599194	-0.677856	0.501584
C73	C	-0.622660	-0.649110	0.578274
C74	C	-0.669589	-0.591617	0.731674
C75	C	-0.622668	-0.591608	0.731659
C76	C	-0.599202	-0.620355	0.654962
C77	C	-0.552295	-0.620332	0.654933
N78	N	-0.528826	-0.649081	0.578249
C79	C	-0.552276	-0.677843	0.501575
C80	C	-0.979244	-0.620460	0.655042
C81	C	-1.026162	-0.620472	0.655051
C82	C	-1.026143	-0.677985	0.501686
C83	C	-0.979224	-0.677970	0.501672
C84	C	-0.955775	-0.649209	0.578359
C85	C	-0.453750	-0.677807	0.501547
C86	C	-0.406830	-0.677787	0.501535
C87	C	-0.406853	-0.620276	0.654904
C88	C	-0.453769	-0.620294	0.654912
C89	C	-0.477216	-0.649063	0.578230
O90	O	-0.528001	-0.595874	0.720077
O91	O	-0.528000	-0.702295	0.436369
C92	C	-0.739940	-0.677903	0.501630
C93	C	-0.763406	-0.649157	0.578320
C94	C	-0.739957	-0.620396	0.654995
C95	C	-0.810324	-0.649170	0.578329
C96	C	-0.833773	-0.677932	0.501655
C97	C	-0.810305	-0.706681	0.424971
C98	C	-0.763390	-0.706665	0.424956
C99	C	-0.763425	-0.591647	0.731678
C100	C	-0.810340	-0.591664	0.731686
C101	C	-0.833790	-0.620426	0.655012
C102	C	-0.099546	-0.649194	0.578340
C103	C	-0.049611	-0.649234	0.578377
C104	C	-0.216725	-0.649096	0.891297
C105	C	-0.216725	-0.649094	1.024697
C106	C	-0.216767	0.233721	0.578281
C107	C	-0.216761	0.183787	0.578254
C108	C	-0.216731	-0.649099	1.266430
C109	C	-0.216726	-0.649096	1.133030
H110	H	-0.135966	-0.262286	0.794648
H111	H	-0.744287	-0.730074	0.362502
H112	H	-0.829406	-0.730098	0.362537
H113	H	-0.744336	-0.568226	0.794117
H114	H	-0.829442	-0.568251	0.794141
N115	N	-0.597337	-0.737631	0.342206
H116	H	-0.605519	-0.730689	0.256436
H117	H	-0.605496	-0.769711	0.361052
N118	N	-0.157124	0.185611	0.738066
H119	H	-0.138948	0.163623	0.786772
H120	H	-0.175440	0.205082	0.793526
H121	H	-0.268725	-0.392957	0.438730
H122	H	-0.387726	-0.701197	0.439075
H123	H	-0.472835	-0.701235	0.439108
H124	H	-0.297432	-0.262226	0.361868
H125	H	-0.135974	-0.177168	0.794660
N126	N	-0.694846	-0.737658	0.342220
H127	H	-0.672854	-0.755863	0.293645
H128	H	-0.714329	-0.719394	0.286631
H129	H	-0.960121	-0.701379	0.439220
N130	N	-1.051441	-0.709011	0.419000
H131	H	-1.029459	-0.727226	0.370417
H132	H	-1.070927	-0.690749	0.363415
H133	H	-0.164613	-0.478107	0.717729
H134	H	-0.297445	-0.177121	0.361876
H135	H	-1.045264	-0.597059	0.717495
N136	N	-0.276394	0.185648	0.418445
H137	H	-0.294568	0.163677	0.369732
H138	H	-0.258080	0.205115	0.362992
H139	H	-0.297463	-0.121471	0.361879
N140	N	-0.953956	-0.589435	0.737754
H141	H	-0.975946	-0.571225	0.786323
H142	H	-0.934510	-0.568654	0.688842
H143	H	-0.164698	0.094301	0.717778
H144	H	-0.387753	-0.596858	0.717328
H145	H	-0.472876	-0.596887	0.717369
H146	H	-0.688687	-0.568206	0.794124
N147	N	-0.597374	-0.560586	0.814368
H148	H	-0.605523	-0.567540	0.900139
H149	H	-0.605574	-0.528508	0.795549
N150	N	-0.128406	-0.030222	0.814966
H151	H	-0.110231	-0.052213	0.863664
H152	H	-0.146721	-0.010752	0.870432
N153	N	-0.305060	-0.030157	0.341581
H154	H	-0.323229	-0.052134	0.292876
H155	H	-0.286746	-0.010692	0.286122
H156	H	-0.135982	-0.121527	0.794662
H157	H	-0.268794	0.094323	0.438742
N158	N	-0.157038	-0.386784	0.738054
H159	H	-0.138862	-0.408774	0.786753
H160	H	-0.175357	-0.367318	0.793520
H161	H	-0.268705	-0.478065	0.438711
