data_functionalizedCrystal
_audit_creation_method	'MofGen! by Chris Wilmer'
_symmetry_space_group_name_H-M	'P1'
_symmetry_Int_Tables_number	1
_symmetry_cell_setting	triclinic
loop_
_symmetry_equiv_pos_as_xyz
  x,y,z
_cell_length_a	13.635800
_cell_length_b	9.109307
_cell_length_c	11.102300
_cell_angle_alpha	82.517516
_cell_angle_beta	71.394150
_cell_angle_gamma	111.764999
loop_
_atom_site_label
_atom_site_type_symbol
_atom_site_fract_x
_atom_site_fract_y
_atom_site_fract_z
V1	V	-2.072296	-0.225357	0.420838
O2	O	-2.034487	0.010830	0.387532
O3	O	-2.076932	-0.446846	0.442288
O4	O	-2.060432	-0.221890	0.593281
O5	O	-2.051101	-0.215683	0.235494
V6	V	-2.308775	-0.197106	0.395714
O7	O	-2.214513	-0.287327	0.475950
O8	O	-2.391657	-0.135136	0.340603
O9	O	-2.192536	0.024382	0.374264
O10	O	-2.405282	-0.433293	0.429021
O11	O	-2.388669	-0.206781	0.581059
O12	O	-2.209036	-0.200573	0.223271
V13	V	-1.572296	-0.225357	0.420838
O14	O	-1.534487	0.010830	0.387532
O15	O	-1.576932	-0.446846	0.442288
O16	O	-1.560432	-0.221890	0.593281
O17	O	-1.551101	-0.215683	0.235494
V18	V	-1.808775	-0.197106	0.395714
O19	O	-1.714513	-0.287327	0.475950
O20	O	-1.891657	-0.135136	0.340603
O21	O	-1.692536	0.024382	0.374264
O22	O	-1.905282	-0.433293	0.429021
O23	O	-1.888669	-0.206781	0.581059
O24	O	-1.709036	-0.200573	0.223271
C25	C	-2.006048	-0.500840	0.441927
C26	C	-2.050564	-0.681909	0.460614
C27	C	-1.985000	-0.213885	0.634532
C28	C	-2.016133	-0.212516	0.775664
C29	C	-2.095092	0.078368	0.374623
C30	C	-2.040196	0.259436	0.355945
C31	C	-2.116139	-0.208584	0.182015
C32	C	-2.074624	-0.209944	0.040880
C33	C	-1.506048	-0.500840	0.441927
C34	C	-1.550564	-0.681909	0.460614
C35	C	-1.485000	-0.213885	0.634532
C36	C	-1.516133	-0.212516	0.775664
C37	C	-2.123361	-0.220008	0.849330
C38	C	-2.152606	-0.218716	0.981938
C39	C	-1.967385	-0.202447	0.967203
C40	C	-1.938139	-0.203727	0.834595
C41	C	-1.595092	0.078368	0.374623
C42	C	-1.540196	0.259436	0.355945
C43	C	-1.616139	-0.208584	0.182015
C44	C	-1.574624	-0.209944	0.040880
C45	C	-1.664095	-0.775247	0.476645
C46	C	-1.705942	-0.945386	0.494224
C47	C	-1.634253	-1.022183	0.495761
C48	C	-1.520712	-0.928834	0.479732
C49	C	-1.478870	-0.758699	0.462163
C50	C	-1.599159	0.352772	0.339917
C51	C	-1.547584	0.522910	0.322344
C52	C	-1.437050	0.599707	0.320810
C53	C	-1.378084	0.506358	0.336836
C54	C	-1.429655	0.336225	0.354398
C55	C	-1.623361	-0.220008	0.849330
C56	C	-1.652606	-0.218716	0.981938
C57	C	-1.467385	-0.202447	0.967203
C58	C	-1.438139	-0.203727	0.834595
H59	H	-1.997284	-0.652254	0.252009
H60	H	-1.395071	0.738241	0.306507
Cl61	Cl	-1.239125	0.602929	0.334897
H62	H	-1.403890	-0.195295	1.015202
Cl63	Cl	-2.116836	-0.818258	0.621097
H64	H	-1.381635	0.260241	0.367459
H65	H	-1.386420	-0.682714	0.449104
Cl66	Cl	-1.303325	-0.194304	0.741978
H67	H	-1.739919	-0.224815	1.041911
H68	H	-1.686870	-0.227162	0.801353
Cl69	Cl	-2.221409	-0.231047	0.775248
H70	H	-1.595615	0.598891	0.309300
Cl71	Cl	-1.869350	-0.191421	1.041302
Cl72	Cl	-2.287412	-0.228136	1.074542
Cl73	Cl	-1.754245	-0.678743	0.474730
Cl74	Cl	-1.803325	-0.194304	0.741978
Cl75	Cl	-1.848677	-1.062703	0.514364
Cl76	Cl	-1.430601	-1.025402	0.481660
H77	H	-1.689162	0.290268	0.341164
H78	H	-1.668338	-1.160718	0.510068
