data_functionalizedCrystal
_audit_creation_method	'MofGen! by Chris Wilmer'
_symmetry_space_group_name_H-M	'P1'
_symmetry_Int_Tables_number	1
_symmetry_cell_setting	triclinic
loop_
_symmetry_equiv_pos_as_xyz
  x,y,z
_cell_length_a	16.974800
_cell_length_b	16.109304
_cell_length_c	14.586319
_cell_angle_alpha	90.000981
_cell_angle_beta	86.346691
_cell_angle_gamma	83.426058
loop_
_atom_site_label
_atom_site_type_symbol
_atom_site_fract_x
_atom_site_fract_y
_atom_site_fract_z
O1	O	1.049122	0.105906	-0.001636
O2	O	0.818912	0.119416	0.015453
O3	O	0.940340	-0.008375	0.006440
O4	O	0.927694	0.233698	0.007377
O5	O	0.940331	-0.008377	-0.146041
O6	O	0.818903	0.119414	-0.137028
O7	O	1.049114	0.105905	-0.154116
Cu8	Cu	0.934008	0.112659	-0.159494
Cu9	Cu	0.934018	0.112661	0.020831
O10	O	0.927686	0.233696	-0.145103
C11	C	0.789449	0.118904	-0.058601
C12	C	0.701673	0.117369	-0.052085
C13	C	0.939823	-0.039351	-0.069760
C14	C	0.938286	-0.131644	-0.069640
C15	C	0.934740	-0.343977	0.013737
C16	C	0.933289	-0.430696	0.013844
C17	C	0.933283	-0.430695	-0.152399
C18	C	0.934729	-0.343977	-0.152504
C19	C	0.935461	-0.300621	-0.069434
C20	C	0.932564	-0.474058	-0.069221
C21	C	0.930991	-0.568082	-0.069106
C22	C	0.937034	-0.206591	-0.069549
C23	C	0.660435	0.116645	-0.132143
C24	C	0.577962	0.115189	-0.126023
C25	C	0.536726	0.114464	-0.039845
C26	C	0.577970	0.115186	0.040219
C27	C	0.660442	0.116635	0.034099
C28	C	0.290069	0.110123	-0.012627
C29	C	0.207590	0.108676	-0.006512
C30	C	0.207588	0.108678	-0.172755
C31	C	0.290062	0.110133	-0.178868
C32	C	0.331299	0.110850	-0.098805
N33	N	0.452424	0.112979	-0.033587
N34	N	0.415600	0.112329	-0.105063
C35	C	1.078576	0.106417	-0.080060
C36	C	1.166353	0.107952	-0.086570
C37	C	0.928202	0.264671	-0.068901
C38	C	0.929739	0.356965	-0.069015
N39	N	0.934007	0.112657	-0.286326
C40	C	0.987793	0.056090	-0.525325
C41	C	0.987795	0.056088	-0.621306
C42	C	0.880233	0.169227	-0.613332
C43	C	0.880228	0.169224	-0.517352
C44	C	0.934012	0.112657	-0.473351
C45	C	0.934020	0.112657	-0.665313
C46	C	0.934022	0.112656	-0.769380
C47	C	0.934009	0.112657	-0.369277
N48	N	0.934025	0.112657	0.147662
H49	H	0.935334	-0.308679	0.081378
H50	H	0.932699	-0.465993	0.081570
C51	C	0.773905	0.281050	-0.595808
C52	C	0.821116	0.231405	-0.661700
H53	H	0.737405	0.319433	-0.625668
H54	H	0.806804	0.310938	-0.560811
H55	H	0.745477	0.246447	-0.556265
H56	H	0.849548	0.266007	-0.701238
H57	H	0.788212	0.201515	-0.696712
C58	C	1.095368	0.037921	-0.425309
C59	C	1.046869	-0.006114	-0.476931
H60	H	1.131830	-0.000491	-0.395432
H61	H	1.063337	0.071622	-0.380639
H62	H	1.123839	0.072486	-0.464851
H63	H	1.018393	-0.040675	-0.437387
H64	H	1.078903	-0.039829	-0.521606
C65	C	0.863036	0.282383	-0.408128
C66	C	0.821110	0.231410	-0.460214
H67	H	0.826538	0.320767	-0.372850
H68	H	0.895933	0.312270	-0.448007
H69	H	0.895059	0.248681	-0.368191
H70	H	0.789091	0.265112	-0.500156
H71	H	0.788199	0.201521	-0.420331
C72	C	1.035559	0.005848	-0.771974
C73	C	1.046912	-0.006091	-0.678437
H74	H	1.072054	-0.032545	-0.807242
H75	H	1.044133	0.061325	-0.788334
H76	H	0.982791	-0.003151	-0.783784
H77	H	1.099678	0.002914	-0.666626
H78	H	1.038345	-0.061581	-0.662071
H79	H	0.932689	-0.466007	-0.220031
H80	H	0.323631	0.110719	-0.249044
H81	H	0.544390	0.114589	0.110388
C82	C	0.867242	-0.307848	-0.289199
C83	C	0.935522	-0.296315	-0.243934
H84	H	0.867734	-0.278426	-0.345643
H85	H	0.821407	-0.287241	-0.251645
H86	H	0.866288	-0.365702	-0.301021
H87	H	0.936474	-0.238461	-0.232105
H88	H	0.981369	-0.316918	-0.281496
H89	H	0.694003	0.117242	-0.202319
C90	C	0.586241	0.115354	-0.290959
C91	C	0.532633	0.114401	-0.214026
H92	H	0.558255	0.114873	-0.345289
H93	H	0.624452	0.067463	-0.290343
H94	H	0.612364	0.164383	-0.289426
H95	H	0.506514	0.065369	-0.215556
H96	H	0.494408	0.162297	-0.214642
C97	C	0.081164	0.106448	-0.237193
C98	C	0.162260	0.107878	-0.260758
H99	H	0.053183	0.105946	-0.291526
H100	H	0.061606	0.154669	-0.201600
H101	H	0.073703	0.057750	-0.202482
H102	H	0.169721	0.156579	-0.295462
H103	H	0.181824	0.059651	-0.296366
C104	C	0.215872	0.108819	0.157206
C105	C	0.162262	0.107883	0.088222
H106	H	0.187886	0.108329	0.215686
H107	H	0.241999	0.157837	0.151810
H108	H	0.254081	0.060917	0.150911
H109	H	0.124055	0.155789	0.094512
H110	H	0.136121	0.058860	0.093620
C111	C	0.373899	0.183188	0.077601
C112	C	0.335387	0.110921	0.075380
H113	H	0.401881	0.183678	0.131934
H114	H	0.335682	0.231074	0.076979
H115	H	0.410263	0.183815	0.025401
H116	H	0.299018	0.110298	0.127576
H117	H	0.373609	0.063023	0.076010
C118	C	0.652164	0.116504	0.199036
C119	C	0.705773	0.117440	0.122101
H120	H	0.680149	0.117005	0.253365
H121	H	0.626044	0.067481	0.197520
H122	H	0.613948	0.164401	0.198405
H123	H	0.743985	0.069540	0.122728
H124	H	0.731905	0.166468	0.123617
