data_functionalizedCrystal
_audit_creation_method	'MofGen! by Chris Wilmer'
_symmetry_space_group_name_H-M	'P1'
_symmetry_Int_Tables_number	1
_symmetry_cell_setting	triclinic
loop_
_symmetry_equiv_pos_as_xyz
  x,y,z
_cell_length_a	18.101398
_cell_length_b	21.295417
_cell_length_c	18.101389
_cell_angle_alpha	89.977237
_cell_angle_beta	90.009745
_cell_angle_gamma	89.968865
loop_
_atom_site_label
_atom_site_type_symbol
_atom_site_fract_x
_atom_site_fract_y
_atom_site_fract_z
Zn1	Zn	1.132098	0.250750	0.418528
Zn2	Zn	1.131984	0.356003	0.294677
Zn3	Zn	1.008257	0.250744	0.294721
Zn4	Zn	1.008198	0.355977	0.418497
O5	O	1.070134	0.303369	0.356606
O6	O	1.235716	0.264726	0.402094
O7	O	1.115548	0.342049	0.191050
O8	O	1.024757	0.162655	0.311175
O9	O	1.235632	0.342055	0.311101
O10	O	1.115742	0.162660	0.402136
O11	O	1.024647	0.264715	0.191082
O12	O	0.904616	0.264690	0.311145
O13	O	1.024656	0.342010	0.522134
O14	O	0.904573	0.342004	0.402084
O15	O	1.115685	0.264700	0.522157
O16	O	1.115491	0.444089	0.311071
O17	O	1.024546	0.444070	0.402041
C18	C	0.877724	0.303344	0.356616
C19	C	0.795410	0.303348	0.356638
C20	C	0.496319	0.303385	0.356607
C21	C	0.527641	0.352265	0.413541
C22	C	0.613260	0.352112	0.413775
C23	C	0.644701	0.303368	0.356623
C24	C	0.613653	0.237068	0.377956
C25	C	0.528008	0.237361	0.378361
C26	C	0.527864	0.320222	0.278203
C27	C	0.613514	0.321676	0.278622
C28	C	0.728561	0.303353	0.356630
C29	C	0.412459	0.303395	0.356602
C30	C	1.070020	0.466920	0.356564
C31	C	1.070039	0.536888	0.356571
C32	C	1.117384	0.569700	0.403967
C33	C	1.117402	0.635443	0.403984
C34	C	1.070083	0.668371	0.356591
C35	C	1.022729	0.635551	0.309192
C36	C	1.022707	0.569810	0.309182
N37	N	1.064478	0.771624	0.291777
N38	N	1.064503	0.834075	0.291789
C39	C	1.070146	0.866445	0.356620
N40	N	1.075777	0.834005	0.421439
N41	N	1.075755	0.771548	0.421427
C42	C	1.070102	0.739656	0.356597
C43	C	1.117513	0.970543	0.404038
C44	C	1.117526	1.036287	0.404056
C45	C	1.022857	1.036394	0.309257
C46	C	1.022840	0.970651	0.309245
C47	C	1.070172	0.937730	0.356635
C48	C	1.263296	0.303394	0.356596
C49	C	1.345610	0.303405	0.356592
C50	C	1.070177	0.303353	0.549768
C51	C	1.070195	0.303346	0.632082
C52	C	1.070239	1.139178	0.356658
C53	C	1.070206	1.069210	0.356663
C54	C	1.070134	0.303339	0.164195
C55	C	1.070259	0.303168	0.081882
C56	C	1.070238	0.303228	0.931173
C57	C	1.012768	0.351714	0.899834
C58	C	1.012924	0.351939	0.814215
C59	C	1.070216	0.303286	0.782791
C60	C	1.148240	0.321298	0.813875
C61	C	1.147920	0.321617	0.899520
C62	C	1.050363	0.236622	0.899608
C63	C	1.048627	0.237006	0.813958
C64	C	1.070209	0.303318	0.698931
C65	C	1.070251	0.303197	1.015033
H66	H	0.634020	0.199662	0.337783
C67	C	0.501240	0.218307	0.454730
C68	C	0.423901	0.218357	0.455903
C69	C	0.399221	0.200801	0.526240
H70	H	0.519284	0.247260	0.490319
H71	H	0.518910	0.177403	0.466053
H72	H	0.406239	0.259255	0.444589
H73	H	0.405837	0.189404	0.420329
H74	H	0.416890	0.159897	0.537563
H75	H	0.417269	0.229756	0.561824
H76	H	0.346744	0.200827	0.527044
C77	C	0.641109	0.417717	0.395975
C78	C	0.580821	0.457852	0.384906
C79	C	0.606443	0.518297	0.368519
H80	H	0.670342	0.416422	0.352427
H81	H	0.670146	0.432796	0.435927
H82	H	0.551797	0.442777	0.344957
H83	H	0.551582	0.459166	0.428445
H84	H	0.635479	0.533376	0.408472
H85	H	0.635676	0.516995	0.324972
H86	H	0.565541	0.545537	0.361013
C87	C	0.971415	0.935136	0.257696
C88	C	0.929991	0.978042	0.216179
C89	C	0.882615	0.945349	0.168677
H90	H	0.939056	0.909497	0.285912
H91	H	0.999741	0.909500	0.225407
H92	H	0.901668	1.003667	0.248464
H93	H	0.962331	1.003682	0.187948
H94	H	0.910941	0.919712	0.136388
H95	H	0.850262	0.919711	0.196898
H96	H	0.854509	0.974455	0.140497
H97	H	0.955066	0.340667	0.793199
H98	H	1.092222	0.200497	0.919877
C99	C	0.935445	0.336755	0.927401
C100	C	0.938020	0.283701	0.973042
C101	C	0.866803	0.269906	0.998463
H102	H	0.903995	0.328671	0.886486
H103	H	0.916842	0.371468	0.954615
H104	H	0.956613	0.248995	0.945829
H105	H	0.969455	0.291770	1.013969
H106	H	0.848200	0.304619	1.025677
H107	H	0.835360	0.261825	0.957544
H108	H	0.868542	0.233911	1.029439
H109	H	0.633814	0.370463	0.262532
C110	C	0.499086	0.383551	0.252198
C111	C	0.528208	0.397052	0.182326
C112	C	0.501706	0.455384	0.158352
H113	H	0.513737	0.415202	0.286127
H114	H	0.446697	0.382307	0.249392
H115	H	0.580587	0.398300	0.185137
H116	H	0.513560	0.365416	0.148380
H117	H	0.449317	0.454139	0.155545
H118	H	0.516359	0.487029	0.192285
H119	H	0.521456	0.464548	0.110938
C120	C	1.029963	0.417138	0.928619
C121	C	0.969427	0.439737	0.968761
C122	C	0.985247	0.499997	0.995298
H123	H	1.039585	0.444408	0.888215
H124	H	1.072135	0.415411	0.959808
H125	H	0.927268	0.441467	0.937574
H126	H	0.959795	0.412484	1.009175
H127	H	1.027419	0.498271	1.026487
H128	H	0.994870	0.527262	0.954890
H129	H	0.944179	0.515336	1.022543
C130	C	0.642093	0.277564	0.219129
C131	C	0.688629	0.232662	0.251243
C132	C	0.714960	0.192004	0.196465
H133	H	0.668874	0.300895	0.183313
H134	H	0.601602	0.257102	0.196010
H135	H	0.729114	0.253122	0.274350
H136	H	0.661865	0.209315	0.287053
H137	H	0.674469	0.171542	0.173346
H138	H	0.741738	0.215341	0.160652
H139	H	0.746532	0.161530	0.218247
H140	H	0.507021	0.401591	0.400319
H141	H	0.635119	0.222528	0.434650
C142	C	1.170505	0.386540	0.926052
C143	C	1.241408	0.400462	0.899863
C144	C	1.262234	0.460269	0.924275
H145	H	1.170577	0.387396	0.978518
H146	H	1.136467	0.416815	0.907897
H147	H	1.275437	0.370196	0.918022
H148	H	1.241355	0.399620	0.847400
H149	H	1.228196	0.490544	0.906119
H150	H	1.262302	0.461119	0.976740
H151	H	1.310340	0.469725	0.906503
C152	C	1.168758	0.671002	0.455568
C153	C	1.152596	0.654981	0.528826
C154	C	1.199891	0.687719	0.576366
H155	H	1.162032	0.714879	0.448883
H156	H	1.218534	0.660191	0.444814
H157	H	1.102831	0.665796	0.539577
H158	H	1.159326	0.611110	0.535534
H159	H	1.249667	0.676908	0.565612
H160	H	1.193161	0.731594	0.569675
H161	H	1.188936	0.676849	0.626076
H162	H	0.994457	0.220212	0.921210
H163	H	0.507609	0.284618	0.235782
H164	H	0.984200	0.662365	0.270606
H165	H	1.155923	0.542897	0.442557
C166	C	0.971276	0.534295	0.257636
C167	C	0.929848	0.577200	0.216122
C168	C	0.882470	0.544505	0.168622
H169	H	0.938920	0.508655	0.285853
H170	H	0.999600	0.508660	0.225345
H171	H	0.901525	0.602824	0.248409
H172	H	0.962184	0.602841	0.187889
H173	H	0.910794	0.518870	0.136331
H174	H	0.850119	0.518866	0.196846
H175	H	0.854360	0.573611	0.140445
H176	H	0.506132	0.341268	0.471297
C177	C	0.500521	0.187099	0.325485
C178	C	0.561030	0.156603	0.293312
C179	C	0.535742	0.110290	0.244612
H180	H	0.471363	0.206013	0.287932
H181	H	0.471486	0.157447	0.351832
H182	H	0.590052	0.186250	0.266965
H183	H	0.590194	0.137676	0.330846
H184	H	0.506707	0.080638	0.270959
H185	H	0.506583	0.129209	0.207064
H186	H	0.576793	0.089589	0.222782
H187	H	1.165381	0.369471	0.792424
H188	H	1.156052	0.943737	0.442628
H189	H	0.991208	0.223423	0.793642
C190	C	1.169017	1.071800	0.455544
C191	C	1.210476	1.028894	0.497024
C192	C	1.257926	1.061587	0.544454
H193	H	1.140765	1.097453	0.487864
H194	H	1.201344	1.097422	0.427254
H195	H	1.178153	1.003283	0.525312
H196	H	1.238742	1.003240	0.464723
H197	H	1.290253	1.087209	0.516164
H198	H	1.229668	1.087239	0.576769
H199	H	1.286066	1.032480	0.572599
C200	C	0.971555	1.072250	0.257834
C201	C	0.981715	1.136847	0.267977
C202	C	0.934470	1.169900	0.220617
H203	H	0.921758	1.061578	0.268591
H204	H	0.982422	1.061530	0.208064
H205	H	0.970843	1.147562	0.317736
H206	H	1.031501	1.147537	0.257216
H207	H	0.945337	1.159180	0.170847
H208	H	0.884676	1.159223	0.231377
H209	H	0.941362	1.213732	0.227487
H210	H	1.026045	0.401310	0.793725
C211	C	1.207015	0.276574	0.927025
C212	C	1.242849	0.249192	0.866526
C213	C	1.297299	0.207705	0.891832
H214	H	1.184741	0.244678	0.956167
H215	H	1.241929	0.298907	0.956079
H216	H	1.207941	0.226859	0.837484
H217	H	1.265140	0.281072	0.837378
H218	H	1.332213	0.230039	0.920886
H219	H	1.275018	0.175813	0.920974
H220	H	1.321624	0.189126	0.850788
C221	C	1.100472	0.186371	0.785396
C222	C	1.153309	0.213606	0.738888
C223	C	1.201095	0.166984	0.712574
H224	H	1.072992	0.155973	0.758599
H225	H	1.124538	0.166675	0.825896
H226	H	1.129245	0.233293	0.698394
H227	H	1.180807	0.243999	0.765669
H228	H	1.225161	0.147288	0.753074
H229	H	1.173608	0.136589	0.685780
H230	H	1.236954	0.185457	0.681021
H231	H	1.192209	0.287093	0.793521
H232	H	0.633763	0.340973	0.471867
