data_functionalizedCrystal
_audit_creation_method	'MofGen! by Chris Wilmer'
_symmetry_space_group_name_H-M	'P1'
_symmetry_Int_Tables_number	1
_symmetry_cell_setting	triclinic
loop_
_symmetry_equiv_pos_as_xyz
  x,y,z
_cell_length_a	14.519709
_cell_length_b	27.732048
_cell_length_c	13.596369
_cell_angle_alpha	89.989067
_cell_angle_beta	90.000291
_cell_angle_gamma	83.161400
loop_
_atom_site_label
_atom_site_type_symbol
_atom_site_fract_x
_atom_site_fract_y
_atom_site_fract_z
O1	O	1.222766	0.063362	-0.081675
O2	O	0.954159	0.070824	-0.081706
O3	O	1.096805	-0.003264	-0.081671
O4	O	1.080120	0.137450	-0.081710
O5	O	1.096791	-0.003268	0.081912
O6	O	0.954145	0.070820	0.081877
O7	O	1.222752	0.063358	0.081908
Zn8	Zn	1.088446	0.067088	0.107865
Zn9	Zn	1.088465	0.067094	-0.107663
O10	O	1.080106	0.137446	0.081873
C11	C	0.919799	0.070474	0.000082
C12	C	0.817435	0.069432	0.000071
C13	C	0.442606	0.065596	0.000116
C14	C	0.546896	0.066661	0.000103
C15	C	0.630018	0.067514	0.000093
C16	C	0.734314	0.068579	0.000081
C17	C	1.096448	-0.021274	0.000124
C18	C	1.095393	-0.074934	0.000132
C19	C	1.173048	-0.413378	0.000090
C20	C	1.169135	-0.615057	0.000076
O21	O	1.240145	-0.645973	0.000041
N22	N	1.084552	-0.634585	0.000067
C23	C	1.000941	-0.603690	0.000055
O24	O	0.928909	-0.624927	0.000037
C25	C	1.004855	-0.402012	0.000062
C26	C	1.089444	-0.382487	0.000081
C27	C	1.257630	-0.393853	0.000108
C28	C	1.258607	-0.343436	0.000117
C29	C	1.175003	-0.312545	0.000108
C30	C	1.090421	-0.332071	0.000090
C31	C	0.921246	-0.371118	0.000043
C32	C	0.922232	-0.320696	0.000043
C33	C	1.006820	-0.301171	0.000062
C34	C	1.007794	-0.250763	0.000090
N35	N	1.092377	-0.231235	0.000099
C36	C	1.175981	-0.262126	0.000108
C37	C	0.998893	-0.709574	0.000053
C38	C	0.997914	-0.759993	0.000053
C39	C	1.166108	-0.771356	0.000072
C40	C	1.167086	-0.720936	0.000079
C41	C	1.083476	-0.690045	0.000062
C42	C	1.178028	-0.156247	0.000128
C43	C	1.178998	-0.105825	0.000141
C44	C	1.010804	-0.094466	0.000116
C45	C	1.009833	-0.144883	0.000109
C46	C	1.093453	-0.175773	0.000111
O47	O	0.936822	-0.219818	0.000114
O48	O	1.248004	-0.240879	0.000104
C49	C	1.172071	-0.463795	0.000081
C50	C	1.087489	-0.483320	0.000063
C51	C	1.003885	-0.452429	0.000054
C52	C	1.086510	-0.533740	0.000063
C53	C	1.170115	-0.564631	0.000072
C54	C	1.254698	-0.545103	0.000081
C55	C	1.255675	-0.494686	0.000090
C56	C	0.919302	-0.471957	0.000046
C57	C	0.918331	-0.522375	0.000038
C58	C	1.001936	-0.553266	0.000047
C59	C	1.257113	0.063708	0.000119
C60	C	1.359476	0.064750	0.000123
C61	C	1.080464	0.155456	0.000077
C62	C	1.081518	0.209116	0.000062
N63	N	1.088441	0.067085	0.254957
N64	N	1.088478	0.067094	-0.254754
C65	C	1.088464	0.067094	0.656248
C66	C	1.088454	0.067093	0.544596
C67	C	1.088453	0.067090	0.455606
C68	C	1.088442	0.067088	0.343947
H69	H	1.247882	-0.089931	0.000158
C70	C	1.350353	-0.322148	0.000169
C71	C	1.333335	-0.271381	0.000192
C72	C	1.417833	-0.251758	0.000247
H73	H	1.384811	-0.332691	-0.056860
H74	H	1.384754	-0.332727	0.057238
H75	H	1.298949	-0.260807	-0.056871
H76	H	1.298891	-0.260825	0.057217
H77	H	1.452234	-0.262336	0.057315
H78	H	1.452285	-0.262305	-0.056783
H79	H	1.406298	-0.217311	0.000271
C80	C	0.828596	-0.438365	0.000193
C81	C	0.824244	-0.409090	0.084346
C82	C	0.740699	-0.378136	0.084514
H83	H	0.778009	-0.457159	0.000236
H84	H	0.825471	-0.418423	-0.056819
H85	H	0.827360	-0.429029	0.141343
H86	H	0.874811	-0.390286	0.084320
H87	H	0.737574	-0.358195	0.027502
H88	H	0.690120	-0.396934	0.084555
H89	H	0.737739	-0.358267	0.141605
C90	C	0.906102	-0.781215	0.000245
C91	C	0.900598	-0.809827	0.084414
C92	C	0.816027	-0.829378	0.084623
H93	H	0.902137	-0.800675	-0.056736
H94	H	0.856427	-0.755606	0.000290
H95	H	0.950259	-0.835432	0.084360
H96	H	0.904547	-0.790378	0.141408
H97	H	0.766352	-0.803768	0.084668
H98	H	0.812069	-0.848835	0.027639
H99	H	0.812278	-0.848789	0.141735
H100	H	0.852365	-0.387006	0.000022
H101	H	0.930803	-0.684426	0.000040
H102	H	1.234182	-0.796516	0.000080
H103	H	0.854144	-0.295547	0.000027
H104	H	1.246119	-0.181392	0.000126
C105	C	1.348508	-0.427306	0.000173
C106	C	1.422779	-0.399404	0.000213
C107	C	1.506515	-0.430201	0.000295
H108	H	1.351774	-0.447219	-0.056853
H109	H	1.351671	-0.447207	0.057244
H110	H	1.419618	-0.379512	-0.056853
H111	H	1.419544	-0.379493	0.057235
H112	H	1.509678	-0.450102	0.057366
H113	H	1.509772	-0.450113	-0.056733
H114	H	1.556918	-0.411275	0.000331
H115	H	0.940955	-0.160781	0.000120
H116	H	1.235965	-0.705043	0.000094
C117	C	0.920067	-0.060897	-0.000101
C118	C	0.915731	-0.031621	-0.084274
C119	C	0.832153	-0.000694	-0.084522
H120	H	0.916858	-0.040952	0.056877
H121	H	0.869518	-0.079726	-0.000166
H122	H	0.966266	-0.012794	-0.084199
H123	H	0.918924	-0.051554	-0.141265
H124	H	0.781604	-0.019523	-0.084588
H125	H	0.828951	0.019248	-0.027541
H126	H	0.829196	0.019170	-0.141636
C127	C	1.345371	-0.578728	0.000037
C128	C	1.326397	-0.627060	0.000001
C129	C	1.409896	-0.658051	-0.000060
H130	H	1.380155	-0.572875	0.057070
H131	H	1.380095	-0.572824	-0.057028
H132	H	1.291688	-0.632962	0.057060
H133	H	1.291627	-0.632929	-0.057027
H134	H	1.444620	-0.652147	-0.057125
H135	H	1.444674	-0.652193	0.056974
H136	H	1.397034	-0.690847	-0.000093
H137	H	1.324556	-0.478794	0.000105
C138	C	0.826389	-0.543476	-0.000033
C139	C	0.753388	-0.505625	-0.000067
C140	C	0.668682	-0.525043	-0.000155
H141	H	0.822364	-0.562909	0.056990
H142	H	0.822469	-0.562885	-0.057108
H143	H	0.757307	-0.486224	0.057003
H144	H	0.757384	-0.486188	-0.057085
H145	H	0.664761	-0.544452	-0.057230
H146	H	0.664666	-0.544476	0.056869
H147	H	0.619141	-0.499365	-0.000187
