data_functionalizedCrystal
_audit_creation_method	'MofGen! by Chris Wilmer'
_symmetry_space_group_name_H-M	'P1'
_symmetry_Int_Tables_number	1
_symmetry_cell_setting	triclinic
loop_
_symmetry_equiv_pos_as_xyz
  x,y,z
_cell_length_a	13.033293
_cell_length_b	16.120531
_cell_length_c	16.120256
_cell_angle_alpha	84.387676
_cell_angle_beta	85.311795
_cell_angle_gamma	79.562967
loop_
_atom_site_label
_atom_site_type_symbol
_atom_site_fract_x
_atom_site_fract_y
_atom_site_fract_z
Zn1	Zn	1.543876	0.208073	-0.638603
Zn2	Zn	1.793876	0.458073	-0.388603
Zn3	Zn	2.043876	0.708073	-0.138603
Zn4	Zn	2.293876	0.958073	0.111397
Zn5	Zn	1.543726	0.340772	-0.505890
Zn6	Zn	1.793726	0.590772	-0.255890
Zn7	Zn	2.043726	0.840772	-0.005890
Zn8	Zn	2.293726	1.090772	0.244110
Zn9	Zn	1.378441	0.216937	-0.482865
Zn10	Zn	1.628441	0.466937	-0.232865
Zn11	Zn	1.878441	0.716937	0.017135
Zn12	Zn	2.128441	0.966937	0.267135
Zn13	Zn	1.359708	0.365540	-0.627834
Zn14	Zn	1.609708	0.615540	-0.377834
Zn15	Zn	1.859708	0.865540	-0.127834
Zn16	Zn	2.109708	1.115540	0.122166
O17	O	1.456438	0.282831	-0.563798
O18	O	1.706438	0.532831	-0.313798
O19	O	1.956438	0.782831	-0.063798
O20	O	2.206438	1.032831	0.186202
O21	O	1.690103	0.211600	-0.635142
O22	O	1.940103	0.461600	-0.385142
O23	O	2.190103	0.711600	-0.135142
O24	O	2.440103	0.961600	0.114858
O25	O	1.529577	0.317690	-0.386625
O26	O	1.779577	0.567690	-0.136625
O27	O	2.029577	0.817690	0.113375
O28	O	2.279577	1.067690	0.363375
O29	O	1.408289	0.098035	-0.498395
O30	O	1.658289	0.348035	-0.248395
O31	O	1.908289	0.598035	0.001605
O32	O	2.158289	0.848035	0.251605
O33	O	1.689993	0.309094	-0.537639
O34	O	1.939993	0.559094	-0.287639
O35	O	2.189993	0.809094	-0.037639
O36	O	2.439993	1.059094	0.212361
O37	O	1.529834	0.091522	-0.612815
O38	O	1.779834	0.341522	-0.362815
O39	O	2.029834	0.591522	-0.112815
O40	O	2.279834	0.841522	0.137185
O41	O	1.408144	0.226709	-0.369708
O42	O	1.658144	0.476709	-0.119708
O43	O	1.908144	0.726709	0.130292
O44	O	2.158144	0.976709	0.380292
O45	O	1.229709	0.250725	-0.487952
O46	O	1.479709	0.500725	-0.237952
O47	O	1.729709	0.750725	0.012048
O48	O	1.979709	1.000725	0.262048
O49	O	1.376361	0.351308	-0.745473
O50	O	1.626361	0.601308	-0.495473
O51	O	1.876361	0.851308	-0.245473
O52	O	2.126361	1.101308	0.004527
O53	O	1.215945	0.359903	-0.594460
O54	O	1.465945	0.609903	-0.344460
O55	O	1.715945	0.859903	-0.094460
O56	O	1.965945	1.109903	0.155540
O57	O	1.511669	0.235617	-0.753385
O58	O	1.761669	0.485617	-0.503385
O59	O	2.011669	0.735617	-0.253385
O60	O	2.261669	0.985617	-0.003385
O61	O	1.511412	0.461784	-0.527196
O62	O	1.761412	0.711784	-0.277196
O63	O	2.011412	0.961784	-0.027196
O64	O	2.261412	1.211784	0.222804
O65	O	1.376215	0.479981	-0.616787
O66	O	1.626215	0.729981	-0.366787
O67	O	1.876215	0.979981	-0.116787
O68	O	2.126215	1.229981	0.133213
C69	C	1.184907	0.308964	-0.537539
C70	C	1.434907	0.558964	-0.287539
C71	C	1.684907	0.808964	-0.037539
C72	C	1.934907	1.058964	0.212461
C73	C	1.068742	0.320166	-0.526326
C74	C	1.318742	0.570166	-0.276326
C75	C	1.568742	0.820166	-0.026326
C76	C	1.818742	1.070166	0.223674
C77	C	1.016996	0.277006	-0.569651
C78	C	1.266996	0.527006	-0.319651
C79	C	1.516996	0.777006	-0.069651
C80	C	1.766996	1.027006	0.180349
C81	C	0.896934	0.288582	-0.558063
C82	C	1.146934	0.538582	-0.308063
C83	C	1.396934	0.788582	-0.058063
C84	C	1.646934	1.038582	0.191937
C85	C	1.441792	0.501406	-0.573342
C86	C	1.691792	0.751406	-0.323342
C87	C	1.941792	1.001406	-0.073342
C88	C	2.191792	1.251406	0.176658
C89	C	1.435620	0.594906	-0.577462
C90	C	1.685620	0.844906	-0.327462
C91	C	1.935620	1.094906	-0.077462
C92	C	2.185620	1.344906	0.172538
C93	C	1.424356	0.766090	-0.585001
C94	C	1.674356	1.016090	-0.335001
C95	C	1.924356	1.266090	-0.085001
C96	C	2.174356	1.516090	0.164999
C97	C	1.488561	0.798724	-0.542552
C98	C	1.738561	1.048724	-0.292552
C99	C	1.988561	1.298724	-0.042552
C100	C	2.238561	1.548724	0.207448
C101	C	1.482294	0.893977	-0.546747
C102	C	1.732294	1.143977	-0.296747
C103	C	1.982294	1.393977	-0.046747
C104	C	2.232294	1.643977	0.203253
C105	C	1.430622	0.670829	-0.580807
C106	C	1.680622	0.920829	-0.330807
C107	C	1.930622	1.170829	-0.080807
C108	C	2.180622	1.420829	0.169193
C109	C	1.729029	0.256595	-0.590160
C110	C	1.979029	0.506595	-0.340160
C111	C	2.229029	0.756595	-0.090160
C112	C	2.479029	1.006595	0.159840
C113	C	1.845191	0.245416	-0.601394
C114	C	2.095191	0.495416	-0.351394
C115	C	2.345191	0.745416	-0.101394
C116	C	2.595191	0.995416	0.148606
C117	C	1.471132	1.063403	-0.554219
C118	C	1.721132	1.313403	-0.304219
C119	C	1.971132	1.563403	-0.054219
C120	C	2.221132	1.813403	0.195781
C121	C	1.477301	0.969903	-0.550089
C122	C	1.727301	1.219903	-0.300089
C123	C	1.977301	1.469903	-0.050089
C124	C	2.227301	1.719903	0.199911
C125	C	1.441942	0.295236	-0.780404
C126	C	1.691942	0.545236	-0.530404
C127	C	1.941942	0.795236	-0.280404
C128	C	2.191942	1.045236	-0.030404
C129	C	1.435765	0.300523	-0.872708
C130	C	1.685765	0.550523	-0.622708
C131	C	1.935765	0.800523	-0.372708
C132	C	2.185765	1.050523	-0.122708
C133	C	1.488651	0.255241	-1.086746
C134	C	1.738651	0.505241	-0.836746
C135	C	1.988651	0.755241	-0.586746
C136	C	2.238651	1.005241	-0.336746
C137	C	1.424454	0.310143	-1.041700
C138	C	1.674454	0.560143	-0.791700
C139	C	1.924454	0.810143	-0.541700
C140	C	2.174454	1.060143	-0.291700
C141	C	1.430749	0.304788	-0.947664
C142	C	1.680749	0.554788	-0.697664
C143	C	1.930749	0.804788	-0.447664
C144	C	2.180749	1.054788	-0.197664
C145	C	1.482357	0.260594	-1.180791
C146	C	1.732357	0.510594	-0.930791
C147	C	1.982357	0.760594	-0.680791
C148	C	2.232357	1.010594	-0.430791
C149	C	1.470941	0.270407	-0.348038
C150	C	1.720941	0.520407	-0.098038
C151	C	1.970941	0.770407	0.151962
C152	C	2.220941	1.020407	0.401962
C153	C	1.477337	0.264864	-0.255743
C154	C	1.727337	0.514864	-0.005743
C155	C	1.977337	0.764864	0.244257
C156	C	2.227337	1.014864	0.494257
H157	H	0.852354	0.334104	-0.512386
H158	H	1.102354	0.584104	-0.262386
H159	H	1.352354	0.834104	-0.012386
H160	H	1.602354	1.084104	0.237614
Cl161	Cl	1.085822	0.206719	-0.640165
Cl162	Cl	1.335822	0.456719	-0.390165
Cl163	Cl	1.585822	0.706719	-0.140165
Cl164	Cl	1.835822	0.956719	0.109835
H165	H	1.548335	0.204221	-1.054691
H166	H	1.798335	0.454221	-0.804691
H167	H	2.048335	0.704221	-0.554691
H168	H	2.298335	0.954221	-0.304691
H169	H	1.024158	0.365685	-0.480653
H170	H	1.274158	0.615685	-0.230653
H171	H	1.524158	0.865685	0.019347
H172	H	1.774158	1.115685	0.269347
Cl173	Cl	1.580691	0.731415	-0.481573
Cl174	Cl	1.830691	0.981415	-0.231573
Cl175	Cl	2.080691	1.231415	0.018427
Cl176	Cl	2.330691	1.481415	0.268427
Cl177	Cl	1.332300	0.388923	-1.091191
Cl178	Cl	1.582300	0.638923	-0.841191
Cl179	Cl	1.832300	0.888923	-0.591191
Cl180	Cl	2.082300	1.138923	-0.341191
Cl181	Cl	0.914010	0.175121	-0.671907
Cl182	Cl	1.164010	0.425121	-0.421907
Cl183	Cl	1.414010	0.675121	-0.171907
Cl184	Cl	1.664010	0.925121	0.078093
Cl185	Cl	1.332226	0.833400	-0.645969
Cl186	Cl	1.582226	1.083400	-0.395969
Cl187	Cl	1.832226	1.333400	-0.145969
Cl188	Cl	2.082226	1.583400	0.104031
