data_functionalizedCrystal
_audit_creation_method	'MofGen! by Chris Wilmer'
_symmetry_space_group_name_H-M	'P1'
_symmetry_Int_Tables_number	1
_symmetry_cell_setting	triclinic
loop_
_symmetry_equiv_pos_as_xyz
  x,y,z
_cell_length_a	21.395362
_cell_length_b	25.639239
_cell_length_c	21.395356
_cell_angle_alpha	89.971496
_cell_angle_beta	89.957023
_cell_angle_gamma	90.054564
loop_
_atom_site_label
_atom_site_type_symbol
_atom_site_fract_x
_atom_site_fract_y
_atom_site_fract_z
Zn1	Zn	0.957819	-0.207942	-0.354582
Zn2	Zn	0.957709	-0.295376	-0.249803
Zn3	Zn	0.853036	-0.207981	-0.249783
Zn4	Zn	0.852988	-0.295373	-0.354508
O5	O	0.905388	-0.251668	-0.302169
O6	O	1.045482	-0.219526	-0.340722
O7	O	0.943797	-0.283800	-0.162122
O8	O	0.867001	-0.134810	-0.263708
O9	O	1.045401	-0.283763	-0.263742
O10	O	0.943985	-0.134782	-0.340703
O11	O	0.866894	-0.219591	-0.162108
O12	O	0.765351	-0.219588	-0.263636
O13	O	0.866921	-0.283758	-0.442196
O14	O	0.765317	-0.283795	-0.340576
O15	O	0.943939	-0.219523	-0.442250
O16	O	0.943751	-0.368541	-0.263669
O17	O	0.866814	-0.368539	-0.340596
C18	C	0.742600	-0.251696	-0.302096
C19	C	0.672959	-0.251720	-0.302080
C20	C	0.640244	-0.285197	-0.342083
C21	C	0.574809	-0.285184	-0.342111
C22	C	0.542091	-0.251700	-0.302125
C23	C	0.574813	-0.218217	-0.262119
C24	C	0.640247	-0.218227	-0.262097
C25	C	0.438368	-0.247496	-0.245720
C26	C	0.372935	-0.247489	-0.245741
C27	C	0.340270	-0.251666	-0.302194
C28	C	0.373046	-0.255860	-0.358627
C29	C	0.438480	-0.255870	-0.358605
C30	C	0.471138	-0.251685	-0.302145
C31	C	0.236603	-0.285130	-0.342231
C32	C	0.171166	-0.285114	-0.342260
C33	C	0.171172	-0.218149	-0.262262
C34	C	0.236607	-0.218163	-0.262239
C35	C	0.269319	-0.251657	-0.302222
C36	C	0.905282	-0.387511	-0.302140
C37	C	0.905295	-0.445625	-0.302149
C38	C	0.945554	-0.805976	-0.262182
C39	C	0.945578	-0.860581	-0.262190
O40	O	0.979698	-0.888808	-0.228177
N41	N	0.905498	-0.887907	-0.302211
C42	C	0.865396	-0.860626	-0.342230
O43	O	0.831307	-0.888884	-0.376271
C44	C	0.865375	-0.806023	-0.342224
C45	C	0.905453	-0.778699	-0.302196
C46	C	0.985629	-0.778653	-0.222158
C47	C	0.985604	-0.724052	-0.222149
C48	C	0.945503	-0.696775	-0.262164
C49	C	0.905428	-0.724099	-0.302187
C50	C	0.825276	-0.778743	-0.382246
C51	C	0.825259	-0.724136	-0.382237
C52	C	0.865337	-0.696813	-0.342209
C53	C	0.865302	-0.642222	-0.342193
N54	N	0.905382	-0.614895	-0.302173
C55	C	0.945483	-0.642172	-0.262158
C56	C	0.865443	-0.975297	-0.342239
C57	C	0.865460	-1.029899	-0.342242
C58	C	0.945643	-1.029850	-0.262204
C59	C	0.945623	-0.975246	-0.262198
C60	C	0.905523	-0.947971	-0.302219
C61	C	0.945426	-0.527507	-0.262142
C62	C	0.945395	-0.472902	-0.262134
C63	C	0.865215	-0.472956	-0.342175
C64	C	0.865243	-0.527556	-0.342180
C65	C	0.905353	-0.554831	-0.302162
O66	O	0.831201	-0.613960	-0.376190
O67	O	0.979571	-0.613908	-0.228128
C68	C	1.068811	-0.251641	-0.302242
C69	C	1.138452	-0.251629	-0.302274
C70	C	0.905437	-0.251636	-0.465592
C71	C	0.905458	-0.251622	-0.535234
C72	C	0.905511	-0.115295	-0.302212
C73	C	0.905563	-0.057181	-0.302230
C74	C	0.865426	-0.218184	-0.567929
C75	C	0.865423	-0.218175	-0.633365
C76	C	0.905465	-0.251597	-0.666102
C77	C	0.945500	-0.285041	-0.633398
C78	C	0.945497	-0.285053	-0.567964
C79	C	0.961916	-0.255694	-0.769807
C80	C	0.961921	-0.255678	-0.835240
C81	C	0.905475	-0.251562	-0.867923
C82	C	0.849024	-0.247450	-0.835164
C83	C	0.849020	-0.247462	-0.769730
C84	C	0.905473	-0.251587	-0.737054
C85	C	0.865437	-0.218112	-0.971571
C86	C	0.865434	-0.218106	-1.037008
C87	C	0.945517	-0.284969	-1.037040
C88	C	0.945514	-0.284978	-0.971605
C89	C	0.905475	-0.251547	-0.938874
C90	C	0.905375	-0.251663	-0.139381
C91	C	0.905475	-0.251529	-0.069741
H92	H	0.548167	-0.312445	-0.374689
O93	O	0.984503	-0.317411	-1.068761
C94	C	1.046958	-0.305966	-1.052828
H95	H	1.048269	-0.285872	-1.005328
H96	H	1.068089	-0.279077	-1.089680
C97	C	1.083256	-0.381609	-1.108148
C98	C	1.084866	-0.356934	-1.049804
H99	H	1.106641	-0.413048	-1.106285
H100	H	1.041179	-0.389319	-1.118884
H101	H	1.100864	-0.359196	-1.138851
H102	H	1.067252	-0.379344	-1.019103
H103	H	1.126941	-0.349229	-1.039062
O104	O	0.786283	-0.805302	-0.421044
C105	C	0.745847	-0.836962	-0.385341
H106	H	0.741986	-0.820543	-0.335984
H107	H	0.765235	-0.878326	-0.383218
C108	C	0.685447	-0.858014	-0.476505
C109	C	0.680700	-0.837846	-0.415885
H110	H	0.645262	-0.858562	-0.495346
H111	H	0.712690	-0.836686	-0.500559
H112	H	0.701605	-0.892482	-0.474727
H113	H	0.664549	-0.803376	-0.417664
H114	H	0.653452	-0.859169	-0.391832
H115	H	0.792606	-0.701931	-0.414829
H116	H	0.548170	-0.190953	-0.229563
H117	H	1.018287	-0.800856	-0.189573
H118	H	0.263244	-0.190905	-0.229661
O119	O	0.984330	-0.317517	-0.536104
C120	C	0.975755	-0.310349	-0.471331
H121	H	0.927417	-0.293234	-0.462366
H122	H	1.012944	-0.282503	-0.452800
C123	C	1.040816	-0.384275	-0.448730
C124	C	0.981445	-0.363258	-0.437719
H125	H	1.044328	-0.416910	-0.427995
H126	H	1.046596	-0.389103	-0.492368
H127	H	1.071800	-0.361064	-0.433287
H128	H	0.950462	-0.386465	-0.453168
H129	H	0.975660	-0.358434	-0.394082
H130	H	0.978258	-0.953003	-0.229605
H131	H	0.666874	-0.312469	-0.374642
O132	O	0.984709	-1.056357	-0.223448
C133	C	1.025154	-1.087862	-0.259218
H134	H	1.028926	-1.071373	-0.308570
H135	H	1.005833	-1.129277	-0.261340
C136	C	1.085702	-1.108858	-0.168141
C137	C	1.090340	-1.088603	-0.228755
H138	H	1.125911	-1.109317	-0.149350
H139	H	1.058453	-1.087634	-0.144041
H140	H	1.069599	-1.143368	-0.169918
H141	H	1.106435	-1.054091	-0.226977
H142	H	1.117594	-1.109821	-0.252854
O143	O	0.470223	-0.259920	-0.413478
C144	C	0.427368	-0.263618	-0.463313
H145	H	0.380729	-0.246028	-0.448536
H146	H	0.420368	-0.306357	-0.476235
C147	C	0.510293	-0.255291	-0.538402
C148	C	0.453013	-0.233682	-0.520255
H149	H	0.526112	-0.236827	-0.573528
H150	H	0.539166	-0.252801	-0.504828
H151	H	0.504452	-0.290906	-0.549167
H152	H	0.458856	-0.198070	-0.509483
H153	H	0.424141	-0.236166	-0.553828
O154	O	0.341196	-0.243388	-0.190871
C155	C	0.384055	-0.239708	-0.141039
H156	H	0.430739	-0.224584	-0.159324
H157	H	0.390937	-0.279874	-0.119238
C158	C	0.301176	-0.220437	-0.068897
C159	C	0.358513	-0.201857	-0.091354
H160	H	0.285420	-0.197091	-0.038247
H161	H	0.272300	-0.222918	-0.102469
H162	H	0.306919	-0.253909	-0.050734
H163	H	0.352768	-0.168389	-0.109523
H164	H	0.387387	-0.199370	-0.057783
O165	O	0.826627	-0.185602	-1.068843
C166	C	0.862329	-0.151815	-1.106724
H167	H	0.909796	-0.170246	-1.116552
H168	H	0.869246	-0.113069	-1.081532
C169	C	0.769566	-0.119716	-1.156790
C170	C	0.827864	-0.142354	-1.168865
H171	H	0.748306	-0.113878	-1.195119
H172	H	0.745513	-0.142477	-1.131266
H173	H	0.775339	-0.087430	-1.135794
H174	H	0.822091	-0.174643	-1.189852
H175	H	0.851916	-0.119598	-1.194393
H176	H	0.346452	-0.259260	-0.404597
O177	O	0.826290	-0.554021	-0.381119
C178	C	0.790878	-0.518234	-0.416421
H179	H	0.816519	-0.479279	-0.418609
H180	H	0.743299	-0.512496	-0.393418
C181	C	0.750336	-0.587358	-0.480413
C182	C	0.781832	-0.539514	-0.483105
H183	H	0.744753	-0.600485	-0.521546
H184	H	0.774191	-0.611469	-0.456628
H185	H	0.710690	-0.582570	-0.461241
H186	H	0.821479	-0.544303	-0.502269
H187	H	0.757983	-0.515404	-0.506895
O188	O	0.470166	-0.243512	-0.190910
C189	C	0.507934	-0.288026	-0.182728
H190	H	0.517758	-0.306577	-0.230135
H191	H	0.482643	-0.317294	-0.151529
C192	C	0.558014	-0.249267	-0.093670
C193	C	0.570085	-0.272050	-0.151897
H194	H	0.596351	-0.239414	-0.074650
H195	H	0.532568	-0.219278	-0.099181
H196	H	0.536937	-0.273661	-0.067678
H197	H	0.591154	-0.247654	-0.177890
H198	H	0.595536	-0.302035	-0.146390
O199	O	0.826457	-1.056462	-0.381031
C200	C	0.786029	-1.088121	-0.345319
H201	H	0.782177	-1.071700	-0.295962
H202	H	0.805418	-1.129485	-0.343196
C203	C	0.725612	-1.109179	-0.436469
C204	C	0.720876	-1.089007	-0.375850
H205	H	0.685424	-1.109728	-0.455303
H206	H	0.752851	-1.087851	-0.460530
H207	H	0.741772	-1.143647	-0.434692
H208	H	0.704724	-1.054538	-0.377629
H209	H	0.693634	-1.110329	-0.351790
H210	H	0.666883	-0.190964	-0.229521
O211	O	0.984318	-0.317511	-0.939813
C212	C	0.948617	-0.351285	-0.901915
H213	H	0.899267	-0.354520	-0.921598
H214	H	0.946471	-0.335129	-0.852327
C215	C	1.039790	-0.401660	-0.876739
C216	C	0.979180	-0.405636	-0.900917
H217	H	1.058644	-0.435185	-0.876121
H218	H	1.063844	-0.378904	-0.902270
H219	H	1.037994	-0.388194	-0.835419
H220	H	0.980978	-0.419095	-0.942240
H221	H	0.955127	-0.428395	-0.875393
O222	O	0.268286	-0.317675	-0.381134
C223	C	0.225376	-0.347226	-0.416443
H224	H	0.178764	-0.325805	-0.418674
H225	H	0.218336	-0.386910	-0.393419
C226	C	0.308226	-0.381145	-0.480362
C227	C	0.250979	-0.354833	-0.483106
H228	H	0.324020	-0.385840	-0.521482
H229	H	0.337137	-0.361238	-0.456572
H230	H	0.302352	-0.414212	-0.461172
H231	H	0.256855	-0.321764	-0.502288
H232	H	0.222070	-0.374735	-0.506901
H233	H	0.803061	-0.244094	-0.861773
H234	H	0.144531	-0.312374	-0.374839
O235	O	0.826516	-0.185641	-0.665038
C236	C	0.791164	-0.156148	-0.622117
H237	H	0.816823	-0.154344	-0.575490
H238	H	0.743558	-0.175298	-0.615122
C239	C	0.750681	-0.102713	-0.704937
C240	C	0.782198	-0.100494	-0.647670
H241	H	0.745147	-0.068384	-0.720700
H242	H	0.774496	-0.122585	-0.733854
H243	H	0.711012	-0.118675	-0.699100
H244	H	0.821869	-0.084539	-0.653509
H245	H	0.758389	-0.080618	-0.618754
H246	H	0.832563	-0.450739	-0.374753
H247	H	0.978032	-0.450656	-0.229537
O248	O	0.984407	-0.553915	-0.223207
C249	C	1.019779	-0.518081	-0.187894
H250	H	0.994094	-0.479189	-0.185695
H251	H	1.067351	-0.512207	-0.210895
C252	C	1.060397	-0.587175	-0.123922
C253	C	1.028848	-0.539408	-0.121216
H254	H	1.065994	-0.600331	-0.082792
H255	H	1.036568	-0.611318	-0.147714
H256	H	1.100037	-0.582274	-0.143092
H257	H	0.989206	-0.544311	-0.102054
H258	H	1.052670	-0.515267	-0.097419
O259	O	0.794129	-0.243493	-0.738005
C260	C	0.744307	-0.239843	-0.780876
H261	H	0.759125	-0.257398	-0.827527
H262	H	0.731333	-0.197118	-0.787837
C263	C	0.669196	-0.248294	-0.697989
C264	C	0.687393	-0.269860	-0.755285
H265	H	0.634087	-0.266807	-0.682202
H266	H	0.702761	-0.250751	-0.669105
H267	H	0.658388	-0.212690	-0.703797
H268	H	0.698208	-0.305460	-0.749474
H269	H	0.653828	-0.267409	-0.784167
H270	H	0.144533	-0.190884	-0.229707
H271	H	0.832820	-0.190964	-0.541284
H272	H	1.018241	-0.701808	-0.189557
O273	O	0.984486	-0.317480	-0.665127
C274	C	1.046942	-0.306039	-0.649194
H275	H	1.048255	-0.285950	-0.601691
H276	H	1.068073	-0.279147	-0.686043
C277	C	1.083235	-0.381678	-0.704524
C278	C	1.084848	-0.357008	-0.646178
H279	H	1.106619	-0.413118	-0.702666
H280	H	1.041158	-0.389386	-0.715261
H281	H	1.100843	-0.359263	-0.735226
H282	H	1.067233	-0.379421	-0.615479
H283	H	1.126923	-0.349305	-0.635436
O284	O	0.826479	-0.185628	-0.939869
C285	C	0.791148	-0.156108	-0.982763
H286	H	0.788964	-0.177515	-1.029398
H287	H	0.814123	-0.116392	-0.989751
C288	C	0.727151	-0.122302	-0.899902
C289	C	0.724465	-0.148597	-0.957179
H290	H	0.686019	-0.117666	-0.884121
H291	H	0.750956	-0.142188	-0.871003
H292	H	0.746300	-0.089207	-0.905734
H293	H	0.705324	-0.181692	-0.951345
H294	H	0.700655	-0.128715	-0.986076
O295	O	1.016808	-0.259699	-0.866962
C296	C	1.066628	-0.263330	-0.824087
H297	H	1.048345	-0.278494	-0.777426
H298	H	1.088375	-0.223139	-0.817154
C299	C	1.138827	-0.282481	-0.906957
C300	C	1.116372	-0.301110	-0.849649
H301	H	1.169513	-0.305783	-0.922726
H302	H	1.105263	-0.280033	-0.935844
H303	H	1.156945	-0.248989	-0.901172
H304	H	1.098248	-0.334599	-0.855436
H305	H	1.149934	-0.303565	-0.820764
H306	H	0.832783	-0.953092	-0.374827
H307	H	1.007885	-0.259042	-0.743203
