data_functionalizedCrystal
_audit_creation_method	'MofGen! by Chris Wilmer'
_symmetry_space_group_name_H-M	'P1'
_symmetry_Int_Tables_number	1
_symmetry_cell_setting	triclinic
loop_
_symmetry_equiv_pos_as_xyz
  x,y,z
_cell_length_a	34.490303
_cell_length_b	34.489386
_cell_length_c	34.485816
_cell_angle_alpha	60.004462
_cell_angle_beta	60.008900
_cell_angle_gamma	59.994399
loop_
_atom_site_label
_atom_site_type_symbol
_atom_site_fract_x
_atom_site_fract_y
_atom_site_fract_z
O1	O	0.053846	-0.566517	0.473678
O2	O	0.387179	-0.233184	0.807011
O3	O	0.720513	0.100150	1.140345
O4	O	0.020329	-0.441078	0.381663
O5	O	0.353663	-0.107745	0.714996
O6	O	0.686996	0.225588	1.048329
O7	O	0.099768	-0.520436	0.381578
O8	O	0.433101	-0.187103	0.714912
O9	O	0.766434	0.146230	1.048245
O10	O	-0.025592	-0.487159	0.473762
O11	O	0.307741	-0.153826	0.807096
O12	O	0.641074	0.179508	1.140429
O13	O	0.126127	-0.494082	0.407849
O14	O	0.459461	-0.160749	0.741182
O15	O	0.792794	0.172584	1.074515
O16	O	0.046689	-0.414724	0.407933
O17	O	0.380022	-0.081391	0.741266
O18	O	0.713356	0.251942	1.074600
O19	O	0.080206	-0.540163	0.499949
O20	O	0.413539	-0.206830	0.833282
O21	O	0.746872	0.126504	1.166615
Zn22	Zn	0.067632	-0.473259	0.458112
Zn23	Zn	0.400966	-0.139926	0.791445
Zn24	Zn	0.734299	0.193407	1.124778
Zn25	Zn	0.032903	-0.507982	0.423499
Zn26	Zn	0.366236	-0.174649	0.756833
Zn27	Zn	0.699569	0.158685	1.090166
O28	O	0.000767	-0.460805	0.500033
O29	O	0.334101	-0.127471	0.833366
O30	O	0.667434	0.205862	1.166699
N31	N	0.091336	-0.449565	0.481736
N32	N	0.424669	-0.116232	0.815070
N33	N	0.758002	0.217101	1.148403
N34	N	0.009203	-0.531680	0.399875
N35	N	0.342537	-0.198347	0.733208
N36	N	0.675870	0.134986	1.066541
C37	C	0.142510	-0.268211	0.532817
C38	C	0.475843	0.065122	0.866150
C39	C	0.809176	0.398456	1.199483
C40	C	0.142641	-0.398441	0.662987
C41	C	0.475974	-0.065108	0.996320
C42	C	0.809307	0.268225	1.329653
C43	C	0.142524	-0.398421	0.532817
C44	C	0.475858	-0.065088	0.866150
C45	C	0.809191	0.268245	1.199484
C46	C	0.272762	-0.398394	0.532723
C47	C	0.606096	-0.065060	0.866056
C48	C	0.939429	0.268273	1.199389
C49	C	0.156853	-0.311177	0.547124
C50	C	0.490187	0.022157	0.880457
C51	C	0.823520	0.355490	1.213791
C52	C	0.156928	-0.384109	0.620020
C53	C	0.490261	-0.050775	0.953354
C54	C	0.823594	0.282558	1.286687
C55	C	0.229794	-0.384081	0.547073
C56	C	0.563128	-0.050747	0.880406
C57	C	0.896461	0.282586	1.213739
C58	C	0.156863	-0.384097	0.547124
C59	C	0.490196	-0.050764	0.880458
C60	C	0.823529	0.282570	1.213791
C61	C	0.124253	-0.213522	0.514606
C62	C	0.457586	0.119812	0.847939
C63	C	0.790920	0.453145	1.181272
C64	C	0.124277	-0.416652	0.514606
C65	C	0.457610	-0.083319	0.847940
C66	C	0.790943	0.250015	1.181273
C67	C	0.175110	-0.365866	0.565335
C68	C	0.508444	-0.032533	0.898668
C69	C	0.841777	0.300801	1.232002
C70	C	0.352285	-0.384669	0.490824
C71	C	0.685619	-0.051336	0.824157
C72	C	1.018952	0.281997	1.157490
C73	C	0.401998	-0.401229	0.474223
C74	C	0.735332	-0.067896	0.807556
C75	C	1.068665	0.265437	1.140890
C76	C	0.402027	-0.481671	0.504898
C77	C	0.735361	-0.148337	0.838231
C78	C	1.068694	0.184996	1.171565
C79	C	0.352316	-0.465109	0.521500
C80	C	0.685649	-0.131776	0.854833
C81	C	1.018982	0.201557	1.188167
C82	C	0.136220	-0.188652	0.465734
C83	C	0.469554	0.144681	0.799068
C84	C	0.802887	0.478014	1.132401
C85	C	0.119621	-0.138936	0.449181
C86	C	0.452955	0.194397	0.782515
C87	C	0.786288	0.527731	1.115848
C88	C	0.079092	-0.138961	0.530374
C89	C	0.412425	0.194372	0.863707
C90	C	0.745758	0.527705	1.197040
C91	C	0.095691	-0.188678	0.546927
C92	C	0.429024	0.144656	0.880260
C93	C	0.762357	0.477989	1.213593
C94	C	0.075398	-0.404656	0.526651
C95	C	0.408731	-0.071323	0.859985
C96	C	0.742065	0.262011	1.193318
C97	C	0.058814	-0.421229	0.510091
C98	C	0.392147	-0.087896	0.843424
C99	C	0.725481	0.245437	1.176758
C100	C	0.139984	-0.461794	0.469452
C101	C	0.473317	-0.128461	0.802786
C102	C	0.806650	0.204872	1.136119
C103	C	0.156570	-0.445221	0.486007
C104	C	0.489903	-0.111888	0.819340
C105	C	0.823236	0.221446	1.152673
C106	C	0.075593	-0.404694	0.742565
C107	C	0.408926	-0.071360	1.075898
C108	C	0.742259	0.261973	1.409231
C109	C	0.059066	-0.421281	0.792280
C110	C	0.392399	-0.087948	1.125613
C111	C	0.725733	0.245385	1.458946
C112	C	0.140274	-0.461856	0.792215
C113	C	0.473607	-0.128522	1.125549
C114	C	0.806941	0.204811	1.458882
C115	C	0.156800	-0.445269	0.742499
C116	C	0.490133	-0.111936	1.075832
C117	C	0.823466	0.221398	1.409166
C118	C	0.124458	-0.416687	0.717675
C119	C	0.457791	-0.083353	1.051008
C120	C	0.791125	0.249980	1.384342
C121	C	0.327446	-0.416608	0.514460
C122	C	0.660779	-0.083275	0.847794
C123	C	0.994113	0.250058	1.181127
C124	C	-0.023585	-0.564792	0.161919
C125	C	0.309748	-0.231458	0.495253
C126	C	0.643081	0.101875	0.828586
C127	C	-0.023910	-0.769260	0.366530
C128	C	0.309423	-0.435927	0.699863
C129	C	0.642756	-0.102594	1.033197
C130	C	-0.023880	-0.564780	0.366623
C131	C	0.309454	-0.231447	0.699957
C132	C	0.642787	0.101886	1.033290
C133	C	-0.228325	-0.564561	0.366222
C134	C	0.105008	-0.231228	0.699555
C135	C	0.438341	0.102105	1.032888
C136	C	-0.129610	-0.597564	0.333467
C137	C	0.203723	-0.264230	0.666800
C138	C	0.537056	0.069103	1.000134
C139	C	-0.056729	-0.597644	0.333613
C140	C	0.276604	-0.264311	0.666946
C141	C	0.609937	0.069022	1.000279
C142	C	-0.074925	-0.615849	0.315324
C143	C	0.258409	-0.282516	0.648657
C144	C	0.591742	0.050817	0.981991
C145	C	-0.088689	-0.695351	0.357144
C146	C	0.244644	-0.362018	0.690478
C147	C	0.577978	-0.028685	1.023811
C148	C	-0.072155	-0.745068	0.373736
C149	C	0.261178	-0.411735	0.707069
C150	C	0.594511	-0.078401	1.040402
C151	C	0.008283	-0.745150	0.343188
C152	C	0.341616	-0.411817	0.676522
C153	C	0.674950	-0.078484	1.009855
C154	C	-0.008252	-0.695435	0.326596
C155	C	0.325081	-0.362101	0.659929
C156	C	0.658414	-0.028768	0.993263
C157	C	-0.154529	-0.609541	0.382326
C158	C	0.178805	-0.276208	0.715660
C159	C	0.512138	0.057125	1.048993
C160	C	-0.204241	-0.592916	0.398818
C161	C	0.129092	-0.259583	0.732151
C162	C	0.462425	0.073751	1.065484
C163	C	-0.204114	-0.552341	0.317588
C164	C	0.129220	-0.219007	0.650921
C165	C	0.462553	0.114326	0.984254
C166	C	-0.154401	-0.568966	0.301096
C167	C	0.178932	-0.235632	0.634430
C168	C	0.512266	0.097701	0.967763
C169	C	-0.068707	-0.548770	0.321590
C170	C	0.264626	-0.215436	0.654923
C171	C	0.597959	0.117897	0.988256
C172	C	-0.052166	-0.532225	0.338221
C173	C	0.281167	-0.198891	0.671554
C174	C	0.614500	0.134442	1.004888
C175	C	-0.011669	-0.613425	0.378886
C176	C	0.321665	-0.280091	0.712220
C177	C	0.654998	0.053242	1.045553
C178	C	-0.028210	-0.629972	0.362261
C179	C	0.305124	-0.296638	0.695594
C180	C	0.638457	0.036695	1.028927
C181	C	-0.068581	-0.548777	0.235758
C182	C	0.264752	-0.215444	0.569091
C183	C	0.598086	0.117890	0.902424
C184	C	-0.051939	-0.532234	0.186043
C185	C	0.281395	-0.198900	0.519376
C186	C	0.614728	0.134433	0.852709
C187	C	-0.011379	-0.613438	0.186090
C188	C	0.321955	-0.280105	0.519423
C189	C	0.655288	0.053228	0.852757
C190	C	-0.028020	-0.629981	0.235806
C191	C	0.305313	-0.296647	0.569140
C192	C	0.638647	0.036686	0.902473
C193	C	-0.056622	-0.597649	0.260639
C194	C	0.276711	-0.264315	0.593972
C195	C	0.610044	0.069018	0.927305
C196	C	-0.056739	-0.670537	0.333576
C197	C	0.276595	-0.337204	0.666909
C198	C	0.609928	-0.003870	1.000243
C199	C	-0.005614	-0.545951	0.107238
C200	C	0.327719	-0.212618	0.440571
C201	C	0.661052	0.120716	0.773905
C202	C	-0.006360	-0.823943	0.385033
C203	C	0.326973	-0.490610	0.718366
C204	C	0.660307	-0.157277	1.051699
C205	C	-0.005995	-0.545937	0.384582
C206	C	0.327338	-0.212604	0.717915
C207	C	0.660671	0.120730	1.051248
C208	C	-0.283006	-0.545971	0.383725
C209	C	0.050328	-0.212637	0.717058
C210	C	0.383661	0.120696	1.050391
N211	N	0.426163	-0.449489	0.481488
N212	N	0.759496	-0.116155	0.814821
N213	N	1.092829	0.217178	1.148155
O214	O	0.588601	-0.457377	0.364497
O215	O	0.921934	-0.124043	0.697830
O216	O	1.255268	0.209290	1.031163
O217	O	0.588789	-0.549696	0.489801
O218	O	0.922122	-0.216362	0.823134
O219	O	1.255456	0.116971	1.156468
O220	O	0.588709	-0.549485	0.410335
O221	O	0.922042	-0.216151	0.743668
O222	O	1.255375	0.117182	1.077002
O223	O	0.588681	-0.457588	0.443963
O224	O	0.922015	-0.124254	0.777296
O225	O	1.255348	0.209079	1.110629
O226	O	0.509731	-0.523223	0.436741
O227	O	0.843064	-0.189890	0.770074
O228	O	1.176398	0.143444	1.103408
O229	O	0.509811	-0.523434	0.516207
O230	O	0.843145	-0.190101	0.849540
O231	O	1.176478	0.143233	1.182874
O232	O	0.509624	-0.431115	0.390903
O233	O	0.842957	-0.097782	0.724236
O234	O	1.176290	0.235552	1.057569
Zn235	Zn	0.497178	-0.473105	0.457747
Zn236	Zn	0.830511	-0.139772	0.791081
Zn237	Zn	1.163845	0.193562	1.124414
Zn238	Zn	0.601234	-0.507706	0.422956
Zn239	Zn	0.934568	-0.174372	0.756290
Zn240	Zn	1.267901	0.158961	1.089623
O241	O	0.509704	-0.431326	0.470368
O242	O	0.843037	-0.097993	0.803702
O243	O	1.176371	0.235341	1.137035
N244	N	0.672250	-0.531322	0.399211
N245	N	1.005583	-0.197989	0.732544
N246	N	1.338917	0.135344	1.065877
N247	N	0.091303	-0.114798	0.481730
N248	N	0.424637	0.218535	0.815063
N249	N	0.757970	0.551869	1.148397
O250	O	-0.025603	0.047729	0.473733
O251	O	0.307731	0.381062	0.807066
O252	O	0.641064	0.714395	1.140400
O253	O	0.099703	0.047764	0.381394
O254	O	0.433037	0.381097	0.714727
O255	O	0.766370	0.714431	1.048061
O256	O	0.020199	0.047731	0.381655
O257	O	0.353533	0.381065	0.714988
O258	O	0.686866	0.714398	1.048321
O259	O	0.053901	0.047761	0.473472
O260	O	0.387235	0.381095	0.806805
O261	O	0.720568	0.714428	1.140139
O262	O	0.046564	-0.031252	0.407974
O263	O	0.379897	0.302081	0.741307
O264	O	0.713230	0.635415	1.074641
O265	O	0.126068	-0.031219	0.407713
O266	O	0.459401	0.302114	0.741046
O267	O	0.792735	0.635447	1.074380
O268	O	0.000762	-0.031254	0.500052
O269	O	0.334095	0.302079	0.833385
O270	O	0.667428	0.635412	1.166719
Zn271	Zn	0.067601	-0.043777	0.458061
Zn272	Zn	0.400934	0.289556	0.791395
Zn273	Zn	0.734267	0.622890	1.124728
Zn274	Zn	0.032864	0.060287	0.423385
Zn275	Zn	0.366198	0.393620	0.756718
Zn276	Zn	0.699531	0.726953	1.090051
O277	O	0.080266	-0.031222	0.499791
O278	O	0.413599	0.302111	0.833125
O279	O	0.746933	0.635445	1.166458
N280	N	0.009156	0.131307	0.399717
N281	N	0.342489	0.464641	0.733050
N282	N	0.675823	0.797974	1.066384
N283	N	0.091635	-0.449614	0.816396
N284	N	0.424968	-0.116281	1.149729
N285	N	0.758301	0.217052	1.483063
O286	O	0.083664	-0.566502	0.978913
O287	O	0.416997	-0.233169	1.312246
O288	O	0.750330	0.100165	1.645579
O289	O	-0.008637	-0.441152	0.978954
O290	O	0.324697	-0.107818	1.312287
O291	O	0.658030	0.225515	1.645620
O292	O	-0.008421	-0.520640	0.978930
O293	O	0.324912	-0.187307	1.312264
O294	O	0.658246	0.146027	1.645597
O295	O	0.083448	-0.487013	0.978936
O296	O	0.416781	-0.153680	1.312269
O297	O	0.750115	0.179653	1.645603
O298	O	0.017877	-0.494296	0.899950
O299	O	0.351210	-0.160962	1.233284
O300	O	0.684543	0.172371	1.566617
O301	O	0.017661	-0.414807	0.899974
O302	O	0.350994	-0.081474	1.233307
O303	O	0.684328	0.251860	1.566640
O304	O	0.109961	-0.540157	0.899933
O305	O	0.443295	-0.206824	1.233266
O306	O	0.776628	0.126509	1.566599
Zn307	Zn	0.067986	-0.473299	0.887414
Zn308	Zn	0.401320	-0.139966	1.220747
Zn309	Zn	0.734653	0.193367	1.554080
Zn310	Zn	0.033338	-0.508010	0.991473
Zn311	Zn	0.366672	-0.174676	1.324806
Zn312	Zn	0.700005	0.158657	1.658140
O313	O	0.109746	-0.460669	0.899956
O314	O	0.443079	-0.127336	1.233290
O315	O	0.776412	0.205998	1.566623
N316	N	0.009689	-0.531700	1.062491
N317	N	0.343022	-0.198366	1.395824
N318	N	0.676356	0.134967	1.729157
C319	C	0.030367	-0.412095	0.382120
C320	C	0.363700	-0.078761	0.715454
C321	C	0.697034	0.254572	1.048787
C322	C	0.128741	-0.510370	0.382016
C323	C	0.462075	-0.177037	0.715349
C324	C	0.795408	0.156296	1.048682
C325	C	0.070168	-0.569147	0.499490
C326	C	0.403501	-0.235814	0.832824
C327	C	0.736834	0.097520	1.166157
C328	C	-0.028207	-0.470871	0.499595
C329	C	0.305127	-0.137538	0.832928
C330	C	0.638460	0.195795	1.166262
C331	C	0.549323	-0.549278	0.518791
C332	C	0.882656	-0.215944	0.852124
C333	C	1.215989	0.117389	1.185457
C334	C	0.549225	-0.549017	0.420381
C335	C	0.882558	-0.215684	0.753715
C336	C	1.215891	0.117650	1.087048
C337	C	0.549087	-0.431532	0.361914
C338	C	0.882421	-0.098199	0.695247
C339	C	1.215754	0.235135	1.028581
C340	C	0.549188	-0.431794	0.460322
C341	C	0.882522	-0.098461	0.793655
C342	C	1.215855	0.234873	1.126989
C343	C	0.128638	0.008374	0.381806
C344	C	0.461972	0.341707	0.715139
C345	C	0.795305	0.675041	1.048472
C346	C	0.030215	0.008236	0.382161
C347	C	0.363548	0.341570	0.715494
C348	C	0.696882	0.674903	1.048828
C349	C	-0.028206	0.008233	0.499608
C350	C	0.305127	0.341567	0.832941
C351	C	0.638460	0.674900	1.166274
C352	C	0.070250	0.008272	0.499285
C353	C	0.403584	0.341606	0.832619
C354	C	0.736917	0.674939	1.165952
C355	C	-0.008199	-0.412187	0.939469
C356	C	0.325134	-0.078854	1.272802
C357	C	0.658468	0.254479	1.606136
C358	C	-0.007927	-0.510619	0.939425
C359	C	0.325407	-0.177286	1.272758
C360	C	0.658740	0.156048	1.606091
C361	C	0.109523	-0.569121	0.939417
C362	C	0.442857	-0.235788	1.272751
C363	C	0.776190	0.097545	1.606084
C364	C	0.109257	-0.470684	0.939444
C365	C	0.442591	-0.137351	1.272778
C366	C	0.775924	0.195983	1.606111
H367	H	0.019274	-0.411508	0.812539
H368	H	0.352608	-0.078174	1.145873
H369	H	0.685941	0.255159	1.479206
Br370	Br	0.031696	-0.365899	0.708880
Br371	Br	0.365029	-0.032565	1.042213
Br372	Br	0.698363	0.300768	1.375546
H373	H	0.022995	0.008233	0.353314
H374	H	0.356329	0.341566	0.686647
H375	H	0.689662	0.674899	1.019980
Br376	Br	0.031570	-0.365882	0.565462
Br377	Br	0.364903	-0.032549	0.898795
Br378	Br	0.698237	0.300784	1.232129
Br379	Br	-0.088183	0.008213	0.547927
Br380	Br	0.245151	0.341546	0.881260
Br381	Br	0.578484	0.674880	1.214593
H382	H	0.549237	-0.577886	0.413185
H383	H	0.882571	-0.244553	0.746518
H384	H	1.215904	0.088781	1.079851
H385	H	0.549027	-0.402547	0.325928
H386	H	0.882361	-0.069214	0.659262
H387	H	1.215694	0.264119	0.992595
H388	H	0.138503	-0.605120	0.939399
H389	H	0.471836	-0.271786	1.272732
H390	H	0.805170	0.061547	1.606065
H391	H	0.164745	-0.517463	0.353068
H392	H	0.498079	-0.184130	0.686401
H393	H	0.831412	0.149203	1.019734
H394	H	0.549182	-0.402927	0.467517
H395	H	0.882516	-0.069594	0.800850
H396	H	1.215849	0.263739	1.134183
Br397	Br	0.188494	0.008754	0.333367
Br398	Br	0.521827	0.342088	0.666701
Br399	Br	0.855161	0.675421	1.000034
H400	H	0.077330	-0.605181	0.528391
H401	H	0.410664	-0.271847	0.861724
H402	H	0.743997	0.061486	1.195057
Br403	Br	-0.088219	-0.459059	0.547842
Br404	Br	0.245114	-0.125725	0.881175
Br405	Br	0.578448	0.207608	1.214509
H406	H	0.549371	-0.578259	0.554780
H407	H	0.882704	-0.244925	0.888113
H408	H	1.216038	0.088408	1.221447
Br409	Br	0.082276	0.008288	0.547366
Br410	Br	0.415610	0.341621	0.880699
Br411	Br	0.748943	0.674954	1.214033
H412	H	-0.037176	-0.376187	0.939482
H413	H	0.296157	-0.042854	1.272815
H414	H	0.629490	0.290480	1.606148
Br415	Br	0.035113	-0.661758	0.294610
Br416	Br	0.368447	-0.328424	0.627944
Br417	Br	0.701780	0.004909	0.961277
H418	H	-0.036776	-0.517804	0.939391
H419	H	0.296557	-0.184470	1.272725
H420	H	0.629891	0.148863	1.606058
H421	H	0.023205	-0.376060	0.353221
H422	H	0.356539	-0.042726	0.686555
H423	H	0.689872	0.290607	1.019888
Br424	Br	0.157363	-0.458695	0.939443
Br425	Br	0.490697	-0.125362	1.272776
Br426	Br	0.824030	0.207972	1.606110
H427	H	-0.098172	-0.765271	0.392919
H428	H	0.235161	-0.431938	0.726252
H429	H	0.568494	-0.098604	1.059585
Br430	Br	0.223122	-0.461550	0.708724
Br431	Br	0.556455	-0.128216	1.042057
Br432	Br	0.889789	0.205117	1.375390
Br433	Br	-0.007522	-0.405034	0.526517
Br434	Br	0.325811	-0.071700	0.859850
Br435	Br	0.659144	0.261633	1.193183
Br436	Br	0.183815	-0.500576	0.430646
Br437	Br	0.517148	-0.167242	0.763979
Br438	Br	0.850481	0.166091	1.097313
Br439	Br	0.222906	-0.461500	0.469662
Br440	Br	0.556240	-0.128167	0.802995
Br441	Br	0.889573	0.205166	1.136328
Br442	Br	0.318609	-0.508461	0.553581
Br443	Br	0.651942	-0.175128	0.886914
Br444	Br	0.985275	0.158206	1.220248
Br445	Br	0.184168	-0.500637	0.825904
Br446	Br	0.517501	-0.167303	1.159237
Br447	Br	0.850835	0.166030	1.492570
H448	H	0.047765	-0.765423	0.337508
H449	H	0.381098	-0.432090	0.670841
H450	H	0.714431	-0.098757	1.004174
H451	H	0.422223	-0.375220	0.454977
H452	H	0.755557	-0.041886	0.788311
H453	H	1.088890	0.291447	1.121644
Br454	Br	0.435779	-0.547493	0.514444
Br455	Br	0.769112	-0.214159	0.847777
Br456	Br	1.102446	0.119174	1.181111
H457	H	0.159477	-0.208876	0.439413
H458	H	0.492811	0.124457	0.772746
H459	H	0.826144	0.457790	1.106080
Br460	Br	0.318534	-0.318843	0.481269
Br461	Br	0.651868	0.014490	0.814602
Br462	Br	0.985201	0.347823	1.147936
H463	H	0.055841	-0.118733	0.556693
H464	H	0.389174	0.214600	0.890027
H465	H	0.722507	0.547933	1.223360
Br466	Br	0.079443	-0.222426	0.613255
Br467	Br	0.412776	0.110907	0.946588
Br468	Br	0.746110	0.444240	1.279921
Br469	Br	0.135859	-0.105181	0.382852
Br470	Br	0.469192	0.228152	0.716185
Br471	Br	0.802525	0.561485	1.049519
H472	H	-0.091873	-0.522445	0.255974
H473	H	0.241460	-0.189112	0.589307
H474	H	0.574794	0.144222	0.922641
Br475	Br	0.027418	-0.657321	0.152395
Br476	Br	0.360752	-0.323988	0.485728
Br477	Br	0.694085	0.009346	0.819062
Br478	Br	-0.011780	-0.696311	0.269570
Br479	Br	0.321553	-0.362978	0.602903
Br480	Br	0.654886	-0.029645	0.936237
Br481	Br	-0.107462	-0.504895	0.282762
Br482	Br	0.225871	-0.171562	0.616095
Br483	Br	0.559205	0.161772	0.949428
Br484	Br	-0.068423	-0.465894	0.321910
Br485	Br	0.264911	-0.132561	0.655244
Br486	Br	0.598244	0.200773	0.988577
Br487	Br	0.027041	-0.657301	0.417759
Br488	Br	0.360374	-0.323968	0.751092
Br489	Br	0.693708	0.009365	1.084425
Br490	Br	-0.068178	-0.465903	0.152283
Br491	Br	0.265156	-0.132569	0.485616
Br492	Br	0.598489	0.200764	0.818950
H493	H	-0.128170	-0.675084	0.362831
H494	H	0.205163	-0.341750	0.696165
H495	H	0.538496	-0.008417	1.029498
Br496	Br	-0.120884	-0.648356	0.426257
Br497	Br	0.212449	-0.315023	0.759591
Br498	Br	0.545783	0.018311	1.092924
Br499	Br	-0.011951	-0.696302	0.378569
Br500	Br	0.321383	-0.362969	0.711902
Br501	Br	0.654716	-0.029636	1.045235
Br502	Br	-0.120580	-0.552707	0.234782
Br503	Br	0.212753	-0.219373	0.568116
Br504	Br	0.546087	0.113960	0.901449
Br505	Br	-0.238063	-0.609156	0.465132
Br506	Br	0.095271	-0.275823	0.798465
Br507	Br	0.428604	0.057511	1.131798
H508	H	-0.224299	-0.529059	0.291228
H509	H	0.109034	-0.195726	0.624562
H510	H	0.442367	0.137608	0.957895
