data_functionalizedCrystal
_audit_creation_method	'MofGen! by Chris Wilmer'
_symmetry_space_group_name_H-M	'P1'
_symmetry_Int_Tables_number	1
_symmetry_cell_setting	triclinic
loop_
_symmetry_equiv_pos_as_xyz
  x,y,z
_cell_length_a	15.297979
_cell_length_b	15.299816
_cell_length_c	12.759387
_cell_angle_alpha	99.650540
_cell_angle_beta	80.287621
_cell_angle_gamma	91.635460
loop_
_atom_site_label
_atom_site_type_symbol
_atom_site_fract_x
_atom_site_fract_y
_atom_site_fract_z
Zn1	Zn	1.399678	-0.117119	-0.900306
Zn2	Zn	1.424915	-0.263599	-0.759271
Zn3	Zn	1.253175	-0.142482	-0.700172
Zn4	Zn	1.278478	-0.288838	-0.910427
O5	O	1.339061	-0.203010	-0.817544
O6	O	1.525622	-0.115373	-0.902095
O7	O	1.402105	-0.247585	-0.604415
O8	O	1.251458	-0.016564	-0.697752
O9	O	1.544163	-0.222991	-0.798477
O10	O	1.359093	0.002070	-0.844790
O11	O	1.275929	-0.158601	-0.560995
O12	O	1.133936	-0.183074	-0.707565
O13	O	1.294583	-0.266007	-1.056101
O14	O	1.152525	-0.290601	-0.862038
O15	O	1.383628	-0.139845	-1.048665
O16	O	1.426640	-0.389500	-0.808290
O17	O	1.319054	-0.408043	-0.919344
C18	C	1.111443	-0.242329	-0.779488
C19	C	1.014070	-0.259171	-0.763237
C20	C	0.977962	-0.323026	-0.701525
C21	C	0.886476	-0.338852	-0.686263
C22	C	0.831089	-0.290819	-0.732703
C23	C	0.867196	-0.226958	-0.794409
C24	C	0.958692	-0.211136	-0.809681
C25	C	0.811819	-0.178929	-0.840858
C26	C	0.847927	-0.115068	-0.902565
C27	C	0.939414	-0.099248	-0.917832
C28	C	0.994801	-0.147281	-0.871392
C29	C	0.720323	-0.194752	-0.825587
C30	C	0.701054	-0.082862	-0.933742
C31	C	0.792540	-0.067036	-0.949005
C32	C	1.378355	-0.430544	-0.871355
C33	C	1.395245	-0.527871	-0.894425
C34	C	1.218920	-0.841286	-0.653118
C35	C	1.203046	-0.749843	-0.631445
C36	C	1.251095	-0.694346	-0.697187
C37	C	1.315019	-0.730299	-0.784608
C38	C	1.330889	-0.821751	-0.806288
C39	C	1.363064	-0.674811	-0.850357
C40	C	1.426989	-0.710765	-0.937778
C41	C	1.442857	-0.802208	-0.959453
C42	C	1.394808	-0.857706	-0.893710
C43	C	1.347194	-0.583359	-0.828677
C44	C	1.459164	-0.563825	-0.981847
C45	C	1.475038	-0.655267	-1.003520
C46	C	1.567569	-0.163537	-0.855750
C47	C	1.664945	-0.146717	-0.872031
C48	C	1.339113	-0.202912	-1.091568
C49	C	1.339135	-0.202871	-1.208341
C50	C	1.299638	0.025418	-0.763550
C51	C	1.282838	0.122760	-0.740540
C52	C	1.431866	-0.071505	-1.200622
C53	C	1.478242	-0.005807	-1.251621
C54	C	1.478258	-0.005771	-1.361339
C55	C	1.431891	-0.071439	-1.420059
C56	C	1.385515	-0.137137	-1.369059
C57	C	1.385506	-0.137167	-1.259339
C58	C	1.292779	-0.268498	-1.376777
C59	C	1.292768	-0.268539	-1.267061
C60	C	1.246412	-0.334166	-1.435497
C61	C	1.200041	-0.399869	-1.384499
C62	C	1.200028	-0.399903	-1.274775
C63	C	1.246392	-0.334237	-1.216061
C64	C	1.339050	-0.203034	-0.544579
C65	C	1.339155	-0.202800	-0.427777
H66	H	0.690934	-0.246749	-0.775346
C67	C	1.166135	-0.902327	-0.580749
N68	N	1.126397	-0.948301	-0.526212
H69	H	1.431899	-0.071398	-1.509394
H70	H	0.655957	-0.043750	-0.971559
C71	C	1.276879	-0.543821	-0.732517
N72	N	1.223914	-0.514042	-0.660082
H73	H	0.857084	-0.390848	-0.636022
C74	C	1.246440	-0.334131	-1.556192
N75	N	1.246465	-0.334110	-1.647104
H76	H	0.821952	-0.015040	-0.999247
H77	H	1.516014	0.047730	-1.402861
H78	H	1.023066	-0.362131	-0.663726
C79	C	0.979130	-0.029002	-0.985715
N80	N	1.009042	0.023911	-1.036841
C81	C	1.412266	-0.958299	-0.917546
N82	N	1.425412	-1.034068	-0.935498
C83	C	1.529242	0.066425	-1.187022
N84	N	1.567654	0.120832	-1.138367
C85	C	1.149034	-0.472090	-1.449094
N86	N	1.110615	-0.526488	-1.497751
C87	C	1.149008	-0.472177	-1.218683
N88	N	1.110580	-0.526615	-1.176440
H89	H	1.150998	-0.720573	-0.560269
C90	C	1.512023	-0.502781	-1.054168
N91	N	1.551832	-0.456797	-1.108635
H92	H	1.494905	-0.831479	-1.030640
C93	C	1.246380	-0.334266	-1.095368
N94	N	1.246370	-0.334283	-1.004459
C95	C	0.730450	-0.308222	-0.715899
N96	N	0.654645	-0.321327	-0.703232
C97	C	1.095442	-0.129873	-0.888175
N98	N	1.171247	-0.116763	-0.900814
C99	C	1.545349	-0.694829	-1.099685
N100	N	1.598307	-0.724629	-1.172116
H101	H	1.431868	-0.071534	-1.111287
H102	H	1.238167	-0.619890	-0.679535
