data_functionalizedCrystal
_audit_creation_method	'MofGen! by Chris Wilmer'
_symmetry_space_group_name_H-M	'P1'
_symmetry_Int_Tables_number	1
_symmetry_cell_setting	triclinic
loop_
_symmetry_equiv_pos_as_xyz
  x,y,z
_cell_length_a	17.699083
_cell_length_b	19.188924
_cell_length_c	16.176319
_cell_angle_alpha	89.991125
_cell_angle_beta	89.998611
_cell_angle_gamma	83.212490
loop_
_atom_site_label
_atom_site_type_symbol
_atom_site_fract_x
_atom_site_fract_y
_atom_site_fract_z
O1	O	1.003960	0.088295	-0.068634
O2	O	1.503960	0.588295	0.431366
O3	O	0.783566	0.099782	-0.068662
O4	O	1.283566	0.599782	0.431338
O5	O	0.900126	-0.007610	-0.068638
O6	O	1.400126	0.492390	0.431362
O7	O	0.887400	0.195687	-0.068659
O8	O	1.387400	0.695687	0.431341
O9	O	0.900110	-0.007617	0.068855
O10	O	1.400110	0.492383	0.568855
O11	O	0.783550	0.099775	0.068831
O12	O	1.283550	0.599775	0.568831
O13	O	1.003944	0.088288	0.068859
O14	O	1.503944	0.588288	0.568859
Cu15	Cu	0.893746	0.094031	0.081399
Cu16	Cu	1.393746	0.594031	0.581399
Cu17	Cu	0.893765	0.094039	-0.081202
Cu18	Cu	1.393765	0.594039	0.418798
O19	O	0.887384	0.195680	0.068834
O20	O	1.387384	0.695680	0.568834
C21	C	0.755362	0.099367	0.000081
C22	C	1.255362	0.599367	0.500081
C23	C	0.671345	0.098132	0.000071
C24	C	1.171345	0.598132	0.500071
C25	C	0.622640	0.161169	0.000065
C26	C	1.122640	0.661169	0.500065
C27	C	0.543698	0.160005	0.000076
C28	C	1.043698	0.660005	0.500076
C29	C	0.513464	0.095803	0.000087
C30	C	1.013464	0.595803	0.500087
C31	C	0.562175	0.032761	0.000096
C32	C	1.062175	0.532761	0.500096
C33	C	0.641116	0.033926	0.000091
C34	C	1.141116	0.533926	0.500091
C35	C	0.243819	0.028060	0.000116
C36	C	0.743819	0.528060	0.500116
C37	C	0.164872	0.026900	0.000119
C38	C	0.664872	0.526900	0.500119
C39	C	0.146401	0.154139	0.000101
C40	C	0.646401	0.654139	0.500101
C41	C	0.225341	0.155305	0.000096
C42	C	0.725341	0.655305	0.500096
C43	C	0.274046	0.092263	0.000110
C44	C	0.774046	0.592263	0.500110
C45	C	0.359644	0.093526	0.000099
C46	C	0.859644	0.593526	0.500099
C47	C	0.427868	0.094538	0.000091
C48	C	0.927868	0.594538	0.500091
C49	C	0.899707	-0.033625	0.000110
C50	C	1.399707	0.466375	0.500110
C51	C	0.898472	-0.111132	0.000112
C52	C	1.398472	0.388868	0.500112
C53	C	0.897905	-0.147527	-0.074836
C54	C	1.397905	0.352473	0.425164
C55	C	0.896734	-0.220351	-0.074843
C56	C	1.396734	0.279649	0.425157
C57	C	0.896146	-0.256779	0.000103
C58	C	1.396146	0.243221	0.500103
C59	C	0.896710	-0.220374	0.075061
C60	C	1.396710	0.279626	0.575061
C61	C	0.897873	-0.147550	0.075065
C62	C	1.397873	0.352450	0.575065
N63	N	0.937384	-0.376398	0.055889
N64	N	1.437384	0.123602	0.555889
N65	N	0.936281	-0.445578	0.055879
N66	N	1.436281	0.054422	0.555879
C67	C	0.892641	-0.476192	0.000095
C68	C	1.392641	0.023808	0.500095
N69	N	0.850154	-0.435014	-0.055693
N70	N	1.350154	0.064986	0.444307
N71	N	0.851261	-0.365828	-0.055686
N72	N	1.351261	0.134172	0.444314
C73	C	0.894885	-0.335744	0.000107
C74	C	1.394885	0.164256	0.500107
C75	C	0.890803	-0.591552	-0.074865
C76	C	1.390803	-0.091552	0.425135
C77	C	0.889627	-0.664376	-0.074869
C78	C	1.389627	-0.164376	0.425131
C79	C	0.889610	-0.664398	0.075037
C80	C	1.389610	-0.164398	0.575037
C81	C	0.890778	-0.591574	0.075038
C82	C	1.390778	-0.091574	0.575038
C83	C	0.891378	-0.555155	0.000085
C84	C	1.391378	-0.055155	0.500085
C85	C	1.032149	0.088703	0.000114
C86	C	1.532149	0.588703	0.500114
C87	C	1.116165	0.089938	0.000118
C88	C	1.616165	0.589938	0.500118
C89	C	0.887804	0.221695	0.000085
C90	C	1.387804	0.721695	0.500085
C91	C	0.889038	0.299202	0.000078
C92	C	1.389038	0.799202	0.500078
N93	N	0.893738	0.094025	0.195764
N94	N	1.393738	0.594025	0.695764
N95	N	0.893778	0.094040	-0.195568
N96	N	1.393778	0.594040	0.304432
C97	C	0.945366	0.046491	0.239039
C98	C	1.445366	0.546491	0.739039
C99	C	0.945370	0.046490	0.325586
C100	C	1.445370	0.546490	0.825586
C101	C	0.893749	0.094027	0.368857
C102	C	1.393749	0.594027	0.868857
C103	C	0.842115	0.141564	0.325576
C104	C	1.342115	0.641564	0.825576
C105	C	0.842108	0.141560	0.239030
C106	C	1.342108	0.641560	0.739030
C107	C	0.842141	0.141577	0.674604
C108	C	1.342141	0.641577	1.174604
C109	C	0.842153	0.141578	0.761156
C110	C	1.342153	0.641578	1.261156
C111	C	0.945403	0.046506	0.761160
C112	C	1.445403	0.546506	1.261160
C113	C	0.945396	0.046503	0.674615
C114	C	1.445396	0.546503	1.174615
C115	C	0.893760	0.094037	0.631341
C116	C	1.393760	0.594037	1.131341
C117	C	0.893755	0.094036	0.537497
C118	C	1.393755	0.594036	1.037497
C119	C	0.893756	0.094032	0.462700
C120	C	1.393756	0.594032	0.962700
H121	H	0.140259	-0.025384	0.000129
H122	H	0.640259	0.474616	0.500129
C123	C	0.694695	-0.035413	0.000097
C124	C	1.194695	0.464587	0.500097
H125	H	0.746039	-0.025525	0.000101
H126	H	1.246039	0.474475	0.500101
H127	H	0.685555	-0.061746	-0.047845
H128	H	1.185555	0.438254	0.452155
H129	H	0.685553	-0.061743	0.048055
H130	H	1.185553	0.438257	0.548055
C131	C	0.785351	0.193867	0.627014
C132	C	1.285351	0.693867	1.127014
H133	H	0.754616	0.222183	0.665182
H134	H	1.254616	0.722183	1.165182
H135	H	0.753926	0.168789	0.593263
H136	H	1.253926	0.668789	1.093263
H137	H	0.812479	0.222902	0.593244
H138	H	1.312479	0.722902	1.093244
H139	H	0.800080	0.180267	0.360812
H140	H	1.300080	0.680267	0.860812
H141	H	0.898391	-0.117880	-0.135869
H142	H	1.398391	0.382120	0.364131
C143	C	0.889001	-0.704415	-0.157313
C144	C	1.389001	-0.204415	0.342687
H145	H	0.888213	-0.753001	-0.146583
H146	H	1.388213	-0.253001	0.353417
H147	H	0.933324	-0.697879	-0.188100
H148	H	1.433324	-0.197879	0.311900
H149	H	0.845066	-0.687072	-0.188116
H150	H	1.345066	-0.187072	0.311884
H151	H	0.647250	0.213450	0.000055
H152	H	1.147250	0.713450	0.500055
C153	C	0.297387	-0.041281	0.000119
C154	C	0.797387	0.458719	0.500119
H155	H	0.348732	-0.031396	0.000122
H156	H	0.848732	0.468604	0.500122
H157	H	0.288242	-0.067607	-0.047826
H158	H	0.788242	0.432393	0.452174
H159	H	0.288245	-0.067615	0.048074
H160	H	0.788245	0.432385	0.548074
C161	C	0.888957	-0.704458	0.157476
C162	C	1.388957	-0.204458	0.657476
H163	H	0.888185	-0.753043	0.146740
H164	H	1.388185	-0.253043	0.646740
H165	H	0.845017	-0.687125	0.188264
H166	H	1.345017	-0.187125	0.688264
H167	H	0.933275	-0.697932	0.188280
H168	H	1.433275	-0.197932	0.688280
C169	C	0.891453	-0.551487	-0.157309
C170	C	1.391453	-0.051487	0.342691
H171	H	0.890936	-0.583595	-0.201947
H172	H	1.390936	-0.083595	0.298053
H173	H	0.936035	-0.528481	-0.160419
H174	H	1.436035	-0.028481	0.339581
H175	H	0.847777	-0.517676	-0.160426
H176	H	1.347777	-0.017676	0.339574
H177	H	0.896268	-0.249990	-0.135876
H178	H	1.396268	0.250010	0.364124
C179	C	0.896065	-0.260441	0.157499
C180	C	1.396065	0.239559	0.657499
H181	H	0.895299	-0.309026	0.146762
H182	H	1.395299	0.190974	0.646762
H183	H	0.852125	-0.243112	0.188290
H184	H	1.352125	0.256888	0.688290
H185	H	0.940383	-0.253910	0.188300
H186	H	1.440383	0.246090	0.688300
H187	H	0.891246	-0.561941	0.136069
H188	H	1.391246	-0.061941	0.636069
H189	H	0.898331	-0.117917	0.136098
H190	H	1.398331	0.382083	0.636098
C191	C	0.785321	0.193850	0.191428
C192	C	1.285321	0.693850	0.691428
H193	H	0.754582	0.222167	0.229592
H194	H	1.254582	0.722167	0.729592
H195	H	0.753899	0.168770	0.157676
H196	H	1.253899	0.668770	0.657676
H197	H	0.812449	0.222885	0.157657
H198	H	1.312449	0.722885	0.657657
H199	H	0.987409	0.007784	0.360821
H200	H	1.487409	0.507784	0.860821
H201	H	0.987405	0.007784	0.203814
H202	H	1.487405	0.507784	0.703814
C203	C	0.490125	0.229346	0.000066
C204	C	0.990125	0.729346	0.500066
H205	H	0.519438	0.267749	0.000048
H206	H	1.019438	0.767749	0.500048
H207	H	0.458949	0.231538	0.048015
H208	H	0.958949	0.731538	0.548015
H209	H	0.458945	0.231536	-0.047885
H210	H	0.958945	0.731536	0.452115
C211	C	1.002177	-0.005789	0.627021
C212	C	1.502177	0.494211	1.127021
H213	H	1.032921	-0.034105	0.665191
H214	H	1.532921	0.465895	1.165191
H215	H	1.033593	0.019287	0.593247
H216	H	1.533593	0.519287	1.093247
H217	H	0.975039	-0.034825	0.593274
H218	H	1.475039	0.465175	1.093274
H219	H	0.987445	0.007800	0.796403
H220	H	1.487445	0.507800	1.296403
C221	C	0.785354	0.193858	0.808752
C222	C	1.285354	0.693858	1.308752
H223	H	0.754592	0.222160	0.770586
H224	H	1.254592	0.722160	1.270586
H225	H	0.812471	0.222898	0.842508
H226	H	1.312471	0.722898	1.342508
H227	H	0.753945	0.168761	0.842518
H228	H	1.253945	0.668761	1.342518
H229	H	0.249953	0.207585	0.000084
H230	H	0.749953	0.707585	0.500084
C231	C	0.528919	-0.037861	0.000106
C232	C	1.028919	0.462139	0.500106
H233	H	0.474930	-0.029527	0.000099
H234	H	0.974930	0.470473	0.500099
H235	H	0.545652	-0.063814	0.048055
H236	H	1.045652	0.436186	0.548055
H237	H	0.545653	-0.063806	-0.047845
H238	H	1.045653	0.436194	0.452155
H239	H	0.106736	0.205471	0.000095
H240	H	0.606736	0.705471	0.500095
