data_functionalizedCrystal
_audit_creation_method	'MofGen! by Chris Wilmer'
_symmetry_space_group_name_H-M	'P1'
_symmetry_Int_Tables_number	1
_symmetry_cell_setting	triclinic
loop_
_symmetry_equiv_pos_as_xyz
  x,y,z
_cell_length_a	21.395364
_cell_length_b	17.637651
_cell_length_c	21.395356
_cell_angle_alpha	78.758589
_cell_angle_beta	89.976444
_cell_angle_gamma	101.214606
loop_
_atom_site_label
_atom_site_type_symbol
_atom_site_fract_x
_atom_site_fract_y
_atom_site_fract_z
Zn1	Zn	0.907466	-0.314865	-0.303760
Zn2	Zn	0.886213	-0.447078	-0.177777
Zn3	Zn	0.802681	-0.314876	-0.198995
Zn4	Zn	0.781501	-0.447026	-0.282526
O5	O	0.844466	-0.380961	-0.240765
O6	O	0.992322	-0.332420	-0.287055
O7	O	0.875102	-0.429567	-0.092910
O8	O	0.834340	-0.204238	-0.230659
O9	O	0.976708	-0.429556	-0.194496
O10	O	0.911325	-0.204229	-0.307629
O11	O	0.813731	-0.332439	-0.108499
O12	O	0.712197	-0.332390	-0.210069
O13	O	0.798241	-0.429468	-0.373025
O14	O	0.696636	-0.429480	-0.271438
O15	O	0.890787	-0.332370	-0.388626
O16	O	0.854564	-0.557708	-0.173906
O17	O	0.777633	-0.557670	-0.250864
C18	C	0.681683	-0.380931	-0.240752
C19	C	0.612041	-0.380937	-0.240759
C20	C	0.118351	-0.330502	-0.289015
C21	C	0.183788	-0.330496	-0.289016
C22	C	0.208394	-0.380985	-0.240775
C23	C	0.167557	-0.431499	-0.192538
C24	C	0.102121	-0.431509	-0.192543
C25	C	0.311050	-0.387119	-0.183324
C26	C	0.376486	-0.387103	-0.183320
C27	C	0.410219	-0.380959	-0.240762
C28	C	0.378512	-0.374814	-0.298213
C29	C	0.313076	-0.374824	-0.298217
C30	C	0.279348	-0.380980	-0.240765
C31	C	0.522002	-0.330446	-0.288999
C32	C	0.587439	-0.330446	-0.289000
C33	C	0.571207	-0.431445	-0.192517
C34	C	0.505771	-0.431449	-0.192521
C35	C	0.481173	-0.380946	-0.240762
C36	C	0.811511	-0.586376	-0.207792
C37	C	0.797470	-0.674253	-0.193708
C38	C	0.951539	-0.962953	-0.347962
C39	C	0.938325	-1.045527	-0.334717
C40	C	0.858214	-1.045643	-0.254490
C41	C	0.871423	-0.963068	-0.267727
C42	C	0.918085	-0.921729	-0.314464
C43	C	0.837969	-0.921844	-0.234229
C44	C	0.851175	-0.839275	-0.247467
C45	C	0.897834	-0.797931	-0.294203
C46	C	0.931291	-0.839161	-0.327702
C47	C	0.791304	-0.963184	-0.187495
C48	C	0.757851	-0.921960	-0.153996
C49	C	0.771059	-0.839390	-0.167231
C50	C	0.817718	-0.798045	-0.213968
C51	C	0.737602	-0.798160	-0.133732
C52	C	0.750808	-0.715591	-0.146970
C53	C	0.830924	-0.715477	-0.227206
C54	C	1.007884	-0.380992	-0.240778
C55	C	1.077523	-0.381005	-0.240783
C56	C	0.844523	-0.380912	-0.404196
C57	C	0.844547	-0.380891	-0.473841
C58	C	0.877566	-0.174745	-0.273880
C59	C	0.891671	-0.086867	-0.287991
C60	C	0.812603	-0.330311	-0.514662
C61	C	0.812603	-0.330297	-0.580100
C62	C	0.844560	-0.380854	-0.604715
C63	C	0.876505	-0.431444	-0.563884
C64	C	0.876499	-0.431462	-0.498447
C65	C	0.900016	-0.387075	-0.707403
C66	C	0.900025	-0.387050	-0.772840
C67	C	0.844579	-0.380800	-0.806544
C68	C	0.789125	-0.374558	-0.774806
C69	C	0.789119	-0.374577	-0.709369
C70	C	0.844570	-0.380839	-0.675670
C71	C	0.812632	-0.330202	-0.918321
C72	C	0.812630	-0.330192	-0.983759
C73	C	0.876539	-0.431335	-0.967543
C74	C	0.876534	-0.431349	-0.902106
C75	C	0.844582	-0.380778	-0.877499
C76	C	0.844454	-0.380953	-0.077978
C77	C	0.844587	-0.380751	-0.008370
H78	H	0.287263	-0.369822	-0.344995
H79	H	0.908585	-0.730698	-0.304981
C80	C	0.777490	-0.274545	-1.028664
N81	N	0.751024	-0.232628	-1.062487
C82	C	0.975130	-1.090871	-0.371572
N83	N	1.002851	-1.125023	-0.399331
H84	H	0.187595	-0.472610	-0.153262
H85	H	0.945179	-0.392130	-0.798677
H86	H	0.405977	-0.369806	-0.344988
H87	H	0.902524	-0.472608	-0.583930
H88	H	0.786583	-0.289135	-0.494631
C89	C	1.002869	-0.917476	-0.399377
N90	N	1.041527	-0.883223	-0.438103
C91	C	0.632351	-0.274883	-0.342061
N92	N	0.666180	-0.233030	-0.382026
H93	H	0.743967	-0.369496	-0.683530
H94	H	0.902548	-0.472535	-0.868868
H95	H	0.743977	-0.369463	-0.802247
H96	H	0.501973	-0.289323	-0.328279
C97	C	0.911725	-0.486914	-0.994622
N98	N	0.938241	-0.528765	-1.015023
C99	C	0.714013	-0.670242	-0.110115
N100	N	0.686299	-0.636085	-0.082353
C101	C	0.882254	-0.670000	-0.278621
N102	N	0.920912	-0.635746	-0.317347
H103	H	0.969293	-0.805501	-0.365756
C104	C	0.777477	-0.274581	-0.891250
N105	N	0.750997	-0.232689	-0.870862
C106	C	0.961014	-0.393955	-0.670335
N107	N	1.006956	-0.399139	-0.642415
C108	C	0.911657	-0.487091	-0.453544
N109	N	0.938144	-0.528984	-0.419724
C110	C	0.686307	-0.843643	-0.082291
N111	N	0.647684	-0.877902	-0.043531
C112	C	0.091297	-0.274953	-0.342086
N113	N	0.070918	-0.233115	-0.382060
C114	C	0.806926	-1.091125	-0.203041
N115	N	0.768311	-1.125381	-0.164273
C116	C	0.706563	-0.967441	-0.102547
N117	N	0.667947	-1.001697	-0.063779
C118	C	0.598270	-0.486986	-0.139452
N119	N	0.618657	-0.528822	-0.099483
H120	H	0.780548	-1.030416	-0.176724
H121	H	0.786592	-0.289104	-0.613343
H122	H	0.472528	-0.472572	-0.153243
C123	C	0.228708	-0.274932	-0.342075
N124	N	0.262540	-0.233079	-0.382037
H125	H	0.068877	-0.472637	-0.153265
H126	H	0.283589	-0.392126	-0.136544
C127	C	0.411358	-0.393860	-0.120123
N128	N	0.437622	-0.398950	-0.072522
