data_functionalizedCrystal
_audit_creation_method	'MofGen! by Chris Wilmer'
_symmetry_space_group_name_H-M	'P1'
_symmetry_Int_Tables_number	1
_symmetry_cell_setting	triclinic
loop_
_symmetry_equiv_pos_as_xyz
  x,y,z
_cell_length_a	19.077105
_cell_length_b	16.120484
_cell_length_c	19.076929
_cell_angle_alpha	95.043638
_cell_angle_beta	90.078300
_cell_angle_gamma	90.738523
loop_
_atom_site_label
_atom_site_type_symbol
_atom_site_fract_x
_atom_site_fract_y
_atom_site_fract_z
Zn1	Zn	1.040321	-0.403234	-0.456940
Zn2	Zn	1.540321	0.096766	0.043060
Zn3	Zn	1.039004	-0.537266	-0.344925
Zn4	Zn	1.539004	-0.037266	0.155075
Zn5	Zn	0.928039	-0.392075	-0.334276
Zn6	Zn	1.428039	0.107925	0.165724
Zn7	Zn	0.916844	-0.536756	-0.457657
Zn8	Zn	1.416844	-0.036756	0.042343
O9	O	0.981052	-0.467333	-0.398449
O10	O	1.481052	0.032667	0.101551
O11	O	1.138260	-0.425897	-0.446237
O12	O	1.638260	0.074103	0.053763
O13	O	1.028419	-0.513549	-0.244999
O14	O	1.528419	-0.013549	0.255001
O15	O	0.948170	-0.276912	-0.345791
O16	O	1.448170	0.223088	0.154209
O17	O	1.137293	-0.524369	-0.363941
O18	O	1.637293	-0.024369	0.136059
O19	O	1.030662	-0.285111	-0.435911
O20	O	1.530662	0.214889	0.064089
O21	O	0.946893	-0.406878	-0.237175
O22	O	1.446893	0.093122	0.262825
O23	O	0.828440	-0.406384	-0.346486
O24	O	1.328440	0.093616	0.153514
O25	O	0.929089	-0.523501	-0.556075
O26	O	1.429089	-0.023501	-0.056075
O27	O	0.820215	-0.512681	-0.437133
O28	O	1.320215	-0.012681	0.062867
O29	O	1.019807	-0.425403	-0.555548
O30	O	1.519807	0.074597	-0.055548
O31	O	1.017563	-0.653841	-0.364636
O32	O	1.517563	-0.153841	0.135364
O33	O	0.927813	-0.653466	-0.447460
O34	O	1.427813	-0.153466	0.052540
C35	C	0.798887	-0.458267	-0.390732
C36	C	1.298887	0.041733	0.109268
C37	C	0.720955	-0.454409	-0.387449
C38	C	1.220955	0.045591	0.112551
C39	C	0.680078	-0.508017	-0.433034
C40	C	1.180078	-0.008017	0.066966
C41	C	0.606852	-0.504381	-0.429951
C42	C	1.106852	-0.004381	0.070049
C43	C	0.574505	-0.447141	-0.381280
C44	C	1.074505	0.052859	0.118720
C45	C	0.615388	-0.393528	-0.335693
C46	C	1.115388	0.106472	0.164307
C47	C	0.688612	-0.397160	-0.338779
C48	C	1.188612	0.102840	0.161221
C49	C	0.355966	-0.430332	-0.366998
C50	C	0.855966	0.069668	0.133002
C51	C	0.282736	-0.426706	-0.363914
C52	C	0.782736	0.073294	0.136086
C53	C	0.274205	-0.537558	-0.458173
C54	C	0.774205	-0.037558	0.041827
C55	C	0.347431	-0.541189	-0.461253
C56	C	0.847431	-0.041189	0.038747
C57	C	0.388308	-0.487572	-0.415668
C58	C	0.888308	0.012428	0.084332
N59	N	0.499657	-0.443426	-0.378126
N60	N	0.999657	0.056574	0.121874
N61	N	0.463155	-0.491285	-0.418826
N62	N	0.963155	0.008715	0.081174
C63	C	0.971349	-0.683899	-0.407297
C64	C	1.471349	-0.183899	0.092703
C65	C	0.967261	-0.776552	-0.411109
C66	C	1.467261	-0.276552	0.088891
C67	C	0.959801	-0.946189	-0.418082
C68	C	1.459801	-0.446189	0.081918
C69	C	1.002428	-0.987642	-0.378834
C70	C	1.502428	-0.487642	0.121166
C71	C	0.998278	-1.082034	-0.382714
C72	C	1.498278	-0.582034	0.117286
C73	C	0.963951	-0.851789	-0.414203
C74	C	1.463951	-0.351789	0.085797
C75	C	1.163928	-0.476435	-0.406197
C76	C	1.663928	0.023565	0.093803
C77	C	1.241859	-0.480313	-0.409499
C78	C	1.741859	0.019687	0.090501
C79	C	0.973346	-0.475640	-0.582070
C80	C	1.473346	0.024360	-0.082070
C81	C	0.970062	-0.479180	-0.660318
C82	C	1.470062	0.020820	-0.160318
C83	C	0.990812	-0.249922	-0.389583
C84	C	1.490812	0.250078	0.110417
C85	C	0.994971	-0.157274	-0.385805
C86	C	1.494971	0.342726	0.114195
C87	C	0.946512	-0.504636	-1.100802
C88	C	1.446512	-0.004636	-0.600802
C89	C	0.949595	-0.501297	-1.027279
C90	C	1.449595	-0.001297	-0.527279
C91	C	0.998372	-0.448558	-0.990247
C92	C	1.498372	0.051442	-0.490247
C93	C	1.044063	-0.399149	-1.026742
C94	C	1.544063	0.100851	-0.526742
C95	C	1.040976	-0.402483	-1.100263
C96	C	1.540976	0.097517	-0.600263
C97	C	1.012667	-0.433105	-0.770333
C98	C	1.512667	0.066895	-0.270333
C99	C	1.015752	-0.429775	-0.696807
C100	C	1.515752	0.070225	-0.196807
C101	C	0.921282	-0.531923	-0.697349
C102	C	1.421282	-0.031923	-0.197349
C103	C	0.918202	-0.535257	-0.770872
C104	C	1.418202	-0.035257	-0.270872
C105	C	0.963891	-0.485844	-0.807360
C106	C	1.463891	0.014156	-0.307360
N107	N	1.001526	-0.445147	-0.915095
N108	N	1.501526	0.054853	-0.415095
N109	N	0.960733	-0.489252	-0.882510
N110	N	1.460733	0.010748	-0.382510
C111	C	0.988771	-0.459000	-0.215543
C112	C	1.488771	0.041000	0.284457
C113	C	0.992201	-0.455232	-0.137292
C114	C	1.492201	0.044768	0.362708
H115	H	0.573572	-0.548035	-0.467070
H116	H	1.073572	-0.048035	0.032930
Br117	Br	0.391326	-0.618879	-0.527305
Br118	Br	0.891326	-0.118879	-0.027305
H119	H	0.256402	-0.380084	-0.324283
H120	H	0.756402	0.119916	0.175717
Br121	Br	0.893782	-1.005192	-0.478940
Br122	Br	1.393782	-0.505192	0.021060
Br123	Br	0.880316	-0.576220	-1.151053
Br124	Br	1.380316	-0.076220	-0.651053
H125	H	0.878484	-0.578203	-0.801019
H126	H	1.378484	-0.078203	-0.301019
H127	H	0.240916	-0.581209	-0.495286
H128	H	0.740916	-0.081209	0.004714
H129	H	0.706409	-0.554630	-0.472665
H130	H	1.206409	-0.054630	0.027335
H131	H	1.042040	-0.952239	-0.342318
H132	H	1.542040	-0.452239	0.157682
Br133	Br	1.081957	-0.358201	-0.646549
Br134	Br	1.581957	0.141799	-0.146549
H135	H	0.389239	-0.386680	-0.329875
H136	H	0.889239	0.113320	0.170125
Br137	Br	0.887580	-0.568343	-0.977760
Br138	Br	1.387580	-0.068343	-0.477760
H139	H	0.884084	-0.572152	-0.667633
H140	H	1.384084	-0.072152	-0.167633
H141	H	1.049873	-0.392874	-0.800033
H142	H	1.549873	0.107126	-0.300033
H143	H	1.083775	-0.356204	-0.996584
H144	H	1.583775	0.143796	-0.496584
Br145	Br	1.102974	-0.335418	-1.149784
Br146	Br	1.602974	0.164582	-0.649784
H147	H	0.721894	-0.353502	-0.301662
H148	H	1.221894	0.146498	0.198338
Br149	Br	0.571490	-0.315836	-0.269644
Br150	Br	1.071490	0.184164	0.230356
