data_functionalizedCrystal
_audit_creation_method	'MofGen! by Chris Wilmer'
_symmetry_space_group_name_H-M	'P1'
_symmetry_Int_Tables_number	1
_symmetry_cell_setting	triclinic
loop_
_symmetry_equiv_pos_as_xyz
  x,y,z
_cell_length_a	14.395555
_cell_length_b	17.917603
_cell_length_c	17.917603
_cell_angle_alpha	89.760059
_cell_angle_beta	57.013208
_cell_angle_gamma	116.965299
loop_
_atom_site_label
_atom_site_type_symbol
_atom_site_fract_x
_atom_site_fract_y
_atom_site_fract_z
Zr1	Zr	0.924048	0.060821	0.757833
O2	O	1.117844	0.180241	0.638415
O3	O	0.730253	0.024210	0.794438
O4	O	0.906373	0.173123	0.801551
O5	O	0.955666	-0.086135	0.625694
O6	O	0.892430	0.167510	0.930240
O7	O	0.941724	0.031329	0.631301
O8	O	0.577384	-0.098868	0.917516
O9	O	1.270713	0.180243	0.638419
O10	O	0.799558	0.004409	0.906093
O11	O	0.820369	-0.079063	0.805869
O12	O	1.027727	0.096262	0.814244
O13	O	1.048538	0.012790	0.714020
Zr14	Zr	0.924047	-0.135473	0.954134
Zr15	Zr	0.901811	0.051868	0.963077
Zr16	Zr	0.946285	-0.126520	0.748890
Zr17	Zr	1.167857	0.060823	0.757840
Zr18	Zr	0.680239	-0.135475	0.954128
O19	O	1.117843	-0.098862	0.917530
O20	O	1.086225	0.167512	0.930245
O21	O	1.149461	-0.086133	0.625699
O22	O	0.730252	-0.254893	1.073553
O23	O	0.698634	0.011481	1.086268
O24	O	0.761871	-0.242164	0.781722
O25	O	0.892429	0.011483	1.086273
O26	O	0.941723	-0.247775	0.910416
O27	O	0.955666	-0.242162	0.781727
O28	O	0.906372	-0.105981	1.080666
O29	O	1.253037	0.173127	0.801560
O30	O	0.595059	-0.247779	0.910407
O31	O	0.577383	-0.254895	1.073549
O32	O	0.559708	-0.105984	1.080657
O33	O	1.288388	0.031332	0.631310
O34	O	1.270712	0.024216	0.794452
O35	O	0.820368	-0.170914	0.897723
O36	O	0.799558	-0.087442	0.997947
O37	O	1.027727	0.004411	0.906098
O38	O	1.048537	-0.079061	0.805875
C39	C	0.619081	-0.037329	0.855976
C40	C	0.515578	-0.037330	0.855973
C41	C	0.896233	0.197009	0.867170
C42	C	0.886793	0.276540	0.870966
C43	C	0.951862	-0.271660	0.844797
C44	C	0.961302	-0.351191	0.841001
C45	C	0.466332	-0.082846	0.801330
C46	C	0.474917	0.001240	0.767314
C47	C	0.322598	-0.121390	0.889967
C48	C	0.525588	0.046806	0.821907
C49	C	0.373208	-0.075885	0.944607
C50	C	0.381830	0.008249	0.910617
C51	C	1.229015	-0.037323	0.855992
C52	C	1.332518	-0.037322	0.855994
C53	C	0.951863	-0.026127	0.599255
C54	C	0.961304	-0.022327	0.512124
C55	C	0.869548	0.422168	0.877921
C56	C	0.978542	0.503183	0.834049
C57	C	0.968947	0.584216	0.837918
C58	C	0.879141	0.341126	0.874052
C59	C	0.978548	-0.015386	0.352611
C60	C	0.869553	-0.059264	0.359349
C61	C	0.879148	-0.055402	0.270591
C62	C	0.968956	-0.019247	0.441376
C63	C	0.896232	-0.048524	1.112712
C64	C	0.886792	-0.052325	1.199844
C65	C	0.591265	-0.048528	1.112705
C66	C	0.478322	-0.052329	1.199833
C67	C	0.646895	-0.271664	0.844790
C68	C	0.552833	-0.351196	0.840990
C69	C	0.619080	-0.282862	1.101518
C70	C	0.515577	-0.366195	1.184851
C71	C	1.229016	0.208210	0.610449
C72	C	1.332519	0.291543	0.527117
C73	C	1.256830	-0.026124	0.599263
C74	C	1.369774	-0.022323	0.512134
C75	C	1.201200	0.197012	0.867178
C76	C	1.295263	0.276544	0.870977
C77	C	0.425282	-0.006162	1.192803
C78	C	0.319172	-0.009716	1.274663
C79	C	0.266098	-0.059443	1.363552
C80	C	0.319148	-0.105612	1.370580
C81	C	0.425262	-0.102053	1.288721
C82	C	0.508660	-0.436498	0.887153
C83	C	0.420293	-0.511234	0.883579
C84	C	0.376092	-0.500666	0.833848
C85	C	0.420274	-0.415355	0.787680
C86	C	0.508647	-0.340620	0.791248
C87	C	0.456106	-0.361757	1.276309
C88	C	0.358866	-0.440050	1.354616
C89	C	0.321091	-0.522780	1.341464
C90	C	0.380571	-0.527215	1.249996
C91	C	0.477816	-0.448923	1.171691
C92	C	1.392001	0.287106	0.435659
C93	C	1.489272	0.365399	0.357351
C94	C	1.527052	0.448128	0.370503
C95	C	1.467565	0.452564	0.461971
C96	C	1.370303	0.374271	0.540277
C97	C	1.422823	-0.068482	0.519165
C98	C	1.528958	-0.064908	0.437306
C99	C	1.582035	-0.015177	0.348417
C100	C	1.528980	0.030988	0.341389
C101	C	1.422854	0.027418	0.423247
C102	C	1.339435	0.265947	0.920717
C103	C	1.427803	0.340668	0.924305
C104	C	1.472005	0.425985	0.878147
C105	C	1.427824	0.436580	0.828406
C106	C	1.339450	0.361860	0.824824
H107	H	0.503153	-0.121274	0.755062
H108	H	1.079059	0.025077	0.280188
N109	N	0.496819	-0.272540	1.290520
H110	H	0.532424	-0.267117	1.327017
H111	H	0.567404	-0.223655	1.227011
H112	H	1.498339	0.519931	0.472669
H113	H	1.079062	0.511684	0.793580
N114	N	0.317648	-0.119116	1.043855
H115	H	0.368538	-0.074897	1.062566
H116	H	0.221727	-0.139285	1.088804
H117	H	1.303461	0.196485	0.958304
H118	H	1.303495	0.370500	0.784316
H119	H	1.668450	-0.012278	0.281771
N120	N	1.306147	0.379064	0.638920
H121	H	1.344844	0.443355	0.635360
H122	H	1.208051	0.348486	0.673679
H123	H	0.769036	0.413668	0.918383
H124	H	1.606251	0.511872	0.306734
N125	N	0.216204	-0.607220	1.425927
H126	H	0.184265	-0.591848	1.485858
H127	H	0.139837	-0.643155	1.424170
H128	H	0.544599	-0.271166	0.753660
H129	H	1.379665	0.065005	0.417509
N130	N	0.530514	0.044448	0.668043
H131	H	0.561520	0.010020	0.626805
H132	H	0.459859	0.044647	0.668954
N133	N	0.736399	-0.112866	0.455282
H134	H	0.748332	-0.108061	0.506004
H135	H	0.680679	-0.089182	0.464069
H136	H	1.379617	-0.108984	0.591534
N137	N	0.294721	-0.435255	1.453263
H138	H	0.333404	-0.370965	1.449705
H139	H	0.196622	-0.465847	1.488032
H140	H	0.349800	-0.594584	1.239301
N141	N	1.586165	-0.114704	0.444898
H142	H	1.536422	-0.146754	0.513631
H143	H	1.578153	-0.159320	0.410916
N144	N	1.586215	0.084607	0.245513
H145	H	1.661482	0.079849	0.194731
H146	H	1.515606	0.060892	0.236789
H147	H	0.526226	-0.452549	1.097224
N148	N	0.207613	-0.215566	0.928067
H149	H	0.238759	-0.249893	0.886737
H150	H	0.169471	-0.244951	0.994611
N151	N	1.351260	0.197882	0.421459
H152	H	1.403715	0.206965	0.351634
H153	H	1.368648	0.163494	0.451674
H154	H	0.544639	-0.445120	0.927650
N155	N	0.482511	0.047474	1.096937
H156	H	0.432799	0.076180	1.104919
H157	H	0.578593	0.095052	1.062984
H158	H	1.537691	0.361770	0.282882
N159	N	1.475442	0.329230	0.977958
H160	H	1.434035	0.263843	1.006644
H161	H	1.574611	0.360251	0.933322
N162	N	0.261968	0.040084	1.267070
H163	H	0.311690	0.072117	1.198337
H164	H	0.165885	-0.003313	1.296848
N165	N	1.567309	0.506572	0.882025
H166	H	1.588577	0.486905	0.920542
H167	H	1.651043	0.545478	0.815825
N168	N	0.151648	-0.063277	1.451838
H169	H	0.126106	-0.026483	1.433888
H170	H	0.074104	-0.126991	1.488247
H171	H	1.463826	0.506055	0.790826
H172	H	0.384272	-0.406763	0.747189
H173	H	0.345285	0.046801	0.956828
N174	N	0.640514	0.141027	0.783730
H175	H	0.710204	0.140442	0.783934
H176	H	0.679041	0.170192	0.717002
H177	H	0.275919	-0.146099	1.442964
H178	H	0.468435	-0.139653	1.294458
H179	H	0.384330	-0.580691	0.921179
H180	H	0.304133	-0.561527	0.830950
