data_functionalizedCrystal
_audit_creation_method	'MofGen! by Chris Wilmer'
_symmetry_space_group_name_H-M	'P1'
_symmetry_Int_Tables_number	1
_symmetry_cell_setting	triclinic
loop_
_symmetry_equiv_pos_as_xyz
  x,y,z
_cell_length_a	17.699077
_cell_length_b	27.732048
_cell_length_c	16.176319
_cell_angle_alpha	89.988239
_cell_angle_beta	89.993140
_cell_angle_gamma	82.961616
loop_
_atom_site_label
_atom_site_type_symbol
_atom_site_fract_x
_atom_site_fract_y
_atom_site_fract_z
O1	O	1.003543	0.061113	-0.068745
O2	O	0.783094	0.069069	-0.068750
O3	O	0.900165	-0.005281	-0.068731
O4	O	0.886472	0.135463	-0.068763
O5	O	0.900149	-0.005286	0.068762
O6	O	0.783078	0.069064	0.068743
O7	O	1.003527	0.061109	0.068749
Cu8	Cu	0.893301	0.065086	0.081300
Cu9	Cu	0.893320	0.065092	-0.081301
O10	O	0.886456	0.135459	0.068730
C11	C	0.754891	0.068782	-0.000004
C12	C	0.670880	0.067928	-0.000005
C13	C	0.631408	0.067523	0.074944
C14	C	0.552472	0.066714	0.074945
C15	C	0.513010	0.066312	-0.000004
C16	C	0.552489	0.066715	-0.074958
C17	C	0.631423	0.067522	-0.074958
C18	C	0.234154	0.063463	-0.074959
C19	C	0.155213	0.062658	-0.074953
C20	C	0.155203	0.062654	0.074944
C21	C	0.234138	0.063461	0.074944
C22	C	0.273610	0.063862	-0.000010
C23	C	0.359201	0.064739	-0.000010
C24	C	0.427420	0.065438	-0.000004
C25	C	0.899870	-0.023291	0.000018
C26	C	0.899004	-0.076949	0.000024
C27	C	0.962736	-0.415536	-0.000017
C28	C	0.959525	-0.617207	-0.000028
O29	O	1.017804	-0.648254	-0.000063
N30	N	0.890107	-0.636580	-0.000029
C31	C	0.821486	-0.605531	-0.000032
O32	O	0.762368	-0.626636	-0.000042
C33	C	0.824698	-0.403861	-0.000027
C34	C	0.894121	-0.384491	-0.000017
C35	C	1.032154	-0.396166	-0.000008
C36	C	1.032956	-0.345751	-0.000001
C37	C	0.964341	-0.314706	-0.000002
C38	C	0.894923	-0.334076	-0.000010
C39	C	0.756079	-0.372813	-0.000036
C40	C	0.756888	-0.322393	-0.000037
C41	C	0.826311	-0.303023	-0.000027
C42	C	0.827110	-0.252617	-0.000004
N43	N	0.896529	-0.233244	-0.000003
C44	C	0.965144	-0.264289	-0.000002
C45	C	0.819805	-0.711411	-0.000034
C46	C	0.819001	-0.761828	-0.000034
C47	C	0.957041	-0.773501	-0.000031
C48	C	0.957843	-0.723083	-0.000025
C49	C	0.889223	-0.692039	-0.000033
C50	C	0.966823	-0.158414	0.000014
C51	C	0.967619	-0.107994	0.000025
C52	C	0.829580	-0.096326	0.000018
C53	C	0.828784	-0.146741	0.000012
C54	C	0.897412	-0.177784	0.000007
O55	O	0.768863	-0.221541	0.000022
O56	O	1.024254	-0.243175	-0.000011
C57	C	0.961934	-0.465951	-0.000024
C58	C	0.892517	-0.485321	-0.000032
C59	C	0.823902	-0.454276	-0.000033
C60	C	0.891714	-0.535738	-0.000032
C61	C	0.960329	-0.566783	-0.000031
C62	C	1.029747	-0.547411	-0.000030
C63	C	1.030550	-0.496996	-0.000023
C64	C	0.754483	-0.473648	-0.000034
C65	C	0.753687	-0.524064	-0.000041
C66	C	0.822302	-0.555109	-0.000040
C67	C	1.031729	0.061395	0.000001
C68	C	1.115740	0.062249	-0.000003
C69	C	0.886751	0.153469	-0.000021
C70	C	0.887617	0.207127	-0.000033
N71	N	0.893293	0.065082	0.195665
N72	N	0.893333	0.065092	-0.195667
C73	C	0.945148	0.032173	0.238938
C74	C	0.945151	0.032172	0.325485
C75	C	0.893304	0.065083	0.368758
C76	C	0.841444	0.097994	0.325480
C77	C	0.841437	0.097992	0.238934
C78	C	0.841470	0.098003	0.674508
C79	C	0.841482	0.098003	0.761059
C80	C	0.945184	0.032184	0.761059
C81	C	0.945177	0.032182	0.674513
C82	C	0.893315	0.065090	0.631242
C83	C	0.893311	0.065089	0.537398
C84	C	0.893311	0.065087	0.462601
H85	H	0.123086	0.062330	-0.135989
H86	H	1.085616	-0.572696	-0.000026
H87	H	1.087081	-0.481230	-0.000016
H88	H	0.799225	0.124789	0.360718
H89	H	0.987411	0.005386	0.796299
N90	N	0.274449	0.063860	0.151502
N91	N	0.325870	0.030247	0.168228
H92	H	0.354340	0.030526	0.222299
H93	H	0.123056	0.062326	0.135975
N94	N	0.788523	0.131620	0.805276
N95	N	0.812185	0.161607	0.853551
H96	H	0.774786	0.185347	0.884781
N97	N	1.028756	-0.703299	-0.000004
N98	N	1.074867	-0.712847	0.057959
H99	H	1.124952	-0.698877	0.057974
N100	N	0.274455	0.063872	-0.151526
N101	N	0.239209	0.063515	-0.218437
H102	H	0.267674	0.063804	-0.272517
N103	N	0.512171	0.066300	-0.151510
N104	N	0.441694	0.065580	-0.151501
H105	H	0.413220	0.065287	-0.205567
H106	H	0.987375	0.005375	0.360717
N107	N	0.686800	-0.290674	-0.000051
N108	N	0.671858	-0.261230	-0.058006
H109	H	0.622360	-0.238828	-0.058015
N110	N	0.671735	0.067931	-0.151524
N111	N	0.636495	0.067571	-0.218437
H112	H	0.664965	0.067857	-0.272515
N113	N	0.998153	-0.001433	0.630325
N114	N	1.044453	-0.030812	0.668972
H115	H	1.081870	-0.054553	0.637765
H116	H	0.799243	0.124799	0.639283
H117	H	0.799211	0.124789	0.203702
N118	N	1.038543	-0.088218	0.000041
N119	N	1.099800	-0.115946	0.000042
H120	H	1.149889	-0.101981	0.000053
H121	H	0.663531	0.067854	0.135975
N122	N	1.103864	-0.325962	-0.000007
N123	N	1.104585	-0.280947	-0.000008
H124	H	1.154667	-0.266973	-0.000016
H125	H	0.520339	0.066376	0.135975
N126	N	1.036930	-0.190112	0.000007
N127	N	1.098900	-0.172803	0.000015
H128	H	1.148414	-0.195189	0.000014
N129	N	0.757865	-0.166521	0.000028
N130	N	0.696607	-0.138795	0.000040
H131	H	0.646519	-0.152761	0.000049
H132	H	1.088032	-0.421439	-0.000011
N133	N	1.027124	-0.805225	-0.000024
N134	N	1.026387	-0.850238	-0.000023
H135	H	1.075880	-0.872645	-0.000021
H136	H	0.762470	-0.777594	-0.000027
N137	N	0.682761	-0.543837	-0.000040
N138	N	0.621506	-0.516107	-0.000042
H139	H	0.571415	-0.530071	-0.000047
H140	H	0.763923	-0.686138	-0.000040
H141	H	0.699547	-0.388574	-0.000049
H142	H	0.773716	-0.071040	0.000020
N143	N	0.684384	-0.441948	-0.000038
N144	N	0.622413	-0.459257	-0.000040
H145	H	0.572900	-0.436870	-0.000038
N146	N	0.998075	-0.001474	0.194752
N147	N	1.044339	-0.030875	0.233403
H148	H	1.081703	-0.054651	0.202200
