data_functionalizedCrystal
_audit_creation_method	'MofGen! by Chris Wilmer'
_symmetry_space_group_name_H-M	'P1'
_symmetry_Int_Tables_number	1
_symmetry_cell_setting	triclinic
loop_
_symmetry_equiv_pos_as_xyz
  x,y,z
_cell_length_a	10.654550
_cell_length_b	15.995350
_cell_length_c	9.130313
_cell_angle_alpha	90.000982
_cell_angle_beta	89.996220
_cell_angle_gamma	83.988639
loop_
_atom_site_label
_atom_site_type_symbol
_atom_site_fract_x
_atom_site_fract_y
_atom_site_fract_z
O1	O	1.666298	0.117599	-0.121912
O2	O	1.300673	0.128803	-0.121888
O3	O	1.493480	0.001371	-0.121899
O4	O	1.473491	0.245030	-0.121900
O5	O	1.493478	0.001375	0.121700
O6	O	1.300671	0.128807	0.121711
O7	O	1.666295	0.117602	0.121687
Cu8	Cu	1.483483	0.123205	0.143942
Cu9	Cu	1.483486	0.123201	-0.144142
O10	O	1.473488	0.245034	0.121698
C11	C	1.253885	0.127982	-0.000085
C12	C	1.114473	0.125521	-0.000076
C13	C	1.034008	0.200551	-0.000098
C14	C	0.903017	0.198233	-0.000123
C15	C	0.932971	0.045849	-0.000111
C16	C	1.063959	0.048168	-0.000075
C17	C	1.016713	0.288528	-0.000111
C18	C	0.885722	0.286211	-0.000137
C19	C	1.492652	-0.029827	-0.000102
C20	C	1.490175	-0.122791	-0.000110
C21	C	1.481278	-0.460591	-0.000105
C22	C	1.343964	-0.413954	-0.000642
C23	C	1.346442	-0.317249	-0.000093
C24	C	1.485691	-0.293004	-0.000108
C25	C	1.553417	-0.333687	0.138991
C26	C	1.549968	-0.430342	0.139108
C27	C	1.552807	-0.430688	-0.137910
C28	C	1.552775	-0.333743	-0.139748
C29	C	1.488192	-0.198292	-0.000106
C30	C	1.478780	-0.555303	-0.000098
C31	C	1.713084	0.118423	-0.000119
C32	C	1.852495	0.120884	-0.000137
C33	C	1.474316	0.276232	-0.000101
C34	C	1.476793	0.369197	-0.000103
N35	N	1.483490	0.123207	0.346564
N36	N	1.483488	0.123192	-0.346765
C37	C	1.568887	0.066800	0.423211
C38	C	1.568883	0.066789	0.576548
C39	C	1.398083	0.179602	0.576578
C40	C	1.398081	0.179607	0.423244
C41	C	1.667501	0.001671	0.423195
C42	C	1.667497	0.001661	0.576532
H43	H	1.129471	-0.012929	-0.000037
O44	O	1.640224	-0.083568	0.368012
H45	H	1.546431	-0.097510	0.408546
H46	H	1.328544	0.225521	0.639026
O47	O	1.487277	-0.297962	-0.276062
H48	H	1.535245	-0.327072	-0.374263
H49	H	1.292844	-0.289694	0.099796
O50	O	0.824744	0.321431	0.139158
H51	H	0.898346	0.341984	0.213028
O52	O	1.063477	0.325641	-0.139407
H53	H	0.982337	0.343446	-0.213285
O54	O	1.271239	-0.438936	-0.132747
H55	H	1.332178	-0.484861	-0.199436
H56	H	0.843557	0.319358	-0.102090
H57	H	1.758418	0.022063	0.375631
O58	O	1.484536	-0.454973	0.276840
H59	H	1.455645	-0.397872	0.342732
O60	O	1.628193	-0.078909	0.639540
H61	H	1.607356	-0.121617	0.548942
H62	H	1.289324	-0.433864	0.098560
O63	O	1.683497	-0.472294	0.147490
H64	H	1.750246	-0.423519	0.151453
H65	H	1.763822	0.016007	0.618142
H66	H	0.891826	-0.017130	-0.000133
H67	H	1.293204	-0.289138	-0.099805
O68	O	1.054930	0.334092	0.134968
H69	H	1.101835	0.389917	0.101856
O70	O	1.688926	-0.314185	0.145860
H71	H	1.709487	-0.275194	0.049977
O72	O	1.491118	-0.296454	0.276128
H73	H	1.390500	-0.308719	0.277516
H74	H	1.507914	-0.451490	-0.243339
O75	O	1.687288	-0.312618	-0.150895
H76	H	1.752370	-0.371526	-0.149537
O77	O	1.686909	-0.471982	-0.139187
H78	H	1.702600	-0.513606	-0.042207
O79	O	1.305970	0.240441	0.340567
H80	H	1.246592	0.279662	0.419651
