data_functionalizedCrystal
_audit_creation_method	'MofGen! by Chris Wilmer'
_symmetry_space_group_name_H-M	'P1'
_symmetry_Int_Tables_number	1
_symmetry_cell_setting	triclinic
loop_
_symmetry_equiv_pos_as_xyz
  x,y,z
_cell_length_a	12.759401
_cell_length_b	29.839131
_cell_length_c	12.759393
_cell_angle_alpha	90.044470
_cell_angle_beta	90.020938
_cell_angle_gamma	90.036753
loop_
_atom_site_label
_atom_site_type_symbol
_atom_site_fract_x
_atom_site_fract_y
_atom_site_fract_z
Zn1	Zn	1.606117	-0.178813	0.593918
Zn2	Zn	1.605945	-0.253950	0.418195
Zn3	Zn	1.430415	-0.178837	0.418253
Zn4	Zn	1.430344	-0.253919	0.593833
O5	O	1.518205	-0.216380	0.506050
O6	O	1.753115	-0.188784	0.570620
O7	O	1.582618	-0.244010	0.271182
O8	O	1.453824	-0.115967	0.441616
O9	O	1.752988	-0.243986	0.441517
O10	O	1.582911	-0.115949	0.570676
O11	O	1.453657	-0.188824	0.271224
O12	O	1.283385	-0.188794	0.441533
O13	O	1.453703	-0.243933	0.740865
O14	O	1.283333	-0.243956	0.570530
O15	O	1.582842	-0.188753	0.740928
O16	O	1.582549	-0.316813	0.441434
O17	O	1.453536	-0.316790	0.570474
C18	C	1.245238	-0.216375	0.506029
C19	C	1.128461	-0.216383	0.506045
C20	C	1.518045	-0.333103	0.505961
C21	C	1.518072	-0.383037	0.505958
C22	C	1.073599	-0.245150	0.573108
C23	C	0.963875	-0.245151	0.573129
C24	C	0.963884	-0.187618	0.439014
C25	C	1.073606	-0.187615	0.439000
C26	C	0.813966	-0.261272	0.696980
C27	C	0.759101	-0.290045	0.764034
C28	C	0.794661	-0.333888	0.779957
C29	C	0.885086	-0.348966	0.728811
C30	C	0.939946	-0.320195	0.661749
C31	C	0.904386	-0.276346	0.645846
C32	C	1.223518	-0.171499	0.315147
C33	C	1.278380	-0.142730	0.248079
C34	C	1.242821	-0.098886	0.232146
C35	C	1.152393	-0.083810	0.283274
C36	C	1.097531	-0.112579	0.350341
C37	C	1.133097	-0.156422	0.366277
C38	C	1.585406	-0.692636	0.573347
C39	C	1.585520	-0.880309	0.573410
O40	O	1.642613	-0.904537	0.630641
N41	N	1.518384	-0.903822	0.506166
C42	C	1.451209	-0.880414	0.438907
O43	O	1.394100	-0.904719	0.381721
C44	C	1.451090	-0.692741	0.438850
C45	C	1.518239	-0.669231	0.506091
C46	C	1.652548	-0.669126	0.640583
C47	C	1.652523	-0.622211	0.640563
C48	C	1.585356	-0.598805	0.573306
C49	C	1.518214	-0.622316	0.506070
C50	C	1.383911	-0.669334	0.371596
C51	C	1.383885	-0.622413	0.371590
C52	C	1.451034	-0.598903	0.438831
C53	C	1.451021	-0.551995	0.438793
N54	N	1.518158	-0.528482	0.506037
C55	C	1.585325	-0.551888	0.573293
C56	C	1.451277	-0.978944	0.438940
C57	C	1.451308	-1.025862	0.438953
C58	C	1.585618	-1.025755	0.573458
C59	C	1.585592	-0.978836	0.573439
C60	C	1.518414	-0.955432	0.506184
C61	C	1.585268	-0.453362	0.573245
C62	C	1.585240	-0.406442	0.573215
C63	C	1.450926	-0.406554	0.438714
C64	C	1.450958	-0.453469	0.438739
C65	C	1.518132	-0.476872	0.506013
O66	O	1.393950	-0.527739	0.381601
O67	O	1.642409	-0.527574	0.630487
C68	C	1.585431	-0.739552	0.573368
C69	C	1.518289	-0.763062	0.506132
C70	C	1.451122	-0.739657	0.438875
C71	C	1.518320	-0.809980	0.506144
C72	C	1.585487	-0.833385	0.573401
C73	C	1.652624	-0.809872	0.640645
C74	C	1.652599	-0.762957	0.640624
C75	C	1.383985	-0.763170	0.371631
C76	C	1.384017	-0.810085	0.371656
C77	C	1.451184	-0.833490	0.438913
C78	C	1.792238	-0.216386	0.506071
C79	C	1.909015	-0.216388	0.506081
C80	C	1.518284	-0.216337	0.780083
C81	C	1.518317	-0.216318	0.896860
C82	C	1.518395	-0.099202	0.506162
C83	C	1.518475	-0.049267	0.506209
C84	C	1.518187	-0.216391	0.233082
C85	C	1.518357	-0.216282	0.116306
C86	C	1.585565	-0.187582	0.951756
C87	C	1.585583	-0.187562	1.061481
C88	C	1.451102	-0.245020	1.061402
C89	C	1.451080	-0.245037	0.951680
C90	C	1.623239	-0.134558	1.211489
C91	C	1.690504	-0.105825	1.266389
C92	C	1.793022	-0.098936	1.230802
C93	C	1.828297	-0.120786	1.140316
C94	C	1.761039	-0.149522	1.085421
C95	C	1.658506	-0.156403	1.121007
C96	C	1.413434	-0.298042	0.801670
C97	C	1.346180	-0.326781	0.746773
C98	C	1.243660	-0.333675	0.782359
C99	C	1.208388	-0.311832	0.872848
C100	C	1.275642	-0.283093	0.927744
C101	C	1.378162	-0.276199	0.892152
H102	H	1.013567	-0.332471	0.620106
H103	H	1.661773	-0.088034	1.340063
H104	H	0.914026	-0.384669	0.741772
O105	O	0.735495	-0.364924	0.852284
H106	H	0.666650	-0.347074	0.885176
H107	H	1.374911	-0.344570	0.673099
O108	O	1.524022	-0.290612	0.763298
H109	H	1.535660	-0.254523	0.745751
H110	H	1.539758	-0.140161	1.240468
O111	O	1.311586	-0.835441	0.299129
H112	H	1.264872	-0.811279	0.252370
O113	O	1.132770	-0.276171	0.645429
H114	H	1.076182	-0.296171	0.692074
H115	H	0.685477	-0.277764	0.805679
O116	O	1.114036	-0.036522	0.266063
H117	H	1.033719	-0.037450	0.232684
H118	H	1.023905	-0.100299	0.391980
O119	O	1.301990	-0.067854	0.159808
H120	H	1.370846	-0.085701	0.126928
O121	O	0.775592	-0.213986	0.679776
H122	H	0.703483	-0.208343	0.726581
H123	H	0.919208	-0.164197	0.384427
H124	H	1.188906	-0.357080	0.737657
H125	H	1.352011	-0.155009	0.206447
H126	H	1.707277	-0.743818	0.695378
H127	H	1.252485	-0.207199	0.328124
H128	H	1.639924	-0.387302	0.627971
H129	H	1.396242	-0.387490	0.383951
O130	O	1.658012	-0.953480	0.645967
H131	H	1.711481	-0.932104	0.598983
H132	H	1.396362	-0.268403	1.106050
H133	H	1.640310	-1.044819	0.628220
H134	H	1.329178	-0.603359	0.316823
H135	H	1.639960	-0.472411	0.628033
O136	O	1.724963	-0.596855	0.713071
H137	H	1.771668	-0.621019	0.759834
H138	H	1.707244	-0.688178	0.695358
O139	O	1.378539	-0.478831	0.366216
H140	H	1.331826	-0.454672	0.319449
O141	O	1.237602	-0.259528	1.025338
H142	H	1.155010	-0.269145	1.040859
H143	H	1.911782	-0.115178	1.111353
H144	H	1.124909	-0.317447	0.901825
O145	O	1.865576	-0.067946	1.290009
H146	H	1.890755	-0.040245	1.237734
H147	H	1.707317	-0.828937	0.695404
H148	H	1.396640	-1.045000	0.384187
H149	H	1.396571	-0.959891	0.384170
H150	H	1.329232	-0.688468	0.316841
H151	H	1.329288	-0.744117	0.316864
H152	H	1.640311	-0.164196	0.907125
H153	H	1.789761	-0.167314	1.011753
