data_functionalizedCrystal
_audit_creation_method	'MofGen! by Chris Wilmer'
_symmetry_space_group_name_H-M	'P1'
_symmetry_Int_Tables_number	1
_symmetry_cell_setting	triclinic
loop_
_symmetry_equiv_pos_as_xyz
  x,y,z
_cell_length_a	16.109318
_cell_length_b	16.109301
_cell_length_c	9.130313
_cell_angle_alpha	89.994060
_cell_angle_beta	90.000058
_cell_angle_gamma	83.465022
loop_
_atom_site_label
_atom_site_type_symbol
_atom_site_fract_x
_atom_site_fract_y
_atom_site_fract_z
O1	O	1.103122	0.106936	-0.121682
O2	O	0.861062	0.120220	-0.121712
O3	O	0.988741	-0.007453	-0.121682
O4	O	0.975442	0.234608	-0.121713
O5	O	0.988733	-0.007456	0.121917
O6	O	0.861053	0.120216	0.121886
O7	O	1.103113	0.106932	0.121917
Cu8	Cu	0.982082	0.113574	0.144144
Cu9	Cu	0.982093	0.113578	-0.143940
O10	O	0.975433	0.234605	0.121886
C11	C	0.830083	0.119677	0.000083
C12	C	0.737788	0.118057	0.000072
C13	C	0.438719	0.112824	-0.132687
C14	C	0.525440	0.114341	-0.132696
C15	C	0.525450	0.114326	0.132889
C16	C	0.438731	0.112802	0.132896
C17	C	0.395367	0.112056	0.000104
C18	C	0.568807	0.115096	0.000087
C19	C	0.662835	0.116742	0.000078
C20	C	0.301334	0.110409	0.000113
C21	C	0.988198	-0.038430	0.000119
C22	C	0.986583	-0.130725	0.000120
C23	C	1.058590	-0.352993	0.000106
C24	C	1.057066	-0.439713	0.000094
C25	C	0.905579	-0.419848	0.000081
C26	C	0.907104	-0.333130	0.000083
C27	C	0.983612	-0.299704	0.000103
C28	C	0.980563	-0.473144	0.000089
C29	C	0.978910	-0.567170	0.000075
C30	C	0.985265	-0.205672	0.000113
C31	C	1.134092	0.107474	0.000118
C32	C	1.226387	0.109095	0.000119
C33	C	0.975976	0.265581	0.000083
C34	C	0.977592	0.357877	0.000071
N35	N	0.982081	0.113570	0.346767
N36	N	0.982100	0.113575	-0.346562
C37	C	1.038636	0.057060	0.423432
C38	C	1.038644	0.057060	0.576769
C39	C	0.925539	0.170088	0.576761
C40	C	0.925528	0.170083	0.423427
H41	H	0.403433	0.112176	0.241037
O42	O	0.567628	0.115204	-0.261597
C43	C	0.608340	0.188056	-0.269562
H44	H	0.618193	0.212266	-0.154269
H45	H	0.671439	0.172945	-0.325773
H46	H	0.568310	0.237866	-0.335083
O47	O	0.834320	-0.281274	0.000274
C48	C	0.830659	-0.230538	0.126451
H49	H	0.896648	-0.226176	0.168522
H50	H	0.799680	-0.165350	0.098069
H51	H	0.792687	-0.259057	0.214790
H52	H	1.120888	-0.325781	0.000120
H53	H	1.118121	-0.483098	0.000094
H54	H	0.843288	-0.447074	0.000067
H55	H	0.403415	0.112214	-0.240815
O56	O	1.093664	0.002137	0.651014
C57	C	1.143558	-0.047755	0.550465
H58	H	1.144477	-0.013667	0.441156
H59	H	1.209958	-0.060410	0.594757
H60	H	1.116587	-0.109530	0.534176
O61	O	1.093434	0.002094	0.348835
C62	C	1.048891	-0.049229	0.260241
H63	H	0.983842	-0.016110	0.237240
H64	H	1.083587	-0.062427	0.152426
H65	H	1.043225	-0.110651	0.319414
H66	H	0.879495	0.216100	0.639194
O67	O	0.870556	0.225061	0.349172
C68	C	0.820633	0.274932	0.449710
H69	H	0.854723	0.275894	0.559005
H70	H	0.807923	0.341322	0.405383
H71	H	0.758886	0.247911	0.466041
H72	H	0.560767	0.114935	0.241003
