data_functionalizedCrystal
_audit_creation_method	'MofGen! by Chris Wilmer'
_symmetry_space_group_name_H-M	'P1'
_symmetry_Int_Tables_number	1
_symmetry_cell_setting	triclinic
loop_
_symmetry_equiv_pos_as_xyz
  x,y,z
_cell_length_a	14.044220
_cell_length_b	15.944564
_cell_length_c	12.503552
_cell_angle_alpha	93.518927
_cell_angle_beta	93.844387
_cell_angle_gamma	91.653594
loop_
_atom_site_label
_atom_site_type_symbol
_atom_site_fract_x
_atom_site_fract_y
_atom_site_fract_z
O1	O	1.263202	-0.198060	0.089324
O2	O	0.987232	-0.190752	0.089326
O3	O	1.132746	-0.072696	0.089315
O4	O	1.117688	-0.316116	0.089335
O5	O	1.121790	-0.081582	-0.089327
O6	O	0.976276	-0.199638	-0.089315
O7	O	1.252246	-0.206946	-0.089318
Cu8	Cu	1.113260	-0.204104	-0.105628
Cu9	Cu	1.126217	-0.193595	0.105636
O10	O	1.106732	-0.325002	-0.089306
C11	C	0.946439	-0.191997	0.000006
C12	C	0.841212	-0.182455	0.000006
C13	C	1.126641	-0.045799	-0.000007
C14	C	1.124760	0.047588	-0.000008
N15	N	1.104154	-0.211495	-0.254220
C16	C	1.293039	-0.205702	0.000005
C17	C	1.398266	-0.215242	0.000011
C18	C	1.590929	-0.232686	0.000012
C19	C	1.648554	-0.165016	0.000006
C20	C	1.755759	-0.174721	0.000006
C21	C	1.483715	-0.222981	0.000012
C22	C	1.030065	0.269534	0.000007
C23	C	1.068628	0.322878	-0.088075
C24	C	1.121358	0.218568	-0.000000
C25	C	1.079452	0.331621	0.088052
C26	C	1.118065	0.383726	0.000012
C27	C	1.159942	0.270677	-0.088155
C28	C	1.170757	0.279419	0.088051
C29	C	1.209386	0.332739	-0.000052
C30	C	1.123252	0.123424	-0.000008
C31	C	1.116178	0.478868	0.000012
C32	C	1.112824	0.648100	0.000016
C33	C	1.114667	0.554712	0.000020
C34	C	1.148722	-0.175321	-0.526657
C35	C	1.090767	-0.222368	-0.473328
C36	C	1.098217	-0.216317	-0.351405
C37	C	1.141272	-0.181372	-0.648591
N38	N	1.135331	-0.186197	0.254228
H39	H	1.617380	-0.099788	0.000078
H40	H	1.285223	0.360216	-0.000103
Cl41	Cl	1.212452	0.229634	-0.203250
Cl42	Cl	1.237375	0.249594	0.203026
H43	H	1.203932	-0.130502	-0.480751
H44	H	1.622107	-0.297904	0.000018
Cl45	Cl	0.913069	0.226863	-0.000120
H46	H	1.025448	0.342173	-0.162540
H47	H	1.045394	0.358294	0.162523
Cl48	Cl	1.005525	-0.291575	-0.544209
