data_functionalizedCrystal
_audit_creation_method	'MofGen! by Chris Wilmer'
_symmetry_space_group_name_H-M	'P1'
_symmetry_Int_Tables_number	1
_symmetry_cell_setting	triclinic
loop_
_symmetry_equiv_pos_as_xyz
  x,y,z
_cell_length_a	21.395362
_cell_length_b	19.077068
_cell_length_c	19.076919
_cell_angle_alpha	94.470751
_cell_angle_beta	92.260951
_cell_angle_gamma	92.343691
loop_
_atom_site_label
_atom_site_type_symbol
_atom_site_fract_x
_atom_site_fract_y
_atom_site_fract_z
Zn1	Zn	0.932554	-0.296406	-0.410194
Zn2	Zn	1.265887	0.036927	-0.076861
Zn3	Zn	1.599220	0.370260	0.256473
Zn4	Zn	0.932476	-0.409560	-0.297039
Zn5	Zn	1.265809	-0.076226	0.036295
Zn6	Zn	1.599143	0.257107	0.369628
Zn7	Zn	0.832167	-0.291720	-0.292287
Zn8	Zn	1.165501	0.041613	0.041046
Zn9	Zn	1.498834	0.374946	0.374380
Zn10	Zn	0.823361	-0.414289	-0.414842
Zn11	Zn	1.156694	-0.080955	-0.081509
Zn12	Zn	1.490028	0.252378	0.251825
O13	O	0.880139	-0.352994	-0.353590
O14	O	1.213473	-0.019660	-0.020257
O15	O	1.546806	0.313673	0.313076
O16	O	1.020220	-0.311398	-0.395227
O17	O	1.353554	0.021935	-0.061894
O18	O	1.686887	0.355268	0.271439
O19	O	0.922823	-0.389988	-0.197763
O20	O	1.256156	-0.056654	0.135571
O21	O	1.589489	0.276679	0.468904
O22	O	0.849202	-0.193691	-0.303994
O23	O	1.182535	0.139642	0.029340
O24	O	1.515868	0.472975	0.362673
O25	O	1.020163	-0.394532	-0.312092
O26	O	1.353497	-0.061198	0.021241
O27	O	1.686830	0.272135	0.354574
O28	O	0.922955	-0.197134	-0.390620
O29	O	1.256288	0.136199	-0.057286
O30	O	1.589622	0.469532	0.276047
O31	O	0.849126	-0.303412	-0.194272
O32	O	1.182460	0.029922	0.139062
O33	O	1.515793	0.363255	0.472395
O34	O	0.743322	-0.307997	-0.308501
O35	O	1.076655	0.025336	0.024833
O36	O	1.409989	0.358669	0.358166
O37	O	0.834193	-0.402592	-0.512871
O38	O	1.167526	-0.069258	-0.179538
O39	O	1.500859	0.264075	0.153796
O40	O	0.736852	-0.398048	-0.398541
O41	O	1.070186	-0.064714	-0.065208
O42	O	1.403519	0.268619	0.268125
O43	O	0.914416	-0.315984	-0.509456
O44	O	1.247749	0.017350	-0.176123
O45	O	1.581083	0.350683	0.157210
O46	O	0.914284	-0.508837	-0.316599
O47	O	1.247617	-0.175504	0.016734
O48	O	1.580951	0.157829	0.350067
O49	O	0.834118	-0.512312	-0.403149
O50	O	1.167451	-0.178978	-0.069816
O51	O	1.500784	0.154355	0.263518
C52	C	0.717353	-0.353028	-0.353510
C53	C	1.050687	-0.019694	-0.020177
C54	C	1.384020	0.313639	0.313157
C55	C	0.647712	-0.353060	-0.353493
C56	C	0.981045	-0.019727	-0.020160
C57	C	1.314378	0.313607	0.313173
C58	C	0.611646	-0.400006	-0.400312
C59	C	0.944980	-0.066673	-0.066979
C60	C	1.278313	0.266660	0.266354
C61	C	0.546210	-0.399990	-0.400343
C62	C	0.879544	-0.066657	-0.067010
C63	C	1.212877	0.266676	0.266324
C64	C	0.516842	-0.353035	-0.353542
C65	C	0.850176	-0.019701	-0.020209
C66	C	1.183509	0.313632	0.313124
C67	C	0.552916	-0.306080	-0.306720
C68	C	0.886249	0.027254	0.026614
C69	C	1.219583	0.360587	0.359947
C70	C	0.618351	-0.306092	-0.306695
C71	C	0.951684	0.027241	0.026638
C72	C	1.285017	0.360575	0.359971
C73	C	0.415697	-0.344816	-0.289853
C74	C	0.749030	-0.011482	0.043480
C75	C	1.082364	0.321851	0.376813
C76	C	0.350263	-0.344808	-0.289877
C77	C	0.683597	-0.011475	0.043457
C78	C	1.016930	0.321859	0.376790
C79	C	0.315021	-0.352992	-0.353618
C80	C	0.648354	-0.019659	-0.020285
C81	C	0.981687	0.313675	0.313048
C82	C	0.345219	-0.361198	-0.417339
C83	C	0.678552	-0.027865	-0.084005
C84	C	1.011885	0.305468	0.249328
C85	C	0.410653	-0.361211	-0.417314
C86	C	0.743987	-0.027877	-0.083981
C87	C	1.077320	0.305456	0.249352
C88	C	0.445890	-0.353016	-0.353564
C89	C	0.779223	-0.019682	-0.020231
C90	C	1.112557	0.313651	0.313103
C91	C	0.208002	-0.399923	-0.400475
C92	C	0.541335	-0.066590	-0.067141
C93	C	0.874669	0.266743	0.266192
C94	C	0.142565	-0.399902	-0.400506
C95	C	0.475898	-0.066569	-0.067173
C96	C	0.809232	0.266764	0.266160
C97	C	0.149272	-0.305995	-0.306877
C98	C	0.482605	0.027338	0.026456
C99	C	0.815939	0.360671	0.359790
C100	C	0.214708	-0.306013	-0.306851
C101	C	0.548041	0.027321	0.026482
C102	C	0.881374	0.360654	0.359815
C103	C	0.244069	-0.352981	-0.353649
C104	C	0.577402	-0.019647	-0.020316
C105	C	0.910735	0.313686	0.313017
C106	C	0.873253	-0.536154	-0.360909
C107	C	1.206587	-0.202821	-0.027576
C108	C	1.539920	0.130513	0.305757
C109	C	0.870364	-0.614512	-0.364064
C110	C	1.203697	-0.281178	-0.030731
C111	C	1.537030	0.052155	0.302603
C112	C	0.910774	-0.649494	-0.320522
C113	C	1.244107	-0.316160	0.012811
C114	C	1.577441	0.017173	0.346145
C115	C	0.908060	-0.723119	-0.323493
C116	C	1.241393	-0.389786	0.009840
C117	C	1.574727	-0.056453	0.343173
C118	C	0.864932	-0.761762	-0.370004
C119	C	1.198265	-0.428428	-0.036670
C120	C	1.531598	-0.095095	0.296663
C121	C	0.824519	-0.726775	-0.413551
C122	C	1.157853	-0.393442	-0.080217
C123	C	1.491186	-0.060108	0.253116
C124	C	0.827237	-0.653151	-0.410582
C125	C	1.160571	-0.319817	-0.077249
C126	C	1.493904	0.013516	0.256084
C127	C	0.852328	-0.982151	-0.383712
C128	C	1.185661	-0.648818	-0.050379
C129	C	1.518994	-0.315484	0.282954
C130	C	0.849612	-1.055780	-0.386676
C131	C	1.182945	-0.722447	-0.053343
C132	C	1.516278	-0.389114	0.279991
C133	C	0.933153	-1.052120	-0.296619
C134	C	1.266487	-0.718786	0.036714
C135	C	1.599820	-0.385453	0.370048
C136	C	0.935865	-0.978494	-0.293652
C137	C	1.269198	-0.645161	0.039681
C138	C	1.602531	-0.311827	0.373015
C139	C	0.895455	-0.943514	-0.337201
C140	C	1.228788	-0.610180	-0.003868
C141	C	1.562121	-0.276847	0.329465
N142	N	0.862155	-0.837019	-0.373040
N143	N	1.195488	-0.503686	-0.039707
N144	N	1.528822	-0.170352	0.293626
N145	N	0.898235	-0.868258	-0.334168
N146	N	1.231568	-0.534925	-0.000834
N147	N	1.564901	-0.201591	0.332499
C148	C	1.043561	-0.352960	-0.353671
C149	C	1.376894	-0.019627	-0.020338
C150	C	1.710228	0.313707	0.312995
C151	C	1.113202	-0.352946	-0.353706
C152	C	1.446535	-0.019612	-0.020373
C153	C	1.779868	0.313721	0.312961
C154	C	0.873331	-0.360338	-0.537457
C155	C	1.206664	-0.027005	-0.204123
C156	C	1.539997	0.306329	0.129210
C157	C	0.870429	-0.363468	-0.615809
C158	C	1.203763	-0.030134	-0.282476
C159	C	1.537096	0.303199	0.050857
C160	C	0.887069	-0.169119	-0.346258
C161	C	1.220402	0.164215	-0.012925
C162	C	1.553736	0.497548	0.320408
C163	C	0.890022	-0.090762	-0.343134
C164	C	1.223356	0.242571	-0.009800
C165	C	1.556689	0.575905	0.323533
C166	C	0.910832	-0.319848	-0.650843
C167	C	1.244165	0.013485	-0.317510
C168	C	1.577499	0.346819	0.015824
C169	C	0.908098	-0.322786	-0.724464
C170	C	1.241431	0.010547	-0.391130
C171	C	1.574765	0.343881	-0.057797
C172	C	0.864964	-0.369348	-0.763050
C173	C	1.198298	-0.036014	-0.429716
C174	C	1.531631	0.297319	-0.096383
C175	C	0.824557	-0.412969	-0.728011
C176	C	1.157891	-0.079636	-0.394678
C177	C	1.491224	0.253698	-0.061344
C178	C	0.827288	-0.410027	-0.654391
C179	C	1.160622	-0.076694	-0.321058
C180	C	1.493955	0.256640	0.012275
C181	C	0.852314	-0.382978	-0.983419
C182	C	1.185648	-0.049645	-0.650086
C183	C	1.518981	0.283688	-0.316752
C184	C	0.849587	-0.385918	-1.057044
C185	C	1.182921	-0.052585	-0.723710
C186	C	1.516254	0.280748	-0.390377
C187	C	0.933128	-0.295734	-1.053491
C188	C	1.266461	0.037599	-0.720158
C189	C	1.599794	0.370933	-0.386825
C190	C	0.935858	-0.292799	-0.979871
C191	C	1.269191	0.040534	-0.646537
C192	C	1.602524	0.373867	-0.313204
C193	C	0.895449	-0.336418	-0.944838
C194	C	1.228782	-0.003085	-0.611505
C195	C	1.562115	0.330249	-0.278172
N196	N	0.862170	-0.372353	-0.838302
N197	N	1.195503	-0.039020	-0.504969
N198	N	1.528837	0.294313	-0.171635
N199	N	0.898240	-0.333408	-0.869587
N200	N	1.231573	-0.000075	-0.536254
N201	N	1.564907	0.333259	-0.202920
C202	C	0.886960	-0.345627	-0.170437
C203	C	1.220293	-0.012294	0.162896
C204	C	1.553626	0.321040	0.496229
C205	C	0.889990	-0.342299	-0.092077
C206	C	1.223323	-0.008966	0.241256
C207	C	1.556657	0.324368	0.574590
H208	H	0.325681	-0.338130	-0.237992
H209	H	0.659014	-0.004797	0.095342
H210	H	0.992348	0.328536	0.428675
H211	H	0.945958	-0.281935	-0.619432
H212	H	1.279291	0.051399	-0.286098
H213	H	1.612625	0.384732	0.047235
C214	C	0.782860	-0.458026	-0.615855
C215	C	1.116194	-0.124692	-0.282522
C216	C	1.449527	0.208641	0.050812
H217	H	0.756788	-0.486187	-0.649378
H218	H	1.090121	-0.152854	-0.316045
H219	H	1.423455	0.180480	0.017288
H220	H	0.757639	-0.429931	-0.586038
H221	H	1.090972	-0.096598	-0.252704
H222	H	1.424305	0.236736	0.080629
H223	H	0.806752	-0.487587	-0.588383
H224	H	1.140085	-0.154254	-0.255050
H225	H	1.473418	0.179079	0.078284
C226	C	0.977571	-0.247753	-1.092025
C227	C	1.310905	0.085581	-0.758691
C228	C	1.644238	0.418914	-0.425358
H229	H	1.003654	-0.219605	-1.058500
H230	H	1.336987	0.113729	-0.725167
H231	H	1.670320	0.447062	-0.391834
H232	H	0.953698	-0.218189	-1.119507
H233	H	1.287031	0.115144	-0.786173
H234	H	1.620365	0.448478	-0.452840
H235	H	1.002793	-0.275866	-1.121833
H236	H	1.336126	0.057468	-0.788499
H237	H	1.669459	0.390801	-0.455166
C238	C	0.958216	-0.606993	-0.269361
C239	C	1.291550	-0.273660	0.063972
C240	C	1.624883	0.059673	0.397306
H241	H	0.981898	-0.638375	-0.243860
H242	H	1.315232	-0.305042	0.089474
H243	H	1.648565	0.028292	0.422807
H244	H	0.936471	-0.577086	-0.237455
H245	H	1.269804	-0.243753	0.095878
H246	H	1.603138	0.089581	0.429212
H247	H	0.985560	-0.579308	-0.295211
H248	H	1.318894	-0.245975	0.038122
H249	H	1.652227	0.087359	0.371455
H250	H	0.941000	-0.287268	-0.752985
H251	H	1.274333	0.046065	-0.419651
H252	H	1.607666	0.379399	-0.086318
H253	H	0.444387	-0.338148	-0.237944
H254	H	0.777720	-0.004815	0.095390
H255	H	1.111053	0.328518	0.428723
C256	C	0.782787	-0.614671	-0.458480
C257	C	1.116120	-0.281337	-0.125147
C258	C	1.449453	0.051996	0.208187
H259	H	0.756709	-0.648228	-0.486602
H260	H	1.090042	-0.314895	-0.153269
H261	H	1.423375	0.018439	0.180065
H262	H	0.806658	-0.587137	-0.488067
H263	H	1.139991	-0.253803	-0.154734
H264	H	1.473325	0.079530	0.178599
H265	H	0.757562	-0.584916	-0.430319
H266	H	1.090895	-0.251582	-0.096985
H267	H	1.424228	0.081751	0.236348
C268	C	0.306461	-0.370198	-0.487458
C269	C	0.639794	-0.036865	-0.154125
C270	C	0.973128	0.296468	0.179208
H271	H	0.263166	-0.369007	-0.478350
H272	H	0.596499	-0.035674	-0.145017
H273	H	0.929833	0.297660	0.188316
H274	H	0.314732	-0.414049	-0.511642
H275	H	0.648066	-0.080716	-0.178309
H276	H	0.981399	0.252617	0.155024
H277	H	0.317566	-0.333079	-0.515636
H278	H	0.650899	0.000254	-0.182303
H279	H	0.984232	0.333588	0.151030
H280	H	0.529001	-0.267847	-0.268616
H281	H	0.862334	0.065486	0.064718
H282	H	1.195667	0.398820	0.398051
C283	C	0.777078	-0.769279	-0.464710
C284	C	1.110411	-0.435946	-0.131376
C285	C	1.443745	-0.102613	0.201957
H286	H	0.781242	-0.818138	-0.460236
H287	H	1.114575	-0.484804	-0.126903
H288	H	1.447908	-0.151471	0.206430
H289	H	0.784903	-0.759076	-0.511599
H290	H	1.118237	-0.425743	-0.178266
H291	H	1.451570	-0.092409	0.155067
H292	H	0.735814	-0.756853	-0.453842
H293	H	1.069148	-0.423519	-0.120509
H294	H	1.402481	-0.090186	0.212824
H295	H	0.789435	-0.450878	-0.759433
H296	H	1.122768	-0.117545	-0.426100
H297	H	1.456101	0.215789	-0.092767
C298	C	0.983281	-0.935988	-0.242464
C299	C	1.316614	-0.602655	0.090869
C300	C	1.649948	-0.269321	0.424203
H301	H	0.979100	-0.887130	-0.246919
H302	H	1.312433	-0.553796	0.086414
H303	H	1.645767	-0.220463	0.419747
H304	H	1.024555	-0.948394	-0.253294
H305	H	1.357888	-0.615061	0.080040
H306	H	1.691221	-0.281727	0.413373
H307	H	0.975423	-0.946209	-0.195583
H308	H	1.308756	-0.612876	0.137750
H309	H	1.642089	-0.279543	0.471083
C310	C	0.658024	-0.254453	-0.255188
C311	C	0.991357	0.078881	0.078145
C312	C	1.324691	0.412214	0.411478
H313	H	0.631164	-0.226486	-0.227317
H314	H	0.964498	0.106847	0.106017
H315	H	1.297831	0.440181	0.439350
H316	H	0.683738	-0.224865	-0.280967
H317	H	1.017072	0.108468	0.052366
H318	H	1.350405	0.441802	0.385699
H319	H	0.683640	-0.280155	-0.225492
H320	H	1.016973	0.053179	0.107841
H321	H	1.350307	0.386512	0.441175
C322	C	0.102893	-0.451556	-0.452001
C323	C	0.436226	-0.118222	-0.118667
C324	C	0.769559	0.215111	0.214666
H325	H	0.129753	-0.479535	-0.479858
H326	H	0.463087	-0.146201	-0.146525
H327	H	0.796420	0.187132	0.186808
H328	H	0.077269	-0.425873	-0.481701
H329	H	0.410602	-0.092540	-0.148367
H330	H	0.743936	0.240794	0.184966
H331	H	0.077186	-0.481141	-0.426203
H332	H	0.410520	-0.147807	-0.092870
H333	H	0.743853	0.185526	0.240464
H334	H	0.970983	-0.254886	-0.948459
H335	H	1.304317	0.078448	-0.615126
H336	H	1.637650	0.411781	-0.281792
H337	H	0.814499	-1.087242	-0.424563
H338	H	1.147832	-0.753908	-0.091229
H339	H	1.481165	-0.420575	0.242104
C340	C	0.952509	-0.761596	-0.275593
C341	C	1.285842	-0.428263	0.057740
C342	C	1.619175	-0.094930	0.391073
H343	H	0.978577	-0.728037	-0.247462
H344	H	1.311911	-0.394704	0.085872
H345	H	1.645244	-0.061371	0.419205
H346	H	0.977733	-0.791350	-0.303750
H347	H	1.311067	-0.458017	0.029584
H348	H	1.644400	-0.124683	0.362917
H349	H	0.928634	-0.789131	-0.246004
H350	H	1.261968	-0.455798	0.087329
H351	H	1.595301	-0.122465	0.420663
C352	C	0.977604	-1.090599	-0.248724
C353	C	1.310938	-0.757266	0.084609
C354	C	1.644271	-0.423933	0.417942
H355	H	0.969814	-1.139982	-0.257155
H356	H	1.303148	-0.806649	0.076178
H357	H	1.636481	-0.473315	0.409511
H358	H	0.970670	-1.076673	-0.200862
H359	H	1.304003	-0.743339	0.132471
H360	H	1.637337	-0.410006	0.465804
H361	H	1.019759	-1.078891	-0.258619
H362	H	1.353092	-0.745557	0.074714
H363	H	1.686426	-0.412224	0.408047
H364	H	0.814460	-0.423836	-1.088458
H365	H	1.147794	-0.090503	-0.755125
H366	H	1.481127	0.242830	-0.421792
C367	C	0.807854	-0.430943	-0.944892
C368	C	1.141187	-0.097609	-0.611558
C369	C	1.474520	0.235724	-0.278225
H370	H	0.781775	-0.459093	-0.978418
H371	H	1.115108	-0.125759	-0.645085
H372	H	1.448441	0.207574	-0.311751
H373	H	0.782640	-0.402818	-0.915092
H374	H	1.115973	-0.069485	-0.581759
H375	H	1.449307	0.263849	-0.248425
H376	H	0.831715	-0.460516	-0.917402
H377	H	1.165048	-0.127182	-0.584068
H378	H	1.498382	0.206151	-0.250735
C379	C	0.807868	-0.943681	-0.431603
C380	C	1.141201	-0.610348	-0.098269
C381	C	1.474535	-0.277015	0.235064
H382	H	0.781788	-0.977242	-0.459718
H383	H	1.115121	-0.643908	-0.126385
H384	H	1.448454	-0.310575	0.206948
H385	H	0.831728	-0.916143	-0.461196
H386	H	1.165061	-0.582809	-0.127863
H387	H	1.498394	-0.249476	0.205470
H388	H	0.782646	-0.913931	-0.403432
H389	H	1.115979	-0.580598	-0.070099
H390	H	1.449312	-0.247265	0.263234
H391	H	0.635548	-0.438250	-0.438420
H392	H	0.968881	-0.104917	-0.105087
H393	H	1.302214	0.228417	0.228247
H394	H	0.516840	-0.438219	-0.438471
H395	H	0.850174	-0.104886	-0.105138
H396	H	1.183507	0.228447	0.228195
C397	C	0.443873	-0.370234	-0.487398
C398	C	0.777206	-0.036901	-0.154065
C399	C	1.110539	0.296433	0.179269
H400	H	0.487889	-0.369075	-0.478251
H401	H	0.821223	-0.035741	-0.144917
H402	H	1.154556	0.297592	0.188416
H403	H	0.433529	-0.333118	-0.515590
H404	H	0.766862	0.000215	-0.182256
H405	H	1.100195	0.333549	0.151077
H406	H	0.430700	-0.414087	-0.511586
H407	H	0.764033	-0.080754	-0.178253
H408	H	1.097367	0.252580	0.155080
C409	C	0.240305	-0.451575	-0.451956
C410	C	0.573638	-0.118241	-0.118623
C411	C	0.906972	0.215092	0.214711
H412	H	0.284441	-0.444865	-0.445231
H413	H	0.617775	-0.111531	-0.111897
H414	H	0.951108	0.221802	0.221436
H415	H	0.228251	-0.443218	-0.498930
H416	H	0.561584	-0.109885	-0.165597
H417	H	0.894918	0.223448	0.167736
H418	H	0.228157	-0.498511	-0.443458
H419	H	0.561490	-0.165177	-0.110124
H420	H	0.894824	0.168156	0.223209
C421	C	0.116978	-0.254342	-0.255398
C422	C	0.450312	0.078992	0.077936
C423	C	0.783645	0.412325	0.411269
H424	H	0.147832	-0.226381	-0.227511
H425	H	0.481166	0.106952	0.105822
H426	H	0.814499	0.440286	0.439156
H427	H	0.091543	-0.280024	-0.225724
H428	H	0.424877	0.053309	0.107609
H429	H	0.758210	0.386643	0.440942
H430	H	0.091640	-0.224739	-0.281204
H431	H	0.424974	0.108595	0.052129
H432	H	0.758307	0.441928	0.385463
C433	C	0.254381	-0.254380	-0.255341
C434	C	0.587715	0.078954	0.077992
C435	C	0.921048	0.412287	0.411325
H436	H	0.227521	-0.226416	-0.227468
H437	H	0.560854	0.106918	0.105866
H438	H	0.894188	0.440251	0.439199
H439	H	0.280095	-0.224789	-0.281118
H440	H	0.613428	0.108544	0.052215
H441	H	0.946762	0.441878	0.385549
H442	H	0.279998	-0.280083	-0.225647
H443	H	0.613331	0.053250	0.107686
H444	H	0.946665	0.386584	0.441020
