data_functionalizedCrystal
_audit_creation_method	'MofGen! by Chris Wilmer'
_symmetry_space_group_name_H-M	'P1'
_symmetry_Int_Tables_number	1
_symmetry_cell_setting	triclinic
loop_
_symmetry_equiv_pos_as_xyz
  x,y,z
_cell_length_a	13.330367
_cell_length_b	16.992694
_cell_length_c	16.992695
_cell_angle_alpha	90.668223
_cell_angle_beta	89.995303
_cell_angle_gamma	89.998112
loop_
_atom_site_label
_atom_site_type_symbol
_atom_site_fract_x
_atom_site_fract_y
_atom_site_fract_z
O1	O	0.083299	-1.050854	-0.166916
O2	O	0.583299	-0.550854	0.333084
O3	O	0.083328	-0.822454	-0.165085
O4	O	0.583328	-0.322454	0.334915
O5	O	0.083306	-0.935738	-0.051801
O6	O	0.583306	-0.435738	0.448199
O7	O	0.083321	-0.937570	-0.280201
O8	O	0.583321	-0.437570	0.219799
O9	O	-0.083541	-0.935721	-0.051797
O10	O	0.416459	-0.435721	0.448203
O11	O	-0.083519	-0.822436	-0.165081
O12	O	0.416481	-0.322436	0.334919
O13	O	-0.083548	-1.050836	-0.166913
O14	O	0.416452	-0.550836	0.333087
Cu15	Cu	-0.098768	-0.936635	-0.165997
Cu16	Cu	0.401232	-0.436635	0.334003
Cu17	Cu	0.098548	-0.936656	-0.166001
Cu18	Cu	0.598548	-0.436656	0.333999
O19	O	-0.083526	-0.937552	-0.280197
O20	O	0.416474	-0.437552	0.219803
C21	C	-0.000092	-0.793085	-0.162727
C22	C	0.499908	-0.293085	0.337273
C23	C	-0.000081	-0.705600	-0.155699
C24	C	0.499919	-0.205600	0.344301
C25	C	-0.000118	-0.933374	-0.022439
C26	C	0.499882	-0.433374	0.477561
C27	C	-0.000116	-0.926345	0.065046
C28	C	0.499884	-0.426345	0.565046
N29	N	-0.237550	-0.936626	-0.165993
N30	N	0.262450	-0.436626	0.334007
C31	C	-0.710163	-0.886490	-0.216142
C32	C	-0.210163	-0.386490	0.283858
C33	C	-0.710151	-0.986842	-0.115855
C34	C	-0.210151	-0.486842	0.384145
C35	C	-0.605132	-0.986833	-0.115852
C36	C	-0.105132	-0.486833	0.384148
C37	C	-0.552624	-0.936653	-0.165996
C38	C	-0.052624	-0.436653	0.334004
C39	C	-0.605134	-0.886481	-0.216142
C40	C	-0.105134	-0.386481	0.283858
C41	C	-0.552614	-1.037010	-0.065712
C42	C	-0.052614	-0.537010	0.434288
C43	C	-0.447589	-1.037004	-0.065708
C44	C	0.052411	-0.537004	0.434292
C45	C	-0.395079	-0.986818	-0.115848
C46	C	0.104921	-0.486818	0.384152
C47	C	-0.447596	-0.936644	-0.165996
C48	C	0.052404	-0.436644	0.334004
C49	C	-0.395088	-0.886463	-0.216140
C50	C	0.104912	-0.386463	0.283860
C51	C	-0.447603	-0.836284	-0.266284
C52	C	0.052397	-0.336284	0.233716
C53	C	-0.552624	-0.836295	-0.266283
C54	C	-0.052624	-0.336295	0.233717
C55	C	-0.290058	-0.986807	-0.115850
C56	C	0.209942	-0.486807	0.384150
C57	C	-0.290060	-0.886454	-0.216140
C58	C	0.209940	-0.386454	0.283860
N59	N	0.237329	-0.936671	-0.165998
N60	N	0.737329	-0.436671	0.334002
C61	C	-0.000126	-1.080205	-0.169270
C62	C	0.499874	-0.580205	0.330730
C63	C	-0.000131	-1.167690	-0.176299
C64	C	0.499869	-0.667690	0.323701
C65	C	-0.000077	-0.659610	-0.223517
C66	C	0.499923	-0.159610	0.276483
C67	C	-0.000091	-0.577409	-0.216908
C68	C	0.499909	-0.077409	0.283092
C69	C	-0.000102	-0.541201	-0.142480
C70	C	0.499898	-0.041201	0.357520
C71	C	-0.000109	-0.587198	-0.074657
C72	C	0.499891	-0.087198	0.425343
C73	C	-0.000102	-0.669397	-0.081267
C74	C	0.499898	-0.169397	0.418733
C75	C	-0.000131	-0.295886	-0.115086
C76	C	0.499869	0.204114	0.384914
C77	C	-0.000135	-0.213681	-0.108481
C78	C	0.499865	0.286319	0.391519
C79	C	-0.000119	-0.203898	-0.250732
C80	C	0.499881	0.296102	0.249268
C81	C	-0.000106	-0.286099	-0.257336
C82	C	0.499894	0.213901	0.242664
C83	C	-0.000118	-0.332089	-0.189512
C84	C	0.499882	0.167911	0.310488
N85	N	-0.000113	-0.457178	-0.135723
N86	N	0.499887	0.042822	0.364277
N87	N	-0.000113	-0.416110	-0.196270
N88	N	0.499887	0.083890	0.303730
C89	C	-0.000100	-0.939917	-0.309559
C90	C	0.499900	-0.439917	0.190441
C91	C	-0.000095	-0.946945	-0.397044
C92	C	0.499905	-0.446945	0.102956
C93	C	-0.000126	-0.994163	0.111037
C94	C	0.499874	-0.494163	0.611037
C95	C	-0.000116	-0.987554	0.193238
C96	C	0.499884	-0.487554	0.693238
C97	C	-0.000103	-0.913127	0.229446
C98	C	0.499897	-0.413127	0.729446
C99	C	-0.000090	-0.845303	0.183449
C100	C	0.499910	-0.345303	0.683449
C101	C	-0.000093	-0.851913	0.101250
C102	C	0.499907	-0.351913	0.601250
C103	C	-0.000085	-0.885732	0.474760
C104	C	0.499915	-0.385732	0.974760
C105	C	-0.000085	-0.879127	0.556966
C106	C	0.499915	-0.379127	1.056966
C107	C	-0.000109	-1.021379	0.566749
C108	C	0.499891	-0.521379	1.066749
C109	C	-0.000118	-1.027982	0.484547
C110	C	0.499882	-0.527982	0.984547
C111	C	-0.000100	-0.960159	0.438558
C112	C	0.499900	-0.460159	0.938558
N113	N	-0.000095	-0.906369	0.313468
N114	N	0.499905	-0.406369	0.813468
N115	N	-0.000101	-0.966917	0.354537
N116	N	0.499899	-0.466917	0.854537
H117	H	-0.247314	-0.845587	-0.256970
H118	H	0.252686	-0.345587	0.243030
H119	H	-0.404838	-1.077861	-0.024877
H120	H	0.095162	-0.577861	0.475123
Br121	Br	-0.000134	-1.113419	0.629167
Br122	Br	0.499866	-0.613419	1.129167
Br123	Br	-0.000051	-0.708741	-0.324531
Br124	Br	0.499949	-0.208741	0.175469
Br125	Br	-0.376331	-0.768191	-0.334342
Br126	Br	0.123669	-0.268191	0.165658
Br127	Br	-0.218794	-1.054909	-0.047809
Br128	Br	0.281206	-0.554909	0.452191
H129	H	-0.000087	-0.539966	-0.272133
H130	H	0.499913	-0.039966	0.227867
H131	H	-0.000129	-1.088589	0.455073
H132	H	0.499871	-0.588589	0.955073
H133	H	-0.000073	-0.784703	0.212936
H134	H	0.499927	-0.284703	0.712936
H135	H	-0.000126	-1.042779	0.230680
H136	H	0.499874	-0.542779	0.730680
Br137	Br	-0.000078	-0.778112	0.606105
Br138	Br	0.499922	-0.278112	1.106105
H139	H	-0.000085	-0.315574	-0.317942
H140	H	0.499915	0.184426	0.182058
Br141	Br	-0.781425	-0.818387	-0.284188
Br142	Br	-0.281425	-0.318387	0.215812
Br143	Br	-0.000054	-0.793685	0.412356
Br144	Br	0.499946	-0.293685	0.912356
H145	H	-0.752906	-1.027702	-0.075033
H146	H	-0.252906	-0.527702	0.424967
H147	H	-0.595389	-0.795442	-0.307109
H148	H	-0.095389	-0.295442	0.192891
Br149	Br	-0.623871	-1.105118	0.002331
Br150	Br	-0.123871	-0.605118	0.502331
H151	H	-0.000111	-0.166444	-0.305950
H152	H	0.499889	0.333556	0.194050
Br153	Br	-0.000072	-0.759871	0.038832
Br154	Br	0.499928	-0.259871	0.538832
Br155	Br	-0.000171	-0.164541	-0.007465
Br156	Br	0.499829	0.335459	0.492535
H157	H	-0.000141	-0.333322	-0.059859
H158	H	0.499859	0.166678	0.440141
H159	H	-0.000132	-0.557710	-0.014056
H160	H	0.499868	-0.057710	0.485944
H161	H	-0.000104	-0.706842	-0.026042
H162	H	0.499896	-0.206842	0.473958
H163	H	-0.000143	-1.054770	0.081563
H164	H	0.499857	-0.554770	0.581563
