data_functionalizedCrystal
_audit_creation_method	'MofGen! by Chris Wilmer'
_symmetry_space_group_name_H-M	'P1'
_symmetry_Int_Tables_number	1
_symmetry_cell_setting	triclinic
loop_
_symmetry_equiv_pos_as_xyz
  x,y,z
_cell_length_a	18.215407
_cell_length_b	12.827892
_cell_length_c	18.215399
_cell_angle_alpha	90.023838
_cell_angle_beta	90.019833
_cell_angle_gamma	90.015840
loop_
_atom_site_label
_atom_site_type_symbol
_atom_site_fract_x
_atom_site_fract_y
_atom_site_fract_z
Zn1	Zn	1.125121	-0.416031	0.416137
Zn2	Zn	1.625121	0.083969	0.916137
Zn3	Zn	1.125049	-0.590790	0.293079
Zn4	Zn	1.625049	-0.090790	0.793079
Zn5	Zn	1.002053	-0.416065	0.293084
Zn6	Zn	1.502053	0.083935	0.793084
Zn7	Zn	1.002039	-0.590732	0.416104
Zn8	Zn	1.502039	-0.090732	0.916104
O9	O	1.063566	-0.503405	0.354601
O10	O	1.563566	-0.003405	0.854601
O11	O	1.228095	-0.439223	0.399825
O12	O	1.728095	0.060777	0.899825
O13	O	1.108710	-0.567651	0.190096
O14	O	1.608710	-0.067651	0.690096
O15	O	1.018414	-0.269825	0.309423
O16	O	1.518414	0.230175	0.809423
O17	O	1.228043	-0.567618	0.309415
O18	O	1.728043	-0.067618	0.809415
O19	O	1.108831	-0.269800	0.399829
O20	O	1.608831	0.230200	0.899829
O21	O	1.018345	-0.439282	0.190099
O22	O	1.518345	0.060718	0.690099
O23	O	0.899067	-0.439225	0.309392
O24	O	1.399067	0.060775	0.809392
O25	O	1.018390	-0.567519	0.519093
O26	O	1.518390	-0.067519	1.019093
O27	O	0.899057	-0.567552	0.399774
O28	O	1.399057	-0.067552	0.899774
O29	O	1.108818	-0.439167	0.519117
O30	O	1.608818	0.060833	1.019117
O31	O	1.108696	-0.737019	0.309383
O32	O	1.608696	-0.237019	0.809383
O33	O	1.018321	-0.736976	0.399769
O34	O	1.518321	-0.236976	0.899769
C35	C	0.872359	-0.503387	0.354580
C36	C	1.372359	-0.003387	0.854580
C37	C	0.790560	-0.503405	0.354589
C38	C	1.290560	-0.003405	0.854589
C39	C	0.602380	-0.570329	0.401592
C40	C	1.102380	-0.070329	0.901592
C41	C	0.525522	-0.570333	0.401601
C42	C	1.025522	-0.070333	0.901601
C43	C	0.525503	-0.436499	0.307627
C44	C	1.025503	0.063501	0.807627
C45	C	0.602360	-0.436491	0.307622
C46	C	1.102360	0.063509	0.807622
C47	C	0.640797	-0.503413	0.354603
C48	C	1.140797	-0.003413	0.854603
C49	C	0.487081	-0.503424	0.354617
C50	C	0.987081	-0.003424	0.854617
C51	C	0.403747	-0.503427	0.354627
C52	C	0.903747	-0.003427	0.854627
C53	C	0.724136	-0.503408	0.354595
C54	C	1.224136	-0.003408	0.854595
C55	C	1.063520	-0.774915	0.354588
C56	C	1.563520	-0.274915	0.854588
C57	C	1.063567	-0.891068	0.354607
C58	C	1.563567	-0.391068	0.854607
C59	C	1.108341	-0.942839	0.309931
C60	C	1.608341	-0.442839	0.809931
C61	C	1.108391	-1.062889	0.309950
C62	C	1.608391	-0.562889	0.809950
C63	C	1.255518	-0.503424	0.354623
C64	C	1.755518	-0.003424	0.854623
C65	C	1.337317	-0.503432	0.354632
C66	C	1.837317	-0.003432	0.854632
C67	C	1.063610	-0.503333	0.546554
C68	C	1.563610	-0.003333	1.046554
C69	C	1.063629	-0.503302	0.628353
C70	C	1.563629	-0.003302	1.128353
C71	C	1.063632	-0.230835	0.354630
C72	C	1.563632	0.269165	0.854630
C73	C	1.063660	-0.114682	0.354643
C74	C	1.563660	0.385318	0.854643
C75	C	1.063563	-0.503401	0.163395
C76	C	1.563563	-0.003401	0.663395
C77	C	1.063687	-0.503138	0.081597
C78	C	1.563687	-0.003138	0.581597
C79	C	1.110732	-0.436407	0.816561
C80	C	1.610732	0.063593	1.316561
C81	C	1.110741	-0.436376	0.893420
C82	C	1.610741	0.063624	1.393420
C83	C	1.016579	-0.570036	0.893383
C84	C	1.516579	-0.070036	1.393383
C85	C	1.016567	-0.570060	0.816526
C86	C	1.516567	-0.070060	1.316526
C87	C	1.063648	-0.503247	0.778117
C88	C	1.563648	-0.003247	1.278117
C89	C	1.063668	-0.503192	0.931833
C90	C	1.563668	-0.003192	1.431833
C91	C	1.063678	-0.503160	1.015167
C92	C	1.563678	-0.003160	1.515167
C93	C	1.063638	-0.503278	0.694778
C94	C	1.563638	-0.003278	1.194778
H95	H	0.494198	-0.382016	0.269375
H96	H	0.994198	0.117984	0.769375
O97	O	0.639763	-0.371631	0.261937
O98	O	1.139763	0.128369	0.761937
C99	C	0.684180	-0.431041	0.214322
C100	C	1.184180	0.068959	0.714322
H101	H	0.695690	-0.510281	0.240184
H102	H	1.195690	-0.010281	0.740184
H103	H	0.738230	-0.388454	0.204509
H104	H	1.238230	0.111546	0.704509
H105	H	0.654539	-0.442427	0.159771
H106	H	1.154539	0.057573	0.659771
H107	H	1.025323	-1.070167	0.392891
H108	H	1.525323	-0.570167	0.892891
O109	O	0.970957	-0.635051	0.930730
O110	O	1.470957	-0.135051	1.430730
C111	C	1.012849	-0.702517	0.975199
C112	C	1.512849	-0.202517	1.475199
H113	H	1.070805	-0.708982	0.952046
H114	H	1.570805	-0.208982	1.452046
H115	H	0.986214	-0.782937	0.976055
H116	H	1.486214	-0.282937	1.476055
H117	H	1.015401	-0.670188	1.033452
H118	H	1.515401	-0.170188	1.533452
O119	O	0.970805	-0.635094	0.779290
O120	O	1.470805	-0.135094	1.279290
C121	C	0.929245	-0.694048	0.829670
C122	C	1.429245	-0.194048	1.329670
H123	H	0.959394	-0.697655	0.884463
H124	H	1.459394	-0.197655	1.384463
H125	H	0.921374	-0.776389	0.807448
H126	H	1.421374	-0.276389	1.307448
H127	H	0.873361	-0.655775	0.837838
H128	H	1.373361	-0.155775	1.337838
H129	H	1.149066	-0.382000	0.785290
H130	H	1.649066	0.118000	1.285290
O131	O	1.156549	-0.371416	0.930650
O132	O	1.656549	0.128584	1.430650
C133	C	1.198084	-0.312435	0.880265
C134	C	1.698084	0.187565	1.380265
H135	H	1.200614	-0.355260	0.825474
H136	H	1.700614	0.144740	1.325474
H137	H	1.256073	-0.301284	0.902484
H138	H	1.756073	0.198716	1.402484
H139	H	1.171152	-0.233069	0.872093
H140	H	1.671152	0.266931	1.372093
H141	H	0.494246	-0.624822	0.439864
H142	H	0.994246	-0.124822	0.939864
H143	H	1.146639	-0.898288	0.271671
H144	H	1.646639	-0.398288	0.771671
O145	O	0.639800	-0.635181	0.447269
O146	O	1.139800	-0.135181	0.947269
C147	C	0.684271	-0.575760	0.494879
C148	C	1.184271	-0.075760	0.994879
H149	H	0.695787	-0.496521	0.469012
H150	H	1.195787	0.003479	0.969012
H151	H	0.738315	-0.618338	0.504691
H152	H	1.238315	-0.118338	1.004691
H153	H	0.654674	-0.564373	0.549430
H154	H	1.154674	-0.064373	1.049430
H155	H	1.025275	-0.935621	0.392873
H156	H	1.525275	-0.435621	0.892873
O157	O	1.154122	-1.116156	0.264408
O158	O	1.654122	-0.616156	0.764408
C159	C	1.143999	-1.224161	0.274573
C160	C	1.643999	-0.724161	0.774573
H161	H	1.119830	-1.238932	0.331345
H162	H	1.619830	-0.738932	0.831345
H163	H	1.199127	-1.265637	0.269704
H164	H	1.699127	-0.765637	0.769704
H165	H	1.104858	-1.255251	0.230891
H166	H	1.604858	-0.755251	0.730891
