data_functionalizedCrystal
_audit_creation_method	'MofGen! by Chris Wilmer'
_symmetry_space_group_name_H-M	'P1'
_symmetry_Int_Tables_number	1
_symmetry_cell_setting	triclinic
loop_
_symmetry_equiv_pos_as_xyz
  x,y,z
_cell_length_a	16.974800
_cell_length_b	10.540539
_cell_length_c	16.053802
_cell_angle_alpha	92.593658
_cell_angle_beta	91.074188
_cell_angle_gamma	83.956435
loop_
_atom_site_label
_atom_site_type_symbol
_atom_site_fract_x
_atom_site_fract_y
_atom_site_fract_z
O1	O	1.049988	0.161812	0.001547
O2	O	0.820636	0.181243	-0.013957
O3	O	0.940544	-0.013238	-0.005850
O4	O	0.930079	0.356293	-0.006560
O5	O	0.933944	-0.002577	0.132562
O6	O	0.814035	0.191904	0.124456
O7	O	1.043388	0.172472	0.139959
Zn8	Zn	0.927663	0.183881	0.154183
Zn9	Zn	0.936360	0.169835	-0.028181
O10	O	0.923479	0.366953	0.131853
C11	C	0.787967	0.185639	0.053264
C12	C	0.700459	0.182840	0.047348
C13	C	0.655754	0.187333	0.120020
C14	C	0.573532	0.184683	0.114464
C15	C	0.536016	0.177549	0.036236
C16	C	0.580727	0.173052	-0.036441
C17	C	0.662948	0.175693	-0.030884
C18	C	0.290497	0.169019	0.011526
C19	C	0.208270	0.166382	0.005975
C20	C	0.201081	0.178011	0.156881
C21	C	0.283303	0.180659	0.162431
C22	C	0.328008	0.176155	0.089754
N23	N	0.451971	0.174844	0.030555
N24	N	0.412051	0.178851	0.095436
C25	C	0.936459	-0.055202	0.063301
C26	C	0.934112	-0.196124	0.063138
C27	C	0.844154	-0.378564	0.056745
C28	C	0.846519	-0.231949	0.057218
C29	C	0.972496	-0.252167	0.145028
C30	C	0.969503	-0.398673	0.144893
C31	C	0.978791	-0.411334	-0.012388
C32	C	0.979647	-0.264442	-0.013379
C33	C	1.076056	0.168076	0.072737
C34	C	1.163565	0.170875	0.078647
C35	C	0.927564	0.408917	0.062699
C36	C	0.929912	0.549839	0.062857
N37	N	0.921734	0.193466	0.278643
N38	N	0.942295	0.160240	-0.152640
C39	C	0.972774	0.110743	0.325788
C40	C	0.968634	0.117460	0.412914
C41	C	0.913457	0.206907	0.452895
C42	C	0.862412	0.289633	0.405744
C43	C	0.866548	0.282909	0.318619
C44	C	0.895386	0.236242	0.713083
C45	C	0.891255	0.242962	0.800215
C46	C	0.997477	0.070787	0.807379
C47	C	1.001612	0.064076	0.720252
C48	C	0.950564	0.146798	0.673108
N49	N	0.909226	0.213777	0.541953
N50	N	0.954792	0.139920	0.584052
H51	H	0.164674	0.181675	0.216050
C52	C	0.180830	0.264680	-0.124923
C53	C	0.167026	0.158544	-0.080018
H54	H	0.155370	0.259840	-0.178009
H55	H	0.160287	0.340579	-0.095208
H56	H	0.236198	0.265586	-0.132016
H57	H	0.111658	0.157643	-0.072919
H58	H	0.187567	0.082624	-0.109740
H59	H	1.017709	0.037912	0.293241
C60	C	0.457880	0.163853	-0.111965
C61	C	0.539490	0.165213	-0.122432
H62	H	0.432425	0.159025	-0.165055
H63	H	0.448527	0.091856	-0.081502
H64	H	0.437340	0.239771	-0.082251
H65	H	0.560032	0.089291	-0.152141
H66	H	0.548848	0.237217	-0.152908
C67	C	0.768457	-0.301872	0.177008
C68	C	0.793995	-0.412943	0.129687
H69	H	0.737488	-0.323100	0.222035
H70	H	0.813165	-0.263124	0.198267
H71	H	0.737388	-0.244075	0.142814
H72	H	0.825070	-0.470737	0.163879
H73	H	0.749281	-0.451710	0.108427
C74	C	0.851617	0.453728	0.683226
C75	C	0.839281	0.327185	0.661274
H76	H	0.816981	0.509876	0.651236
H77	H	0.841261	0.470515	0.740831
H78	H	0.904973	0.466618	0.672484
H79	H	0.785926	0.314293	0.672022
H80	H	0.849631	0.310392	0.603656
C81	C	0.379845	0.081339	0.256781
C82	C	0.324538	0.188487	0.248423
H83	H	0.405302	0.086180	0.309869
H84	H	0.353513	0.006127	0.251856
H85	H	0.418235	0.079059	0.214293
H86	H	0.286143	0.190763	0.290908
H87	H	0.350870	0.263720	0.253357
C88	C	0.661798	0.163958	-0.180605
C89	C	0.712090	0.170768	-0.110767
H90	H	0.692137	0.160924	-0.229922
H91	H	0.635180	0.089217	-0.179258
H92	H	0.623979	0.237131	-0.180004
H93	H	0.749906	0.097590	-0.111365
H94	H	0.738721	0.245518	-0.112115
C95	C	1.074065	-0.053365	0.411246
C96	C	1.024752	0.026548	0.464737
H97	H	1.108716	-0.109483	0.443241
H98	H	1.042624	-0.101804	0.375047
H99	H	1.104311	-0.003000	0.379183
H100	H	0.994502	-0.023816	0.496796
H101	H	1.056198	0.074992	0.500950
C102	C	0.778378	-0.280671	-0.070780
C103	C	0.805380	-0.179811	-0.022289
H104	H	0.752972	-0.248484	-0.119862
H105	H	0.822025	-0.340827	-0.085673
H106	H	0.741811	-0.321092	-0.039694
H107	H	0.841951	-0.139396	-0.053374
H108	H	0.761727	-0.119633	-0.007397
C109	C	0.899105	-0.317094	0.267570
C110	C	0.923635	-0.430134	0.221803
H111	H	0.870782	-0.336515	0.315048
H112	H	0.944160	-0.276022	0.285100
H113	H	0.865725	-0.262092	0.233601
H114	H	0.957019	-0.485133	0.255770
H115	H	0.878574	-0.471226	0.204274
C116	C	1.107585	-0.371144	0.161947
C117	C	1.054309	-0.464019	0.155497
H118	H	1.159937	-0.411485	0.168502
H119	H	1.104227	-0.323786	0.112829
H120	H	1.094727	-0.315188	0.208895
H121	H	1.067163	-0.519971	0.108545
H122	H	1.057669	-0.511399	0.204620
H123	H	0.817481	0.362458	0.438301
H124	H	0.953298	-0.447183	-0.074212
H125	H	0.812256	-0.411141	-0.002275
H126	H	1.039038	0.003438	0.845771
H127	H	1.036681	-0.230309	0.152315
C128	C	0.998265	-0.159430	-0.140093
C129	C	0.941838	-0.214787	-0.095130
H130	H	0.974922	-0.128775	-0.190563
H131	H	1.016511	-0.090428	-0.107723
H132	H	1.041624	-0.221555	-0.152498
H133	H	0.898481	-0.152659	-0.082719
H134	H	0.923581	-0.283797	-0.127506
C135	C	0.870453	0.423222	0.897085
C136	C	0.830595	0.341288	0.844158
H137	H	0.833005	0.483926	0.924208
H138	H	0.900254	0.374924	0.937630
H139	H	0.905123	0.466400	0.865308
H140	H	0.795929	0.298104	0.875937
H141	H	0.800781	0.389593	0.803608
C142	C	0.640382	0.198544	0.268624
C143	C	0.696988	0.195169	0.206012
H144	H	0.665840	0.203369	0.321712
H145	H	0.602869	0.271226	0.262942
H146	H	0.614058	0.123311	0.263686
H147	H	0.723309	0.270407	0.210946
H148	H	0.734516	0.122480	0.211696
H149	H	1.043736	-0.241305	-0.013835
C150	C	1.106185	-0.105449	0.736088
C151	C	1.062261	-0.034254	0.676308
H152	H	1.143624	-0.166157	0.708956
H153	H	1.133217	-0.049867	0.771993
H154	H	1.071501	-0.148626	0.767849
H155	H	1.096944	0.008931	0.644551
H156	H	1.035227	-0.089843	0.640389
H157	H	0.824985	0.350269	0.280234
H158	H	0.537138	0.188321	0.173641
C159	C	1.063170	-0.608889	-0.010422
C160	C	1.064233	-0.476106	-0.007345
H161	H	1.115916	-0.648877	-0.007310
H162	H	1.033932	-0.632695	0.035199
H163	H	1.038951	-0.635145	-0.061251
H164	H	1.088446	-0.449849	0.043487
H165	H	1.093482	-0.452289	-0.052969
H166	H	0.326886	0.165347	-0.047652
H167	H	0.810412	-0.185446	0.111714
H168	H	0.940409	-0.204708	0.201868
