data_functionalizedCrystal
_audit_creation_method	'MofGen! by Chris Wilmer'
_symmetry_space_group_name_H-M	'P1'
_symmetry_Int_Tables_number	1
_symmetry_cell_setting	triclinic
loop_
_symmetry_equiv_pos_as_xyz
  x,y,z
_cell_length_a	12.759400
_cell_length_b	12.645331
_cell_length_c	12.759393
_cell_angle_alpha	89.979239
_cell_angle_beta	89.968231
_cell_angle_gamma	90.013663
loop_
_atom_site_label
_atom_site_type_symbol
_atom_site_fract_x
_atom_site_fract_y
_atom_site_fract_z
Zn1	Zn	-0.418231	1.620733	-0.594076
Zn2	Zn	-0.593950	1.620630	-0.418396
Zn3	Zn	-0.418283	1.443454	-0.418405
Zn4	Zn	-0.593865	1.443439	-0.594027
O5	O	-0.506082	1.532064	-0.506226
O6	O	-0.441554	1.769067	-0.570789
O7	O	-0.570705	1.597091	-0.271376
O8	O	-0.271255	1.467020	-0.441732
O9	O	-0.570655	1.768991	-0.441717
O10	O	-0.271217	1.597266	-0.570797
O11	O	-0.441643	1.466920	-0.271383
O12	O	-0.441560	1.295105	-0.441685
O13	O	-0.570509	1.466994	-0.741055
O14	O	-0.570560	1.295094	-0.570714
O15	O	-0.441472	1.597252	-0.741091
O16	O	-0.740960	1.597076	-0.441670
O17	O	-0.740897	1.466894	-0.570705
C18	C	-0.506057	1.256634	-0.506196
C19	C	-0.506072	1.138804	-0.506208
C20	C	-0.779050	1.532001	-0.506204
C21	C	-0.895826	1.532071	-0.506230
C22	C	-0.950686	1.599932	-0.439116
C23	C	-1.060410	1.599997	-0.439148
C24	C	-1.060405	1.464332	-0.573412
C25	C	-0.950683	1.464273	-0.573384
C26	C	-0.895829	1.667731	-0.371961
C27	C	-0.950689	1.735596	-0.304841
C28	C	-1.060413	1.735661	-0.304873
C29	C	-1.115277	1.667861	-0.372026
C30	C	-0.424545	0.971212	-0.425484
C31	C	-0.424756	1.093772	-0.425128
C32	C	-0.616750	1.094291	-0.475963
C33	C	-0.616305	0.971692	-0.475412
C34	C	-0.477974	0.971650	-0.617489
C35	C	-0.475501	1.094255	-0.616871
C36	C	-0.232049	1.532156	-0.506271
C37	C	-0.115272	1.532195	-0.506290
C38	C	-0.505975	1.532133	-0.780260
C39	C	-0.505930	1.532162	-0.897036
C40	C	-0.506108	1.808569	-0.506257
C41	C	-0.506119	1.926399	-0.506271
C42	C	-0.438715	1.464411	-0.951908
C43	C	-0.438683	1.464443	-1.061632
C44	C	-0.573085	1.599987	-1.061604
C45	C	-0.573121	1.599949	-0.951881
C46	C	-0.371523	1.396625	-0.897063
C47	C	-0.304302	1.328869	-0.951935
C48	C	-0.304271	1.328901	-1.061659
C49	C	-0.371461	1.396689	-1.116511
C50	C	-0.506113	1.532057	-0.233259
C51	C	-0.505863	1.532233	-0.116483
H52	H	-0.806487	1.667682	-0.371924
N53	N	-0.891522	1.808731	-0.232425
H54	H	-0.813689	1.798395	-0.242586
H55	H	-0.910778	1.792287	-0.157381
H56	H	-0.679154	1.123462	-0.532957
H57	H	-0.342684	1.123867	-0.444085
H58	H	-0.627786	1.655179	-1.106273
N59	N	-0.648922	1.134882	-0.369418
H60	H	-0.652011	1.214679	-0.370885
H61	H	-0.596044	1.111294	-0.315382
N62	N	-0.315503	0.932167	-0.450309
H63	H	-0.264381	0.961839	-0.397543
H64	H	-0.294994	0.956130	-0.522999
N65	N	-0.231839	1.255765	-0.892769
H66	H	-0.156770	1.272264	-0.911887
H67	H	-0.248227	1.180047	-0.911872
H68	H	-0.371539	1.396593	-0.807720
N69	N	-0.231783	1.255817	-1.120845
H70	H	-0.189228	1.212871	-1.069448
H71	H	-0.183155	1.299000	-1.166385
N72	N	-1.119591	1.808848	-0.232482
H73	H	-1.165040	1.857981	-0.275231
H74	H	-1.068124	1.851716	-0.189951
H75	H	-0.627839	1.655132	-0.907204
H76	H	-0.442942	0.940368	-0.343551
H77	H	-0.640172	0.943051	-0.394106
N78	N	-1.233623	1.667939	-0.372074
H79	H	-1.260054	1.721221	-0.319371
H80	H	-1.260047	1.595208	-0.352737
H81	H	-0.443359	1.123053	-0.342711
N82	N	-1.119574	1.391205	-0.645834
H83	H	-1.197407	1.401538	-0.635665
H84	H	-1.100465	1.315494	-0.629407
H85	H	-0.906016	1.409015	-0.628036
H86	H	-0.679142	0.942049	-0.531688
N87	N	-0.371430	1.396715	-1.234857
H88	H	-0.352120	1.469450	-1.261300
H89	H	-0.443509	1.377165	-1.261178
N90	N	-0.372939	0.930718	-0.653934
H91	H	-0.342534	0.882419	-0.598711
H92	H	-0.323881	0.992219	-0.666027
N93	N	-0.367613	1.132794	-0.647074
H94	H	-0.367308	1.212626	-0.649570
H95	H	-0.348439	1.103817	-0.718298
N96	N	-0.548459	1.134855	-0.700874
H97	H	-0.602606	1.182913	-0.668240
H98	H	-0.584659	1.073186	-0.735769
N99	N	-0.556671	0.933274	-0.697227
H100	H	-0.610299	0.886804	-0.661542
H101	H	-0.519342	0.891403	-0.753351
