data_functionalizedCrystal
_audit_creation_method	'MofGen! by Chris Wilmer'
_symmetry_space_group_name_H-M	'P1'
_symmetry_Int_Tables_number	1
_symmetry_cell_setting	triclinic
loop_
_symmetry_equiv_pos_as_xyz
  x,y,z
_cell_length_a	19.077105
_cell_length_b	19.077366
_cell_length_c	19.076919
_cell_angle_alpha	90.104828
_cell_angle_beta	90.076224
_cell_angle_gamma	90.094081
loop_
_atom_site_label
_atom_site_type_symbol
_atom_site_fract_x
_atom_site_fract_y
_atom_site_fract_z
Zn1	Zn	-1.045327	-0.339410	0.426338
Zn2	Zn	-0.545327	0.160590	0.926338
Zn3	Zn	-1.045665	-0.452213	0.304152
Zn4	Zn	-0.545665	0.047787	0.804152
Zn5	Zn	-0.932903	-0.330011	0.304522
Zn6	Zn	-0.432903	0.169989	0.804522
Zn7	Zn	-0.923503	-0.451790	0.416922
Zn8	Zn	-0.423503	0.048210	0.916922
O9	O	-0.986850	-0.393356	0.362984
O10	O	-0.486850	0.106644	0.862984
O11	O	-1.143547	-0.358484	0.413916
O12	O	-0.643547	0.141516	0.913916
O13	O	-1.034783	-0.432247	0.206026
O14	O	-0.534783	0.067753	0.706026
O15	O	-0.951609	-0.233084	0.324776
O16	O	-0.451609	0.266916	0.824776
O17	O	-1.143795	-0.441360	0.324147
O18	O	-0.643795	0.058640	0.824147
O19	O	-1.034206	-0.239989	0.414274
O20	O	-0.534206	0.260011	0.914274
O21	O	-0.951937	-0.342465	0.206297
O22	O	-0.451937	0.157535	0.706297
O23	O	-0.833481	-0.342055	0.315646
O24	O	-0.333481	0.157945	0.815646
O25	O	-0.935588	-0.440639	0.516347
O26	O	-0.435588	0.059361	1.016347
O27	O	-0.826575	-0.431526	0.398226
O28	O	-0.326575	0.068474	0.898226
O29	O	-1.025091	-0.358073	0.523265
O30	O	-0.525091	0.141927	1.023265
O31	O	-1.025668	-0.550331	0.315016
O32	O	-0.525668	-0.050331	0.815016
O33	O	-0.935916	-0.550020	0.397868
O34	O	-0.435916	-0.050020	0.897868
C35	C	-0.979827	-0.575632	0.355396
C36	C	-0.479827	-0.075632	0.855396
C37	C	-0.976886	-0.653614	0.352176
C38	C	-0.476886	-0.153614	0.852176
C39	C	-0.804572	-0.385725	0.355955
C40	C	-0.304572	0.114275	0.855955
C41	C	-0.726592	-0.382478	0.352964
C42	C	-0.226592	0.117522	0.852964
C43	C	-0.979253	-0.400357	0.545973
C44	C	-0.479253	0.099643	1.045973
C45	C	-0.976016	-0.403341	0.623953
C46	C	-0.476016	0.096659	1.123953
C47	C	-1.169839	-0.401017	0.370041
C48	C	-0.669839	0.098983	0.870041
C49	C	-1.247818	-0.404282	0.373048
C50	C	-0.747818	0.095718	0.873048
C51	C	-0.686380	-0.427600	0.394480
C52	C	-0.186380	0.072400	0.894480
C53	C	-0.613109	-0.424540	0.391674
C54	C	-0.113109	0.075460	0.891674
C55	C	-0.580052	-0.376361	0.347346
C56	C	-0.080052	0.123639	0.847346
C57	C	-0.620270	-0.331234	0.305828
C58	C	-0.120270	0.168766	0.805828
C59	C	-0.693539	-0.334291	0.308639
C60	C	-0.193539	0.165709	0.808639
C61	C	-0.361305	-0.362212	0.334340
C62	C	0.138695	0.137788	0.834340
C63	C	-0.288030	-0.359160	0.331531
C64	C	0.211970	0.140840	0.831531
C65	C	-0.280874	-0.452465	0.417378
C66	C	0.219126	0.047535	0.917378
C67	C	-0.354145	-0.455521	0.420182
C68	C	0.145855	0.044479	0.920182
C69	C	-0.394356	-0.410392	0.378667
C70	C	0.105644	0.089608	0.878667
N71	N	-0.505158	-0.373233	0.344475
N72	N	-0.005158	0.126767	0.844475
N73	N	-0.469249	-0.413517	0.381542
N74	N	0.030751	0.086483	0.881542
C75	C	-0.993919	-0.210370	0.370617
C76	C	-0.493919	0.289630	0.870617
C77	C	-0.996931	-0.132392	0.373870
C78	C	-0.496931	0.367608	0.873870
C79	C	-1.018474	0.306155	0.397240
C80	C	-0.518474	0.806155	0.897240
C81	C	-1.015645	0.232886	0.394176
C82	C	-0.515645	0.732886	0.894176
C83	C	-0.971230	0.199851	0.346043
C84	C	-0.471230	0.699851	0.846043
C85	C	-0.929637	0.240087	0.300977
C86	C	-0.429637	0.740087	0.800977
C87	C	-0.932463	0.313354	0.304046
C88	C	-0.432463	0.813354	0.804046
C89	C	-0.958164	-0.018888	0.331872
C90	C	-0.458164	0.481112	0.831872
C91	C	-0.955342	-0.092160	0.328805
C92	C	-0.455342	0.407840	0.828805
C93	C	-1.041349	-0.099356	0.422005
C94	C	-0.541349	0.400644	0.922005
C95	C	-1.044175	-0.026088	0.425067
C96	C	-0.544175	0.473912	0.925067
C97	C	-1.002579	0.014143	0.380003
C98	C	-0.502579	0.514143	0.880003
N99	N	-0.968339	0.124959	0.342908
N100	N	-0.468339	0.624959	0.842908
N101	N	-1.005467	0.089033	0.383143
N102	N	-0.505467	0.589033	0.883143
C103	C	-0.994459	-0.386333	0.180710
C104	C	-0.494459	0.113667	0.680710
C105	C	-0.997839	-0.383158	0.102744
C106	C	-0.497839	0.116842	0.602744
C107	C	-1.021093	-0.361757	0.664190
C108	C	-0.521093	0.138243	1.164190
C109	C	-1.018043	-0.364557	0.737460
C110	C	-0.518043	0.135443	1.237460
C111	C	-0.969919	-0.408945	0.770491
C112	C	-0.469919	0.091055	1.270491
C113	C	-0.924838	-0.450531	0.730248
C114	C	-0.424838	0.049469	1.230248
C115	C	-0.927885	-0.447726	0.656979
C116	C	-0.427885	0.052274	1.156979
C117	C	-0.955805	-0.421939	0.989233
C118	C	-0.455805	0.078061	1.489233
C119	C	-0.952763	-0.424742	1.062506
C120	C	-0.452763	0.075258	1.562506
C121	C	-1.045967	-0.338767	1.069714
C122	C	-0.545967	0.161233	1.569714
C123	C	-1.049013	-0.335969	0.996444
C124	C	-0.549013	0.164031	1.496444
C125	C	-1.003930	-0.377552	0.956207
C126	C	-0.503930	0.122448	1.456207
N127	N	-0.966801	-0.411810	0.845384
N128	N	-0.466801	0.088190	1.345384
N129	N	-1.007044	-0.374683	0.881315
N130	N	-0.507044	0.125317	1.381315
H131	H	-0.580371	-0.461284	0.425480
H132	H	-0.080371	0.038716	0.925480
H133	H	-0.885652	-0.486670	0.757147
H134	H	-0.385652	0.013330	1.257147
N135	N	-1.058134	0.191781	0.440191
N136	N	-0.558134	0.691781	0.940191
N137	N	-1.055609	0.126365	0.437445
N138	N	-0.555609	0.626365	0.937445
H139	H	-1.085620	0.097333	0.469944
H140	H	-0.585620	0.597333	0.969944
H141	H	-1.088203	-0.299825	0.969555
H142	H	-0.588203	0.200175	1.469555
N143	N	-0.254260	-0.309932	0.286263
N144	N	0.245740	0.190068	0.786263
N145	N	-0.214069	-0.264513	0.311318
N146	N	0.285931	0.235487	0.811318
H147	H	-0.190217	-0.229748	0.279349
H148	H	0.309783	0.270252	0.779349
N149	N	-0.909766	-0.464420	0.948134
N150	N	-0.409766	0.035580	1.448134
N151	N	-0.934417	-0.508593	0.906334
N152	N	-0.434417	-0.008593	1.406334
H153	H	-0.901900	-0.538596	0.877303
H154	H	-0.401900	-0.038596	1.377303
H155	H	-0.381055	-0.494755	0.456276
H156	H	0.118945	0.005245	0.956276
H157	H	-0.394036	-0.325470	0.300530
H158	H	0.105964	0.174530	0.800530
H159	H	-0.898597	0.346110	0.267351
H160	H	-0.398597	0.846110	0.767351
H161	H	-0.891172	-0.481581	0.624219
H162	H	-0.391172	0.018419	1.124219
H163	H	-1.080340	0.000808	0.464260
H164	H	-0.580340	0.500808	0.964260
H165	H	-1.054644	0.333047	0.436432
H166	H	-0.554644	0.833047	0.936432
H167	H	-1.075213	-0.132119	0.458694
H168	H	-0.575213	0.367881	0.958694
H169	H	-0.893471	0.213184	0.261789
H170	H	-0.393471	0.713184	0.761789
H171	H	-0.924296	0.013862	0.295178
H172	H	-0.424296	0.513862	0.795178
H173	H	-0.919171	-0.119055	0.289609
H174	H	-0.419171	0.380945	0.789609
H175	H	-1.060282	-0.325613	0.637302
H176	H	-0.560282	0.174387	1.137302
N177	N	-1.064092	-0.322075	0.778551
N178	N	-0.564092	0.177925	1.278551
N179	N	-1.107060	-0.282450	0.749051
N180	N	-0.607060	0.217550	1.249051
H181	H	-1.139585	-0.252445	0.778071
H182	H	-0.639585	0.247555	1.278071
H183	H	-0.593349	-0.292003	0.269739
H184	H	-0.093349	0.207997	0.769739
N185	N	-1.092012	-0.296299	1.110825
N186	N	-0.592012	0.203701	1.610825
N187	N	-1.089289	-0.298807	1.176242
N188	N	-0.589289	0.201193	1.676242
H189	H	-1.121808	-0.268812	1.205278
H190	H	-0.621808	0.231188	1.705278
N191	N	-0.734619	-0.288191	0.266243
N192	N	-0.234619	0.211809	0.766243
N193	N	-0.728731	-0.223303	0.273390
N194	N	-0.228731	0.276697	0.773390
H195	H	-0.757744	-0.190740	0.243450
H196	H	-0.257744	0.309260	0.743450
N197	N	-0.720132	-0.476825	0.439758
N198	N	-0.220132	0.023175	0.939758
N199	N	-0.684216	-0.517108	0.476822
N200	N	-0.184216	-0.017108	0.976822
H201	H	-0.708051	-0.551874	0.508802
H202	H	-0.208051	-0.051874	1.008802
N203	N	-0.239800	-0.498567	0.459776
N204	N	0.260200	0.001433	0.959776
N205	N	-0.198220	-0.540583	0.431592
N206	N	0.301780	-0.040583	0.931592
H207	H	-0.169211	-0.573144	0.461539
H208	H	0.330789	-0.073144	0.961539
N209	N	-0.903577	-0.470066	1.096237
N210	N	-0.403577	0.029934	1.596237
N211	N	-0.863313	-0.507173	1.060304
N212	N	-0.363313	-0.007173	1.560304
H213	H	-0.828569	-0.539174	1.084126
H214	H	-0.328569	-0.039174	1.584126
