data_functionalizedCrystal
_audit_creation_method	'MofGen! by Chris Wilmer'
_symmetry_space_group_name_H-M	'P1'
_symmetry_Int_Tables_number	1
_symmetry_cell_setting	triclinic
loop_
_symmetry_equiv_pos_as_xyz
  x,y,z
_cell_length_a	29.839131
_cell_length_b	18.050591
_cell_length_c	18.050582
_cell_angle_alpha	90.022741
_cell_angle_beta	89.974523
_cell_angle_gamma	89.965147
loop_
_atom_site_label
_atom_site_type_symbol
_atom_site_fract_x
_atom_site_fract_y
_atom_site_fract_z
Zn1	Zn	-0.178961	-1.135224	-0.420052
Zn2	Zn	0.321039	-0.635224	0.079948
Zn3	Zn	-0.254083	-1.135106	-0.295856
Zn4	Zn	0.245917	-0.635106	0.204144
Zn5	Zn	-0.178959	-1.011044	-0.295860
Zn6	Zn	0.321041	-0.511044	0.204140
Zn7	Zn	-0.254056	-1.010963	-0.419988
Zn8	Zn	0.245944	-0.510963	0.080012
O9	O	-0.216514	-1.073084	-0.357939
O10	O	0.283486	-0.573084	0.142061
O11	O	-0.188938	-1.239133	-0.403603
O12	O	0.311062	-0.739133	0.096397
O13	O	-0.244128	-1.118634	-0.191932
O14	O	0.255872	-0.618634	0.308068
O15	O	-0.116092	-1.027599	-0.312363
O16	O	0.383908	-0.527599	0.187637
O17	O	-0.244130	-1.239047	-0.312357
O18	O	0.255870	-0.739047	0.187643
O19	O	-0.116093	-1.118835	-0.403607
O20	O	0.383907	-0.618835	0.096393
O21	O	-0.188935	-1.027485	-0.191934
O22	O	0.311065	-0.527485	0.308066
O23	O	-0.188909	-0.907108	-0.312300
O24	O	0.311091	-0.407108	0.187700
O25	O	-0.244083	-1.027462	-0.523921
O26	O	0.255917	-0.527462	-0.023921
O27	O	-0.244082	-0.907049	-0.403496
O28	O	0.255918	-0.407049	0.096504
O29	O	-0.188911	-1.118756	-0.523968
O30	O	0.311089	-0.618756	-0.023968
O31	O	-0.316946	-1.118555	-0.312294
O32	O	0.183054	-0.618555	0.187706
O33	O	-0.316926	-1.027348	-0.403493
O34	O	0.183074	-0.527348	0.096507
C35	C	-0.216493	-0.880132	-0.357892
C36	C	0.283507	-0.380132	0.142108
C37	C	-0.216494	-0.797586	-0.357889
C38	C	0.283506	-0.297586	0.142111
C39	C	-0.186452	-0.548772	-0.308401
C40	C	0.313548	-0.048772	0.191599
C41	C	-0.175516	-0.598208	-0.376181
C42	C	0.324484	-0.098208	0.123819
C43	C	-0.216507	-0.500466	-0.357934
C44	C	0.283493	-0.000466	0.142066
C45	C	-0.227416	-0.598112	-0.290137
C46	C	0.272584	-0.098112	0.209863
C47	C	-0.216500	-0.646451	-0.357909
C48	C	0.283500	-0.146451	0.142091
C49	C	-0.205550	-0.548815	-0.425750
C50	C	0.294450	-0.048815	0.074250
C51	C	-0.257469	-0.548715	-0.339660
C52	C	0.242531	-0.048715	0.160340
C53	C	-0.246549	-0.598128	-0.407487
C54	C	0.253451	-0.098128	0.092513
C55	C	-0.216511	-0.416368	-0.357948
C56	C	0.283489	0.083632	0.142052
C57	C	-0.216496	-0.730548	-0.357902
C58	C	0.283504	-0.230548	0.142098
C59	C	-0.333237	-1.072950	-0.357902
C60	C	0.166763	-0.572950	0.142098
C61	C	-0.383172	-1.072961	-0.357911
C62	C	0.116828	-0.572961	0.142089
C63	C	-0.692813	-1.120663	-0.310521
C64	C	-0.192813	-0.620663	0.189479
C65	C	-0.880486	-1.120754	-0.310550
C66	C	-0.380486	-0.620754	0.189450
O67	O	-0.904749	-1.161205	-0.270229
O68	O	-0.404749	-0.661205	0.229771
N69	N	-0.903957	-1.073238	-0.357995
N70	N	-0.403957	-0.573238	0.142005
C71	C	-0.880506	-1.025700	-0.405440
C72	C	-0.380506	-0.525700	0.094560
O73	O	-0.904776	-0.985292	-0.445801
O74	O	-0.404776	-0.485292	0.054199
C75	C	-0.692834	-1.025612	-0.405414
C76	C	-0.192834	-0.525612	0.094586
C77	C	-0.669366	-1.073126	-0.357960
C78	C	-0.169366	-0.573126	0.142040
C79	C	-0.669344	-1.168173	-0.263072
C80	C	-0.169344	-0.668173	0.236928
C81	C	-0.622429	-1.168147	-0.263062
C82	C	-0.122429	-0.668147	0.236938
C83	C	-0.598982	-1.120610	-0.310502
C84	C	-0.098982	-0.620610	0.189498
C85	C	-0.622450	-1.073100	-0.357951
C86	C	-0.122450	-0.573100	0.142049
C87	C	-0.669385	-0.978078	-0.452862
C88	C	-0.169385	-0.478078	0.047138
C89	C	-0.622464	-0.978062	-0.452853
C90	C	-0.122464	-0.478062	0.047147
C91	C	-0.598995	-1.025575	-0.405399
C92	C	-0.098995	-0.525575	0.094601
C93	C	-0.552088	-1.025537	-0.405381
C94	C	-0.052088	-0.525537	0.094619
N95	N	-0.528617	-1.073053	-0.357936
N96	N	-0.028617	-0.573053	0.142064
C97	C	-0.552064	-1.120589	-0.310496
C98	C	-0.052064	-0.620589	0.189504
C99	C	-0.979037	-1.025748	-0.405449
C100	C	-0.479037	-0.525748	0.094551
C101	C	-1.025955	-1.025769	-0.405454
C102	C	-0.525955	-0.525769	0.094546
C103	C	-1.025931	-1.120824	-0.310565
C104	C	-0.525931	-0.620824	0.189435
C105	C	-0.979012	-1.120799	-0.310557
C106	C	-0.479012	-0.620799	0.189443
C107	C	-0.955566	-1.073264	-0.358004
C108	C	-0.455566	-0.573264	0.141996
C109	C	-0.453538	-1.120530	-0.310479
C110	C	0.046462	-0.620530	0.189521
C111	C	-0.406618	-1.120497	-0.310472
C112	C	0.093382	-0.620497	0.189528
C113	C	-0.406646	-1.025445	-0.405363
C114	C	0.093354	-0.525445	0.094637
C115	C	-0.453562	-1.025474	-0.405368
C116	C	0.046438	-0.525474	0.094632
C117	C	-0.477007	-1.073023	-0.357924
C118	C	0.022993	-0.573023	0.142076
O119	O	-0.527796	-0.985113	-0.445687
O120	O	-0.027796	-0.485113	0.054313
O121	O	-0.527786	-1.161002	-0.270153
O122	O	-0.027786	-0.661002	0.229847
C123	C	-0.739728	-1.120689	-0.310531
C124	C	-0.239728	-0.620689	0.189469
C125	C	-0.763197	-1.073178	-0.357980
C126	C	-0.263197	-0.573178	0.142020
C127	C	-0.739750	-1.025642	-0.405419
C128	C	-0.239750	-0.525642	0.094581
C129	C	-0.810114	-1.073199	-0.357985
C130	C	-0.310114	-0.573199	0.142015
C131	C	-0.833561	-1.120736	-0.310546
C132	C	-0.333561	-0.620736	0.189454
C133	C	-0.810090	-1.168252	-0.263101
C134	C	-0.310090	-0.668252	0.236899
C135	C	-0.763175	-1.168225	-0.263091
C136	C	-0.263175	-0.668225	0.236909
C137	C	-0.763220	-0.978126	-0.452864
C138	C	-0.263220	-0.478126	0.047136
C139	C	-0.810136	-0.978155	-0.452869
C140	C	-0.310136	-0.478155	0.047131
C141	C	-0.833583	-1.025692	-0.405430
C142	C	-0.333583	-0.525692	0.094570
C143	C	-0.099336	-1.073239	-0.357992
C144	C	0.400664	-0.573239	0.142008
C145	C	-0.049402	-1.073305	-0.358015
C146	C	0.450598	-0.573305	0.141985
C147	C	-0.216495	-1.073113	-0.551645
C148	C	0.283505	-0.573113	-0.051645
C149	C	-0.216486	-1.073126	-0.634190
C150	C	0.283514	-0.573126	-0.134190
C151	C	-0.216529	-0.266790	-0.357974
C152	C	0.283471	0.233210	0.142026
C153	C	-0.216515	-0.349336	-0.357955
C154	C	0.283485	0.150664	0.142045
C155	C	-0.246448	-1.023518	-0.833615
C156	C	0.253552	-0.523518	-0.333615
C157	C	-0.257434	-1.091269	-0.883015
C158	C	0.242566	-0.591269	-0.383015
C159	C	-0.216452	-1.073162	-0.785321
C160	C	0.283548	-0.573162	-0.285321
C161	C	-0.205453	-1.005449	-0.883003
C162	C	0.294547	-0.505449	-0.383003
C163	C	-0.216420	-1.073192	-0.931306
C164	C	0.283580	-0.573192	-0.431306
C165	C	-0.227460	-1.140949	-0.833633
C166	C	0.272540	-0.640949	-0.333633
C167	C	-0.175460	-1.055083	-0.833617
C168	C	0.324540	-0.555083	-0.333617
C169	C	-0.186430	-1.122881	-0.882994
C170	C	0.313570	-0.622881	-0.382994
C171	C	-0.216472	-1.073145	-0.701223
C172	C	0.283528	-0.573145	-0.201223
C173	C	-0.216400	-1.073217	-1.015403
C174	C	0.283600	-0.573217	-0.515403
C175	C	-0.216502	-1.073098	-0.164987
C176	C	0.283498	-0.573098	0.335013
C177	C	-0.216384	-1.073230	-0.082441
C178	C	0.283616	-0.573230	0.417559
H179	H	-0.236645	-0.619768	-0.232811
H180	H	0.263355	-0.119768	0.267189
O181	O	-0.381305	-1.171754	-0.259297
O182	O	0.118695	-0.671754	0.240703
H183	H	-0.390339	-1.159071	-0.200997
H184	H	0.109661	-0.659071	0.299003
H185	H	-0.472671	-0.986787	-0.444011
H186	H	0.027329	-0.486787	0.055989
O187	O	-0.152808	-1.178566	-0.911535
O188	O	0.347192	-0.678566	-0.411535
H189	H	-0.152825	-1.177848	-0.973021
H190	H	0.347175	-0.677848	-0.473021
O191	O	-0.129578	-1.034774	-0.804824
O192	O	0.370422	-0.534774	-0.304824
H193	H	-0.120539	-0.978498	-0.824553
H194	H	0.379461	-0.478498	-0.324553
H195	H	-0.292086	-1.106579	-0.904713
H196	H	0.207914	-0.606579	-0.404713
H197	H	-0.196280	-0.527250	-0.483092
H198	H	0.303720	-0.027250	0.016908
H199	H	-0.829240	-0.939458	-0.491511
H200	H	-0.329240	-0.439458	0.008489
H201	H	-0.603376	-0.939353	-0.491492
H202	H	-0.103376	-0.439353	0.008508
H203	H	-0.196164	-0.948172	-0.904690
H204	H	0.303836	-0.448172	-0.404690
H205	H	-1.045029	-1.159531	-0.271938
H206	H	-0.545029	-0.659531	0.228062
O207	O	-0.737934	-0.926836	-0.504017
O208	O	-0.237934	-0.426836	-0.004017
H209	H	-0.762141	-0.893796	-0.536998
H210	H	-0.262141	-0.393796	-0.036998
O211	O	-0.478822	-1.171807	-0.259303
O212	O	0.021178	-0.671807	0.240697
H213	H	-0.454614	-1.204829	-0.226305
H214	H	0.045386	-0.704829	0.273695
O215	O	-0.239591	-1.216944	-0.805039
O216	O	0.260409	-0.716944	-0.305039
H217	H	-0.239441	-1.216364	-0.743551
H218	H	0.260559	-0.716364	-0.243551
O219	O	-0.694689	-0.926830	-0.504046
O220	O	-0.194689	-0.426830	-0.004046
H221	H	-0.716035	-0.960054	-0.541867
H222	H	-0.216035	-0.460054	-0.041867
H223	H	-0.603323	-1.206838	-0.224424
H224	H	-0.103323	-0.706838	0.275576
H225	H	-0.161019	-0.527101	-0.266575
H226	H	0.338981	-0.027101	0.233425
H227	H	-0.140870	-0.619933	-0.391640
H228	H	0.359130	-0.119933	0.108360
O229	O	-0.835383	-1.219540	-0.211947
O230	O	-0.335383	-0.719540	0.288053
H231	H	-0.871950	-1.211579	-0.219940
H232	H	-0.371950	-0.711579	0.280060
O233	O	-0.303345	-0.519889	-0.319170
O234	O	0.196655	-0.019889	0.180830
H235	H	-0.302998	-0.458406	-0.319903
H236	H	0.197002	0.041594	0.180097
O237	O	-0.280213	-0.626665	-0.463015
O238	O	0.219787	-0.126665	0.036985
H239	H	-0.271048	-0.606816	-0.519204
H240	H	0.228952	-0.106816	-0.019204
H241	H	-1.045059	-0.987071	-0.444089
H242	H	-0.545059	-0.487071	0.055911
H243	H	-0.959907	-1.159489	-0.271916
H244	H	-0.459907	-0.659489	0.228084
H245	H	-0.959950	-0.987037	-0.444087
H246	H	-0.459950	-0.487037	0.055913
O247	O	-0.694630	-1.219444	-0.211896
O248	O	-0.194630	-0.719444	0.288104
H249	H	-0.670421	-1.252467	-0.178902
H250	H	-0.170421	-0.752467	0.321098
O251	O	-0.381355	-0.974173	-0.456530
O252	O	0.118645	-0.474173	0.043470
H253	H	-0.359951	-1.007383	-0.494345
H254	H	0.140049	-0.507383	0.005655
O255	O	-0.737865	-1.219483	-0.211920
O256	O	-0.237865	-0.719483	0.288080
H257	H	-0.746900	-1.206797	-0.153621
H258	H	-0.246900	-0.706797	0.346379
O259	O	-0.280089	-0.967966	-0.804875
O260	O	0.219911	-0.467966	-0.304875
H261	H	-0.314078	-0.983170	-0.824656
H262	H	0.185922	-0.483170	-0.324656
