data_functionalizedCrystal
_audit_creation_method	'MofGen! by Chris Wilmer'
_symmetry_space_group_name_H-M	'P1'
_symmetry_Int_Tables_number	1
_symmetry_cell_setting	triclinic
loop_
_symmetry_equiv_pos_as_xyz
  x,y,z
_cell_length_a	14.519709
_cell_length_b	19.288865
_cell_length_c	17.766277
_cell_angle_alpha	90.011603
_cell_angle_beta	90.003743
_cell_angle_gamma	83.408197
loop_
_atom_site_label
_atom_site_type_symbol
_atom_site_fract_x
_atom_site_fract_y
_atom_site_fract_z
O1	O	-1.223296	-0.091051	-0.062505
O2	O	-0.954751	-0.101773	-0.062529
O3	O	-1.096783	0.004690	-0.062502
O4	O	-1.081264	-0.197514	-0.062533
O5	O	-1.096759	0.004696	0.062687
O6	O	-0.954726	-0.101768	0.062659
O7	O	-1.223271	-0.091045	0.062683
Cu8	Cu	-1.088997	-0.096406	0.074102
Cu9	Cu	-1.089026	-0.096413	-0.073948
O10	O	-1.081239	-0.197509	0.062656
C11	C	-0.920382	-0.101271	0.000062
C12	C	-0.818010	-0.099773	0.000054
C13	C	-1.257640	-0.091548	0.000090
C14	C	-1.360012	-0.093045	0.000094
C15	C	-1.096272	0.030571	0.000095
C16	C	-1.094773	0.107680	0.000101
C17	C	-0.443150	-0.094261	0.000089
C18	C	-0.547448	-0.095792	0.000079
C19	C	-0.630577	-0.097017	0.000070
C20	C	-0.734882	-0.098548	0.000062
C21	C	-1.081751	-0.223390	0.000058
C22	C	-1.083250	-0.300499	0.000046
N23	N	-1.088983	-0.096401	0.178232
C24	C	-1.178111	0.152077	0.000112
C25	C	-1.176702	0.224529	0.000100
C26	C	-1.091951	0.252581	0.000092
C27	C	-1.008602	0.208175	0.000077
C28	C	-1.010013	0.135725	0.000081
C29	C	-1.025318	0.361110	0.043937
C30	C	-1.023911	0.433560	0.043937
C31	C	-1.087597	0.476043	0.000075
C32	C	-1.152705	0.446068	-0.043778
C33	C	-1.154116	0.373618	-0.043773
C34	C	-1.090412	0.331141	0.000087
C35	C	-1.169414	0.599000	0.000072
C36	C	-1.168002	0.671454	0.000055
C37	C	-0.999899	0.655098	0.000040
C38	C	-1.001314	0.582647	0.000049
C39	C	-1.086073	0.554602	0.000069
N40	N	-1.089047	-0.096412	-0.178078
C41	C	-1.151895	-0.049282	0.217631
C42	C	-1.151900	-0.049279	0.296433
C43	C	-1.089002	-0.096407	0.335833
C44	C	-1.026078	-0.143529	0.296424
C45	C	-1.026069	-0.143526	0.217624
C46	C	-1.076656	-0.159650	0.460660
C47	C	-1.076672	-0.159654	0.539459
C48	C	-1.089027	-0.096415	0.578879
C49	C	-1.101385	-0.033170	0.539491
C50	C	-1.101375	-0.033167	0.460690
C51	C	-1.089005	-0.096415	0.421279
C52	C	-1.151948	-0.049289	0.703724
C53	C	-1.151947	-0.049285	0.782528
C54	C	-1.026129	-0.143541	0.782517
C55	C	-1.026126	-0.143539	0.703715
C56	C	-1.089040	-0.096414	0.664324
H57	H	-1.247128	0.129248	0.000126
H58	H	-1.207128	0.349216	-0.079481
H59	H	-0.970892	0.457959	0.079640
F60	F	-0.909700	0.684949	0.000027
F61	F	-0.921309	0.088473	0.000069
H62	H	-1.244568	0.260683	0.000106
F63	F	-1.218904	0.000872	0.824461
H64	H	-1.204564	0.480657	-0.079495
F65	F	-0.959106	-0.193679	0.175691
F66	F	-0.918404	0.238031	0.000063
H67	H	-1.203121	-0.010909	0.185561
H68	H	-1.238430	0.576166	0.000085
F69	F	-1.256707	0.718704	0.000062
H70	H	-1.203174	-0.010914	0.671650
H71	H	-0.973455	0.326526	0.079659
F72	F	-0.912613	0.535395	0.000040
F73	F	-1.218863	0.000874	0.338372
H74	H	-1.111435	0.018329	0.428623
H75	H	-1.111445	0.018325	0.571585
F76	F	-0.959183	-0.193693	0.824445
F77	F	-0.959171	-0.193692	0.661780
F78	F	-1.063526	-0.226964	0.581372
H79	H	-1.066579	-0.211150	0.428571
F80	F	-0.959134	-0.193684	0.338356
