data_functionalizedCrystal
_audit_creation_method	'MofGen! by Chris Wilmer'
_symmetry_space_group_name_H-M	'P1'
_symmetry_Int_Tables_number	1
_symmetry_cell_setting	triclinic
loop_
_symmetry_equiv_pos_as_xyz
  x,y,z
_cell_length_a	15.711784
_cell_length_b	15.625429
_cell_length_c	14.750779
_cell_angle_alpha	120.092833
_cell_angle_beta	106.501624
_cell_angle_gamma	78.971058
loop_
_atom_site_label
_atom_site_type_symbol
_atom_site_fract_x
_atom_site_fract_y
_atom_site_fract_z
O1	O	1.084669	-0.539499	-0.267634
O2	O	0.838887	-0.466571	-0.242244
O3	O	0.979704	-0.366024	-0.207248
O4	O	0.943852	-0.640046	-0.302629
O5	O	1.019511	-0.337606	-0.037707
O6	O	0.878694	-0.438152	-0.072703
O7	O	1.124476	-0.511081	-0.098092
Zn8	Zn	1.007905	-0.470104	-0.058479
Zn9	Zn	0.955458	-0.507547	-0.281857
O10	O	0.983659	-0.611627	-0.133088
C11	C	0.827547	-0.440448	-0.153326
C12	C	0.734452	-0.404938	-0.140964
C13	C	0.620283	-0.271258	-0.094432
C14	C	0.707758	-0.304634	-0.106051
C15	C	0.673673	-0.471907	-0.164279
C16	C	0.586192	-0.438545	-0.152670
C17	C	0.559505	-0.338220	-0.117745
C18	C	0.525415	-0.505507	-0.175983
C19	C	0.437943	-0.472147	-0.164370
C20	C	0.411249	-0.371825	-0.129443
C21	C	0.472033	-0.304860	-0.106132
C22	C	0.552106	-0.605831	-0.210900
C23	C	0.491328	-0.672793	-0.234213
C24	C	0.403853	-0.639434	-0.222607
C25	C	0.377159	-0.539113	-0.187681
C26	C	0.343068	-0.706400	-0.245918
C27	C	0.255597	-0.673040	-0.234305
C28	C	0.289687	-0.505752	-0.176068
C29	C	1.001932	-0.315934	-0.109990
C30	C	1.008845	-0.209017	-0.072781
C31	C	1.135816	-0.537204	-0.187012
C32	C	1.228909	-0.572714	-0.199381
N33	N	1.043706	-0.444552	0.093970
C34	C	0.961431	-0.661718	-0.230348
C35	C	0.954516	-0.768636	-0.267564
C36	C	0.923075	0.065182	-0.412448
C37	C	0.929575	0.165654	-0.377452
C38	C	0.972970	0.196620	-0.192630
C39	C	0.966478	0.096148	-0.227611
C40	C	0.941529	0.030437	-0.337521
C41	C	0.984932	0.061403	-0.152683
C42	C	0.978435	-0.039059	-0.187662
C43	C	0.953485	-0.104775	-0.297567
C44	C	0.935033	-0.070025	-0.372499
C45	C	1.009875	0.127117	-0.042773
C46	C	1.028329	0.092372	0.032154
C47	C	1.021838	-0.008093	-0.002824
C48	C	0.996888	-0.073809	-0.112730
C49	C	1.040291	-0.042843	0.072108
C50	C	1.033794	-0.143305	0.037130
C51	C	0.990392	-0.174271	-0.147708
N52	N	0.919665	-0.533094	-0.434305
C53	C	0.819683	-0.604415	0.390147
C54	C	0.844776	-0.586518	0.496876
C55	C	0.969489	-0.497541	0.527807
C56	C	0.944405	-0.515426	0.421081
C57	C	0.869502	-0.568865	0.352259
C58	C	0.994223	-0.479876	0.383192
C59	C	0.969144	-0.497764	0.276474
C60	C	0.894245	-0.551203	0.207644
C61	C	0.844422	-0.586753	0.245540
C62	C	1.069130	-0.426444	0.452014
C63	C	1.118948	-0.390893	0.414126
C64	C	1.093865	-0.408775	0.307407
C65	C	1.018967	-0.462214	0.238578
C66	C	1.143688	-0.373225	0.269511
C67	C	1.118608	-0.391114	0.162793
C68	C	0.993887	-0.480102	0.131859
H69	H	0.623333	-0.632989	-0.220350
Cl70	Cl	1.059685	0.174990	0.170323
H71	H	0.513070	-0.754478	-0.262645
H72	H	0.932888	-0.523608	0.075823
H73	H	0.873829	-0.565771	0.120746
H74	H	0.340025	-0.344663	-0.119979
H75	H	1.060596	0.010675	0.161598
H76	H	0.364814	-0.788084	-0.274344
Cl77	Cl	1.100659	-0.403963	0.586174
Cl78	Cl	0.903680	-0.152644	-0.510676
H79	H	0.267955	-0.424059	-0.147639
Cl80	Cl	0.784164	-0.220442	-0.076739
Cl81	Cl	0.782136	-0.631222	0.544496
Cl82	Cl	1.063652	-0.430366	0.614332
Cl83	Cl	1.056999	-0.186990	0.131324
H84	H	1.179937	-0.347386	0.470172
H85	H	0.695416	-0.553592	-0.192711
H86	H	0.993281	0.250136	-0.103140
H87	H	0.970083	-0.227780	-0.237208
Cl88	Cl	1.237856	-0.306061	0.356036
H89	H	0.206110	-0.727566	-0.253285
Cl90	Cl	0.586727	-0.145131	-0.050524
Cl91	Cl	0.891723	-0.017437	-0.550625
Cl92	Cl	0.906368	0.209330	-0.471659
Cl93	Cl	0.945321	-0.231074	-0.341543
H94	H	0.450301	-0.223167	-0.077704
Cl95	Cl	1.018039	0.253415	0.001199
H96	H	0.783423	-0.630259	0.189504
H97	H	1.159177	-0.362166	0.131944
Cl98	Cl	0.725509	-0.671584	0.303628
