data_functionalizedCrystal
_audit_creation_method	'MofGen! by Chris Wilmer'
_symmetry_space_group_name_H-M	'P1'
_symmetry_Int_Tables_number	1
_symmetry_cell_setting	triclinic
loop_
_symmetry_equiv_pos_as_xyz
  x,y,z
_cell_length_a	19.077409
_cell_length_b	21.295417
_cell_length_c	19.076919
_cell_angle_alpha	92.267699
_cell_angle_beta	94.476475
_cell_angle_gamma	92.331622
loop_
_atom_site_label
_atom_site_type_symbol
_atom_site_fract_x
_atom_site_fract_y
_atom_site_fract_z
Zn1	Zn	1.061651	-0.225214	-0.355434
Zn2	Zn	1.311651	0.024786	-0.105434
Zn3	Zn	1.561651	0.274786	0.144566
Zn4	Zn	1.811651	0.524786	0.394566
Zn5	Zn	1.066295	-0.326080	-0.237548
Zn6	Zn	1.316295	-0.076080	0.012452
Zn7	Zn	1.566295	0.173920	0.262452
Zn8	Zn	1.816295	0.423920	0.512452
Zn9	Zn	0.948506	-0.225235	-0.242283
Zn10	Zn	1.198506	0.024765	0.007717
Zn11	Zn	1.448506	0.274765	0.257717
Zn12	Zn	1.698506	0.524765	0.507717
Zn13	Zn	0.943723	-0.334858	-0.360109
Zn14	Zn	1.193723	-0.084858	-0.110109
Zn15	Zn	1.443723	0.165142	0.139891
Zn16	Zn	1.693723	0.415142	0.389891
O17	O	1.005044	-0.277847	-0.298843
O18	O	1.255044	-0.027847	-0.048843
O19	O	1.505044	0.222153	0.201157
O20	O	1.755044	0.472153	0.451157
O21	O	1.160915	-0.234911	-0.335858
O22	O	1.410915	0.015089	-0.085858
O23	O	1.660915	0.265089	0.164142
O24	O	1.910915	0.515089	0.414142
O25	O	1.054616	-0.309037	-0.139529
O26	O	1.304616	-0.059037	0.110471
O27	O	1.554616	0.190963	0.360471
O28	O	1.804616	0.440963	0.610471
O29	O	0.963572	-0.137141	-0.257318
O30	O	1.213572	0.112859	-0.007318
O31	O	1.463572	0.362859	0.242682
O32	O	1.713572	0.612859	0.492682
O33	O	1.164328	-0.309017	-0.249247
O34	O	1.414328	-0.059017	0.000753
O35	O	1.664328	0.190983	0.250753
O36	O	1.914328	0.440983	0.500753
O37	O	1.046699	-0.137126	-0.340449
O38	O	1.296699	0.112874	-0.090449
O39	O	1.546699	0.362874	0.159551
O40	O	1.796699	0.612874	0.409551
O41	O	0.968076	-0.234947	-0.143008
O42	O	1.218076	0.015053	0.106992
O43	O	1.468076	0.265053	0.356992
O44	O	1.718076	0.515053	0.606992
O45	O	0.849223	-0.243459	-0.261851
O46	O	1.099223	0.006541	-0.011851
O47	O	1.349223	0.256541	0.238149
O48	O	1.599223	0.506541	0.488149
O49	O	0.955421	-0.323979	-0.458136
O50	O	1.205421	-0.073979	-0.208136
O51	O	1.455421	0.176021	0.041864
O52	O	1.705421	0.426021	0.291864
O53	O	0.845710	-0.323999	-0.348417
O54	O	1.095710	-0.073999	-0.098417
O55	O	1.345710	0.176001	0.151583
O56	O	1.595710	0.426001	0.401583
O57	O	1.042062	-0.243423	-0.454701
O58	O	1.292062	0.006577	-0.204701
O59	O	1.542062	0.256577	0.045299
O60	O	1.792062	0.506577	0.295299
O61	O	1.049978	-0.415335	-0.253780
O62	O	1.299978	-0.165335	-0.003780
O63	O	1.549978	0.084665	0.246220
O64	O	1.799978	0.334665	0.496220
O65	O	0.959925	-0.421784	-0.343826
O66	O	1.209925	-0.171784	-0.093826
O67	O	1.459925	0.078216	0.156174
O68	O	1.709925	0.328216	0.406174
C69	C	0.821888	-0.284684	-0.306156
C70	C	1.071888	-0.034684	-0.056156
C71	C	1.321888	0.215316	0.193844
C72	C	1.571888	0.465316	0.443844
C73	C	0.743532	-0.287625	-0.309300
C74	C	0.993532	-0.037625	-0.059300
C75	C	1.243532	0.212375	0.190700
C76	C	1.493532	0.462375	0.440700
C77	C	1.004955	-0.441400	-0.298811
C78	C	1.254955	-0.191400	-0.048811
C79	C	1.504955	0.058600	0.201189
C80	C	1.754955	0.308600	0.451189
C81	C	1.004981	-0.511368	-0.298819
C82	C	1.254981	-0.261368	-0.048819
C83	C	1.504981	-0.011368	0.201181
C84	C	1.754981	0.238632	0.451181
C85	C	0.302277	-0.308670	-0.331890
C86	C	0.552277	-0.058670	-0.081890
C87	C	0.802277	0.191330	0.168110
C88	C	1.052277	0.441330	0.418110
C89	C	0.375901	-0.305911	-0.328922
C90	C	0.625901	-0.055911	-0.078922
C91	C	0.875901	0.194089	0.171078
C92	C	1.125901	0.444089	0.421078
C93	C	0.414516	-0.262536	-0.282442
C94	C	0.664516	-0.012536	-0.032442
C95	C	0.914516	0.237464	0.217558
C96	C	1.164516	0.487464	0.467558
C97	C	0.379504	-0.221923	-0.238922
C98	C	0.629504	0.028077	0.011078
C99	C	0.879504	0.278077	0.261078
C100	C	1.129504	0.528077	0.511078
C101	C	0.305882	-0.224685	-0.241887
C102	C	0.555882	0.025315	0.008113
C103	C	0.805882	0.275315	0.258113
C104	C	1.055882	0.525315	0.508113
C105	C	0.634898	-0.249774	-0.268746
C106	C	0.884898	0.000226	-0.018746
C107	C	1.134898	0.250226	0.231254
C108	C	1.384898	0.500226	0.481254
C109	C	0.708525	-0.247013	-0.265786
C110	C	0.958525	0.002987	-0.015786
C111	C	1.208525	0.252987	0.234214
C112	C	1.458525	0.502987	0.484214
C113	C	0.704917	-0.331002	-0.355785
C114	C	0.954917	-0.081002	-0.105785
C115	C	1.204917	0.168998	0.144215
C116	C	1.454917	0.418998	0.394215
C117	C	0.631293	-0.333758	-0.358748
C118	C	0.881293	-0.083758	-0.108748
C119	C	1.131293	0.166242	0.141252
C120	C	1.381293	0.416242	0.391252
C121	C	0.596287	-0.293147	-0.315226
C122	C	0.846287	-0.043147	-0.065226
C123	C	1.096287	0.206853	0.184774
C124	C	1.346287	0.456853	0.434774
N125	N	0.489772	-0.259714	-0.279408
N126	N	0.739772	-0.009714	-0.029408
N127	N	0.989772	0.240286	0.220592
N128	N	1.239772	0.490286	0.470592
N129	N	0.521033	-0.295973	-0.318257
N130	N	0.771033	-0.045973	-0.068257
N131	N	1.021033	0.204027	0.181743
N132	N	1.271033	0.454027	0.431743
C133	C	1.048238	-0.544171	-0.342139
C134	C	1.298238	-0.294171	-0.092139
C135	C	1.548238	-0.044171	0.157861
C136	C	1.798238	0.205829	0.407861
C137	C	1.048262	-0.609914	-0.342155
C138	C	1.298262	-0.359914	-0.092155
C139	C	1.548262	-0.109914	0.157845
C140	C	1.798262	0.140086	0.407845
C141	C	1.005037	-0.642849	-0.298838
C142	C	1.255037	-0.392849	-0.048838
C143	C	1.505037	-0.142849	0.201162
C144	C	1.755037	0.107151	0.451162
C145	C	0.961772	-0.610038	-0.255516
C146	C	1.211772	-0.360038	-0.005516
C147	C	1.461772	-0.110038	0.244484
C148	C	1.711772	0.139962	0.494484
C149	C	0.961744	-0.544297	-0.255506
C150	C	1.211744	-0.294297	-0.005506
C151	C	1.461744	-0.044297	0.244494
C152	C	1.711744	0.205703	0.494494
N153	N	1.002194	-0.744003	-0.237357
N154	N	1.252194	-0.494003	0.012643
N155	N	1.502194	-0.244003	0.262643
N156	N	1.752194	0.005997	0.512643
N157	N	1.002225	-0.806454	-0.237369
N158	N	1.252225	-0.556454	0.012631
N159	N	1.502225	-0.306454	0.262631
N160	N	1.752225	-0.056454	0.512631
C161	C	1.005118	-0.840922	-0.298867
C162	C	1.255118	-0.590922	-0.048867
C163	C	1.505118	-0.340922	0.201133
C164	C	1.755118	-0.090922	0.451133
N165	N	1.007994	-0.810579	-0.360354
N166	N	1.257994	-0.560579	-0.110354
N167	N	1.507994	-0.310579	0.139646
N168	N	1.757994	-0.060579	0.389646
N169	N	1.007966	-0.748122	-0.360342
N170	N	1.257966	-0.498122	-0.110342
N171	N	1.507966	-0.248122	0.139658
N172	N	1.757966	0.001878	0.389658
C173	C	1.005063	-0.714134	-0.298845
C174	C	1.255063	-0.464134	-0.048845
C175	C	1.505063	-0.214134	0.201155
C176	C	1.755063	0.035866	0.451155
C177	C	1.048404	-0.945011	-0.342208
C178	C	1.298404	-0.695011	-0.092208
C179	C	1.548404	-0.445011	0.157792
C180	C	1.798404	-0.195011	0.407792
C181	C	1.048423	-1.010754	-0.342226
C182	C	1.298423	-0.760754	-0.092226
C183	C	1.548423	-0.510754	0.157774
C184	C	1.798423	-0.260754	0.407774
C185	C	0.961936	-1.010877	-0.255580
C186	C	1.211936	-0.760877	-0.005580
C187	C	1.461936	-0.510877	0.244420
C188	C	1.711936	-0.260877	0.494420
C189	C	0.961913	-0.945135	-0.255569
C190	C	1.211913	-0.695135	-0.005569
C191	C	1.461913	-0.445135	0.244431
C192	C	1.711913	-0.195135	0.494431
C193	C	1.005151	-0.912205	-0.298882
C194	C	1.255151	-0.662205	-0.048882
C195	C	1.505151	-0.412205	0.201118
C196	C	1.755151	-0.162205	0.451118
C197	C	1.188915	-0.270983	-0.291503
C198	C	1.438915	-0.020983	-0.041503
C199	C	1.688915	0.229017	0.208497
C200	C	1.938915	0.479017	0.458497
C201	C	1.267270	-0.268058	-0.288375
C202	C	1.517270	-0.018058	-0.038375
C203	C	1.767270	0.231942	0.211625
C204	C	2.017270	0.481942	0.461625
C205	C	0.997690	-0.284678	-0.482712
C206	C	1.247690	-0.034678	-0.232712
C207	C	1.497690	0.215322	0.017288
C208	C	1.747690	0.465322	0.267288
C209	C	0.994556	-0.287589	-0.561065
C210	C	1.244556	-0.037589	-0.311065
C211	C	1.494556	0.212411	-0.061065
C212	C	1.744556	0.462411	0.188935
C213	C	1.005151	-0.113654	-0.298890
C214	C	1.255151	0.136346	-0.048890
C215	C	1.505151	0.386346	0.201110
C216	C	1.755151	0.636346	0.451110
C217	C	1.005197	-0.043685	-0.298910
C218	C	1.255197	0.206315	-0.048910
C219	C	1.505197	0.456315	0.201090
C220	C	1.755197	0.706315	0.451090
C221	C	1.038191	-0.247018	-0.596089
C222	C	1.288191	0.002982	-0.346089
C223	C	1.538191	0.252982	-0.096089
C224	C	1.788191	0.502982	0.153911
C225	C	1.035238	-0.249751	-0.669711
C226	C	1.285238	0.000249	-0.419711
C227	C	1.535238	0.250249	-0.169711
C228	C	1.785238	0.500249	0.080289
C229	C	0.988653	-0.293059	-0.708308
C230	C	1.238653	-0.043059	-0.458308
C231	C	1.488653	0.206941	-0.208308
C232	C	1.738653	0.456941	0.041692
C233	C	0.945014	-0.333632	-0.673279
C234	C	1.195014	-0.083632	-0.423279
C235	C	1.445014	0.166368	-0.173279
C236	C	1.695014	0.416368	0.076721
C237	C	0.947964	-0.330895	-0.599658
C238	C	1.197964	-0.080895	-0.349658
C239	C	1.447964	0.169105	-0.099658
C240	C	1.697964	0.419105	0.150342
C241	C	0.974990	-0.305738	-0.928681
C242	C	1.224990	-0.055738	-0.678681
C243	C	1.474990	0.194262	-0.428681
C244	C	1.724990	0.444262	-0.178681
C245	C	0.972045	-0.308473	-1.002307
C246	C	1.222045	-0.058473	-0.752307
C247	C	1.472045	0.191527	-0.502307
C248	C	1.722045	0.441527	-0.252307
C249	C	1.062269	-0.224591	-0.998733
C250	C	1.312269	0.025409	-0.748733
C251	C	1.562269	0.275409	-0.498733
C252	C	1.812269	0.525409	-0.248733
C253	C	1.065217	-0.221860	-0.925111
C254	C	1.315217	0.028140	-0.675111
C255	C	1.565217	0.278140	-0.425111
C256	C	1.815217	0.528140	-0.175111
C257	C	1.021576	-0.262431	-0.890089
C258	C	1.271576	-0.012431	-0.640089
C259	C	1.521576	0.237569	-0.390089
C260	C	1.771576	0.487569	-0.140089
N261	N	0.985635	-0.295855	-0.783561
N262	N	1.235635	-0.045855	-0.533561
N263	N	1.485635	0.204145	-0.283561
N264	N	1.735635	0.454145	-0.033561
N265	N	1.024590	-0.259632	-0.814837
N266	N	1.274590	-0.009632	-0.564837
N267	N	1.524590	0.240368	-0.314837
N268	N	1.774590	0.490368	-0.064837
C269	C	1.012410	-0.270995	-0.115689
C270	C	1.262410	-0.020995	0.134311
C271	C	1.512410	0.229005	0.384311
C272	C	1.762410	0.479005	0.634311
C273	C	1.015680	-0.267902	-0.037330
C274	C	1.265680	-0.017902	0.212670
C275	C	1.515680	0.232098	0.462670
C276	C	1.765680	0.482098	0.712670
H277	H	0.270841	-0.343986	-0.369743
H278	H	0.520841	-0.093986	-0.119743
H279	H	0.770841	0.156014	0.130257
H280	H	1.020841	0.406014	0.380257
H281	H	1.103153	-0.186596	-0.893691
H282	H	1.353153	0.063404	-0.643691
H283	H	1.603153	0.313404	-0.393691
H284	H	1.853153	0.563404	-0.143691
H285	H	0.926518	-0.517588	-0.220229
H286	H	1.176518	-0.267588	0.029771
H287	H	1.426518	-0.017588	0.279771
H288	H	1.676518	0.232412	0.529771
H289	H	1.070772	-0.216715	-0.698224
H290	H	1.320772	0.033285	-0.448224
H291	H	1.570772	0.283285	-0.198224
H292	H	1.820772	0.533285	0.051776
H293	H	0.739964	-0.211685	-0.227941
H294	H	0.989964	0.038315	0.022059
H295	H	1.239964	0.288315	0.272059
H296	H	1.489964	0.538315	0.522059
H297	H	1.097798	-0.191560	-1.027256
H298	H	1.347798	0.058440	-0.777256
H299	H	1.597798	0.308440	-0.527256
H300	H	1.847798	0.558440	-0.277256
H301	H	0.912425	-0.363926	-0.571144
H302	H	1.162425	-0.113926	-0.321144
H303	H	1.412425	0.136074	-0.071144
H304	H	1.662425	0.386074	0.178856
H305	H	1.083648	-1.037462	-0.377506
H306	H	1.333648	-0.787462	-0.127506
H307	H	1.583648	-0.537462	0.122494
H308	H	1.833648	-0.287462	0.372494
H309	H	0.926576	-0.636858	-0.220249
H310	H	1.176576	-0.386858	0.029751
H311	H	1.426576	-0.136858	0.279751
H312	H	1.676576	0.113142	0.529751
H313	H	1.083609	-0.918199	-0.377479
H314	H	1.333609	-0.668199	-0.127479
H315	H	1.583609	-0.418199	0.122521
H316	H	1.833609	-0.168199	0.372521
H317	H	0.606405	-0.216708	-0.233304
H318	H	0.856405	0.033292	0.016696
H319	H	1.106405	0.283292	0.266696
H320	H	1.356405	0.533292	0.516696
H321	H	0.926737	-1.037692	-0.220316
H322	H	1.176737	-0.787692	0.029684
H323	H	1.426737	-0.537692	0.279684
H324	H	1.676737	-0.287692	0.529684
H325	H	0.733427	-0.364066	-0.391217
H326	H	0.983427	-0.114066	-0.141217
H327	H	1.233427	0.135934	0.108783
H328	H	1.483427	0.385934	0.358783
H329	H	0.404400	-0.338982	-0.364355
H330	H	0.654400	-0.088982	-0.114355
H331	H	0.904400	0.161018	0.135645
H332	H	1.154400	0.411018	0.385645
H333	H	0.599857	-0.369080	-0.396596
H334	H	0.849857	-0.119080	-0.146596
H335	H	1.099857	0.130920	0.103404
H336	H	1.349857	0.380920	0.353404
H337	H	0.934108	-0.343741	-1.033730
H338	H	1.184108	-0.093741	-0.783730
H339	H	1.434108	0.156259	-0.533730
H340	H	1.684108	0.406259	-0.283730
H341	H	0.277380	-0.191613	-0.206455
H342	H	0.527380	0.058387	0.043545
H343	H	0.777380	0.308387	0.293545
H344	H	1.027380	0.558387	0.543545
H345	H	0.907081	-0.368892	-0.704710
H346	H	1.157081	-0.118892	-0.454710
H347	H	1.407081	0.131108	-0.204710
H348	H	1.657081	0.381108	0.045290
H349	H	0.410951	-0.186609	-0.201074
H350	H	0.660951	0.063391	0.048926
H351	H	0.910951	0.313391	0.298926
H352	H	1.160951	0.563391	0.548926
H353	H	1.083443	-0.517362	-0.377408
H354	H	1.333443	-0.267362	-0.127408
H355	H	1.583443	-0.017362	0.122592
H356	H	1.833443	0.232638	0.372592
H357	H	1.083481	-0.636628	-0.377440
H358	H	1.333481	-0.386628	-0.127440
H359	H	1.583481	-0.136628	0.122560
H360	H	1.833481	0.113372	0.372560
H361	H	0.926692	-0.918424	-0.220291
H362	H	1.176692	-0.668424	0.029709
H363	H	1.426692	-0.418424	0.279709
H364	H	1.676692	-0.168424	0.529709
H365	H	1.076127	-0.211753	-0.564668
H366	H	1.326127	0.038247	-0.314668
H367	H	1.576127	0.288247	-0.064668
H368	H	1.826127	0.538247	0.185332
H369	H	0.939464	-0.338782	-0.900175
H370	H	1.189464	-0.088782	-0.650175
H371	H	1.439464	0.161218	-0.400175
H372	H	1.689464	0.411218	-0.150175
