data_functionalizedCrystal
_audit_creation_method	'MofGen! by Chris Wilmer'
_symmetry_space_group_name_H-M	'P1'
_symmetry_Int_Tables_number	1
_symmetry_cell_setting	triclinic
loop_
_symmetry_equiv_pos_as_xyz
  x,y,z
_cell_length_a	6.817900
_cell_length_b	10.943867
_cell_length_c	16.255661
_cell_angle_alpha	93.786122
_cell_angle_beta	103.488922
_cell_angle_gamma	108.843261
loop_
_atom_site_label
_atom_site_type_symbol
_atom_site_fract_x
_atom_site_fract_y
_atom_site_fract_z
V1	V	-4.054194	-0.179676	-0.263862
O2	O	-4.013034	0.007561	-0.258848
O3	O	-4.032599	-0.355235	-0.262048
O4	O	-4.005405	-0.177383	-0.378945
O5	O	-4.040415	-0.171522	-0.141142
V6	V	-4.534399	-0.157225	-0.249184
O7	O	-4.322731	-0.228925	-0.296057
O8	O	-4.716060	-0.107976	-0.216989
O9	O	-4.332788	0.018334	-0.250998
O10	O	-4.692956	-0.344462	-0.254197
O11	O	-4.665575	-0.165378	-0.371904
O12	O	-4.359981	-0.159518	-0.134101
C13	C	-3.884133	-0.398018	-0.257883
C14	C	-3.947760	-0.541543	-0.257167
C15	C	-4.176276	-0.632442	-0.261152
C16	C	-4.157696	-0.731825	-0.328618
C17	C	-4.079701	-0.697899	-0.188441
C18	C	-3.928373	-0.639050	-0.324701
C19	C	-3.850367	-0.605102	-0.184460
C20	C	-3.831640	-0.704445	-0.251941
C21	C	-3.849444	-0.171148	-0.406996
C22	C	-3.891015	-0.170435	-0.501077
C23	C	-3.800268	-0.161918	-0.723896
C24	C	-3.973499	-0.271848	-0.793366
C25	C	-3.967195	-0.169099	-0.673326
C26	C	-3.868062	-0.057911	-0.771493
C27	C	-4.040764	-0.167801	-0.839709
C28	C	-4.139922	-0.279126	-0.741566
C29	C	-4.034409	-0.065092	-0.719677
C30	C	-4.207780	-0.175053	-0.789128
C31	C	-3.924808	-0.169847	-0.577476
C32	C	-4.083169	-0.167063	-0.935558
C33	C	-4.144597	0.061111	-0.255161
C34	C	-4.060208	0.204634	-0.255883
C35	C	-4.179286	-0.165757	-0.106046
C36	C	-4.116952	-0.166463	-0.011964
H37	H	-3.863923	-0.612924	-0.382355
H38	H	-4.144351	-0.724204	-0.130854
H39	H	-3.686374	-0.736050	-0.248060
O40	O	-3.694441	-0.539405	-0.111842
C41	C	-3.507659	-0.464730	-0.133478
H42	H	-3.509067	-0.508546	-0.199306
H43	H	-3.503729	-0.359947	-0.134755
C44	C	-3.305305	-0.411698	0.014386
C45	C	-3.307026	-0.465521	-0.066462
H46	H	-3.181544	-0.412180	0.055726
H47	H	-3.431145	-0.462004	0.028963
H48	H	-3.302039	-0.324384	0.013310
H49	H	-3.310320	-0.552838	-0.065388
H50	H	-3.181182	-0.415230	-0.081038
O51	O	-4.276482	-0.390913	-0.725614
C52	C	-4.244505	-0.499630	-0.764127
H53	H	-4.169384	-0.471099	-0.818926
H54	H	-4.132474	-0.533109	-0.714553
C55	C	-4.554650	-0.646744	-0.731838
C56	C	-4.462403	-0.611705	-0.799146
H57	H	-4.689056	-0.715880	-0.753436
H58	H	-4.576190	-0.573501	-0.705887
H59	H	-4.461270	-0.674635	-0.690531
H60	H	-4.555770	-0.583799	-0.840446
H61	H	-4.440883	-0.684947	-0.825105
O62	O	-4.313198	-0.797300	-0.401406
C63	C	-4.234837	-0.765968	-0.473141
H64	H	-4.097274	-0.667768	-0.455228
H65	H	-4.173989	-0.844846	-0.494731
C66	C	-4.586219	-0.878454	-0.568535
C67	C	-4.417274	-0.757837	-0.546536
H68	H	-4.698755	-0.873444	-0.613810
H69	H	-4.639013	-0.899568	-0.520206
H70	H	-4.535485	-0.944173	-0.586522
H71	H	-4.468003	-0.692124	-0.528540
H72	H	-4.364493	-0.736712	-0.594864
O73	O	-3.594481	-0.155688	-0.689972
C74	C	-3.562765	-0.264938	-0.727884
H75	H	-3.724469	-0.347362	-0.754418
H76	H	-3.485311	-0.236846	-0.782148
C77	C	-3.215705	-0.209647	-0.627565
C78	C	-3.414312	-0.310886	-0.660148
H79	H	-3.124125	-0.237987	-0.585783
H80	H	-3.237068	-0.136040	-0.602024
H81	H	-3.151188	-0.186246	-0.672791
H82	H	-3.478837	-0.334273	-0.614924
H83	H	-3.392956	-0.384498	-0.685680
O84	O	-3.943113	-0.375982	-0.831731
C85	C	-3.780867	-0.331352	-0.874117
H86	H	-3.767264	-0.229002	-0.888877
H87	H	-3.620640	-0.328639	-0.831343
C88	C	-3.855164	-0.550231	-0.940132
C89	C	-3.838469	-0.424528	-0.958267
H90	H	-3.890687	-0.607708	-0.992037
H91	H	-3.964467	-0.580301	-0.911573
H92	H	-3.721634	-0.547952	-0.904485
H93	H	-3.972004	-0.426806	-0.993904
H94	H	-3.729189	-0.394461	-0.986834
O95	O	-4.064161	0.039334	-0.681388
C96	C	-3.919964	0.155717	-0.696150
H97	H	-3.776392	0.135963	-0.710753
H98	H	-4.005240	0.192436	-0.752881
C99	C	-4.017536	0.284190	-0.597979
C100	C	-3.841189	0.259931	-0.615907
H101	H	-3.968950	0.348477	-0.548484
H102	H	-4.114691	0.205782	-0.588036
H103	H	-4.088584	0.314783	-0.645261
H104	H	-3.770161	0.229323	-0.568631
H105	H	-3.744020	0.338337	-0.625841
H106	H	-4.380507	-0.180636	-0.817474
H107	H	-4.321365	-0.600622	-0.265140
H108	H	-3.753532	0.035554	-0.785107
