data_functionalizedCrystal
_audit_creation_method	'MofGen! by Chris Wilmer'
_symmetry_space_group_name_H-M	'P1'
_symmetry_Int_Tables_number	1
_symmetry_cell_setting	triclinic
loop_
_symmetry_equiv_pos_as_xyz
  x,y,z
_cell_length_a	21.295419
_cell_length_b	21.295417
_cell_length_c	21.295411
_cell_angle_alpha	89.979403
_cell_angle_beta	89.975461
_cell_angle_gamma	90.044503
loop_
_atom_site_label
_atom_site_type_symbol
_atom_site_fract_x
_atom_site_fract_y
_atom_site_fract_z
Zn1	Zn	0.962359	-0.250432	-0.355916
Zn2	Zn	1.295692	0.082901	-0.022582
Zn3	Zn	1.629026	0.416234	0.310751
Zn4	Zn	0.962263	-0.355684	-0.250643
Zn5	Zn	1.295596	-0.022351	0.082690
Zn6	Zn	1.628930	0.310982	0.416024
Zn7	Zn	0.857082	-0.250460	-0.250661
Zn8	Zn	1.190416	0.082873	0.082673
Zn9	Zn	1.523749	0.416207	0.416006
Zn10	Zn	0.857053	-0.355695	-0.355875
Zn11	Zn	1.190386	-0.022361	-0.022541
Zn12	Zn	1.523720	0.310972	0.310792
O13	O	0.909689	-0.303068	-0.303274
O14	O	1.243023	0.030266	0.030060
O15	O	1.576356	0.363599	0.363393
O16	O	1.050436	-0.264378	-0.341961
O17	O	1.383769	0.068955	-0.008627
O18	O	1.717102	0.402288	0.324706
O19	O	0.948282	-0.341733	-0.162556
O20	O	1.281616	-0.008400	0.170777
O21	O	1.614949	0.324934	0.504111
O22	O	0.871100	-0.162367	-0.264648
O23	O	1.204433	0.170966	0.068686
O24	O	1.537767	0.504300	0.402019
O25	O	1.050365	-0.341706	-0.264617
O26	O	1.383698	-0.008373	0.068716
O27	O	1.717032	0.324960	0.402049
O28	O	0.948446	-0.162347	-0.341978
O29	O	1.281780	0.170987	-0.008645
O30	O	1.615113	0.504320	0.324689
O31	O	0.871007	-0.264425	-0.162569
O32	O	1.204340	0.068908	0.170764
O33	O	1.537673	0.402241	0.504098
O34	O	0.768989	-0.264436	-0.264608
O35	O	1.102322	0.068898	0.068725
O36	O	1.435656	0.402231	0.402059
O37	O	0.871050	-0.341724	-0.443970
O38	O	1.204384	-0.008391	-0.110636
O39	O	1.537717	0.324942	0.222697
O40	O	0.768968	-0.341751	-0.341908
O41	O	1.102301	-0.008418	-0.008575
O42	O	1.435634	0.324915	0.324758
O43	O	0.948418	-0.264388	-0.444000
O44	O	1.281751	0.068945	-0.110666
O45	O	1.615085	0.402278	0.222667
O46	O	0.948254	-0.443775	-0.264578
O47	O	1.281588	-0.110442	0.068756
O48	O	1.614921	0.222892	0.402089
O49	O	0.870957	-0.443783	-0.341891
O50	O	1.204290	-0.110449	-0.008558
O51	O	1.537624	0.222884	0.324776
C52	C	0.746138	-0.303098	-0.303256
C53	C	1.079471	0.030235	0.030077
C54	C	1.412804	0.363569	0.363411
C55	C	0.676170	-0.303126	-0.303263
C56	C	1.009503	0.030207	0.030070
C57	C	1.342836	0.363541	0.363403
C58	C	0.643362	-0.262927	-0.343598
C59	C	0.976695	0.070406	-0.010265
C60	C	1.310029	0.403739	0.323068
C61	C	0.577620	-0.262910	-0.343601
C62	C	0.910953	0.070423	-0.010267
C63	C	1.244286	0.403756	0.323066
C64	C	0.544687	-0.303104	-0.303275
C65	C	0.878020	0.030230	0.030059
C66	C	1.211354	0.363563	0.363392
C67	C	0.577502	-0.343305	-0.262932
C68	C	0.910836	-0.009972	0.070401
C69	C	1.244169	0.323361	0.403735
C70	C	0.643244	-0.343317	-0.262926
C71	C	0.976577	-0.009983	0.070407
C72	C	1.309910	0.323350	0.403740
N73	N	0.441412	-0.358181	-0.298356
N74	N	0.774746	-0.024847	0.034977
N75	N	1.108079	0.308486	0.368311
N76	N	0.378961	-0.358168	-0.298365
N77	N	0.712294	-0.024835	0.034968
N78	N	1.045628	0.308498	0.368301
C79	C	0.346612	-0.303071	-0.303289
C80	C	0.679946	0.030262	0.030045
C81	C	1.013279	0.363596	0.363378
N82	N	0.379074	-0.247985	-0.308215
N83	N	0.712408	0.085348	0.025118
N84	N	1.045741	0.418681	0.358452
N85	N	0.441532	-0.247999	-0.308209
N86	N	0.774865	0.085335	0.025124
N87	N	1.108198	0.418668	0.358458
C88	C	0.473402	-0.303095	-0.303276
C89	C	0.806735	0.030238	0.030057
C90	C	1.140068	0.363571	0.363390
C91	C	0.242519	-0.262850	-0.343628
C92	C	0.575853	0.070483	-0.010295
C93	C	0.909186	0.403816	0.323038
C94	C	0.176776	-0.262832	-0.343626
C95	C	0.510109	0.070501	-0.010293
C96	C	0.843442	0.403834	0.323040
C97	C	0.176660	-0.343233	-0.262961
C98	C	0.509993	-0.009900	0.070372
C99	C	0.843326	0.323434	0.403706
C100	C	0.242402	-0.343245	-0.262960
C101	C	0.575736	-0.009912	0.070374
C102	C	0.909069	0.323421	0.403707
C103	C	0.275328	-0.303055	-0.303297
C104	C	0.608661	0.030278	0.030037
C105	C	0.941995	0.363612	0.363370
C106	C	0.909609	-0.466619	-0.303242
C107	C	1.242942	-0.133286	0.030092
C108	C	1.576276	0.200047	0.363425
C109	C	0.909632	-0.536588	-0.303249
C110	C	1.242966	-0.203254	0.030084
C111	C	1.576299	0.130079	0.363418
C112	C	0.949884	-0.569386	-0.343544
C113	C	1.283217	-0.236053	-0.010210
C114	C	1.616550	0.097280	0.323123
C115	C	0.949906	-0.635129	-0.343559
C116	C	1.283239	-0.301796	-0.010226
C117	C	1.616572	0.031538	0.323107
C118	C	0.909683	-0.668070	-0.303269
C119	C	1.243017	-0.334737	0.030064
C120	C	1.576350	-0.001403	0.363398
C121	C	0.869424	-0.635263	-0.262971
C122	C	1.202758	-0.301930	0.070362
C123	C	1.536091	0.031403	0.403695
C124	C	0.869399	-0.569522	-0.262962
C125	C	1.202732	-0.236189	0.070372
C126	C	1.536065	0.097145	0.403705
N127	N	0.904924	-0.771324	-0.248178
N128	N	1.238257	-0.437990	0.085155
N129	N	1.571591	-0.104657	0.418489
N130	N	0.904952	-0.833775	-0.248189
N131	N	1.238285	-0.500442	0.085144
N132	N	1.571619	-0.167108	0.418478
C133	C	0.909757	-0.866145	-0.303297
C134	C	1.243090	-0.532811	0.030036
C135	C	1.576424	-0.199478	0.363369
N136	N	0.914545	-0.833704	-0.358395
N137	N	1.247879	-0.500370	-0.025062
N138	N	1.581212	-0.167037	0.308271
N139	N	0.914521	-0.771247	-0.358383
N140	N	1.247854	-0.437913	-0.025050
N141	N	1.581187	-0.104580	0.308283
C142	C	0.909706	-0.739355	-0.303276
C143	C	1.243040	-0.406022	0.030058
C144	C	1.576373	-0.072689	0.363391
C145	C	0.950034	-0.970229	-0.343612
C146	C	1.283368	-0.636896	-0.010279
C147	C	1.616701	-0.303562	0.323054
C148	C	0.950052	-1.035973	-0.343629
C149	C	1.283386	-0.702640	-0.010296
C150	C	1.616719	-0.369306	0.323038
C151	C	0.869574	-1.036106	-0.263035
C152	C	1.202907	-0.702772	0.070298
C153	C	1.536241	-0.369439	0.403631
C154	C	0.869553	-0.970363	-0.263024
C155	C	1.202886	-0.637030	0.070309
C156	C	1.536220	-0.303697	0.403642
C157	C	0.909786	-0.937429	-0.303312
C158	C	1.243120	-0.604096	0.030021
C159	C	1.576453	-0.270762	0.363355
C160	C	1.073880	-0.303038	-0.303292
C161	C	1.407213	0.030295	0.030042
C162	C	1.740546	0.363629	0.363375
C163	C	1.143848	-0.303025	-0.303299
C164	C	1.477181	0.030308	0.030034
C165	C	1.810514	0.363641	0.363367
C166	C	0.909742	-0.303055	-0.467464
C167	C	1.243075	0.030279	-0.134131
C168	C	1.576408	0.363612	0.199203
C169	C	0.909764	-0.303049	-0.537432
C170	C	1.243097	0.030284	-0.204099
C171	C	1.576430	0.363618	0.129235
C172	C	0.909787	-0.138878	-0.303319
C173	C	1.243120	0.194456	0.030014
C174	C	1.576454	0.527789	0.363347
C175	C	0.909829	-0.068909	-0.303339
C176	C	1.243162	0.264424	0.029994
C177	C	1.576495	0.597757	0.363328
C178	C	0.950048	-0.262778	-0.570315
C179	C	1.283381	0.070555	-0.236982
C180	C	1.616714	0.403888	0.096351
C181	C	0.950047	-0.262751	-0.636058
C182	C	1.283380	0.070582	-0.302725
C183	C	1.616713	0.403916	0.030609
C184	C	0.909769	-0.303006	-0.668915
C185	C	1.243102	0.030328	-0.335581
C186	C	1.576435	0.363661	-0.002248
C187	C	0.869477	-0.343279	-0.636023
C188	C	1.202811	-0.009946	-0.302690
C189	C	1.536144	0.323388	0.030643
C190	C	0.869475	-0.343301	-0.570282
C191	C	1.202808	-0.009967	-0.236949
C192	C	1.536141	0.323366	0.096385
N193	N	0.904913	-0.358075	-0.772131
N194	N	1.238246	-0.024741	-0.438798
N195	N	1.571579	0.308592	-0.105464
N196	N	0.904919	-0.358052	-0.834582
N197	N	1.238252	-0.024719	-0.501249
N198	N	1.571585	0.308615	-0.167916
C199	C	0.909773	-0.302942	-0.866989
C200	C	1.243106	0.030392	-0.533656
C201	C	1.576439	0.363725	-0.200323
N202	N	0.914633	-0.247853	-0.834586
N203	N	1.247966	0.085480	-0.501252
N204	N	1.581299	0.418813	-0.167919
N205	N	0.914630	-0.247876	-0.772128
N206	N	1.247963	0.085457	-0.438795
N207	N	1.581297	0.418790	-0.105462
C208	C	0.909767	-0.302986	-0.740200
C209	C	1.243100	0.030347	-0.406867
C210	C	1.576433	0.363680	-0.073533
C211	C	0.950058	-0.262638	-0.971158
C212	C	1.283391	0.070695	-0.637825
C213	C	1.616724	0.404029	-0.304492
C214	C	0.950052	-0.262610	-1.036902
C215	C	1.283386	0.070724	-0.703569
C216	C	1.616719	0.404057	-0.370235
C217	C	0.869486	-0.343143	-1.036866
C218	C	1.202820	-0.009810	-0.703533
C219	C	1.536153	0.323523	-0.370200
C220	C	0.869488	-0.343166	-0.971124
C221	C	1.202821	-0.009833	-0.637790
C222	C	1.536155	0.323501	-0.304457
C223	C	0.909777	-0.302914	-0.938274
C224	C	1.243111	0.030419	-0.604940
C225	C	1.576444	0.363752	-0.271607
C226	C	0.909674	-0.303036	-0.139722
C227	C	1.243007	0.030298	0.193611
C228	C	1.576340	0.363631	0.526945
C229	C	0.909773	-0.302864	-0.069754
C230	C	1.243107	0.030469	0.263579
C231	C	1.576440	0.363803	0.596912
H232	H	0.550903	-0.230172	-0.376445
H233	H	0.884236	0.103161	-0.043112
H234	H	1.217569	0.436494	0.290221
H235	H	0.550685	-0.376030	-0.230098
H236	H	0.884018	-0.042697	0.103235
H237	H	1.217351	0.290636	0.436569
H238	H	0.982849	-0.229954	-0.662837
H239	H	1.316182	0.103379	-0.329503
H240	H	1.649516	0.436712	0.003830
H241	H	0.269329	-0.230121	-0.376469
H242	H	0.602662	0.103212	-0.043136
H243	H	0.935996	0.436546	0.290197
N244	N	0.991036	-0.668642	-0.384709
N245	N	1.324369	-0.335309	-0.051375
N246	N	1.657702	-0.001975	0.281958
N247	N	1.031171	-0.705288	-0.362592
N248	N	1.364504	-0.371954	-0.029258
N249	N	1.697837	-0.038621	0.304075
H250	H	1.060220	-0.728956	-0.391652
H251	H	1.393553	-0.395622	-0.058318
H252	H	1.726887	-0.062289	0.275015
H253	H	0.269114	-0.375982	-0.230117
H254	H	0.602448	-0.042649	0.103216
H255	H	0.935781	0.290684	0.436550
N256	N	0.828340	-0.384297	-0.937523
N257	N	1.161674	-0.050964	-0.604189
N258	N	1.495007	0.282369	-0.270856
N259	N	0.788240	-0.362165	-0.900825
N260	N	1.121573	-0.028832	-0.567491
N261	N	1.454907	0.304502	-0.234158
H262	H	0.759175	-0.391213	-0.877093
H263	H	1.092508	-0.057880	-0.543760
H264	H	1.425841	0.275453	-0.210427
N265	N	0.991202	-0.221509	-0.937607
N266	N	1.324535	0.111824	-0.604274
N267	N	1.657868	0.445157	-0.270940
N268	N	0.987056	-0.163422	-0.944949
N269	N	1.320389	0.169912	-0.611616
N270	N	1.653723	0.503245	-0.278282
H271	H	1.016113	-0.134373	-0.921255
H272	H	1.349447	0.198961	-0.587922
H273	H	1.682780	0.532294	-0.254588
N274	N	0.990983	-0.535756	-0.384699
N275	N	1.324317	-0.202422	-0.051366
N276	N	1.657650	0.130911	0.281967
N277	N	1.026919	-0.565054	-0.420675
N278	N	1.360253	-0.231720	-0.087342
N279	N	1.693586	0.101613	0.245991
H280	H	1.055946	-0.541302	-0.449743
H281	H	1.389280	-0.207968	-0.116409
H282	H	1.722613	0.125365	0.216924
N283	N	0.143274	-0.221763	-0.384836
N284	N	0.476608	0.111570	-0.051502
N285	N	0.809941	0.444904	0.281831
N286	N	0.150642	-0.226026	-0.442913
N287	N	0.483976	0.107307	-0.109580
N288	N	0.817309	0.440640	0.223753
H289	H	0.126983	-0.197019	-0.472019
H290	H	0.460316	0.136315	-0.138685
H291	H	0.793650	0.469648	0.194648
N292	N	0.828442	-0.936847	-0.221866
N293	N	1.161775	-0.603513	0.111467
N294	N	1.495109	-0.270180	0.444801
N295	N	0.828420	-0.878150	-0.221867
N296	N	1.161754	-0.544816	0.111467
N297	N	1.495087	-0.211483	0.444800
H298	H	0.799380	-0.854477	-0.192801
H299	H	1.132713	-0.521144	0.140532
H300	H	1.466047	-0.187811	0.473865
H301	H	0.149847	-0.375959	-0.230127
H302	H	0.483180	-0.042626	0.103207
H303	H	0.816513	0.290708	0.436540
N304	N	0.677006	-0.221879	-0.384794
N305	N	1.010339	0.111455	-0.051460
N306	N	1.343673	0.444788	0.281873
N307	N	0.713693	-0.244092	-0.424860
N308	N	1.047026	0.089241	-0.091527
N309	N	1.380360	0.422574	0.241807
H310	H	0.737457	-0.215101	-0.453953
H311	H	1.070791	0.118232	-0.120620
H312	H	1.404124	0.451565	0.212713
N313	N	0.828334	-0.384440	-0.536680
N314	N	1.161667	-0.051107	-0.203346
N315	N	1.495000	0.282227	0.129987
N316	N	0.828340	-0.384456	-0.477983
N317	N	1.161673	-0.051122	-0.144649
N318	N	1.495007	0.282211	0.188684
H319	H	0.799284	-0.413511	-0.454248
H320	H	1.132618	-0.080178	-0.120915
H321	H	1.465951	0.253156	0.212418
H322	H	0.836674	-0.662088	-0.230168
H323	H	1.170007	-0.328755	0.103165
H324	H	1.503340	0.004579	0.436499
H325	H	0.836621	-0.542817	-0.230148
H326	H	1.169954	-0.209483	0.103185
H327	H	1.503287	0.123850	0.436518
H328	H	0.982855	-0.229813	-1.063675
H329	H	1.316189	0.103520	-0.730341
H330	H	1.649522	0.436854	-0.397008
N331	N	0.676749	-0.384383	-0.221717
N332	N	1.010083	-0.051049	0.111616
N333	N	1.343416	0.282284	0.444950
N334	N	0.647342	-0.420263	-0.185709
N335	N	0.980675	-0.086930	0.147624
N336	N	1.314008	0.246403	0.480958
H337	H	0.671005	-0.449268	-0.156604
H338	H	1.004339	-0.115934	0.176729
H339	H	1.337672	0.217399	0.510063
H340	H	0.982793	-0.943413	-0.376419
H341	H	1.316126	-0.610080	-0.043086
H342	H	1.649460	-0.276746	0.290248
H343	H	0.982829	-1.062677	-0.376445
H344	H	1.316163	-0.729343	-0.043111
H345	H	1.649496	-0.396010	0.290222
N346	N	0.828485	-1.069756	-0.221889
N347	N	1.161819	-0.736422	0.111445
N348	N	1.495152	-0.403089	0.444778
N349	N	0.828510	-1.128453	-0.221905
N350	N	1.161843	-0.795119	0.111428
N351	N	1.495177	-0.461786	0.444762
H352	H	0.799488	-1.152222	-0.192846
H353	H	1.132821	-0.818888	0.140487
H354	H	1.466155	-0.485555	0.473821
H355	H	0.982853	-0.230001	-0.543573
H356	H	1.316187	0.103332	-0.210240
H357	H	1.649520	0.436665	0.123094
H358	H	0.836681	-0.376052	-0.662779
H359	H	1.170014	-0.042719	-0.329446
H360	H	1.503347	0.290614	0.003887
N361	N	0.828340	-0.384253	-1.070430
N362	N	1.161674	-0.050920	-0.737097
N363	N	1.495007	0.282414	-0.403763
N364	N	0.828344	-0.384226	-1.129127
N365	N	1.161677	-0.050893	-0.795794
N366	N	1.495011	0.282441	-0.462460
H367	H	0.799282	-0.413259	-1.152835
H368	H	1.132615	-0.079925	-0.819502
H369	H	1.465948	0.253408	-0.486168
