data_functionalizedCrystal
_audit_creation_method	'MofGen! by Chris Wilmer'
_symmetry_space_group_name_H-M	'P1'
_symmetry_Int_Tables_number	1
_symmetry_cell_setting	triclinic
loop_
_symmetry_equiv_pos_as_xyz
  x,y,z
_cell_length_a	19.121063
_cell_length_b	14.908618
_cell_length_c	14.908308
_cell_angle_alpha	90.173623
_cell_angle_beta	84.445373
_cell_angle_gamma	90.697640
loop_
_atom_site_label
_atom_site_type_symbol
_atom_site_fract_x
_atom_site_fract_y
_atom_site_fract_z
Zn1	Zn	-0.366448	-1.324068	0.606430
Zn2	Zn	0.133552	-0.824068	1.106430
Zn3	Zn	-0.477506	-1.326216	0.461772
Zn4	Zn	0.022494	-0.826216	0.961772
Zn5	Zn	-0.352958	-1.183165	0.446731
Zn6	Zn	0.147042	-0.683165	0.946731
Zn7	Zn	-0.476668	-1.167292	0.603376
Zn8	Zn	0.023332	-0.667292	1.103376
O9	O	-0.418395	-1.250185	0.529577
O10	O	0.081605	-0.750185	1.029577
O11	O	-0.387176	-1.449832	0.594813
O12	O	0.112824	-0.949832	1.094813
O13	O	-0.455690	-1.314781	0.333680
O14	O	0.044310	-0.814781	0.833680
O15	O	-0.256496	-1.207600	0.462899
O16	O	0.243504	-0.707600	0.962899
O17	O	-0.468770	-1.451409	0.488533
O18	O	0.031230	-0.951409	0.988533
O19	O	-0.266407	-1.311121	0.580229
O20	O	0.233593	-0.811121	1.080229
O21	O	-0.364185	-1.209683	0.322630
O22	O	0.135815	-0.709683	0.822630
O23	O	-0.363373	-1.055581	0.459938
O24	O	0.136627	-0.555581	0.959938
O25	O	-0.467342	-1.180547	0.729878
O26	O	0.032658	-0.680547	1.229878
O27	O	-0.454262	-1.043919	0.575024
O28	O	0.045738	-0.543919	1.075024
O29	O	-0.386363	-1.295730	0.732121
O30	O	0.113637	-0.795730	1.232121
O31	O	-0.575646	-1.299390	0.485572
O32	O	-0.075646	-0.799390	0.985572
O33	O	-0.575031	-1.182630	0.589608
O34	O	-0.075031	-0.682630	1.089608
C35	C	-0.407263	-1.017215	0.515518
C36	C	0.092737	-0.517215	1.015518
C37	C	-0.402518	-0.917547	0.509526
C38	C	0.097482	-0.417547	1.009526
C39	C	-0.488379	-0.718167	0.617958
C40	C	0.011621	-0.218167	1.117958
C41	C	-0.483923	-0.624519	0.612331
C42	C	0.016077	-0.124519	1.112331
C43	C	-0.389149	-0.636603	0.492650
C44	C	0.110851	-0.136603	0.992650
C45	C	-0.393604	-0.730250	0.498277
C46	C	0.106396	-0.230250	0.998277
C47	C	-0.443222	-0.771029	0.560932
C48	C	0.056778	-0.271029	1.060932
C49	C	-0.447680	-0.864678	0.566554
C50	C	0.052320	-0.364678	1.066554
C51	C	-0.352903	-0.876760	0.446879
C52	C	0.147097	-0.376760	0.946879
C53	C	-0.348448	-0.783113	0.441252
C54	C	0.151552	-0.283113	0.941252
C55	C	-0.600816	-1.239544	0.538912
C56	C	-0.100816	-0.739544	1.038912
C57	C	-0.678861	-1.235072	0.542941
C58	C	-0.178861	-0.735072	1.042941
C59	C	-0.715829	-1.293803	0.490718
C60	C	-0.215829	-0.793803	0.990718
C61	C	-0.789161	-1.289602	0.494512
C62	C	-0.289161	-0.789602	0.994512
C63	C	-0.825525	-1.226665	0.550525
C64	C	-0.325525	-0.726665	1.050525
C65	C	-0.788552	-1.167930	0.602754
C66	C	-0.288552	-0.667930	1.102754
C67	C	-0.715222	-1.172136	0.598964
C68	C	-0.215222	-0.672136	1.098964
C69	C	-1.046921	-1.210926	0.564681
C70	C	-0.546921	-0.710926	1.064681
C71	C	-1.120257	-1.206722	0.568466
C72	C	-0.620257	-0.706722	1.068466
C73	C	-1.120861	-1.328396	0.460224
C74	C	-0.620861	-0.828396	0.960224
C75	C	-1.047528	-1.332593	0.456435
C76	C	-0.547528	-0.832593	0.956435
C77	C	-1.010563	-1.273862	0.508667
C78	C	-0.510563	-0.773862	1.008667
C79	C	-0.900482	-1.222367	0.554403
C80	C	-0.400482	-0.722367	1.054403
C81	C	-0.935607	-1.278164	0.504794
C82	C	-0.435607	-0.778164	1.004794
C83	C	-0.235264	-1.260892	0.520227
C84	C	0.264736	-0.760892	1.020227
C85	C	-0.157224	-1.265454	0.516243
C86	C	0.342776	-0.765454	1.016243
C87	C	-0.428264	-1.236129	0.764609
C88	C	0.071736	-0.736129	1.264609
C89	C	-0.432470	-1.230138	0.864765
C90	C	0.067530	-0.730138	1.364765
C91	C	-0.429565	-0.484066	0.543685
C92	C	0.070435	0.015934	1.043685
C93	C	-0.434311	-0.583734	0.549678
C94	C	0.065689	-0.083734	1.049678
C95	C	-0.408516	-1.264242	0.295461
C96	C	0.091484	-0.764242	0.795461
C97	C	-0.404121	-1.270417	0.195305
C98	C	0.095879	-0.770417	0.695305
C99	C	-0.356033	-1.338820	1.055307
C100	C	0.143967	-0.838820	1.555307
C101	C	-0.359982	-1.333195	1.149413
C102	C	0.140018	-0.833195	1.649413
C103	C	-0.444313	-1.213259	1.147084
C104	C	0.055687	-0.713259	1.647084
C105	C	-0.440364	-1.218884	1.052978
C106	C	0.059636	-0.718884	1.552978
C107	C	-0.396223	-1.281668	1.007093
C108	C	0.103777	-0.781668	1.507093
C109	C	-0.392278	-1.287297	0.912986
C110	C	0.107722	-0.787297	1.412986
C111	C	-0.476605	-1.167357	0.910659
C112	C	0.023395	-0.667357	1.410659
C113	C	-0.480554	-1.161732	1.004765
C114	C	0.019446	-0.661732	1.504765
H115	H	-0.348749	-0.603385	0.441646
H116	H	0.151251	-0.103385	0.941646
N117	N	-0.528166	-1.094027	1.054262
N118	N	-0.028166	-0.594027	1.554262
H119	H	-0.553029	-1.058677	1.009436
H120	H	-0.053029	-0.558677	1.509436
H121	H	-0.499247	-1.051862	1.089343
H122	H	0.000753	-0.551862	1.589343
N123	N	-0.829030	-1.352948	0.438182
N124	N	-0.329030	-0.852948	0.938182
H125	H	-0.856003	-1.317292	0.395776
H126	H	-0.356003	-0.817292	0.895776
H127	H	-0.862895	-1.390528	0.478972
H128	H	-0.362895	-0.890528	0.978972
N129	N	-0.316628	-1.394829	1.201416
N130	N	0.183372	-0.894829	1.701416
H131	H	-0.288066	-1.435451	1.158065
H132	H	0.211934	-0.935451	1.658065
H133	H	-0.348823	-1.432326	1.244428
H134	H	0.151177	-0.932326	1.744428
H135	H	-0.480250	-1.162143	1.184461
H136	H	0.019750	-0.662143	1.684461
H137	H	-0.308049	-0.749898	0.390242
H138	H	0.191951	-0.249898	0.890242
H139	H	-0.818166	-1.116689	0.648366
H140	H	-0.318166	-0.616689	1.148366
N141	N	-0.304198	-0.933775	0.385361
N142	N	0.195802	-0.433775	0.885361
H143	H	-0.314550	-0.999289	0.398428
H144	H	0.185450	-0.499289	0.898428
H145	H	-0.253883	-0.919484	0.395935
H146	H	0.246117	-0.419484	0.895935
N147	N	-1.160739	-1.391739	0.403903
N148	N	-0.660739	-0.891739	0.903903
H149	H	-1.151579	-1.455690	0.421154
H150	H	-0.651579	-0.955690	0.921154
H151	H	-1.144626	-1.382372	0.338032
H152	H	-0.644626	-0.882372	0.838032
N153	N	-0.344677	-1.355015	0.863490
N154	N	0.155323	-0.855015	1.363490
H155	H	-0.294532	-1.343041	0.876457
H156	H	0.205468	-0.843041	1.376457
H157	H	-0.348338	-1.349874	0.796577
H158	H	0.151662	-0.849874	1.296577
H159	H	-0.528782	-0.751369	0.668969
H160	H	-0.028782	-0.251369	1.168969
H161	H	-0.509332	-1.120821	0.871393
H162	H	-0.009332	-0.620821	1.371393
H163	H	-0.488082	-0.897878	0.617570
H164	H	0.011918	-0.397878	1.117570
H165	H	-0.520693	-0.581482	0.658769
H166	H	-0.020693	-0.081482	1.158769
H167	H	-0.320095	-1.389945	1.017947
H168	H	0.179905	-0.889945	1.517947
H169	H	-1.017923	-1.383841	0.410825
H170	H	-0.517923	-0.883841	0.910825
H171	H	-0.686226	-1.345050	0.445102
H172	H	-0.186226	-0.845050	0.945102
N173	N	-1.159478	-1.138835	0.628883
N174	N	-0.659478	-0.638835	1.128883
H175	H	-1.150058	-1.149595	0.693455
H176	H	-0.650058	-0.649595	1.193455
H177	H	-1.211526	-1.145116	0.623276
H178	H	-0.711526	-0.645116	1.123276
H179	H	-1.016830	-1.163103	0.607209
H180	H	-0.516830	-0.663103	1.107209
H181	H	-0.685124	-1.124312	0.641491
H182	H	-0.185124	-0.624312	1.141491
N183	N	-0.896385	-1.346042	0.444383
N184	N	-0.396385	-0.846042	0.944383
H185	H	-0.905807	-1.335283	0.379812
H186	H	-0.405807	-0.835283	0.879812
H187	H	-0.912762	-1.408501	0.463023
H188	H	-0.412762	-0.908501	0.963023
N189	N	-0.939700	-1.154478	0.614810
N190	N	-0.439700	-0.654478	1.114810
H191	H	-0.973580	-1.186641	0.660365
H192	H	-0.473580	-0.686641	1.160365
H193	H	-0.966601	-1.113423	0.577154
H194	H	-0.466601	-0.613423	1.077154
