data_functionalizedCrystal
_audit_creation_method	'MofGen! by Chris Wilmer'
_symmetry_space_group_name_H-M	'P1'
_symmetry_Int_Tables_number	1
_symmetry_cell_setting	triclinic
loop_
_symmetry_equiv_pos_as_xyz
  x,y,z
_cell_length_a	12.759399
_cell_length_b	18.215398
_cell_length_c	18.215407
_cell_angle_alpha	89.983001
_cell_angle_beta	90.013189
_cell_angle_gamma	89.979136
loop_
_atom_site_label
_atom_site_type_symbol
_atom_site_fract_x
_atom_site_fract_y
_atom_site_fract_z
Zn1	Zn	-0.418375	-0.416091	1.125116
Zn2	Zn	-0.594065	-0.293034	1.125045
Zn3	Zn	-0.418392	-0.293043	1.002049
Zn4	Zn	-0.594005	-0.416064	1.002034
O5	O	-0.506209	-0.354558	1.063561
O6	O	-0.441698	-0.399774	1.228091
O7	O	-0.570794	-0.190051	1.108706
O8	O	-0.271369	-0.309381	1.018411
O9	O	-0.570777	-0.309365	1.228039
O10	O	-0.271356	-0.399783	1.108827
O11	O	-0.441728	-0.190058	1.018342
O12	O	-0.441670	-0.309355	0.899063
O13	O	-0.570675	-0.519052	1.018385
O14	O	-0.570691	-0.399738	0.899052
O15	O	-0.441640	-0.519072	1.108812
O16	O	-0.741078	-0.309340	1.108691
O17	O	-0.741034	-0.399729	1.018316
C18	C	-0.506177	-0.354545	0.872355
C19	C	-0.506188	-0.354557	0.790556
C20	C	-0.779177	-0.354547	1.063514
C21	C	-0.895953	-0.354566	1.063561
C22	C	-0.506149	-0.546511	1.063605
C23	C	-0.506123	-0.628310	1.063623
C24	C	-0.950830	-0.401598	1.016495
C25	C	-1.060554	-0.401612	1.016541
C26	C	-1.060514	-0.307561	1.110725
C27	C	-0.950792	-0.307543	1.110675
C28	C	-1.210592	-0.427855	0.929803
C29	C	-1.265473	-0.474898	0.882744
C30	C	-1.229816	-0.546691	0.871387
C31	C	-1.139280	-0.571456	0.907101
C32	C	-1.084405	-0.524416	0.954166
C33	C	-1.120060	-0.452613	0.965508
C34	C	-0.800753	-0.281308	1.197414
C35	C	-0.745875	-0.234272	1.244483
C36	C	-0.781530	-0.162478	1.255847
C37	C	-0.872069	-0.137716	1.220146
C38	C	-0.926947	-0.184752	1.173077
C39	C	-0.891284	-0.256546	1.161712
C40	C	-0.232176	-0.354586	1.063628
C41	C	-0.115399	-0.354598	1.063657
C42	C	-0.573198	-0.893369	1.110709
C43	C	-0.573234	-0.816510	1.110698
C44	C	-0.438845	-0.816500	1.016593
C45	C	-0.438815	-0.893358	1.016601
C46	C	-0.505990	-0.931790	1.063663
C47	C	-0.506057	-0.778074	1.063644
C48	C	-0.506096	-0.694740	1.063631
C49	C	-0.505952	-1.015129	1.063675
C50	C	-0.506193	-0.163352	1.063560
C51	C	-0.505923	-0.081554	1.063684
C52	C	-0.439116	-0.401708	0.602388
C53	C	-0.439125	-0.401710	0.525529
C54	C	-0.573332	-0.307422	0.525486
C55	C	-0.573317	-0.307416	0.602343
C56	C	-0.506210	-0.354563	0.640792
C57	C	-0.506234	-0.354571	0.487076
C58	C	-0.506245	-0.354574	0.403743
C59	C	-0.506198	-0.354560	0.724131
C60	C	-0.506242	-0.354572	1.255514
C61	C	-0.506256	-0.354577	1.337313
H62	H	-0.906183	-0.439886	0.978132
O63	O	-0.762279	-0.358744	1.185158
H64	H	-0.744757	-0.366789	1.126022
H65	H	-0.901104	-0.079256	1.229402
O66	O	-1.100833	-0.648896	0.894850
H67	H	-1.099548	-0.678707	0.947996
H68	H	-0.627897	-0.924658	1.149030
H69	H	-0.627962	-0.785231	1.149008
O70	O	-0.366310	-0.934800	0.965860
H71	H	-0.377582	-0.994700	0.973770
H72	H	-0.384153	-0.785199	0.978277
O73	O	-0.645682	-0.256559	0.643769
H74	H	-0.699183	-0.289428	0.678802
O75	O	-0.722346	-0.111742	1.306616
H76	H	-0.653397	-0.141018	1.329536
O77	O	-0.986756	-0.551124	0.992673
H78	H	-0.998215	-0.547691	1.052976
H79	H	-0.384470	-0.440096	0.633691
O80	O	-0.366761	-0.452560	0.484105
H81	H	-0.320103	-0.485344	0.523756
O82	O	-0.645715	-0.256575	0.484017
H83	H	-0.634462	-0.264502	0.424121
H84	H	-1.274508	-0.584994	0.833070
H85	H	-1.000670	-0.164585	1.144009
H86	H	-1.339188	-0.454728	0.853666
O87	O	-1.249067	-0.350424	0.942070
H88	H	-1.321256	-0.341119	0.909347
H89	H	-0.672155	-0.254440	1.273554
O90	O	-1.119660	-0.256868	1.161563
H91	H	-1.205177	-0.264793	1.153705
