data_functionalizedCrystal
_audit_creation_method	'MofGen! by Chris Wilmer'
_symmetry_space_group_name_H-M	'P1'
_symmetry_Int_Tables_number	1
_symmetry_cell_setting	triclinic
loop_
_symmetry_equiv_pos_as_xyz
  x,y,z
_cell_length_a	10.540539
_cell_length_b	19.288867
_cell_length_c	17.766277
_cell_angle_alpha	89.992126
_cell_angle_beta	89.995823
_cell_angle_gamma	83.831280
loop_
_atom_site_label
_atom_site_type_symbol
_atom_site_fract_x
_atom_site_fract_y
_atom_site_fract_z
O1	O	0.158357	0.922409	-0.062564
O2	O	0.658357	1.422409	0.437436
O3	O	0.179715	0.720291	-0.062571
O4	O	0.679715	1.220291	0.437429
O5	O	-0.015773	0.825961	-0.062567
O6	O	0.484227	1.325961	0.437433
O7	O	0.353845	0.816739	-0.062569
O8	O	0.853845	1.316739	0.437431
O9	O	-0.015783	0.825942	0.062622
O10	O	0.484217	1.325942	0.562622
O11	O	0.179705	0.720272	0.062617
O12	O	0.679705	1.220272	0.562617
O13	O	0.158347	0.922390	0.062624
O14	O	0.658347	1.422390	0.562624
Cu15	Cu	0.169025	0.821329	0.074051
Cu16	Cu	0.669025	1.321329	0.574051
Cu17	Cu	0.169037	0.821352	-0.073999
Cu18	Cu	0.669037	1.321352	0.426001
O19	O	0.353835	0.816720	0.062620
O20	O	0.853835	1.316720	0.562620
C21	C	0.179022	0.694400	0.000022
C22	C	0.679022	1.194400	0.500022
C23	C	0.176958	0.617283	0.000019
C24	C	0.676958	1.117283	0.500019
C25	C	0.162095	0.061629	-0.068212
C26	C	0.662095	0.561629	0.431788
C27	C	0.164027	0.134089	-0.068215
C28	C	0.664027	0.634089	0.431785
C29	C	0.164994	0.170314	0.000025
C30	C	0.664994	0.670314	0.500025
C31	C	0.163995	0.134075	0.068273
C32	C	0.663995	0.634075	0.568273
C33	C	0.162051	0.061616	0.068274
C34	C	0.662051	0.561616	0.568274
C35	C	0.242414	0.280150	0.052306
C36	C	0.742414	0.780150	0.552306
C37	C	0.244366	0.352607	0.052302
C38	C	0.744366	0.852607	0.552302
C39	C	0.170986	0.393800	0.000025
C40	C	0.670986	0.893800	0.500025
C41	C	0.095669	0.362527	-0.052260
C42	C	0.595669	0.862527	0.447740
C43	C	0.093725	0.290068	-0.052259
C44	C	0.593725	0.790068	0.447741
C45	C	0.167101	0.248883	0.000032
C46	C	0.667101	0.748883	0.500032
C47	C	0.174070	0.508601	-0.068221
C48	C	0.674070	1.008601	0.431779
C49	C	0.175994	0.581063	-0.068221
C50	C	0.675994	1.081063	0.431779
C51	C	0.175975	0.581046	0.068269
C52	C	0.675975	1.081046	0.568269
C53	C	0.174038	0.508586	0.068267
C54	C	0.674038	1.008586	0.568267
C55	C	0.173092	0.472367	0.000020
C56	C	0.673092	0.972367	0.500020
C57	C	-0.063066	0.825260	0.000026
C58	C	0.436934	1.325260	0.500026
C59	C	-0.203968	0.823191	0.000022
C60	C	0.296032	1.323191	0.500022
C61	C	-0.385628	0.743902	-0.000262
C62	C	0.114372	1.243902	0.499738
C63	C	-0.239057	0.745999	0.000020
C64	C	0.260943	1.245999	0.500020
C65	C	-0.266458	0.860328	0.071512
C66	C	0.233542	1.360328	0.571512
C67	C	-0.412944	0.857694	0.071572
C68	C	0.087056	1.357694	0.571572
C69	C	-0.413486	0.859285	-0.070790
C70	C	0.086514	1.359285	0.429210
C71	C	-0.266520	0.859996	-0.071736
C72	C	0.233480	1.359996	0.428264
C73	C	0.401128	0.817421	0.000025
C74	C	0.901128	1.317421	0.500025
C75	C	0.542030	0.819490	0.000024
C76	C	1.042030	1.319490	0.500024
C77	C	0.159040	0.948280	0.000029
C78	C	0.659040	1.448280	0.500029
C79	C	0.161104	1.025398	0.000027
C80	C	0.661104	1.525398	0.500027
N81	N	0.169016	0.821319	0.178182
N82	N	0.669016	1.321319	0.678182
N83	N	0.169036	0.821368	-0.178129
N84	N	0.669036	1.321368	0.321871
C85	C	0.082497	0.868125	0.217571
C86	C	0.582497	1.368125	0.717571
C87	C	0.082491	0.868129	0.296372
C88	C	0.582491	1.368129	0.796372
C89	C	0.169026	0.821333	0.335782
C90	C	0.669026	1.321333	0.835782
C91	C	0.255553	0.774518	0.296384
C92	C	0.755553	1.274518	0.796384
C93	C	0.255548	0.774511	0.217584
C94	C	0.755548	1.274511	0.717584
C95	C	0.284681	0.812806	0.460619
C96	C	0.784681	1.312806	0.960619
C97	C	0.284687	0.812819	0.539418
C98	C	0.784687	1.312819	1.039418
C99	C	0.169042	0.821352	0.578829
C100	C	0.669042	1.321352	1.078829
C101	C	0.053384	0.829888	0.539431
C102	C	0.553384	1.329888	1.039431
C103	C	0.053379	0.829881	0.460630
C104	C	0.553379	1.329881	0.960630
C105	C	0.169041	0.821336	0.421228
C106	C	0.669041	1.321336	0.921228
C107	C	0.082508	0.868165	0.703663
C108	C	0.582508	1.368165	1.203663
C109	C	0.082501	0.868164	0.782467
C110	C	0.582501	1.368164	1.282467
C111	C	0.255574	0.774557	0.782477
C112	C	0.755574	1.274557	1.282477
C113	C	0.255571	0.774555	0.703675
C114	C	0.755571	1.274555	1.203675
C115	C	0.169039	0.821362	0.664273
C116	C	0.669039	1.321362	1.164273
H117	H	0.176791	0.610562	-0.123792
H118	H	0.676791	1.110562	0.376208
H119	H	-0.415163	0.713526	0.050716
H120	H	0.084837	1.213526	0.550716
F121	F	-0.183621	0.707514	0.067111
F122	F	0.316379	1.207514	0.567111
H123	H	0.161319	0.032144	-0.123784
H124	H	0.661319	0.532144	0.376216
F125	F	-0.238893	0.934422	0.074992
F126	F	0.261107	1.434422	0.574992
F127	F	-0.009601	0.917939	0.175638
F128	F	0.490399	1.417939	0.675638
F129	F	0.347663	0.724740	0.661751
F130	F	0.847663	1.224740	1.161751
H131	H	0.305724	0.378061	0.094860
H132	H	0.805724	0.878061	0.594860
H133	H	0.302163	0.246616	0.094884
H134	H	0.802163	0.746616	0.594884
H135	H	-0.440536	0.830232	0.125011
H136	H	0.059464	1.330232	0.625011
H137	H	0.164841	0.163594	-0.123785
H138	H	0.664841	0.663594	0.376215
F139	F	-0.009591	0.917979	0.661728
F140	F	0.490409	1.417979	1.161728
H141	H	-0.461954	0.915040	-0.071269
H142	H	0.038046	1.415040	0.428731
F143	F	0.347664	0.724750	0.824416
F144	F	0.847664	1.224750	1.324416
H145	H	-0.413545	0.713417	-0.051528
H146	H	0.086455	1.213417	0.448472
F147	F	0.017571	0.406361	-0.107903
F148	F	0.517571	0.906361	0.392097
F149	F	-0.009596	0.917980	0.824389
F150	F	0.490404	1.417980	1.324389
H151	H	0.173295	0.479110	-0.123792
H152	H	0.673295	0.979110	0.376208
F153	F	0.013566	0.256788	-0.107901
F154	F	0.513566	0.756788	0.392099
H155	H	0.176757	0.610540	0.123831
H156	H	0.676757	1.110540	0.623831
F157	F	0.161000	0.023055	0.140907
F158	F	0.661000	0.523055	0.640907
H159	H	-0.223288	0.834515	0.124711
H160	H	0.276712	1.334515	0.624711
H161	H	-0.462149	0.913208	0.074817
H162	H	0.037851	1.413208	0.574817
F163	F	-0.453981	0.826636	-0.141615
F164	F	0.046019	1.326636	0.358385
H165	H	0.173236	0.479086	0.123834
H166	H	0.673236	0.979086	0.623834
F167	F	-0.009600	0.917949	0.338300
F168	F	0.490400	1.417949	0.838300
F169	F	-0.236493	0.933556	-0.077381
F170	F	0.263507	1.433556	0.422619
H171	H	0.378862	0.805872	0.571490
H172	H	0.878862	1.305872	1.071490
F173	F	0.165020	0.172629	0.140899
F174	F	0.665020	0.672629	0.640899
F175	F	-0.211730	0.824758	-0.140872
F176	F	0.288270	1.324758	0.359128
F177	F	0.347647	0.724713	0.338327
F178	F	0.847647	1.224713	0.838327
F179	F	-0.182511	0.707804	-0.066963
F180	F	0.317489	1.207804	0.433037
F181	F	-0.069708	0.838959	0.418703
F182	F	0.430292	1.338959	0.918703
H183	H	-0.040785	0.836837	0.571517
H184	H	0.459215	1.336837	1.071517
H185	H	0.378859	0.805845	0.428538
H186	H	0.878859	1.305845	0.928538
F187	F	0.347638	0.724691	0.175661
F188	F	0.847638	1.224691	0.675661
