data_functionalizedCrystal
_audit_creation_method	'MofGen! by Chris Wilmer'
_symmetry_space_group_name_H-M	'P1'
_symmetry_Int_Tables_number	1
_symmetry_cell_setting	triclinic
loop_
_symmetry_equiv_pos_as_xyz
  x,y,z
_cell_length_a	13.032831
_cell_length_b	16.120484
_cell_length_c	13.032268
_cell_angle_alpha	99.642751
_cell_angle_beta	90.886977
_cell_angle_gamma	86.078521
loop_
_atom_site_label
_atom_site_type_symbol
_atom_site_fract_x
_atom_site_fract_y
_atom_site_fract_z
Zn1	Zn	1.458766	-0.562103	-0.811459
Zn2	Zn	1.958766	-0.062103	-0.311459
Zn3	Zn	1.471747	-0.686112	-0.646236
Zn4	Zn	1.971747	-0.186112	-0.146236
Zn5	Zn	1.311081	-0.527333	-0.615806
Zn6	Zn	1.811081	-0.027333	-0.115806
Zn7	Zn	1.278313	-0.681612	-0.796116
Zn8	Zn	1.778313	-0.181612	-0.296116
O9	O	1.379976	-0.614290	-0.717404
O10	O	1.879976	-0.114290	-0.217404
O11	O	1.603247	-0.594988	-0.808698
O12	O	2.103247	-0.094988	-0.308698
O13	O	1.469580	-0.652382	-0.497592
O14	O	1.969580	-0.152382	0.002408
O15	O	1.338953	-0.415480	-0.635446
O16	O	1.838953	0.084520	-0.135446
O17	O	1.612784	-0.686097	-0.687309
O18	O	2.112784	-0.186097	-0.187309
O19	O	1.447456	-0.441026	-0.779192
O20	O	1.947456	0.058974	-0.279192
O21	O	1.351539	-0.535727	-0.475236
O22	O	1.851539	-0.035727	0.024764
O23	O	1.163974	-0.531364	-0.620568
O24	O	1.663974	-0.031364	-0.120568
O25	O	1.283104	-0.678427	-0.942758
O26	O	1.783104	-0.178427	-0.442758
O27	O	1.139900	-0.644712	-0.753041
O28	O	1.639900	-0.144712	-0.253041
O29	O	1.415682	-0.590624	-0.954031
O30	O	1.915682	-0.090624	-0.454031
O31	O	1.437806	-0.801980	-0.672431
O32	O	1.937806	-0.301980	-0.172431
O33	O	1.295691	-0.798674	-0.782547
O34	O	1.795691	-0.298674	-0.282547
C35	C	1.114921	-0.583777	-0.681838
C36	C	1.614921	-0.083777	-0.181838
C37	C	1.001525	-0.570746	-0.666648
C38	C	1.501525	-0.070746	-0.166648
C39	C	0.939092	-0.621091	-0.725332
C40	C	1.439092	-0.121091	-0.225332
C41	C	0.821890	-0.607624	-0.709634
C42	C	1.321890	-0.107624	-0.209634
C43	C	1.364626	-0.830530	-0.729153
C44	C	1.864626	-0.330530	-0.229153
C45	C	1.358148	-0.923053	-0.734226
C46	C	1.858148	-0.423053	-0.234226
C47	C	1.346324	-1.092455	-0.743510
C48	C	1.846324	-0.592455	-0.243510
C49	C	1.413810	-1.135307	-0.691340
C50	C	1.913810	-0.635307	-0.191340
C51	C	1.407231	-1.229569	-0.696506
C52	C	1.907231	-0.729569	-0.196506
C53	C	1.352901	-0.998185	-0.738345
C54	C	1.852901	-0.498185	-0.238345
C55	C	1.646067	-0.644923	-0.753110
C56	C	2.146067	-0.144923	-0.253110
C57	C	1.759458	-0.657977	-0.768325
C58	C	2.259458	-0.157977	-0.268325
C59	C	1.344290	-0.637902	-0.986938
C60	C	1.844290	-0.137902	-0.486938
C61	C	1.329082	-0.647964	-1.101797
C62	C	1.829082	-0.147964	-0.601797
C63	C	1.395412	-0.397210	-0.705636
C64	C	1.895412	0.102790	-0.205636
C65	C	1.401989	-0.304704	-0.700622
C66	C	1.901989	0.195296	-0.200622
C67	C	1.387900	-0.609007	-1.158582
C68	C	1.887900	-0.109007	-0.658582
C69	C	1.372183	-0.619405	-1.277296
C70	C	1.872183	-0.119405	-0.777296
C71	C	1.415587	-0.590717	-0.448924
C72	C	1.915587	-0.090717	0.051076
C73	C	1.431009	-0.580443	-0.334079
C74	C	1.931009	-0.080443	0.165921
H75	H	0.968208	-0.517670	-0.604790
H76	H	1.468208	-0.017670	-0.104790
C77	C	0.724274	-0.773604	-0.903107
C78	C	1.224274	-0.273604	-0.403107
C79	C	0.804414	-0.729630	-0.851848
C80	C	1.304414	-0.229630	-0.351848
H81	H	0.752030	-0.817835	-0.954672
H82	H	1.252030	-0.317835	-0.454672
H83	H	0.686418	-0.796691	-0.854217
H84	H	1.186418	-0.296691	-0.354217
H85	H	0.680033	-0.736109	-0.935209
H86	H	1.180033	-0.236109	-0.435209
H87	H	0.848651	-0.767124	-0.819739
H88	H	1.348651	-0.267124	-0.319739
H89	H	0.842287	-0.706544	-0.900746
H90	H	1.342287	-0.206544	-0.400746
C91	C	1.426010	-0.488127	-1.032889
C92	C	1.926010	0.011873	-0.532889
C93	C	1.471590	-0.553591	-1.105576
C94	C	1.971590	-0.053591	-0.605576
H95	H	1.477682	-0.453921	-1.000164
H96	H	1.977682	0.046079	-0.500164
H97	H	1.378306	-0.454837	-1.067311
H98	H	1.878306	0.045163	-0.567311
H99	H	1.391144	-0.511231	-0.981888
H100	H	1.891144	-0.011231	-0.481888
H101	H	1.506450	-0.530488	-1.156582
H102	H	2.006450	-0.030488	-0.656582
H103	H	1.519313	-0.586887	-1.071153
H104	H	2.019313	-0.086887	-0.571153
C105	C	1.194011	-0.737415	-1.079593
C106	C	1.694011	-0.237415	-0.579593
C107	C	1.245392	-0.703383	-1.154798
C108	C	1.745392	-0.203383	-0.654798
H109	H	1.142339	-0.771624	-1.112314
H110	H	1.642339	-0.271624	-0.612314
H111	H	1.241729	-0.770706	-1.045187
H112	H	1.741729	-0.270706	-0.545187
H113	H	1.163104	-0.692992	-1.030286
H114	H	1.663104	-0.192992	-0.530286
H115	H	1.276305	-0.747806	-1.204101
H116	H	1.776305	-0.247806	-0.704101
H117	H	1.197666	-0.670090	-1.189222
H118	H	1.697666	-0.170090	-0.689222
C119	C	1.469091	-0.459538	-1.208418
C120	C	1.969091	0.040462	-0.708418
C121	C	1.514691	-0.525003	-1.281090
C122	C	2.014691	-0.025003	-0.781090
H123	H	1.520751	-0.425313	-1.175705
H124	H	2.020751	0.074687	-0.675705
H125	H	1.421371	-0.426267	-1.242848
H126	H	1.921371	0.073733	-0.742848
H127	H	1.434241	-0.482641	-1.157405
H128	H	1.934241	0.017359	-0.657405
H129	H	1.549535	-0.501901	-1.332107
H130	H	2.049535	-0.001901	-0.832107
H131	H	1.562429	-0.558279	-1.246659
H132	H	2.062429	-0.058279	-0.746659
H133	H	1.476527	-1.101202	-0.642796
H134	H	1.976527	-0.601202	-0.142796
C135	C	1.289130	-0.674412	-1.437638
C136	C	1.789130	-0.174412	-0.937638
C137	C	1.288497	-0.674834	-1.330295
C138	C	1.788497	-0.174834	-0.830295
H139	H	1.237471	-0.708636	-1.470357
H140	H	1.737471	-0.208636	-0.970357
H141	H	1.275848	-0.618314	-1.450236
H142	H	1.775848	-0.118314	-0.950236
H143	H	1.354497	-0.696012	-1.465122
H144	H	1.854497	-0.196012	-0.965122
H145	H	1.223131	-0.653228	-1.302810
H146	H	1.723131	-0.153228	-0.802810
H147	H	1.301771	-0.730943	-1.317690
H148	H	1.801771	-0.230943	-0.817690
H149	H	1.283610	-1.126557	-0.792048
H150	H	1.783610	-0.626557	-0.292048
C151	C	1.039877	-0.658691	-0.880899
C152	C	1.539877	-0.158691	-0.380899
C153	C	0.984060	-0.692740	-0.808846
C154	C	1.484060	-0.192740	-0.308846
H155	H	1.067641	-0.702927	-0.932454
H156	H	1.567641	-0.202927	-0.432454
H157	H	0.995628	-0.621215	-0.913005
H158	H	1.495628	-0.121215	-0.413005
H159	H	1.094229	-0.628850	-0.846103
H160	H	1.594229	-0.128850	-0.346103
H161	H	0.929703	-0.722577	-0.843641
H162	H	1.429703	-0.222577	-0.343641
H163	H	1.028312	-0.730231	-0.776738
H164	H	1.528312	-0.230231	-0.276738
H165	H	0.788578	-0.554544	-0.647771
H166	H	1.288578	-0.054544	-0.147771
