data_functionalizedCrystal
_audit_creation_method	'MofGen! by Chris Wilmer'
_symmetry_space_group_name_H-M	'P1'
_symmetry_Int_Tables_number	1
_symmetry_cell_setting	triclinic
loop_
_symmetry_equiv_pos_as_xyz
  x,y,z
_cell_length_a	12.827893
_cell_length_b	12.645330
_cell_length_c	12.827885
_cell_angle_alpha	89.968887
_cell_angle_beta	89.980918
_cell_angle_gamma	90.012807
loop_
_atom_site_label
_atom_site_type_symbol
_atom_site_fract_x
_atom_site_fract_y
_atom_site_fract_z
Zn1	Zn	1.597690	-0.421983	-0.590834
Zn2	Zn	1.931023	-0.088650	-0.257500
Zn3	Zn	2.264356	0.244683	0.075833
Zn4	Zn	1.597592	-0.599284	-0.416090
Zn5	Zn	1.930925	-0.265951	-0.082757
Zn6	Zn	2.264259	0.067383	0.250577
Zn7	Zn	1.422931	-0.422036	-0.416108
Zn8	Zn	1.756264	-0.088702	-0.082775
Zn9	Zn	2.089598	0.244631	0.250559
Zn10	Zn	1.422925	-0.599206	-0.590791
Zn11	Zn	1.756258	-0.265872	-0.257457
Zn12	Zn	2.089591	0.067461	0.075876
O13	O	1.510284	-0.510627	-0.503456
O14	O	1.843618	-0.177294	-0.170122
O15	O	2.176951	0.156039	0.163211
O16	O	1.743913	-0.445514	-0.567664
O17	O	2.077246	-0.112180	-0.234331
O18	O	2.410579	0.221153	0.099003
O19	O	1.574385	-0.575826	-0.269856
O20	O	1.907718	-0.242493	0.063477
O21	O	2.241051	0.090840	0.396810
O22	O	1.446156	-0.273681	-0.439311
O23	O	1.779490	0.059652	-0.105978
O24	O	2.112823	0.392985	0.227355
O25	O	1.743841	-0.575776	-0.439281
O26	O	2.077174	-0.242442	-0.105947
O27	O	2.410508	0.090891	0.227386
O28	O	1.574551	-0.273643	-0.567682
O29	O	1.907884	0.059690	-0.234348
O30	O	2.241218	0.393024	0.098985
O31	O	1.446062	-0.445603	-0.269869
O32	O	1.779395	-0.112269	0.063464
O33	O	2.112729	0.221064	0.396797
O34	O	1.276694	-0.445527	-0.439269
O35	O	1.610027	-0.112193	-0.105936
O36	O	1.943361	0.221140	0.227397
O37	O	1.446146	-0.575642	-0.737032
O38	O	1.779479	-0.242309	-0.403699
O39	O	2.112812	0.091024	-0.070366
O40	O	1.276689	-0.575693	-0.567608
O41	O	1.610023	-0.242360	-0.234275
O42	O	1.943356	0.090974	0.099059
O43	O	1.574545	-0.445438	-0.737064
O44	O	1.907878	-0.112104	-0.403731
O45	O	2.241211	0.221229	-0.070397
O46	O	1.574379	-0.747621	-0.439239
O47	O	1.907712	-0.414288	-0.105905
O48	O	2.241045	-0.080954	0.227428
O49	O	1.446051	-0.747563	-0.567591
O50	O	1.779384	-0.414230	-0.234257
O51	O	2.112718	-0.080897	0.099076
C52	C	1.238774	-0.510608	-0.503437
C53	C	1.572108	-0.177274	-0.170103
C54	C	1.905441	0.156059	0.163230
C55	C	1.122621	-0.510625	-0.503453
C56	C	1.455955	-0.177292	-0.170120
C57	C	1.789288	0.156042	0.163213
C58	C	0.950817	-0.575152	-0.566877
C59	C	1.284151	-0.241819	-0.233544
C60	C	1.617484	0.091515	0.099790
C61	C	1.070868	-0.575136	-0.566861
C62	C	1.404201	-0.241803	-0.233528
C63	C	1.737534	0.091531	0.099805
C64	C	1.510232	-0.786057	-0.503431
C65	C	1.843565	-0.452724	-0.170098
C66	C	2.176899	-0.119390	0.163236
C67	C	1.510305	-0.903887	-0.503455
C68	C	1.843638	-0.570554	-0.170122
C69	C	2.176972	-0.237220	0.163211
C70	C	1.590906	-1.071443	-0.422545
C71	C	1.924240	-0.738110	-0.089212
C72	C	2.257573	-0.404776	0.244121
C73	C	1.591169	-0.948883	-0.422743
C74	C	1.924502	-0.615549	-0.089410
C75	C	2.257836	-0.282216	0.243923
C76	C	1.540172	-0.948261	-0.613609
C77	C	1.873505	-0.614928	-0.280275
C78	C	2.206838	-0.281594	0.053058
C79	C	1.540811	-1.070859	-0.613179
C80	C	1.874145	-0.737526	-0.279846
C81	C	2.207478	-0.404192	0.053487
C82	C	1.399806	-1.071217	-0.475298
C83	C	1.733139	-0.737883	-0.141964
C84	C	2.066473	-0.404550	0.191369
C85	C	1.400335	-0.948613	-0.472827
C86	C	1.733669	-0.615279	-0.139494
C87	C	2.067002	-0.281946	0.193840
C88	C	1.782854	-0.510648	-0.503475
C89	C	2.116188	-0.177314	-0.170142
C90	C	2.449521	0.156019	0.163191
C91	C	1.899007	-0.510656	-0.503484
C92	C	2.232341	-0.177323	-0.170150
C93	C	2.565674	0.156010	0.163183
C94	C	1.510355	-0.510525	-0.776026
C95	C	1.843689	-0.177192	-0.442693
C96	C	2.177022	0.156141	-0.109359
C97	C	1.510386	-0.510482	-0.892179
C98	C	1.843719	-0.177149	-0.558846
C99	C	2.177052	0.156185	-0.225512
C100	C	1.510365	-0.234122	-0.503503
C101	C	1.843699	0.099211	-0.170170
C102	C	2.177032	0.432545	0.163163
C103	C	1.510400	-0.116292	-0.503524
C104	C	1.843733	0.217041	-0.170190
C105	C	2.177066	0.550375	0.163143
C106	C	1.573929	-0.446040	-0.943980
C107	C	1.907262	-0.112707	-0.610646
C108	C	2.240595	0.220627	-0.277313
C109	C	1.573961	-0.445994	-1.064030
C110	C	1.907295	-0.112660	-0.730697
C111	C	2.240628	0.220673	-0.397363
C112	C	1.510274	-0.510652	-0.231946
C113	C	1.843607	-0.177319	0.101388
C114	C	2.176940	0.156015	0.434721
C115	C	1.510446	-0.510397	-0.115793
C116	C	1.843779	-0.177064	0.217540
C117	C	2.177112	0.156270	0.550874
H118	H	1.115423	-0.630348	-0.621140
H119	H	1.448756	-0.297015	-0.287806
H120	H	1.782090	0.036319	0.045527
H121	H	1.456045	-0.565575	-1.071253
H122	H	1.789379	-0.232241	-0.737919
H123	H	2.122712	0.101092	-0.404586
F124	F	1.064395	-0.438441	-0.432514
F125	F	1.397728	-0.105108	-0.099180
F126	F	1.731062	0.228226	0.234153
F127	F	1.645076	-0.373884	-1.122252
F128	F	1.978409	-0.040550	-0.788919
F129	F	2.311743	0.292783	-0.455586
H130	H	1.572482	-0.918886	-0.341066
H131	H	1.905816	-0.585552	-0.007733
H132	H	2.239149	-0.252219	0.325600
F133	F	1.439303	-0.582547	-0.950376
F134	F	1.772636	-0.249214	-0.617042
F135	F	2.105970	0.084119	-0.283709
F136	F	1.644985	-0.373948	-0.885783
F137	F	1.978318	-0.040615	-0.552450
F138	F	2.311651	0.292719	-0.219116
F139	F	0.957193	-0.438470	-0.432521
F140	F	1.290527	-0.105137	-0.099188
F141	F	1.623860	0.228196	0.234146
H142	H	1.621650	-1.099370	-0.637089
H143	H	1.954983	-0.766036	-0.303755
H144	H	2.288317	-0.432703	0.029578
H145	H	1.572454	-1.101002	-0.340629
H146	H	1.905787	-0.767668	-0.007296
H147	H	2.239120	-0.434335	0.326038
H148	H	1.673082	-0.919473	-0.441413
H149	H	2.006415	-0.586140	-0.108079
H150	H	2.339749	-0.252806	0.225254
H151	H	1.672380	-1.102172	-0.441006
H152	H	2.005713	-0.768838	-0.107672
H153	H	2.339047	-0.435505	0.225661
H154	H	1.483320	-0.919111	-0.675560
H155	H	1.816653	-0.585778	-0.342227
H156	H	2.149986	-0.252444	-0.008893
F157	F	0.892632	-0.647357	-0.637821
F158	F	1.225965	-0.314024	-0.304487
F159	F	1.559298	0.019309	0.028846
F160	F	1.467488	-1.109635	-0.694721
F161	F	1.800821	-0.776301	-0.361388
F162	F	2.134154	-0.442968	-0.028055
H163	H	1.620097	-0.917471	-0.637917
H164	H	1.953431	-0.584138	-0.304583
H165	H	2.286764	-0.250804	0.028750
H166	H	1.372646	-1.102232	-0.396373
H167	H	1.705979	-0.768898	-0.063040
H168	H	2.039313	-0.435565	0.270294
H169	H	1.377816	-0.919622	-0.391763
H170	H	1.711149	-0.586289	-0.058430
H171	H	2.044483	-0.252955	0.274903
H172	H	1.337116	-0.917994	-0.527483
H173	H	1.670449	-0.584661	-0.194150
H174	H	2.003783	-0.251328	0.139183
H175	H	1.339822	-1.100220	-0.534277
H176	H	1.673155	-0.766887	-0.200944
H177	H	2.006488	-0.433554	0.132389
