data_functionalizedCrystal
_audit_creation_method	'MofGen! by Chris Wilmer'
_symmetry_space_group_name_H-M	'P1'
_symmetry_Int_Tables_number	1
_symmetry_cell_setting	triclinic
loop_
_symmetry_equiv_pos_as_xyz
  x,y,z
_cell_length_a	13.339070
_cell_length_b	15.995350
_cell_length_c	11.804365
_cell_angle_alpha	101.833003
_cell_angle_beta	74.875130
_cell_angle_gamma	99.560835
loop_
_atom_site_label
_atom_site_type_symbol
_atom_site_fract_x
_atom_site_fract_y
_atom_site_fract_z
O1	O	1.362724	0.407602	-0.099048
O2	O	1.068197	0.352506	-0.099044
O3	O	1.223511	0.260037	-0.099045
O4	O	1.207410	0.500071	-0.099047
O5	O	1.182623	0.284347	0.099011
O6	O	1.027308	0.376816	0.099012
O7	O	1.321836	0.431912	0.099008
Cu8	Cu	1.170839	0.406583	0.117094
Cu9	Cu	1.219194	0.377835	-0.117130
O10	O	1.166521	0.524381	0.099009
C11	C	1.010063	0.355354	-0.000015
C12	C	0.897761	0.327613	-0.000014
C13	C	0.532972	0.543314	-0.000035
C14	C	0.638486	0.569380	-0.000040
C15	C	0.703310	0.508941	-0.000033
C16	C	0.662610	0.422430	-0.000022
C17	C	0.557088	0.396360	-0.000026
C18	C	0.727425	0.361987	-0.000024
C19	C	0.686725	0.275476	-0.000013
C20	C	0.581213	0.249410	-0.000017
C21	C	0.516389	0.309850	-0.000024
C22	C	0.832947	0.388057	-0.000020
C23	C	0.857062	0.241103	-0.000012
C24	C	0.751549	0.215036	-0.000007
C25	C	1.202402	0.240842	-0.000019
C26	C	1.200408	0.147427	-0.000026
C27	C	1.193240	-0.191985	-0.000022
C28	C	1.082719	-0.170302	-0.000464
C29	C	1.084623	-0.073093	-0.000018
C30	C	1.196795	-0.023599	-0.000025
C31	C	1.228004	-0.038120	0.113072
C32	C	1.225206	-0.135389	0.113167
C33	C	1.273989	-0.162861	-0.112060
C34	C	1.274271	-0.066105	-0.113555
C35	C	1.198810	0.071567	-0.000022
C36	C	1.191227	-0.287149	-0.000016
C37	C	1.379970	0.429063	-0.000023
C38	C	1.492274	0.456804	-0.000032
C39	C	1.187631	0.543575	-0.000019
C40	C	1.189627	0.636989	-0.000020
N41	N	1.136835	0.426805	0.281835
N42	N	1.253205	0.357608	-0.281871
C43	C	1.334859	0.309033	0.655782
C44	C	1.360581	0.293731	0.531121
C45	C	1.304647	0.326998	0.468793
C46	C	1.222986	0.375570	0.531140
C47	C	1.197267	0.390878	0.655814
C48	C	1.167054	0.408844	0.468824
C49	C	1.085394	0.457415	0.531171
C50	C	1.059678	0.472721	0.655833
C51	C	1.115613	0.439454	0.718160
C52	C	1.192774	0.393535	0.344150
C53	C	1.055181	0.475380	0.344182
C54	C	1.029459	0.490682	0.468843
H55	H	0.718397	0.144597	-0.000007
H56	H	1.427069	0.254186	0.480363
H57	H	1.024682	-0.045291	0.081194
O58	O	1.087878	0.455957	0.852622
H59	H	1.005530	0.429002	0.885512
O60	O	1.331365	-0.152279	0.119993
H61	H	1.323409	-0.179616	0.201498
H62	H	0.480187	0.592513	-0.000050
O63	O	1.332370	0.310484	0.334336
H64	H	1.398541	0.271111	0.301453
O65	O	0.941402	0.543088	0.536093
H66	H	0.867470	0.511131	0.512200
H67	H	1.380399	0.281957	0.706538
O68	O	0.971647	0.525154	0.723085
H69	H	0.937080	0.545724	0.658806
H70	H	0.430470	0.288631	-0.000019
O71	O	1.149381	-0.158142	0.225147
H72	H	1.115049	-0.099705	0.278718
O73	O	0.994829	0.511253	0.276976
H74	H	1.026419	0.492437	0.179813
O75	O	1.046309	-0.221653	-0.107875
H76	H	1.106591	-0.263183	-0.162093
O77	O	1.382223	-0.179961	-0.113070
H78	H	1.434957	-0.118483	-0.110157
O79	O	1.049963	-0.061822	-0.107393
H80	H	1.103835	-0.090376	-0.189719
O81	O	0.926968	0.175907	-0.000001
H82	H	0.895823	0.145576	0.080720
O83	O	0.876832	0.481361	-0.000025
H84	H	0.961096	0.489339	-0.000030
O85	O	1.154795	0.001494	0.224565
H86	H	1.177659	-0.009191	0.303928
O87	O	0.817111	0.537051	-0.000019
H88	H	0.834520	0.607362	-0.000014
O89	O	0.682381	0.662684	-0.000025
H90	H	0.619577	0.700335	-0.000011
O91	O	0.537307	0.156105	-0.000001
H92	H	0.600103	0.118457	0.000019
O93	O	1.002358	-0.196684	0.106371
H94	H	0.924635	-0.181100	0.105193
O95	O	1.280821	0.341127	0.276907
H96	H	1.341714	0.380832	0.220089
O97	O	1.384499	-0.021703	-0.122617
H98	H	1.411041	-0.026238	-0.042678
H99	H	1.309546	-0.004333	0.117274
H100	H	1.251655	-0.058393	-0.197221
O101	O	1.249569	-0.215123	-0.225634
H102	H	1.169891	-0.206176	-0.229652
