data_functionalizedCrystal
_audit_creation_method	'MofGen! by Chris Wilmer'
_symmetry_space_group_name_H-M	'P1'
_symmetry_Int_Tables_number	1
_symmetry_cell_setting	triclinic
loop_
_symmetry_equiv_pos_as_xyz
  x,y,z
_cell_length_a	15.624803
_cell_length_b	15.538191
_cell_length_c	11.804783
_cell_angle_alpha	73.601377
_cell_angle_beta	94.427507
_cell_angle_gamma	66.736403
loop_
_atom_site_label
_atom_site_type_symbol
_atom_site_fract_x
_atom_site_fract_y
_atom_site_fract_z
O1	O	1.094464	0.024701	0.571721
O2	O	0.839061	0.058302	0.461410
O3	O	1.016479	-0.099251	0.538044
O4	O	0.917047	0.182254	0.495087
O5	O	1.036873	-0.066768	0.348810
O6	O	0.859456	0.090785	0.272176
O7	O	1.114859	0.057184	0.382487
Cu8	Cu	0.989019	0.076951	0.310053
Cu9	Cu	0.964901	0.038535	0.533844
O10	O	0.937441	0.214737	0.305854
C11	C	0.817369	0.076247	0.353020
C12	C	0.722353	0.081311	0.311983
C13	C	0.354369	0.009359	0.692893
C14	C	0.265095	0.014098	0.654333
C15	C	0.287307	0.049512	0.448028
C16	C	0.376587	0.044771	0.486572
C17	C	0.410110	0.024695	0.609005
C18	C	0.432327	0.060107	0.402684
C19	C	0.521597	0.055371	0.441224
C20	C	0.555126	0.035299	0.563651
C21	C	0.499379	0.019959	0.647545
C22	C	0.398799	0.080189	0.280250
C23	C	0.454539	0.095525	0.196363
C24	C	0.543814	0.090782	0.234903
C25	C	0.577343	0.070711	0.357331
C26	C	0.599560	0.106122	0.151010
C27	C	0.688830	0.101387	0.189550
C28	C	0.666613	0.065975	0.395870
C29	C	1.037079	-0.118864	0.447924
C30	C	1.068065	-0.225697	0.461319
C31	C	0.760211	-0.491055	0.328329
C32	C	0.789351	-0.591443	0.340912
C33	C	0.953254	-0.625827	0.411704
C34	C	0.924127	-0.525440	0.399132
C35	C	0.827605	-0.458061	0.357443
C36	C	0.991521	-0.492447	0.428246
C37	C	0.962397	-0.392068	0.415669
C38	C	0.865879	-0.324683	0.373979
C39	C	0.798481	-0.357682	0.344866
C40	C	1.088044	-0.559827	0.469927
C41	C	1.155438	-0.526833	0.499041
C42	C	1.126314	-0.426454	0.486473
C43	C	1.029796	-0.359069	0.444782
C44	C	1.193712	-0.393455	0.515585
C45	C	1.164588	-0.293076	0.503008
C46	C	1.000671	-0.258690	0.432205
C47	C	1.136550	0.039239	0.490879
C48	C	1.231566	0.034173	0.531925
C49	C	0.916841	0.234349	0.395976
C50	C	0.885854	0.341181	0.382588
N51	N	1.005990	0.103969	0.152654
C52	C	0.907159	-0.053378	-0.264047
C53	C	0.894306	-0.073822	-0.144945
C54	C	0.922226	-0.029375	-0.070540
C55	C	0.963001	0.035518	-0.115248
C56	C	0.975862	0.055958	-0.234358
C57	C	0.990928	0.079960	-0.040851
C58	C	1.031703	0.144853	-0.085559
C59	C	1.044561	0.165290	-0.204658
C60	C	1.016642	0.120844	-0.279064
C61	C	0.978067	0.059520	0.078259
C62	C	1.046770	0.168856	0.107948
C63	C	1.059623	0.189300	-0.011154
N64	N	0.947939	0.011509	0.691248
H65	H	0.381667	-0.006992	0.792590
Br66	Br	0.189444	-0.006709	0.768193
Br67	Br	0.667482	-0.266233	0.288304
H68	H	0.427231	0.111874	0.096676
H69	H	1.092823	0.242137	-0.047572
H70	H	0.326107	0.084050	0.248874
Br71	Br	0.629212	-0.399605	0.271767
H72	H	1.219467	-0.266213	0.526715
Br73	Br	0.826351	-0.188449	0.356893
Br74	Br	0.712124	0.038712	0.562035
H75	H	0.944867	0.006685	0.114648
H76	H	0.861111	-0.126660	-0.108551
H77	H	0.259998	0.065861	0.348342
Br78	Br	0.697878	-0.636213	0.301383
Br79	Br	0.554044	0.133387	-0.015147
H80	H	1.077773	0.218121	-0.241051
Br81	Br	1.084672	0.229172	0.208921
H82	H	0.627813	0.031449	0.595027
H83	H	1.031844	-0.680699	0.445643
H84	H	0.526677	0.003608	0.747243
H85	H	0.734213	0.113880	0.121239
Br86	Br	0.904782	-0.057122	0.091101
Br87	Br	1.034070	0.148601	-0.440716
Br88	Br	1.127572	-0.696055	0.486983
H89	H	0.922072	-0.203827	0.398266
H90	H	1.234028	-0.581706	0.532980
Br91	Br	0.869282	-0.113698	-0.365023
H92	H	1.272302	-0.448327	0.549517
