data_functionalizedCrystal
_audit_creation_method	'MofGen! by Chris Wilmer'
_symmetry_space_group_name_H-M	'P1'
_symmetry_Int_Tables_number	1
_symmetry_cell_setting	triclinic
loop_
_symmetry_equiv_pos_as_xyz
  x,y,z
_cell_length_a	15.944499
_cell_length_b	27.732046
_cell_length_c	14.421503
_cell_angle_alpha	89.998517
_cell_angle_beta	89.992463
_cell_angle_gamma	96.940207
loop_
_atom_site_label
_atom_site_type_symbol
_atom_site_fract_x
_atom_site_fract_y
_atom_site_fract_z
O1	O	0.099929	-0.641353	0.076974
O2	O	0.115127	-0.500623	0.077004
O3	O	-0.014800	-0.574844	0.076989
O4	O	0.229856	-0.567132	0.076988
O5	O	-0.014781	-0.574832	-0.077234
O6	O	0.115147	-0.500611	-0.077220
O7	O	0.099948	-0.641340	-0.077250
Cu8	Cu	0.107549	-0.570975	-0.091317
Cu9	Cu	0.107526	-0.570989	0.091071
O10	O	0.229876	-0.567120	-0.077235
C11	C	-0.046081	-0.574522	-0.000120
C12	C	-0.139317	-0.573576	-0.000113
C13	C	0.114818	-0.482609	-0.000104
C14	C	0.113858	-0.428950	-0.000093
C15	C	-0.431417	-0.616696	-0.000127
C16	C	-0.370089	-0.594275	-0.076166
C17	C	-0.474909	-0.570137	-0.000123
C18	C	-0.370114	-0.594274	0.075887
C19	C	-0.310022	-0.571829	-0.000116
C20	C	-0.414808	-0.547703	-0.076224
C21	C	-0.414840	-0.547709	0.075896
C22	C	-0.353529	-0.525254	-0.000161
C23	C	-0.569896	-0.569163	-0.000127
C24	C	-0.215036	-0.572799	-0.000118
C25	C	0.184593	-0.090433	-0.000127
C26	C	0.181031	0.111241	-0.000131
O27	O	0.245709	0.142224	-0.000171
N28	N	0.103990	0.130691	-0.000128
C29	C	0.027834	0.099718	-0.000131
O30	O	-0.037776	0.120888	-0.000138
C31	C	0.031397	-0.101956	-0.000133
C32	C	0.108442	-0.121402	-0.000126
C33	C	0.261632	-0.109880	-0.000121
C34	C	0.262522	-0.160296	-0.000115
C35	C	0.186372	-0.191265	-0.000114
C36	C	0.109332	-0.171818	-0.000120
C37	C	-0.044759	-0.132928	-0.000142
C38	C	-0.043861	-0.183349	-0.000145
C39	C	0.033185	-0.202796	-0.000138
C40	C	0.034072	-0.253203	-0.000114
N41	N	0.111113	-0.272652	-0.000116
C42	C	0.187263	-0.241683	-0.000117
C43	C	0.025969	0.205600	-0.000128
C44	C	0.025078	0.256018	-0.000126
C45	C	0.178275	0.267538	-0.000127
C46	C	0.179165	0.217119	-0.000123
C47	C	0.103010	0.186151	-0.000130
C48	C	0.189125	-0.347560	-0.000103
C49	C	0.190008	-0.397981	-0.000093
C50	C	0.036811	-0.409497	-0.000096
C51	C	0.035928	-0.359081	-0.000101
C52	C	0.112092	-0.328113	-0.000108
O53	O	-0.030572	-0.284214	-0.000084
O54	O	0.252863	-0.262863	-0.000130
C55	C	0.183703	-0.040018	-0.000133
C56	C	0.106663	-0.020571	-0.000139
C57	C	0.030513	-0.051540	-0.000138
C58	C	0.105772	0.029847	-0.000136
C59	C	0.181922	0.060816	-0.000137
C60	C	0.258963	0.041367	-0.000139
C61	C	0.259853	-0.009049	-0.000133
C62	C	-0.046528	-0.032091	-0.000136
C63	C	-0.047411	0.018325	-0.000141
C64	C	0.028739	0.049295	-0.000141
C65	C	0.261157	-0.567442	-0.000124
C66	C	0.354393	-0.568388	-0.000125
C67	C	0.100260	0.340645	-0.000135
C68	C	0.101228	0.286987	-0.000126
N69	N	0.107565	-0.570968	-0.219598
C70	C	0.167616	-0.536642	-0.469245
C71	C	0.183353	-0.580318	-0.531057
C72	C	0.107545	-0.570980	-0.408759
C73	C	0.091828	-0.527315	-0.531041
C74	C	0.107527	-0.570987	-0.591481
C75	C	0.123318	-0.614677	-0.469211
C76	C	0.031761	-0.561646	-0.469189
C77	C	0.047464	-0.605353	-0.530973
C78	C	0.107557	-0.570975	-0.303498
C79	C	0.107514	-0.570997	-0.696740
N80	N	0.107504	-0.571000	0.219352
H81	H	-0.350248	-0.613963	-0.140457
H82	H	0.322592	-0.024877	-0.000129
N83	N	-0.016265	-0.641830	-0.564770
N84	N	0.003730	-0.675229	-0.615325
H85	H	-0.041274	-0.700993	-0.639195
H86	H	0.078543	-0.490386	-0.558203
N87	N	-0.048609	-0.551724	-0.435079
N88	N	-0.105811	-0.544275	-0.490646
H89	H	-0.162573	-0.537263	-0.466555
H90	H	-0.434703	-0.528037	0.140191
N91	N	-0.345253	-0.619001	0.156514
N92	N	-0.373620	-0.662446	0.170030
H93	H	-0.356062	-0.679914	0.226968
H94	H	0.136680	-0.651614	-0.442165
N95	N	-0.473874	-0.665166	-0.000244
N96	N	-0.523059	-0.679120	-0.064951
H97	H	-0.553046	-0.713351	-0.065039
N98	N	-0.439547	-0.523010	-0.156948
N99	N	-0.515630	-0.518299	-0.169993
H100	H	-0.533105	-0.500861	-0.227004
H101	H	-0.319840	-0.486581	-0.000197
N102	N	0.268720	-0.417836	-0.000079
N103	N	0.336703	-0.390175	-0.000081
H104	H	0.392293	-0.404196	-0.000072
N105	N	0.266931	-0.315939	-0.000115
N106	N	0.335705	-0.333318	-0.000110
H107	H	0.390657	-0.310986	-0.000114
H108	H	0.325261	-0.176124	-0.000109
H109	H	0.323646	-0.084669	-0.000124
H110	H	-0.025188	-0.434721	-0.000092
H111	H	0.241903	0.201290	-0.000123
H112	H	0.320967	0.066591	-0.000136
N113	N	0.256054	0.299184	-0.000133
N114	N	0.255237	0.344199	-0.000139
H115	H	0.310165	0.366551	-0.000151
N116	N	-0.053630	0.275870	-0.000112
N117	N	-0.121612	0.248208	-0.000111
H118	H	-0.177203	0.262227	-0.000105
H119	H	-0.036050	0.180389	-0.000134
H120	H	-0.107498	-0.117104	-0.000149
N121	N	-0.121654	-0.214983	-0.000171
N122	N	-0.173025	-0.213208	-0.065188
H123	H	-0.227965	-0.235549	-0.065207
N124	N	-0.042778	-0.339222	-0.000093
N125	N	-0.110763	-0.366881	-0.000087
H126	H	-0.166351	-0.352859	-0.000089
H127	H	-0.108540	-0.057301	-0.000138
H128	H	-0.110156	0.034153	-0.000139
N129	N	0.231399	-0.500252	-0.435251
N130	N	0.307227	-0.502205	-0.455109
H131	H	0.352276	-0.476506	-0.431102
N132	N	0.263744	-0.590228	-0.565139
N133	N	0.328879	-0.562384	-0.545364
H134	H	0.385659	-0.569380	-0.569430
