data_functionalizedCrystal
_audit_creation_method	'MofGen! by Chris Wilmer'
_symmetry_space_group_name_H-M	'P1'
_symmetry_Int_Tables_number	1
_symmetry_cell_setting	triclinic
loop_
_symmetry_equiv_pos_as_xyz
  x,y,z
_cell_length_a	17.699077
_cell_length_b	17.699092
_cell_length_c	13.448316
_cell_angle_alpha	89.995078
_cell_angle_beta	89.993795
_cell_angle_gamma	83.283472
loop_
_atom_site_label
_atom_site_type_symbol
_atom_site_fract_x
_atom_site_fract_y
_atom_site_fract_z
O1	O	1.004084	0.095691	-0.082675
O2	O	0.783705	0.108148	-0.082679
O3	O	0.900117	-0.008269	-0.082675
O4	O	0.887671	0.212109	-0.082680
O5	O	0.900103	-0.008276	0.082709
O6	O	0.783691	0.108141	0.082704
O7	O	1.004069	0.095684	0.082709
Cu8	Cu	0.893879	0.101912	0.097808
Cu9	Cu	0.893896	0.101920	-0.097778
O10	O	0.887657	0.212101	0.082704
C11	C	0.755501	0.107699	0.000012
C12	C	0.671482	0.106362	0.000010
C13	C	0.632007	0.105729	0.090162
C14	C	0.553064	0.104460	0.090163
C15	C	0.513598	0.103831	0.000011
C16	C	0.553079	0.104463	-0.090147
C17	C	0.632021	0.105726	-0.090147
C18	C	0.234716	0.099370	-0.090149
C19	C	0.155768	0.098109	-0.090142
C20	C	0.155759	0.098104	0.090161
C21	C	0.234701	0.099367	0.090161
C22	C	0.274176	0.099994	0.000003
C23	C	0.359774	0.101368	0.000003
C24	C	0.428000	0.102463	0.000010
C25	C	0.899663	-0.036470	0.000016
C26	C	0.898322	-0.120487	0.000011
C27	C	0.897702	-0.159951	-0.090141
C28	C	0.896437	-0.238894	-0.090142
C29	C	0.895798	-0.278373	0.000010
C30	C	0.896416	-0.238903	0.090168
C31	C	0.897675	-0.159961	0.090169
C32	C	0.891335	-0.557268	0.090170
C33	C	0.890078	-0.636216	0.090163
C34	C	0.890097	-0.636201	-0.090141
C35	C	0.891356	-0.557259	-0.090141
C36	C	0.891970	-0.517796	0.000017
C37	C	0.893341	-0.432197	0.000018
C38	C	0.894433	-0.363971	0.000010
C39	C	1.032274	0.096133	0.000015
C40	C	1.116292	0.097470	0.000011
C41	C	0.888111	0.240302	0.000012
C42	C	0.889452	0.324320	0.000010
N43	N	0.893872	0.101905	0.235372
N44	N	0.893908	0.101921	-0.235342
C45	C	0.945435	0.050377	0.287414
C46	C	0.945440	0.050376	0.391517
C47	C	0.893884	0.101908	0.443576
C48	C	0.842316	0.153439	0.391527
C49	C	0.842308	0.153436	0.287425
C50	C	0.842337	0.153444	0.608507
C51	C	0.842345	0.153449	0.712615
C52	C	0.945469	0.050385	0.712599
C53	C	0.945461	0.050381	0.608498
C54	C	0.893893	0.101914	0.556455
H55	H	0.664161	0.106243	-0.163558
H56	H	0.123610	0.097590	0.163573
H57	H	0.266847	0.099878	-0.163562
H58	H	0.800342	0.195405	0.566137
Br59	Br	0.892230	-0.503685	-0.212494
Br60	Br	1.015417	-0.019559	0.462150
Br61	Br	0.499523	0.103576	-0.212498
H62	H	0.800319	0.195395	0.245053
H63	H	0.266830	0.099883	0.163572
Br64	Br	0.772340	0.223372	0.462174
Br65	Br	0.892153	-0.503719	0.212527
H66	H	0.664134	0.106247	0.163574
Br67	Br	0.102206	0.097257	-0.212500
H68	H	0.895891	-0.271052	0.163572
Br69	Br	0.772374	0.223389	0.783259
Br70	Br	1.015435	-0.019548	0.537842
Br71	Br	0.889264	-0.689762	-0.212501
H72	H	0.898170	-0.127829	0.163580
H73	H	0.987421	0.008417	0.245035
Br74	Br	0.499492	0.103613	0.212517
H75	H	0.898226	-0.127814	-0.163553
H76	H	0.987457	0.008426	0.754978
Br77	Br	0.889212	-0.689795	0.212520
Br78	Br	0.895594	-0.292449	-0.212496
