data_functionalizedCrystal
_audit_creation_method	'MofGen! by Chris Wilmer'
_symmetry_space_group_name_H-M	'P1'
_symmetry_Int_Tables_number	1
_symmetry_cell_setting	triclinic
loop_
_symmetry_equiv_pos_as_xyz
  x,y,z
_cell_length_a	12.594517
_cell_length_b	12.594517
_cell_length_c	12.759393
_cell_angle_alpha	89.973674
_cell_angle_beta	89.976944
_cell_angle_gamma	90.006266
loop_
_atom_site_label
_atom_site_type_symbol
_atom_site_fract_x
_atom_site_fract_y
_atom_site_fract_z
Zn1	Zn	1.627356	-0.423696	-0.594110
Zn2	Zn	1.627271	-0.601712	-0.418443
Zn3	Zn	1.449355	-0.423747	-0.418439
Zn4	Zn	1.449372	-0.601632	-0.594074
O5	O	1.538338	-0.512697	-0.506266
O6	O	1.776291	-0.447322	-0.570824
O7	O	1.603628	-0.578160	-0.271421
O8	O	1.472995	-0.274795	-0.441755
O9	O	1.776228	-0.578110	-0.441762
O10	O	1.603772	-0.274757	-0.570820
O11	O	1.472913	-0.447410	-0.271418
O12	O	1.300411	-0.447332	-0.441720
O13	O	1.473025	-0.577974	-0.741100
O14	O	1.300424	-0.578024	-0.570758
O15	O	1.603789	-0.447245	-0.741126
O16	O	1.603644	-0.750647	-0.441727
O17	O	1.472942	-0.750589	-0.570762
C18	C	1.261797	-0.512676	-0.506235
C19	C	1.143492	-0.512692	-0.506247
C20	C	1.538391	-0.235076	-0.506291
C21	C	1.538413	-0.116771	-0.506302
C22	C	1.538315	-0.789238	-0.506264
C23	C	1.538402	-0.907543	-0.506298
C24	C	1.074201	-0.441512	-0.436197
C25	C	1.003406	-0.538602	-0.410362
C26	C	1.003489	-0.415650	-0.532100
C27	C	1.074255	-0.609833	-0.480361
C28	C	1.074344	-0.486816	-0.602145
C29	C	1.003580	-0.583972	-0.576346
C30	C	1.815959	-0.512719	-0.506298
C31	C	1.934265	-0.512729	-0.506311
C32	C	1.538418	-0.512595	-0.780300
C33	C	1.538452	-0.512551	-0.897076
C34	C	1.609535	0.023266	-0.576494
C35	C	1.512439	-0.047520	-0.602185
C36	C	1.635499	-0.047556	-0.480658
C37	C	1.441254	0.023228	-0.532039
C38	C	1.564380	0.023199	-0.410468
C39	C	1.467217	-0.047556	-0.436122
C40	C	1.606546	-0.444470	-0.951954
C41	C	1.606564	-0.444424	-1.061678
C42	C	1.470391	-0.580550	-1.061638
C43	C	1.470369	-0.580590	-0.951915
C44	C	1.538320	-0.512722	-0.233299
C45	C	1.538493	-0.512466	-0.116523
H46	H	1.105210	-0.381376	-0.376885
Cl47	Cl	1.384751	-0.666179	-0.882921
Cl48	Cl	1.598353	0.071204	-0.285379
Cl49	Cl	1.692132	-0.358932	-0.883017
Cl50	Cl	0.955296	-0.572429	-0.285196
Cl51	Cl	1.692181	-0.358841	-1.130663
H52	H	1.105527	-0.464877	-0.683192
H53	H	1.717622	-0.078577	-0.458922
H54	H	1.105209	-0.691940	-0.458432
Cl55	Cl	0.956001	-0.677035	-0.667850
H56	H	1.414962	-0.635947	-1.106301
H57	H	0.972349	-0.333579	-0.553904
Cl58	Cl	1.702287	0.071281	-0.668206
H59	H	1.490464	-0.078586	-0.683228
H60	H	1.359130	0.054191	-0.553849
Cl61	Cl	1.374248	-0.095267	-0.344473
