data_functionalizedCrystal
_audit_creation_method	'MofGen! by Chris Wilmer'
_symmetry_space_group_name_H-M	'P1'
_symmetry_Int_Tables_number	1
_symmetry_cell_setting	triclinic
loop_
_symmetry_equiv_pos_as_xyz
  x,y,z
_cell_length_a	10.654550
_cell_length_b	14.853567
_cell_length_c	9.130313
_cell_angle_alpha	90.002541
_cell_angle_beta	89.996220
_cell_angle_gamma	84.059917
loop_
_atom_site_label
_atom_site_type_symbol
_atom_site_fract_x
_atom_site_fract_y
_atom_site_fract_z
O1	O	1.666519	0.126622	-0.121906
O2	O	1.300915	0.138686	-0.121881
O3	O	1.493483	0.001476	-0.121899
O4	O	1.473951	0.263831	-0.121889
O5	O	1.493480	0.001480	0.121700
O6	O	1.300912	0.138690	0.121717
O7	O	1.666516	0.126626	0.121693
Cu8	Cu	1.483714	0.132658	0.143948
Cu9	Cu	1.483717	0.132654	-0.144136
O10	O	1.473948	0.263835	0.121710
C11	C	1.254125	0.137802	-0.000079
C12	C	1.114709	0.135152	-0.000070
C13	C	1.034384	0.215939	-0.000088
C14	C	0.903389	0.213443	-0.000114
C15	C	0.933057	0.049367	-0.000109
C16	C	1.064050	0.051863	-0.000073
C17	C	1.017254	0.310667	-0.000097
C18	C	0.886260	0.308171	-0.000123
C19	C	1.492596	-0.032115	-0.000104
C20	C	1.489944	-0.132213	-0.000116
C21	C	1.364344	-0.545419	-0.000080
C22	C	1.593119	-0.565475	-0.000095
C23	C	1.595613	-0.471428	-0.000104
C24	C	1.482470	-0.414372	-0.000099
C25	C	1.366834	-0.451363	-0.000084
C26	C	1.711247	-0.434430	-0.000104
C27	C	1.713745	-0.340378	-0.000111
C28	C	1.600601	-0.283320	-0.000116
C29	C	1.484961	-0.320316	-0.000103
C30	C	1.371818	-0.263260	-0.000097
C31	C	1.256176	-0.300254	-0.000095
C32	C	1.253691	-0.394305	-0.000089
C33	C	1.603087	-0.189269	-0.000122
C34	C	1.374308	-0.169204	-0.000102
C35	C	1.713306	0.127510	-0.000113
C36	C	1.852722	0.130160	-0.000131
C37	C	1.474835	0.297427	-0.000088
C38	C	1.477487	0.397525	-0.000085
N39	N	1.483721	0.132661	0.346570
N40	N	1.483720	0.132644	-0.346759
C41	C	1.569012	0.071925	0.423214
C42	C	1.569009	0.071914	0.576551
C43	C	1.398420	0.193382	0.576586
C44	C	1.398418	0.193388	0.423252
C45	C	1.667504	0.001799	0.423196
C46	C	1.667501	0.001788	0.576532
H47	H	1.129447	-0.013921	-0.000037
C48	C	1.304608	0.260200	0.338941
H49	H	1.316818	0.251505	0.236638
H50	H	1.318347	0.320458	0.364088
H51	H	1.220775	0.249844	0.364067
H52	H	0.840290	0.336801	0.105046
C53	C	0.877327	-0.042243	-0.000127
H54	H	0.787808	-0.032161	-0.000159
H55	H	0.904869	-0.075542	0.084823
H56	H	0.904909	-0.075539	-0.085084
C57	C	1.639499	-0.091805	0.366957
H58	H	1.627970	-0.130303	0.447882
H59	H	1.708260	-0.117423	0.309146
H60	H	1.564966	-0.085433	0.309165
C61	C	1.730275	-0.148578	-0.000121
H62	H	1.797301	-0.196028	-0.000125
H63	H	1.735996	-0.112298	0.084823
H64	H	1.736008	-0.112313	-0.085084
H65	H	1.763852	0.017235	0.618143
C66	C	0.829395	0.356263	-0.137955
H67	H	0.894901	0.377738	-0.194619
H68	H	0.770834	0.405836	-0.109816
H69	H	0.787393	0.314837	-0.194508
C70	C	1.056366	0.360725	0.137615
H71	H	0.983560	0.379609	0.194237
H72	H	1.096615	0.412165	0.109297
H73	H	1.113038	0.321274	0.194282
H74	H	1.328968	0.242825	0.639037
H75	H	1.282173	-0.122754	-0.000104
H76	H	1.052598	0.340828	-0.105268
H77	H	1.758460	0.023756	0.375632
H78	H	1.270191	-0.575545	-0.000084
H79	H	1.807907	-0.310265	-0.000115
H80	H	1.637668	-0.063695	0.624079
H81	H	1.164056	-0.253787	-0.000080
H82	H	1.803361	-0.480892	-0.000095
C83	C	1.126497	-0.434997	-0.000085
H84	H	1.059467	-0.387548	-0.000099
H85	H	1.120767	-0.471266	0.084865
H86	H	1.120779	-0.471273	-0.085042
C87	C	1.717568	-0.628229	-0.000100
H88	H	1.786792	-0.592727	-0.000101
H89	H	1.721350	-0.665343	-0.085043
H90	H	1.721351	-0.665328	0.084864
