data_functionalizedCrystal
_audit_creation_method	'MofGen! by Chris Wilmer'
_symmetry_space_group_name_H-M	'P1'
_symmetry_Int_Tables_number	1
_symmetry_cell_setting	triclinic
loop_
_symmetry_equiv_pos_as_xyz
  x,y,z
_cell_length_a	25.639243
_cell_length_b	25.639240
_cell_length_c	16.120297
_cell_angle_alpha	92.861830
_cell_angle_beta	92.875565
_cell_angle_gamma	90.035481
loop_
_atom_site_label
_atom_site_type_symbol
_atom_site_fract_x
_atom_site_fract_y
_atom_site_fract_z
Zn1	Zn	0.784287	-0.223117	-0.471380
Zn2	Zn	0.788644	-0.306116	-0.331947
Zn3	Zn	0.701287	-0.218702	-0.331979
Zn4	Zn	0.696820	-0.310525	-0.471305
O5	O	0.742760	-0.264615	-0.401653
O6	O	0.858029	-0.234129	-0.452902
O7	O	0.780750	-0.290828	-0.215289
O8	O	0.712343	-0.146124	-0.350516
O9	O	0.861231	-0.295109	-0.350461
O10	O	0.773323	-0.149367	-0.452933
O11	O	0.716569	-0.226605	-0.215313
O12	O	0.627530	-0.230880	-0.350443
O13	O	0.704729	-0.302622	-0.587976
O14	O	0.624248	-0.298341	-0.452805
O15	O	0.768991	-0.238404	-0.588032
O16	O	0.776418	-0.379865	-0.350388
O17	O	0.708954	-0.383104	-0.452774
C18	C	0.606918	-0.264610	-0.401619
C19	C	0.548804	-0.264621	-0.401625
C20	C	0.742688	-0.400455	-0.401587
C21	C	0.742704	-0.458569	-0.401587
C22	C	0.186764	-0.232918	-0.455082
C23	C	0.132160	-0.232918	-0.455088
O24	O	0.102499	-0.205952	-0.500498
N25	N	0.106520	-0.264614	-0.401675
C26	C	0.135487	-0.296308	-0.348249
O27	O	0.108664	-0.323268	-0.302817
C28	C	0.190091	-0.296306	-0.348240
C29	C	0.215728	-0.264611	-0.401662
C30	C	0.212402	-0.201226	-0.508499
C31	C	0.267002	-0.201227	-0.508495
C32	C	0.295966	-0.232920	-0.455074
C33	C	0.270328	-0.264613	-0.401657
C34	C	0.219057	-0.327997	-0.294810
C35	C	0.273664	-0.327991	-0.294805
C36	C	0.299301	-0.296297	-0.348227
C37	C	0.353893	-0.296307	-0.348232
N38	N	0.379533	-0.264611	-0.401644
C39	C	0.350569	-0.232918	-0.455065
C40	C	0.020816	-0.296311	-0.348270
C41	C	-0.033787	-0.296317	-0.348282
C42	C	-0.037110	-0.232926	-0.455120
C43	C	0.017493	-0.232923	-0.455112
C44	C	0.046456	-0.264615	-0.401682
C45	C	0.465235	-0.232923	-0.455053
C46	C	0.519840	-0.232928	-0.455046
C47	C	0.523159	-0.296317	-0.348205
C48	C	0.468558	-0.296314	-0.348215
C49	C	0.439597	-0.264613	-0.401641
O50	O	0.383587	-0.323258	-0.302843
O51	O	0.377400	-0.205957	-0.500481
C52	C	0.774525	-0.820588	-0.455077
C53	C	0.774540	-0.875193	-0.455094
O54	O	0.801510	-0.904835	-0.500507
N55	N	0.742830	-0.900856	-0.401733
C56	C	0.711098	-0.871912	-0.348357
O57	O	0.684127	-0.898755	-0.302972
C58	C	0.711081	-0.817309	-0.348345
C59	C	0.742797	-0.791648	-0.401704
C60	C	0.806239	-0.794927	-0.508433
C61	C	0.806224	-0.740326	-0.508414
C62	C	0.774497	-0.711386	-0.455041
C63	C	0.742783	-0.737047	-0.401686
C64	C	0.679347	-0.788366	-0.294974
C65	C	0.679332	-0.733759	-0.294967
C66	C	0.711049	-0.708098	-0.348326
C67	C	0.711041	-0.653505	-0.348294
N68	N	0.742752	-0.627842	-0.401655
C69	C	0.774479	-0.656782	-0.455029
C70	C	0.711136	-0.986584	-0.348388
C71	C	0.711156	-1.041186	-0.348395
C72	C	0.774597	-1.044463	-0.455134
C73	C	0.774580	-0.989860	-0.455121
C74	C	0.742847	-0.960920	-0.401749
C75	C	0.774447	-0.542116	-0.454986
C76	C	0.774432	-0.487509	-0.454961
C77	C	0.710989	-0.484238	-0.348226
C78	C	0.711006	-0.538839	-0.348248
C79	C	0.742737	-0.567777	-0.401635
O80	O	0.684084	-0.623829	-0.302908
O81	O	0.801441	-0.629933	-0.500415
C82	C	0.879131	-0.264620	-0.401686
C83	C	0.937245	-0.264622	-0.401701
C84	C	0.735876	-0.271498	-0.619099
C85	C	0.732942	-0.274431	-0.711761
C86	C	0.742845	-0.128244	-0.401736
C87	C	0.742882	-0.070131	-0.401772
C88	C	0.727567	-0.279774	-0.881417
C89	C	0.758055	-0.249299	-0.922740
C90	C	0.755065	-0.252272	-1.017142
C91	C	0.730557	-0.276801	-0.787006
C92	C	0.749647	-0.257721	-0.185052
C93	C	0.752682	-0.254641	-0.092390
H94	H	0.540711	-0.207119	-0.498551
H95	H	0.699221	-0.308095	-0.916935
H96	H	0.038363	-0.207114	-0.498611
H97	H	0.800282	-0.565671	-0.498464
H98	H	0.800261	-0.466618	-0.498412
H99	H	0.685297	-0.963024	-0.304919
H100	H	0.441661	-0.207107	-0.498555
H101	H	0.287871	-0.175418	-0.551995
H102	H	0.685158	-0.460666	-0.304767
H103	H	0.786403	-0.220976	-0.887220
H104	H	0.188825	-0.175415	-0.552001
H105	H	-0.060702	-0.207118	-0.498617
H106	H	-0.054656	-0.322132	-0.304790
H107	H	0.044394	-0.322124	-0.304764
H108	H	0.198193	-0.353805	-0.251307
H109	H	0.297243	-0.353798	-0.251294
H110	H	0.653520	-0.809249	-0.251524
H111	H	0.546751	-0.322122	-0.304713
H112	H	0.832049	-0.719436	-0.551866
H113	H	0.447683	-0.322128	-0.304724
H114	H	0.800406	-0.968970	-0.498571
H115	H	0.685184	-0.559733	-0.304792
H116	H	0.653490	-0.710199	-0.251506
H117	H	0.832075	-0.818485	-0.551901
H118	H	0.800431	-1.068036	-0.498595
H119	H	0.685335	-1.062074	-0.304936
