data_functionalizedCrystal
_audit_creation_method	'MofGen! by Chris Wilmer'
_symmetry_space_group_name_H-M	'P1'
_symmetry_Int_Tables_number	1
_symmetry_cell_setting	triclinic
loop_
_symmetry_equiv_pos_as_xyz
  x,y,z
_cell_length_a	11.026607
_cell_length_b	9.482900
_cell_length_c	10.967961
_cell_angle_alpha	87.495787
_cell_angle_beta	83.619011
_cell_angle_gamma	101.363848
loop_
_atom_site_label
_atom_site_type_symbol
_atom_site_fract_x
_atom_site_fract_y
_atom_site_fract_z
O1	O	-1.652491	-0.244280	0.492555
O2	O	-1.152491	0.255720	0.992555
O3	O	-1.296439	-0.229808	0.434777
O4	O	-0.796439	0.270192	0.934777
O5	O	-1.475837	-0.193380	0.289384
O6	O	-0.975837	0.306620	0.789384
O7	O	-1.473093	-0.280708	0.637949
O8	O	-0.973093	0.219292	1.137949
O9	O	-1.439405	0.040975	0.319068
O10	O	-0.939405	0.540975	0.819068
O11	O	-1.260006	0.004547	0.464462
O12	O	-0.760006	0.504547	0.964462
O13	O	-1.616058	-0.009925	0.522240
O14	O	-1.116058	0.490075	1.022240
Cu15	Cu	-1.434706	0.018710	0.496061
Cu16	Cu	-0.934706	0.518710	0.996061
Cu17	Cu	-1.477792	-0.258442	0.460956
Cu18	Cu	-0.977792	0.241558	0.960956
O19	O	-1.436660	-0.046353	0.667633
O20	O	-0.936660	0.453647	1.167633
C21	C	-1.232505	-0.109961	0.438961
C22	C	-0.732505	0.390039	0.938961
C23	C	-1.096281	-0.102002	0.407186
C24	C	-0.596281	0.397998	0.907186
C25	C	-1.454668	-0.064852	0.258908
C26	C	-0.954668	0.435148	0.758908
C27	C	-1.445856	-0.031030	0.123872
C28	C	-0.945856	0.468970	0.623872
C29	C	-1.679993	-0.129775	0.518056
C30	C	-1.179993	0.370225	1.018056
C31	C	-1.816219	-0.137743	0.549830
C32	C	-1.316219	0.362257	1.049830
C33	C	-1.026646	-0.123984	0.494921
C34	C	-0.526646	0.376016	0.994921
C35	C	-0.885851	-0.115758	0.462082
C36	C	-0.385851	0.384242	0.962082
N37	N	-1.404410	0.213643	0.520753
N38	N	-0.904410	0.713643	1.020753
N39	N	-1.508096	-0.453374	0.436256
N40	N	-1.008096	0.046626	0.936256
C41	C	-1.468847	0.299002	0.468231
C42	C	-0.968847	0.799002	0.968231
C43	C	-1.443650	0.461269	0.488787
C44	C	-0.943650	0.961269	0.988787
C45	C	-1.451698	-0.102397	-0.091274
C46	C	-0.951698	0.397603	0.408726
C47	C	-1.460804	-0.137363	0.048291
C48	C	-0.960804	0.362637	0.548291
C49	C	-1.457829	-0.174884	0.698109
C50	C	-0.957829	0.325116	1.198109
C51	C	-1.466643	-0.208715	0.833144
C52	C	-0.966643	0.291285	1.333144
H53	H	-1.071263	-0.148885	0.594346
H54	H	-0.571263	0.351115	1.094346
N55	N	-0.875289	-0.170758	0.681541
N56	N	-0.375289	0.329242	1.181541
H57	H	-0.835472	-0.094342	0.734275
H58	H	-0.335472	0.405658	1.234275
H59	H	-0.967490	-0.171991	0.686233
H60	H	-0.467490	0.328009	1.186233
N61	N	-1.425831	0.052466	-0.142412
N62	N	-0.925831	0.552466	0.357588
H63	H	-1.417110	0.118614	-0.072797
H64	H	-0.917110	0.618614	0.427203
H65	H	-1.346050	0.072794	-0.200943
H66	H	-0.846050	0.572794	0.299057
N67	N	-0.826769	-0.082743	0.330374
N68	N	-0.326769	0.417257	0.830374
H69	H	-0.734564	-0.081541	0.325584
H70	H	-0.234564	0.418459	0.825584
H71	H	-0.866673	-0.159183	0.277715
H72	H	-0.366673	0.340817	0.777715
N73	N	-1.037193	-0.068989	0.275484
N74	N	-0.537193	0.431011	0.775484
H75	H	-0.944988	-0.067786	0.270695
H76	H	-0.444988	0.432214	0.770695
H77	H	-1.077098	-0.145429	0.222825
H78	H	-0.577098	0.354571	0.722825
H79	H	-1.369820	0.508315	0.548970
H80	H	-0.869820	1.008315	1.048970
N81	N	-1.492505	-0.363564	-0.115682
N82	N	-0.992505	0.136436	0.384318
H83	H	-1.575247	-0.415607	-0.138180
H84	H	-1.075247	0.084393	0.361820
H85	H	-1.424191	-0.412163	-0.151364
H86	H	-0.924191	0.087837	0.348636
N87	N	-1.566602	0.236705	0.388470
N88	N	-1.066602	0.736705	0.888470
H89	H	-1.570731	0.129621	0.385076
H90	H	-1.070731	0.629621	0.885076
H91	H	-1.650343	0.254224	0.424276
H92	H	-1.150343	0.754224	0.924276
H93	H	-1.581917	0.499583	0.376062
H94	H	-1.081917	0.999583	0.876062
N95	N	-1.306615	0.275952	0.600467
N96	N	-0.806615	0.775952	1.100467
H97	H	-1.302475	0.383039	0.603850
H98	H	-0.802475	0.883039	1.103850
H99	H	-1.329076	0.227935	0.686240
H100	H	-0.829076	0.727935	1.186240
N101	N	-1.486599	-0.292235	0.099411
N102	N	-0.986599	0.207765	0.599411
H103	H	-1.489410	-0.295261	0.191862
H104	H	-0.989410	0.204739	0.691862
H105	H	-1.569315	-0.344229	0.076826
H106	H	-1.069315	0.155771	0.576826
N107	N	-1.419973	0.123848	0.072755
N108	N	-0.919973	0.623848	0.572755
H109	H	-1.340173	0.144305	0.014242
H110	H	-0.840173	0.644305	0.514242
H111	H	-1.491222	0.140912	0.027461
H112	H	-0.991222	0.640912	0.527461
