data_functionalizedCrystal
_audit_creation_method	'MofGen! by Chris Wilmer'
_symmetry_space_group_name_H-M	'P1'
_symmetry_Int_Tables_number	1
_symmetry_cell_setting	triclinic
loop_
_symmetry_equiv_pos_as_xyz
  x,y,z
_cell_length_a	16.959455
_cell_length_b	17.638516
_cell_length_c	16.959447
_cell_angle_alpha	78.827901
_cell_angle_beta	90.014322
_cell_angle_gamma	101.240177
loop_
_atom_site_label
_atom_site_type_symbol
_atom_site_fract_x
_atom_site_fract_y
_atom_site_fract_z
Zn1	Zn	1.144689	-0.314731	0.510482
Zn2	Zn	1.117858	-0.446923	0.405006
Zn3	Zn	1.012512	-0.314755	0.378325
Zn4	Zn	0.985741	-0.446864	0.537132
O5	O	1.065200	-0.380818	0.457736
O6	O	1.251738	-0.332281	0.496503
O7	O	1.103859	-0.429426	0.290863
O8	O	1.052478	-0.204141	0.373536
O9	O	1.232025	-0.429402	0.419010
O10	O	1.149588	-0.204123	0.470632
O11	O	1.026462	-0.332323	0.271260
O12	O	0.898353	-0.332266	0.399378
O13	O	1.006850	-0.429301	0.644201
O14	O	0.878684	-0.429325	0.516053
O15	O	1.123629	-0.332223	0.624621
O16	O	1.077900	-0.557526	0.444852
O17	O	0.980834	-0.557483	0.541925
C18	C	0.859839	-0.380792	0.457713
C19	C	0.771981	-0.380800	0.457725
C20	C	0.410727	-0.330238	0.397081
C21	C	0.390263	-0.431464	0.518450
C22	C	0.472811	-0.431452	0.518443
C23	C	0.524321	-0.380834	0.457753
C24	C	0.493283	-0.330227	0.397070
C25	C	0.503854	-0.482064	0.579120
C26	C	0.586407	-0.482056	0.579115
C27	C	0.637920	-0.431433	0.518428
C28	C	0.606877	-0.380823	0.457743
C29	C	0.658387	-0.330204	0.397053
C30	C	0.627347	-0.279590	0.336371
C31	C	0.544795	-0.279604	0.336383
C32	C	0.720471	-0.431419	0.518415
C33	C	0.740943	-0.330193	0.397043
C34	C	1.023572	-0.586185	0.499193
C35	C	1.005835	-0.674041	0.516954
C36	C	1.200417	-0.962966	0.322863
C37	C	1.183737	-1.045521	0.339565
C38	C	1.082577	-1.045520	0.440567
C39	C	1.099245	-0.962964	0.423870
C40	C	1.158167	-0.921693	0.365018
C41	C	1.056995	-0.921691	0.466025
C42	C	1.073666	-0.839142	0.449332
C43	C	1.132586	-0.797866	0.390484
C44	C	1.174837	-0.839144	0.348325
C45	C	0.998078	-0.962963	0.524882
C46	C	0.955829	-0.921690	0.567037
C47	C	0.972495	-0.839140	0.550340
C48	C	1.031415	-0.797863	0.491492
C49	C	0.930244	-0.797861	0.592500
C50	C	0.946914	-0.715312	0.575807
C51	C	1.048085	-0.715314	0.474799
C52	C	1.271363	-0.380845	0.457760
C53	C	1.359217	-0.380856	0.457771
C54	C	1.065246	-0.380753	0.663891
C55	C	1.065266	-0.380725	0.751742
C56	C	1.107012	-0.174650	0.416135
C57	C	1.124830	-0.086793	0.398407
C58	C	1.065211	-0.380826	0.252372
C59	C	1.065390	-0.380632	0.164476
C60	C	1.004576	-0.431186	1.133398
C61	C	1.126178	-0.330098	1.113005
C62	C	1.126154	-0.330114	1.030462
C63	C	1.065340	-0.380668	0.999384
C64	C	1.004551	-0.431206	1.050848
C65	C	1.186947	-0.279584	0.978993
C66	C	1.186925	-0.279599	0.896445
C67	C	1.126107	-0.330150	0.865365
C68	C	1.065315	-0.380688	0.916834
C69	C	1.004502	-0.431242	0.885756
C70	C	0.943705	-0.481777	0.937224
C71	C	0.943733	-0.481756	1.019768
C72	C	1.126080	-0.330171	0.782820
C73	C	1.004477	-0.431262	0.803207
H74	H	0.385451	-0.289027	0.347676
O75	O	0.791028	-0.280937	0.338182
C76	C	0.905876	-0.174228	0.306165
C77	C	0.849204	-0.229947	0.372902
H78	H	0.952935	-0.132999	0.334212
H79	H	0.869555	-0.138001	0.262803
H80	H	0.937128	-0.210478	0.272070
H81	H	0.817938	-0.193757	0.407057
H82	H	0.885567	-0.266177	0.416209
O83	O	0.453713	-0.531159	0.638029
C84	C	0.317458	-0.576065	0.691803
C85	C	0.374160	-0.520411	0.625049
H86	H	0.253125	-0.567407	0.681322
H87	H	0.336447	-0.562265	0.752792
H88	H	0.320822	-0.639774	0.690682
H89	H	0.370823	-0.456684	0.626094
H90	H	0.355153	-0.534280	0.564089
H91	H	1.034605	-1.079134	0.488487
O92	O	0.945505	-0.480411	0.772939
C93	C	0.913202	-0.587184	0.701314
C94	C	0.980066	-0.531561	0.735537
H95	H	0.941119	-0.628564	0.671081
H96	H	0.879228	-0.550942	0.655299
H97	H	0.869746	-0.623261	0.752284
H98	H	1.023576	-0.495473	0.684622
H99	H	1.013980	-0.567848	0.781573
O100	O	1.224830	-1.085492	0.298511
C101	C	1.326974	-1.076779	0.196599
C102	C	1.280483	-1.031415	0.243015
H103	H	1.371991	-1.033078	0.151731
H104	H	1.282939	-1.115463	0.163003
H105	H	1.360447	-1.115391	0.240749
H106	H	1.247006	-0.992760	0.198920
H107	H	1.324556	-0.992781	0.276623
H108	H	0.519514	-0.238397	0.286978
O109	O	1.257543	-0.922831	0.265598
C110	C	1.287049	-0.829655	0.140089
C111	C	1.222276	-0.875074	0.204867
H112	H	1.258564	-0.791020	0.090980
H113	H	1.314379	-0.873294	0.112752
H114	H	1.336180	-0.790985	0.168614
H115	H	1.173097	-0.913746	0.176403
H116	H	1.195010	-0.831393	0.232198
H117	H	1.222811	-0.805540	0.300395
O118	O	0.884674	-0.530811	0.906894
C119	C	0.830788	-0.575673	0.788764
C120	C	0.897675	-0.520092	0.823007
H121	H	0.841286	-0.567038	0.720939
H122	H	0.769854	-0.561778	0.802123
H123	H	0.831736	-0.639399	0.817896
H124	H	0.896802	-0.456347	0.793895
H125	H	0.958579	-0.534054	0.809657
H126	H	0.669296	-0.238380	0.286954
H127	H	0.955076	-0.472328	1.175306
H128	H	0.611673	-0.523268	0.628527
H129	H	0.894239	-0.522902	1.061681
H130	H	1.175694	-0.288943	1.138315
O131	O	1.245943	-0.230512	1.009310
C132	C	1.299904	-0.185730	1.127452
C133	C	1.233027	-0.241330	1.093218
H134	H	1.289495	-0.194469	1.195298
H135	H	1.298961	-0.121975	1.098425
H136	H	1.360807	-0.199625	1.113977
H137	H	1.172091	-0.227506	1.106682
H138	H	1.234042	-0.305069	1.122245
O139	O	0.873014	-0.838078	0.649620
C140	C	0.802541	-0.965250	0.720144
C141	C	0.867360	-0.919805	0.655422
H142	H	0.797960	-1.031334	0.724868
H143	H	0.742048	-0.949142	0.702947
H144	H	0.819670	-0.948910	0.780578
H145	H	0.850307	-0.936121	0.594964
H146	H	0.927835	-0.935917	0.672688
H147	H	0.745740	-0.472631	0.567820
H148	H	0.348318	-0.472680	0.567857
O149	O	0.982027	-1.043152	0.541104
C150	C	1.033866	-1.161546	0.585467
C151	C	1.052159	-1.070734	0.567106
H152	H	1.090552	-1.183874	0.606510
H153	H	1.013004	-1.184061	0.528793
H154	H	0.984474	-1.183932	0.634748
H155	H	1.101566	-1.048281	0.517850
H156	H	1.072976	-1.048272	0.623819
O157	O	0.898594	-0.961906	0.624152
C158	C	0.828106	-1.089076	0.694667
C159	C	0.892934	-1.043633	0.629953
H160	H	0.823521	-1.155160	0.699390
H161	H	0.767617	-1.072962	0.677463
H162	H	0.845229	-1.072738	0.755104
H163	H	0.875887	-1.059946	0.569492
H164	H	0.953406	-1.059751	0.647226
O165	O	1.105259	-0.675302	0.417531
C166	C	1.148762	-0.650065	0.278004
C167	C	1.083970	-0.695444	0.342780
H168	H	1.131564	-0.666320	0.217549
H169	H	1.209238	-0.666247	0.295140
H170	H	1.153426	-0.583981	0.273362
H171	H	1.079234	-0.761538	0.347455
H172	H	1.023528	-0.679196	0.325617
O173	O	1.148906	-0.717677	0.374336
C174	C	1.248616	-0.599140	0.370689
C175	C	1.230242	-0.689951	0.389024
H176	H	1.314379	-0.576696	0.382540
H177	H	1.208353	-0.576684	0.410944
H178	H	1.236724	-0.576809	0.304945
H179	H	1.242140	-0.712349	0.454748
H180	H	1.270500	-0.712353	0.348716
O181	O	1.246016	-0.230433	0.846560
C182	C	1.366657	-0.130195	0.835057
C183	C	1.299778	-0.185824	0.891640
H184	H	1.410151	-0.094126	0.871484
H185	H	1.338785	-0.088814	0.788089
H186	H	1.400579	-0.166508	0.803708
H187	H	1.265832	-0.149574	0.923045
H188	H	1.327699	-0.227207	0.938559
O189	O	1.185170	-0.281014	0.732934
C190	C	1.305820	-0.180787	0.721430
C191	C	1.238936	-0.236408	0.778013
H192	H	1.349317	-0.144721	0.757857
H193	H	1.277954	-0.139404	0.674459
H194	H	1.339737	-0.217107	0.690084
H195	H	1.204995	-0.200152	0.809415
H196	H	1.266851	-0.277793	0.824935
H197	H	0.912510	-0.681707	0.610135
