data_functionalizedCrystal
_audit_creation_method	'MofGen! by Chris Wilmer'
_symmetry_space_group_name_H-M	'P1'
_symmetry_Int_Tables_number	1
_symmetry_cell_setting	triclinic
loop_
_symmetry_equiv_pos_as_xyz
  x,y,z
_cell_length_a	10.654546
_cell_length_b	9.730223
_cell_length_c	10.654550
_cell_angle_alpha	90.000193
_cell_angle_beta	95.515787
_cell_angle_gamma	89.992180
loop_
_atom_site_label
_atom_site_type_symbol
_atom_site_fract_x
_atom_site_fract_y
_atom_site_fract_z
O1	O	-1.667836	0.114529	0.176373
O2	O	-1.302357	0.114478	0.193184
O3	O	-1.493500	0.114500	0.002039
O4	O	-1.476694	0.114507	0.367518
O5	O	-1.493498	-0.114080	0.002044
O6	O	-1.302355	-0.114102	0.193188
O7	O	-1.667834	-0.114051	0.176378
Zn8	Zn	-1.485094	-0.150368	0.184784
Zn9	Zn	-1.485097	0.150796	0.184778
O10	O	-1.476692	-0.114072	0.367522
C11	C	-1.255558	0.000182	0.191953
C12	C	-1.116115	0.000162	0.188262
C13	C	-1.036629	0.000179	0.300805
C14	C	-0.905608	0.000192	0.297330
C15	C	-0.933571	0.000178	0.068760
C16	C	-1.064590	0.000155	0.072236
C17	C	-1.020483	0.000193	0.432768
C18	C	-0.889462	0.000207	0.429293
C19	C	-0.714633	0.000229	0.177612
C20	C	-0.854075	0.000199	0.181311
N21	N	-1.485102	-0.355905	0.184788
C22	C	-1.492265	0.000211	-0.044757
C23	C	-1.488573	0.000215	-0.184200
C24	C	-1.569761	-0.427821	0.100178
C25	C	-1.569758	-0.571704	0.100162
C26	C	-1.400431	-0.571741	0.269378
C27	C	-1.400429	-0.427861	0.269386
C28	C	-1.667525	-0.427801	0.002486
C29	C	-1.667522	-0.571684	0.002471
N30	N	-1.485100	0.356332	0.184764
C31	C	-1.601115	0.000227	-0.263687
C32	C	-1.597638	0.000236	-0.394708
C33	C	-1.369068	0.000216	-0.366741
C34	C	-1.372546	0.000217	-0.235723
C35	C	-1.733078	0.000232	-0.279834
C36	C	-1.729601	0.000241	-0.410855
C37	C	-1.477927	0.000219	0.414318
C38	C	-1.481619	0.000224	0.553761
H39	H	-1.056140	0.098884	0.474784
H40	H	-1.758709	-0.383161	0.033073
H41	H	-1.331492	-0.630344	0.338255
H42	H	-1.646082	-0.388753	-0.094046
H43	H	-1.331482	-0.369308	0.338271
H44	H	-0.843790	-0.098480	0.469176
H45	H	-1.637009	-0.616306	-0.088752
H46	H	-0.847731	0.095872	0.479013
H47	H	-1.280904	0.000227	-0.171008
H48	H	-1.049814	-0.095469	0.484380
H49	H	-1.769483	0.098941	-0.456500
H50	H	-1.764033	-0.610721	0.023988
H51	H	-1.779322	-0.095410	-0.452614
H52	H	-1.274603	0.000219	-0.408708
H53	H	-1.784694	0.095893	-0.250479
H54	H	-1.129304	0.000122	-0.019407
H55	H	-1.775099	-0.098458	-0.244206
H56	H	-0.891603	0.000193	-0.025705
