data_functionalizedCrystal
_audit_creation_method	'MofGen! by Chris Wilmer'
_symmetry_space_group_name_H-M	'P1'
_symmetry_Int_Tables_number	1
_symmetry_cell_setting	triclinic
loop_
_symmetry_equiv_pos_as_xyz
  x,y,z
_cell_length_a	14.853567
_cell_length_b	17.699083
_cell_length_c	16.176319
_cell_angle_alpha	90.001389
_cell_angle_beta	89.996997
_cell_angle_gamma	96.541028
loop_
_atom_site_label
_atom_site_type_symbol
_atom_site_fract_x
_atom_site_fract_y
_atom_site_fract_z
O1	O	0.114008	-1.004375	-0.068624
O2	O	0.614008	-0.504375	0.431376
O3	O	0.128841	-0.784035	-0.068650
O4	O	0.628841	-0.284035	0.431350
O5	O	-0.009827	-0.900090	-0.068639
O6	O	0.490173	-0.400090	0.431361
O7	O	0.252676	-0.888319	-0.068635
O8	O	0.752676	-0.388319	0.431365
O9	O	-0.009836	-0.900074	0.068855
O10	O	0.490164	-0.400074	0.568855
O11	O	0.128832	-0.784019	0.068843
O12	O	0.628832	-0.284019	0.568843
O13	O	0.113999	-1.004359	0.068869
O14	O	0.613999	-0.504359	0.568869
Cu15	Cu	0.121415	-0.894187	0.081411
Cu16	Cu	0.621415	-0.394187	0.581411
Cu17	Cu	0.121425	-0.894206	-0.081191
Cu18	Cu	0.621425	-0.394206	0.418809
O19	O	0.252667	-0.888303	0.068858
O20	O	0.752667	-0.388303	0.568858
C21	C	0.128305	-0.755828	0.000093
C22	C	0.628305	-0.255828	0.500093
C23	C	0.126711	-0.671806	0.000083
C24	C	0.626711	-0.171806	0.500083
C25	C	-0.043418	-0.899549	0.000106
C26	C	0.456582	-0.399549	0.500106
C27	C	-0.143496	-0.897951	0.000098
C28	C	0.356504	-0.397951	0.500098
N29	N	0.121407	-0.894179	0.195776
N30	N	0.621407	-0.394179	0.695776
C31	C	-0.555751	-0.822255	0.000105
C32	C	-0.055751	-0.322255	0.500105
C33	C	-0.577539	-0.960131	0.000121
C34	C	-0.077539	-0.460131	0.500121
C35	C	-0.483511	-0.961634	0.000117
C36	C	0.016489	-0.461634	0.500117
C37	C	-0.425598	-0.893446	0.000107
C38	C	0.074402	-0.393446	0.500107
C39	C	-0.461714	-0.823756	0.000103
C40	C	0.038286	-0.323756	0.500103
C41	C	-0.447389	-1.031324	0.000129
C42	C	0.052611	-0.531324	0.500129
C43	C	-0.353355	-1.032829	0.000126
C44	C	0.146645	-0.532829	0.500126
C45	C	-0.295441	-0.964641	0.000111
C46	C	0.204559	-0.464641	0.500111
C47	C	-0.331561	-0.894947	0.000105
C48	C	0.168439	-0.394947	0.500105
C49	C	-0.273648	-0.826759	0.000096
C50	C	0.226352	-0.326759	0.500096
C51	C	-0.309767	-0.757065	0.000084
C52	C	0.190233	-0.257065	0.500084
C53	C	-0.403799	-0.755567	0.000088
C54	C	0.096201	-0.255567	0.500088
C55	C	-0.201409	-0.966139	0.000107
C56	C	0.298591	-0.466139	0.500107
C57	C	-0.179611	-0.828260	0.000094
C58	C	0.320389	-0.328260	0.500094
C59	C	0.286258	-0.888844	0.000112
C60	C	0.786258	-0.388844	0.500112
C61	C	0.386336	-0.890443	0.000114
C62	C	0.886336	-0.390443	0.500114
C63	C	0.114535	-1.032565	0.000125
C64	C	0.614535	-0.532565	0.500125
C65	C	0.116130	-1.116587	0.000129
C66	C	0.616130	-0.616587	0.500129
C67	C	0.208106	-0.623396	0.000084
C68	C	0.708106	-0.123396	0.500084
C69	C	0.206602	-0.544449	0.000095
C70	C	0.706602	-0.044449	0.500095
C71	C	0.123703	-0.513913	0.000098
C72	C	0.623703	-0.013913	0.500098
C73	C	0.042301	-0.562329	0.000099
C74	C	0.542301	-0.062329	0.500099
C75	C	0.043806	-0.641275	0.000095
C76	C	0.543806	-0.141275	0.500095
C77	C	0.036232	-0.243950	0.000120
C78	C	0.536232	0.256050	0.500120
C79	C	0.034734	-0.164999	0.000122
C80	C	0.534734	0.335001	0.500122
C81	C	0.199028	-0.147125	0.000120
C82	C	0.699028	0.352875	0.500120
C83	C	0.200533	-0.226070	0.000115
C84	C	0.700533	0.273930	0.500115
C85	C	0.119132	-0.274479	0.000121
C86	C	0.619132	0.225521	0.500121
C87	C	0.120763	-0.360083	0.000111
C88	C	0.620763	0.139917	0.500111
C89	C	0.122070	-0.428311	0.000102
C90	C	0.622070	0.071689	0.500102
N91	N	0.121426	-0.894220	-0.195556
N92	N	0.621426	-0.394220	0.304444
C93	C	0.060030	-0.945584	0.239045
C94	C	0.560030	-0.445584	0.739045
C95	C	0.060029	-0.945588	0.325592
C96	C	0.560029	-0.445588	0.825592
C97	C	0.121410	-0.894190	0.368868
C98	C	0.621410	-0.394190	0.868868
C99	C	0.182790	-0.842780	0.325593
C100	C	0.682790	-0.342780	0.825593
C101	C	0.182786	-0.842773	0.239048
C102	C	0.682786	-0.342773	0.739048
C103	C	0.182807	-0.842806	0.674621
C104	C	0.682807	-0.342806	1.174621
C105	C	0.182808	-0.842818	0.761173
C106	C	0.682808	-0.342818	1.261173
C107	C	0.060050	-0.945621	0.761166
C108	C	0.560050	-0.445621	1.261166
C109	C	0.060046	-0.945614	0.674620
C110	C	0.560046	-0.445614	1.174620
C111	C	0.121422	-0.894201	0.631353
C112	C	0.621422	-0.394201	1.131353
C113	C	0.121422	-0.894197	0.537508
C114	C	0.621422	-0.394197	1.037508
C115	C	0.121416	-0.894198	0.462711
C116	C	0.621416	-0.394198	0.962711
H117	H	-0.262602	-0.701546	0.000083
H118	H	0.237398	-0.201546	0.500083
N119	N	0.249006	-0.787373	0.807855
N120	N	0.749006	-0.287373	1.307855
H121	H	0.312983	-0.796141	0.792788
H122	H	0.812983	-0.296141	1.292788
H123	H	0.238612	-0.733674	0.792786
H124	H	0.738612	-0.233674	1.292786
H125	H	-0.323956	-1.089579	0.000134
H126	H	0.176044	-0.589579	0.500134
H127	H	0.275612	-0.648252	0.000081
H128	H	0.775612	-0.148252	0.500081
N129	N	-0.006153	-1.001039	0.372271
N130	N	0.493847	-0.501039	0.872271
H131	H	0.028271	-1.034572	0.408170
H132	H	0.528271	-0.534572	0.908170
H133	H	-0.046012	-0.972032	0.408142
H134	H	0.453988	-0.472032	0.908142
N135	N	0.294392	-0.492235	0.000190
N136	N	0.794392	0.007765	0.500190
H137	H	0.347136	-0.523559	0.000212
H138	H	0.847136	-0.023559	0.500212
H139	H	0.297417	-0.459045	-0.050747
H140	H	0.797417	0.040955	0.449253
H141	H	0.232783	-0.800945	0.639400
H142	H	0.732783	-0.300945	1.139400
H143	H	0.010067	-0.987470	0.639387
H144	H	0.510067	-0.487470	1.139387
H145	H	0.232765	-0.800927	0.360834
H146	H	0.732765	-0.300927	0.860834
N147	N	0.248981	-0.787325	0.192374
N148	N	0.748981	-0.287325	0.692374
H149	H	0.287867	-0.754766	0.232921
H150	H	0.787867	-0.254766	0.732921
H151	H	0.288794	-0.816333	0.156456
H152	H	0.788794	-0.316333	0.656456
N153	N	0.289945	-0.259006	0.000100
N154	N	0.789945	0.240994	0.500100
H155	H	0.341282	-0.216358	0.000103
H156	H	0.841282	0.283642	0.500103
H157	H	0.294147	-0.291375	0.051067
H158	H	0.794147	0.208625	0.551067
N159	N	-0.640000	-1.033672	0.000124
N160	N	-0.140000	-0.533672	0.500124
H161	H	-0.602850	-1.078048	0.000125
H162	H	-0.102850	-0.578048	0.500125
H163	H	-0.679489	-1.036049	0.051096
H164	H	-0.179489	-0.536049	0.551096
N165	N	0.286829	-0.094912	0.000117
N166	N	0.786829	0.405088	0.500117
H167	H	0.273302	-0.040266	0.000123
H168	H	0.773302	0.459734	0.500123
H169	H	0.322965	-0.104812	0.051084
H170	H	0.822965	0.395188	0.551084
N171	N	-0.162451	-1.041299	0.000130
N172	N	0.337549	-0.541299	0.500130
H173	H	-0.183576	-1.071190	-0.050831
H174	H	0.316424	-0.571190	0.449169
H175	H	-0.094101	-1.031838	0.000158
H176	H	0.405899	-0.531838	0.500158
H177	H	-0.032777	-0.140140	0.000126
H178	H	0.467223	0.359860	0.500126
H179	H	-0.132463	-0.772732	0.000082
H180	H	0.367537	-0.272732	0.500082
H181	H	0.010071	-0.987482	0.796404
H182	H	0.510071	-0.487482	1.296404
N183	N	-0.442754	-0.680402	0.000079
N184	N	0.057246	-0.180402	0.500079
H185	H	-0.511111	-0.689800	0.000087
H186	H	-0.011111	-0.189800	0.500087
H187	H	-0.421558	-0.650556	0.051046
H188	H	0.078442	-0.150556	0.551046
H189	H	-0.494548	-1.086839	0.000145
H190	H	0.005452	-0.586839	0.500145
N191	N	-0.594699	-0.747087	0.000088
N192	N	-0.094699	-0.247087	0.500088
H193	H	-0.663056	-0.756479	0.000089
H194	H	-0.163056	-0.256479	0.500089
H195	H	-0.573506	-0.717239	0.051055
H196	H	-0.073506	-0.217239	0.551055
N197	N	-0.051560	-0.296157	0.000131
N198	N	0.448440	0.203843	0.500131
H199	H	-0.104302	-0.264831	0.000133
H200	H	0.395698	0.235169	0.500133
H201	H	-0.054520	-0.329305	-0.050838
H202	H	0.445480	0.170695	0.449162
H203	H	-0.022475	-0.680690	0.000093
H204	H	0.477525	-0.180690	0.500093
N205	N	-0.047114	-0.529399	0.000116
N206	N	0.452886	-0.029399	0.500116
H207	H	-0.035718	-0.472041	0.000119
H208	H	0.464282	0.027959	0.500119
H209	H	-0.082727	-0.547100	-0.050852
H210	H	0.417273	-0.047100	0.449148
N211	N	-0.006169	-1.001026	0.192371
N212	N	0.493831	-0.501026	0.692371
H213	H	-0.045052	-1.033590	0.232918
H214	H	0.454948	-0.533590	0.732918
H215	H	-0.045985	-0.972010	0.156470
H216	H	0.454015	-0.472010	0.656470
