data_functionalizedCrystal
_audit_creation_method	'MofGen! by Chris Wilmer'
_symmetry_space_group_name_H-M	'P1'
_symmetry_Int_Tables_number	1
_symmetry_cell_setting	triclinic
loop_
_symmetry_equiv_pos_as_xyz
  x,y,z
_cell_length_a	17.917603
_cell_length_b	12.970454
_cell_length_c	12.970454
_cell_angle_alpha	60.000396
_cell_angle_beta	89.999951
_cell_angle_gamma	57.011456
loop_
_atom_site_label
_atom_site_type_symbol
_atom_site_fract_x
_atom_site_fract_y
_atom_site_fract_z
Zr1	Zr	0.754910	1.033592	-0.087828
O2	O	0.629787	1.264412	-0.260316
O3	O	0.793266	0.813681	-0.034952
O4	O	0.793268	1.028768	-0.250040
O5	O	0.629784	1.049326	0.124438
O6	O	0.922225	1.012554	-0.241932
O7	O	0.629785	1.049325	-0.045228
O8	O	0.922222	0.627801	0.142821
O9	O	0.629787	1.434078	-0.260315
O10	O	0.905864	0.887992	-0.006349
O11	O	0.809624	0.900094	0.114221
O12	O	0.809626	1.153332	-0.139017
O13	O	0.713386	1.165433	-0.018448
Zr14	Zr	0.960580	1.007733	0.195702
Zr15	Zr	0.960581	1.007732	-0.074897
Zr16	Zr	0.754908	1.033594	0.182771
Zr17	Zr	0.754910	1.304190	-0.087825
Zr18	Zr	0.960579	0.737136	0.195699
O19	O	0.922223	1.227645	0.142826
O20	O	0.922225	1.227643	-0.241930
O21	O	0.629785	1.264415	0.124440
O22	O	1.085703	0.776913	0.368190
O23	O	1.085705	0.776911	-0.016566
O24	O	0.793264	0.813683	0.349804
O25	O	1.085705	0.992000	-0.016564
O26	O	0.922222	1.012557	0.357914
O27	O	0.793265	1.028772	0.349806
O28	O	1.085704	0.992001	0.153103
O29	O	0.793269	1.413523	-0.250036
O30	O	0.922221	0.627802	0.357911
O31	O	1.085702	0.607247	0.368189
O32	O	1.085703	0.607246	0.153099
O33	O	0.629786	1.434080	-0.045225
O34	O	0.793268	1.413524	-0.034947
O35	O	0.905863	0.887994	0.246892
O36	O	1.002103	0.875892	0.126322
O37	O	0.905865	1.141232	-0.006347
O38	O	0.809625	1.153333	0.114223
C39	C	0.857744	0.682186	0.053934
C40	C	0.857743	0.567311	0.053933
C41	C	0.600481	1.053010	0.037763
C42	C	0.513168	1.063988	0.032273
C43	C	0.353324	1.084041	0.022248
C44	C	0.362159	0.957291	0.085623
C45	C	0.273216	0.968448	0.080045
C46	C	0.442273	1.072887	0.027824
C47	C	1.115009	0.988316	0.070112
C48	C	1.202322	0.977337	0.075601
C49	C	0.857746	1.020661	-0.284540
C50	C	0.857747	1.020660	-0.399416
C51	C	0.857746	1.359139	0.053940
C52	C	0.857746	1.474015	0.053941
C53	C	0.857743	1.020665	0.392415
C54	C	0.857742	1.020665	0.507291
C55	C	1.115008	0.649839	0.070109
C56	C	1.202320	0.523985	0.075597
C57	C	0.857742	0.682189	0.392412
C58	C	0.857741	0.567313	0.507287
C59	C	1.115006	0.649841	0.408586
C60	C	1.202318	0.523988	0.528951
C61	C	0.600483	1.391484	-0.300712
C62	C	0.513171	1.517337	-0.421076
C63	C	0.600482	1.391486	0.037766
C64	C	0.513169	1.517340	0.032277
C65	C	0.857747	1.359137	-0.284537
C66	C	0.857748	1.474012	-0.399412
C67	C	1.193088	0.471199	0.008910
C68	C	1.275120	0.352962	0.014042
C69	C	1.366383	0.287505	0.085868
C70	C	1.375614	0.340303	0.152556
C71	C	1.293583	0.458545	0.147417
C72	C	1.293566	0.458568	0.522540
C73	C	1.375612	0.340330	0.635625
C74	C	1.366410	0.287506	0.755120
C75	C	1.275152	0.352938	0.761528
C76	C	1.193108	0.471181	0.648444
C77	C	0.421924	1.582770	-0.414665
C78	C	0.339877	1.701043	-0.527751
C79	C	0.349080	1.753872	-0.647246
C80	C	0.440337	1.688433	-0.653654
C81	C	0.522382	1.570171	-0.540570
C82	C	0.522402	1.570138	0.098953
C83	C	0.440370	1.688405	0.093791
C84	C	0.349106	1.753865	0.021962
C85	C	0.339876	1.701063	-0.044722
C86	C	0.421907	1.582805	-0.039567
H87	H	0.436520	0.840396	0.144069
Cl88	Cl	0.245990	1.902530	0.015498
H89	H	1.118813	0.524432	0.653682
Cl90	Cl	0.238521	1.264508	-0.067987
Cl91	Cl	0.410329	1.516381	-0.264457
Cl92	Cl	0.225166	1.783279	-0.519665
Cl93	Cl	0.637090	1.487915	-0.548652
H94	H	0.414376	1.539822	-0.093860
H95	H	1.449931	0.286991	0.211035
Cl96	Cl	1.078367	0.553469	-0.081401
H97	H	1.267585	0.309990	-0.040265
H98	H	0.282266	1.850169	-0.739317
H99	H	1.301114	0.501508	0.201729
Cl100	Cl	0.225137	1.783365	-0.135011
Cl101	Cl	1.469499	0.138853	0.092318
Cl102	Cl	0.637123	1.487876	0.189256
Cl103	Cl	1.305160	0.524959	0.372332
H104	H	1.267674	0.309911	0.858836
H105	H	1.433224	0.191223	0.847191
Cl106	Cl	1.490324	0.258090	0.627540
H107	H	0.447819	1.731462	-0.750960
H108	H	0.447904	1.731376	0.148099
