data_functionalizedCrystal
_audit_creation_method	'MofGen! by Chris Wilmer'
_symmetry_space_group_name_H-M	'P1'
_symmetry_Int_Tables_number	1
_symmetry_cell_setting	triclinic
loop_
_symmetry_equiv_pos_as_xyz
  x,y,z
_cell_length_a	10.654545
_cell_length_b	10.654551
_cell_length_c	9.730223
_cell_angle_alpha	89.997362
_cell_angle_beta	89.997167
_cell_angle_gamma	84.484254
loop_
_atom_site_label
_atom_site_type_symbol
_atom_site_fract_x
_atom_site_fract_y
_atom_site_fract_z
O1	O	1.667843	0.176371	-0.114270
O2	O	2.167843	0.676371	0.385730
O3	O	1.302364	0.193183	-0.114276
O4	O	1.802364	0.693183	0.385724
O5	O	1.493506	0.002038	-0.114270
O6	O	1.993506	0.502038	0.385730
O7	O	1.476701	0.367517	-0.114276
O8	O	1.976701	0.867517	0.385724
O9	O	1.493493	0.002033	0.114310
O10	O	1.993493	0.502033	0.614310
O11	O	1.302352	0.193178	0.114304
O12	O	1.802352	0.693178	0.614304
O13	O	1.667831	0.176366	0.114310
O14	O	2.167831	0.676366	0.614310
Zn15	Zn	1.485089	0.184771	0.150599
Zn16	Zn	1.985089	0.684771	0.650599
Zn17	Zn	1.485106	0.184778	-0.150565
Zn18	Zn	1.985106	0.684778	0.349435
O19	O	1.476689	0.367511	0.114304
O20	O	1.976689	0.867511	0.614304
C21	C	1.255560	0.191948	0.000014
C22	C	1.755560	0.691948	0.500014
C23	C	1.116116	0.188258	0.000012
C24	C	1.616116	0.688258	0.500012
C25	C	1.050605	0.186518	0.124611
C26	C	1.550605	0.686518	0.624611
C27	C	0.919585	0.183031	0.124611
C28	C	1.419585	0.683031	0.624611
C29	C	0.919599	0.183028	-0.124599
C30	C	1.419599	0.683028	0.375401
C31	C	1.050618	0.186506	-0.124598
C32	C	1.550618	0.686506	0.375402
C33	C	1.492265	-0.044762	0.000018
C34	C	1.992265	0.455238	0.500018
C35	C	1.488573	-0.184205	0.000011
C36	C	1.988573	0.315795	0.500011
C37	C	1.486847	-0.249706	-0.124589
C38	C	1.986847	0.250294	0.375411
C39	C	1.483367	-0.380727	-0.124590
C40	C	1.983367	0.119273	0.375410
C41	C	1.483345	-0.380734	0.124620
C42	C	1.983345	0.119266	0.624620
C43	C	1.486816	-0.249715	0.124620
C44	C	1.986816	0.250285	0.624620
C45	C	1.714635	0.177602	0.000017
C46	C	2.214635	0.677602	0.500017
C47	C	1.854079	0.181292	0.000010
C48	C	2.354079	0.681292	0.500010
C49	C	1.477929	0.414312	0.000013
C50	C	1.977929	0.914312	0.500013
C51	C	1.481622	0.553755	0.000010
C52	C	1.981622	1.053755	0.500010
N53	N	1.485087	0.184766	0.356135
N54	N	1.985087	0.684766	0.856135
N55	N	1.485117	0.184774	-0.356101
N56	N	1.985117	0.684774	0.143899
C57	C	1.569754	0.100163	0.428064
C58	C	2.069754	0.600163	0.928064
C59	C	1.569766	0.100163	0.571947
C60	C	2.069766	0.600163	1.071947
C61	C	1.400442	0.269381	0.571960
C62	C	1.900442	0.769381	1.071960
C63	C	1.400424	0.269373	0.428080
C64	C	1.900424	0.769373	0.928080
H65	H	0.866252	0.181614	0.226073
H66	H	1.366252	0.681614	0.726073
Br67	Br	1.489138	-0.160810	0.293733
Br68	Br	1.989138	0.339190	0.793733
Br69	Br	1.285548	0.384204	0.669603
Br70	Br	1.785548	0.884204	1.169603
Br71	Br	1.139536	0.188852	-0.293710
Br72	Br	1.639536	0.688852	0.206290
Br73	Br	1.285502	0.384190	0.330451
Br74	Br	1.785502	0.884190	0.830451
Br75	Br	1.481016	-0.469616	-0.293698
Br76	Br	1.981016	0.030384	0.206302
Br77	Br	1.139493	0.188891	0.293722
Br78	Br	1.639493	0.688891	0.793722
H79	H	1.481916	-0.434089	0.226072
H80	H	1.981916	0.065911	0.726072
H81	H	1.488274	-0.196372	-0.226053
H82	H	1.988274	0.303628	0.273947
Br83	Br	0.830706	0.180613	-0.293703
Br84	Br	1.330706	0.680613	0.206297
H85	H	1.638708	0.031270	0.630507
H86	H	2.138708	0.531270	1.130507
Br87	Br	1.684651	-0.014664	0.330430
Br88	Br	2.184651	0.485336	0.830430
