data_functionalizedCrystal
_audit_creation_method	'MofGen! by Chris Wilmer'
_symmetry_space_group_name_H-M	'P1'
_symmetry_Int_Tables_number	1
_symmetry_cell_setting	triclinic
loop_
_symmetry_equiv_pos_as_xyz
  x,y,z
_cell_length_a	16.625547
_cell_length_b	18.101396
_cell_length_c	16.625525
_cell_angle_alpha	90.091162
_cell_angle_beta	89.934616
_cell_angle_gamma	89.963039
loop_
_atom_site_label
_atom_site_type_symbol
_atom_site_fract_x
_atom_site_fract_y
_atom_site_fract_z
Zn1	Zn	1.232922	0.294360	-0.456009
Zn2	Zn	1.566255	0.627694	-0.122676
Zn3	Zn	1.899589	0.961027	0.210657
Zn4	Zn	1.232696	0.418348	-0.321179
Zn5	Zn	1.566029	0.751681	0.012154
Zn6	Zn	1.899362	1.085015	0.345488
Zn7	Zn	1.097988	0.294525	-0.321179
Zn8	Zn	1.431322	0.627858	0.012154
Zn9	Zn	1.764655	0.961192	0.345487
Zn10	Zn	1.098020	0.418165	-0.455959
Zn11	Zn	1.431353	0.751498	-0.122626
Zn12	Zn	1.764687	1.084831	0.210707
O13	O	1.165407	0.356349	-0.388582
O14	O	1.498740	0.689683	-0.055248
O15	O	1.832073	1.023016	0.278085
O16	O	1.345724	0.310816	-0.438144
O17	O	1.679058	0.644149	-0.104811
O18	O	2.012391	0.977482	0.228522
O19	O	1.214718	0.402068	-0.208346
O20	O	1.548052	0.735402	0.124987
O21	O	1.881385	1.068735	0.458320
O22	O	1.115969	0.190870	-0.339086
O23	O	1.449303	0.524203	-0.005753
O24	O	1.782636	0.857537	0.327581
O25	O	1.345558	0.401909	-0.339085
O26	O	1.678891	0.735242	-0.005752
O27	O	2.012225	1.068576	0.327581
O28	O	1.215104	0.190749	-0.438145
O29	O	1.548438	0.524083	-0.104811
O30	O	1.881771	0.857416	0.228522
O31	O	1.115749	0.311096	-0.208347
O32	O	1.449083	0.644429	0.124987
O33	O	1.782416	0.977763	0.458320
O34	O	0.985160	0.310918	-0.339037
O35	O	1.318494	0.644251	-0.005704
O36	O	1.651827	0.977585	0.327629
O37	O	1.116023	0.401596	-0.568799
O38	O	1.449357	0.734929	-0.235465
O39	O	1.782690	1.068263	0.097868
O40	O	0.985183	0.401755	-0.438060
O41	O	1.318517	0.735089	-0.104726
O42	O	1.651850	1.068422	0.228607
O43	O	1.215135	0.310638	-0.568835
O44	O	1.548468	0.643971	-0.235502
O45	O	1.881802	0.977304	0.097831
O46	O	1.214749	0.521957	-0.339037
O47	O	1.548082	0.855290	-0.005704
O48	O	1.881416	1.188623	0.327630
O49	O	1.115803	0.521822	-0.438059
O50	O	1.449137	0.855155	-0.104726
O51	O	1.782470	1.188489	0.228607
C52	C	0.955916	0.356335	-0.388544
C53	C	1.289249	0.689668	-0.055210
C54	C	1.622582	1.023002	0.278123
C55	C	0.866295	0.356347	-0.388547
C56	C	1.199628	0.689680	-0.055213
C57	C	1.532961	1.023014	0.278120
C58	C	0.793512	0.356348	-0.388556
C59	C	1.126845	0.689682	-0.055223
C60	C	1.460179	1.023015	0.278110
C61	C	0.702204	0.356352	-0.388577
C62	C	1.035537	0.689685	-0.055243
C63	C	1.368870	1.023019	0.278090
C64	C	0.629427	0.356359	-0.388597
C65	C	0.962761	0.689692	-0.055264
C66	C	1.296094	1.023026	0.278070
C67	C	0.538113	0.356364	-0.388616
C68	C	0.871446	0.689697	-0.055283
C69	C	1.204780	1.023031	0.278050
C70	C	1.165277	0.548760	-0.388560
C71	C	1.498610	0.882093	-0.055227
C72	C	1.831944	1.215427	0.278106
C73	C	1.165295	0.631074	-0.388578
C74	C	1.498629	0.964408	-0.055245
C75	C	1.831962	1.297741	0.278089
C76	C	1.165439	0.930165	-0.388625
C77	C	1.498772	1.263498	-0.055292
C78	C	1.832105	1.596832	0.278041
C79	C	1.103333	0.898786	-0.451082
C80	C	1.436666	1.232119	-0.117748
C81	C	1.770000	1.565452	0.215585
C82	C	1.103047	0.813168	-0.450885
C83	C	1.436380	1.146501	-0.117552
C84	C	1.769714	1.479835	0.215781
C85	C	1.165368	0.781783	-0.388603
C86	C	1.498701	1.115116	-0.055269
C87	C	1.832034	1.448449	0.278064
C88	C	1.142297	0.813022	-0.303623
C89	C	1.475630	1.146355	0.029710
C90	C	1.808963	1.479688	0.363044
C91	C	1.141887	0.898667	-0.303998
C92	C	1.475220	1.232000	0.029336
C93	C	1.808553	1.565333	0.362669
C94	C	1.250754	0.898486	-0.410400
C95	C	1.584088	1.231820	-0.077066
C96	C	1.917421	1.565153	0.256267
C97	C	1.250264	0.812833	-0.412262
C98	C	1.583597	1.146167	-0.078929
C99	C	1.916930	1.479500	0.254404
C100	C	1.165329	0.697923	-0.388585
C101	C	1.498662	1.031256	-0.055251
C102	C	1.831995	1.364590	0.278082
C103	C	1.165476	1.014024	-0.388637
C104	C	1.498809	1.347358	-0.055304
C105	C	1.832142	1.680691	0.278029
C106	C	1.375715	0.356364	-0.388620
C107	C	1.709049	0.689698	-0.055287
C108	C	2.042382	1.023031	0.278046
C109	C	1.465337	0.356371	-0.388637
C110	C	1.798670	0.689704	-0.055304
C111	C	2.132003	1.023037	0.278030
C112	C	1.165608	0.356078	-0.598891
C113	C	1.498941	0.689411	-0.265558
C114	C	1.832275	1.022745	0.067775
C115	C	1.165694	0.355962	-0.688513
C116	C	1.499027	0.689296	-0.355179
C117	C	1.832361	1.022629	-0.021846
C118	C	1.165530	1.163188	-0.388624
C119	C	1.498864	1.496521	-0.055291
C120	C	1.832197	1.829854	0.278043
C121	C	1.165511	1.080873	-0.388650
C122	C	1.498844	1.414207	-0.055316
C123	C	1.832178	1.747540	0.278017
C124	C	1.165252	0.356567	-0.179090
C125	C	1.498586	0.689900	0.154243
C126	C	1.831919	1.023233	0.487576
C127	C	1.165323	0.356474	-0.089469
C128	C	1.498656	0.689807	0.243864
C129	C	1.831989	1.023140	0.577197
C130	C	1.165393	0.356387	-0.016687
C131	C	1.498727	0.689720	0.316646
C132	C	1.832060	1.023053	0.649979
C133	C	1.165480	0.356271	0.074621
C134	C	1.498813	0.689604	0.407954
C135	C	1.832146	1.022937	0.741288
C136	C	1.165544	0.356174	0.147397
C137	C	1.498878	0.689507	0.480730
C138	C	1.832211	1.022841	0.814064
C139	C	1.165629	0.356059	0.238711
C140	C	1.498962	0.689392	0.572044
C141	C	1.832296	1.022725	0.905378
H142	H	1.117489	0.792039	-0.513897
H143	H	1.450822	1.125372	-0.180563
H144	H	1.784155	1.458705	0.152770
N145	N	1.196138	0.924733	-0.243612
N146	N	1.529471	1.258066	0.089722
N147	N	1.862805	1.591400	0.423055
N148	N	1.170709	0.964396	-0.187455
N149	N	1.504042	1.297729	0.145878
N150	N	1.837375	1.631063	0.479212
H151	H	1.209016	0.982806	-0.144803
H152	H	1.542349	1.316140	0.188531
H153	H	1.875683	1.649473	0.521864
N154	N	1.272081	0.787204	-0.490719
N155	N	1.605414	1.120538	-0.157386
N156	N	1.938748	1.453871	0.175948
N157	N	1.225324	0.746220	-0.529111
N158	N	1.558657	1.079554	-0.195778
N159	N	1.891990	1.412887	0.137556
H160	H	1.240729	0.728116	-0.584523
H161	H	1.574062	1.061450	-0.251189
H162	H	1.907396	1.394783	0.082144
H163	H	1.039815	0.792760	-0.436461
H164	H	1.373149	1.126093	-0.103128
H165	H	1.706482	1.459426	0.230206
N166	N	1.063648	0.923828	-0.280853
N167	N	1.396981	1.257161	0.052480
N168	N	1.730315	1.590495	0.385814
N169	N	1.009726	0.878136	-0.264538
N170	N	1.343060	1.211469	0.068795
N171	N	1.676393	1.544802	0.402128
H172	H	0.954468	0.895902	-0.248192
H173	H	1.287801	1.229235	0.085142
H174	H	1.621134	1.562568	0.418475
N175	N	1.121239	0.924481	-0.530392
N176	N	1.454572	1.257814	-0.197058
N177	N	1.787906	1.591148	0.136275
N178	N	1.078138	0.905198	-0.588281
N179	N	1.411471	1.238532	-0.254948
N180	N	1.744805	1.571865	0.078386
H181	H	1.090783	0.923350	-0.644297
H182	H	1.424117	1.256684	-0.310963
H183	H	1.757450	1.590017	0.022370
H184	H	1.186110	0.792701	-0.255818
H185	H	1.519444	1.126034	0.077515
H186	H	1.852777	1.459368	0.410848
N187	N	1.024489	0.925891	-0.433213
N188	N	1.357823	1.259224	-0.099880
N189	N	1.691156	1.592558	0.233453
N190	N	1.013840	0.968218	-0.374680
N191	N	1.347173	1.301551	-0.041347
N192	N	1.680507	1.634885	0.291986
H193	H	0.958158	0.987364	-0.362058
H194	H	1.291491	1.320697	-0.028725
H195	H	1.624824	1.654030	0.304608
N196	N	1.064893	0.786215	-0.280074
N197	N	1.398226	1.119548	0.053259
N198	N	1.731560	1.452881	0.386592
N199	N	1.026587	0.744113	-0.325730
N200	N	1.359920	1.077446	0.007603
N201	N	1.693254	1.410779	0.340937
H202	H	0.971919	0.725179	-0.309103
H203	H	1.305252	1.058513	0.024231
H204	H	1.638586	1.391846	0.357564
N205	N	1.311398	0.786023	-0.359360
N206	N	1.644732	1.119357	-0.026027
N207	N	1.978065	1.452690	0.307306
N208	N	1.323968	0.718148	-0.353618
N209	N	1.657302	1.051481	-0.020285
N210	N	1.990635	1.384814	0.313048
H211	H	1.367142	0.699214	-0.316248
H212	H	1.700476	1.032547	0.017085
H213	H	2.033809	1.365880	0.350418
N214	N	1.277114	0.925447	-0.486811
N215	N	1.610448	1.258780	-0.153478
N216	N	1.943781	1.592113	0.179856
N217	N	1.233335	0.968342	-0.526151
N218	N	1.566668	1.301676	-0.192818
N219	N	1.900001	1.635009	0.140516
H220	H	1.251944	0.987386	-0.580119
H221	H	1.585277	1.320719	-0.246785
H222	H	1.918610	1.654052	0.086548
N223	N	1.308795	0.923947	-0.353327
N224	N	1.642128	1.257280	-0.019993
N225	N	1.975461	1.590614	0.313340
N226	N	1.287528	0.965242	-0.296838
N227	N	1.620862	1.298576	0.036495
N228	N	1.954195	1.631909	0.369828
H229	H	1.328513	0.983227	-0.256526
H230	H	1.661846	1.316560	0.076807
H231	H	1.995179	1.649893	0.410140
