data_functionalizedCrystal
_audit_creation_method	'MofGen! by Chris Wilmer'
_symmetry_space_group_name_H-M	'P1'
_symmetry_Int_Tables_number	1
_symmetry_cell_setting	triclinic
loop_
_symmetry_equiv_pos_as_xyz
  x,y,z
_cell_length_a	6.817900
_cell_length_b	16.417825
_cell_length_c	19.551833
_cell_angle_alpha	95.894740
_cell_angle_beta	101.663477
_cell_angle_gamma	103.385495
loop_
_atom_site_label
_atom_site_type_symbol
_atom_site_fract_x
_atom_site_fract_y
_atom_site_fract_z
V1	V	-4.005836	-0.116764	-0.218105
O2	O	-3.994264	0.004707	-0.213701
O3	O	-3.956998	-0.230655	-0.216855
O4	O	-3.948535	-0.115365	-0.313117
O5	O	-4.002786	-0.111381	-0.116773
V6	V	-4.490673	-0.102188	-0.205955
O7	O	-4.264210	-0.148739	-0.244756
O8	O	-4.682497	-0.070214	-0.179304
O9	O	-4.316304	0.011703	-0.207204
O10	O	-4.619641	-0.223660	-0.210359
O11	O	-4.611120	-0.107572	-0.307287
O12	O	-4.324767	-0.103588	-0.110943
C13	C	-3.802181	-0.258407	-0.213477
C14	C	-3.843478	-0.351517	-0.213089
C15	C	-3.791384	-0.111342	-0.336268
C16	C	-3.825816	-0.110951	-0.413942
C17	C	-4.023749	-0.114972	-0.453998
C18	C	-4.056101	-0.114605	-0.526982
C19	C	-3.890517	-0.110234	-0.559909
C20	C	-3.692554	-0.106207	-0.519843
C21	C	-3.660203	-0.106566	-0.446860
C22	C	-3.827540	-0.155776	-0.679317
C23	C	-3.859900	-0.155422	-0.752300
C24	C	-3.990289	-0.109123	-0.785014
C25	C	-4.088352	-0.063189	-0.744737
C26	C	-4.056001	-0.063548	-0.671754
C27	C	-3.925576	-0.109844	-0.639047
C28	C	-4.223314	-0.112745	-0.904207
C29	C	-4.255657	-0.112373	-0.977191
C30	C	-3.892107	-0.103984	-0.970052
C31	C	-3.859766	-0.104348	-0.897068
C32	C	-4.025379	-0.108733	-0.864151
C33	C	-3.904342	-0.553519	-0.148197
C34	C	-3.943167	-0.641007	-0.147837
C35	C	-4.011546	-0.665434	-0.275871
C36	C	-3.972736	-0.577947	-0.276230
C37	C	-3.919123	-0.521992	-0.212390
C38	C	-3.996759	-0.696966	-0.211672
C39	C	-4.038855	-0.791824	-0.211283
C40	C	-3.877028	-0.427128	-0.212779
C41	C	-4.134464	0.039450	-0.210581
C42	C	-4.072404	0.132559	-0.210973
C43	C	-4.145261	-0.107614	-0.087788
C44	C	-4.090068	-0.108000	-0.010113
H45	H	-4.217290	-0.117883	-0.559602
H46	H	-3.931130	-0.666672	-0.095565
H47	H	-3.499016	-0.103286	-0.414246
H48	H	-4.055198	-0.711003	-0.327847
H49	H	-4.158606	-0.118539	-0.427201
H50	H	-3.984786	-0.552279	-0.328507
C51	C	-4.163847	-0.013024	-0.627449
H52	H	-4.125913	-0.019876	-0.579300
H53	H	-4.122266	0.045320	-0.631419
H54	H	-4.309911	-0.033359	-0.644290
C55	C	-4.231774	-0.012254	-0.780711
H56	H	-4.236981	-0.018609	-0.829944
H57	H	-4.367227	-0.032699	-0.773634
H58	H	-4.179563	0.045974	-0.760757
H59	H	-4.358165	-0.116312	-0.877404
H60	H	-3.860688	-0.507962	-0.096214
C61	C	-4.473393	-0.116794	-1.021253
H62	H	-4.567386	-0.119464	-0.991194
H63	H	-4.468676	-0.067732	-1.043386
H64	H	-4.518465	-0.165930	-1.056358
C65	C	-3.510417	-0.101403	-0.556061
H66	H	-3.558036	-0.101775	-0.605265
H67	H	-3.405522	-0.050642	-0.536152
H68	H	-3.455344	-0.148841	-0.549117
C69	C	-3.642052	-0.099950	-0.853005
H70	H	-3.646499	-0.100787	-0.804823
H71	H	-3.597596	-0.147267	-0.869989
H72	H	-3.547743	-0.049068	-0.857010
C73	C	-3.751987	-0.205926	-0.796594
H74	H	-3.669654	-0.233532	-0.766656
H75	H	-3.853632	-0.247047	-0.831664
H76	H	-3.666042	-0.168343	-0.818776
H77	H	-3.757281	-0.100418	-0.996860
H78	H	-3.721341	-0.193473	-0.652687
