data_functionalizedCrystal
_audit_creation_method	'MofGen! by Chris Wilmer'
_symmetry_space_group_name_H-M	'P1'
_symmetry_Int_Tables_number	1
_symmetry_cell_setting	triclinic
loop_
_symmetry_equiv_pos_as_xyz
  x,y,z
_cell_length_a	6.817900
_cell_length_b	11.102233
_cell_length_c	23.753023
_cell_angle_alpha	95.105997
_cell_angle_beta	100.067528
_cell_angle_gamma	108.604738
loop_
_atom_site_label
_atom_site_type_symbol
_atom_site_fract_x
_atom_site_fract_y
_atom_site_fract_z
V1	V	-4.015127	-0.177444	-0.178390
O2	O	-3.975998	0.006876	-0.174992
O3	O	-3.992560	-0.350254	-0.177172
O4	O	-3.949864	-0.175440	-0.256191
O5	O	-4.018989	-0.169149	-0.095426
V6	V	-4.497592	-0.155312	-0.168467
O7	O	-4.278705	-0.225994	-0.200158
O8	O	-4.684211	-0.106763	-0.146699
O9	O	-4.296953	0.017498	-0.169685
O10	O	-4.654118	-0.339632	-0.171865
O11	O	-4.611127	-0.163607	-0.251431
O12	O	-4.339648	-0.157317	-0.090666
C13	C	-3.844390	-0.392359	-0.174358
C14	C	-3.907114	-0.533638	-0.173881
C15	C	-3.813043	-0.726261	-0.170347
C16	C	-3.754110	-0.593516	-0.170800
C17	C	-4.119069	-0.606514	-0.176514
C18	C	-4.178002	-0.739258	-0.176065
C19	C	-3.602334	-0.718755	-0.167045
C20	C	-3.543401	-0.586010	-0.167499
C21	C	-3.789927	-0.169364	-0.275155
C22	C	-3.818023	-0.168868	-0.338758
C23	C	-4.048266	-0.282406	-0.741349
C24	C	-4.074702	-0.281960	-0.801113
O25	O	-4.135856	-0.380772	-0.838974
N26	N	-4.032159	-0.165275	-0.822829
C27	C	-3.963196	-0.049029	-0.784779
O28	O	-3.929440	0.050262	-0.808739
C29	C	-3.936775	-0.049476	-0.725017
C30	C	-3.979303	-0.166169	-0.703304
C31	C	-4.090790	-0.399089	-0.719635
C32	C	-4.064352	-0.399534	-0.659876
C33	C	-3.995389	-0.283297	-0.621830
C34	C	-3.952864	-0.166614	-0.643544
C35	C	-3.867828	0.066768	-0.686969
C36	C	-3.841411	0.066310	-0.627203
C37	C	-3.883939	-0.050382	-0.605490
C38	C	-3.857463	-0.050822	-0.545740
N39	N	-3.900005	-0.167507	-0.524023
C40	C	-3.968968	-0.283744	-0.562068
C41	C	-4.018689	-0.048097	-0.910284
C42	C	-4.045094	-0.047647	-0.970045
C43	C	-4.156602	-0.280580	-0.986374
C44	C	-4.130182	-0.281027	-0.926612
C45	C	-4.061232	-0.164782	-0.888568
C46	C	-3.913440	-0.284671	-0.436569
C47	C	-3.886986	-0.285105	-0.376803
C48	C	-3.775491	-0.052175	-0.360479
C49	C	-3.801932	-0.051739	-0.420239
C50	C	-3.870917	-0.167997	-0.458283
O51	O	-3.796324	0.047940	-0.507844
O52	O	-4.002740	-0.383019	-0.538101
C53	C	-4.108465	0.059596	-0.172497
C54	C	-4.024980	0.200873	-0.172978
C55	C	-4.162928	-0.163397	-0.071699
C56	C	-4.114071	-0.163886	-0.008096
H57	H	-3.530007	-0.742850	-0.124380
H58	H	-4.243647	-0.557752	-0.179028
O59	O	-3.826847	0.180147	-0.708027
C60	C	-3.959786	0.244832	-0.691199
H61	H	-4.106293	0.172318	-0.681487
H62	H	-4.010061	0.295942	-0.727716
H63	H	-3.870508	0.318540	-0.650786
O64	O	-3.398935	-0.522572	-0.118090
C65	C	-3.488819	-0.553162	-0.069815
H66	H	-3.668901	-0.586582	-0.083623
H67	H	-3.430796	-0.464348	-0.035145
H68	H	-3.439441	-0.633289	-0.051642
H69	H	-4.164813	-0.376048	-0.908938
H70	H	-3.561875	-0.766193	-0.205881
O71	O	-3.473998	-0.551895	-0.216018
C72	C	-3.636717	-0.614293	-0.265201
H73	H	-3.752164	-0.704186	-0.254259
H74	H	-3.564937	-0.642705	-0.301946
H75	H	-3.724625	-0.546447	-0.279169
O76	O	-3.928415	-0.398581	-0.355809
C77	C	-3.994870	-0.501072	-0.402207
H78	H	-4.060806	-0.468838	-0.443419
H79	H	-4.123324	-0.586077	-0.392195
H80	H	-3.854222	-0.531178	-0.408527
O81	O	-4.223543	-0.393610	-1.023257
C82	C	-4.255485	-0.496710	-0.991283
H83	H	-4.156937	-0.460690	-0.945278
H84	H	-4.204960	-0.574643	-1.012719
H85	H	-4.430382	-0.538167	-0.989998
O86	O	-3.980160	-0.397511	-0.473572
C87	C	-3.825430	-0.398192	-0.505857
H88	H	-3.723212	-0.294992	-0.506808
H89	H	-3.906599	-0.448550	-0.551956
H90	H	-3.721364	-0.451585	-0.484914
H91	H	-4.098997	-0.494557	-0.642203
O92	O	-3.708603	0.060615	-0.323437
C93	C	-3.694352	0.035185	-0.266035
H94	H	-3.802012	-0.067183	-0.265907
H95	H	-3.745881	0.105991	-0.239652
H96	H	-3.523644	0.046187	-0.246129
O97	O	-4.004091	0.065728	-0.991111
C98	C	-4.137012	0.130430	-0.974285
H99	H	-4.283519	0.057929	-0.964568
H100	H	-4.187286	0.181531	-1.010805
H101	H	-4.047717	0.204148	-0.933876
H102	H	-4.146953	-0.493749	-0.750607
O103	O	-3.951429	0.064758	-0.873266
C104	C	-3.759443	0.077544	-0.835453
H105	H	-3.746098	-0.021622	-0.832664
H106	H	-3.756248	0.125170	-0.790596
H107	H	-3.620740	0.139420	-0.852523
H108	H	-3.785270	0.160973	-0.596229
O109	O	-3.760957	0.061629	-0.441316
C110	C	-3.893888	0.126322	-0.424488
H111	H	-4.040368	0.053818	-0.414760
H112	H	-3.944206	0.177401	-0.461013
H113	H	-3.804584	0.200058	-0.384086
O114	O	-4.383766	-0.810137	-0.178539
C115	C	-4.398515	-0.869579	-0.128657
H116	H	-4.238828	-0.877936	-0.109516
H117	H	-4.524012	-0.969648	-0.140741
H118	H	-4.444631	-0.809221	-0.095381
