data_functionalizedCrystal
_audit_creation_method	'MofGen! by Chris Wilmer'
_symmetry_space_group_name_H-M	'P1'
_symmetry_Int_Tables_number	1
_symmetry_cell_setting	triclinic
loop_
_symmetry_equiv_pos_as_xyz
  x,y,z
_cell_length_a	23.532407
_cell_length_b	10.540539
_cell_length_c	22.010155
_cell_angle_alpha	90.004866
_cell_angle_beta	89.990960
_cell_angle_gamma	83.687084
loop_
_atom_site_label
_atom_site_type_symbol
_atom_site_fract_x
_atom_site_fract_y
_atom_site_fract_z
O1	O	0.756286	0.154067	-0.050446
O2	O	0.590570	0.176361	-0.050463
O3	O	0.677209	-0.019617	-0.050454
O4	O	0.669647	0.350045	-0.050454
O5	O	0.677183	-0.019594	0.050596
O6	O	0.590545	0.176384	0.050587
O7	O	0.756261	0.154090	0.050605
Cu8	Cu	0.673400	0.165239	0.059823
Cu9	Cu	0.673430	0.165212	-0.059681
O10	O	0.669622	0.350068	0.050596
C11	C	0.569338	0.175805	0.000060
C12	C	0.506109	0.174098	0.000053
C13	C	0.676629	-0.066889	0.000069
C14	C	0.674933	-0.207782	0.000065
N15	N	0.673384	0.165257	0.143875
C16	C	0.107702	0.279368	0.000081
C17	C	0.048291	0.277782	0.000085
O18	O	0.012191	0.375368	0.000107
N19	N	0.024895	0.161273	0.000083
C20	C	0.060914	0.046343	0.000085
O21	O	0.035558	-0.052903	0.000085
C22	C	0.120323	0.047930	0.000086
C23	C	0.143715	0.164446	0.000080
C24	C	0.131094	0.395874	0.000076
C25	C	0.190501	0.397460	0.000072
C26	C	0.226515	0.282538	0.000071
C27	C	0.203122	0.166031	0.000076
C28	C	0.156340	-0.066999	0.000091
C29	C	0.215753	-0.065402	0.000092
C30	C	0.239146	0.051114	0.000087
C31	C	0.298542	0.052694	0.000070
N32	N	0.321938	0.169203	0.000071
C33	C	0.285924	0.284125	0.000072
C34	C	-0.063851	0.043019	0.000085
C35	C	-0.123259	0.041431	0.000080
C36	C	-0.135878	0.272870	0.000080
C37	C	-0.076468	0.274457	0.000081
C38	C	-0.040455	0.159528	0.000086
C39	C	0.410683	0.287445	0.000061
C40	C	0.470095	0.289020	0.000054
C41	C	0.482709	0.057581	0.000056
C42	C	0.423302	0.056005	0.000060
C43	C	0.387290	0.170947	0.000065
O44	O	0.334677	-0.044840	0.000051
O45	O	0.311288	0.383354	0.000080
C46	C	0.777493	0.154646	0.000080
C47	C	0.840722	0.156353	0.000083
C48	C	0.670202	0.397340	0.000071
C49	C	0.671898	0.538233	0.000072
C50	C	0.736907	0.719526	-0.000155
C51	C	0.735187	0.572965	0.000077
C52	C	0.641426	0.600911	0.057771
C53	C	0.643586	0.747385	0.057815
C54	C	0.642328	0.747903	-0.057098
C55	C	0.641745	0.600940	-0.057856
N56	N	0.673452	0.165183	-0.143733
C57	C	0.638568	0.088609	0.436476
C58	C	0.638563	0.088614	0.372869
O59	O	0.608940	0.023447	0.339968
N60	N	0.673406	0.165218	0.341059
C61	C	0.708260	0.241811	0.372861
O62	O	0.737897	0.306967	0.339964
C63	C	0.708268	0.241797	0.436467
C64	C	0.673418	0.165198	0.468274
C65	C	0.603722	0.012015	0.468282
C66	C	0.603726	0.012011	0.531886
C67	C	0.638577	0.088601	0.563683
C68	C	0.673423	0.165195	0.531877
C69	C	0.743125	0.318382	0.468268
C70	C	0.743130	0.318361	0.531879
C71	C	0.708280	0.241763	0.563685
C72	C	0.708278	0.241781	0.627277
N73	N	0.673435	0.165178	0.659086
C74	C	0.638584	0.088588	0.627289
C75	C	0.708242	0.241832	0.239283
C76	C	0.708232	0.241853	0.175678
C77	C	0.638535	0.088654	0.175690
C78	C	0.638543	0.088641	0.239297
C79	C	0.673399	0.165228	0.271093
C80	C	0.638596	0.088587	0.760861
C81	C	0.638601	0.088594	0.824469
C82	C	0.708300	0.241786	0.824452
C83	C	0.708292	0.241785	0.760848
C84	C	0.673438	0.165175	0.729054
O85	O	0.737887	0.306911	0.660218
O86	O	0.608958	0.023429	0.660194
H87	H	0.489138	0.383905	0.000049
H88	H	-0.057427	0.369335	0.000080
H89	H	0.137305	-0.161879	0.000096
H90	H	0.736673	0.304147	0.850352
N91	N	0.671808	0.781888	0.111925
N92	N	0.646106	0.857701	0.148963
H93	H	0.666039	0.882066	0.187180
N94	N	0.094306	0.513266	0.000085
N95	N	0.059742	0.538228	0.042680
H96	H	0.033763	0.621144	0.042685
H97	H	0.761915	0.747275	-0.041540
H98	H	0.512042	-0.035985	0.000053
N99	N	0.765264	0.518524	-0.051813
N100	N	0.787676	0.588761	-0.088452
H101	H	0.808920	0.550319	-0.125101
H102	H	0.761819	0.749048	0.040955
H103	H	0.771504	0.380755	0.442382
H104	H	0.610158	0.026291	0.149789
H105	H	0.736661	0.304176	0.734951
H106	H	0.381368	0.381042	0.000067
H107	H	0.759309	0.530432	0.041516
H108	H	0.736625	0.304210	0.265168
H109	H	0.736603	0.304243	0.149787
N110	N	0.778743	0.396597	0.564347
N111	N	0.809853	0.464973	0.535936
H112	H	0.835005	0.520229	0.558865
H113	H	0.594948	0.580084	0.059913
H114	H	0.209541	0.492339	0.000067
N115	N	0.602948	0.010408	0.271792
N116	N	0.565503	0.060388	0.307301
H117	H	0.540363	0.005133	0.330250
H118	H	-0.165212	0.366446	0.000084
N119	N	0.668043	0.786624	-0.111961
N120	N	0.710717	0.847360	-0.109594
H121	H	0.728885	0.874704	-0.148338
N122	N	0.586485	0.809426	0.061094
N123	N	0.545167	0.744504	0.063347
H124	H	0.504839	0.788314	0.065665
H125	H	0.404255	-0.038872	0.000056
N126	N	-0.147141	-0.077599	0.000071
N127	N	-0.114972	-0.180193	0.000068
H128	H	-0.131836	-0.264263	0.000064
H129	H	0.662578	0.557646	0.100717
H130	H	0.596611	0.796610	-0.057486
N131	N	-0.027075	-0.074400	0.000087
N132	N	-0.047977	-0.178409	0.000087
H133	H	-0.022007	-0.261337	0.000090
N134	N	0.669577	0.548372	-0.111406
N135	N	0.711468	0.465042	-0.106971
H136	H	0.731085	0.427803	-0.144790
H137	H	0.245073	-0.158995	0.000097
H138	H	0.595605	0.578225	-0.061346
H139	H	0.610220	0.026218	0.850363
H140	H	0.610214	0.026204	0.734981
N141	N	0.568126	-0.066244	0.564360
N142	N	0.537016	-0.134619	0.535952
H143	H	0.511872	-0.189895	0.558883
H144	H	0.575342	-0.050360	0.442400
