data_functionalizedCrystal
_audit_creation_method	'MofGen! by Chris Wilmer'
_symmetry_space_group_name_H-M	'P1'
_symmetry_Int_Tables_number	1
_symmetry_cell_setting	triclinic
loop_
_symmetry_equiv_pos_as_xyz
  x,y,z
_cell_length_a	10.723022
_cell_length_b	10.723024
_cell_length_c	9.198806
_cell_angle_alpha	90.002012
_cell_angle_beta	90.003648
_cell_angle_gamma	84.467548
loop_
_atom_site_label
_atom_site_type_symbol
_atom_site_fract_x
_atom_site_fract_y
_atom_site_fract_z
O1	O	1.657189	0.175015	0.120879
O2	O	1.294036	0.191770	0.120884
O3	O	1.483989	0.001817	0.120876
O4	O	1.467236	0.364969	0.120887
O5	O	1.483974	0.001816	-0.120909
O6	O	1.294021	0.191770	-0.120901
O7	O	1.657174	0.175015	-0.120906
Cu8	Cu	1.475596	0.183392	-0.142981
Cu9	Cu	1.475614	0.183393	0.142958
O10	O	1.467221	0.364969	-0.120898
C11	C	1.247529	0.190551	-0.000008
C12	C	1.108975	0.186904	-0.000007
C13	C	1.060414	0.077365	-0.000009
C14	C	0.917211	0.073593	-0.000007
C15	C	1.482763	-0.044683	-0.000015
C16	C	1.479115	-0.183238	-0.000010
C17	C	1.585403	-0.258221	-0.000009
C18	C	1.581635	-0.401424	-0.000004
C19	C	1.703681	0.176234	-0.000011
C20	C	1.842235	0.179881	-0.000003
C21	C	1.468448	0.411468	-0.000004
C22	C	1.472095	0.550023	0.000000
N23	N	1.475593	0.183391	-0.344095
C24	C	1.555348	0.103283	-0.416295
C25	C	1.555368	0.103279	-0.583707
N26	N	1.475627	0.183384	0.344072
H27	H	0.884039	0.273673	-0.000009
H28	H	1.381100	-0.385552	-0.000010
H29	H	1.124856	-0.013624	-0.000005
C30	C	1.712104	-0.201736	-0.000016
H31	H	1.698014	-0.112897	-0.000029
H32	H	1.758240	-0.228723	0.084297
H33	H	1.758220	-0.228730	-0.084345
C34	C	0.860737	-0.053111	-0.000003
H35	H	0.771898	-0.039024	0.000010
H36	H	0.887723	-0.099243	-0.084316
H37	H	0.887734	-0.099228	0.084326
C38	C	1.021936	0.309831	0.000005
H39	H	1.070972	0.379045	0.000018
H40	H	0.970564	0.313152	-0.084306
H41	H	0.970587	0.313145	0.084336
C42	C	1.704561	-0.488458	0.000005
H43	H	1.685902	-0.573289	0.000021
H44	H	1.751808	-0.472904	-0.084307
H45	H	1.751803	-0.472891	0.084335
H46	H	1.385329	-0.225059	0.000001
C47	C	1.647574	0.010632	-0.332381
H48	H	1.635466	0.022794	-0.230869
H49	H	1.633101	-0.072737	-0.357261
H50	H	1.731061	0.024696	-0.357231
H51	H	1.623655	0.034700	-0.645796
C52	C	1.383345	0.276025	-0.428002
H53	H	1.333294	0.326274	-0.360994
H54	H	1.428870	0.328198	-0.487382
H55	H	1.330934	0.230741	-0.487376
H56	H	1.407346	0.251976	-0.593848
