data_functionalizedCrystal
_audit_creation_method	'MofGen! by Chris Wilmer'
_symmetry_space_group_name_H-M	'P1'
_symmetry_Int_Tables_number	1
_symmetry_cell_setting	triclinic
loop_
_symmetry_equiv_pos_as_xyz
  x,y,z
_cell_length_a	17.699083
_cell_length_b	23.532407
_cell_length_c	16.176319
_cell_angle_alpha	89.988536
_cell_angle_beta	89.998611
_cell_angle_gamma	83.065847
loop_
_atom_site_label
_atom_site_type_symbol
_atom_site_fract_x
_atom_site_fract_y
_atom_site_fract_z
O1	O	1.003713	0.072020	-0.068639
O2	O	0.783287	0.081390	-0.068667
O3	O	0.900147	-0.006208	-0.068637
O4	O	0.886853	0.159618	-0.068669
O5	O	0.900131	-0.006213	0.068856
O6	O	0.783271	0.081384	0.068826
O7	O	1.003697	0.072014	0.068854
Cu8	Cu	0.893483	0.076699	0.081394
Cu9	Cu	0.893502	0.076705	-0.081207
O10	O	0.886837	0.159612	0.068824
C11	C	0.755084	0.081051	0.000076
C12	C	0.671071	0.080044	0.000066
C13	C	0.622189	0.131462	0.000056
C14	C	0.543251	0.130512	0.000067
C15	C	0.513196	0.078144	0.000082
C16	C	0.562084	0.026722	0.000094
C17	C	0.641021	0.027672	0.000089
C18	C	0.243740	0.022888	0.000115
C19	C	0.164797	0.021942	0.000117
C20	C	0.145970	0.125728	0.000093
C21	C	0.224907	0.126678	0.000088
C22	C	0.273788	0.075257	0.000105
C23	C	0.359382	0.076287	0.000094
C24	C	0.427603	0.077113	0.000086
C25	C	0.899801	-0.027427	0.000111
C26	C	0.898783	-0.090647	0.000118
C27	C	0.961554	-0.489570	0.000080
C28	C	0.960609	-0.548973	0.000074
O29	O	1.018799	-0.585550	0.000051
N30	N	0.891136	-0.571799	0.000066
C31	C	0.822604	-0.535218	0.000055
O32	O	0.763424	-0.560088	0.000047
C33	C	0.823550	-0.475816	0.000056
C34	C	0.893028	-0.452994	0.000073
C35	C	1.031026	-0.466747	0.000096
C36	C	1.031972	-0.407348	0.000104
C37	C	0.963445	-0.370772	0.000096
C38	C	0.893973	-0.393595	0.000080
C39	C	0.755019	-0.439237	0.000040
C40	C	0.755971	-0.379832	0.000039
C41	C	0.825448	-0.357009	0.000056
C42	C	0.826391	-0.297620	0.000081
N43	N	0.895864	-0.274795	0.000089
C44	C	0.964391	-0.311371	0.000097
C45	C	0.820622	-0.659966	0.000053
C46	C	0.819674	-0.719367	0.000058
C47	C	0.957680	-0.733118	0.000075
C48	C	0.958626	-0.673716	0.000076
C49	C	0.890095	-0.637141	0.000061
C50	C	0.966371	-0.186628	0.000114
C51	C	0.967310	-0.127223	0.000125
C52	C	0.829305	-0.113478	0.000104
C53	C	0.828365	-0.172877	0.000097
C54	C	0.896904	-0.209452	0.000099
O55	O	0.768232	-0.261008	0.000100
O56	O	1.023560	-0.286493	0.000094
C57	C	1.031901	0.072353	0.000109
C58	C	1.115914	0.073360	0.000114
C59	C	0.887184	0.180832	0.000073
C60	C	0.888202	0.244052	0.000062
N61	N	0.893475	0.076694	0.195759
N62	N	0.893516	0.076706	-0.195573
C63	C	0.945236	0.037921	0.239037
C64	C	0.945240	0.037921	0.325584
C65	C	0.893486	0.076696	0.368852
C66	C	0.841719	0.115470	0.325568
C67	C	0.841713	0.115467	0.239023
C68	C	0.841745	0.115481	0.674597
C69	C	0.841758	0.115481	0.761148
C70	C	0.945273	0.037934	0.761158
C71	C	0.945266	0.037932	0.674612
C72	C	0.893497	0.076704	0.631336
C73	C	0.893493	0.076703	0.537492
C74	C	0.893493	0.076700	0.462695
H75	H	1.023889	-0.108645	0.000141
C76	C	0.784792	0.158123	0.373161
H77	H	0.792214	0.152576	0.430903
H78	H	0.734327	0.151986	0.358988
H79	H	0.792728	0.196125	0.358960
C80	C	0.131734	-0.035665	0.000136
H81	H	0.077721	-0.028864	0.000127
H82	H	0.148536	-0.056833	0.048089
H83	H	0.148539	-0.056831	-0.047811
C84	C	0.297499	-0.033673	0.000127
H85	H	0.268292	-0.064996	0.000128
H86	H	0.328685	-0.035464	0.048074
H87	H	0.328683	-0.035460	-0.047826
H88	H	0.249373	0.169322	0.000072
C89	C	0.753929	-0.073240	0.000090
H90	H	0.712413	-0.095336	0.000084
H91	H	0.751445	-0.049775	-0.047857
H92	H	0.751423	-0.049788	0.048043
H93	H	1.013478	-0.762909	0.000079
H94	H	0.987387	0.006349	0.360820
H95	H	1.022182	-0.216401	0.000113
H96	H	0.987411	0.006359	0.639386
H97	H	0.106161	0.167598	0.000084
C98	C	1.002171	-0.004726	0.191446
H99	H	0.994761	0.000829	0.133703
H100	H	0.994247	-0.042729	0.205641
H101	H	1.052635	0.001420	0.205625
H102	H	0.799563	0.147039	0.203787
C103	C	0.655247	0.189067	0.000037
H104	H	0.709260	0.182270	0.000028
H105	H	0.638443	0.210232	0.047980
H106	H	0.638438	0.210233	-0.047920
H107	H	1.088547	-0.388773	0.000114
H108	H	0.987424	0.006362	0.796402
C109	C	0.743249	-0.744465	0.000047
H110	H	0.702577	-0.714169	0.000037
H111	H	0.740000	-0.767361	0.047989
H112	H	0.740016	-0.767341	-0.047911
H113	H	0.799610	0.147058	0.796376
H114	H	0.537607	-0.015917	0.000117
H115	H	0.680820	-0.014197	0.000096
C116	C	0.489481	0.187070	0.000048
H117	H	0.438164	0.179006	0.000061
H118	H	0.498548	0.208547	-0.047908
H119	H	0.498550	0.208550	0.047992
C120	C	1.106413	-0.506973	0.000111
H121	H	1.147917	-0.484864	0.000127
H122	H	1.108932	-0.530429	-0.047832
H123	H	1.108907	-0.530433	0.048068
H124	H	0.698442	-0.457808	0.000021
C125	C	1.035051	-0.648617	0.000086
H126	H	1.075723	-0.678913	0.000087
H127	H	1.038287	-0.625735	0.048032
H128	H	1.038297	-0.625727	-0.047868
C129	C	0.745232	-0.619738	0.000052
H130	H	0.703725	-0.641844	0.000055
H131	H	0.742729	-0.596270	-0.047892
H132	H	0.742726	-0.596289	0.048008
C133	C	0.784809	0.158133	0.627004
H134	H	0.753995	0.181229	0.665170
H135	H	0.753454	0.137678	0.593254
H136	H	0.811855	0.181816	0.593232
H137	H	0.700163	-0.350054	0.000026
H138	H	0.771791	-0.191460	0.000106
