data_functionalizedCrystal
_audit_creation_method	'MofGen! by Chris Wilmer'
_symmetry_space_group_name_H-M	'P1'
_symmetry_Int_Tables_number	1
_symmetry_cell_setting	triclinic
loop_
_symmetry_equiv_pos_as_xyz
  x,y,z
_cell_length_a	23.532407
_cell_length_b	23.532407
_cell_length_c	22.610064
_cell_angle_alpha	90.000603
_cell_angle_beta	89.997161
_cell_angle_gamma	97.151322
loop_
_atom_site_label
_atom_site_type_symbol
_atom_site_fract_x
_atom_site_fract_y
_atom_site_fract_z
O1	O	0.755263	-0.069127	-0.049117
O2	O	0.589400	-0.079130	-0.049135
O3	O	0.677333	0.008803	-0.049114
O4	O	0.667330	-0.157060	-0.049137
O5	O	0.677318	0.008790	0.049255
O6	O	0.589385	-0.079143	0.049234
O7	O	0.755248	-0.069140	0.049252
Zn8	Zn	0.672314	-0.074144	0.064862
Zn9	Zn	0.672334	-0.074127	-0.064744
O10	O	0.667315	-0.157073	0.049232
C11	C	0.568176	-0.078882	0.000048
C12	C	0.504959	-0.078116	0.000041
C13	C	0.105856	-0.125350	0.000061
C14	C	0.046456	-0.124638	0.000065
O15	O	0.009711	-0.168424	0.000081
N16	N	0.023830	-0.072362	0.000071
C17	C	0.060607	-0.020794	0.000080
O18	O	0.035908	0.023737	0.000086
C19	C	0.120006	-0.021506	0.000080
C20	C	0.142629	-0.073785	0.000068
C21	C	0.128479	-0.177625	0.000050
C22	C	0.187876	-0.178336	0.000045
C23	C	0.224649	-0.126772	0.000052
C24	C	0.202025	-0.074497	0.000063
C25	C	0.156783	0.030062	0.000093
C26	C	0.216185	0.029345	0.000094
C27	C	0.238808	-0.022934	0.000082
C28	C	0.298194	-0.023643	0.000065
N29	N	0.320820	-0.075920	0.000059
C30	C	0.284048	-0.127484	0.000052
C31	C	-0.064135	-0.019302	0.000080
C32	C	-0.123533	-0.018589	0.000075
C33	C	-0.137680	-0.122434	0.000061
C34	C	-0.078281	-0.123146	0.000062
C35	C	-0.041509	-0.071578	0.000074
C36	C	0.408784	-0.128974	0.000042
C37	C	0.468186	-0.129680	0.000034
C38	C	0.482329	-0.025836	0.000051
C39	C	0.422932	-0.025129	0.000055
C40	C	0.386160	-0.076702	0.000052
O41	O	0.334974	0.020119	0.000052
O42	O	0.308755	-0.172007	0.000054
C43	C	0.677071	0.030013	0.000072
C44	C	0.676305	0.093230	0.000076
C45	C	0.776472	-0.069388	0.000069
C46	C	0.839689	-0.070154	0.000071
C47	C	0.667577	-0.178283	0.000045
C48	C	0.668343	-0.241500	0.000036
N49	N	0.672304	-0.074155	0.153314
C50	C	0.723539	0.492333	0.000049
C51	C	0.722827	0.551733	0.000044
O52	O	0.766613	0.588478	0.000027
N53	N	0.670551	0.574359	0.000039
C54	C	0.618983	0.537582	0.000032
O55	O	0.574452	0.562281	0.000027
C56	C	0.619695	0.478182	0.000033
C57	C	0.671974	0.455560	0.000044
C58	C	0.775814	0.469710	0.000060
C59	C	0.776525	0.410313	0.000065
C60	C	0.724961	0.373540	0.000060
C61	C	0.672685	0.396164	0.000050
C62	C	0.568127	0.441406	0.000022
C63	C	0.568844	0.382004	0.000021
C64	C	0.621123	0.359381	0.000033
C65	C	0.621832	0.299995	0.000050
N66	N	0.674109	0.277368	0.000056
C67	C	0.725673	0.314141	0.000061
C68	C	0.617491	0.662324	0.000031
C69	C	0.616778	0.721722	0.000034
C70	C	0.720623	0.735869	0.000045
C71	C	0.721335	0.676470	0.000046
C72	C	0.669767	0.639698	0.000036
C73	C	0.727163	0.189405	0.000073
C74	C	0.727869	0.130003	0.000081
C75	C	0.624025	0.115860	0.000067
C76	C	0.623318	0.175257	0.000062
C77	C	0.674891	0.212029	0.000063
O78	O	0.578070	0.263215	0.000065
O79	O	0.770196	0.289433	0.000058
N80	N	0.672349	-0.074111	-0.153196
C81	C	0.711273	-0.035196	0.561965
C82	C	0.711276	-0.035192	0.623884
O83	O	0.744384	-0.002076	0.655911
N84	N	0.672334	-0.074115	0.654851
C85	C	0.633383	-0.113041	0.623895
O86	O	0.600259	-0.146147	0.655920
C87	C	0.633377	-0.113042	0.561976
C88	C	0.672326	-0.074120	0.531013
C89	C	0.750218	0.003724	0.531001
C90	C	0.750215	0.003719	0.469085
C91	C	0.711268	-0.035206	0.438133
C92	C	0.672323	-0.074125	0.469097
C93	C	0.594424	-0.151965	0.531021
C94	C	0.594422	-0.151962	0.469098
C95	C	0.633370	-0.113040	0.438134
C96	C	0.633374	-0.113054	0.376229
N97	N	0.672316	-0.074131	0.345262
C98	C	0.711263	-0.035207	0.376214
C99	C	0.633396	-0.113035	0.753928
C100	C	0.633403	-0.113037	0.815846
C101	C	0.711296	-0.035187	0.815831
C102	C	0.711291	-0.035188	0.753913
C103	C	0.672338	-0.074112	0.722962
C104	C	0.711255	-0.035220	0.246187
C105	C	0.711251	-0.035230	0.184266
C106	C	0.633357	-0.113078	0.184286
C107	C	0.633363	-0.113071	0.246202
C108	C	0.672314	-0.074137	0.277151
O109	O	0.600281	-0.146152	0.344163
O110	O	0.744376	-0.002101	0.344182
H111	H	0.098544	-0.219617	0.000046
H112	H	0.486602	-0.172255	0.000024
H113	H	0.582043	0.085909	0.000065
O114	O	0.827295	0.388313	0.000173
C115	C	0.888358	0.329443	0.051115
C116	C	0.830844	0.354326	0.051078
H117	H	0.891241	0.301949	0.092261
H118	H	0.925109	0.365913	0.051153
H119	H	0.891284	0.302013	0.009928
H120	H	0.827862	0.381749	0.092258
H121	H	0.794121	0.317829	0.051009
O122	O	0.517292	0.463277	-0.000018
C123	C	0.414369	0.442950	-0.000008
C124	C	0.471903	0.418107	0.000025
H125	H	0.377657	0.406442	0.000040
H126	H	0.411406	0.470381	-0.041188
H127	H	0.411453	0.470426	0.041147
H128	H	0.474857	0.390606	-0.041102
H129	H	0.474842	0.390709	0.041232
O130	O	0.518764	0.346260	-0.000091
C131	C	0.459322	0.270961	-0.051040
C132	C	0.516050	0.311415	-0.050995
H133	H	0.457115	0.242770	-0.092185
H134	H	0.421816	0.297309	-0.051087
H135	H	0.457056	0.242826	-0.009852
H136	H	0.518372	0.339558	-0.092176
H137	H	0.553530	0.285033	-0.050918
O138	O	0.572485	0.197142	0.000027
C139	C	0.469561	0.176833	0.000042
C140	C	0.527089	0.151979	0.000078
H141	H	0.432843	0.140331	0.000096
H142	H	0.466601	0.204259	-0.041142
H143	H	0.466652	0.204316	0.041193
H144	H	0.530037	0.124470	-0.041045
H145	H	0.530024	0.124585	0.041289
O146	O	0.595639	-0.150879	0.723800
C147	C	0.583067	-0.228758	0.653935
C148	C	0.625889	-0.185924	0.688003
H149	H	0.607508	-0.257111	0.624994
H150	H	0.554758	-0.204353	0.624909
H151	H	0.555229	-0.256549	0.686721
H152	H	0.653764	-0.158122	0.655260
H153	H	0.654158	-0.210365	0.717038
O154	O	0.749205	0.002572	0.845878
C155	C	0.848416	0.036476	0.864800
C156	C	0.805550	-0.006323	0.830744
H157	H	0.893980	0.029307	0.852566
H158	H	0.841773	0.029790	0.914379
H159	H	0.841223	0.082049	0.852634
H160	H	0.812717	-0.051913	0.842859
H161	H	0.812203	0.000414	0.781172
H162	H	0.512280	0.016146	0.000054
H163	H	-0.059867	-0.165717	0.000055
O164	O	0.787896	0.041695	0.439029
C165	C	0.800199	0.119804	0.369426
C166	C	0.757510	0.076722	0.403357
H167	H	0.775648	0.148142	0.340586
H168	H	0.828622	0.095608	0.340311
H169	H	0.827936	0.147583	0.402300
H170	H	0.729735	0.048931	0.370525
H171	H	0.729127	0.100953	0.432481
O172	O	-0.173384	-0.172541	-0.000045
C173	C	-0.203639	-0.261089	-0.050995
C174	C	-0.163181	-0.204363	-0.050954
H175	H	-0.195396	-0.286837	-0.092144
H176	H	-0.249989	-0.251629	-0.051028
H177	H	-0.195455	-0.286813	-0.009811
H178	H	-0.171313	-0.178610	-0.092131
H179	H	-0.116845	-0.213862	-0.050890
O180	O	-0.145410	0.032245	0.000106
C181	C	-0.125092	0.135169	0.000083
C182	C	-0.100244	0.077637	0.000058
H183	H	-0.088588	0.171883	0.000032
H184	H	-0.152526	0.138136	0.041262
H185	H	-0.152567	0.138075	-0.041072
H186	H	-0.072744	0.074692	0.041185
H187	H	-0.072843	0.074695	-0.041149
O188	O	0.749108	0.002637	0.154280
C189	C	0.826389	0.079830	0.160812
C190	C	0.783542	0.036987	0.194841
H191	H	0.854248	0.107606	0.193591
H192	H	0.801994	0.108196	0.131840
H193	H	0.854673	0.055374	0.131807
H194	H	0.755247	0.061397	0.223879
H195	H	0.807972	0.008622	0.223776
O196	O	0.556533	-0.189795	0.560997
C197	C	0.479290	-0.267026	0.554450
C198	C	0.522165	-0.224203	0.520430
H199	H	0.451501	-0.294864	0.521666
H200	H	0.450941	-0.242610	0.583424
H201	H	0.503720	-0.295333	0.583453
H202	H	0.497782	-0.195885	0.491394
H203	H	0.550513	-0.248654	0.491493
H204	H	0.601648	-0.144772	0.159075
O205	O	-0.028359	0.030758	0.000002
C206	C	0.046886	0.090250	-0.050977
C207	C	0.006416	0.033532	-0.050957
H208	H	0.075003	0.092516	-0.092179
H209	H	0.075088	0.092523	-0.009839
H210	H	0.020494	0.127721	-0.050946
H211	H	0.032763	-0.003972	-0.051009
H212	H	-0.021788	0.031309	-0.092091
H213	H	0.246123	0.071339	0.000104
O214	O	0.134912	0.080897	0.000137
C215	C	0.155239	0.183820	0.000135
C216	C	0.180082	0.126286	0.000096
H217	H	0.191747	0.220532	0.000090
H218	H	0.127806	0.186782	0.041315
H219	H	0.127765	0.186737	-0.041019
H220	H	0.207582	0.123330	0.041222
H221	H	0.207482	0.123349	-0.041112
H222	H	0.770443	0.111587	0.000092
O223	O	0.400923	0.025639	-0.000042
C224	C	0.342039	0.086702	-0.050963
C225	C	0.366931	0.029194	-0.050941
H226	H	0.314540	0.089590	-0.092104
H227	H	0.378503	0.123458	-0.050999
H228	H	0.314611	0.089616	-0.009771
H229	H	0.394351	0.026224	-0.092126
H230	H	0.330439	-0.007535	-0.050874
H231	H	0.769159	0.219337	0.000071
O232	O	0.770729	0.771574	0.000149
C233	C	0.859275	0.801838	0.051094
C234	C	0.802551	0.761378	0.051057
H235	H	0.885024	0.793600	0.092242
H236	H	0.849814	0.848187	0.051127
H237	H	0.885000	0.793652	0.009910
H238	H	0.776798	0.769512	0.092234
H239	H	0.812053	0.715042	0.050993
H240	H	0.601694	-0.144737	0.841052
H241	H	0.817806	0.499645	0.000061
H242	H	0.601653	-0.144770	0.271413
H243	H	0.562700	-0.183658	0.443901
O244	O	0.209942	-0.229071	0.000000
C245	C	0.295167	-0.276207	0.000003
C246	C	0.270260	-0.218707	0.000046
H247	H	0.343937	-0.267848	0.000053
H248	H	0.280034	-0.301663	-0.041181
H249	H	0.279963	-0.301683	0.041153
H250	H	0.285452	-0.193185	-0.041076
H251	H	0.285390	-0.193294	0.041258
H252	H	0.763906	0.658056	0.000054
H253	H	0.574207	0.740136	0.000035
H254	H	0.378851	-0.170970	0.000041
O255	O	0.567342	0.626686	0.000056
C256	C	0.464268	0.618935	0.000013
C257	C	0.521018	0.659356	-0.000000
H258	H	0.426801	0.645332	-0.000045
H259	H	0.461957	0.590784	0.041191
H260	H	0.462037	0.590760	-0.041144
H261	H	0.523287	0.687567	0.041129
H262	H	0.523306	0.687468	-0.041205
H263	H	0.742973	-0.003516	0.271379
H264	H	0.781933	0.035423	0.556197
H265	H	0.743005	-0.003494	0.728706
