data_functionalizedCrystal
_audit_creation_method	'MofGen! by Chris Wilmer'
_symmetry_space_group_name_H-M	'P1'
_symmetry_Int_Tables_number	1
_symmetry_cell_setting	triclinic
loop_
_symmetry_equiv_pos_as_xyz
  x,y,z
_cell_length_a	19.077312
_cell_length_b	29.839131
_cell_length_c	19.077174
_cell_angle_alpha	92.262165
_cell_angle_beta	90.075859
_cell_angle_gamma	87.741726
loop_
_atom_site_label
_atom_site_type_symbol
_atom_site_fract_x
_atom_site_fract_y
_atom_site_fract_z
Zn1	Zn	1.090077	-0.215848	-0.354066
Zn2	Zn	1.590077	0.284152	0.145934
Zn3	Zn	1.085256	-0.287839	-0.236543
Zn4	Zn	1.585256	0.212161	0.263457
Zn5	Zn	0.967863	-0.209841	-0.241299
Zn6	Zn	1.467863	0.290159	0.258701
Zn7	Zn	0.972518	-0.288062	-0.358732
Zn8	Zn	1.472518	0.211938	0.141268
O9	O	1.028928	-0.250397	-0.297660
O10	O	1.528928	0.249603	0.202340
O11	O	1.187765	-0.227819	-0.334533
O12	O	1.687765	0.272181	0.165467
O13	O	1.065717	-0.274886	-0.138844
O14	O	1.565717	0.225114	0.361156
O15	O	0.984145	-0.147773	-0.256295
O16	O	1.484145	0.352227	0.243705
O17	O	1.184223	-0.280711	-0.248190
O18	O	1.684223	0.219289	0.251810
O19	O	1.073934	-0.152187	-0.339145
O20	O	1.573934	0.347813	0.160855
O21	O	0.979470	-0.217580	-0.142338
O22	O	1.479470	0.282420	0.357662
O23	O	0.870153	-0.217796	-0.260820
O24	O	1.370153	0.282204	0.239180
O25	O	0.992078	-0.281089	-0.456443
O26	O	1.492078	0.218911	0.043557
O27	O	0.873572	-0.275264	-0.347097
O28	O	1.373572	0.224736	0.152903
O29	O	1.078448	-0.228034	-0.453015
O30	O	1.578448	0.271966	0.046985
O31	O	1.070231	-0.350733	-0.252714
O32	O	1.570231	0.149267	0.247286
O33	O	0.987403	-0.350897	-0.342486
O34	O	1.487403	0.149103	0.157514
C35	C	0.846367	-0.245903	-0.304981
C36	C	1.346367	0.254097	0.195019
C37	C	0.768267	-0.243991	-0.308130
C38	C	1.268267	0.256009	0.191870
C39	C	0.328849	-0.230245	-0.330721
C40	C	0.828849	0.269755	0.169279
C41	C	0.402232	-0.232049	-0.327758
C42	C	0.902232	0.267951	0.172242
C43	C	0.437067	-0.260440	-0.281250
C44	C	0.937067	0.239560	0.218750
C45	C	0.398516	-0.287032	-0.237706
C46	C	0.898516	0.212968	0.262294
C47	C	0.325134	-0.285229	-0.240673
C48	C	0.825134	0.214771	0.259327
C49	C	0.656335	-0.268780	-0.267553
C50	C	1.156335	0.231220	0.232447
C51	C	0.729721	-0.270580	-0.264588
C52	C	1.229721	0.229420	0.235412
C53	C	0.733432	-0.215597	-0.354642
C54	C	1.233432	0.284403	0.145358
C55	C	0.660049	-0.213796	-0.357601
C56	C	1.160049	0.286204	0.142399
C57	C	0.621505	-0.240389	-0.314060
C58	C	1.121505	0.259611	0.185940
N59	N	0.512076	-0.262284	-0.278219
N60	N	1.012076	0.237716	0.221781
N61	N	0.546497	-0.238547	-0.317095
N62	N	1.046497	0.261453	0.182905
C63	C	1.028819	-0.367116	-0.297605
C64	C	1.528819	0.132884	0.202395
C65	C	1.028837	-0.417051	-0.297603
C66	C	1.528837	0.082949	0.202397
C67	C	1.075675	-0.728962	-0.340864
C68	C	1.575675	-0.228962	0.159136
C69	C	1.075753	-0.916639	-0.340903
C70	C	1.575753	-0.416639	0.159097
O71	O	1.115469	-0.942828	-0.377646
O72	O	1.615469	-0.442828	0.122354
N73	N	1.029051	-0.937844	-0.297733
N74	N	1.529051	-0.437844	0.202267
C75	C	0.982323	-0.912128	-0.254554
C76	C	1.482323	-0.412128	0.245446
O77	O	0.942597	-0.934472	-0.217841
O78	O	1.442597	-0.434472	0.282159
C79	C	0.982242	-0.724453	-0.254519
C80	C	1.482242	-0.224453	0.245481
C81	C	1.028952	-0.703250	-0.297686
C82	C	1.528952	-0.203250	0.202314
C83	C	1.122380	-0.707759	-0.384029
C84	C	1.622380	-0.207759	0.115971
C85	C	1.122363	-0.660843	-0.384016
C86	C	1.622363	-0.160843	0.115984
C87	C	1.075640	-0.635130	-0.340838
C88	C	1.575640	-0.135130	0.159162
C89	C	1.028935	-0.656334	-0.297673
C90	C	1.528935	-0.156334	0.202327
C91	C	0.935511	-0.698738	-0.211343
C92	C	1.435511	-0.198738	0.288657
C93	C	0.935494	-0.651817	-0.211340
C94	C	1.435494	-0.151817	0.288660
C95	C	0.982204	-0.630613	-0.254507
C96	C	1.482204	-0.130613	0.245493
C97	C	0.982194	-0.583705	-0.254482
C98	C	1.482194	-0.083705	0.245518
N99	N	1.028896	-0.562499	-0.297653
N100	N	1.528896	-0.062499	0.202347
C101	C	1.075619	-0.588211	-0.340830
C102	C	1.575619	-0.088211	0.159170
C103	C	0.982370	-1.010661	-0.254574
C104	C	1.482370	-0.510661	0.245426
C105	C	0.982391	-1.057579	-0.254582
C106	C	1.482391	-0.557579	0.245418
C107	C	1.075819	-1.062086	-0.340933
C108	C	1.575819	-0.562086	0.159067
C109	C	1.075801	-1.015167	-0.340921
C110	C	1.575801	-0.515167	0.159079
C111	C	1.029071	-0.989455	-0.297744
C112	C	1.529071	-0.489455	0.202256
C113	C	1.075579	-0.489684	-0.340799
C114	C	1.575579	0.010316	0.159201
C115	C	1.075560	-0.442763	-0.340780
C116	C	1.575560	0.057237	0.159220
C117	C	0.982129	-0.438260	-0.254433
C118	C	1.482129	0.061740	0.245567
C119	C	0.982150	-0.485177	-0.254448
C120	C	1.482150	0.014823	0.245552
C121	C	1.028878	-0.510888	-0.297638
C122	C	1.528878	-0.010888	0.202362
O123	O	0.942494	-0.557487	-0.217765
O124	O	1.442494	-0.057487	0.282235
O125	O	1.115328	-0.565860	-0.377549
O126	O	1.615328	-0.065860	0.122451
C127	C	1.075692	-0.775879	-0.340877
C128	C	1.575692	-0.275879	0.159123
C129	C	1.028987	-0.797082	-0.297712
C130	C	1.528987	-0.297082	0.202288
C131	C	0.982264	-0.771370	-0.254535
C132	C	1.482264	-0.271370	0.245465
C133	C	1.029008	-0.844001	-0.297720
C134	C	1.529008	-0.344001	0.202280
C135	C	1.075730	-0.869713	-0.340898
C136	C	1.575730	-0.369713	0.159102
C137	C	1.122432	-0.848508	-0.384068
C138	C	1.622432	-0.348508	0.115932
C139	C	1.122415	-0.801591	-0.384055
C140	C	1.622415	-0.301591	0.115945
C141	C	0.935562	-0.792576	-0.211364
C142	C	1.435562	-0.292576	0.288636
C143	C	0.935584	-0.839492	-0.211380
C144	C	1.435584	-0.339492	0.288620
C145	C	0.982306	-0.865205	-0.254558
C146	C	1.482306	-0.365205	0.245442
C147	C	1.212202	-0.254910	-0.290311
C148	C	1.712202	0.245090	0.209689
C149	C	1.290303	-0.256833	-0.287179
C150	C	1.790303	0.243167	0.212821
C151	C	1.036320	-0.255257	-0.480938
C152	C	1.536320	0.244743	0.019062
C153	C	1.039470	-0.257327	-0.559040
C154	C	1.539470	0.242673	-0.059040
C155	C	1.029058	-0.133224	-0.297730
C156	C	1.529058	0.366776	0.202270
C157	C	1.029113	-0.083292	-0.297760
C158	C	1.529113	0.416708	0.202240
C159	C	0.996047	-0.228465	-0.597550
C160	C	1.496047	0.271535	-0.097550
C161	C	0.999004	-0.230414	-0.670936
C162	C	1.499004	0.269586	-0.170936
C163	C	1.045388	-0.261224	-0.705808
C164	C	1.545388	0.238776	-0.205808
C165	C	1.088813	-0.290090	-0.667292
C166	C	1.588813	0.209910	-0.167292
C167	C	1.085852	-0.288142	-0.593909
C168	C	1.585852	0.211858	-0.093909
C169	C	1.059056	-0.270250	-0.925087
C170	C	1.559056	0.229750	-0.425087
C171	C	1.062015	-0.272194	-0.998476
C172	C	1.562015	0.227806	-0.498476
C173	C	0.972205	-0.212519	-1.002114
C174	C	1.472205	0.287481	-0.502114
C175	C	0.969251	-0.210573	-0.928729
C176	C	1.469251	0.289427	-0.428729
C177	C	1.012673	-0.239440	-0.890219
C178	C	1.512673	0.260560	-0.390219
N179	N	1.048413	-0.263216	-0.780820
N180	N	1.548413	0.236784	-0.280820
N181	N	1.009644	-0.237449	-0.815210
N182	N	1.509644	0.262551	-0.315210
C183	C	1.021606	-0.245526	-0.115094
C184	C	1.521606	0.254474	0.384906
C185	C	1.018592	-0.243332	-0.036987
C186	C	1.518592	0.256668	0.463013
H187	H	0.433613	-0.210399	-0.363217
H188	H	0.933613	0.289601	0.136783
Br189	Br	0.918940	-0.975772	-0.195975
Br190	Br	1.418940	-0.475772	0.304025
H191	H	0.944362	-1.074839	-0.219422
H192	H	1.444362	-0.574839	0.280578
Br193	Br	0.785746	-0.179510	-0.413732
Br194	Br	1.285746	0.320490	0.086268
Br195	Br	0.918723	-0.403356	-0.195836
Br196	Br	1.418723	0.096644	0.304164
Br197	Br	0.918769	-0.513954	-0.195852
Br198	Br	1.418769	-0.013954	0.304148
Br199	Br	0.872190	-0.868262	-0.152786
Br200	Br	1.372190	-0.368262	0.347214
Br201	Br	0.272821	-0.321321	-0.181586
Br202	Br	0.772821	0.178679	0.318414
Br203	Br	1.138958	-0.413990	-0.399366
Br204	Br	1.638958	0.086010	0.100634
H205	H	0.931479	-0.185485	-0.900341
H206	H	1.431479	0.314515	-0.400341
H207	H	0.963642	-0.206913	-0.702288
H208	H	1.463642	0.293087	-0.202288
Br209	Br	0.913277	-0.173346	-1.054381
Br210	Br	1.413277	0.326654	-0.554381
H211	H	1.126576	-0.315178	-0.695692
H212	H	1.626576	0.184822	-0.195692
H213	H	1.160450	-0.784331	-0.419206
H214	H	1.660450	-0.284331	0.080794
Br215	Br	0.776998	-0.309122	-0.201479
Br216	Br	1.276998	0.190878	0.298521
Br217	Br	1.124977	-0.314005	-1.045803
Br218	Br	1.624977	0.185995	-0.545803
H219	H	0.624960	-0.290433	-0.232097
H220	H	1.124960	0.209567	0.267903
Br221	Br	0.612778	-0.175264	-0.420723
Br222	Br	1.112778	0.324736	0.079277
Br223	Br	1.117990	-0.309424	-0.872833
Br224	Br	1.617990	0.190576	-0.372833
H225	H	1.113625	-0.510612	-0.375973
H226	H	1.613625	-0.010612	0.124027
H227	H	0.897476	-0.715994	-0.176191
H228	H	1.397476	-0.215994	0.323809
Br229	Br	0.933100	-0.186646	-0.550230
Br230	Br	1.433100	0.313354	-0.050230
Br231	Br	1.144779	-0.327317	-0.541643
Br232	Br	1.644779	0.172683	-0.041643
Br233	Br	0.872070	-0.616924	-0.152741
Br234	Br	1.372070	-0.116924	0.347259
H235	H	1.160396	-0.643582	-0.419169
H236	H	1.660396	-0.143582	0.080831
H237	H	0.300491	-0.207123	-0.368589
H238	H	0.800491	0.292877	0.131411
Br239	Br	1.185795	-0.742646	-0.442640
Br240	Br	1.685795	-0.242646	0.057360
Br241	Br	0.445791	-0.325566	-0.174592
Br242	Br	0.945791	0.174434	0.325408
Br243	Br	1.139195	-0.986396	-0.399507
Br244	Br	1.639195	-0.486396	0.100493
Br245	Br	1.139229	-1.096991	-0.399530
Br246	Br	1.639229	-0.596991	0.100470
H247	H	1.160478	-0.869451	-0.419223
H248	H	1.660478	-0.369451	0.080777
Br249	Br	0.872141	-0.757687	-0.152765
Br250	Br	1.372141	-0.257687	0.347235
