data_functionalizedCrystal
_audit_creation_method	'MofGen! by Chris Wilmer'
_symmetry_space_group_name_H-M	'P1'
_symmetry_Int_Tables_number	1
_symmetry_cell_setting	triclinic
loop_
_symmetry_equiv_pos_as_xyz
  x,y,z
_cell_length_a	19.288864
_cell_length_b	15.072220
_cell_length_c	19.288859
_cell_angle_alpha	89.998528
_cell_angle_beta	83.134987
_cell_angle_gamma	90.026328
loop_
_atom_site_label
_atom_site_type_symbol
_atom_site_fract_x
_atom_site_fract_y
_atom_site_fract_z
O1	O	0.921355	0.074062	0.086643
O2	O	1.171355	0.324062	0.336643
O3	O	1.421355	0.574062	0.586643
O4	O	1.671355	0.824062	0.836643
O5	O	0.719094	0.074001	0.098332
O6	O	0.969094	0.324001	0.348332
O7	O	1.219094	0.574001	0.598332
O8	O	1.469094	0.824001	0.848332
O9	O	0.826071	0.074033	-0.008643
O10	O	1.076071	0.324033	0.241357
O11	O	1.326071	0.574033	0.491357
O12	O	1.576071	0.824033	0.741357
O13	O	0.814378	0.074029	0.193618
O14	O	1.064378	0.324029	0.443618
O15	O	1.314378	0.574029	0.693618
O16	O	1.564378	0.824029	0.943618
O17	O	0.826045	-0.073532	-0.008637
O18	O	1.076045	0.176468	0.241363
O19	O	1.326045	0.426468	0.491363
O20	O	1.576045	0.676468	0.741363
O21	O	0.719068	-0.073565	0.098338
O22	O	0.969068	0.176435	0.348338
O23	O	1.219068	0.426435	0.598338
O24	O	1.469068	0.676435	0.848338
O25	O	0.921329	-0.073503	0.086649
O26	O	1.171329	0.176497	0.336649
O27	O	1.421329	0.426497	0.586649
O28	O	1.671329	0.676497	0.836649
Zn29	Zn	0.820194	-0.096963	0.092495
Zn30	Zn	1.070194	0.153037	0.342495
Zn31	Zn	1.320194	0.403037	0.592495
Zn32	Zn	1.570194	0.653037	0.842495
Zn33	Zn	0.820229	0.097460	0.092487
Zn34	Zn	1.070229	0.347460	0.342487
Zn35	Zn	1.320229	0.597460	0.592487
Zn36	Zn	1.570229	0.847460	0.842487
O37	O	0.814352	-0.073536	0.193624
O38	O	1.064352	0.176464	0.443624
O39	O	1.314352	0.426464	0.693624
O40	O	1.564352	0.676464	0.943624
C41	C	0.693204	0.000210	0.097959
C42	C	0.943204	0.250210	0.347959
C43	C	1.193204	0.500210	0.597959
C44	C	1.443204	0.750210	0.847959
C45	C	0.616101	0.000187	0.096830
C46	C	0.866101	0.250187	0.346830
C47	C	1.116101	0.500187	0.596830
C48	C	1.366101	0.750187	0.846830
N49	N	0.820175	-0.229652	0.092500
N50	N	1.070175	0.020348	0.342500
N51	N	1.320175	0.270348	0.592500
N52	N	1.570175	0.520348	0.842500
C53	C	0.571403	0.000200	0.159598
C54	C	0.821403	0.250200	0.409598
C55	C	1.071403	0.500200	0.659598
C56	C	1.321403	0.750200	0.909598
C57	C	0.498956	0.000210	0.158537
C58	C	0.748956	0.250210	0.408537
C59	C	0.998956	0.500210	0.658537
C60	C	1.248956	0.750210	0.908537
C61	C	0.471210	0.000224	0.094705
C62	C	0.721210	0.250224	0.344705
C63	C	0.971210	0.500224	0.594705
C64	C	1.221210	0.750224	0.844705
C65	C	0.515918	0.000207	0.031929
C66	C	0.765918	0.250207	0.281929
C67	C	1.015918	0.500207	0.531929
C68	C	1.265918	0.750207	0.781929
C69	C	0.588363	0.000188	0.032991
C70	C	0.838363	0.250188	0.282991
C71	C	1.088363	0.500188	0.532991
C72	C	1.338363	0.750188	0.782991
C73	C	0.362958	0.051954	0.044524
C74	C	0.612958	0.301954	0.294524
C75	C	0.862958	0.551954	0.544524
C76	C	1.112958	0.801954	0.794524
C77	C	0.290514	0.051978	0.043464
C78	C	0.540514	0.301978	0.293464
C79	C	0.790514	0.551978	0.543464
C80	C	1.040514	0.801978	0.793464
C81	C	0.247765	0.000278	0.091425
C82	C	0.497765	0.250278	0.341425
C83	C	0.747765	0.500278	0.591425
C84	C	0.997765	0.750278	0.841425
C85	C	0.277467	-0.051434	0.140459
C86	C	0.527467	0.198566	0.390459
C87	C	0.777467	0.448566	0.640459
C88	C	1.027467	0.698566	0.890459
C89	C	0.349912	-0.051453	0.141521
C90	C	0.599912	0.198547	0.391521
C91	C	0.849912	0.448547	0.641521
C92	C	1.099912	0.698547	0.891521
C93	C	0.392656	0.000244	0.093546
C94	C	0.642656	0.250244	0.343546
C95	C	0.892656	0.500244	0.593546
C96	C	1.142656	0.750244	0.843546
C97	C	0.124511	0.000300	0.153048
C98	C	0.374511	0.250300	0.403048
C99	C	0.624511	0.500300	0.653048
C100	C	0.874511	0.750300	0.903048
C101	C	0.052063	0.000305	0.151984
C102	C	0.302063	0.250305	0.401984
C103	C	0.552063	0.500305	0.651984
C104	C	0.802063	0.750305	0.901984
C105	C	0.069026	0.000311	0.025374
C106	C	0.319026	0.250311	0.275374
C107	C	0.569026	0.500311	0.525374
C108	C	0.819026	0.750311	0.775374
C109	C	0.141472	0.000297	0.026439
C110	C	0.391472	0.250297	0.276439
C111	C	0.641472	0.500297	0.526439
C112	C	0.891472	0.750297	0.776439
C113	C	0.169210	0.000297	0.090278
C114	C	0.419210	0.250297	0.340278
C115	C	0.669210	0.500297	0.590278
C116	C	0.919210	0.750297	0.840278
C117	C	0.820227	-0.588853	0.092484
C118	C	1.070227	-0.338853	0.342484
C119	C	1.320227	-0.088853	0.592484
C120	C	1.570227	0.161147	0.842484
C121	C	0.762795	-0.551264	0.149533
C122	C	1.012795	-0.301264	0.399533
C123	C	1.262795	-0.051264	0.649533
C124	C	1.512795	0.198736	0.899533
C125	C	0.762926	-0.448438	0.149741
C126	C	1.012926	-0.198438	0.399741
C127	C	1.262926	0.051562	0.649741
C128	C	1.512926	0.301562	0.899741
C129	C	0.820201	-0.410649	0.092492
C130	C	1.070201	-0.160649	0.342492
C131	C	1.320201	0.089351	0.592492
C132	C	1.570201	0.339351	0.842492
C133	C	0.892625	-0.447919	0.108094
C134	C	1.142625	-0.197919	0.358094
C135	C	1.392625	0.052081	0.608094
C136	C	1.642625	0.302081	0.858094
C137	C	0.892303	-0.550777	0.108500
C138	C	1.142303	-0.300777	0.358500
C139	C	1.392303	-0.050777	0.608500
C140	C	1.642303	0.199223	0.858500
C141	C	0.805882	-0.550958	0.019661
C142	C	1.055882	-0.300958	0.269661
C143	C	1.305882	-0.050958	0.519661
C144	C	1.555882	0.199042	0.769661
C145	C	0.804218	-0.448095	0.020153
C146	C	1.054218	-0.198095	0.270153
C147	C	1.304218	0.051905	0.520153
C148	C	1.554218	0.301905	0.770153
C149	C	0.820191	-0.309936	0.092495
C150	C	1.070191	-0.059936	0.342495
C151	C	1.320191	0.190064	0.592495
C152	C	1.570191	0.440064	0.842495
C153	C	0.820242	-0.689567	0.092482
C154	C	1.070242	-0.439567	0.342482
C155	C	1.320242	-0.189567	0.592482
C156	C	1.570242	0.060433	0.842482
C157	C	0.947218	0.000289	0.087022
C158	C	1.197218	0.250289	0.337022
C159	C	1.447218	0.500289	0.587022
C160	C	1.697218	0.750289	0.837022
C161	C	1.024322	0.000318	0.088151
C162	C	1.274322	0.250318	0.338151
C163	C	1.524322	0.500318	0.588151
C164	C	1.774322	0.750318	0.838151
C165	C	0.825682	0.000252	-0.034516
C166	C	1.075682	0.250252	0.215484
C167	C	1.325682	0.500252	0.465484
C168	C	1.575682	0.750252	0.715484
C169	C	0.824555	0.000258	-0.111620
C170	C	1.074555	0.250258	0.138380
C171	C	1.324555	0.500258	0.388380
C172	C	1.574555	0.750258	0.638380
N173	N	0.820253	0.230149	0.092476
N174	N	1.070253	0.480149	0.342476
N175	N	1.320253	0.730149	0.592476
N176	N	1.570253	0.980149	0.842476
C177	C	0.814740	0.000247	0.219498
C178	C	1.064740	0.250247	0.469498
C179	C	1.314740	0.500247	0.719498
C180	C	1.564740	0.750247	0.969498
C181	C	0.815868	0.000247	0.296602
C182	C	1.065868	0.250247	0.546602
C183	C	1.315868	0.500247	0.796602
C184	C	1.565868	0.750247	1.046602
C185	C	0.760724	0.000249	0.860642
C186	C	1.010724	0.250249	1.110642
C187	C	1.260724	0.500249	1.360642
C188	C	1.510724	0.750249	1.610642
C189	C	0.759659	0.000241	0.788196
C190	C	1.009659	0.250241	1.038196
C191	C	1.259659	0.500241	1.288196
C192	C	1.509659	0.750241	1.538196
C193	C	0.822428	0.000261	0.743489
C194	C	1.072428	0.250261	0.993489
C195	C	1.322428	0.500261	1.243489
C196	C	1.572428	0.750261	1.493489
C197	C	0.886268	0.000265	0.771234
C198	C	1.136268	0.250265	1.021234
C199	C	1.386268	0.500265	1.271234
C200	C	1.636268	0.750265	1.521234
C201	C	0.887331	0.000263	0.843679
C202	C	1.137331	0.250263	1.093679
C203	C	1.387331	0.500263	1.343679
C204	C	1.637331	0.750263	1.593679
C205	C	0.869250	0.051973	0.622215
C206	C	1.119250	0.301973	0.872215
C207	C	1.369250	0.551973	1.122215
C208	C	1.619250	0.801973	1.372215
C209	C	0.868184	0.051980	0.549771
C210	C	1.118184	0.301980	0.799771
C211	C	1.368184	0.551980	1.049771
C212	C	1.618184	0.801980	1.299771
C213	C	0.819151	0.000261	0.520043
C214	C	1.069151	0.250261	0.770043
C215	C	1.319151	0.500261	1.020043
C216	C	1.569151	0.750261	1.270043
C217	C	0.771171	-0.051453	0.562769
C218	C	1.021171	0.198547	0.812769
C219	C	1.271171	0.448547	1.062769
C220	C	1.521171	0.698547	1.312769
C221	C	0.772235	-0.051455	0.635214
C222	C	1.022235	0.198545	0.885214
C223	C	1.272235	0.448545	1.135214
C224	C	1.522235	0.698545	1.385214
C225	C	0.821282	0.000262	0.664933
C226	C	1.071282	0.250262	0.914933
C227	C	1.321282	0.500262	1.164933
C228	C	1.571282	0.750262	1.414933
C229	C	0.754160	0.000242	0.413752
C230	C	1.004160	0.250242	0.663752
C231	C	1.254160	0.500242	0.913752
C232	C	1.504160	0.750242	1.163752
C233	C	0.753098	0.000229	0.341303
C234	C	1.003098	0.250229	0.591303
C235	C	1.253098	0.500229	0.841303
C236	C	1.503098	0.750229	1.091303
C237	C	0.879708	0.000262	0.324343
C238	C	1.129708	0.250262	0.574343
C239	C	1.379708	0.500262	0.824343
C240	C	1.629708	0.750262	1.074343
C241	C	0.880769	0.000266	0.396790
C242	C	1.130769	0.250266	0.646790
C243	C	1.380769	0.500266	0.896790
C244	C	1.630769	0.750266	1.146790
C245	C	0.817993	0.000260	0.441490
C246	C	1.067993	0.250260	0.691490
C247	C	1.317993	0.500260	0.941490
C248	C	1.567993	0.750260	1.191490
H249	H	0.593982	0.000201	0.211581
H250	H	0.843982	0.250201	0.461581
H251	H	1.093982	0.500201	0.711581
H252	H	1.343982	0.750201	0.961581
Br253	Br	0.973966	0.000279	0.881326
Br254	Br	1.223966	0.250279	1.131326
Br255	Br	1.473966	0.500279	1.381326
Br256	Br	1.723966	0.750279	1.631326
Br257	Br	0.715421	-0.407504	0.000405
Br258	Br	0.965421	-0.157504	0.250405
Br259	Br	1.215421	0.092496	0.500405
Br260	Br	1.465421	0.342496	0.750405
Br261	Br	0.777817	-0.594304	0.239110
Br262	Br	1.027817	-0.344304	0.489110
Br263	Br	1.277817	-0.094304	0.739110
Br264	Br	1.527817	0.155696	0.989110
H265	H	0.754230	-0.576964	0.004602
H266	H	1.004230	-0.326964	0.254602
H267	H	1.254230	-0.076964	0.504602
H268	H	1.504230	0.173036	0.754602
H269	H	0.708779	-0.576042	0.140426
H270	H	0.958779	-0.326042	0.390426
H271	H	1.208779	-0.076042	0.640426
H272	H	1.458779	0.173958	0.890426
H273	H	0.936374	-0.423436	0.067638
H274	H	1.186374	-0.173436	0.317638
H275	H	1.436374	0.076564	0.567638
H276	H	1.686374	0.326564	0.817638
Br277	Br	-0.008601	0.000314	0.237177
Br278	Br	0.241399	0.250314	0.487177
Br279	Br	0.491399	0.500314	0.737177
Br280	Br	0.741399	0.750314	0.987177
H281	H	0.772062	-0.423821	0.203786
H282	H	1.022062	-0.173821	0.453786
H283	H	1.272062	0.076179	0.703786
H284	H	1.522062	0.326179	0.953786
Br285	Br	0.971455	0.000280	0.710563
Br286	Br	1.221455	0.250280	0.960563
Br287	Br	1.471455	0.500280	1.210563
Br288	Br	1.721455	0.750280	1.460563
H289	H	0.707679	0.000225	0.765608
H290	H	0.957679	0.250225	1.015608
H291	H	1.207679	0.500225	1.265608
H292	H	1.457679	0.750225	1.515608
Br293	Br	0.869445	-0.405240	-0.053895
Br294	Br	1.119445	-0.155240	0.196105
Br295	Br	1.369445	0.094760	0.446105
Br296	Br	1.619445	0.344760	0.696105
Br297	Br	0.219459	-0.121601	0.205557
Br298	Br	0.469459	0.128399	0.455557
Br299	Br	0.719459	0.378399	0.705557
Br300	Br	0.969459	0.628399	0.955557
Br301	Br	0.666462	0.000207	0.303659
Br302	Br	0.916462	0.250207	0.553659
Br303	Br	1.166462	0.500207	0.803659
Br304	Br	1.416462	0.750207	1.053659
Br305	Br	0.914272	-0.404964	0.195589
Br306	Br	1.164272	-0.154964	0.445589
Br307	Br	1.414272	0.095036	0.695589
Br308	Br	1.664272	0.345036	0.945589
Br309	Br	0.162160	0.000293	0.239683
Br310	Br	0.412160	0.250293	0.489683
Br311	Br	0.662160	0.500293	0.739683
Br312	Br	0.912160	0.750293	0.989683
H313	H	0.847767	-0.575263	-0.022790
H314	H	1.097767	-0.325263	0.227210
H315	H	1.347767	-0.075263	0.477210
H316	H	1.597767	0.174737	0.727210
Br317	Br	0.935809	0.122158	0.662551
Br318	Br	1.185809	0.372158	0.912551
Br319	Br	1.435809	0.622158	1.162551
Br320	Br	1.685809	0.872158	1.412551
H321	H	0.462556	0.000218	0.209652
H322	H	0.712556	0.250218	0.459652
H323	H	0.962556	0.500218	0.709652
H324	H	1.212556	0.750218	0.959652
Br325	Br	0.031379	0.000316	-0.061258
Br326	Br	0.281379	0.250316	0.188742
Br327	Br	0.531379	0.500316	0.438742
Br328	Br	0.781379	0.750316	0.688742
Br329	Br	0.913431	-0.590746	0.197006
Br330	Br	1.163431	-0.340746	0.447006
Br331	Br	1.413431	-0.090746	0.697006
Br332	Br	1.663431	0.159254	0.947006
Br333	Br	0.675529	0.000242	0.921304
Br334	Br	0.925529	0.250242	1.171304
Br335	Br	1.175529	0.500242	1.421304
Br336	Br	1.425529	0.750242	1.671304
H337	H	0.266336	0.094089	0.003541
H338	H	0.516336	0.344089	0.253541
H339	H	0.766336	0.594089	0.503541
H340	H	1.016336	0.844089	0.753541
Br341	Br	0.202138	0.000282	-0.058751
Br342	Br	0.452138	0.250282	0.191249
Br343	Br	0.702138	0.500282	0.441249
Br344	Br	0.952138	0.750282	0.691249
Br345	Br	0.707125	-0.121635	0.693197
Br346	Br	0.957125	0.128365	0.943197
Br347	Br	1.207125	0.378365	1.193197
Br348	Br	1.457125	0.628365	1.443197
H349	H	0.907250	0.094090	0.514990
H350	H	1.157250	0.344090	0.764990
H351	H	1.407250	0.594090	1.014990
H352	H	1.657250	0.844090	1.264990
Br353	Br	0.390222	-0.121633	0.208061
Br354	Br	0.640222	0.128367	0.458061
Br355	Br	0.890222	0.378367	0.708061
Br356	Br	1.140222	0.628367	0.958061
Br357	Br	0.673172	-0.406440	0.134351
Br358	Br	0.923172	-0.156440	0.384351
Br359	Br	1.173172	0.093560	0.634351
Br360	Br	1.423172	0.343560	0.884351
Br361	Br	0.704622	-0.121650	0.522434
Br362	Br	0.954622	0.128350	0.772434
Br363	Br	1.204622	0.378350	1.022434
Br364	Br	1.454622	0.628350	1.272434
H365	H	0.397760	0.094059	0.005466
H366	H	0.647760	0.344059	0.255466
H367	H	0.897760	0.594059	0.505466
H368	H	1.147760	0.844059	0.755466
H369	H	0.493322	0.000231	-0.020044
H370	H	0.743322	0.250231	0.229956
H371	H	0.993322	0.500231	0.479956
H372	H	1.243322	0.750231	0.729956
Br373	Br	0.965583	-0.592220	0.041782
Br374	Br	1.215583	-0.342220	0.291782
Br375	Br	1.465583	-0.092220	0.541782
Br376	Br	1.715583	0.157780	0.791782
H377	H	0.703044	0.000231	0.450149
H378	H	0.953044	0.250231	0.700149
H379	H	1.203044	0.500231	0.950149
H380	H	1.453044	0.750231	1.200149
Br381	Br	0.967402	0.000294	0.434437
Br382	Br	1.217402	0.250294	0.684437
Br383	Br	1.467402	0.500294	0.934437
Br384	Br	1.717402	0.750294	1.184437
H385	H	0.930816	0.000275	0.287943
H386	H	1.180816	0.250275	0.537943
H387	H	1.430816	0.500275	0.787943
H388	H	1.680816	0.750275	1.037943
H389	H	0.624757	0.000178	-0.018124
H390	H	0.874757	0.250178	0.231876
H391	H	1.124757	0.500178	0.481876
H392	H	1.374757	0.750178	0.731876
