data_functionalizedCrystal
_audit_creation_method	'MofGen! by Chris Wilmer'
_symmetry_space_group_name_H-M	'P1'
_symmetry_Int_Tables_number	1
_symmetry_cell_setting	triclinic
loop_
_symmetry_equiv_pos_as_xyz
  x,y,z
_cell_length_a	17.077404
_cell_length_b	13.032721
_cell_length_c	17.077396
_cell_angle_alpha	82.846305
_cell_angle_beta	90.019501
_cell_angle_gamma	97.204757
loop_
_atom_site_label
_atom_site_type_symbol
_atom_site_fract_x
_atom_site_fract_y
_atom_site_fract_z
Zn1	Zn	1.160375	-0.416035	0.483523
Zn2	Zn	1.143613	-0.590801	0.368926
Zn3	Zn	1.029103	-0.416072	0.352275
Zn4	Zn	1.012412	-0.590739	0.500144
O5	O	1.086376	-0.503412	0.426217
O6	O	1.267997	-0.439229	0.468335
O7	O	1.128394	-0.567664	0.256874
O8	O	1.060517	-0.269828	0.355761
O9	O	1.255683	-0.567629	0.384141
O10	O	1.156961	-0.269801	0.452188
O11	O	1.044264	-0.439292	0.244641
O12	O	0.917043	-0.439231	0.371877
O13	O	1.032069	-0.567523	0.607782
O14	O	0.904780	-0.567559	0.480516
O15	O	1.140777	-0.439169	0.595571
O16	O	1.112209	-0.737032	0.400257
O17	O	1.015816	-0.736987	0.496662
C18	C	0.882430	-0.503393	0.426193
C19	C	0.795178	-0.503410	0.426204
C20	C	0.747814	-0.570331	0.482702
C21	C	0.665833	-0.570333	0.482715
C22	C	0.631218	-0.503419	0.426226
C23	C	0.678589	-0.436491	0.369726
C24	C	0.760569	-0.436484	0.369717
C25	C	0.507717	-0.436512	0.369747
C26	C	0.425732	-0.436519	0.369754
C27	C	0.412982	-0.570361	0.482744
C28	C	0.494961	-0.570354	0.482735
C29	C	0.542326	-0.503427	0.426234
C30	C	1.060404	-0.774928	0.452087
C31	C	1.049365	-0.891083	0.463180
C32	C	1.092179	-0.942857	0.420462
C33	C	1.080770	-1.062910	0.431927
C34	C	1.291118	-0.503432	0.426241
C35	C	1.378367	-0.503440	0.426251
C36	C	1.086431	-0.503335	0.630954
C37	C	1.086454	-0.503302	0.718201
C38	C	1.112470	-0.230836	0.400263
C39	C	1.123590	-0.114681	0.389203
C40	C	1.086374	-0.503413	0.222269
C41	C	1.086530	-0.503152	0.134995
C42	C	1.143060	-0.436463	0.752833
C43	C	1.143073	-0.436428	0.834811
C44	C	1.086482	-0.503239	0.882154
C45	C	1.029870	-0.570081	0.847516
C46	C	1.029855	-0.570110	0.765540
C47	C	1.029908	-0.570018	1.018380
C48	C	1.029924	-0.569991	1.100362
C49	C	1.143126	-0.436336	1.087651
C50	C	1.143111	-0.436365	1.005675
C51	C	1.086499	-0.503209	0.971042
H52	H	0.374413	-0.624852	0.528751
H53	H	1.137283	-0.898306	0.375405
O54	O	0.974847	-0.634810	0.984695
C55	C	0.867528	-0.648930	0.893435
C56	C	0.929828	-0.575428	0.931532
H57	H	0.831124	-0.600950	0.850433
H58	H	0.827035	-0.696658	0.941323
H59	H	0.898345	-0.703612	0.860306
H60	H	0.899077	-0.520682	0.964656
H61	H	0.970315	-0.527773	0.883609
H62	H	0.650399	-0.382004	0.323735
H63	H	0.983790	-0.624476	0.886069
O64	O	0.806462	-0.371450	0.314754
C65	C	0.810465	-0.238663	0.202708
C66	C	0.758398	-0.312282	0.264897
H67	H	0.771628	-0.190791	0.162393
H68	H	0.844229	-0.286522	0.166109
H69	H	0.854100	-0.184122	0.233625
H70	H	0.714720	-0.366838	0.234045
H71	H	0.724691	-0.264358	0.301492
O72	O	0.781560	-0.635298	0.537499
C73	C	0.902203	-0.694559	0.587598
C74	C	0.864090	-0.620950	0.525479
H75	H	0.968936	-0.682968	0.577911
H76	H	0.878078	-0.778826	0.581741
H77	H	0.887808	-0.676323	0.649170
H78	H	0.878470	-0.639091	0.463879
H79	H	0.888217	-0.536705	0.531406
H80	H	0.627272	-0.624828	0.528720
O81	O	0.974946	-0.635196	0.731941
C82	C	0.919806	-0.812965	0.723801
C83	C	0.982040	-0.739374	0.761900
H84	H	0.925510	-0.897207	0.748020
H85	H	0.929516	-0.801596	0.657079
H86	H	0.858277	-0.794559	0.738139
H87	H	1.043595	-0.757735	0.747623
H88	H	0.972261	-0.750757	0.828612
H89	H	1.035670	-1.107459	0.476993
O90	O	1.197958	-0.371379	0.868470
C91	C	1.222036	-0.230271	0.947609
C92	C	1.159797	-0.303869	0.909522
H93	H	1.191206	-0.175685	0.980822
H94	H	1.262469	-0.182455	0.899712
H95	H	1.258513	-0.278247	0.990536
H96	H	1.123265	-0.255974	0.866601
H97	H	1.119418	-0.351689	0.957462
H98	H	1.189196	-0.381968	0.967130
H99	H	0.397552	-0.382020	0.323764
O100	O	1.177508	-1.061590	0.335530
C101	C	1.314230	-1.027920	0.294323
C102	C	1.253256	-1.088091	0.355171
H103	H	1.375484	-1.049340	0.310172
H104	H	1.313915	-0.940553	0.294657
H105	H	1.298416	-1.049377	0.233054
H106	H	1.269028	-1.066721	0.416470
H107	H	1.253583	-1.175443	0.354768
O108	O	1.197965	-0.371410	0.706869
C109	C	1.253110	-0.193660	0.664915
C110	C	1.190882	-0.267218	0.716989
H111	H	1.247415	-0.109407	0.673091
H112	H	1.243386	-0.205067	0.600356
H113	H	1.314641	-0.212064	0.682790
H114	H	1.129325	-0.248860	0.699183
H115	H	1.200675	-0.255798	0.781535
H116	H	0.546281	-0.382003	0.323743
O117	O	0.974916	-0.634733	1.146419
C118	C	0.867572	-0.648702	1.240243
C119	C	0.929847	-0.575270	1.188139
H120	H	0.831106	-0.600655	1.273974
H121	H	0.898329	-0.703332	1.283887
H122	H	0.827138	-0.696491	1.201391
H123	H	0.970299	-0.527413	1.226928
H124	H	0.899038	-0.520709	1.144490
H125	H	1.189220	-0.381907	1.115852
O126	O	0.528463	-0.635389	0.537683
C127	C	0.507166	-0.768186	0.649726
C128	C	0.469124	-0.694573	0.587553
H129	H	0.459207	-0.816071	0.690051
H130	H	0.550121	-0.720322	0.686316
H131	H	0.540337	-0.822716	0.618795
H132	H	0.435912	-0.640028	0.618419
H133	H	0.426213	-0.742501	0.550966
O134	O	0.995569	-0.944386	0.516881
C135	C	0.935208	-1.112639	0.577328
C136	C	0.996146	-1.052408	0.516471
H137	H	0.935666	-1.199986	0.577029
H138	H	0.873905	-1.091406	0.561471
H139	H	0.950979	-1.091104	0.638586
H140	H	0.980449	-1.073911	0.455192
H141	H	1.057432	-1.073646	0.532396
