data_functionalizedCrystal
_audit_creation_method	'MofGen! by Chris Wilmer'
_symmetry_space_group_name_H-M	'P1'
_symmetry_Int_Tables_number	1
_symmetry_cell_setting	triclinic
loop_
_symmetry_equiv_pos_as_xyz
  x,y,z
_cell_length_a	10.540514
_cell_length_b	11.792241
_cell_length_c	10.268362
_cell_angle_alpha	90.005428
_cell_angle_beta	89.998857
_cell_angle_gamma	95.645712
loop_
_atom_site_label
_atom_site_type_symbol
_atom_site_fract_x
_atom_site_fract_y
_atom_site_fract_z
O1	O	1.685385	-0.159820	-0.108198
O2	O	2.185385	0.340180	0.391802
O3	O	1.315919	-0.174921	-0.108223
O4	O	1.815919	0.325079	0.391777
O5	O	1.509618	-0.002223	-0.108201
O6	O	2.009618	0.497777	0.391799
O7	O	1.491686	-0.332519	-0.108220
O8	O	1.991686	0.167481	0.391780
O9	O	1.509601	-0.002216	0.108400
O10	O	2.009601	0.497784	0.608400
O11	O	1.315902	-0.174914	0.108377
O12	O	1.815902	0.325086	0.608377
O13	O	1.685368	-0.159813	0.108403
O14	O	2.185368	0.340187	0.608403
Cu15	Cu	1.500634	-0.167363	0.128167
Cu16	Cu	2.000634	0.332637	0.628167
Cu17	Cu	1.500654	-0.167371	-0.127988
Cu18	Cu	2.000654	0.332629	0.372012
O19	O	1.491669	-0.332511	0.108380
O20	O	1.991669	0.167489	0.608380
C21	C	1.268611	-0.173791	0.000074
C22	C	1.768611	0.326209	0.500074
C23	C	1.127672	-0.170421	0.000065
C24	C	1.627672	0.329579	0.500065
C25	C	1.508483	0.040075	0.000099
C26	C	2.008483	0.540075	0.500099
C27	C	1.505112	0.166097	0.000097
C28	C	2.005112	0.666097	0.500097
C29	C	1.732677	-0.160943	0.000103
C30	C	2.232677	0.339057	0.500103
C31	C	1.873615	-0.164313	0.000103
C32	C	2.373615	0.335687	0.500103
C33	C	1.944723	-0.040801	0.000104
C34	C	2.444723	0.459199	0.500104
C35	C	2.091325	-0.044265	-0.000409
C36	C	2.591325	0.455735	0.499591
C37	C	2.065726	-0.231488	-0.123377
C38	C	2.565726	0.268512	0.376623
C39	C	1.919200	-0.227149	-0.123459
C40	C	2.419200	0.272851	0.376541
C41	C	1.918809	-0.228969	0.122865
C42	C	2.418809	0.271031	0.622865
C43	C	2.065784	-0.230161	0.124466
C44	C	2.565784	0.269839	0.624466
C45	C	1.492804	-0.374809	0.000078
C46	C	1.992804	0.125191	0.500078
C47	C	1.496176	-0.500831	0.000071
C48	C	1.996176	-0.000831	0.500071
N49	N	1.500629	-0.167356	0.308333
N50	N	2.000629	0.332644	0.808333
C51	C	1.498912	0.396825	0.000075
C52	C	1.998912	0.896825	0.500075
C53	C	1.502357	0.268431	0.000087
C54	C	2.002357	0.768431	0.500087
N55	N	1.500669	-0.167369	-0.308154
N56	N	2.000669	0.332631	0.191846
C57	C	1.500647	-0.167369	0.574004
C58	C	2.000647	0.332631	1.074004
C59	C	1.500633	-0.167365	0.426166
C60	C	2.000633	0.332635	0.926166
H61	H	1.916755	0.009148	0.088902
H62	H	2.416755	0.509148	0.588902
O63	O	2.120287	-0.171050	0.245439
O64	O	2.620287	0.328950	0.745439
H65	H	2.076062	-0.213770	0.332927
H66	H	2.576062	0.286230	0.832927
O67	O	1.904898	0.024607	-0.116965
O68	O	2.404898	0.524607	0.383035
H69	H	1.834684	-0.030472	-0.175154
H70	H	2.334684	0.469528	0.324846
O71	O	1.881993	-0.168073	-0.246144
O72	O	2.381993	0.331927	0.253856
H73	H	1.777182	-0.164398	-0.247424
H74	H	2.277182	0.335602	0.252576
O75	O	2.097418	-0.351968	0.134830
O76	O	2.597418	0.148032	0.634830
H77	H	2.149525	-0.363262	0.227123
H78	H	2.649525	0.136738	0.727123
O79	O	1.855804	-0.349638	0.124471
O80	O	2.355804	0.150362	0.624471
H81	H	1.792601	-0.363551	0.038309
H82	H	2.292601	0.136449	0.538309
O83	O	2.146820	0.019071	-0.118312
O84	O	2.646820	0.519071	0.381688
H85	H	2.068927	0.052286	-0.175193
H86	H	2.568927	0.552286	0.324807
O87	O	2.094885	-0.354223	-0.129032
O88	O	2.594885	0.145777	0.370968
H89	H	2.153984	-0.373043	-0.043719
H90	H	2.653984	0.126957	0.456281
H91	H	1.870899	-0.317877	-0.128717
H92	H	2.370899	0.182123	0.371283
H93	H	1.887453	-0.187853	0.216465
H94	H	2.387453	0.312147	0.716465
O95	O	2.148067	0.019334	0.116787
O96	O	2.648067	0.519334	0.616787
H97	H	2.070804	0.052855	0.174337
H98	H	2.570804	0.552855	0.674337
O99	O	2.122263	-0.176010	-0.245539
O100	O	2.622263	0.323990	0.254461
H101	H	2.194464	-0.104956	-0.218650
H102	H	2.694464	0.395044	0.281350
