data_functionalizedCrystal
_audit_creation_method	'MofGen! by Chris Wilmer'
_symmetry_space_group_name_H-M	'P1'
_symmetry_Int_Tables_number	1
_symmetry_cell_setting	triclinic
loop_
_symmetry_equiv_pos_as_xyz
  x,y,z
_cell_length_a	19.902436
_cell_length_b	14.560438
_cell_length_c	14.560438
_cell_angle_alpha	119.989277
_cell_angle_beta	90.000068
_cell_angle_gamma	120.004075
loop_
_atom_site_label
_atom_site_type_symbol
_atom_site_fract_x
_atom_site_fract_y
_atom_site_fract_z
Zr1	Zr	0.647371	-1.005021	-0.120198
O2	O	0.540090	-1.196610	-0.266809
O3	O	0.680252	-0.813443	-0.075288
O4	O	0.680264	-1.005016	-0.266842
O5	O	0.540076	-1.005037	0.075885
O6	O	0.790843	-1.004998	-0.266830
O7	O	0.540078	-1.005038	-0.075255
O8	O	0.790821	-0.662310	0.075826
O9	O	0.540097	-1.347726	-0.266771
O10	O	0.776807	-0.892224	-0.056084
O11	O	0.694281	-0.892237	0.056700
O12	O	0.694295	-1.117789	-0.168830
O13	O	0.611770	-1.117802	-0.056046
Zr14	Zr	0.823728	-1.004992	0.120872
Zr15	Zr	0.823731	-1.004992	-0.120179
Zr16	Zr	0.647367	-1.005020	0.120852
Zr17	Zr	0.647383	-1.246032	-0.120137
Zr18	Zr	0.823716	-0.763980	0.120810
O19	O	0.790847	-1.196569	0.075961
O20	O	0.790852	-1.196570	-0.266781
O21	O	0.540085	-1.196610	0.075933
O22	O	0.931009	-0.813402	0.267482
O23	O	0.931014	-0.813403	-0.075260
O24	O	0.680247	-0.813442	0.267455
O25	O	0.931023	-1.004975	-0.075212
O26	O	0.790835	-1.004997	0.267515
O27	O	0.680256	-1.005014	0.267503
O28	O	0.931021	-1.004974	0.075928
O29	O	0.680280	-1.347703	-0.266755
O30	O	0.790818	-0.662309	0.267428
O31	O	0.931001	-0.662287	0.267444
O32	O	0.931004	-0.662287	0.075841
O33	O	0.540095	-1.347725	-0.075168
O34	O	0.680278	-1.347703	-0.075153
O35	O	0.776803	-0.892223	0.169503
O36	O	0.859329	-0.892210	0.056719
O37	O	0.776817	-1.117775	-0.056027
O38	O	0.694292	-1.117788	0.056757
C39	C	0.735535	-0.703537	0.000260
C40	C	0.735530	-0.601222	0.000234
C41	C	0.674618	-0.636356	-0.082990
C42	C	0.674629	-0.540173	-0.082944
C43	C	0.796468	-0.373723	0.083561
C44	C	0.796459	-0.469905	0.083509
C45	C	0.613688	-0.767672	-0.166265
C46	C	0.552771	-0.802813	-0.249495
C47	C	0.552782	-0.706631	-0.249449
C48	C	0.613711	-0.575307	-0.166172
C49	C	0.514949	-1.005042	0.000312
C50	C	0.440080	-1.005054	0.000304
C51	C	0.168078	-1.004990	0.000347
C52	C	0.144519	-1.147281	-0.070434
C53	C	0.222356	-1.147370	-0.070827
C54	C	0.303021	-1.005022	0.000326
C55	C	0.300607	-0.934358	-0.051579
C56	C	0.222379	-0.935268	-0.052103
C57	C	0.223364	-0.932345	0.123066
C58	C	0.300285	-0.935019	0.122878
C59	C	0.379288	-1.005033	0.000314
C60	C	0.091813	-1.004975	0.000355
C61	C	0.956149	-1.004971	0.000361
C62	C	1.031019	-1.004959	0.000369
C63	C	0.735559	-0.306492	0.000386
C64	C	0.735550	-0.408857	0.000332
C65	C	0.735554	-1.005007	-0.301181
C66	C	0.735555	-1.005007	-0.403513
C67	C	0.796470	-1.005003	-0.451590
C68	C	0.796466	-1.004997	-0.547739
C69	C	0.674625	-1.005006	-0.547728
C70	C	0.674633	-1.005002	-0.451576
C71	C	0.857392	-1.005008	-0.403527
C72	C	0.918312	-1.005005	-0.451605
C73	C	0.918308	-1.004999	-0.547754
C74	C	0.857385	-1.004997	-0.595825
C75	C	0.735545	-1.005006	0.301854
C76	C	0.735543	-1.005005	0.404186
C77	C	0.956135	-0.703502	0.000285
C78	C	1.030999	-0.601174	0.000267
C79	C	0.735530	-0.703537	0.301777
C80	C	0.735524	-0.601221	0.404084
C81	C	0.956130	-0.703501	0.301802
C82	C	1.030993	-0.601173	0.404116
C83	C	0.514968	-1.306511	-0.301129
C84	C	0.440105	-1.408839	-0.403443
C85	C	0.514964	-1.306510	0.000389
C86	C	0.440099	-1.408838	0.000406
C87	C	0.735568	-1.306476	-0.301104
C88	C	0.735575	-1.408791	-0.403410
C89	C	1.023081	-0.553127	-0.058633
C90	C	1.093418	-0.456992	-0.058673
C91	C	1.171672	-0.408900	0.000196
C92	C	1.179589	-0.456957	0.059098
C93	C	1.109253	-0.553096	0.059130
C94	C	1.109235	-0.553112	0.393292
C95	C	1.179583	-0.456977	0.489418
C96	C	1.171689	-0.408899	0.596368
C97	C	1.093439	-0.456970	0.607190
C98	C	1.023093	-0.553109	0.511065
C99	C	0.361864	-1.456912	-0.392619
C100	C	0.291515	-1.553076	-0.488745
C101	C	0.299410	-1.601160	-0.595695
C102	C	0.377659	-1.553083	-0.606517
C103	C	0.448006	-1.456927	-0.510392
C104	C	0.448018	-1.456895	0.059297
C105	C	0.377681	-1.553057	0.059309
C106	C	0.299427	-1.601152	0.000437
C107	C	0.291510	-1.553091	-0.058461
C108	C	0.361846	-1.456938	-0.058479
C109	C	0.778598	-0.553141	0.511029
C110	C	0.778585	-0.457009	0.607153
C111	C	0.692424	-0.457042	0.489371
C112	C	0.692432	-0.553179	0.393250
C113	C	0.821690	-0.601183	0.521863
C114	C	0.864768	-0.553101	0.628813
C115	C	0.864755	-0.456970	0.724937
C116	C	0.821664	-0.408919	0.714110
H117	H	0.105354	-1.203130	-0.035794
H118	H	1.115712	-0.592204	0.107100
O119	O	0.821701	-0.704875	0.418192
H120	H	0.848657	-0.667972	0.367415
H121	H	0.613728	-0.496995	-0.166159
O122	O	0.386161	-1.604949	-0.721877
H123	H	0.420315	-1.648757	-0.731665
H124	H	0.241721	-0.830871	-0.003884
H125	H	0.657359	-0.592325	0.306169
O126	O	0.984037	-1.004961	-0.399743
H127	H	0.973809	-1.004962	-0.324806
H128	H	1.115678	-0.592243	0.306217
H129	H	0.511712	-1.417787	-0.519219
H130	H	0.613671	-0.845999	-0.166309
O131	O	0.608910	-1.005024	-0.599580
H132	H	0.619133	-1.005041	-0.674525
H133	H	0.384143	-1.592172	0.107275
O134	O	1.084870	-0.405160	-0.122195
H135	H	1.018637	-0.454741	-0.163102
O136	O	1.247532	-0.305209	0.000154
H137	H	1.284679	-0.217598	0.087808
O138	O	0.608930	-1.005018	-0.399716
H139	H	0.566558	-1.005037	-0.449300
H140	H	0.511730	-1.417743	0.107245
O141	O	0.911244	-0.604922	0.640488
H142	H	0.886350	-0.648735	0.687176
O143	O	1.263975	-0.405125	0.477734
H144	H	1.257639	-0.454694	0.387214
O145	O	0.487058	-0.944444	-0.339314
H146	H	0.497277	-1.005426	-0.325362
O147	O	0.223566	-1.704824	0.000497
H148	H	0.242227	-1.730133	0.051362
H149	H	0.227786	-1.592265	-0.106392
O150	O	0.353301	-1.405095	-0.121988
H151	H	0.287068	-1.454690	-0.162907
O152	O	0.223533	-1.704870	-0.699371
H153	H	0.223581	-1.792473	-0.750111
O154	O	0.938685	-0.604991	-0.122143
H155	H	0.904584	-0.711047	-0.187184
H156	H	0.899825	-0.417834	0.812016
H157	H	0.857400	-1.005016	-0.325239
H158	H	1.243313	-0.417786	0.107027
O159	O	0.175279	-0.992654	0.180504
H160	H	0.153074	-1.096044	0.131900
O161	O	1.247566	-0.305191	0.700043
H162	H	1.303296	-0.279844	0.674537
O163	O	1.084929	-0.405092	0.722545
H164	H	1.146995	-0.330152	0.787558
O165	O	0.821651	-0.305230	0.817783
H166	H	0.858846	-0.279861	0.893972
H167	H	0.959388	-0.592228	0.519894
H168	H	0.355420	-1.417768	-0.305544
O169	O	0.984003	-1.005009	-0.599622
H170	H	1.026359	-1.005028	-0.550051
O171	O	0.645971	-0.405192	0.477689
H172	H	0.653215	-0.330248	0.562496
O173	O	0.862153	-0.432034	0.173264
H174	H	0.859157	-0.373710	0.257221
H175	H	0.846072	-0.266796	0.151362
O176	O	0.487085	-0.744520	-0.339213
H177	H	0.444715	-0.851990	-0.397119
O178	O	0.220811	-1.220805	-0.024710
H179	H	0.164981	-1.322293	-0.078020
O180	O	0.091688	-1.220891	-0.189638
H181	H	0.082136	-1.156574	-0.198692
H182	H	0.227808	-1.592204	-0.479911
H183	H	0.220586	-1.203147	-0.161350
O184	O	0.857375	-1.004993	-0.699531
H185	H	0.909967	-1.004996	-0.724892
H186	H	0.185840	-0.985484	-0.142407
H187	H	0.302161	-0.983435	-0.141025
O188	O	0.375864	-0.795728	0.013404
H189	H	0.378231	-0.742673	0.102058
O190	O	0.299812	-1.003248	0.174250
H191	H	0.244847	-1.105574	0.122400
O192	O	0.376383	-0.797448	0.198616
H193	H	0.431629	-0.798632	0.202283
H194	H	0.243275	-0.827526	0.176053
