data_functionalizedCrystal
_audit_creation_method	'MofGen! by Chris Wilmer'
_symmetry_space_group_name_H-M	'P1'
_symmetry_Int_Tables_number	1
_symmetry_cell_setting	triclinic
loop_
_symmetry_equiv_pos_as_xyz
  x,y,z
_cell_length_a	19.121275
_cell_length_b	19.121063
_cell_length_c	12.759393
_cell_angle_alpha	92.402864
_cell_angle_beta	92.419315
_cell_angle_gamma	89.926756
loop_
_atom_site_label
_atom_site_type_symbol
_atom_site_fract_x
_atom_site_fract_y
_atom_site_fract_z
Zn1	Zn	1.059827	-0.324771	-0.547055
Zn2	Zn	1.559827	0.175229	-0.047055
Zn3	Zn	1.054729	-0.442022	-0.379162
Zn4	Zn	1.554729	0.057978	0.120838
Zn5	Zn	0.942589	-0.319807	-0.378556
Zn6	Zn	1.442589	0.180193	0.121444
Zn7	Zn	0.937557	-0.436971	-0.561955
Zn8	Zn	1.437557	0.063029	-0.061955
O9	O	0.998676	-0.380893	-0.466682
O10	O	1.498676	0.119107	0.033318
O11	O	1.157252	-0.344516	-0.518802
O12	O	1.657252	0.155484	-0.018802
O13	O	1.039825	-0.425847	-0.232065
O14	O	1.539825	0.074153	0.267935
O15	O	0.962381	-0.222363	-0.394419
O16	O	1.462381	0.277637	0.105581
O17	O	1.153507	-0.430660	-0.395451
O18	O	1.653507	0.069340	0.104549
O19	O	1.048515	-0.226009	-0.518215
O20	O	1.548515	0.273991	-0.018215
O21	O	0.957437	-0.336056	-0.231619
O22	O	1.457437	0.163944	0.268381
O23	O	0.843820	-0.331158	-0.408866
O24	O	1.343820	0.168842	0.091134
O25	O	0.953805	-0.422050	-0.706995
O26	O	1.453805	0.077950	-0.206995
O27	O	0.840123	-0.417237	-0.543608
O28	O	1.340123	0.082763	-0.043608
O29	O	1.043636	-0.339618	-0.696049
O30	O	1.543636	0.160382	-0.196049
O31	O	1.034946	-0.539455	-0.409899
O32	O	1.534946	-0.039455	0.090101
O33	O	0.948861	-0.535744	-0.544196
O34	O	1.448861	-0.035744	-0.044196
C35	C	0.816535	-0.373111	-0.477789
C36	C	1.316535	0.126889	0.022211
C37	C	0.738614	-0.369799	-0.482567
C38	C	1.238614	0.130201	0.017433
C39	C	0.700056	-0.413021	-0.420484
C40	C	1.200056	0.086979	0.079516
C41	C	0.626841	-0.409909	-0.424987
C42	C	1.126841	0.090091	0.075013
C43	C	0.592185	-0.363572	-0.491568
C44	C	1.092185	0.136428	0.008432
C45	C	0.630748	-0.320348	-0.553657
C46	C	1.130748	0.179652	-0.053657
C47	C	0.703962	-0.323464	-0.549159
C48	C	1.203962	0.176536	-0.049159
C49	C	0.371224	-0.351927	-0.508372
C50	C	0.871224	0.148073	-0.008372
C51	C	0.298005	-0.348813	-0.512863
C52	C	0.798005	0.151187	-0.012863
C53	C	0.294104	-0.438375	-0.384195
C54	C	0.794104	0.061625	0.115805
C55	C	0.367319	-0.441484	-0.379698
C56	C	0.867319	0.058516	0.120302
C57	C	0.405875	-0.398263	-0.441791
C58	C	0.905875	0.101737	0.058209
C59	C	0.517347	-0.360388	-0.496169
C60	C	1.017347	0.139612	0.003831
C61	C	0.480712	-0.401450	-0.437194
C62	C	0.980712	0.098550	0.062806
C63	C	0.990823	-0.563038	-0.478752
C64	C	1.490823	-0.063038	0.021248
C65	C	0.987528	-0.640963	-0.483946
C66	C	1.487528	-0.140963	0.016054
C67	C	1.030835	-0.679483	-0.416519
C68	C	1.530835	-0.179483	0.083481
C69	C	1.027740	-0.752702	-0.421410
C70	C	1.527740	-0.252702	0.078590
C71	C	0.981334	-0.787399	-0.493725
C72	C	1.481334	-0.287399	0.006275
C73	C	0.938025	-0.748874	-0.561159
C74	C	1.438025	-0.248874	-0.061159
C75	C	0.941124	-0.675657	-0.556272
C76	C	1.441124	-0.175657	-0.056272
C77	C	0.969736	-1.008373	-0.511981
C78	C	1.469736	-0.508373	-0.011981
C79	C	0.966639	-1.081596	-0.516860
C80	C	1.466639	-0.581596	-0.016860
C81	C	1.056354	-1.085418	-0.377112
C82	C	1.556354	-0.585418	0.122888
C83	C	1.059446	-1.012199	-0.372227
C84	C	1.559446	-0.512199	0.127773
C85	C	1.016140	-0.973680	-0.439665
C86	C	1.516140	-0.473680	0.060335
C87	C	0.978168	-0.862240	-0.498724
C88	C	1.478168	-0.362240	0.001276
C89	C	1.019311	-0.898841	-0.434671
C90	C	1.519311	-0.398841	0.065329
C91	C	1.181527	-0.388705	-0.455532
C92	C	1.681527	0.111295	0.044468
C93	C	1.259448	-0.392034	-0.450781
C94	C	1.759448	0.107966	0.049219
C95	C	0.998728	-0.380824	-0.740708
C96	C	1.498728	0.119176	-0.240708
C97	C	0.998750	-0.380795	-0.857481
C98	C	1.498750	0.119205	-0.357481
C99	C	1.006578	-0.198037	-0.454587
C100	C	1.506578	0.301963	0.045413
C101	C	1.009946	-0.120115	-0.449433
C102	C	1.509946	0.379885	0.050567
C103	C	0.955867	-0.334033	-0.912109
C104	C	1.455867	0.165967	-0.412109
C105	C	0.955884	-0.334012	-1.021831
C106	C	1.455884	0.165988	-0.521831
C107	C	1.041674	-0.427517	-1.022287
C108	C	1.541674	0.072483	-0.522287
C109	C	1.041652	-0.427540	-0.912567
C110	C	1.541652	0.072460	-0.412567
C111	C	0.998666	-0.380912	-0.193716
C112	C	1.498666	0.119088	0.306284
C113	C	0.998789	-0.380750	-0.076922
C114	C	1.498789	0.119250	0.423078
H115	H	0.595451	-0.445105	-0.374433
H116	H	1.095451	0.054895	0.125567
H117	H	0.920933	-0.295970	-0.867262
H118	H	1.420933	0.204030	-0.367262
H119	H	0.900244	-0.777131	-0.620044
H120	H	1.400244	-0.277131	-0.120044
H121	H	0.728268	-0.450751	-0.366263
H122	H	1.228268	0.049249	0.133737
H123	H	0.928858	-1.109844	-0.575765
H124	H	1.428858	-0.609844	-0.075765
H125	H	0.920963	-0.295935	-1.066305
H126	H	1.420963	0.204065	-0.566305
H127	H	0.402608	-0.316734	-0.558934
H128	H	0.902608	0.183266	-0.058934
F129	F	0.923645	-0.967388	-0.583754
F130	F	1.423645	-0.467388	-0.083754
H131	H	1.091613	-1.116788	-0.322209
H132	H	1.591613	-0.616788	0.177791
H133	H	0.602525	-0.282622	-0.607873
H134	H	1.102525	0.217378	-0.107873
F135	F	1.108846	-0.975277	-0.295271
F136	F	1.608846	-0.475277	0.204729
H137	H	0.262703	-0.473564	-0.333644
H138	H	0.762703	0.026436	0.166356
F139	F	0.261124	-0.299488	-0.583726
F140	F	0.761124	0.200512	-0.083726
H141	H	1.076604	-0.465575	-1.067151
H142	H	1.576604	0.034425	-0.567151
H143	H	1.076574	-0.465622	-0.868088
H144	H	1.576574	0.034378	-0.368088
F145	F	0.895033	-0.634661	-0.628040
F146	F	1.395033	-0.134661	-0.128040
H147	H	0.735355	-0.288268	-0.599712
H148	H	1.235355	0.211732	-0.099712
F149	F	0.517596	-0.450767	-0.366341
F150	F	1.017596	0.049233	0.133659
F151	F	0.404198	-0.490785	-0.308807
F152	F	0.904198	0.009215	0.191193
H153	H	0.489122	-0.322659	-0.550378
H154	H	0.989122	0.177341	-0.050378
F155	F	1.080222	-0.642561	-0.339545
F156	F	1.580222	-0.142561	0.160455
H157	H	1.063004	-0.784061	-0.366503
H158	H	1.563004	-0.284061	0.133497
F159	F	1.068701	-0.861912	-0.357715
F160	F	1.568701	-0.361912	0.142285
H161	H	0.940382	-0.890499	-0.557601
H162	H	1.440382	-0.390499	-0.057601
