data_functionalizedCrystal
_audit_creation_method	'MofGen! by Chris Wilmer'
_symmetry_space_group_name_H-M	'P1'
_symmetry_Int_Tables_number	1
_symmetry_cell_setting	triclinic
loop_
_symmetry_equiv_pos_as_xyz
  x,y,z
_cell_length_a	16.974800
_cell_length_b	11.792254
_cell_length_c	15.455313
_cell_angle_alpha	92.683372
_cell_angle_beta	90.973911
_cell_angle_gamma	83.793472
loop_
_atom_site_label
_atom_site_type_symbol
_atom_site_fract_x
_atom_site_fract_y
_atom_site_fract_z
O1	O	1.049697	0.144683	0.001582
O2	O	1.549697	0.644683	0.501582
O3	O	0.820339	0.162015	-0.014526
O4	O	1.320339	0.662015	0.485474
O5	O	0.940579	-0.011852	-0.006075
O6	O	1.440579	0.488148	0.493925
O7	O	0.929458	0.318550	-0.006869
O8	O	1.429458	0.818550	0.493131
O9	O	0.933703	-0.001950	0.137704
O10	O	1.433703	0.498050	0.637704
O11	O	0.813463	0.171917	0.129253
O12	O	1.313463	0.671917	0.629253
O13	O	1.042821	0.154584	0.145361
O14	O	1.542821	0.654584	0.645361
Cu15	Cu	0.927514	0.164155	0.150435
Cu16	Cu	1.427514	0.664155	0.650435
Cu17	Cu	0.935646	0.152445	-0.019600
Cu18	Cu	1.435646	0.652445	0.480400
O19	O	0.922582	0.328451	0.136910
O20	O	1.422582	0.828451	0.636910
C21	C	0.787538	0.166126	0.055301
C22	C	1.287538	0.666126	0.555301
C23	C	0.700046	0.163607	0.049157
C24	C	1.200046	0.663607	0.549157
C25	C	0.655198	0.167818	0.124646
C26	C	1.155198	0.667818	0.624646
C27	C	0.572991	0.165434	0.118875
C28	C	1.072991	0.665434	0.618875
C29	C	0.535633	0.158846	0.037614
C30	C	1.035633	0.658846	0.537614
C31	C	0.580487	0.154631	-0.037881
C32	C	1.080487	0.654631	0.462119
C33	C	0.662693	0.157008	-0.032109
C34	C	1.162693	0.657008	0.467891
C35	C	0.290175	0.151153	0.011948
C36	C	0.790175	0.651153	0.511948
C37	C	0.207963	0.148781	0.006181
C38	C	0.707963	0.648781	0.506181
C39	C	0.200473	0.159581	0.162938
C40	C	0.700473	0.659581	0.662938
C41	C	0.282681	0.161964	0.168703
C42	C	0.782681	0.661964	0.668703
C43	C	0.327528	0.157743	0.093208
C44	C	0.827528	0.657743	0.593208
N45	N	0.451604	0.156413	0.031713
N46	N	0.951604	0.656413	0.531713
N47	N	0.411556	0.160168	0.099110
N48	N	0.911556	0.660168	0.599110
C49	C	0.936440	-0.049188	0.065765
C50	C	1.436440	0.450812	0.565765
C51	C	0.934343	-0.175189	0.065617
C52	C	1.434343	0.324811	0.565617
C53	C	0.932640	-0.277516	0.065494
C54	C	1.432640	0.222484	0.565494
C55	C	0.930510	-0.405891	0.065336
C56	C	1.430510	0.094109	0.565336
C57	C	1.075622	0.150474	0.075532
C58	C	1.575622	0.650474	0.575532
C59	C	1.163115	0.152992	0.081671
C60	C	1.663115	0.652992	0.581671
C61	C	0.926720	0.365787	0.065068
C62	C	1.426720	0.865787	0.565068
C63	C	0.928818	0.491788	0.065211
C64	C	1.428818	0.991788	0.565211
N65	N	0.921801	0.172390	0.270029
N66	N	1.421801	0.672390	0.770029
N67	N	0.941366	0.144201	-0.139194
N68	N	1.441366	0.644201	0.360806
C69	C	0.972901	0.098552	0.319015
C70	C	1.472901	0.598552	0.819015
C71	C	0.968587	0.104791	0.409519
C72	C	1.468587	0.604791	0.909519
C73	C	0.913177	0.184873	0.451037
C74	C	1.413177	0.684873	0.951037
C75	C	0.862071	0.258714	0.402045
C76	C	1.362071	0.758714	0.902045
C77	C	0.866382	0.252469	0.311541
C78	C	1.366382	0.752469	0.811541
C79	C	0.894571	0.211797	0.721311
C80	C	1.394571	0.711797	1.221311
C81	C	0.890266	0.218038	0.811821
C82	C	1.390266	0.718038	1.311821
C83	C	0.996781	0.064113	0.819289
C84	C	1.496781	0.564113	1.319289
C85	C	1.001090	0.057880	0.728784
C86	C	1.501090	0.557880	1.228784
C87	C	0.949982	0.131717	0.679799
C88	C	1.449982	0.631717	1.179799
N89	N	0.908768	0.191254	0.543547
N90	N	1.408768	0.691254	1.043547
N91	N	0.954388	0.125330	0.587290
N92	N	1.454388	0.625330	1.087290
H93	H	0.550063	0.149259	-0.104045
H94	H	1.050063	0.649259	0.395955
H95	H	0.313093	0.167323	0.234874
H96	H	0.813093	0.667323	0.734874
H97	H	1.018025	0.033346	0.285217
H98	H	1.518025	0.533346	0.785217
Br99	Br	0.139606	0.165307	0.265389
Br100	Br	0.639606	0.665307	0.765389
Br101	Br	0.351029	0.145423	-0.090510
Br102	Br	0.851029	0.645423	0.409490
H103	H	0.177548	0.143419	-0.059994
H104	H	0.677548	0.643419	0.440006
H105	H	0.699207	0.153580	-0.093580
H106	H	1.199207	0.653580	0.406420
Br107	Br	0.797023	0.352675	0.245060
Br108	Br	1.297023	0.852675	0.745060
H109	H	1.010196	0.044666	0.449403
H110	H	1.510196	0.544666	0.949403
Br111	Br	1.076293	-0.050799	0.672437
Br112	Br	1.576293	0.449201	1.172437
H113	H	1.038390	0.003997	0.859180
H114	H	1.538390	0.503997	1.359180
Br115	Br	0.815063	0.326736	0.868161
Br116	Br	1.315063	0.826736	1.368161
H117	H	0.536481	0.168845	0.180346
H118	H	1.036481	0.668845	0.680346
Br119	Br	0.786864	0.367391	0.458386
Br120	Br	1.286864	0.867391	0.958386
H121	H	0.852958	0.271920	0.681435
H122	H	1.352958	0.771920	1.181435
H123	H	0.685608	0.173192	0.190817
H124	H	1.185608	0.673192	0.690817
