data_functionalizedCrystal
_audit_creation_method	'MofGen! by Chris Wilmer'
_symmetry_space_group_name_H-M	'P1'
_symmetry_Int_Tables_number	1
_symmetry_cell_setting	triclinic
loop_
_symmetry_equiv_pos_as_xyz
  x,y,z
_cell_length_a	17.077404
_cell_length_b	19.076808
_cell_length_c	17.077395
_cell_angle_alpha	87.671739
_cell_angle_beta	89.984359
_cell_angle_gamma	92.323651
loop_
_atom_site_label
_atom_site_type_symbol
_atom_site_fract_x
_atom_site_fract_y
_atom_site_fract_z
Zn1	Zn	1.187456	-0.280221	-0.431271
Zn2	Zn	1.182092	-0.397929	-0.294724
Zn3	Zn	1.056195	-0.280243	-0.300018
Zn4	Zn	1.050878	-0.397890	-0.425950
O5	O	1.119155	-0.339071	-0.362991
O6	O	1.296591	-0.295843	-0.413169
O7	O	1.165372	-0.382343	-0.185578
O8	O	1.078078	-0.181744	-0.321871
O9	O	1.292650	-0.382322	-0.312849
O10	O	1.174514	-0.181728	-0.418303
O11	O	1.072877	-0.295880	-0.189468
O12	O	0.945643	-0.295842	-0.316712
O13	O	1.069014	-0.382255	-0.536504
O14	O	0.941737	-0.382277	-0.409233
O15	O	1.169358	-0.295805	-0.540413
O16	O	1.160216	-0.496420	-0.307689
O17	O	1.063813	-0.496391	-0.404100
C18	C	0.915208	-0.339058	-0.362970
C19	C	0.827958	-0.339070	-0.362978
C20	C	1.110877	-0.521945	-0.354760
C21	C	1.107407	-0.600179	-0.351265
C22	C	0.784951	-0.384144	-0.411071
C23	C	0.702970	-0.384145	-0.411083
C24	C	0.663998	-0.339076	-0.362999
C25	C	0.707011	-0.293996	-0.314904
C26	C	0.788990	-0.293992	-0.314897
C27	C	0.536140	-0.294010	-0.314923
C28	C	0.454155	-0.294016	-0.314929
C29	C	0.450120	-0.384164	-0.411109
C30	C	0.532100	-0.384159	-0.411102
C31	C	0.575107	-0.339081	-0.363006
C32	C	1.155949	-0.636865	-0.399870
C33	C	1.152686	-0.710374	-0.396587
C34	C	1.100884	-0.747197	-0.344695
C35	C	1.052337	-0.710506	-0.296088
C36	C	1.055597	-0.636998	-0.299375
C37	C	1.085751	-0.967050	-0.329480
C38	C	1.082496	-1.040563	-0.326195
C39	C	1.182844	-1.040426	-0.426695
C40	C	1.186103	-0.966917	-0.429974
C41	C	1.137553	-0.930232	-0.381370
N42	N	1.097549	-0.822335	-0.341337
N43	N	1.140885	-0.855095	-0.384733
C44	C	1.323899	-0.339084	-0.363012
C45	C	1.411148	-0.339090	-0.363022
C46	C	1.119191	-0.339023	-0.567737
C47	C	1.119206	-0.339003	-0.654988
C48	C	1.127487	-0.155483	-0.371271
C49	C	1.131038	-0.077248	-0.374800
C50	C	1.171547	-0.293892	-1.032844
C51	C	1.171529	-0.293917	-0.950862
C52	C	1.119274	-0.338936	-0.907840
C53	C	1.067038	-0.383938	-0.946803
C54	C	1.067059	-0.383917	-1.028783
C55	C	1.066995	-0.383979	-0.775931
C56	C	1.066973	-0.384000	-0.693946
C57	C	1.171465	-0.293979	-0.698010
C58	C	1.171487	-0.293958	-0.779990
C59	C	1.119249	-0.338959	-0.818948
C60	C	1.119167	-0.339068	-0.159043
C61	C	1.119313	-0.338890	-0.071802
H62	H	0.816676	-0.420847	-0.450224
H63	H	1.024404	-0.420642	-0.658920
F64	F	0.404349	-0.432132	-0.462306
H65	H	0.422427	-0.257307	-0.275784
F66	F	1.227112	-0.246052	-0.825776
H67	H	0.571155	-0.257296	-0.275765
F68	F	1.227158	-0.245969	-1.078625
H69	H	1.192219	-0.740240	-0.436161
F70	F	1.027362	-1.079751	-0.270959
H71	H	0.675273	-0.257297	-0.275757
F72	F	1.227124	-0.246025	-0.909404
F73	F	1.034074	-0.928017	-0.277756
F74	F	0.573575	-0.432132	-0.462273
H75	H	1.228284	-0.936937	-0.472229
F76	F	1.234508	-1.079473	-0.478422
H77	H	0.824006	-0.257284	-0.275739
H78	H	1.198135	-0.606889	-0.442123
F79	F	1.011466	-0.431810	-1.070244
F80	F	0.997199	-0.749697	-0.240867
H81	H	1.016068	-0.607129	-0.259797
H82	H	1.213997	-0.257336	-0.666287
H83	H	0.667957	-0.420850	-0.450244
F84	F	1.011399	-0.431876	-0.817391
F85	F	1.011425	-0.431853	-0.901014
