data_functionalizedCrystal
_audit_creation_method	'MofGen! by Chris Wilmer'
_symmetry_space_group_name_H-M	'P1'
_symmetry_Int_Tables_number	1
_symmetry_cell_setting	triclinic
loop_
_symmetry_equiv_pos_as_xyz
  x,y,z
_cell_length_a	27.780882
_cell_length_b	27.780884
_cell_length_c	27.780883
_cell_angle_alpha	120.002587
_cell_angle_beta	89.998565
_cell_angle_gamma	119.999789
loop_
_atom_site_label
_atom_site_type_symbol
_atom_site_fract_x
_atom_site_fract_y
_atom_site_fract_z
O1	O	0.410270	-0.344535	-0.014321
O2	O	0.340273	-0.245964	0.014251
O3	O	0.340270	-0.344533	-0.084319
O4	O	0.410274	-0.245965	0.084249
O5	O	0.260210	-0.424592	-0.084319
O6	O	0.260214	-0.326023	0.014251
O7	O	0.330211	-0.424594	-0.014321
Zn8	Zn	0.282501	-0.388019	-0.000035
Zn9	Zn	0.387983	-0.282538	-0.000035
O10	O	0.330214	-0.326024	0.084249
C11	C	0.207596	-0.090567	0.029862
C12	C	0.237299	-0.031162	0.025773
C13	C	0.149665	-0.119396	0.030268
C14	C	0.207598	-0.177730	0.029868
C15	C	0.237303	-0.211520	0.025784
C16	C	0.149666	-0.206427	0.030273
C17	C	0.120430	-0.177734	0.029862
C18	C	0.056934	-0.211526	0.025772
C19	C	0.236700	-0.119393	0.030273
C20	C	0.005636	-0.238828	0.022467
C21	C	0.261296	0.016831	0.022467
C22	C	0.261301	-0.238819	0.022483
C23	C	-0.058720	-0.273079	0.018321
C24	C	0.291401	0.077041	0.018322
C25	C	0.291408	-0.273066	0.018343
O26	O	-0.249047	-0.424606	-0.014340
O27	O	-0.080481	-0.326036	0.014230
O28	O	-0.179043	-0.424609	-0.084339
O29	O	-0.150485	-0.326032	0.084229
O30	O	-0.179045	-0.344552	-0.084344
O31	O	-0.080483	-0.245979	0.014225
O32	O	-0.249049	-0.344549	-0.014345
Zn33	Zn	-0.164766	-0.282554	-0.000061
Zn34	Zn	-0.164763	-0.388031	-0.000054
O35	O	-0.150487	-0.245976	0.084224
C36	C	0.120430	-0.580001	-0.372400
C37	C	0.056935	-0.639408	-0.402104
C38	C	0.149665	-0.551173	-0.401502
C39	C	0.207597	-0.492834	-0.285232
C40	C	0.237301	-0.459042	-0.221736
C41	C	0.236700	-0.464138	-0.314467
C42	C	0.207596	-0.492834	-0.372399
C43	C	0.237300	-0.459043	-0.402102
C44	C	0.149666	-0.551173	-0.314468
C45	C	0.261297	-0.431742	-0.426099
C46	C	0.005636	-0.687403	-0.426101
C47	C	0.261299	-0.431741	-0.170438
C48	C	0.291403	-0.397493	-0.456204
C49	C	-0.058719	-0.747614	-0.456208
C50	C	0.291405	-0.397491	-0.106082
C51	C	0.550044	-0.492843	-0.029965
C52	C	0.613538	-0.459053	-0.025879
C53	C	0.520808	-0.551182	-0.030373
C54	C	0.462879	-0.492840	-0.029960
C55	C	0.433176	-0.459047	-0.025869
C56	C	0.433776	-0.551179	-0.030369
C57	C	0.462878	-0.580009	-0.029964
C58	C	0.433174	-0.639417	-0.025878
C59	C	0.520809	-0.464146	-0.030369
C60	C	0.409177	-0.687412	-0.022575
C61	C	0.664836	-0.431753	-0.022576
C62	C	0.409180	-0.431744	-0.022562
C63	C	0.379071	-0.747624	-0.018433
C64	C	0.729190	-0.397505	-0.018434
C65	C	0.379075	-0.397493	-0.018415
O66	O	0.330206	0.234705	-0.014343
O67	O	0.260205	0.094709	0.014226
O68	O	0.260208	0.094700	-0.084343
O69	O	0.330203	0.234714	0.084226
O70	O	0.340269	0.094702	-0.084338
O71	O	0.340266	0.094711	0.014231
O72	O	0.410267	0.234707	-0.014338
Zn73	Zn	0.387978	0.164710	-0.000053
Zn74	Zn	0.282494	0.164706	-0.000059
O75	O	0.410264	0.234716	0.084231
O76	O	0.410272	-0.245967	-0.495003
O77	O	0.340268	-0.344535	-0.425007
O78	O	0.340271	-0.245966	-0.425000
O79	O	0.410269	-0.344537	-0.495010
O80	O	0.260212	-0.326025	-0.505062
O81	O	0.260208	-0.424594	-0.505069
O82	O	0.330213	-0.326026	-0.575065
Zn83	Zn	0.282499	-0.388021	-0.552779
Zn84	Zn	0.387981	-0.282540	-0.447294
O85	O	0.330209	-0.424596	-0.575072
C86	C	-0.194663	-0.492868	-0.372425
C87	C	-0.190575	-0.459080	-0.402131
C88	C	-0.195068	-0.551207	-0.401527
C89	C	-0.194665	-0.492862	-0.285256
C90	C	-0.190579	-0.459067	-0.221760
C91	C	-0.195070	-0.551200	-0.314490
C92	C	-0.194661	-0.580031	-0.372421
C93	C	-0.190571	-0.639439	-0.402123
C94	C	-0.195072	-0.464169	-0.314493
C95	C	-0.187266	-0.687433	-0.426119
C96	C	-0.187272	-0.431782	-0.426130
C97	C	-0.187277	-0.431763	-0.170461
C98	C	-0.183120	-0.747644	-0.456223
C99	C	-0.183128	-0.397535	-0.456239
C100	C	-0.183136	-0.397509	-0.106104
C101	C	0.462885	-0.177725	0.372328
C102	C	0.433181	-0.211517	0.402031
C103	C	0.520817	-0.119387	0.401432
C104	C	0.462886	-0.177725	0.285162
C105	C	0.433182	-0.211516	0.221666
C106	C	0.520817	-0.119386	0.314399
C107	C	0.550052	-0.090558	0.372330
C108	C	0.613548	-0.031151	0.402035
C109	C	0.433782	-0.206421	0.314397
C110	C	0.664846	0.016843	0.426033
C111	C	0.409184	-0.238819	0.426027
C112	C	0.409185	-0.238817	0.170368
C113	C	0.729201	0.077055	0.456139
C114	C	0.379077	-0.273069	0.456132
C115	C	0.379079	-0.273067	0.106012
O116	O	-0.249048	-0.905286	-0.575071
O117	O	-0.080483	-0.765285	-0.505073
O118	O	-0.179045	-0.765281	-0.505067
O119	O	-0.150486	-0.905290	-0.575077
O120	O	-0.179043	-0.765279	-0.425006
O121	O	-0.080480	-0.765282	-0.425012
O122	O	-0.249046	-0.905284	-0.495010
Zn123	Zn	-0.164763	-0.835283	-0.447300
Zn124	Zn	-0.164766	-0.835286	-0.552783
O125	O	-0.150483	-0.905287	-0.495016
C126	C	-0.134869	-0.090555	0.372307
C127	C	-0.138958	-0.031148	0.402009
C128	C	-0.134461	-0.119381	0.401412
C129	C	-0.134865	-0.177725	0.285141
C130	C	-0.138950	-0.211519	0.221645
C131	C	-0.134457	-0.206418	0.314378
C132	C	-0.134867	-0.177719	0.372310
C133	C	-0.138954	-0.211508	0.402016
C134	C	-0.134459	-0.119386	0.314375
C135	C	-0.142258	-0.238807	0.426014
C136	C	-0.142264	0.016846	0.426005
C137	C	-0.142252	-0.238823	0.170346
C138	C	-0.146402	-0.273053	0.456122
C139	C	-0.146410	0.077058	0.456110
C140	C	-0.146394	-0.273076	0.105990
C141	C	0.207596	-0.177789	-0.372411
C142	C	0.237301	-0.211583	-0.402110
C143	C	0.149664	-0.206491	-0.401516
C144	C	0.207596	-0.090612	-0.285249
C145	C	0.237300	-0.031195	-0.221755
C146	C	0.149664	-0.119446	-0.314486
C147	C	0.120428	-0.177792	-0.372416
C148	C	0.056933	-0.211589	-0.402121
C149	C	0.236700	-0.119443	-0.314481
C150	C	0.005634	-0.238895	-0.426120
C151	C	0.261299	-0.238885	-0.426104
C152	C	0.261297	0.016807	-0.170457
C153	C	-0.058722	-0.273150	-0.456227
C154	C	0.291406	-0.273137	-0.456205
C155	C	0.291404	0.077028	-0.106103
O156	O	-0.150449	-0.326070	-0.575101
O157	O	-0.179031	-0.424638	-0.505103
O158	O	-0.080459	-0.326069	-0.505090
O159	O	-0.249021	-0.424639	-0.575113
O160	O	-0.080468	-0.246010	-0.425033
O161	O	-0.179040	-0.344579	-0.425045
O162	O	-0.150458	-0.246011	-0.495043
Zn163	Zn	-0.164750	-0.282583	-0.447334
Zn164	Zn	-0.164739	-0.388066	-0.552812
O165	O	-0.249030	-0.344580	-0.495056
C166	C	0.550044	0.507208	0.372304
C167	C	0.613540	0.541004	0.402009
C168	C	0.520808	0.535907	0.401404
C169	C	0.462877	0.420028	0.285137
C170	C	0.433173	0.360611	0.221643
C171	C	0.433773	0.448859	0.314369
C172	C	0.462876	0.507205	0.372298
C173	C	0.433172	0.540999	0.401998
C174	C	0.520808	0.448861	0.314374
C175	C	0.409174	0.568302	0.425992
C176	C	0.664838	0.568310	0.426008
C177	C	0.409175	0.312609	0.170345
C178	C	0.379068	0.602554	0.456093
C179	C	0.729194	0.602564	0.456116
C180	C	0.379069	0.252388	0.105991
H181	H	0.284300	-0.095261	0.030933
O182	O	0.377001	-0.580033	-0.031123
C183	C	0.293108	-0.670477	-0.032321
C184	C	0.357406	-0.637861	-0.031454
H185	H	0.277243	-0.717245	-0.032601
H186	H	0.290384	-0.632117	0.008507
H187	H	0.264082	-0.686239	-0.073558
H188	H	0.386472	-0.622100	0.009756
H189	H	0.360083	-0.676242	-0.072309
H190	H	-0.133806	-0.095248	0.449012
H191	H	-0.195714	-0.575328	-0.449124
O192	O	0.121719	-0.090569	-0.286505
C193	C	0.121557	0.009457	-0.238425
C194	C	0.153257	-0.023164	-0.270110
H195	H	0.147049	0.063964	-0.225149
H196	H	0.075052	-0.021144	-0.269286
H197	H	0.119120	0.009712	-0.197342
H198	H	0.155738	-0.023424	-0.311191
H199	H	0.199743	0.007447	-0.239209
O200	O	0.121757	-0.262413	0.031079
C201	C	0.128262	-0.345177	0.032188
C202	C	0.159943	-0.281766	0.031291
H203	H	0.159117	-0.360852	0.032347
H204	H	0.115042	-0.332991	0.073450
H205	H	0.087149	-0.388664	-0.008616
H206	H	0.201076	-0.238252	0.072066
H207	H	0.173119	-0.294008	-0.009998
H208	H	0.544288	0.424744	0.290903
H209	H	0.126191	-0.575304	-0.449102
O210	O	0.121747	-0.262445	-0.458325
C211	C	0.121546	-0.310689	-0.558526
C212	C	0.153229	-0.247281	-0.494214
H213	H	0.146978	-0.298447	-0.587563
H214	H	0.119144	-0.354214	-0.561263
H215	H	0.075027	-0.326338	-0.574369
H216	H	0.199761	-0.231571	-0.478330
H217	H	0.155583	-0.203796	-0.491515
O218	O	0.121762	-0.090501	0.031093
C219	C	0.128349	0.000037	0.032444
C220	C	0.159997	-0.032655	0.031448
H221	H	0.159252	0.046819	0.032743
H222	H	0.087235	-0.038274	-0.008345
H223	H	0.115140	0.015792	0.073718
H224	H	0.173245	-0.048410	-0.009799
H225	H	0.201085	0.005676	0.072264
H226	H	-0.195734	-0.575328	-0.291017
H227	H	0.544285	-0.417199	-0.031019
O228	O	0.548910	0.591951	0.458170
C229	C	0.638174	0.674716	0.542051
C230	C	0.606420	0.611248	0.477768
H231	H	0.684672	0.690328	0.557919
H232	H	0.640617	0.718238	0.544739
H233	H	0.612718	0.662537	0.571101
H234	H	0.631850	0.623360	0.448679
H235	H	0.603970	0.567745	0.475126
H236	H	-0.195728	-0.417224	-0.291025
H237	H	0.126185	-0.575290	-0.290993
O238	O	0.548887	-0.090601	0.458196
C239	C	0.631395	-0.057720	0.525802
C240	C	0.599686	-0.090313	0.461498
H241	H	0.672465	-0.057490	0.528492
H242	H	0.644670	-0.003214	0.554870
H243	H	0.600495	-0.088373	0.541646
H244	H	0.630554	-0.059714	0.445601
H245	H	0.586401	-0.144825	0.432470
O246	O	0.548726	-0.090669	0.286324
C247	C	0.542220	-0.096062	0.197056
C248	C	0.510540	-0.128644	0.228782
H249	H	0.511365	-0.126759	0.150524
H250	H	0.555437	-0.041581	0.222463
H251	H	0.583335	-0.095749	0.194683
H252	H	0.469405	-0.129007	0.231163
H253	H	0.497368	-0.183108	0.203364
H254	H	0.544282	-0.575308	-0.031030
O255	O	0.376990	-0.262405	0.286487
C256	C	0.293115	-0.345168	0.292991
C257	C	0.357424	-0.281760	0.324672
H258	H	0.277281	-0.360844	0.323846
H259	H	0.264041	-0.332978	0.279778
H260	H	0.290428	-0.388655	0.251874
H261	H	0.360167	-0.238245	0.365810
H262	H	0.386469	-0.294006	0.337842
O263	O	0.293449	-0.408061	-0.286465
C264	C	0.361011	-0.290867	-0.251872
C265	C	0.296722	-0.354319	-0.283573
H266	H	0.363680	-0.247405	-0.249535
H267	H	0.376914	-0.275136	-0.205332
H268	H	0.390041	-0.303107	-0.277320
H269	H	0.267646	-0.342132	-0.258174
H270	H	0.280866	-0.370034	-0.330116
H271	H	-0.133800	-0.253361	0.290905
O272	O	-0.133646	-0.090501	0.286467
C273	C	-0.132523	-0.000115	0.292974
C274	C	-0.133435	-0.032748	0.324653
H275	H	-0.132365	0.046576	0.323829
H276	H	-0.091257	0.015744	0.279763
H277	H	-0.173320	-0.038543	0.251855
H278	H	-0.092666	0.005644	0.365792
H279	H	-0.174728	-0.048621	0.337820
H280	H	0.284298	-0.095315	-0.291009
H281	H	0.386175	0.424726	0.290892
