data_functionalizedCrystal
_audit_creation_method	'MofGen! by Chris Wilmer'
_symmetry_space_group_name_H-M	'P1'
_symmetry_Int_Tables_number	1
_symmetry_cell_setting	triclinic
loop_
_symmetry_equiv_pos_as_xyz
  x,y,z
_cell_length_a	17.038272
_cell_length_b	17.038272
_cell_length_c	18.366186
_cell_angle_alpha	89.993834
_cell_angle_beta	89.996724
_cell_angle_gamma	91.111556
loop_
_atom_site_label
_atom_site_type_symbol
_atom_site_fract_x
_atom_site_fract_y
_atom_site_fract_z
O1	O	1.048760	0.170538	-0.060459
O2	O	1.548760	0.670538	0.439541
O3	O	0.820948	0.167830	-0.060481
O4	O	1.320948	0.667830	0.439519
O5	O	0.933500	0.055279	-0.060464
O6	O	1.433500	0.555279	0.439536
O7	O	0.936208	0.283090	-0.060476
O8	O	1.436208	0.783090	0.439524
O9	O	0.933479	0.055271	0.060635
O10	O	1.433479	0.555271	0.560635
O11	O	0.820927	0.167823	0.060619
O12	O	1.320927	0.667823	0.560619
O13	O	1.048739	0.170531	0.060640
O14	O	1.548739	0.670531	0.560640
Zn15	Zn	0.934830	0.169176	0.079857
Zn16	Zn	1.434830	0.669176	0.579857
Zn17	Zn	0.934857	0.169185	-0.079697
Zn18	Zn	1.434857	0.669185	0.420303
O19	O	0.936187	0.283083	0.060624
O20	O	1.436187	0.783083	0.560624
C21	C	0.791645	0.165364	0.000066
C22	C	1.291645	0.665364	0.500066
C23	C	0.704361	0.158016	0.000058
C24	C	1.204361	0.658016	0.500058
C25	C	0.658752	0.225479	0.000056
C26	C	1.158752	0.725479	0.500056
C27	C	0.576740	0.218570	0.000066
C28	C	1.076740	0.718570	0.500066
C29	C	0.540339	0.144197	0.000074
C30	C	1.040339	0.644197	0.500074
C31	C	0.585954	0.076728	0.000079
C32	C	1.085954	0.576728	0.500079
C33	C	0.667965	0.083638	0.000074
C34	C	1.167965	0.583638	0.500074
C35	C	0.292951	0.119787	0.000095
C36	C	0.792951	0.619787	0.500095
C37	C	0.210935	0.112882	0.000098
C38	C	0.710935	0.612882	0.500098
C39	C	0.201726	0.254725	0.000086
C40	C	0.701726	0.754725	0.500086
C41	C	0.283739	0.261628	0.000077
C42	C	0.783739	0.761628	0.500077
C43	C	0.329347	0.194159	0.000085
C44	C	0.829347	0.694159	0.500085
C45	C	0.456510	0.137133	0.000082
C46	C	0.956510	0.637133	0.500082
C47	C	0.413174	0.201224	0.000082
C48	C	0.913174	0.701224	0.500082
C49	C	0.931027	0.025982	0.000085
C50	C	1.431027	0.525982	0.500085
C51	C	0.923679	-0.061301	0.000084
C52	C	1.423679	0.438699	0.500084
C53	C	0.991142	-0.106911	0.000091
C54	C	1.491142	0.393089	0.500091
C55	C	0.984233	-0.188923	0.000084
C56	C	1.484233	0.311077	0.500084
C57	C	0.909860	-0.225324	0.000074
C58	C	1.409860	0.274676	0.500074
C59	C	0.842391	-0.179708	0.000065
C60	C	1.342391	0.320292	0.500065
C61	C	0.849301	-0.097698	0.000067
C62	C	1.349301	0.402302	0.500067
C63	C	0.885449	-0.472712	0.000062
C64	C	1.385449	0.027288	0.500062
C65	C	0.878545	-0.554728	0.000062
C66	C	1.378545	-0.054728	0.500062
C67	C	1.020387	-0.563937	0.000079
C68	C	1.520387	-0.063937	0.500079
C69	C	1.027291	-0.481924	0.000086
C70	C	1.527291	0.018076	0.500086
C71	C	0.959822	-0.436316	0.000073
C72	C	1.459822	0.063684	0.500073
C73	C	0.902796	-0.309153	0.000069
C74	C	1.402796	0.190847	0.500069
C75	C	0.966886	-0.352488	0.000073
C76	C	1.466886	0.147512	0.500073
C77	C	1.078042	0.172997	0.000092
C78	C	1.578042	0.672997	0.500092
C79	C	1.165326	0.180346	0.000095
C80	C	1.665326	0.680346	0.500095
C81	C	0.938660	0.312379	0.000073
C82	C	1.438660	0.812379	0.500073
C83	C	0.946008	0.399663	0.000069
C84	C	1.446008	0.899663	0.500069
N85	N	0.934817	0.169169	0.188748
N86	N	1.434817	0.669169	0.688748
N87	N	0.934876	0.169186	-0.188588
N88	N	1.434876	0.669186	0.311412
C89	C	0.984674	0.119359	0.226855
C90	C	1.484674	0.619359	0.726855
C91	C	0.984679	0.119355	0.303083
C92	C	1.484679	0.619355	0.803083
C93	C	0.934834	0.169177	0.341200
C94	C	1.434834	0.669177	0.841200
C95	C	0.884967	0.218991	0.303084
C96	C	1.384967	0.718991	0.803084
C97	C	0.884959	0.218987	0.226857
C98	C	1.384959	0.718987	0.726857
C99	C	0.929303	0.240015	0.461957
C100	C	1.429303	0.740015	0.961957
C101	C	0.929317	0.240021	0.538182
C102	C	1.429317	0.740021	1.038182
C103	C	0.934857	0.169188	0.576308
C104	C	1.434857	0.669188	1.076308
C105	C	0.940400	0.098348	0.538200
C106	C	1.440400	0.598348	1.038200
C107	C	0.940391	0.098345	0.461974
C108	C	1.440391	0.598345	0.961974
C109	C	0.934838	0.169186	0.423855
C110	C	1.434838	0.669186	0.923855
C111	C	0.984722	0.119370	0.697071
C112	C	1.484722	0.619370	1.197071
C113	C	0.984722	0.119365	0.773300
C114	C	1.484722	0.619365	1.273300
C115	C	0.885015	0.219008	0.773299
C116	C	1.385015	0.719008	1.273299
C117	C	0.885011	0.219005	0.697071
C118	C	1.385011	0.719005	1.197071
C119	C	0.934869	0.169188	0.658961
C120	C	1.434869	0.669188	1.158961
H121	H	0.164583	0.309653	0.000080
H122	H	0.664583	0.809653	0.500080
F123	F	1.046037	-0.313746	0.000079
F124	F	1.546037	0.186254	0.500079
F125	F	0.341480	0.047979	0.000104
F126	F	0.841480	0.547979	0.500104
F127	F	0.799383	-0.593467	0.000055
F128	F	1.299383	-0.093467	0.500055
F129	F	1.056038	-0.237460	0.000093
F130	F	1.556038	0.262540	0.500093
F131	F	0.813642	-0.424182	0.000046
F132	F	1.313642	0.075818	0.500046
H133	H	1.087853	-0.452293	0.000094
H134	H	1.587853	0.047707	0.500094
F135	F	0.322473	0.340786	0.000064
F136	F	0.822473	0.840786	0.500064
F137	F	1.037784	0.066343	0.813858
F138	F	1.537784	0.566343	1.313858
F139	F	0.451917	0.280375	0.000077
F140	F	0.951917	0.780375	0.500077
H141	H	1.075316	-0.601079	0.000089
H142	H	1.575316	-0.101079	0.500089
H143	H	0.556310	0.016172	0.000096
H144	H	1.056310	0.516172	0.500096
F145	F	1.037733	0.066336	0.186298
F146	F	1.537733	0.566336	0.686298
F147	F	0.831892	0.272004	0.186299
F148	F	1.331892	0.772004	0.686299
F149	F	0.763237	-0.218451	0.000047
F150	F	1.263237	0.281549	0.500047
H151	H	0.794365	-0.060564	0.000061
H152	H	1.294365	0.439436	0.500061
F153	F	1.037746	0.066337	0.343647
F154	F	1.537746	0.566337	0.843647
H155	H	0.842241	-0.338800	0.000063
H156	H	1.342241	0.161200	0.500063
F157	F	0.946283	0.022954	0.421419
F158	F	1.446283	0.522954	0.921419
F159	F	0.946301	0.022958	0.578771
F160	F	1.446301	0.522958	1.078771
H161	H	0.426863	0.076578	0.000109
H162	H	0.926863	0.576578	0.500109
F163	F	1.037782	0.066346	0.656511
F164	F	1.537782	0.566346	1.156511
H165	H	0.705099	0.028702	0.000076
H166	H	1.205099	0.528702	0.500076
F167	F	0.831962	0.272026	0.813862
F168	F	1.331962	0.772026	1.313862
F169	F	0.831950	0.272024	0.656511
F170	F	1.331950	0.772024	1.156511
H171	H	1.051705	-0.077279	0.000103
H172	H	1.551705	0.422721	0.500103
H173	H	0.924809	0.297703	0.569203
H174	H	1.424809	0.797703	1.069203
H175	H	0.924778	0.297699	0.430920
H176	H	1.424778	0.797699	0.930920
F177	F	0.831917	0.272012	0.343651
F178	F	1.331917	0.772012	0.843651
H179	H	0.539608	0.273507	0.000063
H180	H	1.039608	0.773507	0.500063
F181	F	0.697485	0.304638	0.000042
F182	F	1.197485	0.804638	0.500042
H183	H	0.181300	0.052315	0.000103
H184	H	0.681300	0.552315	0.500103
