data_functionalizedCrystal
_audit_creation_method	'MofGen! by Chris Wilmer'
_symmetry_space_group_name_H-M	'P1'
_symmetry_Int_Tables_number	1
_symmetry_cell_setting	triclinic
loop_
_symmetry_equiv_pos_as_xyz
  x,y,z
_cell_length_a	12.759401
_cell_length_b	16.959453
_cell_length_c	12.759393
_cell_angle_alpha	90.035042
_cell_angle_beta	90.018496
_cell_angle_gamma	90.020149
loop_
_atom_site_label
_atom_site_type_symbol
_atom_site_fract_x
_atom_site_fract_y
_atom_site_fract_z
Zn1	Zn	1.606217	-0.314632	0.593956
Zn2	Zn	2.106217	0.185368	1.093956
Zn3	Zn	1.606095	-0.446833	0.418265
Zn4	Zn	2.106095	0.053167	0.918265
Zn5	Zn	1.430519	-0.314673	0.418295
Zn6	Zn	1.930519	0.185327	0.918295
Zn7	Zn	1.430491	-0.446772	0.593907
Zn8	Zn	1.930491	0.053228	1.093907
O9	O	1.518330	-0.380727	0.506106
O10	O	2.018330	0.119273	1.006106
O11	O	1.753222	-0.332177	0.570658
O12	O	2.253222	0.167823	1.070658
O13	O	1.582765	-0.429345	0.271248
O14	O	2.082765	0.070655	0.771248
O15	O	1.453888	-0.204057	0.441630
O16	O	1.953888	0.295943	0.941630
O17	O	1.753132	-0.429304	0.441579
O18	O	2.253132	0.070696	0.941579
O19	O	1.582973	-0.204026	0.570687
O20	O	2.082973	0.295974	1.070687
O21	O	1.453770	-0.332247	0.271270
O22	O	1.953770	0.167753	0.771270
O23	O	1.283494	-0.332188	0.441583
O24	O	1.783494	0.167812	0.941583
O25	O	1.453841	-0.429201	0.740935
O26	O	1.953841	0.070799	1.240935
O27	O	1.283474	-0.429241	0.570604
O28	O	1.783474	0.070759	1.070604
O29	O	1.582946	-0.332118	0.740971
O30	O	2.082946	0.167882	1.240971
O31	O	1.582738	-0.557436	0.441532
O32	O	2.082738	-0.057436	0.941532
O33	O	1.453723	-0.557391	0.570575
O34	O	1.953723	-0.057391	1.070575
C35	C	1.245363	-0.380713	0.506092
C36	C	1.745363	0.119287	1.006092
C37	C	1.128586	-0.380726	0.506110
C38	C	1.628586	0.119274	1.006110
C39	C	1.073741	-0.431342	0.573181
C40	C	1.573741	0.068658	1.073181
C41	C	0.964017	-0.431352	0.573192
C42	C	1.464017	0.068648	1.073192
C43	C	0.963993	-0.330127	0.439054
C44	C	1.463993	0.169873	0.939054
C45	C	1.073715	-0.330114	0.439049
C46	C	1.573715	0.169886	0.939049
C47	C	1.128613	-0.481954	0.640242
C48	C	1.628613	0.018046	1.140242
C49	C	1.073767	-0.532575	0.707317
C50	C	1.573767	-0.032575	1.207317
C51	C	0.964043	-0.532585	0.707328
C52	C	1.464043	-0.032585	1.207328
C53	C	0.909165	-0.481974	0.640265
C54	C	1.409165	0.018026	1.140265
C55	C	1.518243	-0.586094	0.506067
C56	C	2.018243	-0.086094	1.006067
C57	C	1.518301	-0.673950	0.506086
C58	C	2.018301	-0.173950	1.006086
C59	C	1.585631	-1.045352	0.573433
C60	C	2.085631	-0.545352	1.073433
C61	C	1.451323	-1.045500	0.438935
C62	C	1.951323	-0.545500	0.938935
C63	C	1.451284	-0.962954	0.438911
C64	C	1.951284	-0.462954	0.938911
C65	C	1.518419	-0.921603	0.506150
C66	C	2.018419	-0.421603	1.006150
C67	C	1.585592	-0.962798	0.573413
C68	C	2.085592	-0.462798	1.073413
C69	C	1.384105	-0.921753	0.371657
C70	C	1.884105	-0.421753	0.871657
C71	C	1.384063	-0.839202	0.371631
C72	C	1.884063	-0.339202	0.871631
C73	C	1.451203	-0.797850	0.438865
C74	C	1.951203	-0.297850	0.938865
C75	C	1.518379	-0.839050	0.506130
C76	C	2.018379	-0.339050	1.006130
C77	C	1.585514	-0.797699	0.573369
C78	C	2.085514	-0.297699	1.073369
C79	C	1.652696	-0.838897	0.640629
C80	C	2.152696	-0.338897	1.140629
C81	C	1.652732	-0.921445	0.640647
C82	C	2.152732	-0.421445	1.140647
C83	C	1.451167	-0.715301	0.438847
C84	C	1.951167	-0.215301	0.938847
C85	C	1.585475	-0.715145	0.573349
C86	C	2.085475	-0.215145	1.073349
C87	C	1.792364	-0.380743	0.506121
C88	C	2.292364	0.119257	1.006121
C89	C	1.909140	-0.380749	0.506127
C90	C	2.409140	0.119251	1.006127
C91	C	1.518404	-0.380648	0.780139
C92	C	2.018404	0.119352	1.280139
C93	C	1.518435	-0.380614	0.896916
C94	C	2.018435	0.119386	1.396916
C95	C	1.518447	-0.174559	0.506168
C96	C	2.018447	0.325441	1.006168
C97	C	1.518497	-0.086703	0.506194
C98	C	2.018497	0.413297	1.006194
C99	C	1.518318	-0.380750	0.233139
C100	C	2.018318	0.119250	0.733139
C101	C	1.518490	-0.380561	0.116362
C102	C	2.018490	0.119439	0.616362
C103	C	1.585669	-0.330058	0.951799
C104	C	2.085669	0.169942	1.451799
C105	C	1.585694	-0.330029	1.061523
C106	C	2.085694	0.169971	1.561523
C107	C	1.451248	-0.431120	1.061472
C108	C	1.951248	0.068880	1.561472
C109	C	1.451219	-0.431144	0.951750
C110	C	1.951219	0.068856	1.451750
C111	C	1.652886	-0.279528	0.896965
C112	C	2.152886	0.220472	1.396965
C113	C	1.720127	-0.228968	0.951847
C114	C	2.220127	0.271032	1.451847
C115	C	1.720152	-0.228940	1.061571
C116	C	2.220152	0.271060	1.561571
C117	C	1.652936	-0.279471	1.116413
C118	C	2.152936	0.220529	1.616413
H119	H	0.819820	-0.481980	0.640289
H120	H	1.319820	0.018020	1.140289
F121	F	1.652868	-0.279557	0.780187
F122	F	2.152868	0.220443	1.280187
F123	F	1.652953	-0.279428	1.233193
F124	F	2.152953	0.220572	1.733193
H125	H	1.640332	-1.078899	0.628192
H126	H	2.140332	-0.578899	1.128192
H127	H	1.640148	-0.681482	0.628100
H128	H	2.140148	-0.181482	1.128100
H129	H	1.396455	-0.472299	0.907064
H130	H	1.896455	0.027701	1.407064
H131	H	1.396463	-0.681762	0.384090
H132	H	1.896463	-0.181762	0.884090
H133	H	1.774844	-0.187823	0.907188
H134	H	2.274844	0.312177	1.407188
H135	H	1.217955	-0.481953	0.640239
H136	H	1.717955	0.018047	1.140239
F137	F	1.379866	-1.089511	0.367392
F138	F	1.879866	-0.589511	0.867392
H139	H	1.329445	-0.955427	0.316917
H140	H	1.829445	-0.455427	0.816917
F141	F	1.791714	-0.175132	1.119979
F142	F	2.291714	0.324868	1.619979
F143	F	1.312560	-0.795364	0.300050
F144	F	1.812560	-0.295364	0.800050
H145	H	1.396524	-0.472259	1.106133
H146	H	1.896524	0.027741	1.606133
H147	H	1.118457	-0.573776	0.761924
H148	H	1.618457	-0.073776	1.261924
H149	H	1.707353	-0.805219	0.695381
H150	H	2.207353	-0.305219	1.195381
H151	H	0.919391	-0.573797	0.761951
H152	H	1.419391	-0.073797	1.261951
H153	H	1.118371	-0.288892	0.384442
H154	H	1.618371	0.211108	0.884442
F155	F	1.724223	-0.965297	0.712227
F156	F	2.224223	-0.465297	1.212227
F157	F	0.905584	-0.276269	0.367684
F158	F	1.405584	0.223731	0.867684
