data_functionalizedCrystal
_audit_creation_method	'MofGen! by Chris Wilmer'
_symmetry_space_group_name_H-M	'P1'
_symmetry_Int_Tables_number	1
_symmetry_cell_setting	triclinic
loop_
_symmetry_equiv_pos_as_xyz
  x,y,z
_cell_length_a	10.540539
_cell_length_b	16.109301
_cell_length_c	14.586319
_cell_angle_alpha	90.000787
_cell_angle_beta	89.998343
_cell_angle_gamma	96.006514
loop_
_atom_site_label
_atom_site_type_symbol
_atom_site_fract_x
_atom_site_fract_y
_atom_site_fract_z
O1	O	0.163159	-1.104129	-0.076178
O2	O	0.663159	-0.604129	0.423822
O3	O	0.183464	-0.862191	-0.076192
O4	O	0.683464	-0.362191	0.423808
O5	O	-0.011474	-0.988679	-0.076184
O6	O	0.488526	-0.488679	0.423816
O7	O	0.358096	-0.977640	-0.076186
O8	O	0.858096	-0.477640	0.423814
O9	O	-0.011477	-0.988670	0.076297
O10	O	0.488523	-0.488670	0.576297
O11	O	0.183461	-0.862182	0.076289
O12	O	0.683461	-0.362182	0.576289
O13	O	0.163156	-1.104120	0.076303
O14	O	0.663156	-0.604120	0.576303
Cu15	Cu	0.173308	-0.983150	0.090219
Cu16	Cu	0.673308	-0.483150	0.590219
Cu17	Cu	0.173312	-0.983160	-0.090108
Cu18	Cu	0.673312	-0.483160	0.409892
O19	O	0.358094	-0.977631	0.076294
O20	O	0.858094	-0.477631	0.576294
C21	C	0.182640	-0.831206	0.000047
C22	C	0.682640	-0.331206	0.500047
C23	C	0.180174	-0.738896	0.000041
C24	C	0.680174	-0.238896	0.500041
C25	C	0.163980	-1.135104	0.000062
C26	C	0.663980	-0.635104	0.500062
C27	C	0.166446	-1.227414	0.000062
C28	C	0.666446	-0.727414	0.500062
C29	C	-0.058767	-0.987847	0.000055
C30	C	0.441233	-0.487847	0.500055
C31	C	-0.199679	-0.985370	0.000050
C32	C	0.300321	-0.485370	0.500050
C33	C	-0.381753	-0.890460	-0.000298
C34	C	0.118247	-0.390460	0.499702
C35	C	-0.235171	-0.892971	0.000046
C36	C	0.264829	-0.392971	0.500046
C37	C	-0.261973	-1.029832	0.087127
C38	C	0.238027	-0.529832	0.587127
C39	C	-0.408472	-1.026678	0.087200
C40	C	0.091528	-0.526678	0.587200
C41	C	-0.409014	-1.028567	-0.086199
C42	C	0.090986	-0.528567	0.413801
C43	C	-0.262044	-1.029419	-0.087350
C44	C	0.237956	-0.529419	0.412650
C45	C	0.405386	-0.978463	0.000054
C46	C	0.905386	-0.478463	0.500054
C47	C	0.546299	-0.980940	0.000053
C48	C	1.046299	-0.480940	0.500053
N49	N	0.173305	-0.983149	0.217050
N50	N	0.673305	-0.483149	0.717050
C51	C	0.290112	-0.517296	0.000051
C52	C	0.790112	-0.017296	0.500051
C53	C	0.287785	-0.430561	0.000057
C54	C	0.787785	0.069439	0.500057
C55	C	0.056499	-0.449021	0.000055
C56	C	0.556499	0.050979	0.500055
C57	C	0.058827	-0.535754	0.000055
C58	C	0.558827	-0.035754	0.500055
C59	C	0.175637	-0.569889	0.000049
C60	C	0.675637	-0.069889	0.500049
C61	C	0.170982	-0.396421	0.000054
C62	C	0.670982	0.103579	0.500054
C63	C	0.168459	-0.302380	0.000060
C64	C	0.668459	0.197620	0.500060
C65	C	0.178162	-0.663936	0.000044
C66	C	0.678162	-0.163936	0.500044
N67	N	0.173305	-0.983168	-0.216939
N68	N	0.673305	-0.483168	0.283061
C69	C	0.087015	-1.039177	0.452060
C70	C	0.587015	-0.539177	0.952060
C71	C	0.087012	-1.039179	0.548042
C72	C	0.587012	-0.539179	1.048042
C73	C	0.259598	-0.927134	0.548044
C74	C	0.759598	-0.427134	1.048044
C75	C	0.259594	-0.927129	0.452064
C76	C	0.759594	-0.427129	0.952064
C77	C	0.173304	-0.983154	0.404075
C78	C	0.673304	-0.483154	0.904075
C79	C	0.173305	-0.983163	0.596036
C80	C	0.673305	-0.483163	1.096036
C81	C	0.173303	-0.983165	0.700103
C82	C	0.673303	-0.483165	1.200103
C83	C	0.173305	-0.983151	0.300001
C84	C	0.673305	-0.483151	0.800001
H85	H	-0.409832	-0.853964	-0.062742
H86	H	0.090168	-0.353964	0.437258
H87	H	0.381003	-0.387743	0.000060
H88	H	0.881003	0.112257	0.500060
H89	H	0.329855	-0.881520	0.587126
H90	H	0.829855	-0.381520	1.087126
H91	H	-0.038605	-0.421218	0.000066
H92	H	0.461395	0.078782	0.500066
C93	C	-0.421843	-0.841347	0.083584
C94	C	0.078157	-0.341347	0.583584
H95	H	-0.482234	-0.875745	0.118819
H96	H	0.017766	-0.375745	0.618819
H97	H	-0.459033	-0.793269	0.063563
H98	H	0.040967	-0.293269	0.563563
H99	H	-0.348988	-0.824743	0.120132
H100	H	0.151012	-0.324743	0.620132
C101	C	0.354520	-0.865503	0.399276
C102	C	0.854520	-0.365503	0.899276
H103	H	0.405924	-0.832145	0.441602
H104	H	0.905924	-0.332145	0.941602
H105	H	0.308840	-0.830624	0.361839
H106	H	0.808840	-0.330624	0.861839
H107	H	0.407373	-0.895728	0.361831
H108	H	0.907373	-0.395728	0.861831
H109	H	-0.192914	-0.857734	0.062566
H110	H	0.307086	-0.357734	0.562566
C111	C	-0.067098	-0.593614	0.000052
C112	C	0.432902	-0.093614	0.500052
H113	H	-0.048979	-0.650157	0.000062
H114	H	0.451021	-0.150157	0.500062
H115	H	-0.114996	-0.583196	-0.053121
H116	H	0.385004	-0.083196	0.446879
H117	H	-0.114995	-0.583192	0.053233
H118	H	0.385005	-0.083192	0.553233
H119	H	-0.457388	-1.093130	0.091154
H120	H	0.042612	-0.593130	0.591154
C121	C	-0.176933	-0.845699	-0.084268
C122	C	0.323067	-0.345699	0.415732
H123	H	-0.242852	-0.824781	-0.119037
H124	H	0.257148	-0.324781	0.380963
H125	H	-0.134058	-0.882590	-0.121109
H126	H	0.365942	-0.382590	0.378891
H127	H	-0.117974	-0.800543	-0.064668
H128	H	0.382026	-0.300543	0.435332
C129	C	-0.007910	-1.100795	0.399275
C130	C	0.492090	-0.600795	0.899275
H131	H	-0.059309	-1.134154	0.441604
H132	H	0.440691	-0.634154	0.941604
H133	H	0.037759	-1.135673	0.361827
H134	H	0.537759	-0.635673	0.861827
H135	H	-0.060768	-1.070565	0.361841
H136	H	0.439232	-0.570565	0.861841
H137	H	-0.240586	-1.097687	0.090368
H138	H	0.259414	-0.597687	0.590368
C139	C	-0.007900	-1.100807	0.600822
C140	C	0.492100	-0.600807	1.100822
H141	H	-0.059282	-1.134174	0.558492
H142	H	0.440718	-0.634174	1.058492
H143	H	-0.060757	-1.070593	0.638268
H144	H	0.439243	-0.570593	1.138268
H145	H	0.037789	-1.135688	0.638258
H146	H	0.537789	-0.635688	1.138258
H147	H	-0.436204	-0.993812	0.152288
H148	H	0.063796	-0.493812	0.652288
H149	H	-0.440139	-0.998666	-0.152197
H150	H	0.059861	-0.498666	0.347803
C151	C	-0.203854	-0.988093	0.174662
C152	C	0.296146	-0.488093	0.674662
H153	H	-0.141643	-0.943579	0.158330
H154	H	0.358357	-0.443579	0.658330
H155	H	-0.164851	-1.028027	0.209897
H156	H	0.335149	-0.528027	0.709897
H157	H	-0.269223	-0.966904	0.209756
H158	H	0.230777	-0.466904	0.709756
H159	H	-0.238783	-1.096785	-0.092605
H160	H	0.261217	-0.596785	0.407395
C161	C	-0.206105	-0.985547	-0.174380
C162	C	0.293895	-0.485547	0.325620
H163	H	-0.244207	-1.012479	-0.227017
H164	H	0.255793	-0.512479	0.272983
H165	H	-0.116552	-0.988317	-0.175979
H166	H	0.383448	-0.488317	0.324021
H167	H	-0.223060	-0.928779	-0.173840
H168	H	0.276940	-0.428779	0.326160
C169	C	-0.474105	-1.118722	-0.086995
C170	C	0.025895	-0.618722	0.413005
H171	H	-0.528259	-1.127329	-0.035050
H172	H	-0.028259	-0.627329	0.464950
H173	H	-0.410961	-1.156658	-0.085083
H174	H	0.089039	-0.656658	0.414917
H175	H	-0.523281	-1.127788	-0.141338
H176	H	-0.023281	-0.627788	0.358662
H177	H	0.385227	-0.545085	0.000052
H178	H	0.885227	-0.045085	0.500052
