data_functionalizedCrystal
_audit_creation_method	'MofGen! by Chris Wilmer'
_symmetry_space_group_name_H-M	'P1'
_symmetry_Int_Tables_number	1
_symmetry_cell_setting	triclinic
loop_
_symmetry_equiv_pos_as_xyz
  x,y,z
_cell_length_a	11.026607
_cell_length_b	10.489741
_cell_length_c	10.065875
_cell_angle_alpha	98.879541
_cell_angle_beta	79.302338
_cell_angle_gamma	96.562595
loop_
_atom_site_label
_atom_site_type_symbol
_atom_site_fract_x
_atom_site_fract_y
_atom_site_fract_z
O1	O	1.632468	0.520484	-0.113500
O2	O	1.278630	0.459543	-0.113501
O3	O	1.463599	0.306188	-0.113492
O4	O	1.447499	0.673839	-0.113509
O5	O	1.428329	0.335581	0.113495
O6	O	1.243360	0.488935	0.113486
O7	O	1.597198	0.549877	0.113487
Zn8	Zn	1.414679	0.524073	0.149526
Zn9	Zn	1.461149	0.485347	-0.149540
O10	O	1.412229	0.703232	0.113478
C11	C	1.215686	0.462996	-0.000008
C12	C	1.080679	0.429482	-0.000008
C13	C	1.007682	0.522021	-0.000013
C14	C	0.868146	0.487384	-0.000013
C15	C	1.444748	0.273085	0.000000
C16	C	1.441110	0.130655	-0.000002
C17	C	1.323420	0.036624	-0.000012
C18	C	1.361626	-0.028776	0.111904
C19	C	1.396427	-0.057724	-0.111887
C20	C	1.479350	0.067142	0.112007
C21	C	1.514151	0.038187	-0.111885
C22	C	1.552438	-0.027164	0.000059
C23	C	1.660143	0.546423	-0.000009
C24	C	1.795151	0.579937	-0.000018
C25	C	1.431080	0.736334	-0.000017
C26	C	1.434720	0.878763	-0.000024
N27	N	1.382974	0.550504	0.353630
N28	N	1.492864	0.458908	-0.353644
C29	C	1.450110	0.494533	0.421412
C30	C	1.425718	0.514887	0.578578
H31	H	0.827348	0.382504	-0.000043
C32	C	1.062793	0.663693	-0.000022
H33	H	0.998900	0.717261	-0.000018
H34	H	1.124033	0.670363	-0.079177
H35	H	1.099427	0.690866	0.079144
C36	C	1.280932	0.635598	0.432407
H37	H	1.277931	0.638122	0.527706
H38	H	1.203203	0.600265	0.409076
H39	H	1.298726	0.720920	0.409051
H40	H	1.039875	0.324609	-0.000038
C41	C	0.850252	0.721617	-0.000019
H42	H	0.786357	0.775183	-0.000012
H43	H	0.911493	0.728295	-0.079171
H44	H	0.886883	0.748788	0.079149
H45	H	1.226637	0.065005	0.000100
H46	H	1.514387	0.121184	0.206730
C47	C	1.348998	-0.130923	-0.239708
H48	H	1.267615	-0.109314	-0.239561
H49	H	1.347736	-0.221554	-0.239243
H50	H	1.402372	-0.107032	-0.319181
C51	C	1.274499	-0.068925	0.239719
H52	H	1.193150	-0.047379	0.239586
H53	H	1.303179	-0.024490	0.319194
H54	H	1.273394	-0.159689	0.239211
H55	H	1.649281	-0.055275	0.000121
C56	C	1.552151	0.409439	0.342635
H57	H	1.555163	0.406928	0.247335
H58	H	1.534371	0.324124	0.365993
H59	H	1.629885	0.444786	0.365963
C60	C	1.323671	0.599985	0.657350
H61	H	1.320670	0.602510	0.752649
H62	H	1.245942	0.564653	0.634019
H63	H	1.341465	0.685307	0.633994
C64	C	1.594942	0.373848	0.567587
H65	H	1.597965	0.371347	0.472288
H66	H	1.577195	0.288525	0.590929
H67	H	1.672659	0.409229	0.590937
C68	C	1.601182	0.078445	-0.239701
H69	H	1.666557	0.138203	-0.212822
H70	H	1.555917	0.117961	-0.291422
H71	H	1.634763	0.004018	-0.293711
