data_functionalizedCrystal
_audit_creation_method	'MofGen! by Chris Wilmer'
_symmetry_space_group_name_H-M	'P1'
_symmetry_Int_Tables_number	1
_symmetry_cell_setting	triclinic
loop_
_symmetry_equiv_pos_as_xyz
  x,y,z
_cell_length_a	15.712078
_cell_length_b	14.185569
_cell_length_c	15.625429
_cell_angle_alpha	120.547738
_cell_angle_beta	101.022721
_cell_angle_gamma	72.829589
loop_
_atom_site_label
_atom_site_type_symbol
_atom_site_fract_x
_atom_site_fract_y
_atom_site_fract_z
O1	O	1.081585	0.280623	0.541599
O2	O	0.836104	0.253980	0.468477
O3	O	0.977306	0.217328	0.367643
O4	O	0.940383	0.317274	0.642433
O5	O	1.019018	0.039668	0.337861
O6	O	0.877816	0.076320	0.438695
O7	O	1.123296	0.102963	0.511816
Cu8	Cu	1.004365	0.073420	0.472536
Cu9	Cu	0.955036	0.283523	0.507757
O10	O	0.982095	0.139614	0.612650
C11	C	0.825766	0.160799	0.441641
C12	C	0.732816	0.147831	0.406037
N13	N	1.039066	-0.074355	0.447765
C14	C	0.340222	0.257843	0.708312
C15	C	0.252876	0.245694	0.674841
C16	C	0.287631	0.184688	0.507108
C17	C	0.374981	0.196837	0.540565
C18	C	0.401269	0.233414	0.641168
C19	C	0.436028	0.172408	0.473421
C20	C	0.523371	0.184551	0.506875
C21	C	0.549667	0.221123	0.607473
C22	C	0.488612	0.245556	0.674622
C23	C	0.409740	0.135825	0.372817
C24	C	0.470787	0.111395	0.305673
C25	C	0.558130	0.123546	0.339128
C26	C	0.584426	0.160117	0.439726
C27	C	0.619185	0.099112	0.271980
C28	C	0.706528	0.111254	0.305434
C29	C	0.671769	0.172260	0.473181
C30	C	0.818392	-0.384759	0.605259
C31	C	0.844683	-0.496598	0.586504
C32	C	0.969736	-0.528993	0.497272
C33	C	0.943453	-0.417156	0.516016
C34	C	0.867781	-0.345047	0.570011
C35	C	0.992842	-0.377444	0.480768
C36	C	0.966563	-0.265616	0.499514
C37	C	0.890895	-0.193499	0.553510
C38	C	0.841502	-0.233218	0.588758
C39	C	1.068517	-0.449553	0.426779
C40	C	1.117906	-0.409841	0.391531
C41	C	1.091624	-0.298013	0.410271
C42	C	1.015956	-0.225896	0.464266
C43	C	1.141017	-0.258293	0.375023
C44	C	1.114739	-0.146464	0.393770
C45	C	0.989678	-0.114067	0.483013
C46	C	1.133635	0.196146	0.538653
C47	C	1.226582	0.209121	0.574259
C48	C	1.000626	0.115413	0.316771
C49	C	1.007958	0.076421	0.209554
N50	N	0.920342	0.431296	0.532523
C51	C	0.918372	0.432352	-0.061912
C52	C	0.925266	0.395680	-0.162665
C53	C	0.970737	0.202008	-0.195118
C54	C	0.963852	0.238664	-0.094365
C55	C	0.937668	0.353837	-0.027770
C56	C	0.983147	0.160149	-0.060223
C57	C	0.976258	0.196803	0.040521
C58	C	0.950072	0.311971	0.107121
C59	C	0.930778	0.390491	0.072974
C60	C	1.009325	0.044976	-0.126821
C61	C	1.028620	-0.033539	-0.092679
C62	C	1.021737	0.003114	0.008068
C63	C	0.995552	0.118283	0.074668
C64	C	1.041031	-0.075406	0.042215
C65	C	1.034142	-0.038752	0.142959
C66	C	0.988662	0.154936	0.175412
C67	C	0.958774	0.241532	0.663523
C68	C	0.951441	0.280531	0.770741
H69	H	0.693174	0.202042	0.555101
H70	H	0.804458	-0.528922	0.615214
H71	H	1.049936	-0.127314	-0.146914
O72	O	0.365768	0.293558	0.806060
C73	C	0.422702	0.434667	0.956600
C74	C	0.393775	0.394371	0.845925
H75	H	0.445371	0.516167	0.988859
H76	H	0.364084	0.450136	0.998918
H77	H	0.480131	0.367472	0.963939
H78	H	0.336366	0.461521	0.838494
H79	H	0.452442	0.378869	0.803660
O80	O	0.963090	0.266814	0.240061
C81	C	0.848630	0.438005	0.283263
C82	C	0.877461	0.311319	0.209975
H83	H	0.779405	0.474031	0.258954
H84	H	0.846963	0.450739	0.361131
H85	H	0.898219	0.483051	0.283925
H86	H	0.827901	0.266191	0.209225
H87	H	0.879154	0.298669	0.132143
H88	H	1.179521	-0.468563	0.347571
O89	O	0.193672	0.269530	0.740213
C90	C	0.168430	0.331263	0.910116
C91	C	0.235561	0.304336	0.836198
H92	H	0.202277	0.359387	0.987733
H93	H	0.109244	0.401503	0.911197
H94	H	0.144083	0.252747	0.886119
H95	H	0.259978	0.382785	0.860143
H96	H	0.294698	0.234053	0.835128
O97	O	0.634476	0.233096	0.639962
C98	C	0.747785	0.325792	0.657350
C99	C	0.651718	0.312357	0.620532
H100	H	0.761762	0.389854	0.641636
H101	H	0.756118	0.356200	0.740797
H102	H	0.796620	0.241193	0.616809
H103	H	0.602825	0.396917	0.660999
H104	H	0.643459	0.281893	0.537076
O105	O	0.445088	0.075927	0.207993
C106	C	0.325953	0.030119	0.082100
C107	C	0.354930	0.070317	0.192753
H108	H	0.253063	0.025547	0.069738
H109	H	0.334196	0.091827	0.059761
H110	H	0.369177	-0.056863	0.034863
H111	H	0.311727	0.157279	0.240065
H112	H	0.346708	0.008534	0.215011
H113	H	0.779877	-0.174506	0.632717
O114	O	0.905298	0.502411	0.137533
C115	C	0.860980	0.690666	0.159117
C116	C	0.889804	0.563958	0.085895
H117	H	0.848464	0.740464	0.117401
H118	H	0.797187	0.708193	0.194631
H119	H	0.916019	0.717147	0.219553
H120	H	0.834826	0.537389	0.025403
H121	H	0.953622	0.546501	0.050458
H122	H	1.031351	-0.587715	0.453312
H123	H	0.266218	0.154895	0.425194
O124	O	0.744795	-0.314719	0.657550
C125	C	0.598902	-0.196142	0.657616
C126	C	0.682182	-0.275458	0.598282
H127	H	0.548264	-0.164358	0.609730
H128	H	0.568039	-0.243701	0.679558
H129	H	0.618781	-0.121581	0.727524
H130	H	0.662376	-0.350035	0.528335
H131	H	0.713025	-0.227817	0.576417
O132	O	0.514158	0.281271	0.772370
C133	C	0.571092	0.422381	0.922910
C134	C	0.542165	0.382085	0.812235
H135	H	0.593761	0.503880	0.955169
H136	H	0.512474	0.437850	0.965228
H137	H	0.628521	0.355186	0.930249
H138	H	0.484756	0.449234	0.804804
H139	H	0.600832	0.366582	0.769970
H140	H	0.928052	-0.055355	0.526972
O141	O	0.324840	0.124238	0.340394
C142	C	0.168381	0.215587	0.353879
C143	C	0.264484	0.228870	0.390669
H144	H	0.119555	0.300163	0.394525
H145	H	0.160015	0.185312	0.270454
H146	H	0.154426	0.151419	0.369468
H147	H	0.278503	0.293051	0.375149
H148	H	0.272801	0.259089	0.474085
H149	H	1.089913	-0.540608	0.411522
H150	H	1.014924	0.015136	-0.208854
H151	H	0.897058	0.526139	-0.007684
O152	O	1.066488	-0.187236	-0.022606
C153	C	1.097194	-0.329544	-0.192203
C154	C	1.068374	-0.202862	-0.118899
H155	H	1.098710	-0.342220	-0.270076
H156	H	1.166477	-0.365596	-0.168029
H157	H	1.047663	-0.374610	-0.192778
H158	H	1.117843	-0.157702	-0.118288
H159	H	0.999071	-0.166895	-0.143100
H160	H	1.202635	-0.317015	0.331069
O161	O	1.162789	-0.108077	0.359420
C162	C	1.289634	-0.151984	0.268976
C163	C	1.235282	-0.195612	0.307796
H164	H	1.348267	-0.222727	0.227248
H165	H	1.245225	-0.121918	0.216586
H166	H	1.315679	-0.078969	0.334429
H167	H	1.209228	-0.268658	0.242407
H168	H	1.279728	-0.225604	0.360216
O169	O	0.906481	0.472106	-0.195666
C170	C	0.860481	0.668075	-0.152876
C171	C	0.881781	0.581652	-0.115358
H172	H	0.840488	0.756661	-0.087970
H173	H	0.921933	0.660427	-0.186766
H174	H	0.803189	0.651102	-0.211695
H175	H	0.939046	0.598569	-0.056507
H176	H	0.820283	0.589321	-0.081530
O177	O	0.996026	0.090110	-0.259806
C178	C	0.963514	-0.092286	-0.333733
C179	C	0.934757	0.034416	-0.260463
H180	H	0.914003	-0.137356	-0.334273
H181	H	0.965084	-0.105068	-0.411635
H182	H	1.032793	-0.128248	-0.309478
H183	H	0.865470	0.070461	-0.284626
H184	H	0.933251	0.047120	-0.182578
O185	O	1.052938	-0.115166	0.175971
C186	C	1.098678	-0.311151	0.133139
C187	C	1.077455	-0.224729	0.095628
H188	H	1.118487	-0.399753	0.068198
H189	H	1.156018	-0.294390	0.191911
H190	H	1.037173	-0.303283	0.167075
H191	H	1.138907	-0.232548	0.061643
H192	H	1.020083	-0.241516	0.036900
H193	H	0.944454	0.341812	0.189150
H194	H	0.597771	0.069317	0.190066
H195	H	0.756234	0.091364	0.250759
O196	O	0.865262	-0.084822	0.571847
C197	C	0.758893	0.093409	0.647664
C198	C	0.787835	-0.029632	0.626988
H199	H	0.696280	0.138059	0.692230
H200	H	0.814698	0.138105	0.691920
H201	H	0.744244	0.095125	0.574077
H202	H	0.802473	-0.031452	0.700527
H203	H	0.732013	-0.074276	0.582690
