data_functionalizedCrystal
_audit_creation_method	'MofGen! by Chris Wilmer'
_symmetry_space_group_name_H-M	'P1'
_symmetry_Int_Tables_number	1
_symmetry_cell_setting	triclinic
loop_
_symmetry_equiv_pos_as_xyz
  x,y,z
_cell_length_a	10.723024
_cell_length_b	17.019294
_cell_length_c	9.798715
_cell_angle_alpha	86.117884
_cell_angle_beta	89.996609
_cell_angle_gamma	83.929829
loop_
_atom_site_label
_atom_site_type_symbol
_atom_site_fract_x
_atom_site_fract_y
_atom_site_fract_z
O1	O	1.655492	0.110636	-0.126482
O2	O	2.155492	0.610636	0.373518
O3	O	1.292177	0.121226	-0.127731
O4	O	1.792177	0.621226	0.372269
O5	O	1.483970	0.001154	-0.113611
O6	O	1.983970	0.501154	0.386389
O7	O	1.463699	0.230709	-0.140602
O8	O	1.963699	0.730709	0.359398
O9	O	1.483956	0.001153	0.113371
O10	O	1.983956	0.501153	0.613371
O11	O	1.292163	0.121226	0.099251
O12	O	1.792163	0.621226	0.599251
O13	O	1.655478	0.110636	0.100500
O14	O	2.155478	0.610636	0.600500
Zn15	Zn	1.473818	0.115931	0.135914
Zn16	Zn	1.973818	0.615931	0.635914
Zn17	Zn	1.473837	0.115931	-0.163145
Zn18	Zn	1.973837	0.615931	0.336855
O19	O	1.463685	0.230709	0.086380
O20	O	1.963685	0.730709	0.586380
C21	C	1.245683	0.120456	-0.014150
C22	C	1.745683	0.620456	0.485850
C23	C	1.107164	0.118150	-0.013880
C24	C	1.607164	0.618150	0.486120
C25	C	1.031152	0.185336	-0.021781
C26	C	1.531152	0.685336	0.478219
C27	C	0.887985	0.182955	-0.021503
C28	C	1.387985	0.682955	0.478497
C29	C	1.483194	-0.028240	0.003333
C30	C	1.983194	0.471760	0.503333
C31	C	1.480888	-0.115823	0.013622
C32	C	1.980888	0.384177	0.513622
C33	C	1.479816	-0.156965	-0.105271
C34	C	1.979816	0.343035	0.394729
C35	C	1.477641	-0.239257	-0.095599
C36	C	1.977641	0.260743	0.404401
C37	C	1.476548	-0.280407	0.032967
C38	C	1.976548	0.219593	0.532967
C39	C	1.477617	-0.239259	0.151869
C40	C	1.977617	0.260741	0.651869
C41	C	1.479783	-0.156967	0.142196
C42	C	1.979783	0.343033	0.642196
C43	C	1.470001	-0.528875	0.068364
C44	C	1.970001	-0.028875	0.568364
C45	C	1.467839	-0.611173	0.078029
C46	C	1.967839	-0.111173	0.578029
C47	C	1.467861	-0.611165	-0.169441
C48	C	1.967861	-0.111165	0.330559
C49	C	1.470034	-0.528872	-0.179103
C50	C	1.970034	-0.028872	0.320897
C51	C	1.471096	-0.487731	-0.060201
C52	C	1.971096	0.012269	0.439799
C53	C	1.474330	-0.364524	0.042857
C54	C	1.974330	0.135476	0.542857
C55	C	1.473306	-0.403615	-0.070092
C56	C	1.973306	0.096385	0.429908
C57	C	1.701973	0.111407	-0.013084
C58	C	2.201973	0.611407	0.486916
C59	C	1.840492	0.113713	-0.013362
C60	C	2.340492	0.613713	0.486638
C61	C	1.464461	0.260102	-0.030567
C62	C	1.964461	0.760102	0.469433
C63	C	1.466767	0.347685	-0.040865
C64	C	1.966767	0.847685	0.459135
N65	N	1.473815	0.115930	0.340014
N66	N	1.973815	0.615930	0.840014
N67	N	1.473851	0.115926	-0.367244
N68	N	1.973851	0.615926	0.132756
C69	C	1.554346	0.065293	0.413745
C70	C	2.054346	0.565293	0.913745
C71	C	1.554367	0.065290	0.570909
C72	C	2.054367	0.565290	1.070909
H73	H	0.905798	0.056193	-0.006607
H74	H	1.405798	0.556193	0.493393
H75	H	0.822671	0.240471	-0.028272
H76	H	1.322671	0.740471	0.471728
H77	H	1.072065	0.244620	-0.028744
H78	H	1.572065	0.744620	0.471256
H79	H	1.470926	-0.495374	-0.283796
H80	H	1.970926	0.004626	0.216204
Cl81	Cl	1.466473	-0.662904	0.239667
Cl82	Cl	1.966473	-0.162904	0.739667
Cl83	Cl	1.660496	-0.001819	0.331599
Cl84	Cl	2.160496	0.498181	0.831599
H85	H	1.466994	-0.644671	-0.266244
H86	H	1.966994	-0.144671	0.233756
Cl87	Cl	1.660827	-0.001642	0.668762
Cl88	Cl	2.160827	0.498358	1.168762
H89	H	1.404878	0.159278	0.393241
H90	H	1.904878	0.659278	0.893241
Cl91	Cl	1.044008	0.026615	-0.003108
Cl92	Cl	1.544008	0.526615	0.496892
H93	H	1.470891	-0.495390	0.165183
H94	H	1.970891	0.004610	0.665183
H95	H	1.480713	-0.123467	-0.209964
H96	H	1.980713	0.376533	0.290036
H97	H	1.404905	0.159284	0.569381
H98	H	1.904905	0.659284	1.069381
H99	H	1.476720	-0.272770	0.256551
H100	H	1.976720	0.227230	0.756551
H101	H	1.476773	-0.272752	-0.192415
H102	H	1.976773	0.227248	0.307585
H103	H	1.474188	-0.370107	-0.174770
H104	H	1.974188	0.129893	0.325230
Cl105	Cl	1.481130	-0.105246	0.291669
Cl106	Cl	1.981130	0.394754	0.791669
H107	H	1.473444	-0.398038	0.147536
H108	H	1.973444	0.101962	0.647536
