data_functionalizedCrystal
_audit_creation_method	'MofGen! by Chris Wilmer'
_symmetry_space_group_name_H-M	'P1'
_symmetry_Int_Tables_number	1
_symmetry_cell_setting	triclinic
loop_
_symmetry_equiv_pos_as_xyz
  x,y,z
_cell_length_a	19.077105
_cell_length_b	16.120484
_cell_length_c	19.077271
_cell_angle_alpha	90.454367
_cell_angle_beta	89.892926
_cell_angle_gamma	90.738523
loop_
_atom_site_label
_atom_site_type_symbol
_atom_site_fract_x
_atom_site_fract_y
_atom_site_fract_z
Zn1	Zn	1.042267	-0.359937	-0.455176
Zn2	Zn	1.542267	0.140063	0.044824
Zn3	Zn	1.040474	-0.504583	-0.343594
Zn4	Zn	1.540474	-0.004583	0.156406
Zn5	Zn	0.929463	-0.360401	-0.332986
Zn6	Zn	1.429463	0.139599	0.167014
Zn7	Zn	0.918794	-0.493391	-0.455890
Zn8	Zn	1.418794	0.006609	0.044110
O9	O	0.982750	-0.429578	-0.396911
O10	O	1.482750	0.070422	0.103089
O11	O	1.140161	-0.383614	-0.444515
O12	O	1.640161	0.116386	0.055485
O13	O	1.029463	-0.490334	-0.244053
O14	O	1.529463	0.009666	0.255947
O15	O	0.949643	-0.244147	-0.344456
O16	O	1.449643	0.255853	0.155544
O17	O	1.138844	-0.489884	-0.362536
O18	O	1.638844	0.010116	0.137464
O19	O	1.032519	-0.243806	-0.434229
O20	O	1.532519	0.256194	0.065771
O21	O	0.947904	-0.384404	-0.236260
O22	O	1.447904	0.115596	0.263740
O23	O	0.829916	-0.373553	-0.345149
O24	O	1.329916	0.126447	0.154851
O25	O	0.931458	-0.470810	-0.553929
O26	O	1.431458	0.029190	-0.053929
O27	O	0.822077	-0.471260	-0.435446
O28	O	1.322077	0.028740	0.064554
O29	O	1.022174	-0.372762	-0.553404
O30	O	1.522174	0.127238	-0.053404
O31	O	1.019117	-0.619290	-0.363229
O32	O	1.519117	-0.119290	0.136771
O33	O	0.929719	-0.611068	-0.445732
O34	O	1.429719	-0.111068	0.054268
C35	C	0.800552	-0.421243	-0.389224
C36	C	1.300552	0.078757	0.110776
C37	C	0.722605	-0.417697	-0.385953
C38	C	1.222605	0.082303	0.114047
C39	C	0.973084	-0.645306	-0.405725
C40	C	1.473084	-0.145306	0.094275
C41	C	0.969012	-0.737597	-0.409522
C42	C	1.469012	-0.237597	0.090478
C43	C	0.681922	-0.466985	-0.431362
C44	C	1.181922	0.033015	0.068638
C45	C	0.608684	-0.463642	-0.428291
C46	C	1.108684	0.036358	0.071709
C47	C	0.576130	-0.411013	-0.379808
C48	C	1.076130	0.088987	0.120192
C49	C	0.616818	-0.361719	-0.334397
C50	C	1.116818	0.138281	0.165603
C51	C	0.690055	-0.365059	-0.337471
C52	C	1.190055	0.134941	0.162529
C53	C	0.357529	-0.395557	-0.365581
C54	C	0.857529	0.104443	0.134419
C55	C	0.284287	-0.392223	-0.362509
C56	C	0.784287	0.107777	0.137491
C57	C	0.276157	-0.494145	-0.456405
C58	C	0.776157	0.005855	0.043595
C59	C	0.349396	-0.497483	-0.459472
C60	C	0.849396	0.002517	0.040528
C61	C	0.390079	-0.448186	-0.414064
C62	C	0.890079	0.051814	0.085936
N63	N	0.501268	-0.407597	-0.376666
N64	N	1.001268	0.092403	0.123334
N65	N	0.464939	-0.451599	-0.417209
N66	N	0.964939	0.048401	0.082791
C67	C	0.961582	-0.906574	-0.416468
C68	C	1.461582	-0.406574	0.083532
C69	C	1.004042	-0.951746	-0.377371
C70	C	1.504042	-0.451746	0.122629
C71	C	0.999908	-1.045771	-0.381236
C72	C	1.499908	-0.545771	0.118764
C73	C	0.965715	-0.812541	-0.412604
C74	C	1.465715	-0.312541	0.087396
C75	C	1.165659	-0.437946	-0.404629
C76	C	1.665659	0.062054	0.095371
C77	C	1.243604	-0.441512	-0.407918
C78	C	1.743604	0.058488	0.092082
C79	C	0.975826	-0.420486	-0.579823
C80	C	1.475826	0.079514	-0.079823
C81	C	0.972876	-0.416612	-0.657769
C82	C	1.472876	0.083388	-0.157769
C83	C	0.992471	-0.213007	-0.388079
C84	C	1.492471	0.286993	0.111921
C85	C	0.996614	-0.120718	-0.384316
C86	C	1.496614	0.379282	0.115684
C87	C	0.951711	-0.388890	-1.096087
C88	C	1.451711	0.111110	-0.596087
C89	C	0.954487	-0.392527	-1.022848
C90	C	1.454487	0.107473	-0.522848
C91	C	0.998334	-0.449502	-0.990286
C92	C	1.498334	0.050498	-0.490286
C93	C	1.039414	-0.502837	-1.030966
C94	C	1.539414	-0.002837	-0.530966
C95	C	1.036641	-0.499195	-1.104203
C96	C	1.536641	0.000805	-0.604203
C97	C	1.011182	-0.466305	-0.771686
C98	C	1.511182	0.033695	-0.271686
C99	C	1.013950	-0.469945	-0.698443
C100	C	1.513950	0.030055	-0.198443
C101	C	0.929024	-0.359633	-0.690330
C102	C	1.429024	0.140367	-0.190330
C103	C	0.926253	-0.356000	-0.763569
C104	C	1.426253	0.144000	-0.263569
C105	C	0.967335	-0.409332	-0.804243
C106	C	1.467335	0.090668	-0.304243
N107	N	1.001171	-0.453223	-0.915425
N108	N	1.501171	0.046777	-0.415425
N109	N	0.964501	-0.405606	-0.879103
N110	N	1.464501	0.094394	-0.379103
C111	C	0.989689	-0.438576	-0.214711
C112	C	1.489689	0.061424	0.285289
C113	C	0.992786	-0.442223	-0.136762
C114	C	1.492786	0.057777	0.363238
H115	H	0.575562	-0.503778	-0.465267
H116	H	1.075562	-0.003778	0.034733
H117	H	1.043498	-0.919803	-0.340996
H118	H	1.543498	-0.419803	0.159004
N119	N	0.912082	-0.946653	-0.462084
N120	N	1.412082	-0.446653	0.037916
N121	N	0.866269	-0.994323	-0.437432
N122	N	1.366269	-0.494323	0.062568
H123	H	0.831309	-1.022639	-0.469645
H124	H	1.331309	-0.522639	0.030355
N125	N	0.382636	-0.551249	-0.509000
N126	N	0.882636	-0.051249	-0.009000
N127	N	0.346303	-0.595253	-0.549541
N128	N	0.846303	-0.095253	-0.049541
H129	H	0.369778	-0.633229	-0.584519
H130	H	0.869778	-0.133229	-0.084519
H131	H	0.916004	-0.342497	-1.122593
H132	H	1.416004	0.157503	-0.622593
N133	N	0.912523	-0.338046	-0.981311
N134	N	1.412523	0.161954	-0.481311
N135	N	0.873371	-0.287186	-1.010393
N136	N	1.373371	0.212814	-0.510393
H137	H	0.843730	-0.248707	-0.981057
H138	H	1.343730	0.251293	-0.481057
H139	H	0.895579	-0.316212	-0.657206
H140	H	1.395579	0.183788	-0.157206
H141	H	0.708422	-0.509843	-0.470840
H142	H	1.208422	-0.009843	0.029160
H143	H	0.590307	-0.318865	-0.294923
H144	H	1.090307	0.181135	0.205077
H145	H	1.044633	-0.509734	-0.804794
H146	H	1.544633	-0.009734	-0.304794
H147	H	0.890545	-0.309608	-0.790076
H148	H	1.390545	0.190392	-0.290076
N149	N	0.731613	-0.314725	-0.291075
N150	N	1.231613	0.185275	0.208925
N151	N	0.772858	-0.347941	-0.249252
N152	N	1.272858	0.152059	0.250748
H153	H	0.802207	-0.312389	-0.216484
H154	H	1.302207	0.187611	0.283516
N155	N	0.234591	-0.544493	-0.502779
N156	N	0.734591	-0.044493	-0.002779
N157	N	0.169201	-0.541508	-0.500029
N158	N	0.669201	-0.041508	-0.000029
H159	H	0.139844	-0.577068	-0.532784
H160	H	0.639844	-0.077068	-0.032784
N161	N	0.251044	-0.338457	-0.312977
N162	N	0.751044	0.161543	0.187023
N163	N	0.287374	-0.294446	-0.272439
N164	N	0.787374	0.205554	0.227561
H165	H	0.263896	-0.256476	-0.237458
H166	H	0.763896	0.243524	0.262542
H167	H	1.049673	-0.516326	-0.671934
H168	H	1.549673	-0.016326	-0.171934
N169	N	1.084203	-0.561027	-0.997696
N170	N	1.584203	-0.061027	-0.497696
N171	N	1.086672	-0.564273	-0.932306
N172	N	1.586672	-0.064273	-0.432306
H173	H	1.118305	-0.605372	-0.908809
H174	H	1.618305	-0.105372	-0.408809
H175	H	0.390644	-0.355422	-0.328602
H176	H	0.890644	0.144578	0.171398
H177	H	1.070090	-0.542623	-1.137320
H178	H	1.570090	-0.042623	-0.637320
