data_functionalizedCrystal
_audit_creation_method	'MofGen! by Chris Wilmer'
_symmetry_space_group_name_H-M	'P1'
_symmetry_Int_Tables_number	1
_symmetry_cell_setting	triclinic
loop_
_symmetry_equiv_pos_as_xyz
  x,y,z
_cell_length_a	13.635800
_cell_length_b	27.923496
_cell_length_c	23.752930
_cell_angle_alpha	82.638272
_cell_angle_beta	79.933953
_cell_angle_gamma	98.963946
loop_
_atom_site_label
_atom_site_type_symbol
_atom_site_fract_x
_atom_site_fract_y
_atom_site_fract_z
V1	V	-1.983197	-0.067766	0.178758
O2	O	-1.988945	0.002598	0.174983
O3	O	-1.948181	-0.133736	0.177894
O4	O	-1.950842	-0.067013	0.256557
O5	O	-1.986266	-0.064587	0.095775
V6	V	-2.227469	-0.059316	0.168789
O7	O	-2.108319	-0.086303	0.200626
O8	O	-2.327446	-0.040779	0.146921
O9	O	-2.150881	0.006654	0.169654
O10	O	-2.280419	-0.129680	0.172564
O11	O	-2.283098	-0.062495	0.251773
O12	O	-2.148221	-0.060069	0.090990
V13	V	-1.483197	-0.067766	0.178758
O14	O	-1.488945	0.002598	0.174983
O15	O	-1.448181	-0.133736	0.177894
O16	O	-1.450842	-0.067013	0.256557
O17	O	-1.486266	-0.064587	0.095775
V18	V	-1.727469	-0.059316	0.168789
O19	O	-1.608319	-0.086303	0.200626
O20	O	-1.827446	-0.040779	0.146921
O21	O	-1.650881	0.006654	0.169654
O22	O	-1.780419	-0.129680	0.172564
O23	O	-1.783098	-0.062495	0.251773
O24	O	-1.648221	-0.060069	0.090990
C25	C	-1.868314	-0.149809	0.175166
C26	C	-1.880274	-0.203742	0.174978
C27	C	-2.044904	-0.540677	0.176740
C28	C	-2.089914	-0.743383	0.176059
O29	O	-2.172572	-0.771708	0.178436
N30	N	-2.005198	-0.766247	0.173103
C31	C	-1.909223	-0.738432	0.170321
O32	O	-1.838200	-0.762532	0.167797
C33	C	-1.864215	-0.535727	0.171006
C34	C	-1.948936	-0.512865	0.173957
C35	C	-2.129618	-0.517814	0.179691
C36	C	-2.118365	-0.467140	0.179858
C37	C	-2.022397	-0.439328	0.177074
C38	C	-1.937683	-0.462191	0.174124
C39	C	-1.768242	-0.507913	0.168228
C40	C	-1.756998	-0.457234	0.168401
C41	C	-1.841719	-0.434372	0.171352
C42	C	-1.830461	-0.383705	0.171507
N43	N	-1.915178	-0.360841	0.174463
C44	C	-2.011146	-0.388653	0.177247
C45	C	-1.932858	-0.844855	0.169961
C46	C	-1.944110	-0.895531	0.169788
C47	C	-2.124801	-0.900479	0.175527
C48	C	-2.113548	-0.849801	0.175696
C49	C	-2.017575	-0.821991	0.172917
C50	C	-1.987505	-0.282233	0.177597
C51	C	-1.976242	-0.231554	0.177761
C52	C	-1.795553	-0.226611	0.172025
C53	C	-1.806814	-0.277286	0.171858
C54	C	-1.902798	-0.305096	0.174646
O55	O	-1.747839	-0.355351	0.169139
O56	O	-2.082158	-0.364546	0.179783
C57	C	-2.056158	-0.591351	0.176573
C58	C	-1.971443	-0.614213	0.173623
C59	C	-1.875476	-0.586401	0.170839
C60	C	-1.982695	-0.664889	0.173450
C61	C	-2.078663	-0.692701	0.176234
C62	C	-2.163379	-0.669836	0.179190
C63	C	-2.152126	-0.619162	0.179357
C64	C	-1.790759	-0.609266	0.167883
C65	C	-1.802020	-0.659940	0.167715
C66	C	-1.897988	-0.687751	0.170499
C67	C	-1.871708	-0.064696	0.275509
C68	C	-1.885824	-0.064517	0.339112
C69	C	-2.062419	0.022725	0.172380
C70	C	-2.040078	0.076657	0.172572
C71	C	-2.059026	-0.062388	0.072036
C72	C	-2.034529	-0.062565	0.008431
C73	C	-1.368314	-0.149809	0.175166
C74	C	-1.380274	-0.203742	0.174978
C75	C	-1.371708	-0.064696	0.275509
C76	C	-1.385824	-0.064517	0.339112
C77	C	-2.063803	-0.065790	0.736444
C78	C	-2.077079	-0.065615	0.796205
O79	O	-2.160773	-0.067576	0.829600
N80	N	-1.993374	-0.063098	0.823168
C81	C	-1.896384	-0.060752	0.790365
O82	O	-1.826405	-0.058594	0.818786
C83	C	-1.883108	-0.060923	0.730604
C84	C	-1.966822	-0.063445	0.703645
C85	C	-2.147509	-0.068311	0.709485
C86	C	-2.134233	-0.068487	0.649728
C87	C	-2.037252	-0.066142	0.616929
C88	C	-1.953546	-0.063621	0.643888
C89	C	-1.786119	-0.058573	0.697801
C90	C	-1.772850	-0.058745	0.638036
C91	C	-1.856563	-0.061266	0.611078
C92	C	-1.843289	-0.061452	0.551332
N93	N	-1.926995	-0.063969	0.524370
C94	C	-2.023976	-0.066314	0.557168
C95	C	-1.924271	-0.060390	0.915867
C96	C	-1.937547	-0.060222	0.975628
C97	C	-2.118241	-0.065085	0.981464
C98	C	-2.104965	-0.065256	0.921703
C99	C	-2.007976	-0.062907	0.888905
C100	C	-1.996090	-0.066684	0.431673
C101	C	-1.982806	-0.066862	0.371911
C102	C	-1.802113	-0.061997	0.366080
C103	C	-1.815396	-0.061821	0.425837
C104	C	-1.912392	-0.064163	0.458633
O105	O	-1.759626	-0.059490	0.517901
O106	O	-2.093939	-0.068464	0.528738
C107	C	-1.562419	0.022725	0.172380
C108	C	-1.540078	0.076657	0.172572
C109	C	-1.559026	-0.062388	0.072036
C110	C	-1.534529	-0.062565	0.008431
C111	C	-1.476242	-0.231554	0.177761
C112	C	-1.487496	-0.282231	0.177593
C113	C	-1.402779	-0.305096	0.174637
C114	C	-1.306804	-0.277281	0.171855
C115	C	-1.295553	-0.226605	0.172027
C116	C	-1.482806	-0.066862	0.371911
C117	C	-1.496082	-0.066687	0.431672
C118	C	-1.412377	-0.064170	0.458635
C119	C	-1.315387	-0.061823	0.425832
C120	C	-1.302111	-0.061995	0.366071
C121	C	-1.616603	0.104469	0.169790
C122	C	-1.595621	0.155146	0.169961
C123	C	-1.498115	0.178010	0.172918
C124	C	-1.421583	0.150195	0.175699
C125	C	-1.442564	0.099519	0.175523
C126	C	-1.436003	-0.065076	-0.018517
C127	C	-1.412970	-0.065237	-0.078280
C128	C	-1.488464	-0.062890	-0.111094
C129	C	-1.586998	-0.060377	-0.084143
C130	C	-1.610028	-0.060212	-0.024381
H131	H	-2.045236	-0.212942	0.180162
F132	F	-2.221460	-0.067579	1.016381
F133	F	-1.599313	-0.069187	0.466574
F134	F	-1.308100	-0.067914	-0.106953
H135	H	-1.545233	-0.212944	0.180165
F136	F	-1.571907	-0.069540	0.343226
F137	F	-1.317811	0.174536	0.178843
H138	H	-1.423201	-0.064031	0.507297
H139	H	-1.875118	-0.914140	0.167378
F140	F	-1.226311	-0.059149	0.454537
F141	F	-2.223335	-0.071168	0.621044
H142	H	-1.696005	0.085859	0.167382
H143	H	-1.374519	-0.066987	0.008193
F144	F	-2.226940	-0.930087	0.178492
F145	F	-1.463938	-0.063066	-0.174698
H146	H	-1.223137	-0.060086	0.339371
F147	F	-2.250736	-0.070808	0.744383
F148	F	-1.361107	0.069925	0.178486
H149	H	-1.217403	-0.203963	0.169758
H150	H	-1.693867	-0.056819	0.611332
F151	F	-2.099321	-0.069176	0.466568
H152	H	-1.565650	-0.304872	0.179857
F153	F	-1.667337	-0.057883	-0.119073
H154	H	-1.854703	-0.822216	0.167697
H155	H	-1.411955	-0.346360	0.174497
H156	H	-1.747231	-0.059773	0.447789
H157	H	-1.237832	-0.295904	0.169448
F158	F	-1.698901	-0.059503	0.331163
H159	H	-1.690260	-0.058170	-0.002444
H160	H	-1.657949	0.177785	0.167697
H161	H	-1.699249	-0.526518	0.165822
F162	F	-2.089661	-0.311824	0.180564
F163	F	-2.208538	-0.442814	0.182993
H164	H	-2.207770	-0.540454	0.181960
F165	F	-2.203721	-0.825475	0.178838
H166	H	-1.481044	0.219273	0.173060
H167	H	-1.737827	-0.295901	0.169459
F168	F	-1.654849	-0.427640	0.165446
F169	F	-1.693418	-0.197003	0.169057
H170	H	-2.241520	-0.692489	0.181451
F171	F	-2.242300	-0.594837	0.182494
H172	H	-2.173133	-0.067310	0.899758
F173	F	-1.711837	-0.684265	0.164569
H174	H	-2.050980	-0.068917	0.349965
F175	F	-1.848448	-0.057547	1.004314
F176	F	-1.688613	-0.579673	0.164920
F177	F	-1.697015	-0.055889	0.726479
F178	F	-1.821039	-0.057895	0.880967
