data_functionalizedCrystal
_audit_creation_method	'MofGen! by Chris Wilmer'
_symmetry_space_group_name_H-M	'P1'
_symmetry_Int_Tables_number	1
_symmetry_cell_setting	triclinic
loop_
_symmetry_equiv_pos_as_xyz
  x,y,z
_cell_length_a	10.967926
_cell_length_b	17.766277
_cell_length_c	19.288865
_cell_angle_alpha	89.988397
_cell_angle_beta	96.057564
_cell_angle_gamma	77.880103
loop_
_atom_site_label
_atom_site_type_symbol
_atom_site_fract_x
_atom_site_fract_y
_atom_site_fract_z
O1	O	1.655087	-0.152085	-0.097406
O2	O	1.291753	-0.104953	-0.106733
O3	O	1.483919	-0.129896	-0.001007
O4	O	1.462921	-0.127143	-0.203132
O5	O	1.483885	-0.255080	-0.001002
O6	O	1.291719	-0.230137	-0.106727
O7	O	1.655053	-0.277270	-0.097400
Cu8	Cu	1.473383	-0.265134	-0.102063
Cu9	Cu	1.473423	-0.117089	-0.102070
O10	O	1.462888	-0.252327	-0.203126
C11	C	1.245253	-0.161516	-0.106052
C12	C	1.106746	-0.143549	-0.104023
N13	N	1.473364	-0.369262	-0.102058
C14	C	1.558483	-0.419697	-0.055266
C15	C	1.558490	-0.498500	-0.055263
C16	C	1.473391	-0.526866	-0.102064
C17	C	1.388256	-0.476419	-0.148859
C18	C	1.388243	-0.397617	-0.148857
C19	C	1.456687	-0.649527	-0.165243
C20	C	1.456708	-0.728329	-0.165247
C21	C	1.473424	-0.769916	-0.102072
C22	C	1.490144	-0.732696	-0.038892
C23	C	1.490131	-0.653894	-0.038889
C24	C	1.473395	-0.612312	-0.102072
C25	C	1.558555	-0.905799	-0.055273
C26	C	1.558553	-0.984602	-0.055269
C27	C	1.388326	-0.962521	-0.148871
C28	C	1.388321	-0.883718	-0.148870
C29	C	1.473442	-0.855363	-0.102071
C30	C	1.044978	-0.200388	-0.103115
C31	C	0.901825	-0.181820	-0.101018
C32	C	1.701554	-0.220706	-0.098081
C33	C	1.840060	-0.238667	-0.100110
C34	C	1.483226	-0.192403	0.024876
C35	C	1.481198	-0.192146	0.101993
N36	N	1.473452	-0.012962	-0.102070
C37	C	1.463580	-0.189818	-0.229010
C38	C	1.465608	-0.190070	-0.306126
C39	C	1.593952	-0.206777	0.145957
C40	C	1.592047	-0.206518	0.218416
C41	C	1.477381	-0.191642	0.246909
C42	C	1.364612	-0.177006	0.202936
C43	C	1.366521	-0.177258	0.130478
C44	C	1.387228	-0.223799	0.355784
C45	C	1.385324	-0.223552	0.428241
C46	C	1.471489	-0.190861	0.470393
C47	C	1.559580	-0.158430	0.440080
C48	C	1.561488	-0.158682	0.367622
C49	C	1.475299	-0.191367	0.325476
C50	C	1.582185	-0.205211	0.592925
C51	C	1.580275	-0.204946	0.665386
C52	C	1.352837	-0.175442	0.649904
C53	C	1.354750	-0.175699	0.577445
C54	C	1.469428	-0.190588	0.548960
H55	H	1.627806	-0.539571	-0.017158
N56	N	1.650381	-1.039000	-0.004802
H57	H	1.602905	-1.065552	0.026204
H58	H	1.704274	-1.009019	0.024789
H59	H	1.672097	-0.216857	0.701181
N60	N	1.508162	-0.613747	0.029249
H61	H	1.438974	-0.618499	0.058561
H62	H	1.505649	-0.557536	0.019600
N63	N	1.717637	-0.222812	0.115236
H64	H	1.701741	-0.220749	0.062663
H65	H	1.766957	-0.275616	0.131289
N66	N	1.115298	-0.283058	-0.104140
H67	H	1.207594	-0.284604	-0.105493
H68	H	1.082249	-0.308581	-0.146790
N69	N	1.438668	-0.768471	-0.233387
H70	H	1.428056	-0.730167	-0.273407
H71	H	1.361443	-0.791158	-0.234439
H72	H	1.503755	-0.766554	0.012551
H73	H	0.893153	-0.301080	-0.100884
N74	N	1.713664	-0.222296	0.265846
H75	H	1.786599	-0.231765	0.236806
H76	H	1.717800	-0.269241	0.296255
N77	N	1.650354	-0.875208	-0.004799
H78	H	1.704273	-0.919118	0.024849
H79	H	1.602761	-0.836352	0.026149
H80	H	1.274700	-0.165344	0.094682
H81	H	1.262934	-0.163790	0.541649
N82	N	1.290333	-0.258541	0.460934
H83	H	1.236030	-0.279282	0.423237
H84	H	1.236052	-0.217858	0.487353
H85	H	1.633212	-0.132274	0.342945
N86	N	0.831513	-0.099146	-0.099983
H87	H	0.739216	-0.097600	-0.098629
H88	H	0.843845	-0.070919	-0.143299
N89	N	1.705866	-0.221268	0.562197
H90	H	1.711744	-0.175631	0.532462
H91	H	1.711626	-0.268461	0.532530
N92	N	1.650279	-0.389113	-0.004788
H93	H	1.705364	-0.363548	-0.031611
H94	H	1.704116	-0.433063	0.024843
N95	N	1.296528	-0.993102	-0.199346
H96	H	1.309448	-1.050676	-0.192247
H97	H	1.310654	-0.981147	-0.248693
H98	H	1.629743	-0.131810	0.474399
N99	N	1.296512	-0.829321	-0.199343
H100	H	1.310599	-0.844847	-0.248713
H101	H	1.309455	-0.775115	-0.192182
H102	H	1.053648	-0.081141	-0.103245
H103	H	1.259474	-0.163327	0.673102
N104	N	1.294281	-0.259054	0.310323
H105	H	1.238196	-0.279566	0.340519
H106	H	1.340976	-0.302576	0.283392
N107	N	1.240930	-0.160962	0.233657
H108	H	1.235081	-0.113796	0.263367
H109	H	1.235127	-0.206648	0.263347
N110	N	1.438659	-0.604676	-0.233385
H111	H	1.428083	-0.640212	-0.273409
H112	H	1.514431	-0.581799	-0.237821
H113	H	1.318965	-0.499518	-0.186964
H114	H	1.318928	-0.356550	-0.186961
