data_functionalizedCrystal
_audit_creation_method	'MofGen! by Chris Wilmer'
_symmetry_space_group_name_H-M	'P1'
_symmetry_Int_Tables_number	1
_symmetry_cell_setting	triclinic
loop_
_symmetry_equiv_pos_as_xyz
  x,y,z
_cell_length_a	25.639242
_cell_length_b	21.295417
_cell_length_c	21.295411
_cell_angle_alpha	90.021644
_cell_angle_beta	89.966692
_cell_angle_gamma	89.973967
loop_
_atom_site_label
_atom_site_type_symbol
_atom_site_fract_x
_atom_site_fract_y
_atom_site_fract_z
Zn1	Zn	0.799312	0.250756	-0.356058
Zn2	Zn	1.132646	0.584089	-0.022725
Zn3	Zn	1.465979	0.917423	0.310608
Zn4	Zn	0.799231	0.356008	-0.250784
Zn5	Zn	1.132565	0.689341	0.082550
Zn6	Zn	1.465898	1.022675	0.415883
Zn7	Zn	0.711872	0.250748	-0.250787
Zn8	Zn	1.045205	0.584082	0.082546
Zn9	Zn	1.378538	0.917415	0.415879
Zn10	Zn	0.711846	0.355983	-0.355999
Zn11	Zn	1.045180	0.689316	-0.022666
Zn12	Zn	1.378513	1.022650	0.310667
O13	O	0.755565	0.303374	-0.303407
O14	O	1.088899	0.636707	0.029926
O15	O	1.422232	0.970040	0.363260
O16	O	0.872467	0.264731	-0.342117
O17	O	1.205800	0.598065	-0.008783
O18	O	1.539133	0.931398	0.324550
O19	O	0.787620	0.342052	-0.162695
O20	O	1.120953	0.675385	0.170639
O21	O	1.454286	1.008719	0.503972
O22	O	0.723515	0.162660	-0.264778
O23	O	1.056849	0.495993	0.068555
O24	O	1.390182	0.829327	0.401889
O25	O	0.872407	0.342060	-0.264772
O26	O	1.205741	0.675393	0.068562
O27	O	1.539074	1.008726	0.401895
O28	O	0.787758	0.162666	-0.342120
O29	O	1.121091	0.495999	-0.008787
O30	O	1.454424	0.829332	0.324547
O31	O	0.723437	0.264718	-0.162697
O32	O	1.056770	0.598052	0.170636
O33	O	1.390103	0.931385	0.503969
O34	O	0.638703	0.264694	-0.264721
O35	O	0.972036	0.598028	0.068613
O36	O	1.305370	0.931361	0.401946
O37	O	0.723472	0.342017	-0.444097
O38	O	1.056805	0.675351	-0.110763
O39	O	1.390139	1.008684	0.222570
O40	O	0.638684	0.342010	-0.342020
O41	O	0.972018	0.675343	-0.008686
O42	O	1.305351	1.008677	0.324647
O43	O	0.787733	0.264707	-0.444140
O44	O	1.121066	0.598041	-0.110807
O45	O	1.454400	0.931374	0.222527
O46	O	0.787595	0.444094	-0.264715
O47	O	1.120928	0.777427	0.068619
O48	O	1.454262	1.110761	0.401952
O49	O	0.723393	0.444076	-0.342016
O50	O	1.056727	0.777409	-0.008683
O51	O	1.390060	1.110742	0.324651
C52	C	0.619723	0.303349	-0.303364
C53	C	0.953056	0.636682	0.029969
C54	C	1.286389	0.970016	0.363302
C55	C	0.561609	0.303354	-0.303361
C56	C	0.894942	0.636687	0.029972
C57	C	1.228275	0.970020	0.363306
C58	C	0.755497	0.466925	-0.303372
C59	C	1.088830	0.800259	0.029961
C60	C	1.422163	1.133592	0.363294
C61	C	0.755515	0.536894	-0.303378
C62	C	1.088849	0.870227	0.029955
C63	C	1.422182	1.203560	0.363288
C64	C	0.755609	0.303361	-0.467597
C65	C	1.088942	0.636694	-0.134264
C66	C	1.422275	0.970027	0.199069
C67	C	0.755627	0.303355	-0.537566
C68	C	1.088961	0.636688	-0.204232
C69	C	1.422294	0.970022	0.129101
C70	C	0.201245	0.343699	-0.343619
C71	C	0.534578	0.677033	-0.010285
C72	C	0.867911	1.010366	0.323048
C73	C	0.146641	0.343703	-0.343628
C74	C	0.479974	0.677036	-0.010295
C75	C	0.813307	1.010370	0.323038
O76	O	0.118403	0.377976	-0.377821
O77	O	0.451736	0.711309	-0.044487
O78	O	0.785070	1.044642	0.288846
N79	N	0.119326	0.303391	-0.303448
N80	N	0.452660	0.636724	0.029885
N81	N	0.785993	0.970058	0.363218
C82	C	0.146619	0.263068	-0.263260
C83	C	0.479952	0.596401	0.070073
C84	C	0.813286	0.929735	0.403407
O85	O	0.118372	0.228780	-0.229085
O86	O	0.451706	0.562113	0.104248
O87	O	0.785039	0.895446	0.437582
C88	C	0.201222	0.263062	-0.263254
C89	C	0.534556	0.596395	0.070080
C90	C	0.867889	0.929728	0.403413
C91	C	0.228534	0.303381	-0.303432
C92	C	0.561867	0.636714	0.029901
C93	C	0.895201	0.970047	0.363235
C94	C	0.228556	0.384015	-0.383794
C95	C	0.561890	0.717348	-0.050461
C96	C	0.895223	1.050681	0.282873
C97	C	0.283157	0.384011	-0.383783
C98	C	0.616490	0.717345	-0.050450
C99	C	0.949824	1.050678	0.282884
C100	C	0.310446	0.343693	-0.343597
C101	C	0.643779	0.677026	-0.010263
C102	C	0.977113	1.010360	0.323070
C103	C	0.283134	0.303378	-0.303421
C104	C	0.616468	0.636711	0.029912
C105	C	0.949801	0.970044	0.363246
C106	C	0.228514	0.222736	-0.223069
C107	C	0.561848	0.556069	0.110264
C108	C	0.895181	0.889403	0.443598
C109	C	0.283121	0.222732	-0.223067
C110	C	0.616455	0.556066	0.110267
C111	C	0.949788	0.889399	0.443600
C112	C	0.310433	0.263052	-0.263245
C113	C	0.643766	0.596385	0.070088
C114	C	0.977099	0.929718	0.403422
C115	C	0.365024	0.263056	-0.263224
C116	C	0.698357	0.596389	0.070110
C117	C	1.031691	0.929722	0.403443
N118	N	0.392338	0.303368	-0.303404
N119	N	0.725672	0.636701	0.029929
N120	N	1.059005	0.970034	0.363263
C121	C	0.365049	0.343686	-0.343590
C122	C	0.698383	0.677020	-0.010257
C123	C	1.031716	1.010353	0.323076
C124	C	0.031949	0.263084	-0.263277
C125	C	0.365282	0.596418	0.070056
C126	C	0.698615	0.929751	0.403390
C127	C	-0.022654	0.263093	-0.263280
C128	C	0.310680	0.596427	0.070054
C129	C	0.644013	0.929760	0.403387
C130	C	-0.022629	0.343728	-0.343649
C131	C	0.310705	0.677061	-0.010316
C132	C	0.644038	1.010394	0.323018
C133	C	0.031975	0.343721	-0.343643
C134	C	0.365308	0.677055	-0.010310
C135	C	0.698641	1.010388	0.323024
C136	C	0.059263	0.303396	-0.303457
C137	C	0.392596	0.636730	0.029876
C138	C	0.725929	0.970063	0.363209
C139	C	0.479714	0.343677	-0.343564
C140	C	0.813048	0.677010	-0.010231
C141	C	1.146381	1.010344	0.323103
C142	C	0.534320	0.343672	-0.343548
C143	C	0.867653	0.677005	-0.010214
C144	C	1.200986	1.010339	0.323119
C145	C	0.534290	0.263036	-0.263181
C146	C	0.867623	0.596369	0.070153
C147	C	1.200956	0.929702	0.403486
C148	C	0.479689	0.263043	-0.263195
C149	C	0.813023	0.596376	0.070139
C150	C	1.146356	0.929709	0.403472
C151	C	0.452403	0.303365	-0.303391
C152	C	0.785736	0.636699	0.029942
C153	C	1.119069	0.970032	0.363275
O154	O	0.393296	0.228799	-0.229051
O155	O	0.726630	0.562132	0.104283
O156	O	1.059963	0.895466	0.437616
O157	O	0.393303	0.377963	-0.377766
O158	O	0.726636	0.711297	-0.044432
O159	O	1.059969	1.044630	0.288901
C160	C	0.891938	0.303399	-0.303450
C161	C	1.225272	0.636732	0.029883
C162	C	1.558605	0.970066	0.363216
C163	C	0.950052	0.303410	-0.303469
C164	C	1.283386	0.636743	0.029865
C165	C	1.616719	0.970077	0.363198
C166	C	0.755648	0.139184	-0.303456
C167	C	1.088982	0.472517	0.029877
C168	C	1.422315	0.805850	0.363211
C169	C	0.755684	0.069215	-0.303477
C170	C	1.089017	0.402549	0.029857
C171	C	1.422350	0.735882	0.363190
C172	C	0.788975	0.569749	-0.263169
C173	C	1.122308	0.903082	0.070165
C174	C	1.455641	1.236415	0.403498
C175	C	0.788999	0.635491	-0.263183
C176	C	1.122333	0.968825	0.070150
C177	C	1.455666	1.302158	0.403484
C178	C	0.755555	0.668376	-0.303400
C179	C	1.088888	1.001709	0.029933
C180	C	1.422222	1.335043	0.363267
C181	C	0.722093	0.635513	-0.343618
C182	C	1.055427	0.968846	-0.010284
C183	C	1.388760	1.302180	0.323049
C184	C	0.722073	0.569772	-0.343607
C185	C	1.055407	0.903105	-0.010273
C186	C	1.388740	1.236438	0.323060
N187	N	0.709817	0.771638	-0.308185
N188	N	1.043151	1.104972	0.025149
N189	N	1.376484	1.438305	0.358482
N190	N	0.709838	0.834090	-0.308191
N191	N	1.043171	1.167423	0.025142
N192	N	1.376504	1.500756	0.358475
C193	C	0.755614	0.866451	-0.303436
C194	C	1.088947	1.199784	0.029897
C195	C	1.422280	1.533117	0.363230
N196	N	0.801369	0.834001	-0.298662
N197	N	1.134703	1.167334	0.034671
N198	N	1.468036	1.500668	0.368005
N199	N	0.801348	0.771544	-0.298652
N200	N	1.134682	1.104877	0.034681
N201	N	1.468015	1.438210	0.368015
C202	C	0.755573	0.739661	-0.303417
C203	C	1.088906	1.072995	0.029917
C204	C	1.422240	1.406328	0.363250
C205	C	0.789102	0.970591	-0.263240
C206	C	1.122436	1.303925	0.070094
C207	C	1.455769	1.637258	0.403427
C208	C	0.789128	1.036335	-0.263258
C209	C	1.122461	1.369669	0.070075
C210	C	1.455794	1.703002	0.403408
C211	C	0.722217	1.036356	-0.343690
C212	C	1.055550	1.369689	-0.010356
C213	C	1.388884	1.703022	0.322977
C214	C	0.722196	0.970613	-0.343674
C215	C	1.055530	1.303946	-0.010341
C216	C	1.388863	1.637280	0.322992
C217	C	0.755638	0.937735	-0.303446
C218	C	1.088972	1.271068	0.029887
C219	C	1.422305	1.604402	0.363221
C220	C	0.789086	0.263098	-0.570456
C221	C	1.122420	0.596431	-0.237122
C222	C	1.455753	0.929764	0.096211
C223	C	0.789086	0.263071	-0.636198
C224	C	1.122419	0.596404	-0.302865
C225	C	1.455752	0.929737	0.030468
C226	C	0.755631	0.303312	-0.669048
C227	C	1.088965	0.636645	-0.335715
C228	C	1.422298	0.969978	-0.002382
C229	C	0.722166	0.343571	-0.636150
C230	C	1.055499	0.676905	-0.302817
C231	C	1.388832	1.010238	0.030517
C232	C	0.722163	0.343593	-0.570409
C233	C	1.055497	0.676926	-0.237075
C234	C	1.388830	1.010260	0.096258
N235	N	0.751597	0.358379	-0.772263
N236	N	1.084931	0.691712	-0.438929
N237	N	1.418264	1.025046	-0.105596
N238	N	0.751602	0.358357	-0.834714
N239	N	1.084936	0.691690	-0.501381
N240	N	1.418269	1.025023	-0.168048
C241	C	0.755635	0.303248	-0.867123
C242	C	1.088968	0.636581	-0.533790
C243	C	1.422301	0.969914	-0.200456
N244	N	0.759672	0.248161	-0.834721
N245	N	1.093005	0.581494	-0.501388
N246	N	1.426338	0.914828	-0.168054
N247	N	0.759670	0.248184	-0.772264
N248	N	1.093003	0.581517	-0.438930
N249	N	1.426336	0.914851	-0.105597
C250	C	0.755630	0.303292	-0.740334
C251	C	1.088963	0.636626	-0.407000
C252	C	1.422296	0.969959	-0.073667
C253	C	0.789095	0.262958	-0.971299
C254	C	1.122428	0.596291	-0.637965
C255	C	1.455762	0.929624	-0.304632
C256	C	0.789090	0.262929	-1.037043
C257	C	1.122424	0.596263	-0.703709
C258	C	1.455757	0.929596	-0.370376
C259	C	0.722173	0.343436	-1.036993
C260	C	1.055506	0.676769	-0.703660
C261	C	1.388840	1.010102	-0.370326
C262	C	0.722175	0.343459	-0.971250
C263	C	1.055508	0.676792	-0.637917
C264	C	1.388841	1.010125	-0.304584
C265	C	0.755638	0.303220	-0.938407
C266	C	1.088972	0.636554	-0.605074
C267	C	1.422305	0.969887	-0.271741
C268	C	0.755552	0.303342	-0.139856
C269	C	1.088886	0.636675	0.193478
C270	C	1.422219	0.970008	0.526811
C271	C	0.755635	0.303170	-0.069888
C272	C	1.088968	0.636503	0.263445
C273	C	1.422302	0.969837	0.596779
H274	H	0.556554	0.376507	-0.376266
H275	H	0.889888	0.709840	-0.042933
H276	H	1.223221	1.043174	0.290400
Br277	Br	0.676763	0.398042	-1.081568
Br278	Br	1.010096	0.731375	-0.748234
Br279	Br	1.343430	1.064708	-0.414901
H280	H	0.816336	0.230143	-1.063821
H281	H	1.149670	0.563477	-0.730487
H282	H	1.483003	0.896810	-0.397154
Br283	Br	0.676708	0.680140	-0.398203
Br284	Br	1.010042	1.013474	-0.064870
Br285	Br	1.343375	1.346807	0.268463
H286	H	0.694988	1.063130	-0.376438
H287	H	1.028322	1.396463	-0.043105
H288	H	1.361655	1.729796	0.290229
H289	H	0.206343	0.416847	-0.416522
H290	H	0.539677	0.750180	-0.083189
H291	H	0.873010	1.083514	0.250144
Br292	Br	0.676783	0.926020	-0.398246
Br293	Br	1.010117	1.259354	-0.064913
Br294	Br	1.343450	1.592687	0.268420
H295	H	0.816331	0.230285	-0.662983
H296	H	1.149664	0.563618	-0.329649
H297	H	1.482998	0.896952	0.003684
H298	H	0.694826	0.543020	-0.376351
H299	H	1.028160	0.876354	-0.043018
H300	H	1.361493	1.209687	0.290316
H301	H	0.816334	0.943821	-0.230485
H302	H	1.149668	1.277154	0.102848
H303	H	1.483001	1.610488	0.436181
H304	H	0.457504	0.376510	-0.376297
H305	H	0.790837	0.709844	-0.042964
H306	H	1.124171	1.043177	0.290369
Br307	Br	0.069034	0.398442	-0.398172
Br308	Br	0.402368	0.731775	-0.064839
Br309	Br	0.735701	1.065108	0.268494
Br310	Br	0.571335	0.208321	-0.208644
Br311	Br	0.904669	0.541654	0.124689
Br312	Br	1.238002	0.874987	0.458022
Br313	Br	0.191463	0.168010	-0.168541
Br314	Br	0.524796	0.501343	0.164792
Br315	Br	0.858129	0.834676	0.498125
H316	H	0.694925	0.376334	-0.662901
H317	H	1.028258	0.709667	-0.329567
H318	H	1.361592	1.043001	0.003766
Br319	Br	0.320214	0.438731	-0.438317
Br320	Br	0.653547	0.772064	-0.104983
Br321	Br	0.986881	1.105397	0.228350
H322	H	0.816378	1.063085	-0.230516
H323	H	1.149711	1.396418	0.102817
H324	H	1.483044	1.729751	0.436151
Br325	Br	0.834499	0.208487	-0.525886
Br326	Br	1.167832	0.541820	-0.192552
Br327	Br	1.501166	0.875153	0.140781
H328	H	0.694915	0.376374	-0.543630
H329	H	1.028248	0.709708	-0.210297
H330	H	1.361581	1.043041	0.123037
H331	H	0.816340	0.230190	-0.944557
H332	H	1.149673	0.563523	-0.611223
H333	H	1.483007	0.896856	-0.277890
H334	H	-0.044886	0.230268	-0.230556
H335	H	0.288447	0.563601	0.102777
H336	H	0.621780	0.896935	0.436111
Br337	Br	-0.059674	0.398441	-0.398194
Br338	Br	0.273659	0.731775	-0.064861
Br339	Br	0.606992	1.065108	0.268473
Br340	Br	0.068977	0.208356	-0.208730
Br341	Br	0.402310	0.541689	0.124603
Br342	Br	0.735644	0.875022	0.457936
H343	H	0.305337	0.189890	-0.190346
H344	H	0.638670	0.523224	0.142988
H345	H	0.972003	0.856557	0.476321
H346	H	0.457451	0.230213	-0.230477
H347	H	0.790784	0.563546	0.102857
H348	H	1.124118	0.896880	0.436190
Br349	Br	0.834367	0.525131	-0.208582
Br350	Br	1.167700	0.858465	0.124751
Br351	Br	1.501034	1.191798	0.458084
H352	H	0.816248	0.662247	-0.230440
H353	H	1.149581	0.995581	0.102894
H354	H	1.482914	1.328914	0.436227
Br355	Br	0.676764	0.398097	-0.926610
Br356	Br	1.010097	0.731431	-0.593277
Br357	Br	1.343431	1.064764	-0.259944
