data_functionalizedCrystal
_audit_creation_method	'MofGen! by Chris Wilmer'
_symmetry_space_group_name_H-M	'P1'
_symmetry_Int_Tables_number	1
_symmetry_cell_setting	triclinic
loop_
_symmetry_equiv_pos_as_xyz
  x,y,z
_cell_length_a	14.971486
_cell_length_b	9.565339
_cell_length_c	14.971494
_cell_angle_alpha	90.005815
_cell_angle_beta	83.615843
_cell_angle_gamma	89.998029
loop_
_atom_site_label
_atom_site_type_symbol
_atom_site_fract_x
_atom_site_fract_y
_atom_site_fract_z
O1	O	1.186946	0.116094	0.116566
O2	O	1.686946	0.616094	0.616566
O3	O	0.926546	0.116131	0.130525
O4	O	1.426546	0.616131	0.630525
O5	O	1.063721	0.116108	-0.006654
O6	O	1.563721	0.616108	0.493346
O7	O	1.049770	0.116117	0.253745
O8	O	1.549770	0.616117	0.753745
O9	O	1.063714	-0.116412	-0.006666
O10	O	1.563714	0.383588	0.493334
O11	O	0.926539	-0.116389	0.130513
O12	O	1.426539	0.383611	0.630513
O13	O	1.186939	-0.116426	0.116554
O14	O	1.686939	0.383574	0.616554
Zn15	Zn	1.056738	-0.153325	0.123532
Zn16	Zn	1.556738	0.346675	0.623532
Zn17	Zn	1.056747	0.153030	0.123547
Zn18	Zn	1.556747	0.653030	0.623547
O19	O	1.049763	-0.116404	0.253733
O20	O	1.549763	0.383596	0.753733
C21	C	0.893218	-0.000124	0.129895
C22	C	1.393218	0.499876	0.629895
C23	C	0.793921	-0.000110	0.128024
C24	C	1.293921	0.499890	0.628024
N25	N	1.056738	-0.362405	0.123520
N26	N	1.556738	0.137595	0.623520
C27	C	0.736698	-0.000109	0.208613
C28	C	1.236698	0.499891	0.708613
C29	C	0.643398	-0.000130	0.206850
C30	C	1.143398	0.499870	0.706850
C31	C	0.607323	-0.000141	0.124497
C32	C	1.107323	0.499859	0.624497
C33	C	0.664554	-0.000146	0.043902
C34	C	1.164554	0.499854	0.543902
C35	C	0.757851	-0.000135	0.045666
C36	C	1.257851	0.499865	0.545666
C37	C	0.470091	-0.000166	0.040231
C38	C	0.970091	0.499834	0.540231
C39	C	0.376787	-0.000174	0.038466
C40	C	0.876787	0.499826	0.538466
C41	C	0.355638	-0.000160	0.201415
C42	C	0.855638	0.499840	0.701415
C43	C	0.448936	-0.000149	0.203179
C44	C	0.948936	0.499851	0.703179
C45	C	0.506160	-0.000151	0.122583
C46	C	1.006160	0.499849	0.622583
C47	C	1.119688	-0.546751	0.059588
C48	C	1.619688	-0.046751	0.559588
C49	C	1.137852	-0.453513	0.140183
C50	C	1.637852	0.046487	0.640183
C51	C	1.038613	-0.453573	0.042932
C52	C	1.538613	0.046427	0.542932
C53	C	1.074959	-0.546705	0.204187
C54	C	1.574959	-0.046705	0.704187
C55	C	0.975684	-0.546773	0.106883
C56	C	1.475684	-0.046773	0.606883
C57	C	0.993814	-0.453577	0.187537
C58	C	1.493814	0.046423	0.687537
C59	C	1.220267	-0.000168	0.117184
C60	C	1.720267	0.499832	0.617184
C61	C	1.319564	-0.000173	0.119055
C62	C	1.819564	0.499827	0.619055
C63	C	1.063093	-0.000149	-0.039985
C64	C	1.563093	0.499851	0.460015
C65	C	1.061219	-0.000143	-0.139281
C66	C	1.561219	0.499857	0.360719
N67	N	1.056754	0.362109	0.123552
N68	N	1.556754	0.862109	0.623552
C69	C	1.060345	0.126606	-0.185920
C70	C	1.560345	0.626606	0.314080
C71	C	1.058578	0.126608	-0.279219
C72	C	1.558578	0.626608	0.220781
C73	C	1.057693	-0.000140	-0.325879
C74	C	1.557693	0.499860	0.174121
C75	C	1.058564	-0.126899	-0.279234
C76	C	1.558564	0.373101	0.220766
C77	C	1.060324	-0.126899	-0.185935
C78	C	1.560324	0.373101	0.314065
C79	C	1.054899	-0.126889	-0.473697
C80	C	1.554899	0.373111	0.026303
C81	C	1.053140	-0.126889	-0.567002
C82	C	1.553140	0.373111	-0.067002
C83	C	1.053152	0.126618	-0.566980
C84	C	1.553152	0.626618	-0.066980
C85	C	1.054912	0.126618	-0.473682
C86	C	1.554912	0.626618	0.026318
C87	C	1.055786	-0.000141	-0.427043
C88	C	1.555786	0.499859	0.072957
C89	C	1.050392	-0.000143	0.287064
C90	C	1.550392	0.499857	0.787064
C91	C	1.052266	-0.000140	0.386360
C92	C	1.552266	0.499860	0.886360
H93	H	0.766062	-0.000099	0.275674
H94	H	1.266062	0.499901	0.775674
H95	H	0.907153	-0.587768	0.092766
H96	H	1.407153	-0.087768	0.592766
H97	H	1.023277	-0.412662	-0.025234
H98	H	1.523277	0.087338	0.474766
H99	H	1.052412	-0.230098	-0.604989
H100	H	1.552412	0.269902	-0.104989
H101	H	1.055590	-0.230109	-0.435724
H102	H	1.555590	0.269891	0.064276
H103	H	0.347418	-0.000185	-0.028593
H104	H	0.847418	0.499815	0.471407
H105	H	0.516681	-0.000169	-0.025399
H106	H	1.016681	0.499831	0.474601
H107	H	1.055640	0.229827	-0.435695
H108	H	1.555640	0.729827	0.064305
H109	H	1.172953	-0.587659	0.005570
H110	H	1.672953	-0.087659	0.505570
H111	H	1.057870	0.229819	-0.317188
H112	H	1.557870	0.729819	0.182812
H113	H	1.061070	0.229819	-0.147936
H114	H	1.561070	0.729819	0.352064
H115	H	1.052439	0.229830	-0.604957
H116	H	1.552439	0.729830	-0.104957
H117	H	1.057838	-0.230099	-0.317231
H118	H	1.557838	0.269901	0.182769
C119	C	1.061289	-0.266332	-0.134634
C120	C	1.561289	0.233668	0.365366
N121	N	1.062013	-0.371358	-0.095995
N122	N	1.562013	0.128642	0.404005
H123	H	0.940583	-0.412925	0.241674
H124	H	1.440583	0.087075	0.741674
C125	C	1.230461	-0.398164	0.159218
C126	C	1.730461	0.101836	0.659218
N127	N	1.300217	-0.356478	0.173549
N128	N	1.800217	0.143522	0.673549
H129	H	0.478304	-0.000127	0.270238
H130	H	0.978304	0.499873	0.770238
H131	H	0.309041	-0.000165	0.267038
H132	H	0.809041	0.499835	0.767038
C133	C	0.580456	-0.000154	0.295504
C134	C	1.080456	0.499846	0.795504
N135	N	0.533049	-0.000183	0.362283
N136	N	1.033049	0.499817	0.862283
H137	H	0.804442	-0.000135	-0.019958
H138	H	1.304442	0.499865	0.480042
C139	C	1.095793	-0.601735	0.296295
C140	C	1.595793	-0.101735	0.796295
N141	N	1.111489	-0.643188	0.365667
N142	N	1.611489	-0.143188	0.865667
C143	C	0.624868	-0.000161	-0.046688
C144	C	1.124868	0.499839	0.453312
N145	N	0.594978	-0.000167	-0.114922
N146	N	1.094978	0.499833	0.385078
