data_functionalizedCrystal
_audit_creation_method	'MofGen! by Chris Wilmer'
_symmetry_space_group_name_H-M	'P1'
_symmetry_Int_Tables_number	1
_symmetry_cell_setting	triclinic
loop_
_symmetry_equiv_pos_as_xyz
  x,y,z
_cell_length_a	10.489741
_cell_length_b	12.837943
_cell_length_c	11.892095
_cell_angle_alpha	94.310562
_cell_angle_beta	93.929268
_cell_angle_gamma	90.315943
loop_
_atom_site_label
_atom_site_type_symbol
_atom_site_fract_x
_atom_site_fract_y
_atom_site_fract_z
O1	O	0.324530	-1.384503	-0.093982
O2	O	0.308135	-1.082575	-0.093989
O3	O	0.131493	-1.240409	-0.093979
O4	O	0.501172	-1.226669	-0.093992
O5	O	0.146196	-1.227249	0.094028
O6	O	0.322838	-1.069415	0.094018
O7	O	0.339233	-1.371343	0.094024
Zn8	Zn	0.333370	-1.218290	0.123871
Zn9	Zn	0.313998	-1.235629	-0.123836
O10	O	0.515875	-1.213509	0.094014
C11	C	0.309948	-1.037334	0.000014
C12	C	0.293430	-0.922133	0.000011
C13	C	0.091198	-1.232791	0.000024
C14	C	-0.050774	-1.229687	0.000022
C15	C	0.337420	-1.416585	0.000019
C16	C	0.353937	-1.531786	0.000014
C17	C	-0.129987	-1.129262	0.000011
C18	C	-0.209630	-1.170213	0.092709
C19	C	-0.224098	-1.183212	-0.092650
C20	C	-0.128541	-1.270674	0.092796
C21	C	-0.143007	-1.283664	-0.092647
C22	C	-0.222613	-1.324687	0.000074
C23	C	0.556170	-1.221127	0.000009
C24	C	0.698141	-1.224233	0.000004
N25	N	0.346591	-1.206464	0.292925
C26	C	0.492006	-0.682657	0.000020
C27	C	0.476492	-0.574415	0.000019
C28	C	0.246889	-0.597406	0.000015
C29	C	0.262403	-0.705648	0.000016
C30	C	0.384966	-0.748269	0.000017
C31	C	0.400478	-0.856513	0.000011
C32	C	0.170877	-0.879501	0.000015
C33	C	0.155363	-0.771260	0.000014
N34	N	0.300768	-1.247463	-0.292889
C35	C	0.208698	-1.329751	0.529580
C36	C	0.217950	-1.321493	0.647922
C37	C	0.374338	-1.181684	0.647951
C38	C	0.365086	-1.189943	0.529609
C39	C	0.282265	-1.263980	0.470428
C40	C	0.273021	-1.272243	0.352085
C41	C	0.429402	-1.132429	0.352116
C42	C	0.438653	-1.124171	0.470457
H43	H	-0.089432	-1.046687	0.000103
H44	H	0.506081	-1.063888	0.518656
H45	H	0.141271	-1.390042	0.481394
H46	H	0.489309	-1.078877	0.303941
H47	H	0.055577	-0.736541	0.000026
H48	H	0.563656	-0.520997	0.000024
H49	H	-0.086892	-1.307637	0.171253
H50	H	-0.239197	-1.122235	0.171077
H51	H	-0.262921	-1.407327	0.000127
H52	H	-0.113411	-1.331606	-0.171018
H53	H	0.500275	-0.891213	0.000013
H54	H	0.147112	-0.562678	0.000108
H55	H	-0.265877	-1.146193	-0.171027
H56	H	0.083716	-0.932936	0.000005
H57	H	0.591801	-0.717359	0.000019
H58	H	0.205588	-1.332530	0.303901
H59	H	0.441759	-1.121398	0.696151
H60	H	0.158043	-1.375049	0.696080
