data_functionalizedCrystal
_audit_creation_method	'MofGen! by Chris Wilmer'
_symmetry_space_group_name_H-M	'P1'
_symmetry_Int_Tables_number	1
_symmetry_cell_setting	triclinic
loop_
_symmetry_equiv_pos_as_xyz
  x,y,z
_cell_length_a	22.610064
_cell_length_b	16.992694
_cell_length_c	16.992695
_cell_angle_alpha	89.331777
_cell_angle_beta	89.995894
_cell_angle_gamma	89.996882
loop_
_atom_site_label
_atom_site_type_symbol
_atom_site_fract_x
_atom_site_fract_y
_atom_site_fract_z
O1	O	0.049111	-1.050855	0.166906
O2	O	0.049128	-0.822455	0.165075
O3	O	0.049115	-0.935740	0.051791
O4	O	0.049124	-0.937571	0.280191
O5	O	-0.049254	-0.935719	0.051807
O6	O	-0.049241	-0.822435	0.165091
O7	O	-0.049258	-1.050835	0.166923
Zn8	Zn	-0.064868	-0.936632	0.166010
Zn9	Zn	0.064738	-0.936659	0.165988
O10	O	-0.049245	-0.937551	0.280207
C11	C	-0.000054	-0.793085	0.162727
C12	C	-0.000047	-0.705600	0.155699
N13	N	-0.153320	-0.936619	0.166024
C14	C	-0.000069	-0.933374	0.022439
C15	C	-0.000069	-0.926345	-0.065046
C16	C	-0.561967	-0.986824	0.115834
C17	C	-0.623887	-0.986827	0.115829
O18	O	-0.655911	-1.029480	0.073165
N19	N	-0.654857	-0.936657	0.165972
C20	C	-0.623904	-0.886474	0.216118
O21	O	-0.655932	-0.843800	0.258767
C22	C	-0.561985	-0.886467	0.216119
C23	C	-0.531019	-0.936646	0.165978
C24	C	-0.531001	-1.036999	0.065697
C25	C	-0.469085	-1.036996	0.065704
C26	C	-0.438136	-0.986818	0.115847
C27	C	-0.469103	-0.936643	0.165985
C28	C	-0.531033	-0.836280	0.266260
C29	C	-0.469110	-0.836277	0.266256
C30	C	-0.438144	-0.886456	0.216116
C31	C	-0.376239	-0.886463	0.216135
N32	N	-0.345269	-0.936634	0.165992
C33	C	-0.376217	-0.986811	0.115848
C34	C	-0.753938	-0.886491	0.216111
C35	C	-0.815855	-0.886502	0.216115
C36	C	-0.815834	-0.986855	0.115825
C37	C	-0.753916	-0.986848	0.115825
C38	C	-0.722968	-0.936662	0.165968
C39	C	-0.246190	-0.986802	0.115867
C40	C	-0.184269	-0.986797	0.115880
C41	C	-0.184295	-0.886441	0.216167
C42	C	-0.246211	-0.886449	0.216157
C43	C	-0.277157	-0.936632	0.166000
O44	O	-0.344175	-0.843830	0.258775
O45	O	-0.344182	-1.029471	0.073199
N46	N	0.153190	-0.936677	0.165968
C47	C	-0.000075	-1.080205	0.169270
C48	C	-0.000077	-1.167690	0.176299
C49	C	-0.000045	-0.659610	0.223517
C50	C	-0.000054	-0.577409	0.216908
C51	C	-0.000060	-0.541201	0.142480
C52	C	-0.000064	-0.587198	0.074657
C53	C	-0.000060	-0.669397	0.081267
C54	C	-0.000077	-0.295886	0.115086
C55	C	-0.000079	-0.213681	0.108481
C56	C	-0.000070	-0.203898	0.250732
C57	C	-0.000062	-0.286099	0.257336
C58	C	-0.000069	-0.332089	0.189512
N59	N	-0.000067	-0.457178	0.135723
N60	N	-0.000067	-0.416110	0.196270
C61	C	-0.000074	-0.994163	-0.111037
C62	C	-0.000068	-0.987554	-0.193238
C63	C	-0.000061	-0.913127	-0.229446
C64	C	-0.000053	-0.845303	-0.183449
C65	C	-0.000055	-0.851913	-0.101250
C66	C	-0.000050	-0.885732	-0.474760
C67	C	-0.000050	-0.879127	-0.556966
C68	C	-0.000064	-1.021379	-0.566749
C69	C	-0.000070	-1.027982	-0.484547
C70	C	-0.000059	-0.960159	-0.438558
N71	N	-0.000056	-0.906369	-0.313468
N72	N	-0.000059	-0.966917	-0.354537
C73	C	-0.000059	-0.939917	0.309559
C74	C	-0.000056	-0.946945	0.397044
H75	H	-0.159058	-1.027662	0.075050
H76	H	-0.000042	-0.830505	-0.437325
H77	H	-0.000084	-1.054770	-0.081563
H78	H	-0.271425	-0.845596	0.256994
N79	N	-0.000077	-0.154284	0.323873
H80	H	-0.036543	-0.166454	0.356117
H81	H	0.036412	-0.166462	0.356059
H82	H	-0.000083	-0.333322	0.059859
H83	H	-0.159087	-0.845590	0.256996
H84	H	-0.000074	-1.042779	-0.230680
N85	N	-0.000082	-1.108257	-0.445495
H86	H	-0.000084	-1.150218	-0.487104
H87	H	0.036383	-1.114108	-0.411604
N88	N	-0.000075	-1.094523	-0.616357
H89	H	0.036391	-1.094960	-0.650682
H90	H	-0.000103	-1.142635	-0.580896
H91	H	-0.000054	-0.818516	-0.586443
N92	N	-0.849249	-0.832381	0.270199
H93	H	-0.874937	-0.795645	0.237910
H94	H	-0.874907	-0.864696	0.306948
N95	N	-0.564375	-1.091132	0.011617
H96	H	-0.590060	-1.127870	0.043910
H97	H	-0.590036	-1.058829	-0.025138
N98	N	-0.720518	-1.040969	0.061746
H99	H	-0.749525	-1.072756	0.029984
H100	H	-0.694830	-1.008654	0.025035
N101	N	-0.000060	-0.527769	0.290030
H102	H	-0.036533	-0.493458	0.290435
H103	H	-0.000034	-0.563200	0.338165
H104	H	-0.000043	-0.784703	-0.212936
N105	N	-0.720560	-0.832362	0.270200
H106	H	-0.749579	-0.800584	0.301961
H107	H	-0.694869	-0.864670	0.306911
N108	N	-0.000044	-0.325151	0.337611
H109	H	-0.000041	-0.283542	0.379572
H110	H	-0.036505	-0.359049	0.343468
N111	N	-0.849220	-1.040983	0.061743
H112	H	-0.838444	-1.028427	0.005297
H113	H	-0.838425	-1.097394	0.074419
N114	N	-0.000033	-0.698653	0.303796
H115	H	-0.036498	-0.682209	0.333747
H116	H	-0.000006	-0.757696	0.297632
N117	N	-0.279562	-1.040931	0.061776
H118	H	-0.250542	-1.072715	0.030022
H119	H	-0.305250	-1.077620	0.094117
N120	N	-0.435690	-1.091115	0.011620
H121	H	-0.464699	-1.122896	-0.020145
H122	H	-0.410001	-1.058798	-0.025089
H123	H	-0.000084	-0.184203	0.047870
H124	H	-0.000078	-0.557710	0.014056
H125	H	-0.000050	-0.796688	-0.063804
N126	N	-0.000067	-0.719005	0.008121
H127	H	-0.000071	-0.683596	-0.040032
H128	H	0.036400	-0.753326	0.007755
H129	H	-0.443916	-0.795407	0.307088
N130	N	-0.564423	-0.782144	0.320328
H131	H	-0.535413	-0.750353	0.352081
H132	H	-0.590107	-0.745462	0.287974
