data_functionalizedCrystal
_audit_creation_method	'MofGen! by Chris Wilmer'
_symmetry_space_group_name_H-M	'P1'
_symmetry_Int_Tables_number	1
_symmetry_cell_setting	triclinic
loop_
_symmetry_equiv_pos_as_xyz
  x,y,z
_cell_length_a	16.625527
_cell_length_b	13.032831
_cell_length_c	13.032721
_cell_angle_alpha	89.097115
_cell_angle_beta	82.898416
_cell_angle_gamma	82.761909
loop_
_atom_site_label
_atom_site_type_symbol
_atom_site_fract_x
_atom_site_fract_y
_atom_site_fract_z
Zn1	Zn	0.664305	-1.520957	-0.608629
Zn2	Zn	0.544172	-1.498870	-0.780742
Zn3	Zn	0.510525	-1.348810	-0.586970
Zn4	Zn	0.660000	-1.327101	-0.758681
O5	O	0.594751	-1.423934	-0.683755
O6	O	0.664252	-1.661957	-0.649757
O7	O	0.426877	-1.478806	-0.755206
O8	O	0.518644	-1.389974	-0.445951
O9	O	0.575991	-1.645730	-0.776208
O10	O	0.631626	-1.516450	-0.461864
O11	O	0.402157	-1.368557	-0.612842
O12	O	0.514470	-1.202000	-0.591450
O13	O	0.773403	-1.352974	-0.738608
O14	O	0.624289	-1.186050	-0.717606
O15	O	0.776565	-1.495400	-0.628365
O16	O	0.571817	-1.457755	-0.921707
O17	O	0.656915	-1.331557	-0.905499
C18	C	0.565261	-1.156705	-0.649784
C19	C	0.552667	-1.042380	-0.635276
C20	C	0.385261	-1.423709	-0.684001
C21	C	0.295638	-1.423820	-0.683871
C22	C	0.617571	-1.389932	-0.950916
C23	C	0.627371	-1.375479	-1.065221
C24	C	-0.032537	-1.424265	-0.683415
C25	C	0.058772	-1.424144	-0.683546
C26	C	0.131548	-1.424042	-0.683644
C27	C	0.222863	-1.423922	-0.683773
C28	C	0.805058	-1.424229	-0.683442
C29	C	0.894679	-1.424355	-0.683308
C30	C	0.624355	-1.692207	-0.717860
C31	C	0.636971	-1.806528	-0.732393
C32	C	0.601324	-0.983534	-0.691328
C33	C	0.588308	-0.865373	-0.676334
C34	C	0.589678	-1.431532	-1.124173
C35	C	0.599806	-1.416596	-1.242313
C36	C	0.571862	-1.458098	-0.415555
C37	C	0.562108	-1.472656	-0.301264
H38	H	0.652618	-1.020632	-0.750412
H39	H	0.537015	-0.828281	-0.617238
C40	C	0.535951	-1.511301	-1.074206
N41	N	0.495480	-1.571384	-1.036571
H42	H	0.688272	-0.843621	-0.791479
H43	H	0.639581	-1.357550	-1.279300
C44	C	0.508378	-1.552431	-1.251303
N45	N	0.467908	-1.612516	-1.213672
C46	C	0.681096	-1.295707	-1.115188
N47	N	0.721562	-1.235619	-1.152822
H48	H	0.501378	-1.005284	-0.576184
