data_functionalizedCrystal
_audit_creation_method	'MofGen! by Chris Wilmer'
_symmetry_space_group_name_H-M	'P1'
_symmetry_Int_Tables_number	1
_symmetry_cell_setting	triclinic
loop_
_symmetry_equiv_pos_as_xyz
  x,y,z
_cell_length_a	16.959455
_cell_length_b	12.645330
_cell_length_c	16.959447
_cell_angle_alpha	89.973930
_cell_angle_beta	89.985678
_cell_angle_gamma	90.014639
loop_
_atom_site_label
_atom_site_type_symbol
_atom_site_fract_x
_atom_site_fract_y
_atom_site_fract_z
Zn1	Zn	1.208397	-0.422105	-0.446932
Zn2	Zn	1.708397	0.077895	0.053068
Zn3	Zn	1.208325	-0.599396	-0.314763
Zn4	Zn	1.708325	-0.099396	0.185237
Zn5	Zn	1.076225	-0.422138	-0.314770
Zn6	Zn	1.576225	0.077862	0.185230
Zn7	Zn	1.076195	-0.599317	-0.446902
Zn8	Zn	1.576195	-0.099317	0.053098
O9	O	1.142286	-0.510739	-0.380842
O10	O	1.642286	-0.010739	0.119158
O11	O	1.318998	-0.445642	-0.429410
O12	O	1.818998	0.054358	0.070590
O13	O	1.190784	-0.575930	-0.204153
O14	O	1.690784	-0.075930	0.295847
O15	O	1.093801	-0.273786	-0.332316
O16	O	1.593801	0.226214	0.167684
O17	O	1.318945	-0.575898	-0.332306
O18	O	1.818945	-0.075898	0.167694
O19	O	1.190907	-0.273762	-0.429416
O20	O	1.690907	0.226238	0.070584
O21	O	1.093731	-0.445699	-0.204158
O22	O	1.593731	0.054301	0.295842
O23	O	0.965610	-0.445622	-0.332287
O24	O	1.465610	0.054378	0.167713
O25	O	1.093750	-0.575763	-0.557517
O26	O	1.593750	-0.075763	-0.057517
O27	O	0.965589	-0.575795	-0.429364
O28	O	1.465589	-0.075795	0.070636
O29	O	1.190878	-0.445565	-0.557539
O30	O	1.690878	0.054435	-0.057539
O31	O	1.190755	-0.747733	-0.332277
O32	O	1.690755	-0.247733	0.167723
O33	O	1.093680	-0.747675	-0.429358
O34	O	1.593680	-0.247675	0.070642
C35	C	0.936919	-0.510704	-0.380824
C36	C	1.436919	-0.010704	0.119176
C37	C	0.849063	-0.510715	-0.380835
C38	C	1.349063	-0.010715	0.119165
C39	C	0.477574	-0.442903	-0.330399
C40	C	0.977574	0.057097	0.169601
C41	C	0.477600	-0.578663	-0.431329
C42	C	0.977600	-0.078663	0.068671
C43	C	0.560146	-0.578648	-0.431325
C44	C	1.060146	-0.078648	0.068675
C45	C	0.601410	-0.510760	-0.380855
C46	C	1.101410	-0.010760	0.119145
C47	C	0.560128	-0.442888	-0.330391
C48	C	1.060128	0.057112	0.169609
C49	C	0.601434	-0.646526	-0.481782
C50	C	1.101434	-0.146526	0.018218
C51	C	0.683985	-0.646515	-0.481779
C52	C	1.183985	-0.146515	0.018221
C53	C	0.725251	-0.578621	-0.431313
C54	C	1.225251	-0.078621	0.068687
C55	C	0.683963	-0.510745	-0.380847
C56	C	1.183963	-0.010745	0.119153
C57	C	0.725227	-0.442857	-0.330378
C58	C	1.225227	0.057143	0.169622
C59	C	0.683941	-0.374975	-0.279916
C60	C	1.183941	0.125025	0.220084
C61	C	0.601393	-0.374994	-0.279925
C62	C	1.101393	0.125006	0.220075
C63	C	0.807799	-0.578602	-0.431304
C64	C	1.307799	-0.078602	0.068696
C65	C	0.807781	-0.442842	-0.330370
C66	C	1.307781	0.057158	0.169630
C67	C	1.142228	-0.786169	-0.380831
C68	C	1.642228	-0.286169	0.119169
C69	C	1.142276	-0.903999	-0.380852
C70	C	1.642276	-0.403999	0.119148
C71	C	1.081458	-1.071570	-0.442115
C72	C	1.581458	-0.571570	0.057885
C73	C	1.081147	-0.949011	-0.441918
C74	C	1.581147	-0.449011	0.058082
C75	C	1.119734	-0.948594	-0.297551
C76	C	1.619734	-0.448594	0.202449
C77	C	1.119363	-1.071192	-0.297922
C78	C	1.619363	-0.571192	0.202078
C79	C	1.226007	-1.071094	-0.402216
C80	C	1.726007	-0.571094	0.097784
C81	C	1.225494	-0.948487	-0.404038
C82	C	1.725494	-0.448487	0.095962
C83	C	1.348454	-0.510775	-0.380860
C84	C	1.848454	-0.010775	0.119140
C85	C	1.436310	-0.510790	-0.380868
C86	C	1.936310	-0.010790	0.119132
C87	C	1.142319	-0.510651	-0.587010
C88	C	1.642319	-0.010651	-0.087010
C89	C	1.142333	-0.510614	-0.674867
C90	C	1.642333	-0.010614	-0.174867
C91	C	1.142365	-0.234234	-0.380870
C92	C	1.642365	0.265766	0.119130
C93	C	1.142399	-0.116404	-0.380882
C94	C	1.642399	0.383596	0.119118
C95	C	1.091857	-0.578290	-1.046333
C96	C	1.591857	-0.078290	-0.546333
C97	C	1.192997	-0.442715	-1.046352
C98	C	1.692997	0.057285	-0.546352
C99	C	1.192976	-0.442737	-0.963806
C100	C	1.692976	0.057263	-0.463806
C101	C	1.142395	-0.510538	-0.922520
C102	C	1.642395	-0.010538	-0.422520
C103	C	1.091836	-0.578317	-0.963780
C104	C	1.591836	-0.078317	-0.463780
C105	C	1.243540	-0.374967	-0.922539
C106	C	1.743540	0.125033	-0.422539
C107	C	1.243522	-0.374988	-0.839988
C108	C	1.743522	0.125012	-0.339988
C109	C	1.192937	-0.442784	-0.798701
C110	C	1.692937	0.057216	-0.298701
C111	C	1.142375	-0.510565	-0.839966
C112	C	1.642375	-0.010565	-0.339966
C113	C	1.091794	-0.578366	-0.798680
C114	C	1.591794	-0.078366	-0.298680
C115	C	1.041227	-0.646142	-0.839944
C116	C	1.541227	-0.146142	-0.339944
C117	C	1.041251	-0.646113	-0.922492
C118	C	1.541251	-0.146113	-0.422492
C119	C	1.192913	-0.442813	-0.716153
C120	C	1.692913	0.057187	-0.216153
C121	C	1.091773	-0.578393	-0.716127
C122	C	1.591773	-0.078393	-0.216127
C123	C	1.142298	-0.510750	-0.175475
C124	C	1.642298	-0.010750	0.324525
C125	C	1.142437	-0.510489	-0.087619
C126	C	1.642437	-0.010489	0.412381
H127	H	1.095249	-0.918856	-0.503685
H128	H	1.595249	-0.418856	-0.003685
H129	H	1.019862	-1.102467	-0.428161
H130	H	1.519862	-0.602467	0.071839
N131	N	1.003386	-0.912339	-0.424189
N132	N	1.503386	-0.412339	0.075811
N133	N	0.949178	-0.977289	-0.411917
N134	N	1.449178	-0.477289	0.088083
H135	H	0.894256	-0.951392	-0.399395
H136	H	1.394256	-0.451392	0.100605
N137	N	0.849926	-0.373509	-0.278804
N138	N	1.349926	0.126491	0.221196
N139	N	0.895963	-0.410716	-0.228379
N140	N	1.395963	0.089284	0.271621
H141	H	0.925728	-0.361750	-0.191959
H142	H	1.425728	0.138250	0.308041
H143	H	1.059254	-0.917979	-0.279151
H144	H	1.559254	-0.417979	0.220849
H145	H	1.284696	-0.319800	-0.806398
H146	H	1.784696	0.180200	-0.306398
N147	N	0.726107	-0.305648	-0.228362
N148	N	1.226107	0.194352	0.271638
N149	N	0.799811	-0.305660	-0.228362
N150	N	1.299811	0.194340	0.271638
H151	H	0.829595	-0.256700	-0.191952
H152	H	1.329595	0.243300	0.308048
N153	N	0.435465	-0.648020	-0.482877
N154	N	0.935465	-0.148020	0.017123
N155	N	0.444677	-0.745829	-0.477512
N156	N	0.944677	-0.245829	0.022488
H157	H	0.414916	-0.794816	-0.513920
H158	H	0.914916	-0.294816	-0.013920
H159	H	0.567771	-0.319729	-0.238841
H160	H	1.067771	0.180271	0.261159
H161	H	1.234182	-0.387520	-1.079971
H162	H	1.734182	0.112480	-0.579971
N163	N	1.244568	-0.373591	-0.674015
N164	N	1.744568	0.126409	-0.174015
N165	N	1.289730	-0.313066	-0.710887
N166	N	1.789730	0.186934	-0.210887
H167	H	1.326214	-0.264172	-0.681129
H168	H	1.826214	0.235828	-0.181129
H169	H	1.246571	-1.101937	-0.461927
H170	H	1.746571	-0.601937	0.038073
H171	H	1.000048	-0.701350	-0.806318
H172	H	1.500048	-0.201350	-0.306318
H173	H	1.242493	-0.919336	-0.465343
H174	H	1.742493	-0.419336	0.034657
H175	H	0.841410	-0.633874	-0.472387
H176	H	1.341410	-0.133874	0.027613
H177	H	0.443956	-0.387632	-0.289316
H178	H	0.943956	0.112368	0.210684
N179	N	0.559274	-0.715865	-0.533323
N180	N	1.059274	-0.215865	-0.033323
N181	N	0.485570	-0.715860	-0.533325
N182	N	0.985570	-0.215860	-0.033325
H183	H	0.455790	-0.764830	-0.569730
H184	H	0.955790	-0.264830	-0.069730
H185	H	0.717593	-0.701788	-0.522869
H186	H	1.217593	-0.201788	-0.022869
H187	H	1.000085	-0.701296	-0.956097
H188	H	1.500085	-0.201296	-0.456097
H189	H	1.095430	-1.100982	-0.504085
H190	H	1.595430	-0.600982	-0.004085
N191	N	1.295207	-0.305734	-0.964722
N192	N	1.795207	0.194266	-0.464722
N193	N	1.295216	-0.305723	-1.038426
N194	N	1.795216	0.194277	-0.538426
H195	H	1.331708	-0.256825	-1.068222
H196	H	1.831708	0.243175	-0.568222
H197	H	1.161824	-1.100854	-0.250744
H198	H	1.661824	-0.600854	0.249256
N199	N	1.042691	-1.107171	-0.275244
N200	N	1.542691	-0.607171	0.224756
N201	N	0.989827	-1.041737	-0.259255
N202	N	1.489827	-0.541737	0.240745
H203	H	0.935675	-1.067142	-0.243238
H204	H	1.435675	-0.567142	0.256762
H205	H	1.162714	-0.919440	-0.250681
H206	H	1.662714	-0.419440	0.249319
H207	H	1.271410	-1.100086	-0.357618
H208	H	1.771410	-0.600086	0.142382
N209	N	1.285446	-0.910041	-0.352157
N210	N	1.785446	-0.410041	0.147843
N211	N	1.267737	-0.848960	-0.297001
N212	N	1.767737	-0.348960	0.202999
H213	H	1.310076	-0.821811	-0.260352
H214	H	1.810076	-0.321811	0.239648
N215	N	1.040093	-0.647649	-0.673969
N216	N	1.540093	-0.147649	-0.173969
N217	N	0.994951	-0.708149	-0.710823
N218	N	1.494951	-0.208149	-0.210823
H219	H	0.958450	-0.757062	-0.681050
H220	H	1.458450	-0.257062	-0.181050
N221	N	1.040206	-0.647504	-1.088490
N222	N	1.540206	-0.147504	-0.588490
N223	N	1.040224	-0.647470	-1.162193
N224	N	1.540224	-0.147470	-0.662193
H225	H	1.003744	-0.696352	-1.191968
H226	H	1.503744	-0.196352	-0.691968
