data_functionalizedCrystal
_audit_creation_method	'MofGen! by Chris Wilmer'
_symmetry_space_group_name_H-M	'P1'
_symmetry_Int_Tables_number	1
_symmetry_cell_setting	triclinic
loop_
_symmetry_equiv_pos_as_xyz
  x,y,z
_cell_length_a	10.723024
_cell_length_b	17.666332
_cell_length_c	10.723024
_cell_angle_alpha	89.994743
_cell_angle_beta	95.532131
_cell_angle_gamma	90.009033
loop_
_atom_site_label
_atom_site_type_symbol
_atom_site_fract_x
_atom_site_fract_y
_atom_site_fract_z
O1	O	1.657197	0.062941	-0.175029
O2	O	2.157197	0.562941	0.324971
O3	O	1.294045	0.062944	-0.191783
O4	O	1.794045	0.562944	0.308217
O5	O	1.483998	0.062940	-0.001830
O6	O	1.983998	0.562940	0.498170
O7	O	1.467244	0.062945	-0.364982
O8	O	1.967244	0.562945	0.135018
O9	O	1.483964	-0.062957	-0.001819
O10	O	1.983964	0.437043	0.498181
O11	O	1.294011	-0.062953	-0.191772
O12	O	1.794011	0.437047	0.308228
O13	O	1.657163	-0.062955	-0.175019
O14	O	2.157163	0.437045	0.324981
Cu15	Cu	1.475584	-0.074450	-0.183395
Cu16	Cu	1.975584	0.425550	0.316605
Cu17	Cu	1.475624	0.074438	-0.183407
Cu18	Cu	1.975624	0.574438	0.316593
O19	O	1.467211	-0.062951	-0.364972
O20	O	1.967211	0.437049	0.135028
C21	C	1.247528	-0.000004	-0.190558
C22	C	1.747528	0.499996	0.309442
C23	C	1.108974	-0.000003	-0.186911
C24	C	1.608974	0.499997	0.313089
N25	N	1.475565	-0.179169	-0.183385
N26	N	1.975565	0.320831	0.316615
C27	C	1.033991	-0.000001	-0.293198
C28	C	1.533991	0.499999	0.206802
C29	C	0.890788	-0.000000	-0.289431
C30	C	1.390788	0.500000	0.210569
C31	C	1.559704	-0.218781	-0.099316
C32	C	2.059704	0.281219	0.400684
C33	C	1.559711	-0.298028	-0.099310
C34	C	2.059711	0.201972	0.400690
C35	C	1.475592	-0.337661	-0.183395
C36	C	1.975592	0.162339	0.316605
C37	C	1.391437	-0.298040	-0.267471
C38	C	1.891437	0.201960	0.232529
C39	C	1.391424	-0.218794	-0.267466
C40	C	1.891424	0.281206	0.232534
N41	N	1.460652	-0.462078	-0.293680
N42	N	1.960652	0.037922	0.206320
N43	N	1.460672	-0.537358	-0.293681
N44	N	1.960672	-0.037358	0.206319
C45	C	1.475625	-0.576425	-0.183413
C46	C	1.975625	-0.076425	0.316587
N47	N	1.490581	-0.537368	-0.073140
N48	N	1.990581	-0.037368	0.426860
N49	N	1.490568	-0.462080	-0.073141
N50	N	1.990568	0.037920	0.426859
C51	C	1.475596	-0.423590	-0.183409
C52	C	1.975596	0.076410	0.316591
C53	C	1.559776	-0.701966	-0.099330
C54	C	2.059776	-0.201966	0.400670
C55	C	1.559775	-0.781215	-0.099322
C56	C	2.059775	-0.281215	0.400678
C57	C	1.391506	-0.781226	-0.267494
C58	C	1.891506	-0.281226	0.232506
C59	C	1.391502	-0.701978	-0.267491
C60	C	1.891502	-0.201978	0.232509
C61	C	1.475643	-0.662353	-0.183410
C62	C	1.975643	-0.162353	0.316590
C63	C	1.703680	-0.000006	-0.176243
C64	C	2.203680	0.499994	0.323757
C65	C	1.842234	-0.000002	-0.179891
C66	C	2.342234	0.499998	0.320109
C67	C	1.482762	-0.000008	0.044675
C68	C	1.982762	0.499992	0.544675
C69	C	1.479114	-0.000005	0.183229
C70	C	1.979114	0.499995	0.683229
N71	N	1.475653	0.179157	-0.183407
N72	N	1.975653	0.679157	0.316593
C73	C	1.468447	-0.000002	-0.411477
C74	C	1.968447	0.499998	0.088523
C75	C	1.472094	0.000000	-0.550031
C76	C	1.972094	0.500000	-0.050031
C77	C	1.585401	-0.000005	0.258212
C78	C	2.085401	0.499995	0.758212
C79	C	1.581634	-0.000002	0.401415
C80	C	2.081634	0.499998	0.901415
H81	H	1.075814	-0.000004	-0.386984
H82	H	1.575814	0.499996	0.113016
C83	C	1.352408	-0.000005	0.239722
C84	C	1.852408	0.499995	0.739722
N85	N	1.256970	-0.000008	0.282271
N86	N	1.756970	0.499992	0.782271
H87	H	0.826355	0.000005	-0.380421
H88	H	1.326355	0.500005	0.119579
C89	C	1.298899	-0.341638	-0.359959
C90	C	1.798899	0.158362	0.140041
N91	N	1.229193	-0.374476	-0.429620
N92	N	1.729193	0.125524	0.070380
H93	H	0.906659	0.000001	-0.088896
H94	H	1.406659	0.500001	0.411104
H95	H	1.067152	0.000015	-0.093125
H96	H	1.567152	0.500015	0.406875
H97	H	1.628214	-0.186520	-0.030850
H98	H	2.128214	0.313480	0.469150
H99	H	1.672624	-0.000005	0.465848
H100	H	2.172624	0.499995	0.965848
C101	C	1.652287	-0.341610	-0.006836
C102	C	2.152287	0.158390	0.493164
N103	N	1.722020	-0.374433	0.062811
N104	N	2.222020	0.125567	0.562811
H105	H	1.322906	-0.186542	-0.335926
H106	H	1.822906	0.313458	0.164074
C107	C	1.652321	-0.658376	-0.006829
C108	C	2.152321	-0.158376	0.493171
N109	N	1.722025	-0.625546	0.062846
N110	N	2.222025	-0.125546	0.562846
H111	H	1.628287	-0.813467	-0.030856
H112	H	2.128287	-0.313467	0.469144
H113	H	1.323009	-0.813494	-0.335953
H114	H	1.823009	-0.313494	0.164047
H115	H	1.322993	-0.669724	-0.335953
H116	H	1.822993	-0.169724	0.164047
C117	C	1.712107	-0.000011	0.201719
C118	C	2.212107	0.499989	0.701719
N119	N	1.807545	-0.000019	0.159170
N120	N	2.307545	0.499981	0.659170
H121	H	1.381099	-0.000005	0.385544
H122	H	1.881099	0.499995	0.885544
