data_functionalizedCrystal
_audit_creation_method	'MofGen! by Chris Wilmer'
_symmetry_space_group_name_H-M	'P1'
_symmetry_Int_Tables_number	1
_symmetry_cell_setting	triclinic
loop_
_symmetry_equiv_pos_as_xyz
  x,y,z
_cell_length_a	19.805407
_cell_length_b	19.805405
_cell_length_c	12.759393
_cell_angle_alpha	89.964693
_cell_angle_beta	90.024525
_cell_angle_gamma	89.964886
loop_
_atom_site_label
_atom_site_type_symbol
_atom_site_fract_x
_atom_site_fract_y
_atom_site_fract_z
Zn1	Zn	1.034731	0.269395	0.594086
Zn2	Zn	1.034625	0.382598	0.418391
Zn3	Zn	0.921538	0.269432	0.418410
Zn4	Zn	0.921496	0.382552	0.594017
O5	O	0.978098	0.325994	0.506226
O6	O	1.129434	0.284416	0.570800
O7	O	1.019596	0.367621	0.271372
O8	O	0.936615	0.174711	0.441750
O9	O	1.129355	0.367586	0.441718
O10	O	1.019778	0.174684	0.570818
O11	O	0.936512	0.284479	0.271386
O12	O	0.826816	0.284434	0.441684
O13	O	0.936544	0.367506	0.741047
O14	O	0.826785	0.367542	0.570702
O15	O	1.019738	0.284371	0.741098
O16	O	1.019556	0.477309	0.441652
O17	O	0.936441	0.477274	0.570683
C18	C	0.802242	0.325987	0.506188
C19	C	0.727010	0.326001	0.506197
C20	C	0.265263	0.282769	0.573582
C21	C	0.335951	0.282770	0.573575
C22	C	0.371248	0.326005	0.506260
C23	C	0.335852	0.369246	0.438955
C24	C	0.265165	0.369247	0.438969
C25	C	0.620926	0.369240	0.438900
C26	C	0.691618	0.369234	0.438889
C27	C	0.691712	0.282763	0.573506
C28	C	0.621025	0.282765	0.573519
C29	C	0.585635	0.326008	0.506219
C30	C	0.508987	0.326007	0.506230
C31	C	0.447895	0.326003	0.506243
C32	C	0.978001	0.501850	0.506181
C33	C	0.978021	0.577082	0.506197
C34	C	1.021294	0.612354	0.573454
C35	C	1.021311	0.683043	0.573471
C36	C	0.978057	0.718458	0.506224
C37	C	0.934779	0.683181	0.438964
C38	C	0.934760	0.612494	0.438953
C39	C	0.934856	0.968254	0.439007
C40	C	0.934880	1.038946	0.439021
C41	C	1.021407	1.038803	0.573524
C42	C	1.021387	0.968116	0.573513
C43	C	0.978107	0.932845	0.506258
C44	C	0.978089	0.856197	0.506242
C45	C	0.978078	0.795105	0.506234
C46	C	1.154640	0.326002	0.506265
C47	C	1.229872	0.326005	0.506281
C48	C	0.978148	0.325929	0.780259
C49	C	0.978170	0.325902	0.897036
C50	C	0.978185	1.149452	0.506284
C51	C	0.978150	1.074220	0.506284
C52	C	0.978086	0.326010	0.233258
C53	C	0.978196	0.325847	0.116482
C54	C	1.021492	0.282606	0.951926
C55	C	1.021503	0.282577	1.061650
C56	C	0.934869	0.369145	1.061585
C57	C	0.934854	0.369170	0.951863
H58	H	0.592290	0.247557	0.628330
H59	H	0.899605	0.404374	1.106238
Br60	Br	0.876026	0.564624	0.347677
Br61	Br	0.217367	0.224085	0.664935
Br62	Br	0.383979	0.224095	0.664925
H63	H	1.056779	0.247320	1.106336
H64	H	1.056554	0.711758	0.628230
Br65	Br	0.217134	0.427935	0.347640
H66	H	0.720534	0.247555	0.628308
Br67	Br	1.080095	0.920056	0.664774
Br68	Br	1.080275	0.223884	0.877521
Br69	Br	0.739520	0.427912	0.347524
H70	H	0.899558	0.712022	0.384215
Br71	Br	1.080145	1.086674	0.664804
Br72	Br	0.876050	0.427926	0.877362
H73	H	1.056520	0.583524	0.628209
H74	H	0.899617	0.939543	0.384243
Br75	Br	0.876175	1.087010	0.347750
Br76	Br	0.383754	0.427927	0.347605
Br77	Br	0.572906	0.427907	0.347532
