data_functionalizedCrystal
_audit_creation_method	'MofGen! by Chris Wilmer'
_symmetry_space_group_name_H-M	'P1'
_symmetry_Int_Tables_number	1
_symmetry_cell_setting	triclinic
loop_
_symmetry_equiv_pos_as_xyz
  x,y,z
_cell_length_a	10.489741
_cell_length_b	22.010155
_cell_length_c	10.489763
_cell_angle_alpha	89.999555
_cell_angle_beta	95.456232
_cell_angle_gamma	90.005851
loop_
_atom_site_label
_atom_site_type_symbol
_atom_site_fract_x
_atom_site_fract_y
_atom_site_fract_z
O1	O	1.694077	0.050495	-0.179949
O2	O	1.322883	0.050505	-0.196841
O3	O	1.516912	0.050488	-0.002799
O4	O	1.500049	0.050511	-0.373991
O5	O	1.516876	-0.050562	-0.002828
O6	O	1.322848	-0.050545	-0.196870
O7	O	1.694042	-0.050556	-0.179978
Cu8	Cu	1.508442	-0.059777	-0.188427
Cu9	Cu	1.508483	0.059726	-0.188392
O10	O	1.500013	-0.050539	-0.374020
C11	C	1.275334	-0.000019	-0.195580
C12	C	1.133704	-0.000016	-0.191763
N13	N	1.508422	-0.143830	-0.188450
C14	C	1.065554	-0.000029	-0.068299
C15	C	0.973449	0.049796	-0.126608
C16	C	0.973448	-0.049831	-0.126666
C17	C	1.043465	0.049851	-0.250122
C18	C	1.043473	-0.049822	-0.250163
C19	C	0.951396	0.000016	-0.308561
C20	C	1.594404	-0.563616	-0.102483
C21	C	1.594410	-0.627224	-0.102474
O22	O	1.667465	-0.660122	-0.029397
N23	N	1.508482	-0.659037	-0.188366
C24	C	1.422534	-0.627239	-0.274263
O25	O	1.349446	-0.660139	-0.347319
C26	C	1.422523	-0.563632	-0.274264
C27	C	1.508466	-0.531823	-0.188376
C28	C	1.680339	-0.531807	-0.016600
C29	C	1.680334	-0.468204	-0.016611
C30	C	1.594395	-0.436410	-0.102504
C31	C	1.508461	-0.468220	-0.188386
C32	C	1.336570	-0.531835	-0.360154
C33	C	1.336566	-0.468224	-0.360148
C34	C	1.422508	-0.436415	-0.274259
C35	C	1.422518	-0.372823	-0.274290
N36	N	1.508446	-0.341010	-0.188399
C37	C	1.594384	-0.372804	-0.102505
C38	C	1.422562	-0.760816	-0.274251
C39	C	1.422579	-0.824422	-0.274257
C40	C	1.594453	-0.824403	-0.102466
C41	C	1.594442	-0.760796	-0.102468
C42	C	1.508490	-0.729004	-0.188360
C43	C	1.594369	-0.239232	-0.102535
C44	C	1.594360	-0.175623	-0.102557
C45	C	1.422482	-0.175648	-0.274342
C46	C	1.422494	-0.239251	-0.274326
C47	C	1.508443	-0.271042	-0.188411
O48	O	1.349497	-0.339885	-0.347326
O49	O	1.667449	-0.339896	-0.029451
C50	C	1.741591	-0.000030	-0.181239
C51	C	1.883221	-0.000030	-0.185056
C52	C	1.515614	-0.000039	0.044718
C53	C	1.511786	-0.000043	0.186346
N54	N	1.508514	0.143779	-0.188359
C55	C	1.388316	-0.000039	0.254485
C56	C	1.446614	-0.049867	0.346593
C57	C	1.446678	0.049761	0.346596
C58	C	1.570135	-0.049913	0.276588
C59	C	1.570182	0.049760	0.276582
C60	C	1.628571	-0.000081	0.368661
C61	C	1.501291	-0.000021	0.578461
C62	C	1.505059	-0.000044	0.436825
H63	H	1.115235	0.000027	0.033196
H64	H	1.074311	0.092022	-0.302309
H65	H	1.622396	0.091884	0.245549
C66	C	1.439633	0.158769	0.351384
C67	C	1.376157	0.106625	0.388437
H68	H	1.396093	0.193871	0.377220
H69	H	1.440875	0.158981	0.260964
H70	H	1.524976	0.158821	0.390859
H71	H	1.290817	0.106570	0.348955
H72	H	1.374902	0.106413	0.478875
C73	C	0.989743	0.106556	0.069732
C74	C	0.931579	0.106652	-0.056074
H75	H	0.963890	0.141653	0.113281
H76	H	1.080163	0.106783	0.068488
H77	H	0.964603	0.071169	0.112751
H78	H	0.956727	0.142037	-0.099096
H79	H	0.841140	0.106431	-0.054836
C80	C	0.920009	0.052274	-0.510019
C81	C	0.884671	0.000059	-0.445714
H82	H	0.878807	0.052303	-0.594686
H83	H	1.010199	0.052606	-0.513178
H84	H	0.894967	0.087324	-0.465813
H85	H	0.909722	-0.034991	-0.489916
H86	H	0.794461	-0.000279	-0.442561
C87	C	1.050431	-0.158811	-0.255821
C88	C	1.085393	-0.106681	-0.320639
H89	H	1.076323	-0.193916	-0.299320
H90	H	0.960175	-0.159425	-0.253235
H91	H	1.091105	-0.158451	-0.170954
H92	H	1.044711	-0.107039	-0.405504
H93	H	1.175666	-0.106067	-0.323239
C94	C	0.989784	-0.106602	0.069659
C95	C	0.931603	-0.106699	-0.056140
H96	H	0.963957	-0.141710	0.113201
H97	H	0.964643	-0.071229	0.112690
H98	H	1.080214	-0.106812	0.068399
H99	H	0.841172	-0.106485	-0.054880
H100	H	0.956737	-0.142082	-0.099181
H101	H	1.664349	-0.149726	-0.032616
H102	H	1.664355	-0.265109	-0.032574
C103	C	1.850206	-0.474594	0.153206
C104	C	1.774791	-0.433244	0.077817
H105	H	1.908513	-0.453013	0.211512
H106	H	1.896580	-0.499395	0.099658
H107	H	1.796667	-0.499409	0.199592
H108	H	1.828330	-0.408432	0.031423
H109	H	1.728413	-0.408432	0.131371
H110	H	1.750320	-0.557688	0.053350
H111	H	1.664423	-0.734901	-0.032530
H112	H	1.266569	-0.442342	-0.430090
H113	H	1.664428	-0.850301	-0.032526
H114	H	1.352610	-0.850317	-0.344209
H115	H	1.352573	-0.734934	-0.344205
H116	H	1.266588	-0.557726	-0.430091
H117	H	1.352525	-0.265151	-0.344276
H118	H	1.730170	-0.000113	0.418085
H119	H	1.352515	-0.149752	-0.344279
C120	C	1.186926	-0.052338	0.222549
C121	C	1.251290	-0.000097	0.187446
H122	H	1.102339	-0.052377	0.181153
H123	H	1.183551	-0.052698	0.312710
H124	H	1.231231	-0.087370	0.197569
H125	H	1.206991	0.034934	0.212434
H126	H	1.254660	0.000268	0.097265
H127	H	1.394356	-0.091989	0.377592
H128	H	1.622318	-0.092082	0.245744
