data_functionalizedCrystal
_audit_creation_method	'MofGen! by Chris Wilmer'
_symmetry_space_group_name_H-M	'P1'
_symmetry_Int_Tables_number	1
_symmetry_cell_setting	triclinic
loop_
_symmetry_equiv_pos_as_xyz
  x,y,z
_cell_length_a	31.640172
_cell_length_b	20.919309
_cell_length_c	20.919309
_cell_angle_alpha	60.101124
_cell_angle_beta	90.005700
_cell_angle_gamma	62.590278
loop_
_atom_site_label
_atom_site_type_symbol
_atom_site_fract_x
_atom_site_fract_y
_atom_site_fract_z
Zr1	Zr	0.427744	0.692362	-0.106748
O2	O	0.366137	0.817899	-0.209859
O3	O	0.444165	0.561530	-0.071676
O4	O	0.450759	0.684712	-0.204848
O5	O	0.357145	0.702600	0.024422
O6	O	0.520316	0.684699	-0.204834
O7	O	0.359542	0.694718	-0.076687
O8	O	0.508520	0.464351	0.033386
O9	O	0.368941	0.922948	-0.213798
O10	O	0.506056	0.617295	-0.060891
O11	O	0.452358	0.623186	0.014555
O12	O	0.460122	0.768216	-0.142238
O13	O	0.406424	0.774107	-0.066792
Zr14	Zr	0.534856	0.704913	0.054532
Zr15	Zr	0.538679	0.692343	-0.106726
Zr16	Zr	0.423921	0.704932	0.054509
Zr17	Zr	0.432217	0.859903	-0.113031
Zr18	Zr	0.530383	0.537372	0.060814
O19	O	0.518435	0.835745	0.019459
O20	O	0.523871	0.817872	-0.209828
O21	O	0.360701	0.835772	0.019428
O22	O	0.596463	0.579375	0.157643
O23	O	0.601899	0.561503	-0.071644
O24	O	0.438729	0.579403	0.157611
O25	O	0.605455	0.694675	-0.076638
O26	O	0.511841	0.712563	0.152631
O27	O	0.442285	0.712576	0.152617
O28	O	0.603058	0.702557	0.024471
O29	O	0.457119	0.922933	-0.213781
O30	O	0.505481	0.474342	0.161564
O31	O	0.593659	0.474327	0.161582
O32	O	0.596698	0.464335	0.033404
O33	O	0.365903	0.932940	-0.085620
O34	O	0.454081	0.932924	-0.085603
O35	O	0.502478	0.629059	0.090022
O36	O	0.556176	0.623168	0.014575
O37	O	0.510242	0.774089	-0.066771
O38	O	0.456544	0.779980	0.008675
C39	C	0.475705	0.489070	-0.018250
C40	C	0.473806	0.417944	-0.015583
C41	C	0.500942	0.381454	-0.053712
C42	C	0.499159	0.314620	-0.051198
C43	C	0.470236	0.284282	-0.010560
C44	C	0.443099	0.320774	0.027574
C45	C	0.444886	0.387603	0.025065
C46	C	0.463443	0.082652	-0.001009
C47	C	0.461658	0.015821	0.001495
C48	C	0.517719	0.009670	-0.077276
C49	C	0.519500	0.076504	-0.079786
C50	C	0.492365	0.112988	-0.041648
C51	C	0.468412	0.215968	-0.007992
C52	C	0.494193	0.181295	-0.044212
C53	C	0.342538	0.698662	-0.026136
C54	C	0.295444	0.698670	-0.026146
C55	C	0.027412	0.619851	0.016369
C56	C	-0.149574	0.619837	0.016385
O57	O	-0.152068	0.552839	0.052525
N58	N	-0.195680	0.698615	-0.026078
C59	C	-0.197540	0.777403	-0.068544
O60	O	-0.240818	0.844409	-0.104655
C61	C	-0.020555	0.777417	-0.068555
C62	C	0.025552	0.698633	-0.026095
C63	C	0.073517	0.541073	0.058826
C64	C	0.117760	0.541078	0.058819
C65	C	0.115900	0.619859	0.016354
C66	C	0.069795	0.698637	-0.026103
C67	C	-0.022415	0.856204	-0.111016
C68	C	0.021836	0.856201	-0.111013
C69	C	0.067943	0.777417	-0.068553
C70	C	0.112178	0.777423	-0.068575
N71	N	0.158285	0.698644	-0.026112
C72	C	0.160146	0.619863	0.016353
C73	C	-0.290458	0.777390	-0.068537
C74	C	-0.334704	0.777387	-0.068535
C75	C	-0.286735	0.619820	0.016395
C76	C	-0.242488	0.619824	0.016389
C77	C	-0.244351	0.698612	-0.026074
C78	C	0.253059	0.619877	0.016333
C79	C	0.297304	0.619888	0.016319
C80	C	0.249331	0.777455	-0.068608
C81	C	0.205089	0.777444	-0.068597
C82	C	0.206956	0.698648	-0.026121
O83	O	0.114711	0.844385	-0.104689
O84	O	0.203428	0.552868	0.052472
C85	C	-0.016831	0.619847	0.016377
C86	C	-0.062936	0.698624	-0.026080
C87	C	-0.064796	0.777406	-0.068544
C88	C	-0.107182	0.698621	-0.026078
C89	C	-0.105321	0.619839	0.016386
C90	C	-0.059214	0.541061	0.058849
C91	C	-0.014971	0.541065	0.058841
C92	C	-0.110903	0.856185	-0.111007
C93	C	-0.155145	0.856174	-0.110997
C94	C	-0.153284	0.777392	-0.068532
C95	C	0.620062	0.698613	-0.026080
C96	C	0.667157	0.698605	-0.026071
C97	C	0.486082	0.682914	-0.227816
C98	C	0.487705	0.677578	-0.296274
C99	C	0.486895	0.908205	-0.033967
C100	C	0.488794	0.979331	-0.036634
C101	C	0.464491	0.753848	-0.370898
C102	C	0.466023	0.748829	-0.435219
C103	C	0.490765	0.667539	-0.424914
C104	C	0.513982	0.591263	-0.350283
C105	C	0.512453	0.596283	-0.285964
C106	C	0.496583	0.648441	-0.616992
C107	C	0.498109	0.643427	-0.681318
C108	C	0.450150	0.800993	-0.766250
C109	C	0.448621	0.806006	-0.701926
C110	C	0.471840	0.729730	-0.627300
C111	C	0.492330	0.662407	-0.490659
C112	C	0.470278	0.734863	-0.561557
C113	C	0.476518	0.714360	0.175600
C114	C	0.474895	0.719697	0.244058
C115	C	0.614467	0.489045	-0.018222
C116	C	0.659662	0.417912	-0.015545
C117	C	0.470923	0.504793	0.183459
C118	C	0.467401	0.439003	0.254584
C119	C	0.609685	0.504768	0.183486
C120	C	0.653257	0.438971	0.254621
C121	C	0.352915	0.892507	-0.235703
C122	C	0.309343	0.958304	-0.306837
C123	C	0.348133	0.908230	-0.033995
C124	C	0.302938	0.979363	-0.036671
C125	C	0.491677	0.892482	-0.235675
C126	C	0.495199	0.958272	-0.306800
C127	C	0.654725	0.381440	-0.053688
C128	C	0.697187	0.314611	-0.051188
C129	C	0.744587	0.284250	-0.010541
C130	C	0.749523	0.320727	0.027603
C131	C	0.707062	0.387560	0.025098
C132	C	0.491909	0.411174	0.327384
C133	C	0.488598	0.349368	0.394220
C134	C	0.460781	0.315388	0.388253
C135	C	0.436270	0.343223	0.315444
C136	C	0.439579	0.405033	0.248610
C137	C	0.701754	0.404997	0.248644
C138	C	0.742700	0.343182	0.315476
C139	C	0.735148	0.315338	0.388284
C140	C	0.686646	0.349318	0.394259
C141	C	0.645702	0.411137	0.327428
C142	C	0.260846	0.992286	-0.300861
C143	C	0.219901	1.054122	-0.367694
C144	C	0.227453	1.081970	-0.440502
C145	C	0.275955	1.047985	-0.446476
C146	C	0.316899	0.986155	-0.379645
C147	C	0.307876	1.015841	0.001465
C148	C	0.265414	1.082688	-0.001053
C149	C	0.218015	1.113051	-0.041703
C150	C	0.213078	1.076570	-0.079844
C151	C	0.255539	1.009729	-0.077330
C152	C	0.523020	0.992233	-0.300808
C153	C	0.526339	1.054040	-0.367631
C154	C	0.501834	1.081890	-0.440445
C155	C	0.474012	1.047923	-0.446436
C156	C	0.470696	0.986112	-0.379613
H157	H	0.543051	0.101204	-0.112877
H158	H	0.504538	1.132221	-0.494851
F159	F	0.604283	0.413743	-0.096955
H160	H	0.441350	0.112347	0.030048
H161	H	0.454061	1.070608	-0.505730
F162	F	0.457265	0.249604	0.459391
F163	F	0.247360	0.861296	-0.113791
H164	H	0.251511	0.980031	-0.108383
F165	F	0.183872	1.147775	-0.511624
H166	H	0.534131	0.525075	-0.341897
H167	H	0.542975	0.969567	-0.241525
F168	F	0.166826	0.457224	0.104015
F169	F	0.555949	1.090184	-0.361240
H170	H	0.517744	0.205996	-0.077297
H171	H	0.448040	0.958467	-0.384503
H172	H	0.711089	0.417247	0.056163
H173	H	0.693158	0.284918	-0.082250
H174	H	0.254687	0.969616	-0.241583
H175	H	0.282098	1.070666	-0.505765
H176	H	0.180413	1.081782	-0.362814
F177	F	0.406668	0.307050	0.309106
F178	F	0.412324	0.288474	0.070835
F179	F	0.413494	0.434640	0.171132
F180	F	0.368512	0.949989	-0.386017
F181	F	0.075507	0.457216	0.104029
H182	H	0.524492	0.406155	-0.086808
F183	F	0.709803	0.434623	0.171163
F184	F	0.358318	0.983540	0.044730
H185	H	0.444863	0.191259	0.025096
H186	H	0.779158	0.229829	-0.008507
H187	H	0.782188	0.315521	0.310598
H188	H	-0.204949	0.555671	0.050970
F189	F	0.528033	0.275801	-0.091795
H190	H	0.269444	1.112380	0.030009
F191	F	0.678616	0.319676	0.471753
H192	H	0.539811	-0.020042	-0.108325
H193	H	0.768492	0.265001	0.442696
F194	F	0.172828	1.184190	-0.044371
F195	F	0.524445	0.556903	-0.670345
H196	H	0.174480	1.101303	-0.112940
H197	H	0.606215	0.438791	0.332305
H198	H	0.788122	0.295997	0.060696
H199	H	0.508560	0.326712	0.453497
F200	F	0.416004	0.426437	0.065649
F201	F	0.430872	-0.016465	0.044748
H202	H	0.334846	0.555730	0.050897
F203	F	0.255053	0.536014	0.061540
F204	F	-0.057242	0.457215	0.104040
F205	F	0.425441	0.882165	-0.845674
H206	H	0.450135	0.801049	-0.569944
H207	H	-0.372242	0.841540	-0.103120
F208	F	-0.284762	0.535974	0.061588
H209	H	0.514560	0.438835	0.332258
F210	F	0.034095	0.457212	0.104034
F211	F	-0.071477	0.940059	-0.156202
F212	F	-0.292449	0.861252	-0.113735
H213	H	0.020313	0.920362	-0.145582
F214	F	0.518658	0.575894	-0.479699
H215	H	0.428475	0.872201	-0.710325
H216	H	-0.112426	0.920340	-0.145589
F217	F	0.156018	0.861293	-0.113801
H218	H	0.444340	0.820044	-0.379298
F219	F	-0.204213	0.940033	-0.156195
H220	H	0.515490	0.586332	-0.556237
F221	F	0.537165	0.515106	-0.206541
F222	F	0.441314	0.830007	-0.514639
