data_functionalizedCrystal
_audit_creation_method	'MofGen! by Chris Wilmer'
_symmetry_space_group_name_H-M	'P1'
_symmetry_Int_Tables_number	1
_symmetry_cell_setting	triclinic
loop_
_symmetry_equiv_pos_as_xyz
  x,y,z
_cell_length_a	23.532407
_cell_length_b	23.532407
_cell_length_c	22.610064
_cell_angle_alpha	89.990850
_cell_angle_beta	89.990066
_cell_angle_gamma	82.848678
loop_
_atom_site_label
_atom_site_type_symbol
_atom_site_fract_x
_atom_site_fract_y
_atom_site_fract_z
O1	O	0.755269	0.069133	-0.049117
O2	O	1.005269	0.319133	0.200883
O3	O	1.255269	0.569133	0.450883
O4	O	1.505269	0.819133	0.700883
O5	O	0.589405	0.079137	-0.049135
O6	O	0.839405	0.329137	0.200865
O7	O	1.089405	0.579137	0.450865
O8	O	1.339405	0.829137	0.700865
O9	O	0.677338	-0.008797	-0.049114
O10	O	0.927338	0.241203	0.200886
O11	O	1.177338	0.491203	0.450886
O12	O	1.427338	0.741203	0.700886
O13	O	0.667335	0.157067	-0.049137
O14	O	0.917335	0.407067	0.200863
O15	O	1.167335	0.657067	0.450863
O16	O	1.417335	0.907067	0.700863
O17	O	0.677313	-0.008797	0.049255
O18	O	0.927313	0.241203	0.299255
O19	O	1.177313	0.491203	0.549255
O20	O	1.427313	0.741203	0.799255
O21	O	0.589380	0.079137	0.049234
O22	O	0.839380	0.329137	0.299234
O23	O	1.089380	0.579137	0.549234
O24	O	1.339380	0.829137	0.799234
O25	O	0.755243	0.069133	0.049252
O26	O	1.005243	0.319133	0.299252
O27	O	1.255243	0.569133	0.549252
O28	O	1.505243	0.819133	0.799252
Zn29	Zn	0.672307	0.074135	0.064862
Zn30	Zn	0.922307	0.324135	0.314862
Zn31	Zn	1.172307	0.574135	0.564862
Zn32	Zn	1.422307	0.824135	0.814862
Zn33	Zn	0.672341	0.074135	-0.064744
Zn34	Zn	0.922341	0.324135	0.185256
Zn35	Zn	1.172341	0.574135	0.435256
Zn36	Zn	1.422341	0.824135	0.685256
O37	O	0.667310	0.157067	0.049232
O38	O	0.917310	0.407067	0.299232
O39	O	1.167310	0.657067	0.549232
O40	O	1.417310	0.907067	0.799232
C41	C	0.568176	0.078882	0.000048
C42	C	0.818176	0.328882	0.250048
C43	C	1.068176	0.578882	0.500048
C44	C	1.318176	0.828882	0.750048
C45	C	0.504959	0.078116	0.000041
C46	C	0.754959	0.328116	0.250041
C47	C	1.004959	0.578116	0.500041
C48	C	1.254959	0.828116	0.750041
C49	C	0.105856	0.125350	0.000061
C50	C	0.355856	0.375350	0.250061
C51	C	0.605856	0.625350	0.500061
C52	C	0.855856	0.875350	0.750061
C53	C	0.046456	0.124638	0.000065
C54	C	0.296456	0.374638	0.250065
C55	C	0.546456	0.624638	0.500065
C56	C	0.796456	0.874638	0.750065
O57	O	0.009711	0.168424	0.000081
O58	O	0.259711	0.418424	0.250081
O59	O	0.509711	0.668424	0.500081
O60	O	0.759711	0.918424	0.750081
N61	N	0.023830	0.072362	0.000071
N62	N	0.273830	0.322362	0.250071
N63	N	0.523830	0.572362	0.500071
N64	N	0.773830	0.822362	0.750071
C65	C	0.060607	0.020794	0.000080
C66	C	0.310607	0.270794	0.250080
C67	C	0.560607	0.520794	0.500080
C68	C	0.810607	0.770794	0.750080
O69	O	0.035908	-0.023737	0.000086
O70	O	0.285908	0.226263	0.250086
O71	O	0.535908	0.476263	0.500086
O72	O	0.785908	0.726263	0.750086
C73	C	0.120006	0.021506	0.000080
C74	C	0.370006	0.271506	0.250080
C75	C	0.620006	0.521506	0.500080
C76	C	0.870006	0.771506	0.750080
C77	C	0.142629	0.073785	0.000068
C78	C	0.392629	0.323785	0.250068
C79	C	0.642629	0.573785	0.500068
C80	C	0.892629	0.823785	0.750068
C81	C	0.128479	0.177625	0.000050
C82	C	0.378479	0.427625	0.250050
C83	C	0.628479	0.677625	0.500050
C84	C	0.878479	0.927625	0.750050
C85	C	0.187876	0.178336	0.000045
C86	C	0.437876	0.428336	0.250045
C87	C	0.687876	0.678336	0.500045
C88	C	0.937876	0.928336	0.750045
C89	C	0.224649	0.126772	0.000052
C90	C	0.474649	0.376772	0.250052
C91	C	0.724649	0.626772	0.500052
C92	C	0.974649	0.876772	0.750052
C93	C	0.202025	0.074497	0.000063
C94	C	0.452025	0.324497	0.250063
C95	C	0.702025	0.574497	0.500063
C96	C	0.952025	0.824497	0.750063
C97	C	0.156783	-0.030062	0.000093
C98	C	0.406783	0.219938	0.250093
C99	C	0.656783	0.469938	0.500093
C100	C	0.906783	0.719938	0.750093
C101	C	0.216185	-0.029345	0.000094
C102	C	0.466185	0.220655	0.250094
C103	C	0.716185	0.470655	0.500094
C104	C	0.966185	0.720655	0.750094
C105	C	0.238808	0.022934	0.000082
C106	C	0.488808	0.272934	0.250082
C107	C	0.738808	0.522934	0.500082
C108	C	0.988808	0.772934	0.750082
C109	C	0.298194	0.023643	0.000065
C110	C	0.548194	0.273643	0.250065
C111	C	0.798194	0.523643	0.500065
C112	C	1.048194	0.773643	0.750065
N113	N	0.320820	0.075920	0.000059
N114	N	0.570820	0.325920	0.250059
N115	N	0.820820	0.575920	0.500059
N116	N	1.070820	0.825920	0.750059
C117	C	0.284048	0.127484	0.000052
C118	C	0.534048	0.377484	0.250052
C119	C	0.784048	0.627484	0.500052
C120	C	1.034048	0.877484	0.750052
C121	C	-0.064135	0.019302	0.000080
C122	C	0.185865	0.269302	0.250080
C123	C	0.435865	0.519302	0.500080
C124	C	0.685865	0.769302	0.750080
C125	C	-0.123533	0.018589	0.000075
C126	C	0.126467	0.268589	0.250075
C127	C	0.376467	0.518589	0.500075
C128	C	0.626467	0.768589	0.750075
C129	C	-0.137680	0.122434	0.000061
C130	C	0.112320	0.372434	0.250061
C131	C	0.362320	0.622434	0.500061
C132	C	0.612320	0.872434	0.750061
C133	C	-0.078281	0.123146	0.000062
C134	C	0.171719	0.373146	0.250062
C135	C	0.421719	0.623146	0.500062
C136	C	0.671719	0.873146	0.750062
C137	C	-0.041509	0.071578	0.000074
C138	C	0.208491	0.321578	0.250074
C139	C	0.458491	0.571578	0.500074
C140	C	0.708491	0.821578	0.750074
C141	C	0.408784	0.128974	0.000042
C142	C	0.658784	0.378974	0.250042
C143	C	0.908784	0.628974	0.500042
C144	C	1.158784	0.878974	0.750042
C145	C	0.468186	0.129680	0.000034
C146	C	0.718186	0.379680	0.250034
C147	C	0.968186	0.629680	0.500034
C148	C	1.218186	0.879680	0.750034
C149	C	0.482329	0.025836	0.000051
C150	C	0.732329	0.275836	0.250051
C151	C	0.982329	0.525836	0.500051
C152	C	1.232329	0.775836	0.750051
C153	C	0.422932	0.025129	0.000055
C154	C	0.672932	0.275129	0.250055
C155	C	0.922932	0.525129	0.500055
C156	C	1.172932	0.775129	0.750055
C157	C	0.386160	0.076702	0.000052
C158	C	0.636160	0.326702	0.250052
C159	C	0.886160	0.576702	0.500052
C160	C	1.136160	0.826702	0.750052
O161	O	0.334974	-0.020119	0.000052
O162	O	0.584974	0.229881	0.250052
O163	O	0.834974	0.479881	0.500052
O164	O	1.084974	0.729881	0.750052
O165	O	0.308755	0.172007	0.000054
O166	O	0.558755	0.422007	0.250054
O167	O	0.808755	0.672007	0.500054
O168	O	1.058755	0.922007	0.750054
C169	C	0.677071	-0.030013	0.000072
C170	C	0.927071	0.219987	0.250072
C171	C	1.177071	0.469987	0.500072
C172	C	1.427071	0.719987	0.750072
C173	C	0.676305	-0.093230	0.000076
C174	C	0.926305	0.156770	0.250076
C175	C	1.176305	0.406770	0.500076
C176	C	1.426305	0.656770	0.750076
C177	C	0.723539	-0.492333	0.000049
C178	C	0.973539	-0.242333	0.250049
C179	C	1.223539	0.007667	0.500049
C180	C	1.473539	0.257667	0.750049
C181	C	0.722827	-0.551733	0.000044
C182	C	0.972827	-0.301733	0.250044
C183	C	1.222827	-0.051733	0.500044
C184	C	1.472827	0.198267	0.750044
O185	O	0.766613	-0.588478	0.000027
O186	O	1.016613	-0.338478	0.250027
O187	O	1.266613	-0.088478	0.500027
O188	O	1.516613	0.161522	0.750027
N189	N	0.670551	-0.574359	0.000039
N190	N	0.920551	-0.324359	0.250039
N191	N	1.170551	-0.074359	0.500039
N192	N	1.420551	0.175641	0.750039
C193	C	0.618983	-0.537582	0.000032
C194	C	0.868983	-0.287582	0.250032
C195	C	1.118983	-0.037582	0.500032
C196	C	1.368983	0.212418	0.750032
O197	O	0.574452	-0.562281	0.000027
O198	O	0.824452	-0.312281	0.250027
O199	O	1.074452	-0.062281	0.500027
O200	O	1.324452	0.187719	0.750027
C201	C	0.619695	-0.478182	0.000033
C202	C	0.869695	-0.228182	0.250033
C203	C	1.119695	0.021818	0.500033
C204	C	1.369695	0.271818	0.750033
C205	C	0.671974	-0.455560	0.000044
C206	C	0.921974	-0.205560	0.250044
C207	C	1.171974	0.044440	0.500044
C208	C	1.421974	0.294440	0.750044
C209	C	0.775814	-0.469710	0.000060
C210	C	1.025814	-0.219710	0.250060
C211	C	1.275814	0.030290	0.500060
C212	C	1.525814	0.280290	0.750060
C213	C	0.776525	-0.410313	0.000065
C214	C	1.026525	-0.160313	0.250065
C215	C	1.276525	0.089687	0.500065
C216	C	1.526525	0.339687	0.750065
C217	C	0.724961	-0.373540	0.000060
C218	C	0.974961	-0.123540	0.250060
C219	C	1.224961	0.126460	0.500060
C220	C	1.474961	0.376460	0.750060
C221	C	0.672685	-0.396164	0.000050
C222	C	0.922685	-0.146164	0.250050
C223	C	1.172685	0.103836	0.500050
C224	C	1.422685	0.353836	0.750050
C225	C	0.568127	-0.441406	0.000022
C226	C	0.818127	-0.191406	0.250022
C227	C	1.068127	0.058594	0.500022
C228	C	1.318127	0.308594	0.750022
C229	C	0.568844	-0.382004	0.000021
C230	C	0.818844	-0.132004	0.250021
C231	C	1.068844	0.117996	0.500021
C232	C	1.318844	0.367996	0.750021
C233	C	0.621123	-0.359381	0.000033
C234	C	0.871123	-0.109381	0.250033
C235	C	1.121123	0.140619	0.500033
C236	C	1.371123	0.390619	0.750033
C237	C	0.621832	-0.299995	0.000050
C238	C	0.871832	-0.049995	0.250050
C239	C	1.121832	0.200005	0.500050
C240	C	1.371832	0.450005	0.750050
N241	N	0.674109	-0.277368	0.000056
N242	N	0.924109	-0.027368	0.250056
N243	N	1.174109	0.222632	0.500056
N244	N	1.424109	0.472632	0.750056
C245	C	0.725673	-0.314141	0.000061
C246	C	0.975673	-0.064141	0.250061
C247	C	1.225673	0.185859	0.500061
C248	C	1.475673	0.435859	0.750061
C249	C	0.617491	-0.662324	0.000031
C250	C	0.867491	-0.412324	0.250031
C251	C	1.117491	-0.162324	0.500031
C252	C	1.367491	0.087676	0.750031
C253	C	0.616778	-0.721722	0.000034
C254	C	0.866778	-0.471722	0.250034
C255	C	1.116778	-0.221722	0.500034
C256	C	1.366778	0.028278	0.750034
C257	C	0.720623	-0.735869	0.000045
C258	C	0.970623	-0.485869	0.250045
C259	C	1.220623	-0.235869	0.500045
C260	C	1.470623	0.014131	0.750045
C261	C	0.721335	-0.676470	0.000046
C262	C	0.971335	-0.426470	0.250046
C263	C	1.221335	-0.176470	0.500046
C264	C	1.471335	0.073530	0.750046
C265	C	0.669767	-0.639698	0.000036
C266	C	0.919767	-0.389698	0.250036
C267	C	1.169767	-0.139698	0.500036
C268	C	1.419767	0.110302	0.750036
C269	C	0.727163	-0.189405	0.000073
C270	C	0.977163	0.060595	0.250073
C271	C	1.227163	0.310595	0.500073
C272	C	1.477163	0.560595	0.750073
C273	C	0.727869	-0.130003	0.000081
C274	C	0.977869	0.119997	0.250081
C275	C	1.227869	0.369997	0.500081
C276	C	1.477869	0.619997	0.750081
C277	C	0.624025	-0.115860	0.000067
C278	C	0.874025	0.134140	0.250067
C279	C	1.124025	0.384140	0.500067
C280	C	1.374025	0.634140	0.750067
C281	C	0.623318	-0.175257	0.000062
C282	C	0.873318	0.074743	0.250062
C283	C	1.123318	0.324743	0.500062
C284	C	1.373318	0.574743	0.750062
C285	C	0.674891	-0.212029	0.000063
C286	C	0.924891	0.037971	0.250063
C287	C	1.174891	0.287971	0.500063
C288	C	1.424891	0.537971	0.750063
O289	O	0.578070	-0.263215	0.000065
O290	O	0.828070	-0.013215	0.250065
O291	O	1.078070	0.236785	0.500065
O292	O	1.328070	0.486785	0.750065
O293	O	0.770196	-0.289433	0.000058
O294	O	1.020196	-0.039433	0.250058
O295	O	1.270196	0.210567	0.500058
O296	O	1.520196	0.460567	0.750058
C297	C	0.776472	0.069388	0.000069
C298	C	1.026472	0.319388	0.250069
C299	C	1.276472	0.569388	0.500069
C300	C	1.526472	0.819388	0.750069
C301	C	0.839689	0.070154	0.000071
C302	C	1.089689	0.320154	0.250071
C303	C	1.339689	0.570154	0.500071
C304	C	1.589689	0.820154	0.750071
C305	C	0.667577	0.178283	0.000045
C306	C	0.917577	0.428283	0.250045
C307	C	1.167577	0.678283	0.500045
C308	C	1.417577	0.928283	0.750045
C309	C	0.668343	0.241500	0.000036
C310	C	0.918343	0.491500	0.250036
C311	C	1.168343	0.741500	0.500036
C312	C	1.418343	0.991500	0.750036
N313	N	0.672288	0.074135	0.153314
N314	N	0.922288	0.324135	0.403314
N315	N	1.172288	0.574135	0.653314
N316	N	1.422288	0.824135	0.903314
N317	N	0.672364	0.074131	-0.153196
N318	N	0.922364	0.324131	0.096804
N319	N	1.172364	0.574131	0.346804
N320	N	1.422364	0.824131	0.596804
C321	C	0.706686	0.108496	0.561955
C322	C	0.956686	0.358496	0.811955
C323	C	1.206686	0.608496	1.061955
C324	C	1.456686	0.858496	1.311955
C325	C	0.706693	0.108494	0.623874
C326	C	0.956693	0.358494	0.873874
C327	C	1.206693	0.608494	1.123874
C328	C	1.456693	0.858494	1.373874
O329	O	0.735916	0.137705	0.655892
O330	O	0.985916	0.387705	0.905892
O331	O	1.235916	0.637705	1.155892
O332	O	1.485916	0.887705	1.405892
N333	N	0.672352	0.074128	0.654851
N334	N	0.922352	0.324128	0.904851
N335	N	1.172352	0.574128	1.154851
N336	N	1.422352	0.824128	1.404851
C337	C	0.638006	0.039758	0.623905
C338	C	0.888006	0.289758	0.873905
C339	C	1.138006	0.539758	1.123905
C340	C	1.388006	0.789758	1.373905
O341	O	0.608797	0.010527	0.655939
O342	O	0.858797	0.260527	0.905939
O343	O	1.108797	0.510527	1.155939
O344	O	1.358797	0.760527	1.405939
C345	C	0.638002	0.039757	0.561986
C346	C	0.888002	0.289757	0.811986
C347	C	1.138002	0.539757	1.061986
C348	C	1.388002	0.789757	1.311986
C349	C	0.672341	0.074129	0.531013
C350	C	0.922341	0.324129	0.781013
C351	C	1.172341	0.574129	1.031013
C352	C	1.422341	0.824129	1.281013
C353	C	0.741022	0.142864	0.530981
C354	C	0.991022	0.392864	0.780981
C355	C	1.241022	0.642864	1.030981
C356	C	1.491022	0.892864	1.280981
C357	C	0.741014	0.142867	0.469065
C358	C	0.991014	0.392867	0.719065
C359	C	1.241014	0.642867	0.969065
C360	C	1.491014	0.892867	1.219065
C361	C	0.706669	0.108500	0.438123
C362	C	0.956669	0.358500	0.688123
C363	C	1.206669	0.608500	0.938123
C364	C	1.456669	0.858500	1.188123
C365	C	0.672333	0.074131	0.469097
C366	C	0.922333	0.324131	0.719097
C367	C	1.172333	0.574131	0.969097
C368	C	1.422333	0.824131	1.219097
C369	C	0.603660	0.005383	0.531041
C370	C	0.853660	0.255383	0.781041
C371	C	1.103660	0.505383	1.031041
C372	C	1.353660	0.755383	1.281041
C373	C	0.603659	0.005384	0.469118
C374	C	0.853659	0.255384	0.719118
C375	C	1.103659	0.505384	0.969118
C376	C	1.353659	0.755384	1.219118
C377	C	0.637998	0.039757	0.438144
C378	C	0.887998	0.289757	0.688144
C379	C	1.137998	0.539757	0.938144
C380	C	1.387998	0.789757	1.188144
C381	C	0.637980	0.039766	0.376239
C382	C	0.887980	0.289766	0.626239
C383	C	1.137980	0.539766	0.876239
C384	C	1.387980	0.789766	1.126239
N385	N	0.672321	0.074132	0.345262
N386	N	0.922321	0.324132	0.595262
N387	N	1.172321	0.574132	0.845262
N388	N	1.422321	0.824132	1.095262
C389	C	0.706666	0.108498	0.376204
C390	C	0.956666	0.358498	0.626204
C391	C	1.206666	0.608498	0.876204
C392	C	1.456666	0.858498	1.126204
C393	C	0.638017	0.039762	0.753938
C394	C	0.888017	0.289762	1.003938
C395	C	1.138017	0.539762	1.253938
C396	C	1.388017	0.789762	1.503938
C397	C	0.638017	0.039766	0.815856
C398	C	0.888017	0.289766	1.065856
C399	C	1.138017	0.539766	1.315856
C400	C	1.388017	0.789766	1.565856
C401	C	0.706705	0.108502	0.815821
C402	C	0.956705	0.358502	1.065821
C403	C	1.206705	0.608502	1.315821
C404	C	1.456705	0.858502	1.565821
C405	C	0.706701	0.108501	0.753903
C406	C	0.956701	0.358501	1.003903
C407	C	1.206701	0.608501	1.253903
C408	C	1.456701	0.858501	1.503903
C409	C	0.672358	0.074128	0.722962
C410	C	0.922358	0.324128	0.972962
C411	C	1.172358	0.574128	1.222962
C412	C	1.422358	0.824128	1.472962
C413	C	0.706646	0.108501	0.246177
C414	C	0.956646	0.358501	0.496177
C415	C	1.206646	0.608501	0.746177
C416	C	1.456646	0.858501	0.996177
C417	C	0.706633	0.108502	0.184256
C418	C	0.956633	0.358502	0.434256
C419	C	1.206633	0.608502	0.684256
C420	C	1.456633	0.858502	0.934256
C421	C	0.637948	0.039764	0.184296
C422	C	0.887948	0.289764	0.434296
C423	C	1.137948	0.539764	0.684296
C424	C	1.387948	0.789764	0.934296
C425	C	0.637958	0.039765	0.246212
C426	C	0.887958	0.289765	0.496212
C427	C	1.137958	0.539765	0.746212
C428	C	1.387958	0.789765	0.996212
C429	C	0.672312	0.074135	0.277151
C430	C	0.922312	0.324135	0.527151
C431	C	1.172312	0.574135	0.777151
C432	C	1.422312	0.824135	1.027151
O433	O	0.608774	0.010568	0.344182
O434	O	0.858774	0.260568	0.594182
O435	O	1.108774	0.510568	0.844182
O436	O	1.358774	0.760568	1.094182
O437	O	0.735875	0.137719	0.344163
O438	O	0.985875	0.387719	0.594163
O439	O	1.235875	0.637719	0.844163
O440	O	1.485875	0.887719	1.094163
H441	H	-0.034198	-0.022693	0.000084
H442	H	0.215802	0.227307	0.250084
H443	H	0.465802	0.477307	0.500084
H444	H	0.715802	0.727307	0.750084
H445	H	0.575496	-0.632386	0.000028
H446	H	0.825496	-0.382386	0.250028
H447	H	1.075496	-0.132386	0.500028
H448	H	1.325496	0.117614	0.750028
Cl449	Cl	0.551053	-0.750154	0.000032
Cl450	Cl	0.801053	-0.500154	0.250032
Cl451	Cl	1.051053	-0.250154	0.500032
Cl452	Cl	1.301053	-0.000154	0.750032
Cl453	Cl	0.840647	-0.515929	0.000067
Cl454	Cl	1.090647	-0.265929	0.250067
Cl455	Cl	1.340647	-0.015929	0.500067
Cl456	Cl	1.590647	0.234071	0.750067
Cl457	Cl	-0.049848	0.188872	0.000049
Cl458	Cl	0.200152	0.438872	0.250049
Cl459	Cl	0.450152	0.688872	0.500049
Cl460	Cl	0.700152	0.938872	0.750049
Cl461	Cl	-0.183920	0.187258	0.000056
Cl462	Cl	0.066080	0.437258	0.250056
Cl463	Cl	0.316080	0.687258	0.500056
Cl464	Cl	0.566080	0.937258	0.750056
H465	H	0.512280	-0.016146	0.000054
H466	H	0.762280	0.233854	0.250054
H467	H	1.012280	0.483854	0.500054
H468	H	1.262280	0.733854	0.750054
H469	H	0.734620	0.136488	0.271360
H470	H	0.984620	0.386488	0.521360
H471	H	1.234620	0.636488	0.771360
H472	H	1.484620	0.886488	1.021360
H473	H	0.098544	0.219617	0.000046
H474	H	0.348544	0.469617	0.250046
H475	H	0.598544	0.719617	0.500046
H476	H	0.848544	0.969617	0.750046
H477	H	0.525555	-0.459814	0.000009
H478	H	0.775555	-0.209814	0.250009
H479	H	1.025555	0.040186	0.500009
H480	H	1.275555	0.290186	0.750009
H481	H	0.609984	0.011785	0.159092
H482	H	0.859984	0.261785	0.409092
H483	H	1.109984	0.511785	0.659092
H484	H	1.359984	0.761785	0.909092
H485	H	0.610048	0.011784	0.841070
H486	H	0.860048	0.261784	1.091070
H487	H	1.110048	0.511784	1.341070
H488	H	1.360048	0.761784	1.591070
H489	H	0.734595	0.136494	0.159040
H490	H	0.984595	0.386494	0.409040
H491	H	1.234595	0.636494	0.659040
H492	H	1.484595	0.886494	0.909040
H493	H	0.246123	-0.071339	0.000104
H494	H	0.496123	0.178661	0.250104
H495	H	0.746123	0.428661	0.500104
H496	H	0.996123	0.678661	0.750104
Cl497	Cl	0.559205	-0.069621	0.000059
Cl498	Cl	0.809205	0.180379	0.250059
Cl499	Cl	1.059205	0.430379	0.500059
Cl500	Cl	1.309205	0.680379	0.750059
H501	H	0.768979	0.170854	0.443852
H502	H	1.018979	0.420854	0.693852
H503	H	1.268979	0.670854	0.943852
H504	H	1.518979	0.920854	1.193852
H505	H	0.609989	0.011784	0.271432
H506	H	0.859989	0.261784	0.521432
H507	H	1.109989	0.511784	0.771432
H508	H	1.359989	0.761784	1.021432
H509	H	0.763906	-0.658056	0.000054
H510	H	1.013906	-0.408056	0.250054
H511	H	1.263906	-0.158056	0.500054
H512	H	1.513906	0.091944	0.750054
Cl513	Cl	0.784203	0.186075	0.569868
Cl514	Cl	1.034203	0.436075	0.819868
Cl515	Cl	1.284203	0.686075	1.069868
Cl516	Cl	1.534203	0.936075	1.319868
H517	H	0.206289	0.220908	0.000035
H518	H	0.456289	0.470908	0.250035
H519	H	0.706289	0.720908	0.500035
H520	H	0.956289	0.970908	0.750035
Cl521	Cl	0.749874	0.151710	0.714971
Cl522	Cl	0.999874	0.401710	0.964971
Cl523	Cl	1.249874	0.651710	1.214971
Cl524	Cl	1.499874	0.901710	1.464971
H525	H	0.580748	-0.193677	0.000069
H526	H	0.830748	0.056323	0.250069
H527	H	1.080748	0.306323	0.500069
H528	H	1.330748	0.556323	0.750069
H529	H	0.610045	0.011774	0.728750
H530	H	0.860045	0.261774	0.978750
H531	H	1.110045	0.511774	1.228750
H532	H	1.360045	0.761774	1.478750
Cl533	Cl	0.496622	0.195408	0.000017
Cl534	Cl	0.746622	0.445408	0.250017
Cl535	Cl	0.996622	0.695408	0.500017
Cl536	Cl	1.246622	0.945408	0.750017
H537	H	0.526850	-0.352066	0.000013
H538	H	0.776850	-0.102066	0.250013
H539	H	1.026850	0.147934	0.500013
H540	H	1.276850	0.397934	0.750013
Cl541	Cl	0.749885	0.151703	0.854732
Cl542	Cl	0.999885	0.401703	1.104732
Cl543	Cl	1.249885	0.651703	1.354732
Cl544	Cl	1.499885	0.901703	1.604732
Cl545	Cl	0.793597	-0.101567	0.000094
Cl546	Cl	1.043597	0.148433	0.250094
Cl547	Cl	1.293597	0.398433	0.500094
Cl548	Cl	1.543597	0.648433	0.750094
H549	H	0.762610	-0.765821	0.000047
H550	H	1.012610	-0.515821	0.250047
H551	H	1.262610	-0.265821	0.500047
H552	H	1.512610	-0.015821	0.750047
H553	H	0.575698	-0.022607	0.556249
H554	H	0.825698	0.227393	0.806249
H555	H	1.075698	0.477393	1.056249
H556	H	1.325698	0.727393	1.306249
H557	H	0.378851	0.170970	0.000041
H558	H	0.628851	0.420970	0.250041
H559	H	0.878851	0.670970	0.500041
H560	H	1.128851	0.920970	0.750041
Cl561	Cl	-0.151965	-0.047136	0.000075
Cl562	Cl	0.098035	0.202864	0.250075
Cl563	Cl	0.348035	0.452864	0.500075
Cl564	Cl	0.598035	0.702864	0.750075
H565	H	0.575693	-0.022607	0.443929
H566	H	0.825693	0.227393	0.693929
H567	H	1.075693	0.477393	0.943929
H568	H	1.325693	0.727393	1.193929
Cl569	Cl	0.128358	-0.095789	0.000098
Cl570	Cl	0.378358	0.154211	0.250098
Cl571	Cl	0.628358	0.404211	0.500098
Cl572	Cl	0.878358	0.654211	0.750098
H573	H	0.404512	-0.017441	0.000056
H574	H	0.654512	0.232559	0.250056
H575	H	0.904512	0.482559	0.500056
H576	H	1.154512	0.732559	0.750056
Cl577	Cl	0.791999	-0.235622	0.000075
Cl578	Cl	1.041999	0.014378	0.250075
Cl579	Cl	1.291999	0.264378	0.500075
Cl580	Cl	1.541999	0.514378	0.750075
H581	H	0.819097	-0.391900	0.000072
H582	H	1.069097	-0.141900	0.250072
H583	H	1.319097	0.108100	0.500072
H584	H	1.569097	0.358100	0.750072
