data_functionalizedCrystal
_audit_creation_method	'MofGen! by Chris Wilmer'
_symmetry_space_group_name_H-M	'P1'
_symmetry_Int_Tables_number	1
_symmetry_cell_setting	triclinic
loop_
_symmetry_equiv_pos_as_xyz
  x,y,z
_cell_length_a	15.944551
_cell_length_b	14.853567
_cell_length_c	13.330367
_cell_angle_alpha	90.000844
_cell_angle_beta	89.996937
_cell_angle_gamma	96.433166
loop_
_atom_site_label
_atom_site_type_symbol
_atom_site_fract_x
_atom_site_fract_y
_atom_site_fract_z
O1	O	1.114658	-0.116273	-0.083310
O2	O	1.614658	0.383727	0.416690
O3	O	0.870124	-0.130608	-0.083334
O4	O	1.370124	0.369392	0.416666
O5	O	0.998923	0.007798	-0.083325
O6	O	1.498923	0.507798	0.416675
O7	O	0.985859	-0.254678	-0.083320
O8	O	1.485859	0.245322	0.416680
O9	O	0.998904	0.007801	0.083522
O10	O	1.498904	0.507801	0.583522
O11	O	0.870105	-0.130605	0.083513
O12	O	1.370105	0.369395	0.583513
O13	O	1.114639	-0.116270	0.083537
O14	O	1.614639	0.383730	0.583537
Cu15	Cu	0.992370	-0.123437	0.098759
Cu16	Cu	1.492370	0.376563	0.598759
Cu17	Cu	0.992392	-0.123441	-0.098557
Cu18	Cu	1.492392	0.376559	0.401443
O19	O	0.985840	-0.254675	0.083527
O20	O	1.485840	0.245325	0.583527
C21	C	0.838820	-0.130011	0.000086
C22	C	1.338820	0.369989	0.500086
C23	C	0.745572	-0.128227	0.000077
C24	C	1.245572	0.371773	0.500077
C25	C	0.998321	0.041387	0.000096
C26	C	1.498321	0.541387	0.500096
C27	C	0.996547	0.141469	0.000087
C28	C	1.496547	0.641469	0.500087
N29	N	0.992361	-0.123434	0.237541
N30	N	1.492361	0.376566	0.737541
C31	C	0.530615	-0.038172	0.000094
C32	C	1.030615	0.461828	0.500094
C33	C	0.469651	-0.079992	-0.082169
C34	C	0.969651	0.420008	0.417831
C35	C	0.574842	-0.124999	0.000088
C36	C	1.074842	0.375001	0.500088
C37	C	0.469654	-0.080010	0.082329
C38	C	0.969654	0.419990	0.582329
C39	C	0.409926	-0.121875	0.000104
C40	C	0.909926	0.378125	0.500104
C41	C	0.515106	-0.166843	-0.082243
C42	C	1.015106	0.333157	0.417757
C43	C	0.515116	-0.166849	0.082329
C44	C	1.015116	0.333151	0.582329
C45	C	0.454170	-0.208732	0.000045
C46	C	0.954170	0.291268	0.500045
C47	C	0.669847	-0.126797	0.000078
C48	C	1.169847	0.373203	0.500078
C49	C	0.314923	-0.120085	0.000107
C50	C	0.814923	0.379915	0.500107
C51	C	1.145943	-0.116866	0.000114
C52	C	1.645943	0.383134	0.500114
C53	C	1.239191	-0.118650	0.000117
C54	C	1.739191	0.381350	0.500117
C55	C	0.986441	-0.288265	0.000104
C56	C	1.486441	0.211735	0.500104
C57	C	0.988215	-0.388346	0.000107
C58	C	1.488215	0.111654	0.500107
C59	C	0.912540	0.553895	0.000098
C60	C	1.412540	1.053895	0.500098
C61	C	1.065556	0.575372	0.000113
C62	C	1.565556	1.075372	0.500113
C63	C	1.067224	0.481341	0.000107
C64	C	1.567224	0.981341	0.500107
C65	C	0.991549	0.423582	0.000098
C66	C	1.491549	0.923582	0.500098
C67	C	0.914206	0.459854	0.000095
C68	C	1.414206	0.959854	0.500095
C69	C	1.144565	0.445061	0.000120
C70	C	1.644565	0.945061	0.500120
C71	C	1.146236	0.351024	0.000116
C72	C	1.646236	0.851024	0.500116
C73	C	1.070560	0.293263	0.000100
C74	C	1.570560	0.793263	0.500100
C75	C	0.993214	0.329541	0.000096
C76	C	1.493214	0.829541	0.500096
C77	C	0.917539	0.271782	0.000087
C78	C	1.417539	0.771782	0.500087
C79	C	0.840192	0.308058	0.000075
C80	C	1.340192	0.808058	0.500075
C81	C	0.838530	0.402093	0.000079
C82	C	1.338530	0.902093	0.500079
C83	C	1.072223	0.199228	0.000096
C84	C	1.572223	0.699228	0.500096
C85	C	0.919205	0.177741	0.000084
C86	C	1.419205	0.677741	0.500084
N87	N	0.992408	-0.123437	-0.237338
N88	N	1.492408	0.376563	0.262662
C89	C	0.935358	-0.184703	0.710159
C90	C	1.435358	0.315297	1.210159
C91	C	1.049450	-0.062172	0.710136
C92	C	1.549450	0.437828	1.210136
C93	C	1.049440	-0.062169	0.605118
C94	C	1.549440	0.437831	1.105118
C95	C	0.992389	-0.123435	0.552615
C96	C	1.492389	0.376565	1.052615
C97	C	0.935348	-0.184704	0.605131
C98	C	1.435348	0.315296	1.105131
C99	C	1.106486	-0.000907	0.552594
C100	C	1.606486	0.499093	1.052594
C101	C	1.106479	-0.000903	0.447569
C102	C	1.606479	0.499097	0.947569
C103	C	1.049424	-0.062165	0.395065
C104	C	1.549424	0.437835	0.895065
C105	C	0.992380	-0.123436	0.447587
C106	C	1.492380	0.376564	0.947587
C107	C	0.935329	-0.184702	0.395085
C108	C	1.435329	0.315298	0.895085
C109	C	0.878280	-0.245969	0.447606
C110	C	1.378280	0.254031	0.947606
C111	C	0.878293	-0.245966	0.552627
C112	C	1.378293	0.254034	1.052627
C113	C	1.049411	-0.062168	0.290043
C114	C	1.549411	0.437832	0.790043
C115	C	0.935320	-0.184703	0.290057
C116	C	1.435320	0.315297	0.790057
H117	H	0.449507	-0.043269	-0.151719
H118	H	0.949507	0.456731	0.348281
C119	C	0.542163	-0.216414	-0.176304
C120	C	1.042163	0.283586	0.323696
H121	H	0.493798	-0.235997	-0.215535
H122	H	0.993798	0.264003	0.284465
H123	H	0.580158	-0.176399	-0.214760
H124	H	1.080158	0.323601	0.285240
H125	H	0.569216	-0.267441	-0.156641
H126	H	1.069216	0.232559	0.343359
H127	H	0.449519	-0.043268	0.151874
H128	H	0.949519	0.456732	0.651874
C129	C	1.231310	0.311123	0.000125
C130	C	1.731310	0.811123	0.500125
H131	H	1.221466	0.246847	0.000127
H132	H	1.721466	0.746847	0.500127
H133	H	1.262482	0.330951	-0.058052
H134	H	1.762482	0.830951	0.441948
H135	H	1.262462	0.330944	0.058322
H136	H	1.762462	0.830944	0.558322
H137	H	0.421092	-0.280866	0.000001
H138	H	0.921092	0.219134	0.500001
H139	H	0.888859	-0.234590	0.247316
H140	H	1.388859	0.265410	0.747316
H141	H	0.831847	-0.295848	0.595396
H142	H	1.331847	0.204152	1.095396
C143	C	0.815530	-0.313358	0.389846
C144	C	1.315530	0.186642	0.889846
H145	H	0.823698	-0.304578	0.319778
H146	H	1.323698	0.195422	0.819778
H147	H	0.824715	-0.373535	0.407055
H148	H	1.324715	0.126465	0.907055
H149	H	0.759460	-0.303521	0.407059
H150	H	1.259460	0.196479	0.907059
H151	H	0.535281	-0.203541	0.151882
H152	H	1.035281	0.296459	0.651882
H153	H	1.152930	0.048984	0.404813
H154	H	1.652930	0.548984	0.904813
C155	C	0.872611	-0.252094	0.767925
C156	C	1.372611	0.247906	1.267925
H157	H	0.880787	-0.243325	0.837993
H158	H	1.380787	0.256675	1.337993
H159	H	0.816544	-0.242267	0.750721
H160	H	1.316544	0.257733	1.250721
H161	H	0.881807	-0.312272	0.750711
H162	H	1.381807	0.187728	1.250711
H163	H	1.135197	0.169696	0.000112
H164	H	1.635197	0.669696	0.500112
H165	H	0.775558	0.431638	0.000071
H166	H	1.275558	0.931638	0.500071
H167	H	1.095903	-0.012295	0.752887
H168	H	1.595903	0.487705	1.252887
H169	H	0.857580	0.130719	0.000072
H170	H	1.357580	0.630719	0.500072
C171	C	1.169236	0.066477	0.610345
C172	C	1.669236	0.566477	1.110345
H173	H	1.161064	0.057709	0.680414
H174	H	1.661064	0.557709	1.180414
H175	H	1.225303	0.056647	0.593129
H176	H	1.725303	0.556647	1.093129
H177	H	1.160044	0.126657	0.593136
H178	H	1.660044	0.626657	1.093136
H179	H	0.778578	0.261018	0.000075
H180	H	1.278578	0.761018	0.500075
H181	H	1.095863	-0.012289	0.247286
H182	H	1.595863	0.487711	0.747286
H183	H	0.563867	0.033887	-0.000009
H184	H	1.063867	0.533887	0.499991
H185	H	0.849566	0.583435	0.000085
H186	H	1.349566	1.083435	0.500085
C187	C	1.148791	0.638903	0.000125
C188	C	1.648791	1.138903	0.500125
H189	H	1.136722	0.700102	0.000122
H190	H	1.636722	1.200102	0.500122
H191	H	1.180496	0.627902	0.058308
H192	H	1.680496	1.127902	0.558308
H193	H	1.180503	0.627910	-0.058066
H194	H	1.680503	1.127910	0.441934
H195	H	1.206176	0.492094	0.000137
H196	H	1.706176	0.992094	0.500137
