data_functionalizedCrystal
_audit_creation_method	'MofGen! by Chris Wilmer'
_symmetry_space_group_name_H-M	'P1'
_symmetry_Int_Tables_number	1
_symmetry_cell_setting	triclinic
loop_
_symmetry_equiv_pos_as_xyz
  x,y,z
_cell_length_a	19.121747
_cell_length_b	21.395362
_cell_length_c	21.395355
_cell_angle_alpha	89.956060
_cell_angle_beta	92.423270
_cell_angle_gamma	87.607996
loop_
_atom_site_label
_atom_site_type_symbol
_atom_site_fract_x
_atom_site_fract_y
_atom_site_fract_z
Zn1	Zn	-0.279375	0.968491	-0.365231
Zn2	Zn	0.220625	1.468491	0.134769
Zn3	Zn	-0.396799	0.972862	-0.264928
Zn4	Zn	0.103201	1.472862	0.235072
Zn5	Zn	-0.279408	0.863707	-0.260434
Zn6	Zn	0.220592	1.363707	0.239566
Zn7	Zn	-0.396813	0.868145	-0.369634
Zn8	Zn	0.103187	1.368145	0.130366
O9	O	-0.338099	0.918301	-0.315057
O10	O	0.161901	1.418301	0.184943
O11	O	-0.294932	1.056748	-0.351965
O12	O	0.205068	1.556748	0.148035
O13	O	-0.381234	0.958355	-0.176655
O14	O	0.118766	1.458355	0.323345
O15	O	-0.181127	0.873921	-0.270612
O16	O	0.318873	1.373921	0.229388
O17	O	-0.381202	1.059960	-0.278272
O18	O	0.118798	1.559960	0.221728
O19	O	-0.181103	0.950905	-0.347606
O20	O	0.318897	1.450905	0.152394
O21	O	-0.294988	0.878160	-0.173353
O22	O	0.205012	1.378160	0.326647
O23	O	-0.295002	0.776619	-0.274881
O24	O	0.204998	1.276619	0.225119
O25	O	-0.381227	0.881483	-0.456727
O26	O	0.118773	1.381483	0.043273
O27	O	-0.381259	0.779879	-0.355110
O28	O	0.118741	1.279879	0.144890
O29	O	-0.294946	0.955208	-0.453493
O30	O	0.205054	1.455208	0.046507
O31	O	-0.495077	0.962658	-0.282541
O32	O	0.004923	1.462658	0.217459
O33	O	-0.495088	0.885722	-0.359468
O34	O	0.004912	1.385722	0.140532
C35	C	-0.338136	0.755515	-0.314986
C36	C	0.161864	1.255515	0.185014
C37	C	-0.338169	0.685875	-0.314971
C38	C	0.161831	1.185875	0.185029
C39	C	-0.383142	0.654878	-0.356688
C40	C	0.116858	1.154878	0.143312
C41	C	-0.383125	0.589442	-0.356715
C42	C	0.116875	1.089442	0.143285
C43	C	-0.338142	0.555006	-0.315014
C44	C	0.161858	1.055006	0.184986
C45	C	-0.293159	0.586010	-0.273294
C46	C	0.206841	1.086010	0.226706
C47	C	-0.293173	0.651445	-0.273272
C48	C	0.206827	1.151445	0.226728
C49	C	-0.332484	0.451066	-0.258393
C50	C	0.167516	0.951066	0.241607
C51	C	-0.332475	0.385633	-0.258414
C52	C	0.167525	0.885633	0.241586
C53	C	-0.338096	0.353183	-0.315082
C54	C	0.161904	0.853183	0.184918
C55	C	-0.343739	0.386176	-0.371730
C56	C	0.156261	0.886176	0.128270
C57	C	-0.343753	0.451611	-0.371709
C58	C	0.156247	0.951611	0.128291
C59	C	-0.338122	0.484053	-0.315033
C60	C	0.161878	0.984053	0.184967
C61	C	-0.383053	0.251233	-0.356832
C62	C	0.116947	0.751233	0.143168
C63	C	-0.383031	0.185796	-0.356860
C64	C	0.116969	0.685796	0.143140
C65	C	-0.293069	0.182366	-0.273433
C66	C	0.206931	0.682366	0.226567
C67	C	-0.293087	0.247802	-0.273411
C68	C	0.206913	0.747802	0.226589
C69	C	-0.338083	0.282232	-0.315109
C70	C	0.161917	0.782232	0.184891
C71	C	-0.520565	0.925163	-0.321984
C72	C	-0.020565	1.425163	0.178016
C73	C	-0.598624	0.928155	-0.324968
C74	C	-0.098624	1.428155	0.175032
C75	C	-1.040110	0.947139	-0.343871
C76	C	-0.540110	1.447139	0.156129
C77	C	-0.966765	0.944320	-0.341061
C78	C	-0.466765	1.444320	0.158939
C79	C	-0.930171	0.902862	-0.299543
C80	C	-0.430171	1.402862	0.200457
C81	C	-0.966926	0.864223	-0.260828
C82	C	-0.466926	1.364223	0.239172
C83	C	-1.040270	0.867046	-0.263634
C84	C	-0.540270	1.367046	0.236366
C85	C	-0.708723	0.892339	-0.289059
C86	C	-0.208723	1.392339	0.210941
C87	C	-0.635374	0.889519	-0.286256
C88	C	-0.135374	1.389519	0.213744
C89	C	-0.635218	0.969617	-0.366490
C90	C	-0.135218	1.469617	0.133510
C91	C	-0.708564	0.972433	-0.369295
C92	C	-0.208564	1.472433	0.130705
C93	C	-0.745312	0.933797	-0.330578
C94	C	-0.245312	1.433797	0.169422
C95	C	-0.855200	0.899978	-0.296672
C96	C	-0.355200	1.399978	0.203328
C97	C	-0.820282	0.936684	-0.333446
C98	C	-0.320282	1.436684	0.166554
C99	C	-0.154920	0.911431	-0.308117
C100	C	0.345080	1.411431	0.191883
C101	C	-0.076860	0.908503	-0.305160
C102	C	0.423140	1.408503	0.194840
C103	C	-0.338084	0.918353	-0.478480
C104	C	0.161916	1.418353	0.021520
C105	C	-0.338078	0.918375	-0.548121
C106	C	0.161922	1.418375	-0.048121
C107	C	-0.338062	1.081723	-0.315129
C108	C	0.161938	1.581723	0.184871
C109	C	-0.338046	1.151364	-0.315159
C110	C	0.161954	1.651364	0.184841
C111	C	-0.293150	0.956761	-0.579151
C112	C	0.206850	1.456761	-0.079151
C113	C	-0.293120	0.956759	-0.644585
C114	C	0.206880	1.456759	-0.144585
C115	C	-0.338031	0.918378	-0.678987
C116	C	0.161969	1.418378	-0.178987
C117	C	-0.382962	0.879984	-0.647950
C118	C	0.117038	1.379984	-0.147950
C119	C	-0.382986	0.879982	-0.582516
C120	C	0.117014	1.379982	-0.082516
C121	C	-0.401267	0.915808	-0.785061
C122	C	0.098733	1.415808	-0.285061
C123	C	-0.401244	0.915814	-0.850493
C124	C	0.098756	1.415814	-0.350493
C125	C	-0.337956	0.918379	-0.880805
C126	C	0.162044	1.418379	-0.380805
C127	C	-0.274689	0.920951	-0.845677
C128	C	0.225311	1.420951	-0.345677
C129	C	-0.274713	0.920949	-0.780244
C130	C	0.225287	1.420949	-0.280244
C131	C	-0.338009	0.918375	-0.749939
C132	C	0.161991	1.418375	-0.249939
C133	C	-0.292991	0.956765	-0.982786
C134	C	0.207009	1.456765	-0.482786
C135	C	-0.292960	0.956759	-1.048222
C136	C	0.207040	1.456759	-0.548222
C137	C	-0.382809	0.879987	-1.051586
C138	C	0.117191	1.379987	-0.551586
C139	C	-0.382834	0.879990	-0.986151
C140	C	0.117166	1.379990	-0.486151
C141	C	-0.337926	0.918382	-0.951756
C142	C	0.162074	1.418382	-0.451756
C143	C	-0.338062	0.918284	-0.152268
C144	C	0.161938	1.418284	0.347732
C145	C	-0.337870	0.918376	-0.082620
C146	C	0.162130	1.418376	0.417380
H147	H	-0.327884	0.358775	-0.212288
H148	H	0.172116	0.858775	0.287712
C149	C	-0.748811	1.018050	-0.414959
C150	C	-0.248811	1.518050	0.085041
N151	N	-0.779126	1.052412	-0.449352
N152	N	-0.279126	1.552412	0.050648
H153	H	-0.419748	0.564199	-0.390689
H154	H	0.080252	1.064199	0.109311
C155	C	-0.205066	0.923770	-0.879016
C156	C	0.294934	1.423770	-0.379016
N157	N	-0.152628	0.925895	-0.904129
N158	N	0.347372	1.425895	-0.404129
H159	H	-0.850080	0.970442	-0.367248
H160	H	-0.350080	1.470442	0.132752
C161	C	-0.594789	1.012119	-0.409071
C162	C	-0.094789	1.512119	0.090929
N163	N	-0.564337	1.044135	-0.441143
N164	N	-0.064337	1.544135	0.058857
C165	C	-0.470839	0.912985	-0.889127
C166	C	0.029161	1.412985	-0.389127
N167	N	-0.523260	0.910853	-0.918225
N168	N	-0.023260	1.410853	-0.418225
C169	C	-0.349960	0.487900	-0.434021
C170	C	0.150040	0.987900	0.065979
N171	N	-0.354635	0.515233	-0.480955
N172	N	0.145365	1.015233	0.019045
H173	H	-0.348315	0.359758	-0.417874
H174	H	0.151685	0.859758	0.082126
H175	H	-0.256421	0.988023	-0.954780
H176	H	0.243579	1.488023	-0.454780
C177	C	-0.926343	0.986833	-0.383638
C178	C	-0.426343	1.486833	0.116362
N179	N	-0.895898	1.018860	-0.415706
N180	N	-0.395898	1.518860	0.084294
H181	H	-0.256370	0.988017	-1.073485
H182	H	0.243630	1.488017	-0.573485
H183	H	-1.070191	0.835584	-0.232111
H184	H	-0.570191	1.335584	0.267889
H185	H	-0.937127	0.830469	-0.227019
H186	H	-0.437127	1.330469	0.272981
C187	C	-0.432212	0.837767	-1.089424
C188	C	0.067788	1.337767	-0.589424
N189	N	-0.469423	0.805966	-1.117928
N190	N	0.030577	1.305966	-0.617928
C191	C	-0.432262	0.837764	-0.952017
C192	C	0.067738	1.337764	-0.452017
N193	N	-0.469493	0.805956	-0.926308
N194	N	0.030507	1.305956	-0.426308
C195	C	-0.814940	0.854369	-0.251008
C196	C	-0.314940	1.354369	0.248992
N197	N	-0.784613	0.820016	-0.216614
N198	N	-0.284613	1.320016	0.283386
H199	H	-0.419571	0.848720	-0.557252
H200	H	0.080429	1.348720	-0.057252
C201	C	-0.432541	0.289108	-0.402708
C202	C	0.067459	0.789108	0.097292
N203	N	-0.469814	0.317634	-0.437263
N204	N	0.030186	0.817634	0.062737
H205	H	-0.452791	0.913552	-0.760386
H206	H	0.047209	1.413552	-0.260386
H207	H	-0.419527	0.848731	-0.675964
H208	H	0.080473	1.348731	-0.175964
H209	H	-0.605583	0.855755	-0.252445
H210	H	-0.105583	1.355755	0.247555
H211	H	-1.069900	0.980893	-0.377686
H212	H	-0.569900	1.480893	0.122314
C213	C	-0.326304	0.486753	-0.196051
C214	C	0.173696	0.986753	0.303949
N215	N	-0.321650	0.513632	-0.149095
N216	N	0.178350	1.013632	0.350905
H217	H	-0.419780	0.682907	-0.390643
H218	H	0.080220	1.182907	0.109357
H219	H	-0.738636	0.860879	-0.257532
H220	H	-0.238636	1.360879	0.242468
C221	C	-0.243740	0.998986	-0.541319
C222	C	0.256260	1.498986	-0.041319
N223	N	-0.206522	1.030787	-0.512823
N224	N	0.293478	1.530787	-0.012823
H225	H	-0.419653	0.160559	-0.390835
H226	H	0.080347	0.660559	0.109165
C227	C	-0.243586	0.144489	-0.227562
C228	C	0.256414	0.644489	0.272438
N229	N	-0.206313	0.115958	-0.193011
N230	N	0.293687	0.615958	0.306989
H231	H	-0.256532	0.557968	-0.239342
H232	H	0.243468	1.057968	0.260658
C233	C	-0.243618	0.281900	-0.227512
C234	C	0.256382	0.781900	0.272488
N235	N	-0.206356	0.307582	-0.192940
N236	N	0.293644	0.807582	0.307060
H237	H	-0.256548	0.676682	-0.239301
H238	H	0.243452	1.176682	0.260699
C239	C	-0.243697	0.998993	-0.678725
C240	C	0.256303	1.498993	-0.178725
N241	N	-0.206474	1.030805	-0.704438
N242	N	0.293526	1.530805	-0.204438
H243	H	-0.223199	0.923041	-0.751646
H244	H	0.276801	1.423041	-0.251646
