data_functionalizedCrystal
_audit_creation_method	'MofGen! by Chris Wilmer'
_symmetry_space_group_name_H-M	'P1'
_symmetry_Int_Tables_number	1
_symmetry_cell_setting	triclinic
loop_
_symmetry_equiv_pos_as_xyz
  x,y,z
_cell_length_a	17.038272
_cell_length_b	15.072220
_cell_length_c	15.995350
_cell_angle_alpha	89.991130
_cell_angle_beta	87.301965
_cell_angle_gamma	90.012145
loop_
_atom_site_label
_atom_site_type_symbol
_atom_site_fract_x
_atom_site_fract_y
_atom_site_fract_z
O1	O	-1.037399	0.073664	-0.181832
O2	O	-0.809767	0.073691	-0.178945
O3	O	-0.929805	0.073676	-0.058944
O4	O	-0.917360	0.073679	-0.301833
O5	O	-0.929821	-0.073889	-0.058922
O6	O	-0.809782	-0.073875	-0.178923
O7	O	-1.037414	-0.073901	-0.181810
Zn8	Zn	-0.923601	-0.097317	-0.180363
Zn9	Zn	-0.923580	0.097107	-0.180392
O10	O	-0.917376	-0.073886	-0.301811
C11	C	-0.780646	-0.000089	-0.176308
C12	C	-0.693851	-0.000079	-0.168474
C13	C	-0.929298	-0.000105	-0.027702
C14	C	-0.927756	-0.000100	0.065359
C15	C	-1.066535	-0.000120	-0.184447
C16	C	-1.153330	-0.000124	-0.192281
C17	C	-0.643755	-0.000078	-0.240402
C18	C	-0.562202	-0.000091	-0.233036
C19	C	-0.530748	-0.000097	-0.153741
C20	C	-0.580851	-0.000100	-0.081807
C21	C	-0.662402	-0.000094	-0.089174
C22	C	-0.284984	-0.000121	-0.127714
C23	C	-0.203426	-0.000124	-0.120353
C24	C	-0.184783	-0.000117	-0.271583
C25	C	-0.266336	-0.000105	-0.278943
C26	C	-0.316432	-0.000113	-0.207009
C27	C	-0.447389	-0.000107	-0.146209
C28	C	-0.399790	-0.000110	-0.214541
N29	N	-0.923620	-0.230006	-0.180344
N30	N	-0.923567	0.229795	-0.180405
C31	C	-0.923602	0.588997	-0.180364
C32	C	-0.859441	0.551398	-0.244653
C33	C	-0.859203	0.448572	-0.244472
C34	C	-0.923585	0.410793	-0.180385
C35	C	-0.905981	0.448101	-0.091695
C36	C	-0.905530	0.550959	-0.092054
C37	C	-1.005557	0.551073	-0.203997
C38	C	-1.005001	0.448209	-0.205956
C39	C	-0.923577	0.310079	-0.180391
C40	C	-0.923609	0.689710	-0.180351
C41	C	-0.917883	-0.000103	-0.333053
C42	C	-0.919425	-0.000103	-0.426114
C43	C	-0.922217	-0.000102	0.403501
C44	C	-0.836728	0.000239	0.362156
C45	C	-0.838270	-0.000094	0.265356
C46	C	-0.924964	-0.000100	0.235744
C47	C	-0.967139	-0.084371	0.273831
C48	C	-0.964992	-0.084441	0.370619
C49	C	-0.966740	0.083368	0.370827
C50	C	-0.966720	0.084482	0.273883
C51	C	-0.926522	-0.000102	0.140936
C52	C	-0.920662	-0.000106	0.498309
H53	H	-0.669358	-0.000073	-0.304973
H54	H	-0.521416	-0.000089	-0.291608
H55	H	-0.934251	-0.147430	0.391120
H56	H	-0.703190	-0.000093	-0.030601
H57	H	-0.846902	0.422343	-0.071464
H58	H	-0.935884	0.146822	0.248821
H59	H	-0.143987	-0.000112	-0.330147
H60	H	-0.555235	-0.000117	-0.017242
H61	H	-1.029771	0.083930	0.398098
H62	H	-0.425404	-0.000109	-0.279103
H63	H	-0.421769	-0.000137	-0.081646
H64	H	-1.030831	-0.087509	0.255168
H65	H	-0.869657	0.423349	-0.310204
H66	H	-0.937859	-0.147077	0.247544
H67	H	-0.869725	0.576149	-0.310584
H68	H	-1.054965	0.422490	-0.162636
H69	H	-0.798378	0.423976	-0.228752
H70	H	-0.291940	-0.000090	-0.343514
H71	H	-0.177820	-0.000128	-0.055778
H72	H	-0.845767	0.574959	-0.072149
H73	H	-0.938783	0.147239	0.393349
H74	H	-0.950496	0.575829	-0.042466
H75	H	-0.325762	-0.000128	-0.069140
H76	H	-0.798961	0.577255	-0.229115
H77	H	-0.804909	-0.060598	0.239877
H78	H	-0.951476	0.423627	-0.042459
H79	H	-1.022528	0.577028	-0.267607
H80	H	-1.018357	0.423841	-0.271236
H81	H	-1.053302	0.575389	-0.157187
H82	H	-1.029940	0.089565	0.254017
H83	H	-0.805119	0.060314	0.239286
H84	H	-0.802552	0.060671	0.383113
H85	H	-0.802716	-0.059849	0.384182
H86	H	-1.027757	-0.088269	0.398397
