data_functionalizedCrystal
_audit_creation_method	'MofGen! by Chris Wilmer'
_symmetry_space_group_name_H-M	'P1'
_symmetry_Int_Tables_number	1
_symmetry_cell_setting	triclinic
loop_
_symmetry_equiv_pos_as_xyz
  x,y,z
_cell_length_a	14.519709
_cell_length_b	13.339070
_cell_length_c	11.804365
_cell_angle_alpha	105.124870
_cell_angle_beta	101.851959
_cell_angle_gamma	80.345281
loop_
_atom_site_label
_atom_site_type_symbol
_atom_site_fract_x
_atom_site_fract_y
_atom_site_fract_z
O1	O	0.449147	-1.363544	-0.099080
O2	O	0.388436	-1.068905	-0.099072
O3	O	0.286542	-1.224034	-0.099066
O4	O	0.551041	-1.208414	-0.099087
O5	O	0.313329	-1.183194	0.098989
O6	O	0.415223	-1.028065	0.098982
O7	O	0.475934	-1.322704	0.098974
Cu8	Cu	0.448024	-1.171656	0.117062
Cu9	Cu	0.416345	-1.219953	-0.117160
O10	O	0.577828	-1.167575	0.098968
C11	C	0.391574	-1.010777	-0.000044
C12	C	0.361005	-0.898419	-0.000040
C13	C	0.265390	-1.202886	-0.000038
C14	C	0.162454	-1.200704	-0.000038
C15	C	0.472796	-1.380832	-0.000057
C16	C	0.503364	-1.493192	-0.000068
C17	C	-0.214489	-1.192677	-0.000068
C18	C	-0.109613	-1.194906	-0.000059
C19	C	-0.026021	-1.196690	-0.000052
C20	C	0.078862	-1.198920	-0.000045
C21	C	0.598979	-1.188723	-0.000062
C22	C	0.701915	-1.190907	-0.000071
N23	N	0.470307	-1.137693	0.281801
C24	C	0.598691	-0.534064	-0.000078
C25	C	0.627415	-0.639630	-0.000085
C26	C	0.560815	-0.704332	-0.000073
C27	C	0.465486	-0.663459	-0.000055
C28	C	0.436759	-0.557884	-0.000058
C29	C	0.398882	-0.728152	-0.000053
C30	C	0.303554	-0.687279	-0.000035
C31	C	0.274831	-0.581714	-0.000037
C32	C	0.341431	-0.517012	-0.000048
C33	C	0.427610	-0.833727	-0.000051
C34	C	0.265677	-0.857547	-0.000031
C35	C	0.236954	-0.751981	-0.000024
N36	N	0.394058	-1.253924	-0.281899
C37	C	0.340531	-1.335480	0.655758
C38	C	0.323670	-1.361172	0.531097
C39	C	0.360328	-1.305304	0.468767
C40	C	0.413850	-1.223741	0.531110
C41	C	0.430719	-1.198052	0.655783
C42	C	0.450515	-1.167876	0.468792
C43	C	0.504037	-1.086313	0.531135
C44	C	0.520903	-1.060628	0.655795
C45	C	0.484245	-1.116496	0.718126
C46	C	0.433646	-1.193565	0.344119
C47	C	0.523834	-1.056137	0.344144
C48	C	0.540695	-1.030445	0.468805
H49	H	0.584207	-0.790289	-0.000082
C50	C	0.171275	-0.537517	-0.000212
C51	C	0.115631	-0.591418	-0.102084
C52	C	0.020230	-0.550745	-0.102278
H53	H	0.163563	-0.465394	-0.000278
H54	H	0.152012	-0.545505	0.068823
H55	H	0.134888	-0.583421	-0.171101
H56	H	0.123314	-0.663539	-0.102040
H57	H	0.000967	-0.558733	-0.033243
H58	H	0.012528	-0.478624	-0.102341
H59	H	-0.017537	-0.587317	-0.171391
H60	H	0.318049	-0.431050	-0.000042
H61	H	0.497970	-1.095575	0.819635
C62	C	0.531110	-0.877993	-0.000249
C63	C	0.559189	-0.866112	-0.102135
C64	C	0.654536	-0.906862	-0.102348
H65	H	0.538810	-0.950141	-0.000308
H66	H	0.569047	-0.841527	0.068777
H67	H	0.521263	-0.902580	-0.171143
H68	H	0.551512	-0.793974	-0.102097
H69	H	0.692473	-0.870396	-0.033322
H70	H	0.662227	-0.979008	-0.102404
H71	H	0.673602	-0.898798	-0.171470
H72	H	0.310695	-1.380966	0.706515
H73	H	0.159335	-0.718688	-0.000019
H74	H	0.390069	-1.259973	0.293371
H75	H	0.564492	-0.994223	0.706555
H76	H	0.584274	-0.964035	0.519580
C77	C	0.563825	-0.995575	0.276550
C78	C	0.662802	-1.005923	0.306835
C79	C	0.699675	-0.950167	0.244573
H80	H	0.539359	-0.923767	0.296948
H81	H	0.546174	-1.022558	0.193364
H82	H	0.680445	-0.978935	0.390003
H83	H	0.687293	-1.077718	0.286433
H84	H	0.682024	-0.977151	0.161386
H85	H	0.675203	-0.878363	0.264976
H86	H	0.766835	-0.957189	0.265103
C87	C	0.193436	-0.927941	-0.000203
C88	C	0.191435	-1.010275	-0.102079
C89	C	0.124913	-1.075156	-0.102275
H90	H	0.132496	-0.888621	-0.000262
H91	H	0.210621	-0.955441	0.068829
H92	H	0.174245	-0.982776	-0.171094
H93	H	0.252358	-1.049621	-0.102041
H94	H	0.142098	-1.102656	-0.033243
H95	H	0.063978	-1.035827	-0.102332
H96	H	0.123553	-1.131032	-0.171391
C97	C	0.341872	-1.333313	0.333420
C98	C	0.287133	-1.416679	0.292163
C99	C	0.270096	-1.442500	0.167484
H100	H	0.400508	-1.353144	0.305054
H101	H	0.308792	-1.274444	0.305197
H102	H	0.320214	-1.475536	0.320374
H103	H	0.228486	-1.396872	0.320497
H104	H	0.237015	-1.383631	0.139261
H105	H	0.328736	-1.462327	0.139129
H106	H	0.232946	-1.499060	0.139475
C107	C	0.265497	-1.449716	0.463630
C108	C	0.236981	-1.493126	0.544893
C109	C	0.183377	-1.574689	0.482785
H110	H	0.302826	-1.502022	0.414979
H111	H	0.211135	-1.423282	0.415036
H112	H	0.291336	-1.519561	0.593467
H113	H	0.199640	-1.440847	0.593547
H114	H	0.129014	-1.548256	0.434191
H115	H	0.220711	-1.626988	0.434137
H116	H	0.164015	-1.604147	0.537912
H117	H	0.705029	-0.672904	-0.000109
H118	H	0.652905	-0.481377	-0.000097
