data_functionalizedCrystal
_audit_creation_method	'MofGen! by Chris Wilmer'
_symmetry_space_group_name_H-M	'P1'
_symmetry_Int_Tables_number	1
_symmetry_cell_setting	triclinic
loop_
_symmetry_equiv_pos_as_xyz
  x,y,z
_cell_length_a	14.519731
_cell_length_b	13.596369
_cell_length_c	14.519709
_cell_angle_alpha	90.006934
_cell_angle_beta	83.684499
_cell_angle_gamma	90.005416
loop_
_atom_site_label
_atom_site_type_symbol
_atom_site_fract_x
_atom_site_fract_y
_atom_site_fract_z
O1	O	1.223856	0.081796	0.120986
O2	O	1.557190	0.415129	0.454320
O3	O	1.890523	0.748462	0.787653
O4	O	0.955382	0.081797	0.135202
O5	O	1.288715	0.415131	0.468536
O6	O	1.622049	0.748464	0.801869
O7	O	1.096737	0.081788	-0.006144
O8	O	1.430071	0.415121	0.327190
O9	O	1.763404	0.748454	0.660523
O10	O	1.082501	0.081805	0.262332
O11	O	1.415834	0.415139	0.595666
O12	O	1.749168	0.748472	0.928999
O13	O	1.096723	-0.081795	-0.006151
O14	O	1.430057	0.251538	0.327182
O15	O	1.763390	0.584871	0.660516
O16	O	0.955368	-0.081785	0.135195
O17	O	1.288701	0.251548	0.468528
O18	O	1.622035	0.584881	0.801862
O19	O	1.223842	-0.081787	0.120979
O20	O	1.557176	0.251546	0.454312
O21	O	1.890509	0.584879	0.787645
Zn22	Zn	1.089603	-0.107759	0.128086
Zn23	Zn	1.422936	0.225575	0.461419
Zn24	Zn	1.756270	0.558908	0.794752
Zn25	Zn	1.089621	0.107769	0.128096
Zn26	Zn	1.422955	0.441102	0.461429
Zn27	Zn	1.756288	0.774436	0.794762
O28	O	1.082487	-0.081777	0.262325
O29	O	1.415820	0.251556	0.595658
O30	O	1.749154	0.584889	0.928991
C31	C	0.921016	0.000006	0.134532
C32	C	1.254349	0.333339	0.467866
C33	C	1.587682	0.666673	0.801199
C34	C	0.818635	0.000007	0.132536
C35	C	1.151969	0.333340	0.465870
C36	C	1.485302	0.666673	0.799203
N37	N	1.089597	-0.254851	0.128078
N38	N	1.422930	0.078483	0.461412
N39	N	1.756264	0.411816	0.794745
C40	C	0.735491	0.000010	0.130915
C41	C	1.068825	0.333344	0.464248
C42	C	1.402158	0.666677	0.797581
C43	C	0.631182	0.000011	0.128888
C44	C	0.964516	0.333344	0.462221
C45	C	1.297849	0.666677	0.795555
C46	C	0.548043	0.000010	0.127280
C47	C	0.881377	0.333344	0.460613
C48	C	1.214710	0.666677	0.793946
C49	C	0.443728	0.000012	0.125253
C50	C	0.777061	0.333346	0.458586
C51	C	1.110395	0.666679	0.791920
C52	C	1.089620	-0.656141	0.128096
C53	C	1.422954	-0.322808	0.461430
C54	C	1.756287	0.010525	0.794763
C55	C	1.089611	-0.544490	0.128095
C56	C	1.422944	-0.211157	0.461428
C57	C	1.756278	0.122177	0.794761
C58	C	1.089609	-0.455500	0.128088
C59	C	1.422942	-0.122166	0.461421
C60	C	1.756276	0.211167	0.794755
C61	C	1.089599	-0.343841	0.128085
C62	C	1.422932	-0.010508	0.461418
C63	C	1.756266	0.322826	0.794751
C64	C	1.258209	0.000006	0.121649
C65	C	1.591542	0.333340	0.454982
C66	C	1.924875	0.666673	0.788315
C67	C	1.360589	0.000012	0.123645
C68	C	1.693922	0.333346	0.456978
C69	C	2.027256	0.666679	0.790311
N70	N	1.089635	0.254861	0.128096
N71	N	1.422968	0.588194	0.461429
N72	N	1.756301	0.921527	0.794762
C73	C	1.096067	-0.000004	-0.040507
C74	C	1.429400	0.333329	0.292826
C75	C	1.762734	0.666663	0.626160
C76	C	1.094079	-0.000005	-0.142889
C77	C	1.427412	0.333329	0.190445
C78	C	1.760745	0.666662	0.523778
C79	C	1.086759	0.000021	-0.517785
C80	C	1.420093	0.333354	-0.184452
C81	C	1.753426	0.666688	0.148882
C82	C	1.088792	0.000014	-0.413477
C83	C	1.422125	0.333347	-0.080143
C84	C	1.755459	0.666680	0.253190
C85	C	1.090419	0.000007	-0.330340
C86	C	1.423752	0.333341	0.002993
C87	C	1.757085	0.666674	0.336327
C88	C	1.092452	0.000002	-0.226025
C89	C	1.425785	0.333335	0.107308
C90	C	1.759118	0.666668	0.440641
C91	C	1.083157	0.000016	0.296688
C92	C	1.416491	0.333350	0.630022
C93	C	1.749824	0.666683	0.963355
C94	C	1.085146	0.000023	0.399070
C95	C	1.418479	0.333357	0.732403
C96	C	1.751812	0.666690	1.065736
