data_functionalizedCrystal
_audit_creation_method	'MofGen! by Chris Wilmer'
_symmetry_space_group_name_H-M	'P1'
_symmetry_Int_Tables_number	1
_symmetry_cell_setting	triclinic
loop_
_symmetry_equiv_pos_as_xyz
  x,y,z
_cell_length_a	12.759401
_cell_length_b	12.759399
_cell_length_c	12.759393
_cell_angle_alpha	89.969094
_cell_angle_beta	89.979062
_cell_angle_gamma	90.016641
loop_
_atom_site_label
_atom_site_type_symbol
_atom_site_fract_x
_atom_site_fract_y
_atom_site_fract_z
Zn1	Zn	1.606263	-0.418173	-0.594017
Zn2	Zn	1.606153	-0.593888	-0.418336
Zn3	Zn	1.430562	-0.418229	-0.418352
Zn4	Zn	1.430553	-0.593815	-0.593973
O5	O	1.518383	-0.506026	-0.506170
O6	O	1.753270	-0.441489	-0.570724
O7	O	1.582818	-0.570641	-0.271317
O8	O	1.453919	-0.271200	-0.441680
O9	O	1.753189	-0.570587	-0.441652
O10	O	1.583006	-0.271159	-0.570740
O11	O	1.453812	-0.441584	-0.271329
O12	O	1.283540	-0.441513	-0.441637
O13	O	1.453903	-0.570461	-0.741000
O14	O	1.283533	-0.570516	-0.570665
O15	O	1.582997	-0.441418	-0.741032
O16	O	1.582809	-0.740900	-0.441609
O17	O	1.453796	-0.740846	-0.570649
C18	C	1.245415	-0.506013	-0.506149
C19	C	1.128639	-0.506033	-0.506165
C20	C	1.518318	-0.778994	-0.506146
C21	C	1.518387	-0.895770	-0.506171
C22	C	1.073801	-0.573307	-0.573244
C23	C	0.964077	-0.573311	-0.573265
C24	C	0.964038	-0.438764	-0.439118
C25	C	1.073760	-0.438756	-0.439104
C26	C	1.585641	-0.950625	-0.439056
C27	C	1.585708	-1.060349	-0.439091
C28	C	1.451259	-1.060353	-0.573359
C29	C	1.451198	-0.950631	-0.573328
C30	C	1.792416	-0.506040	-0.506191
C31	C	1.909193	-0.506046	-0.506200
C32	C	1.518461	-0.505925	-0.780203
C33	C	1.518495	-0.505882	-0.896980
C34	C	1.518476	-0.231993	-0.506217
C35	C	1.518516	-0.115216	-0.506237
C36	C	1.585719	-0.438679	-0.951860
C37	C	1.585737	-0.438633	-1.061584
C38	C	1.451303	-0.573004	-1.061538
C39	C	1.451281	-0.573044	-0.951816
C40	C	1.518365	-0.506051	-0.233202
C41	C	1.518535	-0.505798	-0.116426
H42	H	1.118479	-0.628086	-0.627852
H43	H	1.396583	-0.627687	-1.106199
H44	H	1.118411	-0.383967	-0.384480
H45	H	1.396555	-1.105035	-0.628034
C46	C	0.975143	-0.706312	-0.705848
C47	C	0.903799	-0.647265	-0.646996
H48	H	0.937928	-0.751973	-0.751364
H49	H	1.017968	-0.660585	-0.746109
H50	H	1.017907	-0.746436	-0.659982
H51	H	0.861040	-0.607135	-0.692862
H52	H	0.860956	-0.692998	-0.606732
H53	H	1.396432	-0.905965	-0.627986
C54	C	0.795824	-0.379035	-0.379577
C55	C	0.903712	-0.364820	-0.365403
H56	H	0.758585	-0.333387	-0.334061
H57	H	0.777888	-0.363747	-0.450189
H58	H	0.777830	-0.449611	-0.364074
H59	H	0.921707	-0.294246	-0.380913
H60	H	0.921656	-0.380101	-0.294775
C61	C	1.645242	-0.782427	-0.379383
C62	C	1.659499	-0.890319	-0.365244
H63	H	1.690839	-0.745202	-0.333809
H64	H	1.660574	-0.764379	-0.449973
H65	H	1.574647	-0.764529	-0.363937
H66	H	1.730093	-0.908219	-0.380698
H67	H	1.644175	-0.908375	-0.294638
H68	H	1.640446	-0.383989	-0.907216
H69	H	1.640476	-0.383908	-1.106263
C70	C	1.318406	-0.705876	-0.962782
C71	C	1.377387	-0.646924	-0.891483
H72	H	1.272793	-0.751487	-0.925533
H73	H	1.278243	-0.660086	-1.005577
H74	H	1.364185	-0.746050	-1.005581
H75	H	1.331607	-0.606744	-0.848689
H76	H	1.417553	-0.692721	-0.848670
C77	C	1.718585	-1.049317	-0.306361
C78	C	1.659631	-1.120646	-0.365311
H79	H	1.764219	-1.086543	-0.260808
H80	H	1.758725	-1.006451	-0.352156
H81	H	1.672791	-1.006593	-0.266127
H82	H	1.705425	-1.163365	-0.405552
H83	H	1.619488	-1.163530	-0.319510
