data_functionalizedCrystal
_audit_creation_method	'MofGen! by Chris Wilmer'
_symmetry_space_group_name_H-M	'P1'
_symmetry_Int_Tables_number	1
_symmetry_cell_setting	triclinic
loop_
_symmetry_equiv_pos_as_xyz
  x,y,z
_cell_length_a	6.817900
_cell_length_b	16.418049
_cell_length_c	11.102193
_cell_angle_alpha	93.887827
_cell_angle_beta	108.604059
_cell_angle_gamma	103.389670
loop_
_atom_site_label
_atom_site_type_symbol
_atom_site_fract_x
_atom_site_fract_y
_atom_site_fract_z
V1	V	-4.085012	-0.115892	-0.396705
O2	O	-4.071820	0.005563	-0.388693
O3	O	-4.035743	-0.229788	-0.394435
O4	O	-4.062193	-0.114112	-0.569520
O5	O	-4.045186	-0.110914	-0.212396
V6	V	-4.565438	-0.101364	-0.374606
O7	O	-4.353065	-0.147760	-0.445180
O8	O	-4.747583	-0.069497	-0.326131
O9	O	-4.391500	0.012532	-0.376877
O10	O	-4.696027	-0.222819	-0.382619
O11	O	-4.722661	-0.106342	-0.558916
O12	O	-4.365050	-0.103144	-0.201792
C13	C	-3.879705	-0.257554	-0.388291
C14	C	-3.920879	-0.350666	-0.387587
C15	C	-3.913444	-0.109996	-0.611627
C16	C	-3.976064	-0.109294	-0.752907
C17	C	-4.198616	-0.569155	-0.392347
C18	C	-4.237294	-0.656645	-0.391697
C19	C	-3.871193	-0.648100	-0.378972
C20	C	-3.832523	-0.560614	-0.379632
C21	C	-3.996238	-0.521143	-0.386313
C22	C	-4.073586	-0.696119	-0.385003
C23	C	-4.115521	-0.790979	-0.384297
C24	C	-3.954303	-0.426277	-0.387021
C25	C	-4.061311	-0.262706	-0.789827
C26	C	-4.133345	-0.339079	-0.874658
C27	C	-4.192183	-0.338415	-1.007401
C28	C	-4.178990	-0.261370	-1.055315
C29	C	-4.106955	-0.184997	-0.970484
C30	C	-4.048114	-0.185669	-0.837739
C31	C	-4.021724	-0.031588	-0.933565
C32	C	-3.962871	-0.032250	-0.800821
C33	C	-4.008530	0.045457	-0.981479
C34	C	-3.936480	0.121832	-0.896647
C35	C	-3.877638	0.121165	-0.763896
C36	C	-3.890836	0.044123	-0.715990
C37	C	-4.210880	0.040293	-0.383017
C38	C	-4.148945	0.133404	-0.383730
C39	C	-4.177141	-0.107263	-0.159677
C40	C	-4.093759	-0.107960	-0.018396
H41	H	-4.331926	-0.537021	-0.397786
H42	H	-3.737906	-0.680248	-0.373530
H43	H	-3.667717	-0.521521	-0.374723
H44	H	-4.250842	-0.400604	-1.076472
H45	H	-4.013375	-0.263254	-0.681741
H46	H	-4.402088	-0.695733	-0.396613
C47	C	-3.921978	0.206573	-0.949353
C48	C	-3.986720	0.207305	-1.095366
C49	C	-3.972217	0.292047	-1.148077
C50	C	-3.892973	0.376058	-1.054775
C51	C	-3.828226	0.375329	-0.908752
C52	C	-3.842728	0.290587	-0.856041
H53	H	-4.045386	0.145112	-1.164443
H54	H	-4.020148	0.292586	-1.256173
H55	H	-3.882238	0.438790	-1.093794
H56	H	-3.769560	0.437522	-0.839676
H57	H	-3.794797	0.290048	-0.747945
H58	H	-4.226929	-0.260836	-1.163404
H59	H	-4.056459	0.045992	-1.089567
H60	H	-3.818996	0.183357	-0.694833
H61	H	-4.144087	-0.401807	-0.835632
H62	H	-3.842916	0.043573	-0.607905
