data_functionalizedCrystal
_audit_creation_method	'MofGen! by Chris Wilmer'
_symmetry_space_group_name_H-M	'P1'
_symmetry_Int_Tables_number	1
_symmetry_cell_setting	triclinic
loop_
_symmetry_equiv_pos_as_xyz
  x,y,z
_cell_length_a	18.101398
_cell_length_b	19.121073
_cell_length_c	18.101389
_cell_angle_alpha	87.582834
_cell_angle_beta	90.024327
_cell_angle_gamma	92.466048
loop_
_atom_site_label
_atom_site_type_symbol
_atom_site_fract_x
_atom_site_fract_y
_atom_site_fract_z
Zn1	Zn	1.119546	-0.279777	0.431393
Zn2	Zn	1.452879	0.053556	0.764726
Zn3	Zn	1.786213	0.386890	1.098059
Zn4	Zn	1.114163	-0.397213	0.312820
Zn5	Zn	1.447497	-0.063879	0.646154
Zn6	Zn	1.780830	0.269454	0.979487
Zn7	Zn	0.995705	-0.279770	0.307553
Zn8	Zn	1.329038	0.053563	0.640887
Zn9	Zn	1.662372	0.386897	0.974220
Zn10	Zn	0.990379	-0.397183	0.436608
Zn11	Zn	1.323712	-0.063849	0.769941
Zn12	Zn	1.657045	0.269484	1.103274
O13	O	1.054948	-0.338486	0.372093
O14	O	1.388282	-0.005152	0.705427
O15	O	1.721615	0.328181	1.038760
O16	O	1.222464	-0.295371	0.415685
O17	O	1.555797	0.037962	0.749019
O18	O	1.889131	0.371296	1.082352
O19	O	1.098426	-0.381643	0.208489
O20	O	1.431760	-0.048310	0.541823
O21	O	1.765093	0.285023	0.875156
O22	O	1.016615	-0.181486	0.319594
O23	O	1.349948	0.151847	0.652927
O24	O	1.683281	0.485181	0.986261
O25	O	1.218510	-0.381650	0.328571
O26	O	1.551843	-0.048317	0.661904
O27	O	1.885176	0.285016	0.995238
O28	O	1.107600	-0.181491	0.410578
O29	O	1.440933	0.151842	0.743911
O30	O	1.774267	0.485175	1.077245
O31	O	1.011396	-0.295358	0.204619
O32	O	1.344729	0.037975	0.537953
O33	O	1.678062	0.371308	0.871286
O34	O	0.891366	-0.295329	0.324651
O35	O	1.224700	0.038004	0.657984
O36	O	1.558033	0.371337	0.991318
O37	O	1.007536	-0.381599	0.539548
O38	O	1.340870	-0.048266	0.872882
O39	O	1.674203	0.285068	1.206215
O40	O	0.887453	-0.381592	0.419467
O41	O	1.220786	-0.048259	0.752800
O42	O	1.554120	0.285075	1.086133
O43	O	1.102435	-0.295342	0.535717
O44	O	1.435768	0.037992	0.869050
O45	O	1.769102	0.371325	1.202383
O46	O	1.093261	-0.495494	0.333628
O47	O	1.426595	-0.162160	0.666961
O48	O	1.759928	0.171173	1.000295
O49	O	1.002317	-0.495472	0.424574
O50	O	1.335650	-0.162138	0.757907
O51	O	1.668984	0.171195	1.091240
C52	C	0.862539	-0.338457	0.372054
C53	C	1.195872	-0.005124	0.705387
C54	C	1.529206	0.328210	1.038720
C55	C	0.780225	-0.338462	0.372055
C56	C	1.113558	-0.005128	0.705388
C57	C	1.446891	0.328205	1.038721
C58	C	1.046647	-0.520967	0.380254
C59	C	1.379981	-0.187633	0.713588
C60	C	1.713314	0.145700	1.046921
C61	C	1.043164	-0.599033	0.383770
C62	C	1.376497	-0.265700	0.717104
C63	C	1.709830	0.067634	1.050437
C64	C	0.481132	-0.338506	0.372119
C65	C	0.814465	-0.005172	0.705452
C66	C	1.147798	0.328161	1.038786
C67	C	0.514907	-0.283960	0.312731
C68	C	0.848240	0.049373	0.646064
C69	C	1.181573	0.382706	0.979397
C70	C	0.600518	-0.284107	0.312494
C71	C	0.933852	0.049227	0.645827
C72	C	1.267185	0.382560	0.979161
C73	C	0.629515	-0.338483	0.372087
C74	C	0.962849	-0.005150	0.705420
C75	C	1.296182	0.328183	1.038754
C76	C	0.595072	-0.412466	0.354082
C77	C	0.928405	-0.079132	0.687416
C78	C	1.261739	0.254201	1.020749
C79	C	0.509440	-0.412163	0.353673
C80	C	0.842774	-0.078829	0.687006
C81	C	1.176107	0.254504	1.020339
C82	C	0.513591	-0.319712	0.449675
C83	C	0.846924	0.013621	0.783008
C84	C	1.180258	0.346955	1.116342
C85	C	0.599316	-0.318064	0.449173
C86	C	0.932649	0.015269	0.782507
C87	C	1.265983	0.348602	1.115840
C88	C	0.713375	-0.338475	0.372071
C89	C	1.046708	-0.005142	0.705404
C90	C	1.380042	0.328191	1.038737
C91	C	0.397272	-0.338519	0.372134
C92	C	0.730605	-0.005185	0.705467
C93	C	1.063938	0.328148	1.038801
C94	C	1.021110	-1.040561	0.406089
C95	C	1.354443	-0.707227	0.739422
C96	C	1.687776	-0.373894	1.072756
C97	C	1.024383	-0.967209	0.402777
C98	C	1.357716	-0.633876	0.736110
C99	C	1.691049	-0.300542	1.069444
C100	C	1.073404	-0.930524	0.353804
C101	C	1.406738	-0.597191	0.687138
C102	C	1.740071	-0.263857	1.020471
C103	C	1.119161	-0.967194	0.308146
C104	C	1.452495	-0.633861	0.641479
C105	C	1.785828	-0.300527	0.974813
C106	C	1.115892	-1.040544	0.311462
C107	C	1.449225	-0.707211	0.644795
C108	C	1.782558	-0.373878	0.978129
C109	C	1.085651	-0.709053	0.341428
C110	C	1.418984	-0.375720	0.674762
C111	C	1.752318	-0.042387	1.008095
C112	C	1.088916	-0.635698	0.338114
C113	C	1.422249	-0.302365	0.671447
C114	C	1.755582	0.030969	1.004781
C115	C	0.994138	-0.635718	0.432746
C116	C	1.327471	-0.302385	0.766080
C117	C	1.660804	0.030949	1.099413
C118	C	0.990869	-0.709070	0.436055
C119	C	1.324202	-0.375736	0.769388
C120	C	1.657536	-0.042403	1.102722
C121	C	1.036629	-0.745733	0.390399
C122	C	1.369962	-0.412400	0.723733
C123	C	1.703295	-0.079067	1.057066
C124	C	1.076749	-0.855547	0.350416
C125	C	1.410083	-0.522214	0.683750
C126	C	1.743416	-0.188880	1.017083
C127	C	1.033287	-0.820709	0.393792
C128	C	1.366620	-0.487376	0.727125
C129	C	1.699954	-0.154042	1.060458
C130	C	1.248109	-0.338515	0.372134
C131	C	1.581442	-0.005181	0.705467
C132	C	1.914775	0.328152	1.038801
C133	C	1.330422	-0.338527	0.372151
C134	C	1.663756	-0.005194	0.705485
C135	C	1.997089	0.328139	1.038818
C136	C	1.054992	-0.338468	0.565255
C137	C	1.388325	-0.005135	0.898588
C138	C	1.721659	0.328199	1.231921
C139	C	1.055010	-0.338460	0.647568
C140	C	1.388344	-0.005127	0.980902
C141	C	1.721677	0.328206	1.314235
C142	C	1.063302	-0.155292	0.363917
C143	C	1.396635	0.178041	0.697250
C144	C	1.729969	0.511375	1.030584
C145	C	1.066862	-0.077226	0.360432
C146	C	1.400195	0.256108	0.693766
C147	C	1.733528	0.589441	1.027099
C148	C	1.054950	-0.338453	0.179681
C149	C	1.388283	-0.005119	0.513015
C150	C	1.721616	0.328214	0.846348
C151	C	1.055084	-0.338262	0.097359
C152	C	1.388417	-0.004929	0.430693
C153	C	1.721750	0.328404	0.764026
C154	C	1.055059	-0.338329	0.946654
C155	C	1.388393	-0.004995	1.279987
C156	C	1.721726	0.328338	1.613320
C157	C	0.995162	-0.392427	0.917731
C158	C	1.328496	-0.059093	1.251065
C159	C	1.661829	0.274240	1.584398
C160	C	0.995306	-0.392678	0.832124
C161	C	1.328640	-0.059344	1.165458
C162	C	1.661973	0.273989	1.498791
C163	C	1.055035	-0.338394	0.798274
C164	C	1.388368	-0.005061	1.131607
C165	C	1.721701	0.328273	1.464941
C166	C	1.132157	-0.358491	0.830281
C167	C	1.465490	-0.025158	1.163615
C168	C	1.798823	0.308176	1.496948
C169	C	1.131820	-0.358846	0.915942
C170	C	1.465154	-0.025513	1.249276
C171	C	1.798487	0.307821	1.582609
C172	C	1.038518	-0.264013	0.911743
C173	C	1.371852	0.069320	1.245077
C174	C	1.705185	0.402653	1.578410
C175	C	1.036763	-0.264442	0.826112
C176	C	1.370096	0.068891	1.159445
C177	C	1.703430	0.402224	1.492778
C178	C	1.055025	-0.338430	0.714416
C179	C	1.388359	-0.005096	1.047749
C180	C	1.721692	0.328237	1.381083
C181	C	1.055074	-0.338295	1.030512
C182	C	1.388407	-0.004961	1.363845
C183	C	1.721741	0.328372	1.697178
H184	H	0.624025	-0.229245	0.323399
H185	H	0.957358	0.104088	0.656732
H186	H	1.290691	0.437422	0.990066
F187	F	1.089978	-0.208961	0.795680
F188	F	1.423311	0.124372	1.129014
F189	F	1.756645	0.457705	1.462347
F190	F	1.095594	-0.211330	0.935880
F191	F	1.428927	0.122003	1.269214
F192	F	1.762260	0.455337	1.602547
H193	H	1.177838	-0.320327	0.808223
H194	H	1.511171	0.013007	1.141556
H195	H	1.844505	0.346340	1.474890
H196	H	0.496810	-0.228931	0.323481
H197	H	0.830143	0.104402	0.656814
H198	H	1.163476	0.437735	0.990147
F199	F	1.141086	-0.596656	0.285980
F200	F	1.474420	-0.263323	0.619314
F201	F	1.807753	0.070010	0.952647
H202	H	0.491549	-0.359441	0.493884
H203	H	0.824882	-0.026108	0.827217
H204	H	1.158216	0.307226	1.160551
F205	F	1.008897	-0.463980	0.949120
F206	F	1.342230	-0.130646	1.282453
F207	F	1.675564	0.202687	1.615787
H208	H	0.492805	-0.296243	0.255526
H209	H	0.826139	0.037090	0.588860
H210	H	1.159472	0.370424	0.922193
H211	H	1.146887	-0.412239	0.811251
H212	H	1.480220	-0.078906	1.144584
H213	H	1.813553	0.254427	1.477918
F214	F	0.626526	-0.300341	0.237290
F215	F	0.959860	0.032992	0.570623
F216	F	1.293193	0.366325	0.903956
H217	H	0.613561	-0.454194	0.396130
H218	H	0.946894	-0.120861	0.729463
H219	H	1.280227	0.212472	1.062796
H220	H	0.938013	-0.380101	0.810527
H221	H	1.271346	-0.046768	1.143861
H222	H	1.604679	0.286566	1.477194
H223	H	0.488712	-0.428102	0.297074
H224	H	0.822045	-0.094769	0.630407
H225	H	1.155379	0.238564	0.963741
F226	F	1.171339	-0.928149	0.256029
F227	F	1.504672	-0.594816	0.589363
F228	F	1.838005	-0.261482	0.922696
F229	F	0.945444	-0.596693	0.481336
F230	F	1.278777	-0.263360	0.814670
F231	F	1.612110	0.069974	1.148003
H232	H	1.122909	-0.738896	0.304249
H233	H	1.456243	-0.405563	0.637583
H234	H	1.789576	-0.072229	0.970916
H235	H	1.153150	-1.070396	0.274285
H236	H	1.486483	-0.737063	0.607619
H237	H	1.819816	-0.403729	0.940952
F238	F	1.009262	-0.464670	0.808579
F239	F	1.342595	-0.131337	1.141913
F240	F	1.675928	0.201996	1.475246
H241	H	1.116663	-0.825672	0.310540
H242	H	1.449996	-0.492338	0.643874
H243	H	1.783329	-0.159005	0.977207
F244	F	0.479884	-0.467082	0.407977
F245	F	0.813218	-0.133749	0.741310
F246	F	1.146551	0.199585	1.074644
H247	H	0.615758	-0.428682	0.298115
H248	H	0.949091	-0.095349	0.631448
H249	H	1.282424	0.237985	0.964782
F250	F	1.150658	-0.429853	0.945250
F251	F	1.483991	-0.096520	1.278584
F252	F	1.817324	0.236813	1.611917
F253	F	0.488512	-0.250425	0.471908
F254	F	0.821845	0.082908	0.805241
F255	F	1.155178	0.416241	1.138574
F256	F	1.191865	-0.309549	0.940842
F257	F	1.525199	0.023784	1.274175
F258	F	1.858532	0.357118	1.607509
F259	F	0.966518	-0.240083	0.938881
F260	F	1.299851	0.093251	1.272215
F261	F	1.633185	0.426584	1.605548
F262	F	0.981119	-0.859753	0.445914
F263	F	1.314452	-0.526420	0.779247
F264	F	1.647786	-0.193087	1.112580
F265	F	0.968929	-1.079597	0.458208
F266	F	1.302262	-0.746264	0.791542
F267	F	1.635596	-0.412931	1.124875
H268	H	0.622107	-0.263622	0.462810
H269	H	0.955440	0.069712	0.796143
H270	H	1.288774	0.403045	1.129477
H271	H	0.980024	-0.249287	0.805100
H272	H	1.313358	0.084046	1.138433
H273	H	1.646691	0.417380	1.471766
F274	F	0.975689	-0.928191	0.451374
F275	F	1.309022	-0.594857	0.784707
F276	F	1.642355	-0.261524	1.118040
H277	H	0.619066	-0.354898	0.495525
H278	H	0.952399	-0.021565	0.828858
H279	H	1.285732	0.311768	1.162191
H280	H	0.950942	-0.738934	0.475925
H281	H	1.284275	-0.405601	0.809259
H282	H	1.617608	-0.072267	1.142592
F283	F	0.920037	-0.376154	0.943901
F284	F	1.253370	-0.042820	1.277234
F285	F	1.586704	0.290513	1.610568
