data_functionalizedCrystal
_audit_creation_method	'MofGen! by Chris Wilmer'
_symmetry_space_group_name_H-M	'P1'
_symmetry_Int_Tables_number	1
_symmetry_cell_setting	triclinic
loop_
_symmetry_equiv_pos_as_xyz
  x,y,z
_cell_length_a	15.995350
_cell_length_b	17.699083
_cell_length_c	16.776229
_cell_angle_alpha	90.007545
_cell_angle_beta	90.003494
_cell_angle_gamma	83.387695
loop_
_atom_site_label
_atom_site_type_symbol
_atom_site_fract_x
_atom_site_fract_y
_atom_site_fract_z
O1	O	-1.110790	-0.097560	-0.066222
O2	O	-0.610790	0.402440	0.433778
O3	O	-0.866990	-0.109607	-0.066239
O4	O	-0.366990	0.390393	0.433761
O5	O	-0.995778	0.006594	-0.066223
O6	O	-0.495778	0.506594	0.433777
O7	O	-0.982002	-0.213761	-0.066238
O8	O	-0.482002	0.286239	0.433762
O9	O	-0.995761	0.006602	0.066353
O10	O	-0.495761	0.506602	0.566353
O11	O	-0.866973	-0.109600	0.066338
O12	O	-0.366973	0.390400	0.566338
O13	O	-1.110773	-0.097553	0.066354
O14	O	-0.610773	0.402447	0.566354
Zn15	Zn	-0.988870	-0.103575	0.087395
Zn16	Zn	-0.488870	0.396425	0.587395
Zn17	Zn	-0.988893	-0.103584	-0.087280
Zn18	Zn	-0.488893	0.396416	0.412720
O19	O	-0.981985	-0.213754	0.066338
O20	O	-0.481985	0.286246	0.566338
C21	C	-0.995276	0.034796	0.000065
C22	C	-0.495276	0.534796	0.500065
C23	C	-0.993795	0.118816	0.000065
C24	C	-0.493795	0.618816	0.500065
C25	C	-0.835788	-0.109105	0.000047
C26	C	-0.335788	0.390895	0.500047
C27	C	-0.742841	-0.107612	0.000041
C28	C	-0.242841	0.392388	0.500041
C29	C	-1.141975	-0.098054	0.000066
C30	C	-0.641975	0.401946	0.500066
C31	C	-1.234923	-0.099547	0.000067
C32	C	-0.734923	0.400453	0.500067
C33	C	-0.405104	-0.102250	0.000058
C34	C	0.094896	0.397750	0.500058
C35	C	-0.452706	-0.019493	0.000360
C36	C	0.047294	0.480507	0.500360
C37	C	-0.549394	-0.020987	0.000055
C38	C	-0.049394	0.479013	0.500055
C39	C	-0.572659	-0.104910	0.000050
C40	C	-0.072659	0.395090	0.500050
C41	C	-0.531499	-0.145732	-0.075657
C42	C	-0.031499	0.354268	0.424343
C43	C	-0.434867	-0.143653	-0.075715
C44	C	0.065133	0.356347	0.424285
C45	C	-0.434505	-0.145355	0.075049
C46	C	0.065495	0.354645	0.575049
C47	C	-0.531451	-0.145335	0.076044
C48	C	-0.031451	0.354665	0.576044
C49	C	-0.667354	-0.106417	0.000043
C50	C	-0.167354	0.393583	0.500043
C51	C	-0.310409	-0.100745	0.000060
C52	C	0.189591	0.399255	0.500060
C53	C	-0.982487	-0.241955	0.000048
C54	C	-0.482487	0.258045	0.500048
C55	C	-0.983968	-0.325976	0.000043
C56	C	-0.483968	0.174024	0.500043
N57	N	-0.988861	-0.103568	0.206607
N58	N	-0.488861	0.396432	0.706607
C59	C	-1.069391	0.167312	0.000072
C60	C	-0.569391	0.667312	0.500072
C61	C	-1.067994	0.246257	0.000065
C62	C	-0.567994	0.746257	0.500065
C63	C	-0.991001	0.276706	0.000057
C64	C	-0.491001	0.776706	0.500057
C65	C	-0.915400	0.228205	0.000048
C66	C	-0.415400	0.728205	0.500048
C67	C	-0.916797	0.149261	0.000050
C68	C	-0.416797	0.649261	0.500050
C69	C	-0.909763	0.546577	0.000041
C70	C	-0.409763	1.046577	0.500041
C71	C	-0.908372	0.625527	0.000042
C72	C	-0.408372	1.125527	0.500042
C73	C	-1.060960	0.643574	0.000056
C74	C	-0.560960	1.143574	0.500056
C75	C	-1.062358	0.564630	0.000058
C76	C	-0.562358	1.064630	0.500058
C77	C	-0.986757	0.516135	0.000045
C78	C	-0.486757	1.016135	0.500045
C79	C	-0.988272	0.430533	0.000051
C80	C	-0.488272	0.930533	0.500051
C81	C	-0.989485	0.362306	0.000056
C82	C	-0.489485	0.862306	0.500056
N83	N	-0.988909	-0.103585	-0.206491
N84	N	-0.488909	0.396415	0.293509
C85	C	-1.045906	-0.052135	0.248331
C86	C	-0.545906	0.447865	0.748331
C87	C	-1.045910	-0.052135	0.331783
C88	C	-0.545910	0.447865	0.831783
C89	C	-0.988874	-0.103571	0.373509
C90	C	-0.488874	0.396429	0.873509
C91	C	-0.931823	-0.155006	0.331779
C92	C	-0.431823	0.344994	0.831779
C93	C	-0.931815	-0.155003	0.248329
C94	C	-0.431815	0.344997	0.748329
C95	C	-0.931853	-0.155021	0.668327
C96	C	-0.431853	0.344979	1.168327
C97	C	-0.931867	-0.155022	0.751783
C98	C	-0.431867	0.344978	1.251783
C99	C	-1.045949	-0.052153	0.751781
C100	C	-0.545949	0.447847	1.251781
C101	C	-1.045941	-0.052150	0.668330
C102	C	-0.545941	0.447850	1.168330
C103	C	-0.988887	-0.103582	0.626607
C104	C	-0.488887	0.396418	1.126607
C105	C	-0.988882	-0.103581	0.536119
C106	C	-0.488882	0.396419	1.036119
C107	C	-0.988883	-0.103576	0.463996
C108	C	-0.488883	0.396424	0.963996
H109	H	-0.577881	0.011101	0.054326
H110	H	-0.077881	0.511101	0.554326
C111	C	-0.833636	0.095915	0.000045
C112	C	-0.333636	0.595915	0.500045
N113	N	-0.770996	0.055737	0.000039
N114	N	-0.270996	0.555737	0.500039
C115	C	-0.569911	-0.107432	-0.151771
C116	C	-0.069911	0.392568	0.348229
N117	N	-0.598842	-0.078580	-0.209098
N118	N	-0.098842	0.421420	0.290902
C119	C	-0.587130	0.022645	-0.073386
C120	C	-0.087130	0.522645	0.426614
N121	N	-0.615552	0.055509	-0.128707
N122	N	-0.115552	0.555509	0.371293
C123	C	-0.826599	0.493243	0.000023
C124	C	-0.326599	0.993243	0.500023
N125	N	-0.763956	0.453069	0.000007
N126	N	-0.263956	0.953069	0.500007
C127	C	-0.823669	0.659018	0.000027
C128	C	-0.323669	1.159018	0.500027
N129	N	-0.759875	0.684244	0.000015
N130	N	-0.259875	1.184244	0.500015
C131	C	-1.151156	0.299599	0.000084
C132	C	-0.651156	0.799599	0.500084
N133	N	-1.213797	0.339776	0.000103
N134	N	-0.713797	0.839776	0.500103
H135	H	-0.434245	0.013589	0.054652
H136	H	0.065755	0.513589	0.554652
C137	C	-1.108683	0.004436	0.622435
C138	C	-0.608683	0.504436	1.122435
N139	N	-1.155939	0.047060	0.587869
N140	N	-0.655939	0.547060	1.087869
H141	H	-0.546691	-0.206534	0.080614
H142	H	-0.046691	0.293466	0.580614
C143	C	-0.869068	-0.211589	0.202433
C144	C	-0.369068	0.288411	0.702433
N145	N	-0.821806	-0.254212	0.167865
N146	N	-0.321806	0.245788	0.667865
C147	C	-0.391133	-0.225733	-0.080378
C148	C	0.108867	0.274267	0.419622
N149	N	-0.358195	-0.287554	-0.083899
N150	N	0.141805	0.212446	0.416101
H151	H	-0.416627	-0.113890	-0.132304
H152	H	0.083373	0.386110	0.367696
C153	C	-0.426324	0.024994	-0.072568
C154	C	0.073676	0.524994	0.427432
N155	N	-0.406450	0.058500	-0.127497
N156	N	0.093550	0.558500	0.372503
H157	H	-0.414018	-0.118297	0.132434
H158	H	0.085982	0.381703	0.632434
C159	C	-0.550416	-0.229026	-0.079471
C160	C	-0.050416	0.270974	0.420529
N161	N	-0.564666	-0.291763	-0.082342
N162	N	-0.064666	0.208237	0.417658
H163	H	-0.558821	-0.115535	0.132052
H164	H	-0.058821	0.384465	0.632052
C165	C	-1.108651	0.004450	0.202439
C166	C	-0.608651	0.504450	0.702439
N167	N	-1.155910	0.047075	0.167876
N168	N	-0.655910	0.547075	0.667876
H169	H	-1.092402	-0.010272	0.785760
H170	H	-0.592402	0.489728	1.285760
C171	C	-1.154091	0.133826	0.000080
C172	C	-0.654091	0.633826	0.500080
N173	N	-1.217889	0.108607	0.000083
N174	N	-0.717889	0.608607	0.500083
C175	C	-0.869074	-0.211580	0.377682
C176	C	-0.369074	0.288420	0.877682
N177	N	-0.821810	-0.254192	0.412255
N178	N	-0.321810	0.245808	0.912255
C179	C	-0.391426	-0.227783	0.075739
C180	C	0.108574	0.272217	0.575739
N181	N	-0.358974	-0.289865	0.076253
N182	N	0.141026	0.210135	0.576253
C183	C	-1.108644	0.004464	0.377676
C184	C	-0.608644	0.504464	0.877676
N185	N	-1.155890	0.047103	0.412241
N186	N	-0.655890	0.547103	0.912241
H187	H	-0.885400	-0.196900	0.634363
H188	H	-0.385400	0.303100	1.134363
H189	H	-1.125053	0.539843	0.000068
H190	H	-0.625053	1.039843	0.500068
H191	H	-1.122518	0.683068	0.000063
H192	H	-0.622518	1.183068	0.500063
H193	H	-0.852711	0.253002	0.000037
H194	H	-0.352711	0.753002	0.500037
C195	C	-0.869114	-0.211604	0.797681
C196	C	-0.369114	0.288396	1.297681
N197	N	-0.821851	-0.254219	0.832251
N198	N	-0.321851	0.245781	1.332251
