data_functionalizedCrystal
_audit_creation_method	'MofGen! by Chris Wilmer'
_symmetry_space_group_name_H-M	'P1'
_symmetry_Int_Tables_number	1
_symmetry_cell_setting	triclinic
loop_
_symmetry_equiv_pos_as_xyz
  x,y,z
_cell_length_a	19.288840
_cell_length_b	16.974813
_cell_length_c	17.766277
_cell_angle_alpha	86.339073
_cell_angle_beta	89.983415
_cell_angle_gamma	83.260449
loop_
_atom_site_label
_atom_site_type_symbol
_atom_site_fract_x
_atom_site_fract_y
_atom_site_fract_z
O1	O	0.921541	0.098544	-0.068721
O2	O	1.254875	0.431877	0.264612
O3	O	1.588208	0.765211	0.597945
O4	O	0.719302	0.111871	-0.069507
O5	O	1.052636	0.445204	0.263826
O6	O	1.385969	0.778537	0.597160
O7	O	0.826059	-0.009917	-0.062099
O8	O	1.159393	0.323416	0.271235
O9	O	1.492726	0.656750	0.604568
O10	O	0.814785	0.220332	-0.076130
O11	O	1.148118	0.553665	0.257204
O12	O	1.481451	0.886998	0.590537
O13	O	0.826040	-0.009923	0.063090
O14	O	1.159374	0.323410	0.396423
O15	O	1.492707	0.656744	0.729757
O16	O	0.719284	0.111865	0.055682
O17	O	1.052617	0.445198	0.389015
O18	O	1.385950	0.778531	0.722349
O19	O	0.921523	0.098538	0.056467
O20	O	1.254856	0.431871	0.389801
O21	O	1.588189	0.765204	0.723134
Cu22	Cu	0.820401	0.105201	0.067505
Cu23	Cu	1.153735	0.438534	0.400839
Cu24	Cu	1.487068	0.771867	0.734172
Cu25	Cu	0.820424	0.105208	-0.080545
Cu26	Cu	1.153757	0.438541	0.252788
Cu27	Cu	1.487090	0.771875	0.586122
O28	O	0.814766	0.220326	0.049059
O29	O	1.148099	0.553659	0.382393
O30	O	1.481433	0.886992	0.715726
C31	C	0.693415	0.111442	-0.006883
C32	C	1.026749	0.444776	0.326450
C33	C	1.360082	0.778109	0.659783
C34	C	0.616309	0.110165	-0.006795
C35	C	0.949642	0.443498	0.326538
C36	C	1.282975	0.776832	0.659871
C37	C	0.580114	0.109555	-0.075000
C38	C	0.913448	0.442888	0.258333
C39	C	1.246781	0.776221	0.591666
C40	C	0.507665	0.108346	-0.074936
C41	C	0.840998	0.441679	0.258397
C42	C	1.174332	0.775012	0.591731
C43	C	0.471415	0.107731	-0.006662
C44	C	0.804748	0.441064	0.326672
C45	C	1.138082	0.774398	0.660005
C46	C	0.507618	0.108346	0.061552
C47	C	0.840951	0.441679	0.394885
C48	C	1.174284	0.775013	0.728219
C49	C	0.580064	0.109563	0.061485
C50	C	0.913398	0.442896	0.394819
C51	C	1.246731	0.776229	0.728152
C52	C	0.361993	0.059487	0.048547
C53	C	0.695326	0.392820	0.381880
C54	C	1.028659	0.726154	0.715213
C55	C	0.289548	0.058265	0.048611
C56	C	0.622881	0.391598	0.381944
C57	C	0.956215	0.724932	0.715278
C58	C	0.247965	0.103981	-0.006453
C59	C	0.581298	0.437314	0.326881
C60	C	0.914631	0.770648	0.660214
C61	C	0.278836	0.150909	-0.061593
C62	C	0.612170	0.484242	0.271740
C63	C	0.945503	0.817576	0.605074
C64	C	0.351283	0.152126	-0.061660
C65	C	0.684617	0.485459	0.271673
C66	C	1.017950	0.818793	0.605007
C67	C	0.392859	0.106412	-0.006582
C68	C	0.726192	0.439745	0.326752
C69	C	1.059525	0.773079	0.660085
C70	C	0.133213	0.102061	-0.074593
C71	C	0.466546	0.435394	0.258741
C72	C	0.799879	0.768728	0.592074
C73	C	0.060762	0.100857	-0.074526
C74	C	0.394095	0.434190	0.258808
C75	C	0.727428	0.767524	0.592141
C76	C	0.060717	0.100849	0.061965
C77	C	0.394050	0.434183	0.395298
C78	C	0.727383	0.767516	0.728632
C79	C	0.133165	0.102061	0.061895
C80	C	0.466499	0.435395	0.395229
C81	C	0.799832	0.768728	0.728562
C82	C	0.169409	0.102663	-0.006385
C83	C	0.502743	0.435997	0.326948
C84	C	0.836076	0.769330	0.660281
C85	C	0.825621	-0.039377	0.002289
C86	C	1.158954	0.293956	0.335623
C87	C	1.492287	0.627290	0.668956
C88	C	0.824334	-0.127149	0.007634
C89	C	1.157667	0.206184	0.340967
C90	C	1.491000	0.539518	0.674301
C91	C	0.823741	-0.168377	-0.058095
C92	C	1.157074	0.164956	0.275238
C93	C	1.490408	0.498290	0.608572
C94	C	0.822527	-0.250848	-0.053071
C95	C	1.155861	0.082486	0.280262
C96	C	1.489194	0.415819	0.613596
C97	C	0.821911	-0.292090	0.017683
C98	C	1.155245	0.041244	0.351016
C99	C	1.488578	0.374577	0.684350
C100	C	0.822502	-0.250856	0.083417
C101	C	1.155836	0.082477	0.416750
C102	C	1.489169	0.415811	0.750084
C103	C	0.823711	-0.168386	0.078392
C104	C	1.157044	0.164947	0.411725
C105	C	1.490378	0.498281	0.745059
C106	C	0.818291	-0.538738	0.040029
C107	C	1.151624	-0.205405	0.373362
C108	C	1.484957	0.127928	0.706696
C109	C	0.817084	-0.621214	0.045049
C110	C	1.150417	-0.287881	0.378382
C111	C	1.483751	0.045452	0.711716
C112	C	0.817108	-0.621200	-0.091440
C113	C	1.150441	-0.287867	0.241894
C114	C	1.483775	0.045466	0.575227
C115	C	0.818321	-0.538729	-0.096458
C116	C	1.151654	-0.205396	0.236875
C117	C	1.484988	0.127937	0.570208
C118	C	0.818908	-0.497502	-0.030724
C119	C	1.152241	-0.164169	0.302609
C120	C	1.485574	0.169165	0.635942
N121	N	0.820673	-0.376388	0.022820
N122	N	1.154006	-0.043055	0.356154
N123	N	1.487340	0.290278	0.689487
N124	N	0.820141	-0.413204	-0.035862
N125	N	1.153475	-0.079871	0.297471
N126	N	1.486808	0.253462	0.630804
C127	C	0.947410	0.098966	-0.006158
C128	C	1.280743	0.432300	0.327175
C129	C	1.614076	0.765633	0.660509
C130	C	1.024516	0.100244	-0.006251
C131	C	1.357850	0.433577	0.327083
C132	C	1.691183	0.766910	0.660416
C133	C	0.815204	0.249786	-0.015331
C134	C	1.148538	0.583119	0.318003
C135	C	1.481871	0.916452	0.651336
C136	C	0.816491	0.337558	-0.020680
C137	C	1.149825	0.670891	0.312653
C138	C	1.483158	1.004224	0.645987
N139	N	0.820391	0.105195	0.171636
N140	N	1.153724	0.438528	0.504969
N141	N	1.487058	0.771862	0.838303
N142	N	0.820440	0.105207	-0.184675
N143	N	1.153773	0.438541	0.148658
N144	N	1.487106	0.771874	0.481991
C145	C	0.867678	0.051294	0.214302
C146	C	1.201011	0.384627	0.547635
C147	C	1.534345	0.717960	0.880968
C148	C	0.867682	0.051290	0.293104
C149	C	1.201015	0.384623	0.626437
C150	C	1.534349	0.717957	0.959770
C151	C	0.820406	0.105201	0.329236
C152	C	1.153739	0.438535	0.662570
C153	C	1.487072	0.771868	0.995903
C154	C	0.773109	0.159107	0.286561
C155	C	1.106443	0.492440	0.619894
C156	C	1.439776	0.825773	0.953228
C157	C	0.773102	0.159104	0.207761
C158	C	1.106435	0.492437	0.541094
C159	C	1.439769	0.825770	0.874427
C160	C	0.811236	0.177247	0.449685
C161	C	1.144570	0.510580	0.783018
C162	C	1.477903	0.843914	1.116351
C163	C	0.811248	0.177251	0.528483
C164	C	1.144582	0.510585	0.861817
C165	C	1.477915	0.843918	1.195150
C166	C	0.820424	0.105211	0.572282
C167	C	1.153757	0.438544	0.905615
C168	C	1.487091	0.771877	1.238949
C169	C	0.829602	0.033163	0.537273
C170	C	1.162936	0.366496	0.870606
C171	C	1.496269	0.699830	1.203939
C172	C	0.829595	0.033160	0.458473
C173	C	1.162928	0.366493	0.791806
C174	C	1.496262	0.699827	1.125139
C175	C	0.820408	0.105210	0.414681
C176	C	1.153741	0.438544	0.748015
C177	C	1.487075	0.771877	1.081348
C178	C	0.867718	0.051301	0.700394
C179	C	1.201052	0.384634	1.033727
C180	C	1.534385	0.717968	1.367061
C181	C	0.867717	0.051296	0.779198
C182	C	1.201051	0.384630	1.112531
C183	C	1.534384	0.717963	1.445864
C184	C	0.773148	0.159120	0.772653
C185	C	1.106481	0.492453	1.105986
C186	C	1.439815	0.825787	1.439320
C187	C	0.773146	0.159118	0.693851
C188	C	1.106479	0.492451	1.027185
C189	C	1.439812	0.825784	1.360518
C190	C	0.820434	0.105209	0.657727
C191	C	1.153768	0.438543	0.991060
C192	C	1.487101	0.771876	1.324393
H193	H	0.244980	0.188139	-0.106429
H194	H	0.578314	0.521472	0.226904
H195	H	0.911647	0.854805	0.560238
H196	H	0.031293	0.100365	-0.130069
H197	H	0.364626	0.433698	0.203264
H198	H	0.697959	0.767032	0.536598
H199	H	0.162636	0.102553	0.117436
H200	H	0.495969	0.435886	0.450769
H201	H	0.829302	0.769220	0.784102
Br202	Br	0.931862	-0.021869	0.351017
Br203	Br	1.265196	0.311464	0.684351
Br204	Br	1.598529	0.644798	1.017684
Br205	Br	0.931851	-0.021868	0.165275
Br206	Br	1.265185	0.311465	0.498608
Br207	Br	1.598518	0.644799	0.831941
Br208	Br	0.629299	0.110373	-0.167666
Br209	Br	0.962633	0.443707	0.165667
Br210	Br	1.295966	0.777040	0.499000
H211	H	0.803752	0.235915	0.414029
H212	H	1.137086	0.569248	0.747363
H213	H	1.470419	0.902581	1.080696
Br214	Br	0.931892	-0.021868	0.837106
Br215	Br	1.265225	0.311466	1.170440
Br216	Br	1.598559	0.644799	1.503773
H217	H	0.824184	-0.134818	0.131916
H218	H	1.157517	0.198515	0.465249
H219	H	1.490850	0.531849	0.798582
Br220	Br	0.816256	-0.677187	0.141079
Br221	Br	1.149589	-0.343854	0.474412
Br222	Br	1.482922	-0.010521	0.807745
H223	H	0.734615	0.203001	0.315984
H224	H	1.067948	0.536334	0.649317
H225	H	1.401282	0.869667	0.982651
Br226	Br	0.821722	-0.306797	-0.142279
Br227	Br	1.155055	0.026537	0.191054
Br228	Br	1.488388	0.359870	0.524388
H229	H	0.818783	-0.505183	0.093554
H230	H	1.152116	-0.171850	0.426888
H231	H	1.485449	0.161483	0.760221
Br232	Br	0.842044	-0.064613	0.410961
Br233	Br	1.175377	0.268720	0.744295
Br234	Br	1.508711	0.602053	1.077628
H235	H	0.818823	-0.505156	-0.154074
H236	H	1.152157	-0.171822	0.179260
H237	H	1.485490	0.161511	0.512593
Br238	Br	0.816312	-0.677155	-0.180645
Br239	Br	1.149645	-0.343822	0.152689
Br240	Br	1.482979	-0.010489	0.486022
Br241	Br	0.821655	-0.306825	0.179442
Br242	Br	1.154988	0.026509	0.512775
Br243	Br	1.488321	0.359842	0.846108
H244	H	0.162723	0.102560	-0.130191
H245	H	0.496056	0.435893	0.203142
H246	H	0.829390	0.769226	0.536475
Br247	Br	0.842064	-0.064613	0.596704
Br248	Br	1.175398	0.268720	0.930037
Br249	Br	1.508731	0.602053	1.263370
H250	H	0.906222	0.007403	0.670981
H251	H	1.239555	0.340736	1.004314
H252	H	1.572888	0.674070	1.337647
Br253	Br	0.708979	0.232277	0.821684
Br254	Br	1.042312	0.565611	1.155017
Br255	Br	1.375646	0.898944	1.488350
H256	H	0.734643	0.203012	0.659110
H257	H	1.067976	0.536346	0.992444
H258	H	1.401309	0.869679	1.325777
H259	H	0.803779	0.235917	0.556982
H260	H	1.137113	0.569250	0.890315
H261	H	1.470446	0.902583	1.223648
H262	H	0.824246	-0.134804	-0.115711
H263	H	1.157580	0.198529	0.217623
H264	H	1.490913	0.531863	0.550956
H265	H	0.376416	0.190338	-0.106555
H266	H	0.709749	0.523671	0.226778
H267	H	1.043082	0.857005	0.560111
Br268	Br	0.708921	0.232260	0.149852
Br269	Br	1.042254	0.565593	0.483186
Br270	Br	1.375588	0.898927	0.816519
H271	H	0.478190	0.107850	-0.130478
H272	H	0.811523	0.441183	0.202855
H273	H	1.144856	0.774517	0.536188
H274	H	0.031202	0.100354	0.117555
H275	H	0.364535	0.433687	0.450888
H276	H	0.697869	0.767020	0.784222
H277	H	0.264418	0.020050	0.093506
H278	H	0.597752	0.353383	0.426840
H279	H	0.931085	0.686716	0.760173
H280	H	0.478098	0.107847	0.117141
H281	H	0.811431	0.441181	0.450475
H282	H	1.144765	0.774514	0.783808
Br283	Br	0.629189	0.110393	0.154056
Br284	Br	0.962522	0.443726	0.487390
Br285	Br	1.295856	0.777059	0.820723
Br286	Br	0.418420	-0.002559	0.123286
Br287	Br	0.751753	0.330775	0.456619
Br288	Br	1.085087	0.664108	0.789953
