data_functionalizedCrystal
_audit_creation_method	'MofGen! by Chris Wilmer'
_symmetry_space_group_name_H-M	'P1'
_symmetry_Int_Tables_number	1
_symmetry_cell_setting	triclinic
loop_
_symmetry_equiv_pos_as_xyz
  x,y,z
_cell_length_a	13.897449
_cell_length_b	13.897448
_cell_length_c	21.395355
_cell_angle_alpha	89.984371
_cell_angle_beta	89.973949
_cell_angle_gamma	90.018519
loop_
_atom_site_label
_atom_site_type_symbol
_atom_site_fract_x
_atom_site_fract_y
_atom_site_fract_z
Zn1	Zn	1.474728	-0.384105	-0.354299
Zn2	Zn	1.474614	-0.545385	-0.249527
Zn3	Zn	1.313410	-0.384108	-0.249533
Zn4	Zn	1.313399	-0.545362	-0.354264
O5	O	1.394038	-0.464740	-0.301906
O6	O	1.609694	-0.405508	-0.340413
O7	O	1.453187	-0.524002	-0.161850
O8	O	1.334861	-0.249126	-0.263448
O9	O	1.609611	-0.523999	-0.263437
O10	O	1.453381	-0.249124	-0.340419
O11	O	1.334751	-0.405512	-0.161854
O12	O	1.178427	-0.405490	-0.263414
O13	O	1.334842	-0.523961	-0.441947
O14	O	1.178419	-0.523963	-0.340360
O15	O	1.453370	-0.405486	-0.441972
O16	O	1.453177	-0.680364	-0.263403
O17	O	1.334732	-0.680347	-0.340354
C18	C	1.143423	-0.464725	-0.301884
C19	C	1.036209	-0.464742	-0.301889
C20	C	0.949140	-0.464745	-0.301900
C21	C	0.839907	-0.464752	-0.301919
C22	C	1.393967	-0.715354	-0.301888
C23	C	1.394025	-0.822568	-0.301901
C24	C	1.394127	-1.018863	-0.301940
C25	C	1.394068	-0.909631	-0.301920
C26	C	1.645631	-0.464756	-0.301928
C27	C	1.752845	-0.464762	-0.301938
C28	C	1.394118	-0.464721	-0.465329
C29	C	1.394152	-0.464712	-0.534970
C30	C	1.394135	-0.213147	-0.301938
C31	C	1.394176	-0.105933	-0.301951
C32	C	1.455867	-0.403020	-0.567698
C33	C	1.455865	-0.402978	-0.633133
C34	C	1.394159	-0.464647	-0.665839
C35	C	1.332433	-0.526343	-0.633104
C36	C	1.332429	-0.526376	-0.567669
C37	C	1.386519	-0.551499	-0.769507
C38	C	1.386529	-0.551468	-0.834940
C39	C	1.394165	-0.464545	-0.867660
C40	C	1.401811	-0.377650	-0.834938
C41	C	1.401808	-0.377683	-0.769504
C42	C	1.394156	-0.464617	-0.736791
C43	C	1.455882	-0.402802	-0.971340
C44	C	1.455874	-0.402759	-1.036776
C45	C	1.332446	-0.526132	-1.036745
C46	C	1.332449	-0.526167	-0.971310
C47	C	1.394172	-0.464503	-0.938611
C48	C	1.394013	-0.464690	-0.139118
C49	C	1.394166	-0.464427	-0.069477
H50	H	1.506125	-0.352807	-0.541078
H51	H	1.506128	-0.352516	-1.063422
H52	H	1.506119	-0.352736	-0.659785
C53	C	1.410205	-0.282100	-0.733513
N54	N	1.416523	-0.210105	-0.706405
C55	C	1.410210	-0.282026	-0.870925
N56	N	1.416536	-0.210005	-0.898033
C57	C	1.378118	-0.647053	-0.870927
N58	N	1.371780	-0.719050	-0.898031
C59	C	1.378136	-0.647129	-0.733522
N60	N	1.371830	-0.719156	-0.706419
H61	H	1.282194	-0.576334	-1.063373
C62	C	1.523769	-0.334962	-0.935369
N63	N	1.574901	-0.283864	-0.908277
H64	H	1.282188	-0.576551	-0.659737
H65	H	1.282200	-0.576409	-0.944663
H66	H	1.282169	-0.576612	-0.541023
