data_functionalizedCrystal
_audit_creation_method	'MofGen! by Chris Wilmer'
_symmetry_space_group_name_H-M	'P1'
_symmetry_Int_Tables_number	1
_symmetry_cell_setting	triclinic
loop_
_symmetry_equiv_pos_as_xyz
  x,y,z
_cell_length_a	33.359482
_cell_length_b	33.359897
_cell_length_c	33.359725
_cell_angle_alpha	59.999166
_cell_angle_beta	90.000710
_cell_angle_gamma	60.000143
loop_
_atom_site_label
_atom_site_type_symbol
_atom_site_fract_x
_atom_site_fract_y
_atom_site_fract_z
O1	O	-0.341637	-0.286940	0.011918
O2	O	-0.283351	-0.204849	-0.011874
O3	O	-0.283344	-0.286935	0.070210
O4	O	-0.341644	-0.204853	-0.070167
O5	O	-0.216670	-0.353604	0.070210
O6	O	-0.216678	-0.271517	-0.011875
O7	O	-0.274963	-0.353608	0.011917
Cu8	Cu	-0.239733	-0.318650	0.000021
Cu9	Cu	-0.318582	-0.239807	0.000022
O10	O	-0.274971	-0.271521	-0.070167
C11	C	-0.146295	-0.117534	-0.028825
C12	C	-0.170529	-0.068953	-0.029163
C13	C	-0.073702	-0.117540	-0.028821
C14	C	-0.098046	-0.068959	-0.029160
C15	C	-0.146290	-0.044949	-0.028822
C16	C	-0.098051	-0.141433	-0.029163
C17	C	-0.146112	-0.196172	-0.022937
C18	C	-0.168965	-0.222893	-0.019221
C19	C	-0.216768	-0.199952	-0.017357
C20	C	-0.241547	-0.228923	-0.013326
C21	C	-0.241726	-0.150285	-0.019213
C22	C	-0.218875	-0.123564	-0.022931
C23	C	-0.171068	-0.146510	-0.024791
C24	C	-0.219040	0.027616	-0.022931
C25	C	-0.242044	0.073471	-0.019212
C26	C	-0.217237	0.096466	-0.017345
C27	C	-0.242176	0.146183	-0.013310
C28	C	-0.169426	0.073613	-0.019201
C29	C	-0.146424	0.027762	-0.022922
C30	C	-0.171231	0.004764	-0.024785
C31	C	0.004751	-0.196186	-0.022930
C32	C	0.054328	-0.222917	-0.019205
C33	C	0.079194	-0.199982	-0.017337
C34	C	0.132947	-0.228961	-0.013302
C35	C	0.054492	-0.150320	-0.019191
C36	C	0.004917	-0.123588	-0.022914
C37	C	-0.019951	-0.146523	-0.024784
C38	C	-0.484580	-0.440960	0.028889
C39	C	-0.460231	-0.489542	0.029228
C40	C	-0.411993	-0.440954	0.028885
C41	C	-0.387755	-0.489536	0.029225
C42	C	-0.411988	-0.513546	0.028888
C43	C	-0.460236	-0.417060	0.029226
C44	C	-0.563037	-0.362320	0.022999
C45	C	-0.612611	-0.335599	0.019282
C46	C	-0.637472	-0.358541	0.017418
C47	C	-0.691224	-0.329568	0.013386
C48	C	-0.612763	-0.408208	0.019276
C49	C	-0.563191	-0.434930	0.022995
C50	C	-0.538330	-0.411984	0.024854
C51	C	-0.412172	-0.586113	0.023000
C52	C	-0.389320	-0.631970	0.019283
C53	C	-0.341518	-0.654965	0.017416
C54	C	-0.316739	-0.704683	0.013383
C55	C	-0.316560	-0.632112	0.019271
C56	C	-0.339409	-0.586260	0.022991
C57	C	-0.387216	-0.563260	0.024853
C58	C	-0.412187	-0.362307	0.022992
C59	C	-0.389342	-0.335575	0.019266
C60	C	-0.341540	-0.358511	0.017400
C61	C	-0.316767	-0.329532	0.013364
C62	C	-0.316579	-0.408174	0.019255
C63	C	-0.339422	-0.434906	0.022979
C64	C	-0.387226	-0.411970	0.024848
C65	C	-0.412017	-0.117527	-0.367128
C66	C	-0.460262	-0.068946	-0.391365
C67	C	-0.412017	-0.117526	-0.294539
C68	C	-0.460263	-0.068946	-0.318886
C69	C	-0.484609	-0.044940	-0.367130
C70	C	-0.387780	-0.141423	-0.318885
C71	C	-0.339260	-0.196168	-0.366938
C72	C	-0.316252	-0.222892	-0.389787
C73	C	-0.341057	-0.199955	-0.437589
C74	C	-0.316113	-0.228930	-0.462365
C75	C	-0.388870	-0.150289	-0.462551
C76	C	-0.411876	-0.123565	-0.439704
C77	C	-0.387071	-0.146506	-0.391898
C78	C	-0.563066	0.027621	-0.439883
C79	C	-0.612642	0.073475	-0.462890
C80	C	-0.637507	0.096473	-0.438087
C81	C	-0.691261	0.146189	-0.463029
C82	C	-0.612800	0.073624	-0.390276
C83	C	-0.563226	0.027774	-0.367271
C84	C	-0.538361	0.004772	-0.392074
C85	C	-0.339262	-0.196167	-0.216084
C86	C	-0.316256	-0.222895	-0.166507
C87	C	-0.341061	-0.199957	-0.141644
C88	C	-0.316119	-0.228931	-0.087892
C89	C	-0.388872	-0.150295	-0.166349
C90	C	-0.411880	-0.123567	-0.215924
C91	C	-0.387072	-0.146505	-0.240789
O92	O	0.291047	-0.353642	0.011933
O93	O	0.150669	-0.271552	-0.011857
O94	O	0.232752	-0.353640	0.070226
O95	O	0.208964	-0.271554	-0.070151
O96	O	0.232757	-0.286974	0.070229
O97	O	0.150674	-0.204885	-0.011855
O98	O	0.291052	-0.286975	0.011936
Cu99	Cu	0.220864	-0.239843	0.000041
Cu100	Cu	0.220857	-0.318684	0.000037
O101	O	0.208970	-0.204887	-0.070148
O102	O	-0.274935	0.279039	0.011933
O103	O	-0.216647	0.162454	-0.011856
O104	O	-0.216644	0.162449	0.070227
O105	O	-0.274938	0.279044	-0.070150
O106	O	-0.283318	0.162455	0.070224
O107	O	-0.283322	0.162460	-0.011860
O108	O	-0.341610	0.279045	0.011930
Cu109	Cu	-0.318554	0.220753	0.000035
Cu110	Cu	-0.239703	0.220746	0.000039
O111	O	-0.341613	0.279050	-0.070154
O112	O	-0.849368	0.279046	-0.495800
O113	O	-0.708989	0.162464	-0.437503
O114	O	-0.791067	0.162456	-0.437501
O115	O	-0.767290	0.279054	-0.495802
O116	O	-0.791065	0.162455	-0.504172
O117	O	-0.708987	0.162462	-0.504174
O118	O	-0.849367	0.279045	-0.562471
Cu119	Cu	-0.779177	0.220753	-0.539410
Cu120	Cu	-0.779179	0.220755	-0.460564
O121	O	-0.767289	0.279052	-0.562472
O122	O	-0.283343	-0.286936	-0.562460
O123	O	-0.341641	-0.204856	-0.504167
O124	O	-0.341635	-0.286941	-0.504163
O125	O	-0.283349	-0.204850	-0.562463
O126	O	-0.274961	-0.353611	-0.437492
O127	O	-0.274967	-0.271525	-0.437495
O128	O	-0.216669	-0.353605	-0.495788
Cu129	Cu	-0.239730	-0.318653	-0.460554
Cu130	Cu	-0.318580	-0.239808	-0.539401
O131	O	-0.216675	-0.271520	-0.495792
C132	C	-0.073703	-0.513519	0.367172
C133	C	-0.098050	-0.489513	0.391408
C134	C	-0.146295	-0.440932	0.294582
C135	C	-0.170532	-0.417036	0.318928
C136	C	-0.146295	-0.440932	0.367172
C137	C	-0.098050	-0.489513	0.318929
C138	C	0.004754	-0.586080	0.366984
C139	C	0.054330	-0.631934	0.389834
C140	C	0.079195	-0.654931	0.437636
C141	C	0.132949	-0.704648	0.462413
C142	C	0.054487	-0.632083	0.462597
C143	C	0.004914	-0.586232	0.439749
C144	C	-0.019951	-0.563231	0.391943
C145	C	-0.146107	-0.435230	0.439924
C146	C	-0.168958	-0.408663	0.462930
C147	C	-0.216762	-0.358997	0.438126
C148	C	-0.241540	-0.330188	0.463067
C149	C	-0.241724	-0.335894	0.390315
C150	C	-0.218875	-0.362461	0.367311
C151	C	-0.171066	-0.412127	0.392115
C152	C	-0.146107	-0.435230	0.216128
C153	C	-0.168956	-0.408658	0.166551
C154	C	-0.216760	-0.358992	0.141687
C155	C	-0.241538	-0.330183	0.087935
C156	C	-0.241720	-0.335889	0.166391
C157	C	-0.218873	-0.362457	0.215966
C158	C	-0.171067	-0.412127	0.240832
C159	C	0.249718	-0.440980	0.367192
C160	C	0.250054	-0.489560	0.391427
C161	C	0.249715	-0.440977	0.294601
C162	C	0.250051	-0.489557	0.318946
C163	C	0.249712	-0.513565	0.367190
C164	C	0.250057	-0.417082	0.318948
C165	C	0.243833	-0.362341	0.367005
C166	C	0.240118	-0.335619	0.389856
C167	C	0.238253	-0.358558	0.437658
C168	C	0.234222	-0.329585	0.462436
C169	C	0.240107	-0.408224	0.462619
C170	C	0.243824	-0.434946	0.439770
C171	C	0.245685	-0.412002	0.391963
C172	C	0.243819	-0.586127	0.439942
C173	C	0.240098	-0.631982	0.462948
C174	C	0.238230	-0.654977	0.438142
C175	C	0.234193	-0.704693	0.463083
C176	C	0.240086	-0.632127	0.390331
C177	C	0.243809	-0.586277	0.367328
C178	C	0.245673	-0.563277	0.392133
C179	C	0.243827	-0.362334	0.216147
C180	C	0.240102	-0.335604	0.166570
C181	C	0.238234	-0.358540	0.141705
C182	C	0.234200	-0.329564	0.087952
C183	C	0.240086	-0.408202	0.166409
C184	C	0.243808	-0.434932	0.215984
C185	C	0.245679	-0.411996	0.240850
C186	C	0.192009	-0.044965	-0.367112
C187	C	0.191667	-0.068970	-0.391349
C188	C	0.192007	-0.117553	-0.294523
C189	C	0.191664	-0.141447	-0.318870
C190	C	0.192003	-0.117550	-0.367113
C191	C	0.191670	-0.068972	-0.318869
C192	C	0.197906	0.027595	-0.366922
C193	C	0.201626	0.073449	-0.389771
C194	C	0.203491	0.096448	-0.437574
C195	C	0.207528	0.146164	-0.462350
C196	C	0.201632	0.073600	-0.462536
C197	C	0.197909	0.027750	-0.439689
C198	C	0.196048	0.004747	-0.391882
C199	C	0.197891	-0.123250	-0.439867
C200	C	0.201606	-0.149815	-0.462874
C201	C	0.203468	-0.199481	-0.438070
C202	C	0.207499	-0.228290	-0.463013
C203	C	0.201612	-0.222586	-0.390259
C204	C	0.197894	-0.196020	-0.367254
C205	C	0.196036	-0.146354	-0.392058
C206	C	0.197900	-0.123257	-0.216067
C207	C	0.201625	-0.149830	-0.166490
C208	C	0.203487	-0.199496	-0.141627
C209	C	0.207521	-0.228307	-0.087874
C210	C	0.201630	-0.222598	-0.166332
C211	C	0.197907	-0.196029	-0.215907
C212	C	0.196043	-0.146359	-0.240772
C213	C	-0.146267	-0.117582	0.367178
C214	C	-0.098021	-0.141485	0.391415
C215	C	-0.146267	-0.044987	0.294592
C216	C	-0.098022	-0.069000	0.318940
C217	C	-0.073674	-0.117588	0.367181
C218	C	-0.170504	-0.068994	0.318936
C219	C	-0.219024	-0.123277	0.366985
C220	C	-0.242032	-0.149843	0.389832
C221	C	-0.217226	-0.199516	0.437633
C222	C	-0.242170	-0.228326	0.462406
C223	C	-0.169413	-0.222627	0.462595
C224	C	-0.146407	-0.196060	0.439750
C225	C	-0.171212	-0.146387	0.391945
C226	C	0.004784	-0.196242	0.439933
C227	C	0.054360	-0.222972	0.462940
C228	C	0.079225	-0.200033	0.438138
C229	C	0.132979	-0.229015	0.463081
C230	C	0.054517	-0.150361	0.390329
C231	C	0.004943	-0.123631	0.367324
C232	C	-0.019922	-0.146574	0.392126
C233	C	-0.219024	0.027590	0.216138
C234	C	-0.242031	0.073448	0.166562
C235	C	-0.217226	0.096446	0.141701
C236	C	-0.242170	0.146171	0.087950
C237	C	-0.169415	0.073590	0.166407
C238	C	-0.146406	0.027732	0.215980
C239	C	-0.171213	0.004734	0.240843
O240	O	0.208976	-0.271575	0.562528
O241	O	0.232770	-0.353660	0.504238
O242	O	0.150685	-0.271576	0.504230
O243	O	0.291061	-0.353660	0.562536
O244	O	0.150688	-0.204906	0.437559
O245	O	0.232773	-0.286990	0.437567
O246	O	0.208979	-0.204905	0.495857
Cu247	Cu	0.220876	-0.239860	0.460625
Cu248	Cu	0.220873	-0.318705	0.539470
O249	O	0.291064	-0.286989	0.495865
C250	C	-0.484583	0.559086	-0.367108
C251	C	-0.460236	0.582984	-0.391342
C252	C	-0.411990	0.486486	-0.294519
C253	C	-0.387753	0.510494	-0.318863
C254	C	-0.411991	0.559082	-0.367104
C255	C	-0.460235	0.510498	-0.318867
C256	C	-0.563039	0.564792	-0.366923
C257	C	-0.612615	0.591364	-0.389774
C258	C	-0.637480	0.641037	-0.437574
C259	C	-0.691234	0.669852	-0.462352
C260	C	-0.612773	0.664142	-0.462533
C261	C	-0.563200	0.637570	-0.439684
C262	C	-0.538335	0.587897	-0.391879
C263	C	-0.412180	0.637731	-0.439852
C264	C	-0.389330	0.664456	-0.462855
C265	C	-0.341525	0.641512	-0.438050
C266	C	-0.316748	0.670487	-0.462988
C267	C	-0.316563	0.591839	-0.390241
C268	C	-0.339411	0.565114	-0.367239
C269	C	-0.387220	0.588062	-0.392045
C270	C	-0.412177	0.413915	-0.216068
C271	C	-0.389327	0.368057	-0.166492
C272	C	-0.341523	0.345053	-0.141627
C273	C	-0.316744	0.295328	-0.087876
C274	C	-0.316564	0.367904	-0.166329
C275	C	-0.339411	0.413762	-0.215903
C276	C	-0.387218	0.436766	-0.240770
H277	H	-0.239244	0.008896	-0.024452
F278	F	-0.292915	-0.125246	0.363265
H279	H	0.245340	-0.567405	0.460144
H280	H	-0.479784	0.622079	-0.430981
F281	F	-0.485785	0.484239	-0.293320
H282	H	0.245351	-0.343656	0.236391
F283	F	-0.072482	-0.192565	0.443234
F284	F	-0.292606	-0.283032	0.363917
H285	H	-0.450803	-0.083123	-0.460032
F286	F	0.245793	-0.561964	0.316449
F287	F	0.238148	-0.282766	0.363292
H288	H	-0.280653	-0.131608	-0.017696
H289	H	0.074442	-0.650533	0.369508
F290	F	0.238122	-0.432637	0.513499
F291	F	0.195909	-0.070388	-0.466269
H292	H	-0.348139	-0.180513	-0.299340
H293	H	0.203140	0.092048	-0.369445
F294	F	-0.463050	-0.561641	0.024986
H295	H	-0.409064	-0.131614	-0.501478
F296	F	0.238099	-0.656607	0.363933
H297	H	-0.479788	-0.377965	0.029768
H298	H	-0.078475	-0.048909	0.299392
F299	F	-0.536605	0.003145	-0.466285
F300	F	-0.021353	-0.070768	0.316444
F301	F	-0.638904	-0.282741	0.017303
H302	H	-0.277328	-0.263330	-0.146396
F303	F	-0.292927	0.097789	-0.017240
H304	H	0.074743	-0.131646	-0.017669
F305	F	-0.143011	0.098066	0.139944
F306	F	0.190923	-0.192525	-0.293330
F307	F	-0.265701	-0.432584	0.017265
H308	H	-0.409653	0.349454	-0.146385
F309	F	-0.143026	0.098093	-0.017215
H310	H	-0.210144	-0.048901	0.299390
F311	F	-0.312845	0.512249	-0.316361
H312	H	0.245334	-0.475384	0.460094
F313	F	0.203616	0.098083	-0.513416
H314	H	-0.107497	0.009159	-0.024435
H315	H	0.238587	-0.650581	0.501876
F316	F	-0.639228	-0.432624	0.017293
H317	H	-0.409670	-0.295139	0.017757
H318	H	-0.542796	-0.343635	0.024516
H319	H	-0.015194	-0.083151	-0.024424
H320	H	-0.239199	-0.083124	-0.024446
F321	F	-0.312856	-0.220578	-0.242547
H322	H	0.196396	-0.214843	-0.236021
F323	F	0.203600	-0.125239	-0.140201
F324	F	0.245777	-0.487785	0.242274
F325	F	-0.335945	-0.515793	0.029936
F326	F	-0.638931	0.097790	-0.513773
H327	H	-0.280960	0.092054	0.146451
H328	H	0.196402	0.009143	-0.460011
F329	F	0.250770	-0.515825	0.443238
H330	H	-0.451111	-0.343630	0.024517
F331	F	-0.265680	0.567420	-0.363842
H332	H	-0.107187	-0.214855	-0.024457
H333	H	-0.409646	-0.650572	0.017774
F334	F	0.250772	-0.365987	0.293400
H335	H	-0.633052	0.092358	-0.370083
H336	H	-0.277635	-0.650839	0.017747
H337	H	-0.107478	-0.214876	0.460076
H338	H	0.238595	-0.295170	0.146460
H339	H	-0.451106	0.656415	-0.460056
F340	F	-0.335938	0.484220	-0.293316
F341	F	-0.463056	0.438394	-0.242532
H342	H	-0.542796	0.524344	-0.327999
F343	F	0.203579	-0.125221	-0.513757
H344	H	0.238564	-0.426878	0.146160
H345	H	-0.107180	-0.475673	0.460125
H346	H	-0.479778	-0.509635	0.029775
H347	H	-0.015489	-0.567356	0.328058
F348	F	-0.072503	-0.515779	0.443221
H349	H	-0.543074	-0.475370	0.024508
H350	H	0.191120	-0.048874	-0.430988
H351	H	0.074740	-0.650814	0.501524
H352	H	-0.149218	-0.263076	0.501520
H353	H	-0.319088	-0.567652	0.024498
F354	F	-0.312856	-0.487761	0.024952
F355	F	0.195913	-0.070392	-0.242529
F356	F	-0.485811	-0.042682	-0.293340
H357	H	-0.479804	-0.048851	-0.431007
H358	H	-0.319086	0.432367	-0.236014
H359	H	-0.319059	-0.214849	-0.328013
H360	H	0.191166	-0.048905	-0.299310
F361	F	-0.265370	-0.275746	-0.363221
F362	F	-0.415898	0.717317	-0.513736
F363	F	-0.638906	0.566772	-0.363211
H364	H	-0.277637	0.349173	-0.146079
F365	F	-0.021381	-0.561913	0.466311
F366	F	-0.142389	-0.433256	0.513812
F367	F	-0.639242	0.717012	-0.513411
H368	H	-0.078496	-0.048869	-0.029708
H369	H	-0.543109	0.009176	-0.328345
F370	F	-0.142402	-0.275747	-0.017248
H371	H	-0.450810	-0.083131	-0.236038
F372	F	0.195922	0.003118	-0.316043
H373	H	-0.543083	0.656381	-0.460008
H374	H	-0.409072	-0.131619	-0.146101
H375	H	-0.210169	-0.048857	-0.029714
H376	H	-0.210170	-0.377940	0.299377
H377	H	0.203127	-0.263029	-0.370066
H378	H	-0.239201	-0.343650	0.328384
H379	H	-0.078496	-0.509596	0.299380
H380	H	0.196380	-0.214831	-0.328327
F381	F	-0.142388	-0.433247	0.140262
F382	F	-0.095228	-0.488094	0.242591
H383	H	-0.078508	-0.180526	-0.029708
H384	H	-0.239197	-0.343641	0.236079
F385	F	-0.292599	-0.283021	0.139925
F386	F	0.250759	-0.515814	0.293396
F387	F	0.203613	-0.275462	-0.139868
H388	H	0.245352	-0.343658	0.328080
F389	F	-0.245429	0.003116	0.242598
H390	H	-0.239226	-0.082828	0.328061
F391	F	-0.021677	-0.220661	0.466333
H392	H	0.074471	-0.263414	0.501867
H393	H	-0.107474	0.009119	0.236093
F394	F	0.080613	-0.275769	-0.017235
H395	H	0.074769	-0.131686	0.370137
H396	H	-0.015496	-0.214862	-0.024455
