data_functionalizedCrystal
_audit_creation_method	'MofGen! by Chris Wilmer'
_symmetry_space_group_name_H-M	'P1'
_symmetry_Int_Tables_number	1
_symmetry_cell_setting	triclinic
loop_
_symmetry_equiv_pos_as_xyz
  x,y,z
_cell_length_a	19.077105
_cell_length_b	19.077068
_cell_length_c	19.077569
_cell_angle_alpha	90.064237
_cell_angle_beta	85.299277
_cell_angle_gamma	90.115316
loop_
_atom_site_label
_atom_site_type_symbol
_atom_site_fract_x
_atom_site_fract_y
_atom_site_fract_z
Zn1	Zn	1.081898	-0.305533	-0.453630
Zn2	Zn	1.072367	-0.427395	-0.340438
Zn3	Zn	0.959280	-0.305543	-0.331026
Zn4	Zn	0.959616	-0.418291	-0.453207
O5	O	1.018290	-0.364190	-0.394575
O6	O	1.179137	-0.325504	-0.442731
O7	O	1.053237	-0.415046	-0.240685
O8	O	0.979394	-0.207356	-0.343527
O9	O	1.172134	-0.415036	-0.359569
O10	O	1.069481	-0.207349	-0.433604
O11	O	0.970152	-0.325521	-0.233770
O12	O	0.860822	-0.316693	-0.343117
O13	O	0.979966	-0.399519	-0.551767
O14	O	0.861068	-0.399528	-0.432883
O15	O	1.069807	-0.316676	-0.552078
O16	O	1.053562	-0.524373	-0.359159
O17	O	0.970724	-0.517684	-0.442010
C18	C	0.835404	-0.357124	-0.386933
C19	C	0.757165	-0.354118	-0.383681
C20	C	0.720549	-0.395903	-0.428822
C21	C	0.647035	-0.393069	-0.425769
C22	C	0.610138	-0.348452	-0.377573
C23	C	0.646759	-0.306662	-0.332430
C24	C	0.720272	-0.309493	-0.335487
C25	C	0.390264	-0.335349	-0.363431
C26	C	0.316746	-0.332522	-0.360376
C27	C	0.317027	-0.418929	-0.453717
C28	C	0.390541	-0.421759	-0.456766
C29	C	0.427156	-0.379966	-0.411626
N30	N	0.534995	-0.345555	-0.374450
N31	N	0.502298	-0.382860	-0.414753
C32	C	1.011165	-0.546487	-0.401576
C33	C	1.008182	-0.624475	-0.404598
C34	C	1.049946	-0.664574	-0.362920
C35	C	1.047145	-0.737852	-0.365766
C36	C	1.002575	-0.771031	-0.410287
C37	C	0.960809	-0.730927	-0.451969
C38	C	0.963615	-0.657650	-0.449126
C39	C	0.989560	-0.989815	-0.423414
C40	C	0.986756	-1.063097	-0.426252
C41	C	1.073093	-1.070017	-0.340050
C42	C	1.075891	-0.996738	-0.337208
C43	C	1.034128	-0.956641	-0.378893
N44	N	0.999709	-0.845933	-0.413195
N45	N	1.036998	-0.881740	-0.375988
C46	C	1.201891	-0.371285	-0.402247
C47	C	1.280130	-0.374308	-0.405517
C48	C	1.025987	-0.357080	-0.578178
C49	C	1.029267	-0.354051	-0.656418
C50	C	1.025463	-0.181182	-0.387563
C51	C	1.028520	-0.103195	-0.384575
C52	C	0.984034	-0.395756	-0.693015
C53	C	0.987121	-0.392909	-0.766531
C54	C	1.035439	-0.348353	-0.803448
C55	C	1.080677	-0.306647	-0.766846
C56	C	1.077592	-0.309497	-0.693332
C57	C	1.049684	-0.335205	-1.023329
C58	C	1.052764	-0.332356	-1.096848
C59	C	0.959208	-0.418620	-1.096527
C60	C	0.956125	-0.421464	-1.023012
C61	C	1.001365	-0.379760	-0.986417
N62	N	1.038595	-0.345441	-0.878593
N63	N	0.998213	-0.382676	-0.911274
C64	C	1.010666	-0.371224	-0.211686
C65	C	1.007530	-0.374061	-0.133444
H66	H	0.616712	-0.270330	-0.293190
O67	O	0.915170	-0.459056	-1.132038
C68	C	0.795044	-0.487653	-1.150806
C69	C	0.844837	-0.441798	-1.110554
H70	H	0.738169	-0.473727	-1.133441
H71	H	0.805486	-0.477960	-1.209696
H72	H	0.804622	-0.545263	-1.139046
H73	H	0.835288	-0.384173	-1.122256
H74	H	0.834384	-0.451551	-1.051677
H75	H	0.924523	-0.757947	-0.488222
O76	O	0.937025	-0.438939	-0.657122
C77	C	0.838158	-0.447943	-0.570494
C78	C	0.891341	-0.398952	-0.611100
H79	H	0.801219	-0.415635	-0.533265
H80	H	0.806312	-0.477248	-0.609252
H81	H	0.867610	-0.487228	-0.538868
H82	H	0.861946	-0.359626	-0.642728
H83	H	0.923186	-0.369698	-0.572306
O84	O	1.093199	-0.632426	-0.319575
C85	C	1.123277	-0.615956	-0.200423
C86	C	1.074253	-0.652418	-0.249432
H87	H	1.107968	-0.632095	-0.143701
H88	H	1.180006	-0.632036	-0.215702
H89	H	1.118121	-0.556698	-0.205585
H90	H	1.079347	-0.711683	-0.244296
H91	H	1.017544	-0.636281	-0.234140
H92	H	0.929607	-0.625002	-0.483065
H93	H	0.750084	-0.275463	-0.298732
H94	H	0.955553	-0.957173	-0.457354
H95	H	1.081154	-0.770498	-0.331827
O96	O	1.113586	-1.108940	-0.299462
C97	C	1.142015	-1.137316	-0.182061
C98	C	1.096094	-1.093205	-0.227940
H99	H	1.127900	-1.124600	-0.124227
H100	H	1.132349	-1.195398	-0.191680
H101	H	1.199833	-1.124571	-0.196319
H102	H	1.038260	-1.105891	-0.213710
H103	H	1.105820	-1.035136	-0.218315
O104	O	1.119087	-0.964482	-0.293881
C105	C	1.127821	-0.885804	-0.196065
C106	C	1.078822	-0.922300	-0.245077
H107	H	1.095288	-0.851680	-0.156605
H108	H	1.157176	-0.927025	-0.166714
H109	H	1.167287	-0.851650	-0.228631
H110	H	1.039316	-0.956451	-0.212563
H111	H	1.049519	-0.881043	-0.274431
O112	O	1.127552	-0.263382	-0.802812
C113	C	1.173795	-0.220788	-0.916206
C114	C	1.120665	-0.269806	-0.875564
H115	H	1.168256	-0.225976	-0.975033
H116	H	1.163049	-0.164277	-0.899115
H117	H	1.229456	-0.235859	-0.904552
H118	H	1.064985	-0.254799	-0.887197
H119	H	1.131473	-0.326305	-0.892659
H120	H	0.950471	-1.090108	-0.462519
O121	O	0.943107	-0.433442	-0.801970
C122	C	0.850011	-0.519329	-0.793896
C123	C	0.899806	-0.473449	-0.753674
H124	H	0.815000	-0.551697	-0.754867
H125	H	0.815865	-0.484390	-0.825522
H126	H	0.882345	-0.555905	-0.831088
H127	H	0.867528	-0.436867	-0.716446
H128	H	0.933954	-0.508430	-0.722094
O129	O	0.909249	-0.464841	-0.987199
C130	C	0.869386	-0.583725	-0.967898
C131	C	0.922538	-0.534690	-1.008487
H132	H	0.880102	-0.640206	-0.985104
H133	H	0.874936	-0.578662	-0.909060
H134	H	0.813731	-0.568595	-0.979515
H135	H	0.978215	-0.549787	-0.996928
H136	H	0.916927	-0.539759	-1.067312
H137	H	1.092108	-0.296067	-1.126903
O138	O	1.121560	-0.268914	-0.657887
C139	C	1.214709	-0.183083	-0.665960
C140	C	1.164941	-0.228992	-0.706187
H141	H	1.249805	-0.150806	-0.704995
H142	H	1.182424	-0.146435	-0.628804
H143	H	1.248776	-0.218067	-0.634297
H144	H	1.130863	-0.194064	-0.737890
H145	H	1.197268	-0.265646	-0.743302
O146	O	0.425867	-0.294681	-0.319680
C147	C	0.512203	-0.203523	-0.310176
C148	C	0.471914	-0.249522	-0.359805
H149	H	0.549452	-0.167011	-0.342597
H150	H	0.473240	-0.171100	-0.275212
H151	H	0.543780	-0.238447	-0.275969
H152	H	0.440336	-0.214651	-0.394057
H153	H	0.510913	-0.281952	-0.394722
H154	H	0.750585	-0.432238	-0.468067
H155	H	0.420577	-0.458093	-0.496011
O156	O	0.611573	-0.433738	-0.469640
C157	C	0.619611	-0.519729	-0.562554
C158	C	0.659857	-0.473716	-0.512901
H159	H	0.658631	-0.552052	-0.597553
H160	H	0.582421	-0.556336	-0.530179
H161	H	0.587980	-0.484819	-0.596724
H162	H	0.691528	-0.508570	-0.478721
H163	H	0.697005	-0.437103	-0.545318
O164	O	0.281352	-0.459450	-0.497537
C165	C	0.168224	-0.493414	-0.534174
C166	C	0.208538	-0.447475	-0.484513
H167	H	0.109346	-0.483759	-0.523652
H168	H	0.185498	-0.479533	-0.591098
H169	H	0.179988	-0.551004	-0.524504
H170	H	0.196793	-0.389872	-0.494121
H171	H	0.191259	-0.461415	-0.427606
H172	H	0.286707	-0.296181	-0.321132
H173	H	1.086522	-0.301247	-0.993542
