data_functionalizedCrystal
_audit_creation_method	'MofGen! by Chris Wilmer'
_symmetry_space_group_name_H-M	'P1'
_symmetry_Int_Tables_number	1
_symmetry_cell_setting	triclinic
loop_
_symmetry_equiv_pos_as_xyz
  x,y,z
_cell_length_a	27.732048
_cell_length_b	10.654550
_cell_length_c	9.130313
_cell_angle_alpha	90.000110
_cell_angle_beta	89.997305
_cell_angle_gamma	96.436221
loop_
_atom_site_label
_atom_site_type_symbol
_atom_site_fract_x
_atom_site_fract_y
_atom_site_fract_z
O1	O	0.641855	-0.149411	-0.121879
O2	O	0.501203	-0.172130	-0.121863
O3	O	0.574763	0.022105	-0.121866
O4	O	0.568295	-0.343646	-0.121876
O5	O	0.574762	0.022100	0.121733
O6	O	0.501202	-0.172135	0.121736
O7	O	0.641854	-0.149416	0.121720
Cu8	Cu	0.571528	-0.160776	0.143970
Cu9	Cu	0.571529	-0.160770	-0.144114
O10	O	0.568294	-0.343651	0.121723
C11	C	0.483193	-0.171655	-0.000062
C12	C	0.429529	-0.170219	-0.000056
C13	C	0.659864	-0.149890	-0.000085
C14	C	0.713528	-0.151326	-0.000101
N15	N	0.571531	-0.160779	0.346593
C16	C	1.051685	-0.045587	-0.000047
C17	C	1.253378	-0.050915	-0.000043
O18	O	1.284031	0.045776	0.000023
N19	N	1.273219	-0.166088	-0.000050
C20	C	1.242633	-0.279937	-0.000049
O21	O	1.264137	-0.378021	-0.000040
C22	C	1.040941	-0.274608	-0.000043
C23	C	1.021103	-0.159427	-0.000051
C24	C	1.031846	0.069584	-0.000053
C25	C	0.981426	0.070915	-0.000062
C26	C	0.950844	-0.042925	-0.000066
C27	C	0.970683	-0.158097	-0.000060
C28	C	1.010356	-0.388456	-0.000032
C29	C	0.959931	-0.387113	-0.000027
C30	C	0.940093	-0.271933	-0.000034
C31	C	0.889681	-0.270606	-0.000072
N32	N	0.869840	-0.155433	-0.000065
C33	C	0.900422	-0.041593	-0.000061
C34	C	1.348524	-0.282727	-0.000055
C35	C	1.398947	-0.284060	-0.000059
C36	C	1.409688	-0.055037	-0.000050
C37	C	1.359265	-0.053706	-0.000056
C38	C	1.328683	-0.167554	-0.000048
C39	C	0.794535	-0.038807	-0.000082
C40	C	0.744110	-0.037486	-0.000097
C41	C	0.733373	-0.266508	-0.000099
C42	C	0.783794	-0.267830	-0.000091
C43	C	0.814374	-0.153969	-0.000078
O44	O	0.858999	-0.367246	-0.000121
O45	O	0.878908	0.056477	-0.000038
C46	C	1.102105	-0.046918	-0.000038
C47	C	1.121943	-0.162089	-0.000032
C48	C	1.091362	-0.275929	-0.000036
C49	C	1.172366	-0.163422	-0.000036
C50	C	1.202948	-0.049581	-0.000033
C51	C	1.183107	0.065592	-0.000026
C52	C	1.132687	0.066923	-0.000035
C53	C	1.111203	-0.391102	-0.000043
C54	C	1.161623	-0.392424	-0.000036
C55	C	1.192205	-0.278584	-0.000032
C56	C	0.574287	0.068880	-0.000068
C57	C	0.572867	0.208264	-0.000073
C58	C	0.568769	-0.390426	-0.000078
C59	C	0.570190	-0.529810	-0.000083
C60	C	0.616177	0.289570	-0.000074
C61	C	0.614840	0.420535	-0.000084
C62	C	0.526876	0.388874	-0.000087
C63	C	0.528215	0.257912	-0.000087
C64	C	0.660830	0.239922	-0.000060
C65	C	0.704144	0.321230	-0.000059
C66	C	0.702806	0.452195	-0.000069
C67	C	0.658154	0.501852	-0.000080
N68	N	0.571530	-0.160756	-0.346736
C69	C	0.604111	-0.074801	0.423244
C70	C	0.604110	-0.074786	0.576580
C71	C	0.538946	-0.246739	0.576602
C72	C	0.538945	-0.246747	0.423268
C73	C	0.636697	0.011166	0.346568
C74	C	0.669281	0.097151	0.423219
C75	C	0.669279	0.097166	0.576556
C76	C	0.636694	0.011197	0.653242
H77	H	0.727961	0.056312	-0.000107
H78	H	1.343116	0.040084	-0.000061
H79	H	0.819428	0.053910	-0.000072
N80	N	0.704419	0.189867	0.340495
H81	H	0.738770	0.176025	0.367173
H82	H	0.698514	0.278857	0.367194
H83	H	1.086307	-0.483807	-0.000044
H84	H	0.492947	0.191709	-0.000085
N85	N	1.216095	0.188382	-0.000006
H86	H	1.209676	0.238688	-0.090303
H87	H	1.251033	0.169948	0.000059
H88	H	0.490522	0.429315	-0.000094
N89	N	0.503803	-0.339458	0.659306
H90	H	0.508748	-0.326407	0.768073
H91	H	0.509681	-0.428445	0.632509
H92	H	0.695807	0.167186	0.638963
H93	H	0.965279	0.164707	-0.000062
N94	N	0.636695	0.011144	0.181186
H95	H	0.669592	-0.006550	0.144250
H96	H	0.629362	0.096351	0.144354
N97	N	1.031749	-0.512681	-0.000003
H98	H	1.052432	-0.518357	-0.090301
H99	H	1.004694	-0.584518	0.000062
N100	N	1.064826	0.192380	-0.000038
H101	H	1.044600	0.265530	-0.000038
H102	H	1.085982	0.196827	-0.090346
H103	H	0.512414	-0.316757	0.360859
H104	H	1.434597	0.037656	-0.000053
H105	H	0.738075	0.518393	-0.000083
N106	N	0.636686	0.011206	0.818627
H107	H	0.629371	0.096403	0.855554
H108	H	0.669589	-0.006528	0.855450
H109	H	0.657068	0.608493	-0.000104
N110	N	1.420336	-0.408296	-0.000084
H111	H	1.409209	-0.458126	0.090217
H112	H	1.456916	-0.391781	-0.000145
N113	N	1.315543	-0.405528	0.000057
H114	H	1.335768	-0.478682	0.000082
H115	H	1.294373	-0.410031	-0.090213
H116	H	0.935033	-0.479825	-0.000013
H117	H	0.799947	-0.361619	-0.000087
H118	H	0.708464	-0.359194	-0.000109
H119	H	1.116540	0.160714	-0.000040
H120	H	1.177770	-0.486225	-0.000040
H121	H	0.740498	0.280791	-0.000086
H122	H	0.661924	0.133286	-0.000047
