data_functionalizedCrystal
_audit_creation_method	'MofGen! by Chris Wilmer'
_symmetry_space_group_name_H-M	'P1'
_symmetry_Int_Tables_number	1
_symmetry_cell_setting	triclinic
loop_
_symmetry_equiv_pos_as_xyz
  x,y,z
_cell_length_a	8.597340
_cell_length_b	8.559649
_cell_length_c	7.681481
_cell_angle_alpha	85.068589
_cell_angle_beta	103.474906
_cell_angle_gamma	77.625114
loop_
_atom_site_label
_atom_site_type_symbol
_atom_site_fract_x
_atom_site_fract_y
_atom_site_fract_z
O1	O	2.072798	0.220972	0.168058
O2	O	1.605620	0.246432	0.097176
O3	O	1.880368	0.001097	0.138866
O4	O	1.798050	0.466307	0.126368
O5	O	1.914193	-0.029168	0.436857
O6	O	1.639446	0.216167	0.395167
O7	O	2.106623	0.190707	0.466049
Zn8	Zn	1.878405	0.198632	0.477920
Zn9	Zn	1.833839	0.238507	0.085305
O10	O	1.831875	0.436042	0.424359
C11	C	1.563278	0.230251	0.237181
C12	C	1.386718	0.227109	0.210393
C13	C	1.903519	-0.073565	0.288805
C14	C	1.922087	-0.250946	0.291615
C15	C	2.148965	0.206888	0.326040
C16	C	2.325523	0.210032	0.352817
C17	C	1.808724	0.510704	0.274416
C18	C	1.790155	0.688086	0.271595
N19	N	1.908832	0.171417	0.745871
N20	N	1.803426	0.265709	-0.182644
H21	H	1.408209	0.197804	0.495254
C22	C	1.660108	0.394286	0.695447
C23	C	1.672107	0.546679	0.741945
C24	C	1.540123	0.665166	0.629655
H25	H	1.559160	0.374163	0.710202
H26	H	1.663406	0.391427	0.572970
H27	H	1.668794	0.549534	0.864392
H28	H	1.773027	0.566853	0.727182
H29	H	1.543421	0.662308	0.507178
H30	H	1.439185	0.645028	0.644418
H31	H	1.548255	0.768579	0.661177
H32	H	2.049246	-0.334450	0.310914
H33	H	2.016446	0.075178	0.837407
H34	H	1.304026	0.239326	0.067947
C35	C	1.620585	-0.200459	0.245504
C36	C	1.584650	-0.088118	0.089364
C37	C	1.428452	0.014565	0.065258
H38	H	1.619334	-0.145048	0.347323
H39	H	1.540244	-0.262427	0.233215
H40	H	1.664970	-0.026157	0.101665
H41	H	1.585865	-0.143482	-0.012485
H42	H	1.348112	-0.047403	0.052969
H43	H	1.427217	0.069964	0.167085
H44	H	1.404044	0.090791	-0.040693
