data_functionalizedCrystal
_audit_creation_method	'MofGen! by Chris Wilmer'
_symmetry_space_group_name_H-M	'P1'
_symmetry_Int_Tables_number	1
_symmetry_cell_setting	triclinic
loop_
_symmetry_equiv_pos_as_xyz
  x,y,z
_cell_length_a	11.026607
_cell_length_b	10.654550
_cell_length_c	9.482900
_cell_angle_alpha	99.426343
_cell_angle_beta	78.636152
_cell_angle_gamma	96.535460
loop_
_atom_site_label
_atom_site_type_symbol
_atom_site_fract_x
_atom_site_fract_y
_atom_site_fract_z
O1	O	1.633381	0.511463	-0.120893
O2	O	1.279571	0.451467	-0.120895
O3	O	1.464610	0.300492	-0.120889
O4	O	1.448342	0.662438	-0.120899
O5	O	1.427025	0.331316	0.120903
O6	O	1.241986	0.482291	0.120896
O7	O	1.595797	0.542287	0.120898
Cu8	Cu	1.415460	0.515103	0.142975
Cu9	Cu	1.459908	0.478650	-0.142971
O10	O	1.410758	0.693262	0.120892
C11	C	1.215474	0.455811	0.000000
C12	C	1.080483	0.422816	-0.000001
C13	C	1.007444	0.513919	-0.000004
C14	C	0.867923	0.479820	-0.000005
C15	C	1.444623	0.268847	0.000005
C16	C	1.441050	0.128627	0.000000
C17	C	1.549998	0.072791	0.000005
C18	C	1.546634	-0.058961	-0.000005
C19	C	1.325364	-0.079031	-0.000019
C20	C	1.328730	0.052718	-0.000019
C21	C	1.662318	0.148701	0.000025
C22	C	1.771274	0.092866	0.000031
C23	C	1.767910	-0.038887	0.000021
C24	C	1.655590	-0.114805	0.000004
C25	C	1.659894	0.537943	-0.000000
C26	C	1.794887	0.570936	-0.000009
C27	C	1.430745	0.724907	-0.000005
C28	C	1.434319	0.865125	-0.000010
N29	N	1.384206	0.540743	0.344094
N30	N	1.491171	0.453003	-0.344091
C31	C	1.450681	0.486205	0.416295
C32	C	1.424686	0.507549	0.583712
H33	H	1.039728	0.319570	-0.000035
H34	H	1.308046	0.603233	0.406221
O35	O	1.873857	-0.093005	-0.000173
C36	C	1.961444	-0.070686	-0.125409
H37	H	1.938918	0.016799	-0.167156
H38	H	2.058389	-0.053404	-0.097235
H39	H	1.957853	-0.157401	-0.213102
H40	H	1.567327	0.390498	0.593788
H41	H	1.526832	0.423704	0.354170
H42	H	1.048204	0.617161	0.000001
H43	H	1.862727	0.154682	0.000009
H44	H	1.348521	0.570043	0.645833
H45	H	0.827174	0.376567	-0.000039
O46	O	0.843405	0.694161	0.000239
C47	C	0.784784	0.770367	0.125438
H48	H	0.744131	0.707887	0.212973
H49	H	0.855612	0.846521	0.167465
H50	H	0.707210	0.818314	0.097119
H51	H	1.652862	-0.222088	-0.000019
O52	O	1.665718	0.276723	0.000229
C53	C	1.708022	0.342191	0.125487
H54	H	1.764185	0.277439	0.167236
H55	H	1.769045	0.431678	0.097341
H56	H	1.625047	0.370394	0.213167
H57	H	1.233917	-0.140853	-0.000031
H58	H	1.240015	0.098180	-0.000022
