data_functionalizedCrystal
_audit_creation_method	'MofGen! by Chris Wilmer'
_symmetry_space_group_name_H-M	'P1'
_symmetry_Int_Tables_number	1
_symmetry_cell_setting	triclinic
loop_
_symmetry_equiv_pos_as_xyz
  x,y,z
_cell_length_a	16.974800
_cell_length_b	15.995292
_cell_length_c	16.053802
_cell_angle_alpha	92.568169
_cell_angle_beta	91.074188
_cell_angle_gamma	83.429017
loop_
_atom_site_label
_atom_site_type_symbol
_atom_site_fract_x
_atom_site_fract_y
_atom_site_fract_z
O1	O	1.049056	0.106736	0.001486
O2	O	0.819592	0.119554	-0.014025
O3	O	0.940620	-0.008732	-0.005845
O4	O	0.928028	0.235022	-0.006694
O5	O	0.933959	-0.001700	0.132563
O6	O	0.812930	0.126586	0.124383
O7	O	1.042394	0.113768	0.139894
Zn8	Zn	0.926605	0.121294	0.154114
Zn9	Zn	0.935382	0.112029	-0.028245
O10	O	0.921366	0.242054	0.131715
C11	C	0.786898	0.122454	0.053194
C12	C	0.699406	0.120607	0.047279
C13	C	0.654675	0.123571	0.119949
C14	C	0.572468	0.121823	0.114394
C15	C	0.534993	0.117117	0.036169
C16	C	0.579730	0.114151	-0.036506
C17	C	0.661936	0.115893	-0.030951
C18	C	0.289524	0.111490	0.011463
C19	C	0.207311	0.109751	0.005912
C20	C	0.200056	0.117422	0.156814
C21	C	0.282263	0.119168	0.162363
C22	C	0.326993	0.116197	0.089688
N23	N	0.450964	0.115333	0.030489
N24	N	0.411021	0.117976	0.095368
C25	C	0.936777	-0.036413	0.063322
C26	C	0.935241	-0.129369	0.063212
C27	C	0.929592	-0.467120	0.062838
C28	C	1.016932	-0.443598	0.069052
C29	C	1.018607	-0.346935	0.068849
C30	C	0.932395	-0.299558	0.063024
C31	C	0.892526	-0.332772	-0.018964
C32	C	0.891477	-0.429568	-0.019098
C33	C	0.882117	-0.421432	0.138178
C34	C	0.885305	-0.324879	0.139438
C35	C	0.933975	-0.204859	0.063126
C36	C	0.928010	-0.561819	0.062730
C37	C	1.075088	0.110868	0.072673
C38	C	1.162581	0.112714	0.078582
C39	C	0.925209	0.269735	0.062545
C40	C	0.926746	0.362691	0.062650
N41	N	0.920620	0.127616	0.278570
N42	N	0.941372	0.105699	-0.152701
C43	C	0.972137	0.073050	0.325746
C44	C	0.967958	0.077481	0.412870
C45	C	0.912266	0.136482	0.452817
C46	C	0.860744	0.191051	0.405635
C47	C	0.864919	0.186616	0.318512
C48	C	0.894026	0.155833	0.712994
C49	C	0.889856	0.160266	0.800124
C50	C	0.997070	0.046694	0.807353
C51	C	1.001243	0.042267	0.720228
C52	C	0.949719	0.096833	0.673053
N53	N	0.907995	0.141014	0.541872
N54	N	0.953986	0.092296	0.583999
H55	H	0.685180	0.127410	0.183649
H56	H	0.325934	0.109068	-0.047715
H57	H	0.536054	0.124222	0.173570
C58	C	0.660854	0.108152	-0.180667
C59	C	0.711106	0.112644	-0.110832
H60	H	0.691211	0.106151	-0.229983
H61	H	0.634666	0.058850	-0.179292
H62	H	0.622613	0.156419	-0.180094
H63	H	0.749344	0.064374	-0.111402
H64	H	0.737307	0.161952	-0.112208
H65	H	0.924567	-0.459319	-0.076136
H66	H	1.050084	-0.324955	0.127816
C67	C	1.042090	-0.096765	0.837304
C68	C	1.053693	-0.013292	0.859209
H69	H	1.077050	-0.133801	0.869316
H70	H	0.988814	-0.105269	0.848043
H71	H	1.052550	-0.107839	0.779699
H72	H	1.043228	-0.002217	0.916813
H73	H	1.106981	-0.004784	0.848477
C74	C	0.266831	0.126570	0.310965
C75	C	0.323453	0.124339	0.248351
H76	H	0.292262	0.129760	0.364050
H77	H	0.228897	0.174511	0.305252
H78	H	0.240942	0.076942	0.306063
H79	H	0.349338	0.173970	0.253249
H80	H	0.361402	0.076393	0.254066
C81	C	0.978645	-0.517839	0.206304
C82	C	0.915163	-0.455385	0.221548
H83	H	0.999052	-0.538798	0.257771
H84	H	0.960784	-0.562520	0.172729
H85	H	1.019158	-0.494549	0.178083
H86	H	0.874647	-0.478677	0.249764
H87	H	0.933022	-0.410696	0.255136
H88	H	1.055745	-0.331337	0.014420
H89	H	1.047875	-0.468641	0.128008
C90	C	0.980411	-0.031451	0.512001
C91	C	1.024593	0.017499	0.464720
H92	H	1.015379	-0.068487	0.544004
H93	H	0.946654	0.004316	0.548262
H94	H	0.949246	-0.063392	0.475798
H95	H	1.055754	0.049445	0.500924
H96	H	1.058364	-0.018272	0.428456
C97	C	0.882047	-0.318568	0.289064
C98	C	0.924432	-0.295717	0.221277
H99	H	0.906209	-0.300567	0.339586
H100	H	0.828936	-0.292607	0.285981
H101	H	0.882263	-0.378030	0.287602
H102	H	0.924211	-0.236254	0.222736
H103	H	0.977557	-0.321675	0.224361
C104	C	0.482619	0.179663	-0.130894
C105	C	0.538538	0.108981	-0.122494
H106	H	0.457194	0.176475	-0.183982
H107	H	0.444218	0.181173	-0.088414
H108	H	0.508527	0.229279	-0.125995
H109	H	0.512630	0.059365	-0.127387
H110	H	0.576945	0.107464	-0.164986
C111	C	0.813129	0.337239	0.429314
C112	C	0.799520	0.255906	0.449538
H113	H	0.775328	0.377277	0.456412
H114	H	0.865032	0.347208	0.447140
H115	H	0.808245	0.342392	0.370672
H116	H	0.804410	0.250751	0.508179
H117	H	0.747604	0.245934	0.431716
C118	C	0.885570	-0.259002	-0.146372
C119	C	0.937288	-0.309642	-0.095604
H120	H	0.913210	-0.244720	-0.193681
H121	H	0.842585	-0.288893	-0.164138
H122	H	0.865850	-0.209041	-0.115728
H123	H	0.957004	-0.359605	-0.126246
H124	H	0.980287	-0.279751	-0.077838
H125	H	0.827600	-0.444442	-0.027007
C126	C	1.094198	-0.425047	-0.051113
C127	C	1.065799	-0.486524	-0.003982
H128	H	1.124368	-0.451550	-0.096200
H129	H	1.050729	-0.389064	-0.072281
H130	H	1.126769	-0.392845	-0.016823
H131	H	1.033223	-0.518723	-0.038271
H132	H	1.109275	-0.522522	0.017185
C133	C	0.788177	-0.228896	0.071603
C134	C	0.800044	-0.280235	0.140149
H135	H	0.735537	-0.201338	0.072037
H136	H	0.824664	-0.188021	0.074739
H137	H	0.796269	-0.262516	0.021544
H138	H	0.791958	-0.246613	0.190208
H139	H	0.763546	-0.321114	0.137020
C140	C	0.852484	0.295532	0.219362
C141	C	0.808294	0.246597	0.266650
H142	H	0.817521	0.332557	0.187342
H143	H	0.883644	0.327476	0.255554
H144	H	0.886247	0.259748	0.183108
H145	H	0.774535	0.282381	0.302909
H146	H	0.777120	0.214651	0.230454
C147	C	0.753448	-0.399529	0.200377
C148	C	0.795281	-0.440475	0.133040
H149	H	0.699841	-0.411286	0.197196
H150	H	0.776903	-0.419025	0.251143
H151	H	0.755221	-0.340504	0.198449
H152	H	0.793513	-0.499501	0.134971
H153	H	0.771819	-0.420983	0.082261
H154	H	0.829226	-0.301194	-0.026189
H155	H	1.017490	0.025008	0.293227
H156	H	1.046592	-0.005777	0.687705
C157	C	0.222737	0.102342	-0.142697
C158	C	0.166116	0.104582	-0.080080
H159	H	0.197302	0.099151	-0.195781
H160	H	0.248631	0.151958	-0.137799
H161	H	0.260669	0.054389	-0.136984
H162	H	0.128187	0.152539	-0.085789
H163	H	0.140209	0.054961	-0.084980
H164	H	0.844502	0.208315	0.832644
C165	C	0.787639	0.268544	0.714613
C166	C	0.837397	0.215818	0.661148
H167	H	0.752681	0.305581	0.682601
H168	H	0.757673	0.235339	0.746688
H169	H	0.818821	0.300482	0.750801
H170	H	0.806215	0.183875	0.624963
H171	H	0.867365	0.249027	0.629058
H172	H	0.163628	0.119839	0.215982
