data_functionalizedCrystal
_audit_creation_method	'MofGen! by Chris Wilmer'
_symmetry_space_group_name_H-M	'P1'
_symmetry_Int_Tables_number	1
_symmetry_cell_setting	triclinic
loop_
_symmetry_equiv_pos_as_xyz
  x,y,z
_cell_length_a	27.732048
_cell_length_b	10.654583
_cell_length_c	9.130313
_cell_angle_alpha	90.005937
_cell_angle_beta	89.993840
_cell_angle_gamma	96.429408
loop_
_atom_site_label
_atom_site_type_symbol
_atom_site_fract_x
_atom_site_fract_y
_atom_site_fract_z
O1	O	0.067960	-1.664953	-0.122011
O2	O	0.074411	-1.299209	-0.121973
O3	O	0.000860	-1.493440	-0.121965
O4	O	0.141511	-1.470721	-0.122018
O5	O	0.000862	-1.493437	0.121634
O6	O	0.074413	-1.299206	0.121626
O7	O	0.067962	-1.664950	0.121588
Cu8	Cu	0.071188	-1.482078	0.143850
Cu9	Cu	0.071186	-1.482081	-0.144234
O10	O	0.141513	-1.470719	0.121581
C11	C	0.073935	-1.252430	-0.000168
C12	C	0.072508	-1.113049	-0.000152
C13	C	0.071843	-1.047545	0.132626
C14	C	0.070506	-0.916581	0.132610
C15	C	0.070500	-0.916633	-0.132975
C16	C	0.071834	-1.047597	-0.132957
C17	C	0.071849	-1.047513	0.285960
C18	C	0.070512	-0.916548	0.285943
C19	C	-0.017149	-1.492962	-0.000161
C20	C	-0.070813	-1.491526	-0.000149
C21	C	-0.408964	-1.597264	-0.000235
C22	C	-0.610657	-1.591936	-0.000255
O23	O	-0.641306	-1.688625	-0.000329
N24	N	-0.630504	-1.476764	-0.000242
C25	C	-0.599923	-1.362917	-0.000233
O26	O	-0.621432	-1.264835	-0.000237
C27	C	-0.398231	-1.368246	-0.000224
C28	C	-0.378388	-1.483425	-0.000222
C29	C	-0.389120	-1.712433	-0.000235
C30	C	-0.338700	-1.713764	-0.000222
C31	C	-0.308124	-1.599925	-0.000209
C32	C	-0.327968	-1.484756	-0.000209
C33	C	-0.367652	-1.254400	-0.000226
C34	C	-0.317226	-1.255743	-0.000227
C35	C	-0.297383	-1.370922	-0.000226
C36	C	-0.246971	-1.372248	-0.000183
N37	N	-0.227124	-1.487419	-0.000197
C38	C	-0.257701	-1.601258	-0.000210
C39	C	-0.705815	-1.360127	-0.000235
C40	C	-0.756238	-1.358795	-0.000235
C41	C	-0.766968	-1.587814	-0.000260
C42	C	-0.716545	-1.589145	-0.000249
C43	C	-0.685969	-1.475298	-0.000249
C44	C	-0.151814	-1.604044	-0.000181
C45	C	-0.101389	-1.605364	-0.000162
C46	C	-0.090663	-1.376346	-0.000145
C47	C	-0.141084	-1.375025	-0.000157
C48	C	-0.171659	-1.488884	-0.000180
O49	O	-0.216293	-1.275610	-0.000126
O50	O	-0.236183	-1.699326	-0.000238
C51	C	-0.459385	-1.595933	-0.000248
C52	C	-0.479228	-1.480763	-0.000248
C53	C	-0.448652	-1.366925	-0.000235
C54	C	-0.529651	-1.479431	-0.000248
C55	C	-0.560228	-1.593269	-0.000261
C56	C	-0.540381	-1.708441	-0.000274
C57	C	-0.489961	-1.709771	-0.000261
C58	C	-0.468498	-1.251754	-0.000222
C59	C	-0.518919	-1.250432	-0.000233
C60	C	-0.549495	-1.364271	-0.000246
C61	C	0.159522	-1.471197	-0.000226
C62	C	0.213186	-1.472633	-0.000248
N63	N	0.071189	-1.482085	0.346472
C64	C	0.068431	-0.711731	-0.000205
C65	C	0.069837	-0.851120	-0.000186
N66	N	0.071180	-1.482084	-0.346857
C67	C	0.038632	-1.568112	0.423128
C68	C	0.038626	-1.568109	0.576465
C69	C	0.103739	-1.396048	0.576477
C70	C	0.103742	-1.396046	0.423143
C71	C	0.001041	-1.667454	0.423122
C72	C	0.001035	-1.667451	0.576459
H73	H	0.038448	-1.095176	0.344853
H74	H	-0.535070	-1.156633	-0.000222
H75	H	0.072368	-1.100928	-0.241078
H76	H	0.107100	-1.075605	0.333521
H77	H	0.009321	-1.763613	0.618061
F78	F	-0.080274	-1.727958	-0.000161
H79	H	-0.036110	-1.647574	0.381519
H80	H	-0.565286	-1.801132	-0.000278
H81	H	0.012817	-1.758142	0.375549
H82	H	-0.443607	-1.159050	-0.000214
F83	F	-0.044850	-1.629490	0.638636
F84	F	0.069778	-0.846966	-0.274307
H85	H	-0.680924	-1.267414	-0.000234
F86	F	0.024476	-0.879790	0.348399
H87	H	-0.292333	-1.163033	-0.000228
H88	H	0.103914	-0.868858	0.344798
F89	F	0.138387	-1.304472	0.341561
F90	F	-0.777351	-1.236206	-0.000210
F91	F	-0.799519	-1.708970	-0.000277
H92	H	-0.176703	-1.696759	-0.000206
H93	H	-0.065758	-1.283662	-0.000129
H94	H	-0.322549	-1.807554	-0.000227
H95	H	-0.414011	-1.805139	-0.000251
F96	F	0.138382	-1.304482	0.658087
H97	H	-0.700392	-1.682933	-0.000249
H98	H	-0.383799	-1.160610	-0.000236
H99	H	-0.157241	-1.281237	-0.000117
H100	H	-0.473810	-1.803562	-0.000261
