data_functionalizedCrystal
_audit_creation_method	'MofGen! by Chris Wilmer'
_symmetry_space_group_name_H-M	'P1'
_symmetry_Int_Tables_number	1
_symmetry_cell_setting	triclinic
loop_
_symmetry_equiv_pos_as_xyz
  x,y,z
_cell_length_a	18.215405
_cell_length_b	18.101398
_cell_length_c	18.215399
_cell_angle_alpha	90.027596
_cell_angle_beta	89.972459
_cell_angle_gamma	89.985297
loop_
_atom_site_label
_atom_site_type_symbol
_atom_site_fract_x
_atom_site_fract_y
_atom_site_fract_z
Zn1	Zn	-0.293149	-1.132169	-0.416270
Zn2	Zn	0.040184	-0.798836	-0.082937
Zn3	Zn	0.373517	-0.465502	0.250396
Zn4	Zn	-0.416221	-1.132082	-0.293205
Zn5	Zn	-0.082887	-0.798748	0.040128
Zn6	Zn	0.250446	-0.465415	0.373462
Zn7	Zn	-0.293155	-1.008327	-0.293201
Zn8	Zn	0.040178	-0.674993	0.040132
Zn9	Zn	0.373511	-0.341660	0.373466
Zn10	Zn	-0.416161	-1.008297	-0.416213
Zn11	Zn	-0.082828	-0.674964	-0.082880
Zn12	Zn	0.250505	-0.341630	0.250454
O13	O	-0.354672	-1.070219	-0.354722
O14	O	-0.021338	-0.736885	-0.021389
O15	O	0.311995	-0.403552	0.311944
O16	O	-0.309497	-1.235790	-0.399971
O17	O	0.023836	-0.902457	-0.066638
O18	O	0.357169	-0.569124	0.266696
O19	O	-0.399923	-1.115641	-0.190220
O20	O	-0.066590	-0.782308	0.143113
O21	O	0.266744	-0.448974	0.476447
O22	O	-0.190170	-1.024804	-0.309549
O23	O	0.143163	-0.691470	0.023785
O24	O	0.476496	-0.358137	0.357118
O25	O	-0.399917	-1.235726	-0.309555
O26	O	-0.066584	-0.902393	0.023778
O27	O	0.266749	-0.569059	0.357111
O28	O	-0.190166	-1.115790	-0.399967
O29	O	0.143167	-0.782457	-0.066634
O30	O	0.476501	-0.449124	0.266699
O31	O	-0.309507	-1.024719	-0.190217
O32	O	0.023826	-0.691385	0.143116
O33	O	0.357159	-0.358052	0.476449
O34	O	-0.309450	-0.904690	-0.309493
O35	O	0.023883	-0.571356	0.023840
O36	O	0.357217	-0.238023	0.357173
O37	O	-0.399816	-1.024753	-0.519205
O38	O	-0.066483	-0.691420	-0.185872
O39	O	0.266850	-0.358086	0.147462
O40	O	-0.399822	-0.904668	-0.399870
O41	O	-0.066489	-0.571335	-0.066536
O42	O	0.266845	-0.238001	0.266797
O43	O	-0.309440	-1.115761	-0.519247
O44	O	0.023893	-0.782428	-0.185914
O45	O	0.357227	-0.449095	0.147420
O46	O	-0.519197	-1.115612	-0.309500
O47	O	-0.185864	-0.782279	0.023833
O48	O	0.147470	-0.448946	0.357167
O49	O	-0.519154	-1.024668	-0.399874
O50	O	-0.185820	-0.691335	-0.066540
O51	O	0.147513	-0.358001	0.266793
C52	C	-0.354631	-0.877808	-0.354675
C53	C	-0.021298	-0.544475	-0.021342
C54	C	0.312036	-0.211141	0.311991
C55	C	-0.354631	-0.795494	-0.354673
C56	C	-0.021298	-0.462161	-0.021339
C57	C	0.312036	-0.128827	0.311994
C58	C	-0.354660	-0.496403	-0.354721
C59	C	-0.021327	-0.163070	-0.021388
C60	C	0.312007	0.170264	0.311946
C61	C	-0.297518	-0.527717	-0.298138
C62	C	0.035816	-0.194384	0.035196
C63	C	0.369149	0.138950	0.368529
C64	C	-0.297676	-0.613335	-0.297900
C65	C	0.035657	-0.280002	0.035433
C66	C	0.368991	0.053331	0.368767
C67	C	-0.354645	-0.644785	-0.354697
C68	C	-0.021312	-0.311452	-0.021364
C69	C	0.312022	0.021881	0.311970
C70	C	-0.432166	-0.613679	-0.333505
C71	C	-0.098833	-0.280345	-0.000172
C72	C	0.234500	0.052988	0.333161
C73	C	-0.431844	-0.528033	-0.333108
C74	C	-0.098511	-0.194700	0.000225
C75	C	0.234823	0.138633	0.333559
C76	C	-0.334956	-0.528016	-0.432631
C77	C	-0.001623	-0.194682	-0.099298
C78	C	0.331710	0.138651	0.234036
C79	C	-0.333235	-0.613666	-0.432210
C80	C	0.000098	-0.280333	-0.098876
C81	C	0.333432	0.053000	0.234457
C82	C	-0.354641	-0.728645	-0.354685
C83	C	-0.021308	-0.395312	-0.021351
C84	C	0.312025	-0.061978	0.311982
C85	C	-0.354669	-0.412543	-0.354732
C86	C	-0.021335	-0.079210	-0.021398
C87	C	0.311998	0.254123	0.311935
C88	C	-0.545878	-1.070148	-0.354697
C89	C	-0.212545	-0.736814	-0.021364
C90	C	0.120789	-0.403481	0.311970
C91	C	-0.627677	-1.070185	-0.354711
C92	C	-0.294344	-0.736852	-0.021377
C93	C	0.038990	-0.403518	0.311956
C94	C	-0.815808	-1.117584	-0.401855
C95	C	-0.482474	-0.784251	-0.068522
C96	C	-0.149141	-0.450918	0.264811
C97	C	-0.892666	-1.117611	-0.401869
C98	C	-0.559333	-0.784278	-0.068536
C99	C	-0.226000	-0.450944	0.264797
C100	C	-0.892784	-1.022944	-0.307635
C101	C	-0.559451	-0.689611	0.025698
C102	C	-0.226117	-0.356278	0.359032
C103	C	-0.815927	-1.022914	-0.307625
C104	C	-0.482593	-0.689581	0.025708
C105	C	-0.149260	-0.356248	0.359041
C106	C	-0.777440	-1.070239	-0.354735
C107	C	-0.444107	-0.736905	-0.021401
C108	C	-0.110774	-0.403572	0.311932
C109	C	-0.931156	-1.070295	-0.354758
C110	C	-0.597823	-0.736962	-0.021425
C111	C	-0.264490	-0.403629	0.311909
C112	C	-1.014490	-1.070324	-0.354773
C113	C	-0.681157	-0.736991	-0.021439
C114	C	-0.347823	-0.403658	0.311894
C115	C	-0.694101	-1.070209	-0.354721
C116	C	-0.360768	-0.736876	-0.021388
C117	C	-0.027435	-0.403542	0.311946
C118	C	-0.162719	-1.070310	-0.354764
C119	C	0.170615	-0.736977	-0.021431
C120	C	0.503948	-0.403643	0.311903
C121	C	-0.080920	-1.070349	-0.354782
C122	C	0.252413	-0.737016	-0.021448
C123	C	0.585747	-0.403682	0.311885
C124	C	-0.354621	-1.070264	-0.546675
C125	C	-0.021288	-0.736930	-0.213342
C126	C	0.312046	-0.403597	0.119991
C127	C	-0.354599	-1.070283	-0.628474
C128	C	-0.021266	-0.736950	-0.295141
C129	C	0.312067	-0.403616	0.038192
C130	C	-0.354699	-0.263380	-0.354759
C131	C	-0.021366	0.069953	-0.021425
C132	C	0.311968	0.403286	0.311908
C133	C	-0.354674	-0.345695	-0.354746
C134	C	-0.021341	-0.012361	-0.021412
C135	C	0.311993	0.320972	0.311921
C136	C	-0.307496	-1.117688	-0.816691
C137	C	0.025837	-0.784355	-0.483358
C138	C	0.359170	-0.451021	-0.150025
C139	C	-0.307475	-1.117697	-0.893550
C140	C	0.025858	-0.784364	-0.560217
C141	C	0.359192	-0.451030	-0.226884
C142	C	-0.401589	-1.022930	-0.893495
C143	C	-0.068255	-0.689597	-0.560162
C144	C	0.265078	-0.356264	-0.226829
C145	C	-0.401606	-1.022918	-0.816638
C146	C	-0.068272	-0.689585	-0.483304
C147	C	0.265061	-0.356251	-0.149971
C148	C	-0.354561	-1.070301	-0.778238
C149	C	-0.021227	-0.736968	-0.444905
C150	C	0.312106	-0.403635	-0.111571
C151	C	-0.354522	-1.070322	-0.931954
C152	C	-0.021189	-0.736989	-0.598621
C153	C	0.312145	-0.403655	-0.265287
C154	C	-0.354499	-1.070331	-1.015288
C155	C	-0.021166	-0.736998	-0.681954
C156	C	0.312167	-0.403665	-0.348621
C157	C	-0.354582	-1.070291	-0.694899
C158	C	-0.021249	-0.736958	-0.361566
C159	C	0.312084	-0.403625	-0.028232
C160	C	-0.354669	-1.070216	-0.163516
C161	C	-0.021336	-0.736883	0.169817
C162	C	0.311998	-0.403550	0.503151
C163	C	-0.354483	-1.070341	-0.081718
C164	C	-0.021150	-0.737007	0.251616
C165	C	0.312183	-0.403674	0.584949
H166	H	-0.276188	-0.634002	-0.448189
H167	H	0.057146	-0.300669	-0.114856
H168	H	0.390479	0.032665	0.218478
Cl169	Cl	-0.249194	-0.494702	-0.462374
Cl170	Cl	0.084140	-0.161369	-0.129041
Cl171	Cl	0.417473	0.171964	0.204292
H172	H	-0.439893	-0.984354	-0.924770
H173	H	-0.106559	-0.651021	-0.591436
H174	H	0.226774	-0.317687	-0.258103
H175	H	-0.376577	-0.507766	-0.474791
H176	H	-0.043243	-0.174432	-0.141458
H177	H	0.290090	0.158901	0.191875
H178	H	-0.371824	-0.635078	-0.476630
H179	H	-0.038490	-0.301744	-0.143297
H180	H	0.294843	0.031589	0.190037
Cl181	Cl	-0.767427	-1.177074	-0.461081
Cl182	Cl	-0.434094	-0.843741	-0.127748
Cl183	Cl	-0.100761	-0.510408	0.205586
H184	H	-0.784686	-0.984356	-0.269254
H185	H	-0.451353	-0.651023	0.064080
H186	H	-0.118019	-0.317690	0.397413
H187	H	-0.240190	-0.634368	-0.311183
H188	H	0.093143	-0.301034	0.022150
H189	H	0.426476	0.032299	0.355483
H190	H	-0.269149	-1.156283	-0.924856
H191	H	0.064184	-0.822949	-0.591522
H192	H	0.397518	-0.489616	-0.258189
H193	H	-0.439931	-0.984325	-0.785328
H194	H	-0.106597	-0.650992	-0.451995
H195	H	0.226736	-0.317658	-0.118661
H196	H	-0.923901	-1.156163	-0.440241
H197	H	-0.590568	-0.822830	-0.106908
H198	H	-0.257235	-0.489496	0.226425
H199	H	-0.310396	-0.506169	-0.240743
H200	H	0.022937	-0.172836	0.092590
H201	H	0.356270	0.160498	0.425924
Cl202	Cl	-0.499666	-0.645119	-0.395150
Cl203	Cl	-0.166333	-0.311786	-0.061817
Cl204	Cl	0.167000	0.021547	0.271517
Cl205	Cl	-0.458419	-0.646739	-0.246521
Cl206	Cl	-0.125085	-0.313406	0.086812
Cl207	Cl	0.208248	0.019928	0.420146
H208	H	-0.924129	-0.984416	-0.269279
H209	H	-0.590795	-0.651083	0.064054
H210	H	-0.257462	-0.317749	0.397388
H211	H	-0.239854	-0.507139	-0.311273
H212	H	0.093479	-0.173805	0.022061
H213	H	0.426812	0.159528	0.355394
Cl214	Cl	-0.317787	-0.644921	-0.208770
Cl215	Cl	0.015547	-0.311588	0.124563
Cl216	Cl	0.348880	0.021745	0.457896
Cl217	Cl	-0.248351	-1.177252	-0.768420
Cl218	Cl	0.084982	-0.843919	-0.435086
Cl219	Cl	0.418315	-0.510586	-0.101753
H220	H	-0.475861	-0.507318	-0.372524
H221	H	-0.142528	-0.173985	-0.039191
H222	H	0.190806	0.159348	0.294143
Cl223	Cl	-0.457640	-0.497136	-0.245172
Cl224	Cl	-0.124307	-0.163803	0.088161
Cl225	Cl	0.209027	0.169531	0.421494
