data_functionalizedCrystal
_audit_creation_method	'MofGen! by Chris Wilmer'
_symmetry_space_group_name_H-M	'P1'
_symmetry_Int_Tables_number	1
_symmetry_cell_setting	triclinic
loop_
_symmetry_equiv_pos_as_xyz
  x,y,z
_cell_length_a	12.594517
_cell_length_b	12.594516
_cell_length_c	12.594505
_cell_angle_alpha	89.948824
_cell_angle_beta	90.047490
_cell_angle_gamma	90.005059
loop_
_atom_site_label
_atom_site_type_symbol
_atom_site_fract_x
_atom_site_fract_y
_atom_site_fract_z
Zn1	Zn	-1.627613	-0.423553	-0.602030
Zn2	Zn	-1.627487	-0.601652	-0.424069
Zn3	Zn	-1.449550	-0.423672	-0.424045
Zn4	Zn	-1.449649	-0.601474	-0.601986
O5	O	-1.538575	-0.512588	-0.513033
O6	O	-1.776542	-0.447202	-0.578452
O7	O	-1.603789	-0.578167	-0.275120
O8	O	-1.473182	-0.274710	-0.447664
O9	O	-1.776449	-0.578051	-0.447705
O10	O	-1.604004	-0.274623	-0.578429
O11	O	-1.473059	-0.447406	-0.275102
O12	O	-1.300617	-0.447233	-0.447620
O13	O	-1.473351	-0.577748	-0.750938
O14	O	-1.300690	-0.577863	-0.578353
O15	O	-1.604101	-0.447030	-0.750971
O16	O	-1.603885	-0.750574	-0.447662
O17	O	-1.473228	-0.750443	-0.578376
C18	C	-1.262034	-0.512543	-0.512980
C19	C	-1.143728	-0.512549	-0.512982
C20	C	-1.538583	-0.789129	-0.513040
C21	C	-1.538683	-0.907434	-0.513079
C22	C	-1.538751	-0.512356	-0.790654
C23	C	-1.538826	-0.512257	-0.908960
C24	C	-1.074405	-0.441396	-0.442007
C25	C	-1.003611	-0.538492	-0.415831
C26	C	-1.003723	-0.415483	-0.539160
C27	C	-1.074493	-0.609696	-0.486756
C28	C	-1.074611	-0.486622	-0.610129
C29	C	-1.003850	-0.583784	-0.583990
C30	C	-0.816196	-0.512612	-0.513067
C31	C	-0.934501	-0.512568	-0.513031
C32	C	-1.538596	-0.234967	-0.513049
C33	C	-1.538605	-0.116661	-0.513055
C34	C	-1.467503	0.023308	-0.441952
C35	C	-1.564568	-0.047541	-0.415926
C36	C	-1.441551	-0.047385	-0.539034
C37	C	-1.635800	0.023276	-0.487002
C38	C	-1.512717	0.023438	-0.610156
C39	C	-1.609849	-0.047378	-0.584166
C40	C	-1.538461	-0.512742	-0.236491
C41	C	-1.538592	-0.512541	-0.118186
C42	C	-1.467135	-0.441748	0.021786
C43	C	-1.441716	-0.539134	-0.048729
C44	C	-1.563961	-0.415168	-0.049243
C45	C	-1.513360	-0.609692	0.022084
C46	C	-1.635649	-0.485660	0.021576
C47	C	-1.610268	-0.583113	-0.048907
H48	H	-1.105386	-0.381291	-0.381919
C49	C	-0.961474	-0.568135	-0.304874
N50	N	-0.929737	-0.590453	-0.221299
C51	C	-1.691216	-0.089055	-0.665407
N52	N	-1.752506	-0.120451	-0.726592
C53	C	-0.961731	-0.304576	-0.569049
N54	N	-0.930108	-0.221037	-0.591554
C55	C	-1.484371	-0.720807	0.064220
N56	N	-1.462532	-0.804495	0.095959
H57	H	-1.490752	0.054636	-0.692238
C58	C	-1.116310	-0.720634	-0.456735
N59	N	-1.147808	-0.804189	-0.434119
H60	H	-1.359735	-0.561760	-0.079618
H61	H	-1.717940	0.054186	-0.464963
C62	C	-0.962247	-0.665177	-0.665099
N63	N	-0.930907	-0.726485	-0.726185
H64	H	-1.717606	-0.463009	0.052490
C65	C	-1.116785	-0.456930	-0.721053
N66	N	-1.148556	-0.434553	-0.804599
H67	H	-1.407418	0.054346	-0.381767
C68	C	-1.330622	-0.089315	-0.568709
N69	N	-1.247067	-0.120892	-0.591054
H70	H	-1.586505	-0.078715	-0.333820
H71	H	-1.406563	-0.382075	0.052826
H72	H	-1.670795	-0.642931	-0.079751
H73	H	-1.585320	-0.332942	-0.080562
