data_functionalizedCrystal
_audit_creation_method	'MofGen! by Chris Wilmer'
_symmetry_space_group_name_H-M	'P1'
_symmetry_Int_Tables_number	1
_symmetry_cell_setting	triclinic
loop_
_symmetry_equiv_pos_as_xyz
  x,y,z
_cell_length_a	10.654541
_cell_length_b	10.723024
_cell_length_c	9.798715
_cell_angle_alpha	89.998022
_cell_angle_beta	89.997652
_cell_angle_gamma	84.475899
loop_
_atom_site_label
_atom_site_type_symbol
_atom_site_fract_x
_atom_site_fract_y
_atom_site_fract_z
O1	O	1.667816	0.175258	-0.113445
O2	O	1.302335	0.191960	-0.113457
O3	O	1.493506	0.002034	-0.113446
O4	O	1.476645	0.365184	-0.113456
O5	O	1.493492	0.002033	0.113536
O6	O	1.302320	0.191959	0.113525
O7	O	1.667802	0.175257	0.113537
Zn8	Zn	1.485059	0.183608	0.149569
Zn9	Zn	1.485078	0.183609	-0.149489
O10	O	1.476631	0.365183	0.113526
C11	C	1.492272	-0.044466	0.000044
C12	C	1.488601	-0.183021	0.000039
C13	C	1.255530	0.190734	0.000033
C14	C	1.116087	0.187067	0.000028
C15	C	1.595570	-0.257989	0.000040
C16	C	1.591778	-0.401193	0.000035
C17	C	1.088082	0.414175	0.000005
C18	C	1.008571	0.526001	-0.000013
C19	C	0.877553	0.522548	-0.000014
C20	C	0.826045	0.407256	0.000006
C21	C	0.905556	0.295430	0.000024
C22	C	1.036575	0.298896	0.000021
C23	C	0.933561	0.068324	0.000057
C24	C	1.064579	0.071775	0.000048
C25	C	0.882053	-0.046967	0.000077
C26	C	0.961565	-0.158796	0.000085
C27	C	1.092590	-0.155338	0.000084
C28	C	1.144090	-0.040051	0.000066
C29	C	1.714607	0.176483	0.000044
C30	C	1.854050	0.180150	0.000040
C31	C	1.477865	0.411683	0.000033
C32	C	1.481536	0.550238	0.000029
N33	N	1.485055	0.183607	0.353669
N34	N	1.485091	0.183600	-0.353589
C35	C	1.565323	0.103511	0.421451
C36	C	1.565343	0.103507	0.578613
H37	H	1.689957	-0.216153	0.000051
H38	H	1.416345	0.252173	0.411989
F39	F	1.063398	0.648697	-0.000034
F40	F	1.365225	-0.237696	0.000022
H41	H	1.194762	0.416998	-0.000025
F42	F	1.655174	0.013879	0.654798
F43	F	1.711477	-0.485390	0.000046
F44	F	1.395268	0.273244	0.570235
F45	F	1.361832	-0.365572	0.000037
H46	H	1.157321	-0.246401	0.000104
H47	H	0.812814	0.613606	-0.000019
F48	F	0.906738	-0.281484	0.000117
F49	F	0.686604	0.403586	0.000026
F50	F	1.283529	-0.036361	0.000057
H51	H	1.634024	0.034935	0.363132
H52	H	0.775371	-0.049771	0.000084
