data_functionalizedCrystal
_audit_creation_method	'MofGen! by Chris Wilmer'
_symmetry_space_group_name_H-M	'P1'
_symmetry_Int_Tables_number	1
_symmetry_cell_setting	triclinic
loop_
_symmetry_equiv_pos_as_xyz
  x,y,z
_cell_length_a	23.532355
_cell_length_b	26.809956
_cell_length_c	23.532357
_cell_angle_alpha	90.001214
_cell_angle_beta	97.172118
_cell_angle_gamma	89.995073
loop_
_atom_site_label
_atom_site_type_symbol
_atom_site_fract_x
_atom_site_fract_y
_atom_site_fract_z
O1	O	-0.755271	0.041441	0.068988
O2	O	-0.255271	0.541441	0.568988
O3	O	-0.589401	0.041452	0.079022
O4	O	-0.089401	0.541452	0.579022
O5	O	-0.677353	0.041436	-0.008930
O6	O	-0.177353	0.541436	0.491070
O7	O	-0.667320	0.041457	0.156939
O8	O	-0.167320	0.541457	0.656939
O9	O	-0.677336	-0.041523	-0.008916
O10	O	-0.177336	0.458477	0.491084
O11	O	-0.589385	-0.041507	0.079035
O12	O	-0.089385	0.458493	0.579035
O13	O	-0.755254	-0.041519	0.069001
O14	O	-0.255254	0.458481	0.569001
Zn15	Zn	-0.672317	-0.054684	0.074020
Zn16	Zn	-0.172317	0.445316	0.574020
Zn17	Zn	-0.672339	0.054618	0.074003
Zn18	Zn	-0.172339	0.554618	0.574003
O19	O	-0.667303	-0.041502	0.156953
O20	O	-0.167303	0.458498	0.656953
C21	C	-0.568177	-0.000026	0.078778
C22	C	-0.068177	0.499974	0.578778
C23	C	-0.504958	-0.000022	0.078024
C24	C	-0.004958	0.499978	0.578024
N25	N	-0.672306	-0.129280	0.074032
N26	N	-0.172306	0.370720	0.574032
C27	C	-0.231723	0.045194	0.074718
C28	C	0.268277	0.545194	0.574718
C29	C	-0.291123	0.045196	0.075432
C30	C	0.208877	0.545196	0.575432
O31	O	-0.321857	0.083654	0.075775
O32	O	0.178143	0.583654	0.575775
N33	N	-0.320820	-0.000025	0.075800
N34	N	0.179180	0.499975	0.575800
C35	C	-0.291114	-0.045251	0.075448
C36	C	0.208886	0.454749	0.575448
O37	O	-0.321828	-0.083715	0.075826
O38	O	0.178172	0.416285	0.575826
C39	C	-0.231716	-0.045252	0.074730
C40	C	0.268284	0.454748	0.574730
C41	C	-0.202022	-0.000028	0.074368
C42	C	0.297978	0.499972	0.574368
C43	C	-0.202029	0.090414	0.074356
C44	C	0.297971	0.590414	0.574356
C45	C	-0.142633	0.090412	0.073643
C46	C	0.357367	0.590412	0.573643
C47	C	-0.112932	0.045190	0.073293
C48	C	0.387068	0.545190	0.573293
C49	C	-0.142626	-0.000030	0.073656
C50	C	0.357374	0.499970	0.573656
C51	C	-0.202012	-0.090478	0.074374
C52	C	0.297988	0.409522	0.574374
C53	C	-0.142610	-0.090475	0.073656
C54	C	0.357390	0.409525	0.573656
C55	C	-0.112916	-0.045251	0.073294
C56	C	0.387084	0.454749	0.573294
C57	C	-0.053529	-0.045254	0.072593
C58	C	0.446471	0.454746	0.572593
N59	N	-0.023832	-0.000033	0.072225
N60	N	0.476168	0.499967	0.572225
C61	C	-0.053534	0.045189	0.072575
C62	C	0.446466	0.545189	0.572575
C63	C	-0.415855	-0.045245	0.076955
C64	C	0.084145	0.454755	0.576955
C65	C	-0.475251	-0.045245	0.077677
C66	C	0.024749	0.454755	0.577677
C67	C	-0.475256	0.045202	0.077660
C68	C	0.024744	0.545202	0.577660
C69	C	-0.415858	0.045201	0.076942
C70	C	0.084142	0.545201	0.576942
C71	C	-0.386158	-0.000024	0.076587
C72	C	0.113842	0.499976	0.576587
C73	C	0.071202	0.045181	0.071079
C74	C	0.571202	0.545181	0.571079
C75	C	0.130604	0.045176	0.070368
C76	C	0.630604	0.545176	0.570368
C77	C	0.130603	-0.045271	0.070383
C78	C	0.630603	0.454729	0.570383
C79	C	0.071207	-0.045265	0.071096
C80	C	0.571207	0.454735	0.571096
C81	C	0.041508	-0.000035	0.071442
C82	C	0.541508	0.499965	0.571442
O83	O	-0.022758	-0.083693	0.072247
O84	O	0.477242	0.416307	0.572247
O85	O	-0.022814	0.083646	0.072189
O86	O	0.477186	0.583646	0.572189
C87	C	-0.711279	-0.473914	0.035067
C88	C	-0.211279	0.026086	0.535067
C89	C	-0.711292	-0.682791	0.035058
C90	C	-0.211292	-0.182791	0.535058
O91	O	-0.744405	-0.709801	0.001933
O92	O	-0.244405	-0.209801	0.501933
N93	N	-0.672342	-0.708907	0.073990
N94	N	-0.172342	-0.208907	0.573990
C95	C	-0.633383	-0.682801	0.112924
C96	C	-0.133383	-0.182801	0.612924
O97	O	-0.600250	-0.709807	0.146034
O98	O	-0.100250	-0.209807	0.646034
C99	C	-0.633367	-0.473924	0.112930
C100	C	-0.133367	0.026076	0.612930
C101	C	-0.672324	-0.447811	0.073999
C102	C	-0.172324	0.052189	0.573999
C103	C	-0.750232	-0.447800	-0.003860
C104	C	-0.250232	0.052200	0.496140
C105	C	-0.750230	-0.395584	-0.003856
C106	C	-0.250230	0.104416	0.496144
C107	C	-0.711275	-0.369481	0.035076
C108	C	-0.211275	0.130519	0.535076
C109	C	-0.672322	-0.395595	0.074004
C110	C	-0.172322	0.104405	0.574004
C111	C	-0.594406	-0.447819	0.151861
C112	C	-0.094406	0.052181	0.651861
C113	C	-0.594405	-0.395596	0.151858
C114	C	-0.094405	0.104404	0.651858
C115	C	-0.633361	-0.369483	0.112927
C116	C	-0.133361	0.130517	0.612927
C117	C	-0.633366	-0.317275	0.112941
C118	C	-0.133366	0.182725	0.612941
N119	N	-0.672316	-0.291159	0.074009
N120	N	-0.172316	0.208841	0.574009
C121	C	-0.711271	-0.317262	0.035077
C122	C	-0.211271	0.182738	0.535077
C123	C	-0.633395	-0.792464	0.112919
C124	C	-0.133395	-0.292464	0.612919
C125	C	-0.633399	-0.844683	0.112919
C126	C	-0.133399	-0.344683	0.612919
C127	C	-0.711308	-0.844670	0.035052
C128	C	-0.211308	-0.344670	0.535052
C129	C	-0.711306	-0.792450	0.035056
C130	C	-0.211306	-0.292450	0.535056
C131	C	-0.672345	-0.766348	0.073988
C132	C	-0.172345	-0.266348	0.573988
C133	C	-0.711265	-0.207604	0.035090
C134	C	-0.211265	0.292396	0.535090
C135	C	-0.711261	-0.155383	0.035100
C136	C	-0.211261	0.344617	0.535100
C137	C	-0.633351	-0.155401	0.112964
C138	C	-0.133351	0.344599	0.612964
C139	C	-0.633356	-0.207617	0.112957
C140	C	-0.133356	0.292383	0.612957
C141	C	-0.672315	-0.233718	0.074015
C142	C	-0.172315	0.266282	0.574015
O143	O	-0.600266	-0.290233	0.146045
O144	O	-0.100266	0.209767	0.646045
O145	O	-0.744390	-0.290247	0.001964
O146	O	-0.244390	0.209753	0.501964
C147	C	-0.711280	-0.526130	0.035063
C148	C	-0.211280	-0.026130	0.535063
C149	C	-0.672327	-0.552243	0.073990
C150	C	-0.172327	-0.052243	0.573990
C151	C	-0.633373	-0.526141	0.112922
C152	C	-0.133373	-0.026141	0.612922
C153	C	-0.672332	-0.604462	0.073990
C154	C	-0.172332	-0.104462	0.573990
C155	C	-0.711287	-0.630565	0.035057
C156	C	-0.211287	-0.130565	0.535057
C157	C	-0.750237	-0.604449	-0.003874
C158	C	-0.250237	-0.104449	0.496126
C159	C	-0.750235	-0.552233	-0.003870
C160	C	-0.250235	-0.052233	0.496130
C161	C	-0.594422	-0.552257	0.151854
C162	C	-0.094422	-0.052257	0.651854
C163	C	-0.594428	-0.604473	0.151847
C164	C	-0.094428	-0.104473	0.651847
C165	C	-0.633382	-0.630576	0.112914
C166	C	-0.133382	-0.130576	0.612914
C167	C	0.223522	-0.000041	0.069250
C168	C	0.723522	0.499959	0.569250
C169	C	0.160305	-0.000047	0.070018
C170	C	0.660305	0.499953	0.570018
C171	C	-0.677094	-0.000045	-0.030140
C172	C	-0.177094	0.499955	0.469860
C173	C	-0.676339	-0.000050	-0.093358
C174	C	-0.176339	0.499950	0.406642
N175	N	-0.672354	0.129214	0.073986
N176	N	-0.172354	0.629214	0.573986
C177	C	-0.671611	0.045198	-0.485376
C178	C	-0.171611	0.545198	0.014624
C179	C	-0.670894	0.045201	-0.544775
C180	C	-0.170894	0.545201	-0.044775
O181	O	-0.670511	0.083660	-0.575498
O182	O	-0.170511	0.583660	-0.075498
N183	N	-0.670529	-0.000019	-0.574479
N184	N	-0.170529	0.499981	-0.074479
C185	C	-0.670876	-0.045245	-0.544780
C186	C	-0.170876	0.454755	-0.044780
O187	O	-0.670499	-0.083709	-0.575499
O188	O	-0.170499	0.416291	-0.075499
C189	C	-0.671589	-0.045248	-0.485381
C190	C	-0.171589	0.454752	0.014619
C191	C	-0.671960	-0.000024	-0.455681
C192	C	-0.171960	0.499976	0.044319
C193	C	-0.671981	0.090418	-0.455676
C194	C	-0.171981	0.590418	0.044324
C195	C	-0.672699	0.090415	-0.396281
C196	C	-0.172699	0.590415	0.103719
C197	C	-0.673048	0.045192	-0.366586
C198	C	-0.173048	0.545192	0.133414
C199	C	-0.672678	-0.000028	-0.396286
C200	C	-0.172678	0.499972	0.103714
C201	C	-0.671932	-0.090474	-0.455682
C202	C	-0.171932	0.409526	0.044318
C203	C	-0.672645	-0.090472	-0.396279
C204	C	-0.172645	0.409528	0.103721
C205	C	-0.673015	-0.045249	-0.366579
C206	C	-0.173015	0.454751	0.133421
C207	C	-0.673745	-0.045253	-0.307196
C208	C	-0.173745	0.454747	0.192804
N209	N	-0.674109	-0.000033	-0.277492
N210	N	-0.174109	0.499967	0.222508
C211	C	-0.673761	0.045190	-0.307187
C212	C	-0.173761	0.545190	0.192813
C213	C	-0.669377	-0.045237	-0.669521
C214	C	-0.169377	0.454763	-0.169521
C215	C	-0.668668	-0.045235	-0.728919
C216	C	-0.168668	0.454765	-0.228919
C217	C	-0.668685	0.045212	-0.728910
C218	C	-0.168685	0.545212	-0.228910
C219	C	-0.669398	0.045209	-0.669512
C220	C	-0.169398	0.545209	-0.169512
C221	C	-0.669742	-0.000017	-0.639817
C222	C	-0.169742	0.499983	-0.139817
C223	C	-0.675270	0.045180	-0.182453
C224	C	-0.175270	0.545180	0.317547
C225	C	-0.675991	0.045173	-0.123053
C226	C	-0.175991	0.545173	0.376947
C227	C	-0.675971	-0.045274	-0.123067
C228	C	-0.175971	0.454726	0.376933
C229	C	-0.675253	-0.045267	-0.182462
C230	C	-0.175253	0.454733	0.317538
C231	C	-0.674901	-0.000036	-0.212153
C232	C	-0.174901	0.499964	0.287847
O233	O	-0.674125	-0.083693	-0.276435
O234	O	-0.174125	0.416307	0.223565
O235	O	-0.674130	0.083647	-0.276459
O236	O	-0.174130	0.583647	0.223541
C237	C	-0.667562	-0.000020	0.178163
C238	C	-0.167562	0.499980	0.678163
C239	C	-0.668317	-0.000012	0.241381
C240	C	-0.168317	0.499988	0.741381
H241	H	0.047028	0.082012	0.071361
H242	H	0.547028	0.582012	0.571361
O243	O	-0.669796	-0.089142	-0.640628
O244	O	-0.169796	0.410858	-0.140628
C245	C	-0.719548	-0.091862	-0.613024
C246	C	-0.219548	0.408138	-0.113024
H247	H	-0.736108	-0.052601	-0.606363
H248	H	-0.236108	0.447399	-0.106363
H249	H	-0.708953	-0.111010	-0.569744
H250	H	-0.208953	0.388990	-0.069744
H251	H	-0.753814	-0.114176	-0.640643
H252	H	-0.253814	0.385824	-0.140643
H253	H	-0.781950	-0.374326	-0.035558
H254	H	-0.281950	0.125674	0.464442
H255	H	0.154778	0.082004	0.070075
H256	H	0.654778	0.582004	0.570075
O257	O	-0.676203	-0.089186	-0.094170
O258	O	-0.176203	0.410814	0.405830
C259	C	-0.627289	-0.091868	-0.053061
C260	C	-0.127289	0.408132	0.446939
H261	H	-0.592605	-0.066200	-0.066258
H262	H	-0.092605	0.433800	0.433742
H263	H	-0.610722	-0.131860	-0.050113
H264	H	-0.110722	0.368140	0.449887
H265	H	-0.638987	-0.079711	-0.009571
H266	H	-0.138987	0.420289	0.490429
H267	H	0.154797	-0.082090	0.070100
H268	H	0.654797	0.417910	0.570100
O269	O	-0.787960	-0.526852	-0.041787
O270	O	-0.287960	-0.026852	0.458213
C271	C	-0.757600	-0.496713	-0.076767
C272	C	-0.257600	0.003287	0.423233
H273	H	-0.712940	-0.488853	-0.053781
H274	H	-0.212940	0.011147	0.446219
H275	H	-0.781424	-0.460007	-0.086026
H276	H	-0.281424	0.039993	0.413974
H277	H	-0.753886	-0.516906	-0.118779
H278	H	-0.253886	-0.016906	0.381221
H279	H	-0.672999	0.127241	-0.372104
H280	H	-0.172999	0.627241	0.127896
O281	O	-0.113885	0.134388	0.073258
O282	O	0.386115	0.634388	0.573258
C283	C	-0.152846	0.174297	0.073731
C284	C	0.347154	0.674297	0.573731
H285	H	-0.197649	0.161029	0.056216
H286	H	0.302351	0.661029	0.556216
H287	H	-0.139476	0.205920	0.045858
H288	H	0.360524	0.705920	0.545858
H289	H	-0.152917	0.188213	0.119501
H290	H	0.347083	0.688213	0.619501
O291	O	-0.672997	-0.134451	-0.367525
O292	O	-0.172997	0.365549	0.132475
C293	C	-0.672498	-0.174361	-0.406479
C294	C	-0.172498	0.325639	0.093521
H295	H	-0.690030	-0.161103	-0.451283
H296	H	-0.190030	0.338897	0.048717
H297	H	-0.700343	-0.205999	-0.393099
H298	H	-0.200343	0.294001	0.106901
H299	H	-0.626718	-0.188252	-0.406554
H300	H	-0.126718	0.311748	0.093446
O301	O	-0.671475	-0.134377	-0.484564
O302	O	-0.171475	0.365623	0.015436
C303	C	-0.621710	-0.137074	-0.512152
C304	C	-0.121710	0.362926	-0.012152
H305	H	-0.605185	-0.097805	-0.518819
H306	H	-0.105185	0.402195	-0.018819
H307	H	-0.632275	-0.156235	-0.555428
H308	H	-0.132275	0.343765	-0.055428
H309	H	-0.587430	-0.159364	-0.484517
H310	H	-0.087430	0.340636	0.015483
O311	O	-0.674799	-0.089207	-0.211281
O312	O	-0.174799	0.410793	0.288719
C313	C	-0.625647	-0.116723	-0.190014
C314	C	-0.125647	0.383277	0.309986
H315	H	-0.591369	-0.090263	-0.168964
H316	H	-0.091369	0.409737	0.331036
H317	H	-0.608610	-0.137231	-0.226814
H318	H	-0.108610	0.362769	0.273186
H319	H	-0.637214	-0.144925	-0.157066
H320	H	-0.137214	0.355075	0.342934
O321	O	-0.230927	0.134315	0.074775
O322	O	0.269073	0.634315	0.574775
C323	C	-0.258525	0.137037	0.124532
C324	C	0.241475	0.637037	0.624532
H325	H	-0.265181	0.097776	0.141089
H326	H	0.234819	0.597776	0.641089
H327	H	-0.301807	0.156186	0.113943
H328	H	0.198193	0.656186	0.613943
H329	H	-0.230903	0.159350	0.158797
H330	H	0.269097	0.659350	0.658797
H331	H	-0.391685	0.082027	0.076647
H332	H	0.108315	0.582027	0.576647
H333	H	-0.391676	-0.082075	0.076673
H334	H	0.108324	0.417925	0.576673
O335	O	-0.504075	0.089146	0.078096
O336	O	-0.004075	0.589146	0.578096
C337	C	-0.482816	0.116674	0.127239
C338	C	0.017184	0.616674	0.627239
H339	H	-0.461769	0.090223	0.161530
H340	H	0.038231	0.590223	0.661530
H341	H	-0.519621	0.137188	0.144261
H342	H	-0.019621	0.637188	0.644261
H343	H	-0.449868	0.144873	0.115664
H344	H	0.050132	0.644873	0.615664
H345	H	-0.226180	-0.127304	0.074668
H346	H	0.273820	0.372696	0.574668
O347	O	-0.504007	-0.089220	0.078008
O348	O	-0.004007	0.410780	0.578008
C349	C	-0.465045	-0.129131	0.077562
C350	C	0.034955	0.370869	0.577562
H351	H	-0.425171	-0.115872	0.059018
H352	H	0.074829	0.384128	0.559018
H353	H	-0.485979	-0.160765	0.050120
H354	H	0.014021	0.339235	0.550120
H355	H	-0.452480	-0.143028	0.123186
H356	H	0.047520	0.356972	0.623186
O357	O	-0.556503	-0.370219	0.189601
O358	O	-0.056503	0.129781	0.689601
C359	C	-0.521556	-0.340006	0.159288
C360	C	-0.021556	0.159994	0.659288
H361	H	-0.520862	-0.355739	0.114374
H362	H	-0.020862	0.144261	0.614374
H363	H	-0.476152	-0.339422	0.182762
H364	H	0.023848	0.160578	0.682762
H365	H	-0.539393	-0.300428	0.156216
H366	H	-0.039393	0.199572	0.656216
H367	H	-0.118431	-0.127304	0.073372
H368	H	0.381569	0.372696	0.573372
H369	H	0.047030	-0.082091	0.071402
H370	H	0.547030	0.417909	0.571402
H371	H	-0.742986	-0.134123	0.003398
H372	H	-0.242986	0.365877	0.503398
H373	H	-0.742988	-0.228849	0.003379
H374	H	-0.242988	0.271151	0.503379
H375	H	-0.781953	-0.469049	-0.035566
H376	H	-0.281953	0.030951	0.464434
H377	H	-0.743027	-0.771192	0.003355
H378	H	-0.243027	-0.271192	0.503355
H379	H	-0.743027	-0.865932	0.003353
H380	H	-0.243027	-0.365932	0.503353
O381	O	-0.595506	-0.869969	0.150761
O382	O	-0.095506	-0.369969	0.650761
C383	C	-0.561134	-0.835726	0.185130
C384	C	-0.061134	-0.335726	0.685130
H385	H	-0.560631	-0.798504	0.161780
H386	H	-0.060631	-0.298504	0.661780
H387	H	-0.515601	-0.850816	0.194057
H388	H	-0.015601	-0.350816	0.694057
H389	H	-0.579375	-0.830169	0.227342
H390	H	-0.079375	-0.330169	0.727342
O391	O	-0.671720	0.134320	-0.484589
O392	O	-0.171720	0.634320	0.015411
C393	C	-0.720650	0.137032	-0.525676
C394	C	-0.220650	0.637032	-0.025676
H395	H	-0.736978	0.097767	-0.536833
H396	H	-0.236978	0.597767	-0.036833
H397	H	-0.709062	0.156183	-0.565925
H398	H	-0.209062	0.656183	-0.065925
H399	H	-0.755475	0.159337	-0.507496
H400	H	-0.255475	0.659337	-0.007496
O401	O	-0.595628	-0.767059	0.150770
O402	O	-0.095628	-0.267059	0.650770
C403	C	-0.625919	-0.736861	0.185759
C404	C	-0.125919	-0.236861	0.685759
H405	H	-0.670612	-0.729024	0.162837
H406	H	-0.170612	-0.229024	0.662837
H407	H	-0.602087	-0.700148	0.194907
H408	H	-0.102087	-0.200148	0.694907
H409	H	-0.629551	-0.756992	0.227825
H410	H	-0.129551	-0.256992	0.727825
O411	O	-0.556507	-0.473100	0.189699
O412	O	-0.056507	0.026900	0.689699
C413	C	-0.522137	-0.438853	0.224063
C414	C	-0.022137	0.061147	0.724063
H415	H	-0.521638	-0.401631	0.200711
H416	H	-0.021638	0.098369	0.700711
H417	H	-0.476602	-0.453938	0.232988
H418	H	0.023398	0.046062	0.732988
H419	H	-0.540375	-0.433295	0.266277
H420	H	-0.040375	0.066705	0.766277
O421	O	-0.676425	0.089086	-0.094175
O422	O	-0.176425	0.589086	0.405825
C423	C	-0.726151	0.091798	-0.066530
C424	C	-0.226151	0.591798	0.433470
H425	H	-0.760435	0.066158	-0.089148
H426	H	-0.260435	0.566158	0.410852
H427	H	-0.742698	0.131802	-0.068094
H428	H	-0.242698	0.631802	0.431906
H429	H	-0.715533	0.079628	-0.019997
H430	H	-0.215533	0.579628	0.480003
H431	H	-0.674980	0.082011	-0.206621
H432	H	-0.174980	0.582011	0.293379
H433	H	-0.601640	-0.228879	0.144663
H434	H	-0.101640	0.271121	0.644663
H435	H	-0.601636	-0.134140	0.144664
H436	H	-0.101636	0.365860	0.644664
H437	H	-0.781957	-0.625711	-0.035573
H438	H	-0.281957	-0.125711	0.464427
H439	H	-0.562706	-0.625731	0.183553
H440	H	-0.062706	-0.125731	0.683553
H441	H	-0.562700	-0.531008	0.183557
H442	H	-0.062700	-0.031008	0.683557
O443	O	-0.669728	0.089183	-0.640747
O444	O	-0.169728	0.589183	-0.140747
C445	C	-0.669284	0.129095	-0.679704
C446	C	-0.169284	0.629095	-0.179704
H447	H	-0.650742	0.115836	-0.719581
H448	H	-0.150742	0.615836	-0.219581
H449	H	-0.641842	0.160727	-0.658767
H450	H	-0.141842	0.660727	-0.158767
H451	H	-0.714909	0.142996	-0.692265
H452	H	-0.214909	0.642996	-0.192265
H453	H	-0.668400	0.082035	-0.753099
H454	H	-0.168400	0.582035	-0.253099
H455	H	-0.668375	-0.082061	-0.753097
H456	H	-0.168375	0.417939	-0.253097
