data_functionalizedCrystal
_audit_creation_method	'MofGen! by Chris Wilmer'
_symmetry_space_group_name_H-M	'P1'
_symmetry_Int_Tables_number	1
_symmetry_cell_setting	triclinic
loop_
_symmetry_equiv_pos_as_xyz
  x,y,z
_cell_length_a	11.792241
_cell_length_b	15.072220
_cell_length_c	11.792254
_cell_angle_alpha	90.001249
_cell_angle_beta	84.196007
_cell_angle_gamma	90.008318
loop_
_atom_site_label
_atom_site_type_symbol
_atom_site_fract_x
_atom_site_fract_y
_atom_site_fract_z
O1	O	1.506930	0.073697	0.155559
O2	O	1.840263	0.407030	0.488893
O3	O	2.173596	0.740363	0.822226
O4	O	1.176589	0.073717	0.171592
O5	O	1.509923	0.407051	0.504926
O6	O	1.843256	0.740384	0.838259
O7	O	1.349769	0.073700	-0.001594
O8	O	1.683102	0.407034	0.331740
O9	O	2.016435	0.740367	0.665073
O10	O	1.333751	0.073714	0.328745
O11	O	1.667084	0.407047	0.662079
O12	O	2.000417	0.740381	0.995412
O13	O	1.349726	-0.073865	-0.001584
O14	O	1.683059	0.259469	0.331749
O15	O	2.016392	0.592802	0.665082
O16	O	1.176546	-0.073848	0.171602
O17	O	1.509880	0.259486	0.504935
O18	O	1.843213	0.592819	0.838268
O19	O	1.506887	-0.073868	0.155569
O20	O	1.840220	0.259465	0.488902
O21	O	2.173553	0.592798	0.822236
Zn22	Zn	1.341710	-0.097287	0.163587
Zn23	Zn	1.675043	0.236046	0.496920
Zn24	Zn	2.008376	0.569380	0.830253
Zn25	Zn	1.341766	0.097136	0.163574
Zn26	Zn	1.675100	0.430470	0.496908
Zn27	Zn	2.008433	0.763803	0.830241
O28	O	1.333708	-0.073851	0.328755
O29	O	1.667041	0.259482	0.662088
O30	O	2.000374	0.592815	0.995422
C31	C	1.134277	-0.000062	0.170590
C32	C	1.467610	0.333271	0.503923
C33	C	1.800944	0.666604	0.837257
C34	C	1.008263	-0.000055	0.167576
C35	C	1.341596	0.333279	0.500909
C36	C	1.674930	0.666612	0.834242
N37	N	1.341679	-0.229976	0.163595
N38	N	1.675013	0.103357	0.496928
N39	N	2.008346	0.436691	0.830261
C40	C	0.777551	-0.000080	0.162033
C41	C	1.110884	0.333253	0.495366
C42	C	1.444217	0.666586	0.828699
C43	C	0.905936	-0.000066	0.165112
C44	C	1.239269	0.333267	0.498446
C45	C	1.572603	0.666600	0.831779
C46	C	1.341764	-0.589177	0.163570
C47	C	1.675097	-0.255844	0.496903
C48	C	2.008431	0.077489	0.830237
C49	C	1.248784	-0.551561	0.255924
C50	C	1.582118	-0.218228	0.589257
C51	C	1.915451	0.115105	0.922590
C52	C	1.249001	-0.448736	0.256264
C53	C	1.582334	-0.115402	0.589598
C54	C	1.915668	0.217931	0.922931
C55	C	1.341721	-0.410973	0.163582
C56	C	1.675054	-0.077640	0.496916
C57	C	2.008388	0.255693	0.830249
C58	C	1.460310	-0.448271	0.190177
C59	C	1.793643	-0.114938	0.523511
C60	C	2.126977	0.218396	0.856844
C61	C	1.459790	-0.551129	0.190834
C62	C	1.793123	-0.217795	0.524168
C63	C	2.126456	0.115538	0.857501
C64	C	1.317209	-0.551281	0.044352
C65	C	1.650543	-0.217948	0.377686
C66	C	1.983876	0.115386	0.711019
C67	C	1.314497	-0.448417	0.045130
C68	C	1.647830	-0.115084	0.378463
C69	C	1.981164	0.218249	0.711796
C70	C	1.341704	-0.310260	0.163587
C71	C	1.675038	0.023073	0.496920
C72	C	2.008371	0.356407	0.830254
C73	C	1.341789	-0.689891	0.163568
C74	C	1.675122	-0.356557	0.496901
C75	C	2.008455	-0.023224	0.830234
C76	C	1.549199	-0.000086	0.156571
C77	C	1.882533	0.333247	0.489905
C78	C	2.215866	0.666580	0.823238
C79	C	1.675213	-0.000088	0.159586
C80	C	2.008546	0.333245	0.492919
C81	C	2.341880	0.666578	0.826252
C82	C	1.348738	-0.000082	-0.043880
C83	C	1.682071	0.333251	0.289454
C84	C	2.015405	0.666585	0.622787
C85	C	1.345718	-0.000081	-0.169893
C86	C	1.679051	0.333252	0.163441
C87	C	2.012385	0.666586	0.496774
N88	N	1.341806	0.229825	0.163558
N89	N	1.675139	0.563158	0.496891
N90	N	2.008472	0.896492	0.830224
C91	C	1.343264	-0.000078	-0.272229
C92	C	1.676597	0.333256	0.061104
C93	C	2.009931	0.666589	0.394437
C94	C	1.340196	-0.000069	-0.400616
C95	C	1.673529	0.333264	-0.067283
C96	C	2.006862	0.666597	0.266051
C97	C	1.334738	-0.000067	0.371041
C98	C	1.668071	0.333266	0.704374
C99	C	2.001405	0.666600	1.037708
C100	C	1.337758	-0.000062	0.497054
C101	C	1.671092	0.333271	0.830387
C102	C	2.004425	0.666604	1.163721
H103	H	1.160875	-0.423520	0.240312
H104	H	1.494209	-0.090187	0.573645
H105	H	1.827542	0.243147	0.906978
F106	F	1.489096	-0.414588	0.302559
F107	F	1.822430	-0.081254	0.635892
F108	F	2.155763	0.252079	0.969226
H109	H	1.531182	-0.423809	0.124731
H110	H	1.864516	-0.090475	0.458065
H111	H	2.197849	0.242858	0.791398
H112	H	1.160376	-0.576318	0.240223
H113	H	1.493709	-0.242985	0.573556
H114	H	1.827042	0.090349	0.906889
H115	H	1.232573	-0.577267	0.018960
H116	H	1.565906	-0.243934	0.352293
H117	H	1.899240	0.089400	0.685627
H118	H	1.531179	-0.576010	0.126260
H119	H	1.864512	-0.242677	0.459593
H120	H	2.197845	0.090656	0.792926
F121	F	1.200469	-0.416557	0.018769
F122	F	1.533802	-0.083224	0.352102
F123	F	1.867135	0.250110	0.685435
F124	F	1.397198	-0.414833	-0.048983
F125	F	1.730532	-0.081500	0.284350
F126	F	2.063865	0.251834	0.617683
H127	H	1.264328	-0.577397	0.343879
H128	H	1.597661	-0.244064	0.677213
H129	H	1.930994	0.089269	1.010546
F130	F	1.269558	-0.416556	0.371891
F131	F	1.602892	-0.083223	0.705224
F132	F	1.936225	0.250111	1.038557
H133	H	1.481315	-0.575108	0.277801
H134	H	1.814649	-0.241775	0.611135
H135	H	2.147982	0.091558	0.944468
F136	F	1.405823	-0.583075	-0.045491
F137	F	1.739157	-0.249742	0.287843
F138	F	2.072490	0.083591	0.621176
