data_functionalizedCrystal
_audit_creation_method	'MofGen! by Chris Wilmer'
_symmetry_space_group_name_H-M	'P1'
_symmetry_Int_Tables_number	1
_symmetry_cell_setting	triclinic
loop_
_symmetry_equiv_pos_as_xyz
  x,y,z
_cell_length_a	18.215407
_cell_length_b	18.215405
_cell_length_c	18.215399
_cell_angle_alpha	89.972459
_cell_angle_beta	89.980167
_cell_angle_gamma	90.023180
loop_
_atom_site_label
_atom_site_type_symbol
_atom_site_fract_x
_atom_site_fract_y
_atom_site_fract_z
Zn1	Zn	1.125083	-0.292983	-0.416118
Zn2	Zn	1.458416	0.040350	-0.082785
Zn3	Zn	1.791750	0.373684	0.250549
Zn4	Zn	1.124996	-0.416054	-0.293053
Zn5	Zn	1.458329	-0.082721	0.040281
Zn6	Zn	1.791663	0.250612	0.373614
Zn7	Zn	1.002016	-0.293007	-0.293065
Zn8	Zn	1.335349	0.040326	0.040268
Zn9	Zn	1.668682	0.373660	0.373601
Zn10	Zn	1.001986	-0.416013	-0.416077
Zn11	Zn	1.335319	-0.082680	-0.082744
Zn12	Zn	1.668653	0.250653	0.250589
O13	O	1.063520	-0.354514	-0.354578
O14	O	1.396853	-0.021181	-0.021245
O15	O	1.730187	0.312152	0.312088
O16	O	1.228056	-0.309316	-0.399805
O17	O	1.561389	0.024018	-0.066471
O18	O	1.894722	0.357351	0.266862
O19	O	1.108658	-0.399759	-0.190070
O20	O	1.441992	-0.066426	0.143263
O21	O	1.775325	0.266908	0.476597
O22	O	1.018389	-0.190020	-0.309411
O23	O	1.351723	0.143314	0.023923
O24	O	1.685056	0.476647	0.357256
O25	O	1.227992	-0.399736	-0.309389
O26	O	1.561325	-0.066402	0.023944
O27	O	1.894658	0.266931	0.357278
O28	O	1.108807	-0.190002	-0.399817
O29	O	1.442140	0.143331	-0.066484
O30	O	1.775473	0.476665	0.266850
O31	O	1.018305	-0.309357	-0.190079
O32	O	1.351638	0.023977	0.143254
O33	O	1.684972	0.357310	0.476587
O34	O	0.899027	-0.309317	-0.309372
O35	O	1.232361	0.024016	0.023962
O36	O	1.565694	0.357350	0.357295
O37	O	1.018339	-0.399666	-0.519067
O38	O	1.351672	-0.066333	-0.185734
O39	O	1.685006	0.267001	0.147600
O40	O	0.899006	-0.399689	-0.399748
O41	O	1.232339	-0.066356	-0.066415
O42	O	1.565672	0.266977	0.266919
O43	O	1.108778	-0.309276	-0.519097
O44	O	1.442111	0.024057	-0.185764
O45	O	1.775445	0.357391	0.147570
O46	O	1.108630	-0.519033	-0.309350
O47	O	1.441963	-0.185700	0.023984
O48	O	1.775296	0.147634	0.357317
O49	O	1.018255	-0.519003	-0.399736
O50	O	1.351588	-0.185670	-0.066402
O51	O	1.684921	0.147664	0.266931
C52	C	0.872314	-0.354502	-0.354557
C53	C	1.205647	-0.021168	-0.021224
C54	C	1.538981	0.312165	0.312109
C55	C	0.790515	-0.354514	-0.354566
C56	C	1.123848	-0.021181	-0.021232
C57	C	1.457182	0.312152	0.312101
C58	C	1.063450	-0.545721	-0.354553
C59	C	1.396783	-0.212387	-0.021220
C60	C	1.730116	0.120946	0.312114
C61	C	1.063487	-0.627520	-0.354567
C62	C	1.396820	-0.294186	-0.021233
C63	C	1.730153	0.039147	0.312100
C64	C	0.602329	-0.401645	-0.401566
C65	C	0.935662	-0.068312	-0.068232
C66	C	1.268996	0.265022	0.265101
C67	C	0.525470	-0.401647	-0.401575
C68	C	0.858804	-0.068314	-0.068241
C69	C	1.192137	0.265019	0.265092
C70	C	0.525463	-0.307397	-0.307607
C71	C	0.858797	0.025936	0.025726
C72	C	1.192130	0.359269	0.359060
C73	C	0.602321	-0.307392	-0.307602
C74	C	0.935654	0.025942	0.025731
C75	C	1.268987	0.359275	0.359064
C76	C	0.640751	-0.354520	-0.354580
C77	C	0.974085	-0.021186	-0.021247
C78	C	1.307418	0.312147	0.312086
C79	C	0.487035	-0.354528	-0.354594
C80	C	0.820369	-0.021194	-0.021261
C81	C	1.153702	0.312139	0.312072
C82	C	0.403702	-0.354530	-0.354604
C83	C	0.737035	-0.021196	-0.021271
C84	C	1.070368	0.312137	0.312063
C85	C	0.724090	-0.354517	-0.354572
C86	C	1.057424	-0.021184	-0.021239
C87	C	1.390757	0.312150	0.312095
C88	C	1.110589	-0.815643	-0.401705
C89	C	1.443923	-0.482310	-0.068372
C90	C	1.777256	-0.148977	0.264962
C91	C	1.110616	-0.892502	-0.401719
C92	C	1.443949	-0.559169	-0.068385
C93	C	1.777283	-0.225835	0.264948
C94	C	1.016542	-0.892634	-0.307497
C95	C	1.349875	-0.559300	0.025836
C96	C	1.683209	-0.225967	0.359169
C97	C	1.016512	-0.815776	-0.307488
C98	C	1.349845	-0.482443	0.025846
C99	C	1.683179	-0.149110	0.359179
C100	C	1.063540	-0.777283	-0.354590
C101	C	1.396873	-0.443950	-0.021257
C102	C	1.730207	-0.110616	0.312076
C103	C	1.063597	-0.930999	-0.354614
C104	C	1.396930	-0.597666	-0.021281
C105	C	1.730263	-0.264332	0.312053
C106	C	1.063625	-1.014333	-0.354628
C107	C	1.396958	-0.680999	-0.021295
C108	C	1.730292	-0.347666	0.312038
C109	C	1.063511	-0.693944	-0.354577
C110	C	1.396844	-0.360611	-0.021244
C111	C	1.730177	-0.027277	0.312090
C112	C	1.255473	-0.354528	-0.354600
C113	C	1.588806	-0.021194	-0.021267
C114	C	1.922140	0.312139	0.312067
C115	C	1.337272	-0.354533	-0.354609
C116	C	1.670605	-0.021200	-0.021276
C117	C	2.003939	0.312133	0.312058
C118	C	1.063565	-0.354464	-0.546531
C119	C	1.396898	-0.021130	-0.213198
C120	C	1.730232	0.312203	0.120135
C121	C	1.063584	-0.354442	-0.628330
C122	C	1.396917	-0.021109	-0.294997
C123	C	1.730251	0.312225	0.038336
C124	C	1.063611	-0.162561	-0.354620
C125	C	1.396944	0.170772	-0.021287
C126	C	1.730278	0.504105	0.312047
C127	C	1.063650	-0.080763	-0.354638
C128	C	1.396983	0.252571	-0.021304
C129	C	1.730316	0.585904	0.312029
C130	C	1.110692	-0.307332	-0.816541
C131	C	1.444026	0.026001	-0.483208
C132	C	1.777359	0.359335	-0.149874
C133	C	1.110701	-0.307311	-0.893400
C134	C	1.444035	0.026023	-0.560066
C135	C	1.777368	0.359356	-0.226733
C136	C	1.016528	-0.401438	-0.893358
C137	C	1.349861	-0.068105	-0.560024
C138	C	1.683194	0.265228	-0.226691
C139	C	1.016516	-0.401455	-0.816500
C140	C	1.349849	-0.068122	-0.483167
C141	C	1.683182	0.265211	-0.149833
C142	C	1.063602	-0.354403	-0.778094
C143	C	1.396936	-0.021070	-0.444761
C144	C	1.730269	0.312263	-0.111427
C145	C	1.063623	-0.354365	-0.931810
C146	C	1.396956	-0.021031	-0.598477
C147	C	1.730290	0.312302	-0.265143
C148	C	1.063632	-0.354342	-1.015144
C149	C	1.396966	-0.021009	-0.681810
C150	C	1.730299	0.312325	-0.348477
C151	C	1.063592	-0.354425	-0.694755
C152	C	1.396926	-0.021092	-0.361421
C153	C	1.730259	0.312242	-0.028088
C154	C	1.063518	-0.354512	-0.163372
C155	C	1.396851	-0.021179	0.169961
C156	C	1.730184	0.312155	0.503295
C157	C	1.063641	-0.354326	-0.081574
C158	C	1.396975	-0.020993	0.251760
C159	C	1.730308	0.312341	0.585093
H160	H	0.633617	-0.440018	-0.439820
H161	H	0.966951	-0.106684	-0.106487
H162	H	1.300284	0.226649	0.226847
O163	O	0.965708	-0.452224	-0.775038
O164	O	1.299042	-0.118891	-0.441705
O165	O	1.632375	0.214442	-0.108371
H166	H	0.998611	-0.489679	-0.740009
H167	H	1.331944	-0.156345	-0.406675
H168	H	1.665278	0.176988	-0.073342
O169	O	0.483987	-0.452477	-0.452217
O170	O	0.817320	-0.119143	-0.118884
O171	O	1.150654	0.214190	0.214449
H172	H	0.448947	-0.489845	-0.419174
H173	H	0.782280	-0.156511	-0.085841
H174	H	1.115613	0.176822	0.247493
H175	H	1.148881	-0.784304	-0.440060
H176	H	1.482215	-0.450971	-0.106727
H177	H	1.815548	-0.117637	0.226607
O178	O	1.161483	-0.256535	-0.934872
O179	O	1.494817	0.076798	-0.601539
O180	O	1.828150	0.410131	-0.268206
H181	H	1.198911	-0.289462	-0.969898
H182	H	1.532244	0.043872	-0.636565
H183	H	1.865578	0.377205	-0.303232
O184	O	1.161360	-0.933880	-0.452535
O185	O	1.494694	-0.600547	-0.119202
O186	O	1.828027	-0.267213	0.214131
H187	H	1.219122	-0.919099	-0.439962
H188	H	1.552456	-0.585765	-0.106629
H189	H	1.885789	-0.252432	0.226704
O190	O	0.484014	-0.256592	-0.256914
O191	O	0.817347	0.076742	0.076419
O192	O	1.150681	0.410075	0.409752
H193	H	0.424115	-0.264524	-0.264798
H194	H	0.757448	0.068810	0.068535
H195	H	1.090781	0.402143	0.401869
O196	O	0.643771	-0.256573	-0.256912
O197	O	0.977104	0.076760	0.076421
O198	O	1.310437	0.410094	0.409755
H199	H	0.604137	-0.223814	-0.224234
H200	H	0.937470	0.109519	0.109099
H201	H	1.270803	0.442852	0.442432
H202	H	1.149031	-0.269017	-0.785273
H203	H	1.482365	0.064316	-0.451940
H204	H	1.815698	0.397649	-0.118606
H205	H	0.978255	-0.923984	-0.269147
H206	H	1.311588	-0.590651	0.064187
H207	H	1.644921	-0.257317	0.397520
O208	O	0.965771	-0.774393	-0.256663
O209	O	1.299104	-0.441060	0.076671
O210	O	1.632437	-0.107726	0.410004
H211	H	0.933084	-0.814070	-0.223901
H212	H	1.266417	-0.480737	0.109433
H213	H	1.599751	-0.147404	0.442766
H214	H	0.978193	-0.439748	-0.924637
H215	H	1.311526	-0.106415	-0.591304
H216	H	1.644860	0.226919	-0.257971
