data_functionalizedCrystal
_audit_creation_method	'MofGen! by Chris Wilmer'
_symmetry_space_group_name_H-M	'P1'
_symmetry_Int_Tables_number	1
_symmetry_cell_setting	triclinic
loop_
_symmetry_equiv_pos_as_xyz
  x,y,z
_cell_length_a	6.817900
_cell_length_b	11.102244
_cell_length_c	10.992410
_cell_angle_alpha	91.891210
_cell_angle_beta	108.764651
_cell_angle_gamma	108.604870
loop_
_atom_site_label
_atom_site_type_symbol
_atom_site_fract_x
_atom_site_fract_y
_atom_site_fract_z
V1	V	-4.113413	-0.175838	-0.400590
O2	O	-4.072416	0.008450	-0.392968
O3	O	-4.090171	-0.348658	-0.397847
O4	O	-4.091018	-0.173134	-0.575302
O5	O	-4.071563	-0.168290	-0.214284
V6	V	-4.590411	-0.153795	-0.378306
O7	O	-4.388984	-0.224192	-0.449470
O8	O	-4.765038	-0.105442	-0.329426
O9	O	-4.390447	0.019024	-0.381049
O10	O	-4.748805	-0.338084	-0.385929
O11	O	-4.749658	-0.161344	-0.564613
O12	O	-4.389600	-0.156500	-0.203594
C13	C	-3.940450	-0.390788	-0.391526
C14	C	-4.002907	-0.532070	-0.390448
C15	C	-3.971524	-0.580305	-0.272289
C16	C	-4.030224	-0.713057	-0.271291
C17	C	-4.151683	-0.749329	-0.506622
C18	C	-4.092998	-0.616580	-0.507619
C19	C	-3.881433	-0.495795	-0.155118
C20	C	-3.850042	-0.544028	-0.036949
C21	C	-3.908742	-0.676781	-0.035951
C22	C	-3.998833	-0.761300	-0.153122
C23	C	-3.941529	-0.166887	-0.617887
C24	C	-4.004669	-0.165819	-0.760715
C25	C	-3.871838	-0.156089	-0.955839
C26	C	-3.806280	-0.157726	-0.807356
C27	C	-4.202090	-0.291130	-0.837817
C28	C	-4.266409	-0.290022	-0.986384
C29	C	-4.145327	-0.047376	-0.948356
C30	C	-4.074621	-0.046781	-0.799343
C31	C	-4.203510	0.061147	-0.387366
C32	C	-4.120292	0.202428	-0.388453
C33	C	-4.202430	-0.162751	-0.161002
C34	C	-4.118528	-0.163812	-0.018173
H35	H	-3.776705	-0.475206	0.058447
H36	H	-4.250427	-0.378185	-1.032652
C37	C	-4.512207	-0.304759	-1.043985
H38	H	-4.572350	-0.311404	-0.976569
H39	H	-4.525813	-0.231863	-1.084017
H40	H	-4.590110	-0.380136	-1.106892
C41	C	-4.405166	-0.305258	-0.798904
H42	H	-4.371270	-0.234694	-0.735133
H43	H	-4.525700	-0.306659	-0.873249
H44	H	-4.443786	-0.383135	-0.764296
H45	H	-3.883199	-0.716049	0.060268
C46	C	-4.127503	-0.563516	-0.637591
H47	H	-4.189531	-0.632856	-0.707229
H48	H	-4.224871	-0.516624	-0.646970
H49	H	-3.989376	-0.508343	-0.638765
H50	H	-4.155908	-0.379510	-0.812210
H51	H	-4.046640	-0.869394	-0.152300
H52	H	-3.755066	-0.065366	-0.974670
H53	H	-4.225032	-0.818154	-0.602016
C54	C	-3.606288	-0.036018	-0.735293
H55	H	-3.564462	0.014871	-0.796712
H56	H	-3.644746	0.012153	-0.679489
H57	H	-3.486240	-0.060000	-0.685240
C58	C	-3.837601	-0.269107	-1.020657
H59	H	-3.972995	-0.320982	-1.085539
H60	H	-3.729008	-0.236740	-1.059435
H61	H	-3.789717	-0.319343	-0.956982
H62	H	-3.748697	-0.242549	-0.782539
C63	C	-4.006899	0.081176	-0.975848
H64	H	-3.931456	0.065034	-1.030167
H65	H	-4.101461	0.125744	-1.018115
H66	H	-3.902327	0.132046	-0.896211
C67	C	-3.881699	0.078450	-0.728625
H68	H	-3.759029	0.058289	-0.675770
H69	H	-3.840845	0.128522	-0.790794
H70	H	-3.926196	0.125790	-0.675655
C71	C	-4.266584	-0.044773	-0.755405
H72	H	-4.306774	-0.116834	-0.712748
H73	H	-4.221577	0.032139	-0.697266
H74	H	-4.389862	-0.048416	-0.829109
C75	C	-4.387077	-0.053517	-1.003531
H76	H	-4.471326	-0.126639	-1.068795
H77	H	-4.446153	-0.059828	-0.935668
H78	H	-4.392894	0.022120	-1.040199
H79	H	-3.833618	-0.387699	-0.155917
