data_functionalizedCrystal
_audit_creation_method	'MofGen! by Chris Wilmer'
_symmetry_space_group_name_H-M	'P1'
_symmetry_Int_Tables_number	1
_symmetry_cell_setting	triclinic
loop_
_symmetry_equiv_pos_as_xyz
  x,y,z
_cell_length_a	14.908782
_cell_length_b	19.120786
_cell_length_c	14.908694
_cell_angle_alpha	90.966725
_cell_angle_beta	90.174534
_cell_angle_gamma	89.311817
loop_
_atom_site_label
_atom_site_type_symbol
_atom_site_fract_x
_atom_site_fract_y
_atom_site_fract_z
Zn1	Zn	1.383045	-0.360147	-0.410367
Zn2	Zn	1.883045	0.139853	0.089633
Zn3	Zn	1.367918	-0.469927	-0.254360
Zn4	Zn	1.867918	0.030073	0.245640
Zn5	Zn	1.224793	-0.346737	-0.269410
Zn6	Zn	1.724793	0.153263	0.230590
Zn7	Zn	1.226260	-0.470662	-0.413320
Zn8	Zn	1.726260	0.029338	0.086680
O9	O	1.300504	-0.411868	-0.336865
O10	O	1.800504	0.088132	0.163135
O11	O	1.506551	-0.380013	-0.382139
O12	O	2.006551	0.119987	0.117861
O13	O	1.341987	-0.447666	-0.130840
O14	O	1.841987	0.052334	0.369160
O15	O	1.251502	-0.250709	-0.293171
O16	O	1.751502	0.249291	0.206829
O17	O	1.495437	-0.460668	-0.267521
O18	O	1.995437	0.039332	0.232479
O19	O	1.367769	-0.260561	-0.396732
O20	O	1.867769	0.239439	0.103268
O21	O	1.236835	-0.357159	-0.141897
O22	O	1.736835	0.142841	0.358103
O23	O	1.099475	-0.357872	-0.296034
O24	O	1.599475	0.142128	0.203966
O25	O	1.254003	-0.461922	-0.538445
O26	O	1.754003	0.038078	-0.038445
O27	O	1.100553	-0.448919	-0.401765
O28	O	1.600553	0.051081	0.098235
O29	O	1.369191	-0.380726	-0.536276
O30	O	1.869191	0.119274	-0.036276
O31	O	1.343410	-0.567831	-0.270384
O32	O	1.843410	-0.067831	0.229616
O33	O	1.239335	-0.568371	-0.387171
O34	O	1.739335	-0.068371	0.112829
C35	C	1.067470	-0.402021	-0.350853
C36	C	1.567470	0.097979	0.149147
C37	C	0.967777	-0.397826	-0.356858
C38	C	1.467777	0.102174	0.143142
C39	C	1.289915	-0.593463	-0.327483
C40	C	1.789915	-0.093463	0.172517
C41	C	1.285469	-0.671155	-0.323495
C42	C	1.785469	-0.171155	0.176505
C43	C	0.768867	-0.473799	-0.248622
C44	C	1.268867	0.026201	0.251378
C45	C	0.675196	-0.469860	-0.254261
C46	C	1.175196	0.030140	0.245739
C47	C	0.686764	-0.386013	-0.373780
C48	C	1.186764	0.113987	0.126220
C49	C	0.780434	-0.389952	-0.368141
C50	C	1.280434	0.110048	0.131859
C51	C	0.821482	-0.433846	-0.305559
C52	C	1.321482	0.066154	0.194441
C53	C	0.915155	-0.437781	-0.299916
C54	C	1.415155	0.062219	0.200084
C55	C	0.926720	-0.353938	-0.419438
C56	C	1.426720	0.146062	0.080562
C57	C	0.833050	-0.349999	-0.425077
C58	C	1.333050	0.150001	0.074923
C59	C	1.343874	-0.712724	-0.375589
C60	C	1.843874	-0.212724	0.124411
C61	C	1.339693	-0.785724	-0.371843
C62	C	1.839693	-0.285724	0.128157
C63	C	1.277111	-0.817153	-0.315998
C64	C	1.777111	-0.317153	0.184002
C65	C	1.218700	-0.775578	-0.263902
C66	C	1.718700	-0.275578	0.236098
C67	C	1.222877	-0.702580	-0.267653
C68	C	1.722877	-0.202580	0.232347
C69	C	1.261467	-1.037307	-0.301977
C70	C	1.761467	-0.537307	0.198023
C71	C	1.257295	-1.110311	-0.298228
C72	C	1.757295	-0.610311	0.201772
C73	C	1.378288	-1.120451	-0.406170
C74	C	1.878288	-0.620451	0.093830
C75	C	1.382464	-1.047451	-0.409912
C76	C	1.882464	-0.547451	0.090088
C77	C	1.324050	-1.005883	-0.357820
C78	C	1.824050	-0.505883	0.142180
C79	C	1.272837	-0.891770	-0.312166
C80	C	1.772837	-0.391770	0.187834
C81	C	1.328319	-0.931267	-0.361658
C82	C	1.828319	-0.431267	0.138342
C83	C	1.534448	-0.421754	-0.322821
C84	C	2.034448	0.078246	0.177179
C85	C	1.634141	-0.425967	-0.316837
C86	C	2.134141	0.074033	0.183163
C87	C	1.313448	-0.422902	-0.570815
C88	C	1.813448	0.077098	-0.070815
C89	C	1.318964	-0.427604	-0.670511
C90	C	1.818964	0.072396	-0.170511
C91	C	1.311159	-0.229566	-0.346301
C92	C	1.811159	0.270434	0.153699
C93	C	1.315700	-0.151880	-0.350322
C94	C	1.815700	0.348120	0.149678
C95	C	1.219812	-0.342196	-0.869367
C96	C	1.719812	0.157804	-0.369367
C97	C	1.224992	-0.346611	-0.963041
C98	C	1.724992	0.153389	-0.463041
C99	C	1.334498	-0.440853	-0.951534
C100	C	1.834498	0.059147	-0.451534
C101	C	1.329318	-0.436438	-0.857860
C102	C	1.829318	0.063562	-0.357860
C103	C	1.271975	-0.387107	-0.816780
C104	C	1.771975	0.112893	-0.316780
C105	C	1.266800	-0.382688	-0.723105
C106	C	1.766800	0.117312	-0.223105
C107	C	1.376301	-0.476933	-0.711600
C108	C	1.876301	0.023067	-0.211600
C109	C	1.381480	-0.481349	-0.805274
C110	C	1.881480	0.018651	-0.305274
C111	C	1.287665	-0.400829	-0.103823
C112	C	1.787665	0.099171	0.396177
C113	C	1.282334	-0.395937	-0.004127
C114	C	1.782334	0.104063	0.495873
H115	H	0.948574	-0.473520	-0.248956
H116	H	1.448574	0.026480	0.251044
H117	H	1.381172	-0.481025	-0.984998
H118	H	1.881172	0.018975	-0.484998
Br119	Br	0.998132	-0.299702	-0.496702
Br120	Br	1.498132	0.200298	0.003298
H121	H	1.175317	-0.668735	-0.225234
H122	H	1.675317	-0.168735	0.274766
Br123	Br	0.603791	-0.524087	-0.176991
Br124	Br	1.103791	-0.024087	0.323009
Br125	Br	1.459294	-0.548299	-0.861033
Br126	Br	1.959294	-0.048299	-0.361033
Br127	Br	0.631040	-0.326464	-0.458724
Br128	Br	1.131040	0.173536	0.041276
H129	H	1.418778	-0.513501	-0.668774
H130	H	1.918778	-0.013501	-0.168774
H131	H	1.167740	-0.801174	-0.218436
H132	H	1.667740	-0.301174	0.281564
H133	H	1.394839	-0.687140	-0.421060
H134	H	1.894839	-0.187140	0.078940
Br135	Br	1.418946	-0.842137	-0.442562
Br136	Br	1.918946	-0.342137	0.057438
Br137	Br	1.188982	-0.315737	-0.667354
Br138	Br	1.688982	0.184263	-0.167354
Br139	Br	1.467401	-1.004802	-0.485704
Br140	Br	1.967401	-0.504802	0.014296
H141	H	1.182516	-0.310040	-1.005854
H142	H	1.682516	0.189960	-0.505854
Br143	Br	1.457558	-1.176868	-0.476865
Br144	Br	1.957558	-0.676868	0.023135
Br145	Br	1.187898	-0.934430	-0.236387
Br146	Br	1.687898	-0.434430	0.263613
Br147	Br	1.172362	-1.152964	-0.222427
Br148	Br	1.672362	-0.652964	0.277573
H149	H	1.173129	-0.302022	-0.835919
H150	H	1.673129	0.197978	-0.335919
Br151	Br	0.777333	-0.290437	-0.510012
Br152	Br	1.277333	0.209563	-0.010012
Br153	Br	0.824580	-0.533363	-0.163688
Br154	Br	1.324580	-0.033363	0.336312
H155	H	1.213905	-1.003468	-0.259559
H156	H	1.713905	-0.503468	0.240441
H157	H	1.379271	-0.905675	-0.407130
H158	H	1.879271	-0.405675	0.092870
