data_functionalizedCrystal
_audit_creation_method	'MofGen! by Chris Wilmer'
_symmetry_space_group_name_H-M	'P1'
_symmetry_Int_Tables_number	1
_symmetry_cell_setting	triclinic
loop_
_symmetry_equiv_pos_as_xyz
  x,y,z
_cell_length_a	29.839135
_cell_length_b	29.839131
_cell_length_c	16.625539
_cell_angle_alpha	89.969769
_cell_angle_beta	89.979691
_cell_angle_gamma	90.043950
loop_
_atom_site_label
_atom_site_type_symbol
_atom_site_fract_x
_atom_site_fract_y
_atom_site_fract_z
Zn1	Zn	0.686741	-0.178830	-0.455958
Zn2	Zn	0.686667	-0.253959	-0.321116
Zn3	Zn	0.611617	-0.178847	-0.321131
Zn4	Zn	0.611572	-0.253937	-0.455899
O5	O	0.649149	-0.216393	-0.388526
O6	O	0.749598	-0.188798	-0.438090
O7	O	0.676700	-0.244011	-0.208286
O8	O	0.621633	-0.115978	-0.339047
O9	O	0.749544	-0.243995	-0.339022
O10	O	0.676826	-0.115966	-0.438104
O11	O	0.621561	-0.188827	-0.208297
O12	O	0.548744	-0.188806	-0.338989
O13	O	0.621555	-0.243958	-0.568739
O14	O	0.548711	-0.243975	-0.438003
O15	O	0.676781	-0.188778	-0.568783
O16	O	0.676655	-0.316823	-0.338964
O17	O	0.621483	-0.316807	-0.437988
C18	C	0.532427	-0.216390	-0.388492
C19	C	0.482492	-0.216399	-0.388496
C20	C	0.172874	-0.187696	-0.440186
C21	C	-0.014799	-0.187699	-0.440209
O22	O	-0.039042	-0.163285	-0.484120
N23	N	-0.038293	-0.216394	-0.388556
C24	C	-0.014866	-0.245088	-0.336889
O25	O	-0.039155	-0.269491	-0.292948
C26	C	0.172806	-0.245082	-0.336862
C27	C	0.196298	-0.216389	-0.388525
C28	C	0.196366	-0.159005	-0.491845
C29	C	0.243281	-0.159006	-0.491841
C30	C	0.266705	-0.187699	-0.440180
C31	C	0.243214	-0.216390	-0.388522
C32	C	0.196233	-0.273773	-0.285192
C33	C	0.243154	-0.273769	-0.285188
C34	C	0.266645	-0.245075	-0.336851
C35	C	0.313553	-0.245084	-0.336858
N36	N	0.337047	-0.216389	-0.388511
C37	C	0.313623	-0.187697	-0.440173
C38	C	-0.113396	-0.245089	-0.336907
C39	C	-0.160314	-0.245091	-0.336915
C40	C	-0.160244	-0.187702	-0.440235
C41	C	-0.113325	-0.187703	-0.440231
C42	C	-0.089902	-0.216395	-0.388561
C43	C	0.412149	-0.187702	-0.440163
C44	C	0.459068	-0.187707	-0.440157
C45	C	0.458994	-0.245094	-0.336835
C46	C	0.412079	-0.245091	-0.336843
C47	C	0.388657	-0.216391	-0.388509
O48	O	0.337825	-0.269482	-0.292963
O49	O	0.337920	-0.163290	-0.484094
C50	C	0.125959	-0.187695	-0.440190
C51	C	0.102467	-0.216386	-0.388531
C52	C	0.125891	-0.245079	-0.336870
C53	C	0.055549	-0.216388	-0.388539
C54	C	0.032126	-0.187696	-0.440200
C55	C	0.055620	-0.159001	-0.491854
C56	C	0.102535	-0.159002	-0.491851
C57	C	0.102397	-0.273774	-0.285216
C58	C	0.055481	-0.273770	-0.285224
C59	C	0.032058	-0.245078	-0.336886
C60	C	0.649068	-0.333116	-0.388486
C61	C	0.649075	-0.383051	-0.388496
C62	C	0.677930	-0.692689	-0.337040
C63	C	0.677985	-0.880362	-0.337071
O64	O	0.702454	-0.904623	-0.293290
N65	N	0.649242	-0.903835	-0.388587
C66	C	0.620486	-0.880387	-0.440102
O67	O	0.596043	-0.904659	-0.483926
C68	C	0.620433	-0.692715	-0.440074
C69	C	0.649174	-0.669245	-0.388549
C70	C	0.706669	-0.669219	-0.285519
C71	C	0.706653	-0.622303	-0.285509
C72	C	0.677898	-0.598859	-0.337019
C73	C	0.649158	-0.622329	-0.388539
C74	C	0.591679	-0.669268	-0.491593
C75	C	0.591669	-0.622347	-0.491583
C76	C	0.620411	-0.598876	-0.440058
C77	C	0.620387	-0.551969	-0.440038
N78	N	0.649130	-0.528496	-0.388523
C79	C	0.677885	-0.551941	-0.337013
C80	C	0.620515	-0.978918	-0.440112
C81	C	0.620528	-1.025836	-0.440118
C82	C	0.678028	-1.025808	-0.337088
C83	C	0.678012	-0.978889	-0.337078
C84	C	0.649258	-0.955445	-0.388596
C85	C	0.677850	-0.453415	-0.336994
C86	C	0.677830	-0.406495	-0.336986
C87	C	0.620332	-0.406528	-0.440019
C88	C	0.620350	-0.453443	-0.440025
C89	C	0.649112	-0.476886	-0.388510
O90	O	0.595934	-0.527679	-0.483803
O91	O	0.702332	-0.527661	-0.293208
C92	C	0.677946	-0.739605	-0.337050
C93	C	0.649206	-0.763076	-0.388570
C94	C	0.620451	-0.739631	-0.440080
C95	C	0.649219	-0.809993	-0.388576
C96	C	0.677974	-0.833438	-0.337067
C97	C	0.706717	-0.809965	-0.285551
C98	C	0.706701	-0.763050	-0.285540
C99	C	0.591708	-0.763104	-0.491596
C100	C	0.591726	-0.810019	-0.491602
C101	C	0.620481	-0.833464	-0.440092
C102	C	0.766328	-0.216397	-0.388561
C103	C	0.816262	-0.216399	-0.388576
C104	C	0.649171	-0.216364	-0.598835
C105	C	0.649181	-0.216351	-0.688456
C106	C	0.649243	-0.099215	-0.388584
C107	C	0.649283	-0.049281	-0.388608
C108	C	0.649188	-0.216341	-0.761239
C109	C	0.649198	-0.216325	-0.852547
C110	C	0.649209	-0.216309	-0.925324
C111	C	0.649220	-0.216292	-1.016638
C112	C	0.649153	-0.216391	-0.179035
C113	C	0.649231	-0.216277	-0.089415
H114	H	-0.179437	-0.268462	-0.294854
H115	H	0.036359	-0.297140	-0.243155
H116	H	0.262222	-0.297133	-0.243110
H117	H	0.121464	-0.297138	-0.243145
C118	C	0.170606	-0.127441	-0.548684
C119	C	0.177088	-0.131181	-0.640329
C120	C	0.151333	-0.099619	-0.697179
C121	C	0.119096	-0.064316	-0.662383
C122	C	0.112613	-0.060575	-0.570732
C123	C	0.138368	-0.092137	-0.513883
H124	H	0.200953	-0.157316	-0.666091
H125	H	0.156132	-0.102388	-0.765024
H126	H	0.100031	-0.040952	-0.704466
H127	H	0.088748	-0.034440	-0.544970
H128	H	0.133569	-0.089368	-0.446037
H129	H	-0.094330	-0.268455	-0.294829
C130	C	-0.186017	-0.156138	-0.497059
C131	C	-0.179535	-0.105061	-0.490636
C132	C	-0.205310	-0.073497	-0.547452
C133	C	-0.237568	-0.093009	-0.610691
C134	C	-0.244052	-0.144088	-0.617117
C135	C	-0.218276	-0.175653	-0.560301
H136	H	-0.155654	-0.090615	-0.443820
H137	H	-0.200511	-0.035684	-0.542694
H138	H	-0.256649	-0.069643	-0.652749
H139	H	-0.267932	-0.158535	-0.663932
H140	H	-0.223076	-0.213465	-0.565058
C141	C	0.560064	-0.695080	-0.548273
C142	C	0.579518	-0.727291	-0.611618
C143	C	0.547901	-0.753102	-0.668300
C144	C	0.496830	-0.746703	-0.661637
C145	C	0.477373	-0.714491	-0.598289
C146	C	0.508990	-0.688679	-0.541607
H147	H	0.617326	-0.732029	-0.616553
H148	H	0.562304	-0.776948	-0.715195
H149	H	0.473425	-0.765810	-0.703597
H150	H	0.439565	-0.709752	-0.593354
H151	H	0.494587	-0.664833	-0.494712
H152	H	0.701416	-0.959782	-0.295123
C153	C	0.484908	-0.156141	-0.496988
C154	C	0.478470	-0.159872	-0.588638
C155	C	0.504307	-0.128307	-0.645466
C156	C	0.536582	-0.093010	-0.610645
C157	C	0.543021	-0.089277	-0.518991
C158	C	0.517184	-0.120843	-0.462162
H159	H	0.454577	-0.186002	-0.614419
H160	H	0.499540	-0.131070	-0.713315
H161	H	0.555708	-0.069643	-0.652713
H162	H	0.566914	-0.063147	-0.493209
H163	H	0.521951	-0.118079	-0.394313
C164	C	0.170402	-0.305336	-0.228356
C165	C	0.176844	-0.301595	-0.136708
C166	C	0.151014	-0.333160	-0.079867
C167	C	0.118743	-0.368465	-0.114672
C168	C	0.112300	-0.372207	-0.206325
C169	C	0.138129	-0.340642	-0.263166
H170	H	0.200734	-0.275459	-0.110938
H171	H	0.155784	-0.330389	-0.012019
H172	H	0.099623	-0.391830	-0.072595
H173	H	0.088409	-0.398343	-0.232094
H174	H	0.133359	-0.343413	-0.331014
H175	H	0.701234	-0.387387	-0.295025
H176	H	0.597098	-0.959833	-0.482065
H177	H	0.393085	-0.164330	-0.482232
C178	C	0.560036	-0.596559	-0.548252
C179	C	0.508969	-0.603070	-0.541585
C180	C	0.477335	-0.577283	-0.598250
C181	C	0.496768	-0.544984	-0.661583
C182	C	0.547838	-0.538472	-0.668253
C183	C	0.579472	-0.564259	-0.611588
H184	H	0.494581	-0.626980	-0.494699
H185	H	0.439530	-0.582104	-0.593312
H186	H	0.473351	-0.525895	-0.703530
H187	H	0.562226	-0.514562	-0.715138
H188	H	0.617277	-0.559438	-0.616526
C189	C	0.386233	-0.276654	-0.280018
C190	C	0.392670	-0.272919	-0.188369
C191	C	0.366828	-0.304479	-0.131537
C192	C	0.334549	-0.339773	-0.166355
C193	C	0.328111	-0.343509	-0.258009
C194	C	0.353953	-0.311950	-0.314841
H195	H	0.416566	-0.246791	-0.162591
H196	H	0.371595	-0.301713	-0.063688
H197	H	0.315420	-0.363135	-0.124284
H198	H	0.304215	-0.369637	-0.283787
H199	H	0.349187	-0.314716	-0.382689
H200	H	0.478074	-0.268456	-0.294775
H201	H	0.568293	-0.744019	-0.533543
C202	C	0.709661	-1.051602	-0.280430
C203	C	0.709674	-1.103210	-0.280447
C204	C	0.741308	-1.129007	-0.223798
C205	C	0.772931	-1.103196	-0.167130
C206	C	0.772919	-1.051586	-0.167110
C207	C	0.741285	-1.025789	-0.223760
H208	H	0.686264	-1.122319	-0.322398
H209	H	0.741316	-1.167213	-0.223813
H210	H	0.796348	-1.122293	-0.125195
H211	H	0.796329	-1.032476	-0.125160
H212	H	0.741277	-0.987583	-0.223745
H213	H	0.121658	-0.135637	-0.533920
C214	C	0.588704	-0.380731	-0.496679
C215	C	0.553439	-0.348522	-0.461674
C216	C	0.521814	-0.322724	-0.518339
C217	C	0.525454	-0.329135	-0.610009
C218	C	0.560720	-0.361345	-0.645019
C219	C	0.592345	-0.387143	-0.588354
H220	H	0.550743	-0.343776	-0.393810
H221	H	0.495707	-0.298880	-0.492422
H222	H	0.502043	-0.310037	-0.651956
H223	H	0.563416	-0.366092	-0.712883
H224	H	0.618452	-0.410987	-0.614272
C225	C	0.709485	-0.479197	-0.280323
C226	C	0.705843	-0.472777	-0.188655
C227	C	0.737475	-0.498559	-0.131980
C228	C	0.772750	-0.530762	-0.166972
C229	C	0.776393	-0.537184	-0.258645
C230	C	0.744761	-0.511401	-0.315320
H231	H	0.679729	-0.448937	-0.162748
H232	H	0.734777	-0.493805	-0.064118
H233	H	0.796166	-0.549848	-0.125018
H234	H	0.802507	-0.561024	-0.284553
H235	H	0.747459	-0.516155	-0.383182
C236	C	0.029848	-0.127438	-0.548681
C237	C	0.036333	-0.076361	-0.542265
C238	C	0.010559	-0.044797	-0.599085
C239	C	-0.021700	-0.064310	-0.662320
C240	C	-0.028187	-0.115389	-0.668739
C241	C	-0.002413	-0.146953	-0.611920
H242	H	0.060215	-0.061914	-0.495452
H243	H	0.015361	-0.006985	-0.594333
H244	H	-0.040780	-0.040945	-0.704382
H245	H	-0.052069	-0.129836	-0.715553
H246	H	-0.007215	-0.184765	-0.616672
C247	C	0.560107	-0.835833	-0.548283
C248	C	0.524854	-0.868139	-0.513304
C249	C	0.493239	-0.893951	-0.569989
C250	C	0.496876	-0.887456	-0.661654
C251	C	0.532130	-0.855149	-0.696639
C252	C	0.563745	-0.829337	-0.639953
H253	H	0.522160	-0.872948	-0.445444
H254	H	0.467142	-0.917867	-0.544091
H255	H	0.473473	-0.906563	-0.703616
H256	H	0.534824	-0.850340	-0.764499
H257	H	0.589843	-0.805421	-0.665851
H258	H	0.596947	-0.472554	-0.481983
H259	H	0.730129	-0.829062	-0.243607
H260	H	0.730058	-0.603196	-0.243555
H261	H	0.730087	-0.688302	-0.243574
C262	C	0.738320	-0.737237	-0.228865
C263	C	0.734689	-0.743730	-0.137199
C264	C	0.766311	-0.717921	-0.080522
C265	C	0.801564	-0.685618	-0.115511
C266	C	0.805196	-0.679123	-0.207182
C267	C	0.773574	-0.704932	-0.263859
H268	H	0.708592	-0.767644	-0.111294
H269	H	0.763622	-0.722729	-0.012661
H270	H	0.824972	-0.666513	-0.073555
H271	H	0.831293	-0.655210	-0.233087
H272	H	0.776263	-0.700124	-0.331720
H273	H	0.262404	-0.135640	-0.533910
H274	H	-0.094202	-0.164337	-0.482298
H275	H	0.597119	-1.044942	-0.482068
