data_functionalizedCrystal
_audit_creation_method	'MofGen! by Chris Wilmer'
_symmetry_space_group_name_H-M	'P1'
_symmetry_Int_Tables_number	1
_symmetry_cell_setting	triclinic
loop_
_symmetry_equiv_pos_as_xyz
  x,y,z
_cell_length_a	15.625950
_cell_length_b	26.809956
_cell_length_c	15.538191
_cell_angle_alpha	90.005167
_cell_angle_beta	66.741480
_cell_angle_gamma	71.942656
loop_
_atom_site_label
_atom_site_type_symbol
_atom_site_fract_x
_atom_site_fract_y
_atom_site_fract_z
O1	O	1.155753	-0.167506	0.123019
O2	O	0.888542	-0.119189	0.137644
O3	O	1.074162	-0.152751	-0.006726
O4	O	0.970133	-0.133945	0.267389
O5	O	1.074120	-0.235702	-0.006726
O6	O	0.888499	-0.202141	0.137643
O7	O	1.155710	-0.250458	0.123019
Zn8	Zn	1.022098	-0.239470	0.130331
Zn9	Zn	1.022154	-0.130177	0.130332
O10	O	0.970090	-0.216896	0.267389
C11	C	0.855157	-0.154632	0.136977
C12	C	0.755748	-0.136657	0.134982
C13	C	0.428579	-0.303559	0.128468
C14	C	0.335160	-0.286644	0.126611
C15	C	0.335253	-0.196221	0.126612
C16	C	0.428671	-0.213129	0.128474
C17	C	0.475327	-0.266798	0.129401
C18	C	0.475419	-0.176368	0.129407
C19	C	0.568832	-0.193274	0.131263
C20	C	0.615495	-0.246941	0.132187
C21	C	0.568739	-0.283704	0.131257
C22	C	0.428765	-0.122699	0.128473
C23	C	0.475513	-0.085939	0.129406
C24	C	0.568924	-0.102844	0.131269
C25	C	0.615588	-0.156511	0.132193
C26	C	0.615680	-0.066081	0.132199
C27	C	0.709092	-0.082988	0.134055
C28	C	0.709000	-0.173418	0.134049
N29	N	1.022067	-0.314060	0.130330
C30	C	1.058091	-0.665201	0.187537
C31	C	1.058120	-0.874084	0.187537
O32	O	1.088729	-0.906623	0.236166
N33	N	1.022179	-0.893707	0.130322
C34	C	0.986233	-0.861107	0.073099
O35	O	0.955673	-0.882593	0.024427
C36	C	0.986211	-0.652227	0.073095
C37	C	1.022146	-0.632605	0.130321
C38	C	1.094024	-0.645579	0.244758
C39	C	1.094011	-0.593360	0.244761
C40	C	1.058066	-0.560764	0.187544
C41	C	1.022133	-0.580386	0.130324
C42	C	0.950273	-0.619629	0.015867
C43	C	0.950272	-0.567406	0.015870
C44	C	0.986207	-0.547784	0.073095
C45	C	0.986175	-0.495571	0.073111
N46	N	1.022116	-0.475948	0.130325
C47	C	1.058062	-0.508544	0.187542
C48	C	0.986246	-0.970773	0.073106
C49	C	0.986250	-1.022993	0.073108
C50	C	1.058139	-1.035966	0.187545
C51	C	1.058128	-0.983744	0.187548
C52	C	1.022187	-0.951150	0.130321
C53	C	1.058032	-0.398881	0.187546
C54	C	1.058012	-0.346656	0.187547
C55	C	0.986128	-0.333688	0.073107
C56	C	0.986143	-0.385907	0.073109
C57	C	1.022101	-0.418503	0.130331
O58	O	0.955593	-0.463004	0.024499
O59	O	1.088638	-0.487053	0.236191
C60	C	1.058104	-0.717420	0.187534
C61	C	1.022171	-0.737042	0.130314
C62	C	0.986226	-0.704446	0.073097
C63	C	1.022175	-0.789262	0.130316
C64	C	1.058120	-0.821858	0.187533
C65	C	1.094061	-0.802235	0.244747
C66	C	1.094049	-0.750016	0.244751
C67	C	0.950284	-0.724069	0.015882
C68	C	0.950299	-0.776288	0.015884
C69	C	0.986244	-0.808884	0.073101
C70	C	1.189095	-0.215014	0.123685
C71	C	1.288504	-0.232986	0.125681
C72	C	1.085025	-0.196193	-0.041807
C73	C	1.117446	-0.202050	-0.146335
N74	N	1.022195	-0.055589	0.130325
C75	C	0.795356	-0.143821	-0.434572
C76	C	0.825843	-0.149335	-0.532795
C77	C	0.997324	-0.180341	-0.555001
C78	C	0.966851	-0.174828	-0.456777
C79	C	0.865866	-0.156568	-0.396570
C80	C	1.037362	-0.187575	-0.418775
C81	C	1.006891	-0.182064	-0.320560
C82	C	0.905911	-0.163807	-0.260347
C83	C	0.835396	-0.151057	-0.298355
C84	C	1.138346	-0.205838	-0.478985
C85	C	1.208857	-0.218585	-0.440983
C86	C	1.178387	-0.213071	-0.342766
C87	C	1.077406	-0.194814	-0.282552
C88	C	1.248901	-0.225821	-0.304758
C89	C	1.218431	-0.220310	-0.206543
C90	C	1.046936	-0.189303	-0.184337
C91	C	0.959227	-0.173453	0.302469
C92	C	0.926807	-0.167593	0.406998
H93	H	0.691558	-0.260706	0.133697
Br94	Br	1.106833	-0.443110	0.265204
Br95	Br	1.345903	-0.243372	-0.522700
H96	H	0.921012	-0.635596	-0.030733
Br97	Br	0.772320	-0.246254	0.135323
Br98	Br	0.632060	-0.356541	0.132531
H99	H	0.747154	-0.053053	0.134819
Br100	Br	0.901507	-0.523176	-0.061810
Br101	Br	0.698343	-0.126268	-0.216635
Br102	Br	1.385947	-0.250613	-0.386478
H103	H	0.713124	-0.128948	-0.385547
Br104	Br	1.179700	-0.213323	-0.612279
Br105	Br	1.142758	-0.566735	0.322447
Br106	Br	1.142837	-0.846481	0.322404
H107	H	0.466562	-0.347260	0.129237
Br108	Br	0.271728	-0.336541	0.125323
Br109	Br	0.730138	-0.132038	-0.584366
Br110	Br	0.937457	-1.049611	-0.004540
H111	H	0.921027	-0.792257	-0.030714
H112	H	0.437515	-0.042241	0.128647
H113	H	0.297255	-0.152524	0.125854
Br114	Br	0.901476	-0.679835	-0.061762
Br115	Br	0.864553	-0.156334	-0.127052
Br116	Br	0.937360	-0.412536	-0.004544
H117	H	0.577683	-0.022385	0.131434
H118	H	0.956859	-0.307139	0.026525
H119	H	1.275848	-0.230691	-0.175602
H120	H	0.956977	-0.944238	0.026503
Br121	Br	0.302006	-0.099757	0.125918
H122	H	1.087273	-0.330683	0.234151
H123	H	1.079546	-0.195211	-0.604035
H124	H	1.123310	-0.734045	0.291350
Br125	Br	1.142814	-0.689808	0.322419
H126	H	1.087388	-0.967772	0.234146
H127	H	0.964703	-0.174430	-0.135312
Br128	Br	1.106924	-1.080214	0.265195
