data_functionalizedCrystal
_audit_creation_method	'MofGen! by Chris Wilmer'
_symmetry_space_group_name_H-M	'P1'
_symmetry_Int_Tables_number	1
_symmetry_cell_setting	triclinic
loop_
_symmetry_equiv_pos_as_xyz
  x,y,z
_cell_length_a	10.654562
_cell_length_b	23.532407
_cell_length_c	9.130313
_cell_angle_alpha	89.994125
_cell_angle_beta	89.996930
_cell_angle_gamma	83.669390
loop_
_atom_site_label
_atom_site_type_symbol
_atom_site_fract_x
_atom_site_fract_y
_atom_site_fract_z
O1	O	1.665290	0.080017	-0.121912
O2	O	1.299572	0.087630	-0.121896
O3	O	1.493459	0.000964	-0.121878
O4	O	1.471403	0.166683	-0.121930
O5	O	1.493457	0.000966	0.121721
O6	O	1.299570	0.087632	0.121703
O7	O	1.665287	0.080019	0.121687
Cu8	Cu	1.482428	0.083826	0.143937
Cu9	Cu	1.482431	0.083823	-0.144146
O10	O	1.471400	0.166685	0.121669
C11	C	1.252791	0.087070	-0.000094
C12	C	1.113401	0.085393	-0.000086
C13	C	1.047894	0.084612	0.132688
C14	C	0.916922	0.083041	0.132664
C15	C	0.916975	0.083035	-0.132921
C16	C	1.047946	0.084602	-0.132895
C17	C	1.047862	0.084619	0.286022
C18	C	0.916889	0.083048	0.285998
C19	C	1.492896	-0.020255	-0.000074
C20	C	1.491207	-0.083483	-0.000063
C21	C	1.595354	-0.481905	-0.000148
C22	C	1.593785	-0.541316	-0.000159
O23	O	1.690330	-0.577430	-0.000218
N24	N	1.478520	-0.564696	-0.000153
C25	C	1.364815	-0.528661	-0.000150
O26	O	1.266628	-0.554002	-0.000147
C27	C	1.366385	-0.469252	-0.000150
C28	C	1.481658	-0.445876	-0.000141
C29	C	1.710618	-0.458529	-0.000141
C30	C	1.712186	-0.399122	-0.000127
C31	C	1.598490	-0.363093	-0.000121
C32	C	1.483227	-0.386469	-0.000128
C33	C	1.252682	-0.433218	-0.000158
C34	C	1.254262	-0.373806	-0.000158
C35	C	1.369535	-0.350430	-0.000150
C36	C	1.371099	-0.291033	-0.000107
N37	N	1.486365	-0.267654	-0.000113
C38	C	1.600060	-0.303683	-0.000120
C39	C	1.361527	-0.653425	-0.000154
C40	C	1.359955	-0.712833	-0.000144
C41	C	1.588926	-0.725484	-0.000156
C42	C	1.590496	-0.666075	-0.000155
C43	C	1.476792	-0.630046	-0.000160
C44	C	1.603345	-0.178925	-0.000090
C45	C	1.604903	-0.119513	-0.000070
C46	C	1.375933	-0.106867	-0.000066
C47	C	1.374374	-0.166274	-0.000078
C48	C	1.488091	-0.202302	-0.000095
O49	O	1.274605	-0.254885	-0.000054
O50	O	1.698231	-0.278334	-0.000142
C51	C	1.712068	0.080578	-0.000119
C52	C	1.851458	0.082255	-0.000136
C53	C	1.471963	0.187904	-0.000138
C54	C	1.473652	0.251132	-0.000159
N55	N	1.482435	0.083827	0.346560
N56	N	1.482434	0.083817	-0.346769
C57	C	1.568310	0.045465	0.423220
C58	C	1.568307	0.045458	0.576557
C59	C	1.396550	0.122181	0.576560
C60	C	1.396548	0.122185	0.423226
C61	C	1.667476	0.001171	0.423219
C62	C	1.667473	0.001164	0.576556
H63	H	1.095368	0.045264	0.344917
N64	N	1.242195	-0.736698	-0.000119
N65	N	1.140696	-0.704515	-0.000104
H66	H	1.057523	-0.721367	-0.000091
N67	N	1.245361	-0.616632	-0.000154
N68	N	1.142461	-0.637520	-0.000151
H69	H	1.060418	-0.611538	-0.000155
N70	N	1.642261	-0.053730	0.371014
N71	N	1.541089	-0.072846	0.404097
H72	H	1.523265	-0.111615	0.367220
N73	N	1.134920	-0.457077	-0.000170
N74	N	1.033426	-0.424890	-0.000180
H75	H	0.950249	-0.441738	-0.000193
N76	N	1.788145	0.013403	0.628793
N77	N	1.808571	0.015464	0.763396
H78	H	1.893793	0.024105	0.800291
H79	H	1.758220	0.015042	0.375652
N80	N	0.857211	0.132469	0.359578
N81	N	0.739684	0.139569	0.371907
H82	H	0.697528	0.174489	0.423787
N83	N	1.630841	-0.050720	0.636261
N84	N	1.626252	-0.057205	0.771965
H85	H	1.600372	-0.093844	0.814137
N86	N	1.114845	0.085387	-0.268534
N87	N	1.056384	0.084678	-0.387096
H88	H	1.103631	0.085232	-0.482898
H89	H	1.698776	-0.100484	-0.000059
H90	H	1.283365	-0.077521	-0.000055
N91	N	1.138110	-0.337005	-0.000129
N92	N	1.113429	-0.302452	0.102565
H93	H	1.031396	-0.276462	0.102591
H94	H	0.888617	0.041516	0.333590
N95	N	0.850131	0.082222	-0.268587
N96	N	0.876849	0.042324	-0.357477
H97	H	0.829644	0.041750	-0.453297
N98	N	1.719513	-0.215713	-0.000111
N99	N	1.822411	-0.194823	-0.000104
H100	H	1.904455	-0.220804	-0.000112
N101	N	1.708243	-0.642199	-0.000126
N102	N	1.784714	-0.653076	0.102562
H103	H	1.867878	-0.636216	0.102584
H104	H	1.076120	0.126152	0.333585
N105	N	1.829937	-0.375250	-0.000108
N106	N	1.906417	-0.386133	0.102569
H107	H	1.989586	-0.369277	0.102581
N108	N	1.826779	-0.495318	-0.000126
N109	N	1.903594	-0.492909	0.102565
H110	H	1.985642	-0.518888	0.102587
N111	N	1.705056	-0.762302	-0.000154
N112	N	1.703624	-0.815344	-0.000157
H113	H	1.785635	-0.841349	-0.000152
N114	N	1.256618	-0.190147	-0.000042
N115	N	1.155113	-0.157968	-0.000013
H116	H	1.071944	-0.174823	0.000009
H117	H	1.326612	0.153418	0.360811
H118	H	1.326622	0.153411	0.638998
