data_functionalizedCrystal
_audit_creation_method	'MofGen! by Chris Wilmer'
_symmetry_space_group_name_H-M	'P1'
_symmetry_Int_Tables_number	1
_symmetry_cell_setting	triclinic
loop_
_symmetry_equiv_pos_as_xyz
  x,y,z
_cell_length_a	27.732048
_cell_length_b	16.992694
_cell_length_c	16.053802
_cell_angle_alpha	92.750953
_cell_angle_beta	92.539157
_cell_angle_gamma	93.344561
loop_
_atom_site_label
_atom_site_type_symbol
_atom_site_fract_x
_atom_site_fract_y
_atom_site_fract_z
O1	O	0.100541	-1.042477	-0.069340
O2	O	0.433874	-0.709143	0.263994
O3	O	0.767208	-0.375810	0.597327
O4	O	0.099416	-0.814206	-0.069364
O5	O	0.432750	-0.480873	0.263969
O6	O	0.766083	-0.147540	0.597303
O7	O	0.029889	-0.935430	-0.069335
O8	O	0.363222	-0.602097	0.263998
O9	O	0.696556	-0.268764	0.597332
O10	O	0.170068	-0.921253	-0.069368
O11	O	0.503402	-0.587919	0.263965
O12	O	0.836735	-0.254586	0.597298
O13	O	0.033699	-0.928758	0.069522
O14	O	0.367032	-0.595425	0.402856
O15	O	0.700366	-0.262091	0.736189
O16	O	0.103227	-0.807534	0.069493
O17	O	0.436560	-0.474201	0.402827
O18	O	0.769893	-0.140867	0.736160
O19	O	0.104351	-1.035804	0.069518
O20	O	0.437684	-0.702471	0.402851
O21	O	0.771018	-0.369138	0.736184
Zn22	Zn	0.104394	-0.920610	0.091552
Zn23	Zn	0.437727	-0.587276	0.424885
Zn24	Zn	0.771060	-0.253943	0.758219
Zn25	Zn	0.099374	-0.929401	-0.091398
Zn26	Zn	0.432707	-0.596067	0.241935
Zn27	Zn	0.766040	-0.262734	0.575268
O28	O	0.173879	-0.914580	0.069489
O29	O	0.507212	-0.581247	0.402822
O30	O	0.840545	-0.247914	0.736156
C31	C	0.099876	-0.781675	0.000062
C32	C	0.433209	-0.448342	0.333395
C33	C	0.766542	-0.115008	0.666728
C34	C	0.095561	-0.694684	0.000053
C35	C	0.428895	-0.361350	0.333387
C36	C	0.762228	-0.028017	0.666720
C37	C	0.013774	-0.931796	0.000096
C38	C	0.347108	-0.598463	0.333429
C39	C	0.680441	-0.265130	0.666762
C40	C	-0.039919	-0.930900	0.000103
C41	C	0.293414	-0.597566	0.333436
C42	C	0.626748	-0.264233	0.666769
N43	N	0.107820	-0.914616	0.216411
N44	N	0.441153	-0.581283	0.549744
N45	N	0.774486	-0.247949	0.883078
C46	C	-0.375882	-0.996895	0.000067
C47	C	-0.042549	-0.663562	0.333400
C48	C	0.290785	-0.330229	0.666733
C49	C	-0.577686	-0.993571	0.000055
C50	C	-0.244352	-0.660237	0.333388
C51	C	0.088981	-0.326904	0.666721
O52	O	-0.606333	-1.053919	0.000025
O53	O	-0.273000	-0.720586	0.333358
O54	O	0.060334	-0.387252	0.666691
N55	N	-0.599917	-0.921689	0.000048
N56	N	-0.266584	-0.588356	0.333381
N57	N	0.066749	-0.255023	0.666715
C58	C	-0.571695	-0.850634	0.000038
C59	C	-0.238362	-0.517301	0.333372
C60	C	0.094972	-0.183968	0.666705
O61	O	-0.595235	-0.789419	0.000024
O62	O	-0.261902	-0.456086	0.333357
O63	O	0.071431	-0.122752	0.666690
C64	C	-0.369893	-0.853960	0.000045
C65	C	-0.036559	-0.520627	0.333378
C66	C	0.296774	-0.187294	0.666711
C67	C	-0.347663	-0.925846	0.000060
C68	C	-0.014330	-0.592513	0.333393
C69	C	0.319003	-0.259179	0.666727
C70	C	-0.353652	-1.068775	0.000081
C71	C	-0.020319	-0.735442	0.333415
C72	C	0.313014	-0.402109	0.666748
C73	C	-0.303204	-1.069606	0.000089
C74	C	0.030129	-0.736272	0.333422
C75	C	0.363462	-0.402939	0.666755
C76	C	-0.274986	-0.998556	0.000082
C77	C	0.058348	-0.665223	0.333415
C78	C	0.391681	-0.331889	0.666749
C79	C	-0.297215	-0.926676	0.000067
C80	C	0.036118	-0.593343	0.333401
C81	C	0.369451	-0.260009	0.666734
C82	C	-0.341671	-0.782906	0.000029
C83	C	-0.008338	-0.449573	0.333362
C84	C	0.324995	-0.116240	0.666696
C85	C	-0.291218	-0.783744	0.000029
C86	C	0.042116	-0.450411	0.333362
C87	C	0.375449	-0.117078	0.666695
C88	C	-0.268989	-0.855630	0.000044
C89	C	0.064345	-0.522297	0.333377
C90	C	0.397678	-0.188963	0.666711
C91	C	-0.218549	-0.856457	0.000068
C92	C	0.114785	-0.523123	0.333401
C93	C	0.448118	-0.189790	0.666735
N94	N	-0.196317	-0.928338	0.000075
N95	N	0.137017	-0.595005	0.333408
N96	N	0.470350	-0.261671	0.666742
C97	C	-0.224535	-0.999388	0.000082
C98	C	0.108798	-0.666054	0.333415
C99	C	0.442131	-0.332721	0.666749
C100	C	-0.677645	-0.848893	0.000037
C101	C	-0.344311	-0.515560	0.333370
C102	C	-0.010978	-0.182227	0.666704
C103	C	-0.728095	-0.848061	0.000037
C104	C	-0.394762	-0.514728	0.333370
C105	C	-0.061428	-0.181395	0.666704
C106	C	-0.734082	-0.990998	0.000052
C107	C	-0.400749	-0.657665	0.333385
C108	C	-0.067415	-0.324332	0.666718
C109	C	-0.683631	-0.991829	0.000058
C110	C	-0.350297	-0.658496	0.333391
C111	C	-0.016964	-0.325162	0.666724
C112	C	-0.655413	-0.920775	0.000044
C113	C	-0.322079	-0.587441	0.333377
C114	C	0.011254	-0.254108	0.666711
C115	C	-0.118591	-1.001126	0.000098
C116	C	0.214743	-0.667792	0.333432
C117	C	0.548076	-0.334459	0.666765
C118	C	-0.068138	-1.001949	0.000109
C119	C	0.265196	-0.668616	0.333443
C120	C	0.598529	-0.335283	0.666776
C121	C	-0.062155	-0.859013	0.000090
C122	C	0.271178	-0.525680	0.333424
C123	C	0.604511	-0.192347	0.666757
C124	C	-0.112603	-0.858189	0.000084
C125	C	0.220730	-0.524856	0.333417
C126	C	0.554063	-0.191522	0.666750
C127	C	-0.140820	-0.929252	0.000085
C128	C	0.192513	-0.595918	0.333418
C129	C	0.525846	-0.262585	0.666752
O130	O	-0.189872	-0.796141	0.000089
O131	O	0.143462	-0.462808	0.333422
O132	O	0.476795	-0.129475	0.666755
O133	O	-0.200987	-1.060595	0.000078
O134	O	0.132347	-0.727262	0.333411
O135	O	0.465680	-0.393928	0.666745
C136	C	-0.426330	-0.996065	0.000059
C137	C	-0.092997	-0.662732	0.333393
C138	C	0.240337	-0.329399	0.666726
C139	C	-0.448559	-0.924185	0.000045
C140	C	-0.115226	-0.590852	0.333378
C141	C	0.218107	-0.257519	0.666711
C142	C	-0.420341	-0.853136	0.000038
C143	C	-0.087008	-0.519803	0.333371
C144	C	0.246326	-0.186469	0.666705
C145	C	-0.499010	-0.923354	0.000045
C146	C	-0.165676	-0.590020	0.333378
C147	C	0.167657	-0.256687	0.666711
C148	C	-0.527228	-0.994403	0.000052
C149	C	-0.193895	-0.661070	0.333385
C150	C	0.139438	-0.327737	0.666718
C151	C	-0.504997	-1.066285	0.000059
C152	C	-0.171663	-0.732951	0.333392
C153	C	0.161670	-0.399618	0.666725
C154	C	-0.454549	-1.067115	0.000066
C155	C	-0.121215	-0.733782	0.333399
C156	C	0.212118	-0.400448	0.666733
C157	C	-0.442573	-0.781254	0.000031
C158	C	-0.109239	-0.447921	0.333364
C159	C	0.224094	-0.114588	0.666698
C160	C	-0.493021	-0.780430	0.000024
C161	C	-0.159688	-0.447097	0.333358
C162	C	0.173646	-0.113763	0.666691
C163	C	-0.521240	-0.851480	0.000031
C164	C	-0.187906	-0.518146	0.333365
C165	C	0.145427	-0.184813	0.666698
C166	C	0.189993	-0.918214	0.000056
C167	C	0.523327	-0.584881	0.333389
C168	C	0.856660	-0.251548	0.666723
C169	C	0.243686	-0.919111	0.000044
C170	C	0.577020	-0.585778	0.333377
C171	C	0.910353	-0.252444	0.666711
C172	C	0.103892	-1.068336	0.000090
C173	C	0.437225	-0.735002	0.333423
C174	C	0.770559	-0.401669	0.666757
C175	C	0.108206	-1.155327	0.000093
C176	C	0.441539	-0.821994	0.333427
C177	C	0.774873	-0.488661	0.666760
C178	C	0.137184	-0.643939	0.000044
C179	C	0.470518	-0.310606	0.333377
C180	C	0.803851	0.022727	0.666711
C181	C	0.133129	-0.562201	0.000056
C182	C	0.466462	-0.228868	0.333390
C183	C	0.799795	0.104465	0.666723
C184	C	0.087449	-0.531209	0.000072
C185	C	0.420782	-0.197876	0.333406
C186	C	0.754116	0.135457	0.666739
C187	C	0.045823	-0.581960	0.000084
C188	C	0.379156	-0.248627	0.333417
C189	C	0.712490	0.084707	0.666751
C190	C	0.049880	-0.663696	0.000077
C191	C	0.383213	-0.330363	0.333411
C192	C	0.716546	0.002970	0.666744
C193	C	0.070636	-0.287814	0.000098
C194	C	0.403970	0.045519	0.333432
C195	C	0.737303	0.378853	0.666765
C196	C	0.066583	-0.206072	0.000103
C197	C	0.399916	0.127262	0.333436
C198	C	0.733250	0.460595	0.666769
C199	C	0.153889	-0.186318	0.000077
C200	C	0.487222	0.147015	0.333410
C201	C	0.820556	0.480348	0.666743
C202	C	0.157941	-0.268057	0.000065
C203	C	0.491275	0.065276	0.333398
C204	C	0.824608	0.398610	0.666732
C205	C	0.116315	-0.318800	0.000081
C206	C	0.449649	0.014533	0.333415
C207	C	0.782982	0.347866	0.666748
N208	N	0.083302	-0.447660	0.000082
N209	N	0.416635	-0.114327	0.333416
N210	N	0.749969	0.219006	0.666749
N211	N	0.120463	-0.402348	0.000077
N212	N	0.453796	-0.069014	0.333410
N213	N	0.787130	0.264319	0.666744
N214	N	0.095944	-0.935401	-0.216257
N215	N	0.429278	-0.602068	0.117076
N216	N	0.762611	-0.268734	0.450409
C217	C	0.078248	-0.966215	0.260117
C218	C	0.411581	-0.632882	0.593451
C219	C	0.744914	-0.299549	0.926784
C220	C	0.080649	-0.962030	0.347523
C221	C	0.413982	-0.628696	0.680856
C222	C	0.747316	-0.295363	1.014190
C223	C	0.112625	-0.906248	0.391221
C224	C	0.445959	-0.572914	0.724554
C225	C	0.779292	-0.239581	1.057888
C226	C	0.142199	-0.854643	0.347509
C227	C	0.475532	-0.521309	0.680842
C228	C	0.808865	-0.187976	1.014175
C229	C	0.139794	-0.858825	0.260104
C230	C	0.473128	-0.525492	0.593438
C231	C	0.806461	-0.192159	0.926771
C232	C	0.123113	-0.887978	0.652626
C233	C	0.456447	-0.554645	0.985960
C234	C	0.789780	-0.221312	1.319293
C235	C	0.125516	-0.883801	0.740037
C236	C	0.458850	-0.550468	1.073370
C237	C	0.792183	-0.217135	1.406703
C238	C	0.063966	-0.991188	0.740045
C239	C	0.397299	-0.657855	1.073378
C240	C	0.730632	-0.324521	1.406712
C241	C	0.061567	-0.995369	0.652639
C242	C	0.394900	-0.662035	0.985972
C243	C	0.728233	-0.328702	1.319306
C244	C	0.091138	-0.943761	0.608934
C245	C	0.424471	-0.610428	0.942268
C246	C	0.757805	-0.277094	1.275601
N247	N	0.115082	-0.901970	0.480564
N248	N	0.448415	-0.568636	0.813897
N249	N	0.781748	-0.235303	1.147230
N250	N	0.088679	-0.948036	0.519593
N251	N	0.422012	-0.614702	0.852927
N252	N	0.755345	-0.281369	1.186260
H253	H	-0.050041	-1.060490	0.000124
H254	H	0.283292	-0.727156	0.333457
H255	H	0.616625	-0.393823	0.666791
H256	H	-0.511115	-0.721887	0.000019
H257	H	-0.177782	-0.388554	0.333353
H258	H	0.155552	-0.055221	0.666686
F259	F	0.185803	-0.676915	0.000022
F260	F	0.519136	-0.343582	0.333355
F261	F	0.852470	-0.010249	0.666688
H262	H	0.167023	-0.520888	0.000048
H263	H	0.500356	-0.187555	0.333381
H264	H	0.833689	0.145779	0.666715
F265	F	0.049175	-1.016947	0.394039
F266	F	0.382508	-0.683613	0.727372
F267	F	0.715841	-0.350280	1.060705
H268	H	0.015986	-0.705012	0.000084
H269	H	0.349319	-0.371679	0.333418
H270	H	0.682652	-0.038346	0.666751
F271	F	0.206559	-0.301035	0.000044
F272	F	0.539893	0.032299	0.333377
F273	F	0.873226	0.365632	0.666711
F274	F	0.044216	-1.025591	0.213619
F275	F	0.377550	-0.692257	0.546952
F276	F	0.710883	-0.358924	0.880285
F277	F	0.176228	-0.795271	0.394016
F278	F	0.509562	-0.461937	0.727349
F279	F	0.842895	-0.128604	1.060683
H280	H	0.035529	-1.040791	0.617062
H281	H	0.368862	-0.707457	0.950395
H282	H	0.702196	-0.374124	1.283729
F283	F	-0.365318	-0.706395	0.000009
F284	F	-0.031985	-0.373062	0.333343
F285	F	0.301348	-0.039728	0.666676
H286	H	0.008630	-0.556720	0.000109
H287	H	0.341963	-0.223386	0.333442
H288	H	0.675297	0.109947	0.666775
F289	F	0.171268	-0.803903	0.213590
F290	F	0.504601	-0.470570	0.546924
F291	F	0.837935	-0.137237	0.880257
H292	H	-0.141559	-1.058992	0.000096
H293	H	0.191774	-0.725659	0.333430
H294	H	0.525107	-0.392325	0.666763
F295	F	-0.279553	-1.146117	0.000087
F296	F	0.053780	-0.812784	0.333420
F297	F	0.387113	-0.479451	0.666754
F298	F	-0.751747	-0.771550	0.000036
F299	F	-0.418414	-0.438217	0.333369
F300	F	-0.085080	-0.104884	0.666702
H301	H	0.029383	-0.180842	0.000114
H302	H	0.362717	0.152491	0.333448
H303	H	0.696050	0.485825	0.666781
F304	F	-0.764123	-1.066615	0.000057
F305	F	-0.430790	-0.733282	0.333391
F306	F	-0.097456	-0.399948	0.666724
H307	H	-0.419602	-0.723396	0.000024
H308	H	-0.086268	-0.390063	0.333357
H309	H	0.247065	-0.056729	0.666690
F310	F	0.032495	-1.046107	0.786564
F311	F	0.365828	-0.712774	1.119897
F312	F	0.699161	-0.379441	1.453230
H313	H	0.187778	-0.144995	0.000065
H314	H	0.521112	0.188339	0.333398
H315	H	0.854445	0.521672	0.666732
H316	H	0.036741	-0.329120	0.000112
H317	H	0.370075	0.004213	0.333446
H318	H	0.703408	0.337547	0.666779
F319	F	0.159553	-0.824428	0.786538
F320	F	0.492886	-0.491094	1.119871
F321	F	0.826220	-0.157761	1.453204
H322	H	0.147193	-0.845959	0.617049
H323	H	0.480526	-0.512625	0.950382
H324	H	0.813859	-0.179292	1.283715
H325	H	-0.665535	-1.050364	0.000070
H326	H	-0.332202	-0.717031	0.333403
H327	H	0.001132	-0.383698	0.666736
F328	F	-0.383678	-1.144403	0.000088
F329	F	-0.050344	-0.811070	0.333421
F330	F	0.282989	-0.477736	0.666755
H331	H	-0.654674	-0.791029	0.000026
H332	H	-0.321340	-0.457696	0.333359
H333	H	0.011993	-0.124362	0.666693
H334	H	-0.268245	-0.725882	0.000016
H335	H	0.065088	-0.392549	0.333349
H336	H	0.398422	-0.059215	0.666683
H337	H	-0.039170	-0.801167	0.000088
H338	H	0.294163	-0.467833	0.333421
H339	H	0.627496	-0.134500	0.666754
F340	F	-0.136262	-0.781680	0.000082
F341	F	0.197071	-0.448347	0.333416
F342	F	0.530405	-0.115013	0.666749
H343	H	-0.527981	-1.124136	0.000068
H344	H	-0.194648	-0.790802	0.333401
H345	H	0.138686	-0.457469	0.666735
F346	F	-0.430897	-1.143626	0.000078
F347	F	-0.097564	-0.810293	0.333411
F348	F	0.235769	-0.476960	0.666744
