data_functionalizedCrystal
_audit_creation_method	'MofGen! by Chris Wilmer'
_symmetry_space_group_name_H-M	'P1'
_symmetry_Int_Tables_number	1
_symmetry_cell_setting	triclinic
loop_
_symmetry_equiv_pos_as_xyz
  x,y,z
_cell_length_a	14.519709
_cell_length_b	13.339070
_cell_length_c	12.376457
_cell_angle_alpha	104.398083
_cell_angle_beta	78.691279
_cell_angle_gamma	99.654720
loop_
_atom_site_label
_atom_site_type_symbol
_atom_site_fract_x
_atom_site_fract_y
_atom_site_fract_z
O1	O	1.270325	0.113336	-0.093849
O2	O	1.005827	0.128953	-0.093882
O3	O	1.107720	-0.026174	-0.093866
O4	O	1.168433	0.268463	-0.093865
O5	O	1.082246	0.012555	0.094142
O6	O	0.980353	0.167681	0.094126
O7	O	1.244851	0.152065	0.094159
Zn8	Zn	1.108558	0.166022	0.123993
Zn9	Zn	1.142121	0.114995	-0.123716
O10	O	1.142959	0.307192	0.094143
C11	C	1.084728	-0.044518	0.000135
C12	C	1.054160	-0.156877	0.000127
C13	C	0.958546	0.147588	0.000117
C14	C	0.855611	0.145403	0.000104
C15	C	1.291847	-0.521234	0.000157
C16	C	1.320569	-0.415666	0.000172
C17	C	1.253969	-0.350964	0.000160
C18	C	1.158642	-0.391839	0.000135
C19	C	1.129915	-0.497415	0.000129
C20	C	1.092038	-0.327146	0.000132
C21	C	0.996711	-0.368021	0.000107
C22	C	0.967989	-0.473587	0.000101
C23	C	1.034589	-0.538289	0.000112
C24	C	1.120764	-0.221569	0.000137
C25	C	0.958833	-0.197751	0.000109
C26	C	0.930111	-0.303319	0.000095
C27	C	0.478665	0.137381	0.000155
C28	C	0.583543	0.139609	0.000141
C29	C	0.667135	0.141392	0.000129
C30	C	0.772019	0.143620	0.000116
C31	C	1.292133	0.133429	0.000157
C32	C	1.395069	0.135612	0.000163
C33	C	1.165951	0.325535	0.000139
C34	C	1.196520	0.437892	0.000140
N35	N	1.085658	0.200846	0.293047
N36	N	1.165026	0.080163	-0.292771
C37	C	1.218177	-0.000694	0.648054
C38	C	1.234200	-0.025068	0.529716
C39	C	1.197065	0.031408	0.470543
C40	C	1.143907	0.112263	0.529719
C41	C	1.127889	0.136644	0.648068
C42	C	1.106777	0.168747	0.470558
C43	C	1.053619	0.249601	0.529734
C44	C	1.037603	0.273977	0.648071
C45	C	1.074737	0.217501	0.707244
C46	C	1.122795	0.144365	0.352209
C47	C	1.032506	0.281703	0.352223
C48	C	1.016484	0.306077	0.470560
H49	H	1.277361	-0.265007	0.000172
O50	O	1.254180	-0.055713	0.705414
C51	C	1.258266	-0.224090	0.741704
C52	C	1.217440	-0.161905	0.676648
H53	H	1.228563	-0.309955	0.718488
H54	H	1.338700	-0.215610	0.718417
H55	H	1.237708	-0.192718	0.836442
H56	H	1.237927	-0.193236	0.581895
H57	H	1.137014	-0.170385	0.700029
H58	H	1.198380	-0.188299	0.000158
O59	O	0.875358	-0.513135	0.000037
C60	C	0.717766	-0.478351	0.000083
C61	C	0.822643	-0.433436	0.000127
H62	H	0.675113	-0.413932	0.000181
H63	H	0.710881	-0.543355	-0.078618
H64	H	0.689653	-0.511013	0.078744
H65	H	0.850823	-0.400718	-0.078480
H66	H	0.829467	-0.368480	0.078881
H67	H	0.904601	-0.145069	0.000106
H68	H	1.398184	-0.382393	0.000194
O69	O	1.285475	-0.103925	0.472295
C70	C	1.287134	-0.270018	0.339327
C71	C	1.229117	-0.180601	0.404146
H72	H	1.241587	-0.332044	0.284230
H73	H	1.352026	-0.238162	0.283659
H74	H	1.310729	-0.306078	0.402177
H75	H	1.205456	-0.144505	0.341377
H76	H	1.164272	-0.212515	0.459831
H77	H	1.166077	0.078534	0.304038
O78	O	1.212792	0.007723	0.355591
C79	C	1.328656	-0.006411	0.185753
C80	C	1.310982	0.020429	0.315940
H81	H	1.408039	0.003873	0.153656
H82	H	1.298064	-0.090717	0.153570
H83	H	1.292936	0.047817	0.153653
H84	H	1.346701	-0.033730	0.348137
H85	H	1.341552	0.104758	0.348046
H86	H	1.061689	0.237343	0.803604
O87	O	0.985919	0.352527	0.705381
C88	C	0.898110	0.486220	0.692902
C89	C	0.956604	0.397273	0.627861
H90	H	0.874409	0.522437	0.630256
H91	H	0.833288	0.453873	0.748285
H92	H	0.943391	0.548252	0.748330
H93	H	0.911402	0.335210	0.572372
H94	H	1.021431	0.429698	0.572550
H95	H	0.852493	-0.336615	0.000075
O96	O	0.996548	0.336721	0.294808
C97	C	0.992355	0.505125	0.258650
C98	C	1.033157	0.442943	0.323730
H99	H	1.021922	0.591020	0.282026
H100	H	1.012953	0.473896	0.163889
H101	H	0.911920	0.496494	0.281913
H102	H	1.113596	0.451547	0.300561
H103	H	1.012485	0.474186	0.418474
O104	O	1.356639	-0.584012	0.000020
C105	C	1.499412	-0.656807	-0.097390
C106	C	1.426110	-0.585660	-0.097363
H107	H	1.555586	-0.658179	-0.176127
H108	H	1.534396	-0.625721	-0.018754
H109	H	1.462473	-0.739259	-0.097339
H110	H	1.462977	-0.503191	-0.097453
H111	H	1.391129	-0.616832	-0.175992
O112	O	0.964705	0.384507	0.528001
C113	C	0.814536	0.450900	0.564189
C114	C	0.873063	0.361998	0.499087
H115	H	0.740438	0.432744	0.540818
H116	H	0.809388	0.458620	0.658946
H117	H	0.850486	0.527200	0.540940
H118	H	0.837160	0.285650	0.522241
H119	H	0.878215	0.354371	0.404346
H120	H	1.011208	-0.624253	0.000097
