data_functionalizedCrystal
_audit_creation_method	'MofGen! by Chris Wilmer'
_symmetry_space_group_name_H-M	'P1'
_symmetry_Int_Tables_number	1
_symmetry_cell_setting	triclinic
loop_
_symmetry_equiv_pos_as_xyz
  x,y,z
_cell_length_a	12.759401
_cell_length_b	25.639233
_cell_length_c	12.759400
_cell_angle_alpha	89.986745
_cell_angle_beta	90.013728
_cell_angle_gamma	89.989721
loop_
_atom_site_label
_atom_site_type_symbol
_atom_site_fract_x
_atom_site_fract_y
_atom_site_fract_z
Zn1	Zn	1.606170	-0.295596	-0.418421
Zn2	Zn	1.606089	-0.208169	-0.594084
Zn3	Zn	1.430497	-0.208179	-0.418416
Zn4	Zn	1.430460	-0.295577	-0.594056
O5	O	1.518304	-0.251880	-0.506244
O6	O	1.753180	-0.284003	-0.441737
O7	O	1.582778	-0.135005	-0.570791
O8	O	1.453849	-0.219787	-0.271396
O9	O	1.753121	-0.219771	-0.570795
O10	O	1.582915	-0.284012	-0.271399
O11	O	1.453771	-0.135012	-0.441729
O12	O	1.283471	-0.219768	-0.441702
O13	O	1.453787	-0.368745	-0.570747
O14	O	1.283444	-0.283980	-0.570743
O15	O	1.582879	-0.368759	-0.441709
O16	O	1.582743	-0.219752	-0.741101
O17	O	1.453709	-0.283970	-0.741080
C18	C	1.245337	-0.251873	-0.506219
C19	C	1.128560	-0.251882	-0.506234
C20	C	1.073722	-0.285380	-0.439160
C21	C	0.963998	-0.285383	-0.439180
C22	C	0.963960	-0.218390	-0.573357
C23	C	1.073682	-0.218384	-0.573331
C24	C	1.128600	-0.318878	-0.372063
C25	C	1.073761	-0.352379	-0.304985
C26	C	0.964037	-0.352382	-0.305005
C27	C	0.909152	-0.318885	-0.372103
C28	C	1.518338	-0.388253	-0.506226
C29	C	1.518352	-0.446367	-0.506218
C30	C	1.585656	-0.806744	-0.438828
C31	C	1.585669	-0.861348	-0.438799
O32	O	1.642808	-0.889596	-0.381626
N33	N	1.518468	-0.888650	-0.505972
C34	C	1.451242	-0.861345	-0.573170
O35	O	1.394083	-0.889582	-0.630302
C36	C	1.451225	-0.806742	-0.573193
C37	C	1.518438	-0.779442	-0.506024
C38	C	1.652863	-0.779444	-0.371664
C39	C	1.652851	-0.724844	-0.371694
C40	C	1.585632	-0.697543	-0.438890
C41	C	1.518426	-0.724842	-0.506054
C42	C	1.383994	-0.779438	-0.640385
C43	C	1.383982	-0.724831	-0.640402
C44	C	1.451195	-0.697531	-0.573232
C45	C	1.451195	-0.642940	-0.573280
N46	N	1.518396	-0.615638	-0.506108
C47	C	1.585615	-0.642939	-0.438913
C48	C	1.451283	-0.976016	-0.573115
C49	C	1.451305	-1.030618	-0.573098
C50	C	1.585731	-1.030617	-0.438726
C51	C	1.585713	-0.976014	-0.438749
C52	C	1.518484	-0.948714	-0.505943
C53	C	1.585586	-0.528274	-0.438983
C54	C	1.585571	-0.473669	-0.439023
C55	C	1.451142	-0.473674	-0.573391
C56	C	1.451160	-0.528275	-0.573355
C57	C	1.518385	-0.555573	-0.506143
O58	O	1.394082	-0.614658	-0.630421
O59	O	1.642755	-0.614696	-0.381780
C60	C	1.792337	-0.251888	-0.506270
C61	C	1.909114	-0.251891	-0.506281
C62	C	1.518242	-0.251869	-0.779212
C63	C	1.518311	-0.251882	-0.895988
C64	C	1.518331	-0.116038	-0.506187
C65	C	1.518520	-0.057924	-0.505899
C66	C	1.585574	-0.218481	-0.950826
C67	C	1.585638	-0.218497	-1.060550
C68	C	1.451169	-0.285317	-1.060589
C69	C	1.451110	-0.285304	-0.950867
C70	C	1.652775	-0.185059	-0.895948
C71	C	1.720042	-0.151655	-0.950786
C72	C	1.720106	-0.151671	-1.060510
C73	C	1.652904	-0.185092	-1.115396
C74	C	1.518395	-0.251903	-0.232211
C75	C	1.518434	-0.251912	-0.115434
H76	H	0.919263	-0.191119	-0.627988
N77	N	1.315328	-0.807322	-0.708976
N78	N	1.315327	-0.856075	-0.708953
H79	H	1.266825	-0.875768	-0.757396
N80	N	1.382480	-0.556156	-0.641953
N81	N	1.322453	-0.531770	-0.701928
H82	H	1.273928	-0.551457	-0.750360
N83	N	1.129689	-0.184160	-0.641842
N84	N	1.080681	-0.154255	-0.701746
H85	H	1.120236	-0.130081	-0.750130
N86	N	1.240679	-0.318870	-0.372060
N87	N	1.289651	-0.329720	-0.454043
H88	H	1.368807	-0.329714	-0.454046
H89	H	0.819807	-0.318879	-0.372092
H90	H	1.396584	-1.052841	-0.627806
N91	N	1.315293	-0.696945	-0.709027
N92	N	1.218352	-0.703042	-0.702036
H93	H	1.169841	-0.683348	-0.750502
H94	H	0.919391	-0.379656	-0.250379
H95	H	1.640308	-0.451444	-0.384324
N96	N	1.788699	-0.117520	-0.894742
N97	N	1.885647	-0.121029	-0.906915
H98	H	1.934140	-0.096921	-0.867337
N99	N	1.652953	-0.185103	-1.227477
N100	N	1.571039	-0.174145	-1.276522
H101	H	1.571068	-0.174151	-1.355679
N102	N	1.654254	-0.556145	-0.370316
N103	N	1.714249	-0.531756	-0.310355
H104	H	1.762749	-0.551439	-0.261861
N105	N	1.652695	-0.185056	-0.783869
N106	N	1.570725	-0.174098	-0.734967
H107	H	1.570667	-0.174099	-0.655810
H108	H	1.118456	-0.379648	-0.250349
N109	N	1.721516	-0.696971	-0.303076
N110	N	1.781521	-0.721362	-0.243090
H111	H	1.830019	-0.701680	-0.194623
N112	N	1.382601	-0.948140	-0.641767
N113	N	1.322609	-0.972528	-0.701732
H114	H	1.274101	-0.952843	-0.750217
H115	H	1.774886	-0.124475	-1.105156
H116	H	1.707601	-0.801667	-0.316939
N117	N	1.382504	-0.319441	-1.116651
N118	N	1.285558	-0.315927	-1.104476
H119	H	1.237058	-0.340025	-1.144070
N120	N	1.654376	-0.948139	-0.370132
N121	N	1.714388	-0.972528	-0.310148
H122	H	1.762884	-0.952844	-0.261682
N123	N	1.654389	-1.058519	-0.370092
N124	N	1.654383	-1.107271	-0.370085
H125	H	1.702870	-1.126979	-0.321617
N126	N	1.382497	-0.445773	-0.642028
N127	N	1.382504	-0.397020	-0.642036
H128	H	1.334021	-0.377313	-0.690508
H129	H	1.396340	-0.312503	-0.906217
