data_functionalizedCrystal
_audit_creation_method	'MofGen! by Chris Wilmer'
_symmetry_space_group_name_H-M	'P1'
_symmetry_Int_Tables_number	1
_symmetry_cell_setting	triclinic
loop_
_symmetry_equiv_pos_as_xyz
  x,y,z
_cell_length_a	18.215407
_cell_length_b	18.101395
_cell_length_c	18.215407
_cell_angle_alpha	90.010695
_cell_angle_beta	90.010236
_cell_angle_gamma	90.031552
loop_
_atom_site_label
_atom_site_type_symbol
_atom_site_fract_x
_atom_site_fract_y
_atom_site_fract_z
Zn1	Zn	1.124970	-0.294943	0.416123
Zn2	Zn	1.458304	0.038390	0.749457
Zn3	Zn	1.791637	0.371723	1.082790
Zn4	Zn	1.124886	-0.418756	0.293060
Zn5	Zn	1.458219	-0.085422	0.626394
Zn6	Zn	1.791553	0.247911	0.959727
Zn7	Zn	1.001924	-0.294934	0.293071
Zn8	Zn	1.335257	0.038400	0.626404
Zn9	Zn	1.668590	0.371733	0.959737
Zn10	Zn	1.001855	-0.418749	0.416085
Zn11	Zn	1.335189	-0.085415	0.749419
Zn12	Zn	1.668522	0.247918	1.082752
O13	O	1.063409	-0.356845	0.354585
O14	O	1.396742	-0.023512	0.687918
O15	O	1.730076	0.309821	1.021252
O16	O	1.227943	-0.311374	0.399810
O17	O	1.561277	0.021959	0.733144
O18	O	1.894610	0.355292	1.066477
O19	O	1.108568	-0.402329	0.190078
O20	O	1.441901	-0.068996	0.523411
O21	O	1.775235	0.264337	0.856744
O22	O	1.018310	-0.191302	0.309414
O23	O	1.351643	0.142031	0.642748
O24	O	1.684976	0.475365	0.976081
O25	O	1.227882	-0.402339	0.309397
O26	O	1.561215	-0.069006	0.642730
O27	O	1.894548	0.264328	0.976063
O28	O	1.108712	-0.191309	0.399821
O29	O	1.442045	0.142024	0.733154
O30	O	1.775378	0.475358	1.066487
O31	O	1.018228	-0.311358	0.190085
O32	O	1.351561	0.021976	0.523419
O33	O	1.684895	0.355309	0.856752
O34	O	0.898930	-0.311351	0.309377
O35	O	1.232264	0.021983	0.642711
O36	O	1.565597	0.355316	0.976044
O37	O	1.018194	-0.402327	0.519075
O38	O	1.351527	-0.068993	0.852408
O39	O	1.684860	0.264340	1.185741
O40	O	0.898880	-0.402317	0.399756
O41	O	1.232214	-0.068984	0.733089
O42	O	1.565547	0.264350	1.066422
O43	O	1.108646	-0.311367	0.519103
O44	O	1.441979	0.021966	0.852436
O45	O	1.775312	0.355299	1.185769
O46	O	1.108502	-0.522388	0.309360
O47	O	1.441835	-0.189054	0.642693
O48	O	1.775169	0.144279	0.976026
O49	O	1.018112	-0.522382	0.399745
O50	O	1.351445	-0.189049	0.733079
O51	O	1.684779	0.144284	1.066412
C52	C	0.872203	-0.356833	0.354564
C53	C	1.205536	-0.023499	0.687897
C54	C	1.538869	0.309834	1.021231
C55	C	0.790404	-0.356845	0.354572
C56	C	1.123737	-0.023512	0.687906
C57	C	1.457070	0.309822	1.021239
C58	C	0.602203	-0.404286	0.401573
C59	C	0.935536	-0.070952	0.734906
C60	C	1.268870	0.262381	1.068240
C61	C	0.525344	-0.404288	0.401582
C62	C	0.858678	-0.070955	0.734916
C63	C	1.192011	0.262379	1.068249
C64	C	0.525367	-0.309418	0.307613
C65	C	0.858700	0.023915	0.640946
C66	C	1.192033	0.357248	0.974280
C67	C	0.602224	-0.309413	0.307608
C68	C	0.935557	0.023920	0.640941
C69	C	1.268891	0.357254	0.974275
C70	C	0.640640	-0.356851	0.354587
C71	C	0.973974	-0.023517	0.687920
C72	C	1.307307	0.309816	1.021254
C73	C	0.486924	-0.356859	0.354601
C74	C	0.820257	-0.023525	0.687934
C75	C	1.153591	0.309808	1.021268
C76	C	0.403590	-0.356861	0.354611
C77	C	0.736924	-0.023527	0.687944
C78	C	1.070257	0.309806	1.021277
C79	C	0.723979	-0.356848	0.354579
C80	C	1.057313	-0.023514	0.687912
C81	C	1.390646	0.309819	1.021245
C82	C	1.063310	-0.549256	0.354563
C83	C	1.396644	-0.215923	0.687897
C84	C	1.729977	0.117411	1.021230
C85	C	1.063336	-0.631570	0.354579
C86	C	1.396669	-0.298237	0.687912
C87	C	1.730002	0.035097	1.021245
C88	C	1.063497	-0.930661	0.354618
C89	C	1.396830	-0.597328	0.687952
C90	C	1.730164	-0.263994	1.021285
C91	C	1.006758	-0.899363	0.411628
C92	C	1.340091	-0.566030	0.744961
C93	C	1.673425	-0.232697	1.078294
C94	C	1.006488	-0.813745	0.411449
C95	C	1.339822	-0.480412	0.744783
C96	C	1.673155	-0.147079	1.078116
C97	C	1.063417	-0.782278	0.354599
C98	C	1.396750	-0.448945	0.687933
C99	C	1.730084	-0.115612	1.021266
C100	C	1.042432	-0.813407	0.277038
C101	C	1.375765	-0.480074	0.610372
C102	C	1.709099	-0.146741	0.943705
C103	C	1.042066	-0.899053	0.277379
C104	C	1.375400	-0.565719	0.610713
C105	C	1.708733	-0.232386	0.944046
C106	C	1.141345	-0.899010	0.374487
C107	C	1.474679	-0.565676	0.707820
C108	C	1.808012	-0.232343	1.041154
C109	C	1.140887	-0.813359	0.376188
C110	C	1.474221	-0.480026	0.709521
C111	C	1.807554	-0.146693	1.042855
C112	C	1.063373	-0.698419	0.354584
C113	C	1.396706	-0.365086	0.687917
C114	C	1.730040	-0.031752	1.021250
C115	C	1.063539	-1.014520	0.354629
C116	C	1.396873	-0.681187	0.687962
C117	C	1.730206	-0.347854	1.021295
C118	C	1.255362	-0.356859	0.354607
C119	C	1.588695	-0.023525	0.687940
C120	C	1.922028	0.309808	1.021273
C121	C	1.337161	-0.356864	0.354616
C122	C	1.670494	-0.023531	0.687949
C123	C	2.003827	0.309802	1.021282
C124	C	1.063422	-0.356847	0.546538
C125	C	1.396755	-0.023514	0.879871
C126	C	1.730088	0.309819	1.213205
C127	C	1.063427	-0.356848	0.628337
C128	C	1.396760	-0.023515	0.961670
C129	C	1.730094	0.309818	1.295003
C130	C	1.063528	-0.163683	0.354623
C131	C	1.396861	0.169650	0.687956
C132	C	1.730194	0.502983	1.021289
C133	C	1.063578	-0.081369	0.354639
C134	C	1.396912	0.251964	0.687972
C135	C	1.730245	0.585297	1.021306
C136	C	1.110511	-0.309493	0.816546
C137	C	1.443844	0.023840	1.149880
C138	C	1.777177	0.357173	1.483213
C139	C	1.110507	-0.309493	0.893405
C140	C	1.443840	0.023840	1.226739
C141	C	1.777173	0.357174	1.560072
C142	C	1.016319	-0.404214	0.893365
C143	C	1.349653	-0.070880	1.226698
C144	C	1.682986	0.262453	1.560031
C145	C	1.016320	-0.404210	0.816507
C146	C	1.349654	-0.070876	1.149841
C147	C	1.682987	0.262457	1.483174
C148	C	1.063420	-0.356851	0.778100
C149	C	1.396753	-0.023517	1.111434
C150	C	1.730087	0.309816	1.444767
C151	C	1.063415	-0.356854	0.931816
C152	C	1.396748	-0.023521	1.265150
C153	C	1.730082	0.309812	1.598483
C154	C	1.063410	-0.356854	1.015150
C155	C	1.396744	-0.023521	1.348483
C156	C	1.730077	0.309812	1.681817
C157	C	1.063424	-0.356850	0.694761
C158	C	1.396757	-0.023516	1.028095
C159	C	1.730091	0.309817	1.361428
C160	C	1.063397	-0.356859	1.163379
C161	C	1.396730	-0.023526	1.496712
C162	C	1.730063	0.309807	1.830045
C163	C	1.063408	-0.356857	1.081580
C164	C	1.396742	-0.023523	1.414913
C165	C	1.730075	0.309810	1.748246
H166	H	0.633521	-0.270781	0.269346
H167	H	0.966854	0.062552	0.602679
H168	H	1.300187	0.395886	0.936013
C169	C	0.483107	-0.257249	0.255932
C170	C	0.816440	0.076084	0.589266
C171	C	1.149773	0.409417	0.922599
H172	H	0.431828	-0.264052	0.262658
H173	H	0.765161	0.069282	0.595991
H174	H	1.098495	0.402615	0.929324
H175	H	0.495726	-0.207506	0.266782
H176	H	0.829059	0.125828	0.600115
H177	H	1.162393	0.459161	0.933448
H178	H	0.495688	-0.268019	0.206465
H179	H	0.829022	0.065314	0.539798
H180	H	1.162355	0.398647	0.873132
C181	C	1.162311	-0.257397	0.774297
C182	C	1.495645	0.075936	1.107631
C183	C	1.828978	0.409269	1.440964
H184	H	1.155574	-0.264181	0.723017
H185	H	1.488907	0.069153	1.056350
H186	H	1.822241	0.402486	1.389684
H187	H	1.151569	-0.207640	0.786903
H188	H	1.484903	0.125693	1.120236
H189	H	1.818236	0.459027	1.453570
H190	H	1.211754	-0.268242	0.786901
H191	H	1.545088	0.065091	1.120235
H192	H	1.878421	0.398425	1.453568
C193	C	0.644462	-0.456462	0.453247
C194	C	0.977795	-0.123129	0.786580
C195	C	1.311129	0.210204	1.119914
H196	H	0.695741	-0.449673	0.446510
H197	H	1.029074	-0.116340	0.779844
H198	H	1.362408	0.216994	1.113177
H199	H	0.631885	-0.445704	0.502714
H200	H	0.965219	-0.112371	0.836047
H201	H	1.298552	0.220962	1.169381
H202	H	0.631836	-0.506206	0.442385
H203	H	0.965170	-0.172873	0.775718
H204	H	1.298503	0.160461	1.109052
C205	C	0.964523	-0.456310	0.774214
C206	C	1.297856	-0.122977	1.107547
C207	C	1.631190	0.210357	1.440880
H208	H	0.936480	-0.484524	0.808094
H209	H	1.269814	-0.151191	1.141427
H210	H	1.603147	0.182142	1.474761
H211	H	0.932475	-0.427981	0.744230
H212	H	1.265808	-0.094648	1.077563
H213	H	1.599141	0.238686	1.410896
H214	H	0.992665	-0.488577	0.744232
H215	H	1.325999	-0.155244	1.077565
H216	H	1.659332	0.178090	1.410899
C217	C	1.162313	-0.257410	0.935696
C218	C	1.495646	0.075923	1.269030
C219	C	1.828980	0.409257	1.602363
H220	H	1.155565	-0.264189	0.986971
H221	H	1.488899	0.069144	1.320304
H222	H	1.822232	0.402477	1.653638
H223	H	1.211751	-0.268256	0.923106
H224	H	1.545085	0.065077	1.256439
H225	H	1.878418	0.398411	1.589772
H226	H	1.151574	-0.207646	0.923111
H227	H	1.484908	0.125687	1.256444
H228	H	1.818241	0.459021	1.589778
C229	C	1.201021	-0.784423	0.324187
C230	C	1.534354	-0.451090	0.657521
C231	C	1.867687	-0.117756	0.990854
H232	H	1.247199	-0.804075	0.338521
H233	H	1.580533	-0.470742	0.671855
H234	H	1.913866	-0.137408	1.005188
H235	H	1.190276	-0.799313	0.275342
H236	H	1.523609	-0.465979	0.608675
H237	H	1.856943	-0.132646	0.942009
H238	H	1.202691	-0.732023	0.326625
H239	H	1.536025	-0.398690	0.659958
H240	H	1.869358	-0.065357	0.993292
H241	H	0.494052	-0.442913	0.439844
H242	H	0.827385	-0.109580	0.773178
H243	H	1.160719	0.223753	1.106511
H244	H	1.019616	-0.792698	0.468960
H245	H	1.352949	-0.459364	0.802293
H246	H	1.686283	-0.126031	1.135627
H247	H	1.183618	-0.919247	0.332965
H248	H	1.516951	-0.585914	0.666298
H249	H	1.850285	-0.252581	0.999632
H250	H	1.019755	-0.919928	0.469325
H251	H	1.353089	-0.586594	0.802658
H252	H	1.686422	-0.253261	1.135991
C253	C	0.929278	-0.928510	0.394072
C254	C	1.262611	-0.595177	0.727405
C255	C	1.595944	-0.261843	1.060738
H256	H	0.931357	-0.959668	0.352148
H257	H	1.264690	-0.626334	0.685482
H258	H	1.598023	-0.293001	1.018815
H259	H	0.911190	-0.955766	0.434799
H260	H	1.244523	-0.622432	0.768132
H261	H	1.577857	-0.289099	1.101466
H262	H	0.897487	-0.888072	0.384421
H263	H	1.230821	-0.554739	0.717754
H264	H	1.564154	-0.221406	1.051087
C265	C	0.928540	-0.786141	0.393670
C266	C	1.261873	-0.452808	0.727003
C267	C	1.595207	-0.119475	1.060336
H268	H	0.928107	-0.733660	0.393507
H269	H	1.261440	-0.400326	0.726841
H270	H	1.594773	-0.066993	1.060174
H271	H	0.914154	-0.803922	0.346752
H272	H	1.247487	-0.470589	0.680085
H273	H	1.580820	-0.137255	1.013419
H274	H	0.895268	-0.803805	0.429793
H275	H	1.228601	-0.470471	0.763126
H276	H	1.561935	-0.137138	1.096459
C277	C	0.965191	-0.926127	0.254650
C278	C	1.298525	-0.592794	0.587984
C279	C	1.631858	-0.259460	0.921317
H280	H	0.934478	-0.884783	0.245299
H281	H	1.267811	-0.551450	0.578632
H282	H	1.601144	-0.218116	0.911966
H283	H	0.968965	-0.955367	0.211507
H284	H	1.302298	-0.622034	0.544840
H285	H	1.635632	-0.288700	0.878174
H286	H	0.944697	-0.954923	0.293135
H287	H	1.278030	-0.621590	0.626468
H288	H	1.611363	-0.288256	0.959802
C289	C	1.095458	-0.927027	0.218032
C290	C	1.428792	-0.593693	0.551366
C291	C	1.762125	-0.260360	0.884699
H292	H	1.117272	-0.886046	0.193818
H293	H	1.450605	-0.552713	0.527151
H294	H	1.783938	-0.219379	0.860484
H295	H	1.132672	-0.956144	0.240312
H296	H	1.466005	-0.622811	0.573645
H297	H	1.799339	-0.289477	0.906979
H298	H	1.069358	-0.956137	0.183341
H299	H	1.402692	-0.622804	0.516675
H300	H	1.736025	-0.289470	0.850008
H301	H	1.160480	-0.920574	0.430081
H302	H	1.493813	-0.587240	0.763414
H303	H	1.827147	-0.253907	1.096747
H304	H	0.986129	-0.792018	0.259906
H305	H	1.319462	-0.458685	0.593239
H306	H	1.652795	-0.125351	0.926572
C307	C	1.162276	-0.785864	0.453292
C308	C	1.495609	-0.452531	0.786625
C309	C	1.828942	-0.119198	1.119959
H310	H	1.124159	-0.755566	0.472252
H311	H	1.457492	-0.422233	0.805585
H312	H	1.790826	-0.088899	1.138919
H313	H	1.169448	-0.827005	0.484851
H314	H	1.502782	-0.493672	0.818184
H315	H	1.836115	-0.160339	1.151518
H316	H	1.206412	-0.758040	0.450336
H317	H	1.539745	-0.424707	0.783669
H318	H	1.873079	-0.091373	1.117003
H319	H	1.082459	-0.793024	0.233404
H320	H	1.415792	-0.459691	0.566737
H321	H	1.749125	-0.126357	0.900070
H322	H	0.977974	-0.442773	0.924645
H323	H	1.311307	-0.109440	1.257979
H324	H	1.644641	0.223893	1.591312
