data_functionalizedCrystal
_audit_creation_method	'MofGen! by Chris Wilmer'
_symmetry_space_group_name_H-M	'P1'
_symmetry_Int_Tables_number	1
_symmetry_cell_setting	triclinic
loop_
_symmetry_equiv_pos_as_xyz
  x,y,z
_cell_length_a	14.971486
_cell_length_b	17.038272
_cell_length_c	14.048226
_cell_angle_alpha	89.993466
_cell_angle_beta	89.998499
_cell_angle_gamma	87.362843
loop_
_atom_site_label
_atom_site_type_symbol
_atom_site_fract_x
_atom_site_fract_y
_atom_site_fract_z
O1	O	1.194576	0.101897	-0.079052
O2	O	1.694576	0.601897	0.420948
O3	O	0.935090	0.114100	-0.079077
O4	O	1.435090	0.614100	0.420923
O5	O	1.063291	-0.005819	-0.079057
O6	O	1.563291	0.494181	0.420943
O7	O	1.066375	0.221816	-0.079072
O8	O	1.566375	0.721816	0.420928
O9	O	1.063274	-0.005826	0.079264
O10	O	1.563274	0.494174	0.579264
O11	O	0.935073	0.114093	0.079244
O12	O	1.435073	0.614093	0.579244
O13	O	1.194559	0.101890	0.079270
O14	O	1.694559	0.601890	0.579270
Zn15	Zn	1.064813	0.107990	0.104394
Zn16	Zn	1.564813	0.607990	0.604394
Zn17	Zn	1.064836	0.108000	-0.104201
Zn18	Zn	1.564836	0.608000	0.395799
O19	O	1.066358	0.221809	0.079249
O20	O	1.566358	0.721809	0.579249
C21	C	0.901716	0.113551	0.000080
C22	C	1.401716	0.613551	0.500080
C23	C	0.802296	0.111915	0.000070
C24	C	1.302296	0.611915	0.500070
C25	C	0.750345	0.182364	0.000067
C26	C	1.250345	0.682364	0.500067
C27	C	0.656930	0.180823	0.000081
C28	C	1.156930	0.680823	0.500081
C29	C	0.615468	0.108832	0.000092
C30	C	1.115468	0.608832	0.500092
C31	C	0.667426	0.038378	0.000098
C32	C	1.167426	0.538378	0.500098
C33	C	0.760839	0.039920	0.000091
C34	C	1.260839	0.539920	0.500091
C35	C	0.472723	0.035169	0.000111
C36	C	0.972723	0.535169	0.500111
C37	C	0.379303	0.033626	0.000117
C38	C	0.879303	0.533626	0.500117
C39	C	0.368815	0.176072	0.000102
C40	C	0.868815	0.676072	0.500102
C41	C	0.462228	0.177614	0.000095
C42	C	0.962228	0.677614	0.500095
C43	C	0.514179	0.107159	0.000099
C44	C	1.014179	0.607159	0.500099
C45	C	1.060477	-0.034954	0.000103
C46	C	1.560477	0.465046	0.500103
C47	C	1.052107	-0.121756	0.000102
C48	C	1.552107	0.378244	0.500102
C49	C	1.128951	-0.171781	0.000111
C50	C	1.628951	0.328219	0.500111
C51	C	1.121081	-0.253341	0.000101
C52	C	1.621081	0.246659	0.500101
C53	C	1.036367	-0.284874	0.000089
C54	C	1.536367	0.215126	0.500089
C55	C	0.959518	-0.234843	0.000078
C56	C	1.459518	0.265157	0.500078
C57	C	0.967388	-0.153285	0.000081
C58	C	1.467388	0.346715	0.500081
C59	C	1.008563	-0.530664	0.000073
C60	C	1.508563	-0.030664	0.500073
C61	C	1.000698	-0.612229	0.000073
C62	C	1.500698	-0.112229	0.500073
C63	C	1.162262	-0.630721	0.000095
C64	C	1.662262	-0.130721	0.500095
C65	C	1.170125	-0.549161	0.000103
C66	C	1.670125	-0.049161	0.500103
C67	C	1.093276	-0.499137	0.000087
C68	C	1.593276	0.000863	0.500087
C69	C	1.028321	-0.368241	0.000082
C70	C	1.528321	0.131759	0.500082
C71	C	1.101323	-0.415771	0.000087
C72	C	1.601323	0.084229	0.500087
C73	C	1.227933	0.102440	0.000110
C74	C	1.727933	0.602440	0.500110
C75	C	1.327353	0.104075	0.000114
C76	C	1.827353	0.604075	0.500114
C77	C	1.069172	0.250944	0.000087
C78	C	1.569172	0.750944	0.500087
C79	C	1.077542	0.337746	0.000082
C80	C	1.577542	0.837746	0.500082
N81	N	1.064804	0.107984	0.246754
N82	N	1.564804	0.607984	0.746754
N83	N	1.064851	0.108000	-0.246562
N84	N	1.564851	0.608000	0.253438
C85	C	1.121592	0.054906	0.296581
C86	C	1.621592	0.554906	0.796581
C87	C	1.121599	0.054905	0.396239
C88	C	1.621599	0.554905	0.896239
C89	C	1.064820	0.107987	0.446068
C90	C	1.564820	0.607987	0.946068
C91	C	1.008026	0.161067	0.396234
C92	C	1.508026	0.661067	0.896234
C93	C	1.008016	0.161064	0.296578
C94	C	1.508016	0.661064	0.796578
C95	C	1.008052	0.161073	0.603948
C96	C	1.508052	0.661073	1.103948
C97	C	1.008063	0.161078	0.703611
C98	C	1.508063	0.661078	1.203611
C99	C	1.121635	0.054915	0.703609
C100	C	1.621635	0.554915	1.203609
C101	C	1.121625	0.054911	0.603953
C102	C	1.621625	0.554911	1.103953
C103	C	1.064831	0.107993	0.554126
C104	C	1.564831	0.607993	1.054126
H105	H	0.515019	-0.022203	0.000116
H106	H	1.015019	0.477797	0.500116
Br107	Br	1.225375	-0.321229	0.000112
Br108	Br	1.725375	0.178771	0.500112
H109	H	1.239108	-0.523493	0.000113
H110	H	1.739108	-0.023493	0.500113
H111	H	0.803137	-0.017447	0.000093
H112	H	1.303137	0.482553	0.500093
Br113	Br	0.586429	0.276436	0.000074
Br114	Br	1.086429	0.776436	0.500074
H115	H	0.961791	0.204285	0.436810
H116	H	1.461791	0.704285	0.936810
Br117	Br	0.930936	0.233096	0.228955
Br118	Br	1.430936	0.733096	0.728955
Br119	Br	0.930969	0.233110	0.536329
Br120	Br	1.430969	0.733110	1.036329
Br121	Br	1.198666	-0.017133	0.463865
Br122	Br	1.698666	0.482867	0.963865
H123	H	1.167862	0.011692	0.563383
H124	H	1.667862	0.511692	1.063383
Br125	Br	1.198714	-0.017120	0.771234
Br126	Br	1.698714	0.482880	1.271234
H127	H	0.784097	0.240987	0.000058
H128	H	1.284097	0.740987	0.500058
H129	H	0.495983	0.236235	0.000077
H130	H	0.995983	0.736235	0.500077
Br131	Br	0.298311	0.271689	0.000095
Br132	Br	0.798311	0.771689	0.500095
Br133	Br	0.844547	-0.277637	0.000046
Br134	Br	1.344547	0.222363	0.500046
Br135	Br	0.913355	-0.411043	0.000057
Br136	Br	1.413355	0.088957	0.500057
Br137	Br	1.198660	-0.017133	0.228967
Br138	Br	1.698660	0.482867	0.728967
Br139	Br	0.863096	-0.085392	0.000061
Br140	Br	1.363096	0.414608	0.500061
Br141	Br	0.611157	-0.059326	0.000122
Br142	Br	1.111157	0.440674	0.500122
H143	H	1.224829	-0.671459	0.000106
H144	H	1.724829	-0.171459	0.500106
Br145	Br	0.323033	-0.064077	0.000164
Br146	Br	0.823033	0.435923	0.500164
Br147	Br	1.243926	-0.128994	0.000140
Br148	Br	1.743926	0.371006	0.500140
H149	H	0.931710	-0.637900	0.000079
H150	H	1.431710	-0.137900	0.500079
H151	H	0.945986	-0.489944	0.000060
H152	H	1.445986	0.010056	0.500060
H153	H	1.170296	-0.390093	0.000076
H154	H	1.670296	0.109907	0.500076
H155	H	0.961827	0.204302	0.744176
H156	H	1.461827	0.704302	1.244176
