data_functionalizedCrystal
_audit_creation_method	'MofGen! by Chris Wilmer'
_symmetry_space_group_name_H-M	'P1'
_symmetry_Int_Tables_number	1
_symmetry_cell_setting	triclinic
loop_
_symmetry_equiv_pos_as_xyz
  x,y,z
_cell_length_a	17.019282
_cell_length_b	19.188928
_cell_length_c	15.500228
_cell_angle_alpha	87.165611
_cell_angle_beta	83.286886
_cell_angle_gamma	96.732812
loop_
_atom_site_label
_atom_site_type_symbol
_atom_site_fract_x
_atom_site_fract_y
_atom_site_fract_z
O1	O	1.046683	-0.088629	-0.006049
O2	O	0.816098	-0.100758	0.011140
O3	O	0.938047	0.006975	0.002027
O4	O	0.924734	-0.196362	0.003063
O5	O	0.945440	0.013493	-0.142414
O6	O	0.823491	-0.094240	-0.133301
O7	O	1.054076	-0.082111	-0.150490
Cu8	Cu	0.939459	-0.087580	-0.155085
Cu9	Cu	0.930715	-0.095289	0.015734
O10	O	0.932127	-0.189844	-0.141378
C11	C	0.790294	-0.097169	-0.058882
C12	C	0.702392	-0.096179	-0.052331
C13	C	0.665131	-0.092159	-0.127989
C14	C	0.582539	-0.091217	-0.121836
C15	C	0.537210	-0.094301	-0.040023
C16	C	0.574478	-0.098319	0.035642
C17	C	0.657068	-0.099256	0.029487
C18	C	0.287639	-0.091645	-0.017502
C19	C	0.205043	-0.090710	-0.011354
C20	C	0.213111	-0.083607	-0.168832
C21	C	0.295702	-0.084549	-0.174979
C22	C	0.332962	-0.088563	-0.099315
C23	C	0.452788	-0.093340	-0.033731
C24	C	0.417384	-0.089519	-0.105607
C25	C	0.941313	0.036244	-0.070165
C26	C	0.940020	0.113747	-0.070080
C27	C	1.011576	0.158794	-0.075420
C28	C	1.010360	0.231615	-0.075319
C29	C	0.937587	0.259387	-0.069895
C30	C	0.866022	0.214330	-0.064550
C31	C	0.867239	0.141510	-0.064642
N32	N	0.884477	0.369516	-0.114910
N33	N	0.883326	0.438692	-0.114825
C34	C	0.933916	0.478789	-0.069615
N35	N	0.985713	0.447099	-0.024506
N36	N	0.986866	0.377916	-0.024595
C37	C	0.936259	0.338347	-0.069794
C38	C	1.004158	0.602798	-0.074845
C39	C	1.002940	0.675620	-0.074739
C40	C	0.858600	0.658334	-0.063977
C41	C	0.859820	0.585513	-0.064075
C42	C	0.932602	0.557750	-0.069513
C43	C	1.079880	-0.085700	-0.080467
C44	C	1.167782	-0.086690	-0.087012
C45	C	0.928864	0.780888	-0.069196
C46	C	0.930165	0.703387	-0.069313
N47	N	0.924566	-0.100705	0.135878
N48	N	0.945614	-0.082158	-0.275229
C49	C	0.976338	-0.055142	0.177286
C50	C	0.971686	-0.059238	0.268207
C51	C	0.915258	-0.108893	0.317718
C52	C	0.863484	-0.154460	0.276304
C53	C	0.868140	-0.150368	0.185384
C54	C	0.898496	-0.123634	0.592437
C55	C	0.893842	-0.127721	0.683363
C56	C	1.002046	-0.032499	0.675259
C57	C	1.006694	-0.028408	0.584339
C58	C	0.954923	-0.073978	0.542933
C59	C	0.910500	-0.113078	0.410653
C60	C	0.959685	-0.069795	0.449998
H61	H	0.702031	-0.089654	-0.194611
H62	H	1.013843	-0.022137	0.301920
H63	H	1.063421	0.580192	-0.079269
C64	C	1.081655	0.725172	-0.080615
H65	H	1.125172	0.698205	-0.083875
H66	H	1.081609	0.751658	-0.030433
H67	H	1.086751	0.756219	-0.131178
C68	C	0.778550	0.688875	-0.058008
H69	H	0.788072	0.738696	-0.058722
H70	H	0.746519	0.671107	-0.005444
H71	H	0.751676	0.675672	-0.106190
C72	C	0.781109	0.535960	-0.058216
H73	H	0.737592	0.562928	-0.054978
H74	H	0.776002	0.504911	-0.007660
H75	H	0.781165	0.509479	-0.108407
C76	C	0.524618	-0.101712	0.125634
H77	H	0.470092	-0.100586	0.118465
H78	H	0.542678	-0.062609	0.156510
H79	H	0.530315	-0.144048	0.157444
H80	H	0.825983	-0.187471	0.151671
H81	H	1.022285	-0.014705	0.136980
H82	H	0.552207	-0.087932	-0.183446
C83	C	0.155180	-0.094118	0.078645
H84	H	0.189199	-0.096643	0.122827
H85	H	0.116619	-0.134624	0.084774
H86	H	0.128967	-0.053186	0.083858
H87	H	1.005632	-0.029368	0.409684
H88	H	1.068631	0.268299	-0.079665
H89	H	0.415872	-0.095850	0.032881
H90	H	1.052642	0.012025	0.544029
H91	H	0.864554	-0.153507	0.450973
H92	H	0.817541	-0.194894	0.316621
H93	H	1.044196	0.004602	0.708981
C94	C	0.328615	-0.096069	0.065726
H95	H	0.289786	-0.097780	0.115330
H96	H	0.366849	-0.055866	0.066134
H97	H	0.354480	-0.137305	0.067068
H98	H	0.847888	-0.168158	0.723671
C99	C	0.698059	-0.103679	0.112709
H100	H	0.753740	-0.103788	0.097328
H101	H	0.676686	-0.145701	0.146543
H102	H	0.689051	-0.064262	0.145596
H103	H	0.332604	-0.082035	-0.241600
H104	H	0.806769	0.236947	-0.060131
H105	H	1.070840	0.136194	-0.079845
H106	H	0.856340	-0.160737	0.558731
H107	H	0.808968	0.104832	-0.060293
H108	H	0.182764	-0.080338	-0.230434
H109	H	0.454294	-0.087005	-0.172219
