data_functionalizedCrystal
_audit_creation_method	'MofGen! by Chris Wilmer'
_symmetry_space_group_name_H-M	'P1'
_symmetry_Int_Tables_number	1
_symmetry_cell_setting	triclinic
loop_
_symmetry_equiv_pos_as_xyz
  x,y,z
_cell_length_a	19.121063
_cell_length_b	16.120490
_cell_length_c	16.120297
_cell_angle_alpha	90.129683
_cell_angle_beta	95.179432
_cell_angle_gamma	89.683840
loop_
_atom_site_label
_atom_site_type_symbol
_atom_site_fract_x
_atom_site_fract_y
_atom_site_fract_z
Zn1	Zn	-0.355804	1.228536	-0.551560
Zn2	Zn	0.144196	1.728536	-0.051560
Zn3	Zn	-0.467588	1.229545	-0.417851
Zn4	Zn	0.032412	1.729545	0.082149
Zn5	Zn	-0.343933	1.097156	-0.404913
Zn6	Zn	0.156067	1.597156	0.095087
Zn7	Zn	-0.466935	1.083536	-0.549792
Zn8	Zn	0.033065	1.583536	-0.049792
O9	O	-0.408565	1.159693	-0.481029
O10	O	0.091435	1.659693	0.018971
O11	O	-0.375875	1.344758	-0.539977
O12	O	0.124125	1.844758	-0.039977
O13	O	-0.446490	1.218106	-0.299544
O14	O	0.053510	1.718106	0.200456
O15	O	-0.247249	1.119862	-0.419691
O16	O	0.252751	1.619862	0.080309
O17	O	-0.458001	1.345500	-0.441742
O18	O	0.041999	1.845500	0.058258
O19	O	-0.255971	1.216386	-0.527432
O20	O	0.244029	1.716386	-0.027432
O21	O	-0.355641	1.120841	-0.290039
O22	O	0.144359	1.620841	0.209961
O23	O	-0.355007	0.979261	-0.417977
O24	O	0.144993	1.479261	0.082023
O25	O	-0.456888	1.096647	-0.666617
O26	O	0.043112	1.596647	-0.166617
O27	O	-0.445376	0.969254	-0.524419
O28	O	0.054624	1.469254	-0.024419
O29	O	-0.375241	1.203178	-0.667915
O30	O	0.124759	1.703178	-0.167915
O31	O	-0.565760	1.204899	-0.440028
O32	O	-0.065760	1.704899	0.059972
O33	O	-0.565280	1.097626	-0.536965
O34	O	-0.065280	1.597626	-0.036965
C35	C	-0.398833	0.944157	-0.469603
C36	C	0.101167	1.444157	0.030397
C37	C	-0.394688	0.851948	-0.464736
C38	C	0.105312	1.351948	0.035264
C39	C	-0.430063	0.637106	-0.506278
C40	C	0.069937	1.137106	-0.006278
C41	C	-0.387125	0.683125	-0.455848
C42	C	0.112875	1.183125	0.044152
C43	C	-0.391334	0.777067	-0.460795
C44	C	0.108666	1.277067	0.039205
C45	C	-0.425855	0.543156	-0.501333
C46	C	0.074145	1.043156	-0.001333
C47	C	-0.590999	1.149916	-0.489728
C48	C	-0.090999	1.649916	0.010272
C49	C	-0.669049	1.145807	-0.493481
C50	C	-0.169049	1.645807	0.006519
C51	C	-0.705948	1.199767	-0.444821
C52	C	-0.205948	1.699767	0.055179
C53	C	-0.779285	1.195908	-0.448356
C54	C	-0.279285	1.695908	0.051644
C55	C	-0.815722	1.138084	-0.500548
C56	C	-0.315722	1.638084	-0.000548
C57	C	-0.778818	1.084121	-0.549213
C58	C	-0.278818	1.584121	-0.049213
C59	C	-0.705483	1.087985	-0.545682
C60	C	-0.205483	1.587985	-0.045682
C61	C	-1.037136	1.123625	-0.513736
C62	C	-0.537136	1.623625	-0.013736
C63	C	-1.110477	1.119763	-0.517262
C64	C	-0.610477	1.619763	-0.017262
C65	C	-1.110938	1.231551	-0.416406
C66	C	-0.610938	1.731551	0.083594
C67	C	-1.037601	1.235406	-0.412875
C68	C	-0.537601	1.735406	0.087125
C69	C	-1.000704	1.181447	-0.461544
C70	C	-0.500704	1.681447	0.038456
C71	C	-0.890684	1.134136	-0.504160
C72	C	-0.390684	1.634136	-0.004160
C73	C	-0.925744	1.185399	-0.457935
C74	C	-0.425744	1.685399	0.042065
C75	C	-0.225420	1.169531	-0.472315
C76	C	0.274580	1.669531	0.027685
C77	C	-0.147375	1.173723	-0.468602
C78	C	0.352625	1.673723	0.031398
C79	C	-0.417316	1.148281	-0.698342
C80	C	0.082684	1.648281	-0.198342
C81	C	-0.421045	1.143418	-0.790948
C82	C	0.078955	1.643418	-0.290948
C83	C	-0.418335	1.376071	-0.492500
C84	C	0.081665	1.876071	0.007500
C85	C	-0.422499	1.468278	-0.497388
C86	C	0.077501	1.968278	0.002612
C87	C	-0.427836	1.134509	-0.960498
C88	C	0.072164	1.634509	-0.460498
C89	C	-0.389090	1.185052	-1.002410
C90	C	0.110910	1.685052	-0.502410
C91	C	-0.392869	1.180095	-1.096754
C92	C	0.107131	1.680095	-0.596754
C93	C	-0.424058	1.139465	-0.866146
C94	C	0.075942	1.639465	-0.366146
C95	C	-0.399800	1.171112	-0.264561
C96	C	0.100200	1.671112	0.235439
C97	C	-0.395880	1.176146	-0.171955
C98	C	0.104120	1.676146	0.328045
H99	H	-0.676285	1.246850	-0.402317
H100	H	-0.176285	1.746850	0.097683
Cl101	Cl	-0.483432	1.061961	-1.014489
Cl102	Cl	0.016568	1.561961	-0.514489
H103	H	-0.353080	1.232046	-0.967439
H104	H	0.146920	1.732046	-0.467439
H105	H	-0.347205	0.651971	-0.408959
H106	H	0.152795	1.151971	0.091041
H107	H	-0.675441	1.044047	-0.585307
H108	H	-0.175441	1.544047	-0.085307
H109	H	-0.469981	0.668258	-0.553163
H110	H	0.030019	1.168258	-0.053163
Cl111	Cl	-0.825669	1.263749	-0.387183
Cl112	Cl	-0.325669	1.763749	0.112817
Cl113	Cl	-1.157327	1.299386	-0.355232
Cl114	Cl	-0.657327	1.799386	0.144768
Cl115	Cl	-1.156281	1.047055	-0.582868
Cl116	Cl	-0.656281	1.547055	-0.082868
Cl117	Cl	-0.991801	1.308113	-0.347273
Cl118	Cl	-0.491801	1.808113	0.152727
Cl119	Cl	-0.824625	1.011433	-0.614831
Cl120	Cl	-0.324625	1.511433	-0.114831
Cl121	Cl	-0.990761	1.055788	-0.574919
Cl122	Cl	-0.490761	1.555788	-0.074919
Cl123	Cl	-0.879937	1.258093	-0.392329
Cl124	Cl	-0.379937	1.758093	0.107671
H125	H	-0.920359	1.087054	-0.546653
H126	H	-0.420359	1.587054	-0.046653
