data_functionalizedCrystal
_audit_creation_method	'MofGen! by Chris Wilmer'
_symmetry_space_group_name_H-M	'P1'
_symmetry_Int_Tables_number	1
_symmetry_cell_setting	triclinic
loop_
_symmetry_equiv_pos_as_xyz
  x,y,z
_cell_length_a	12.759401
_cell_length_b	17.077402
_cell_length_c	17.077396
_cell_angle_alpha	90.028267
_cell_angle_beta	89.985850
_cell_angle_gamma	89.975506
loop_
_atom_site_label
_atom_site_type_symbol
_atom_site_fract_x
_atom_site_fract_y
_atom_site_fract_z
Zn1	Zn	1.606140	0.312498	-0.443784
Zn2	Zn	2.106140	0.812498	0.056216
Zn3	Zn	1.606018	0.443775	-0.312520
Zn4	Zn	2.106018	0.943775	0.187480
Zn5	Zn	1.430455	0.312528	-0.312539
Zn6	Zn	1.930455	0.812528	0.187461
Zn7	Zn	1.430401	0.443726	-0.443751
Zn8	Zn	1.930401	0.943726	0.056249
O9	O	1.518254	0.378132	-0.378148
O10	O	2.018254	0.878132	0.121852
O11	O	1.753145	0.329921	-0.426377
O12	O	2.253145	0.829921	0.073623
O13	O	1.582701	0.426397	-0.202676
O14	O	2.082701	0.926397	0.297324
O15	O	1.453834	0.202677	-0.329970
O16	O	1.953834	0.702677	0.170030
O17	O	1.753055	0.426369	-0.329938
O18	O	2.253055	0.926369	0.170062
O19	O	1.582909	0.202655	-0.426395
O20	O	2.082909	0.702655	0.073605
O21	O	1.453716	0.329971	-0.202689
O22	O	1.953716	0.829971	0.297311
O23	O	1.283427	0.329923	-0.329938
O24	O	1.783427	0.829923	0.170062
O25	O	1.453742	0.426286	-0.553602
O26	O	1.953742	0.926286	-0.053602
O27	O	1.283387	0.426315	-0.426339
O28	O	1.783387	0.926315	0.073661
O29	O	1.582856	0.329873	-0.553626
O30	O	2.082856	0.829873	-0.053626
O31	O	1.582648	0.553616	-0.329906
O32	O	2.082648	1.053616	0.170094
O33	O	1.453623	0.553580	-0.426321
O34	O	1.953623	1.053580	0.073679
C35	C	1.245286	0.378117	-0.378138
C36	C	1.745286	0.878117	0.121862
C37	C	1.128510	0.378130	-0.378152
C38	C	1.628510	0.878130	0.121848
C39	C	1.518145	0.582080	-0.378125
C40	C	2.018145	1.082080	0.121875
C41	C	1.518195	0.669330	-0.378142
C42	C	2.018195	1.169330	0.121858
C43	C	1.518306	0.378071	-0.582893
C44	C	2.018306	0.878071	-0.082893
C45	C	1.518329	0.378045	-0.670142
C46	C	2.018329	0.878045	-0.170142
C47	C	1.073654	0.428401	-0.428265
C48	C	1.573654	0.928401	0.071735
C49	C	0.963930	0.428411	-0.428273
C50	C	1.463930	0.928411	0.071727
C51	C	0.963926	0.327877	-0.328049
C52	C	1.463926	0.827877	0.171951
C53	C	1.073649	0.327863	-0.328045
C54	C	1.573649	0.827863	0.171955
C55	C	1.073656	0.486447	-0.486126
C56	C	1.573656	0.986447	0.013874
C57	C	0.963932	0.486457	-0.486134
C58	C	1.463932	0.986457	0.013866
C59	C	1.792287	0.378147	-0.378159
C60	C	2.292287	0.878147	0.121841
C61	C	1.909063	0.378153	-0.378164
C62	C	2.409063	0.878153	0.121836
C63	C	1.585446	0.710312	-0.327994
C64	C	2.085446	1.210312	0.172006
C65	C	1.585494	0.792293	-0.328018
C66	C	2.085494	1.292293	0.171982
C67	C	1.518286	0.833289	-0.378185
C68	C	2.018286	1.333289	0.121815
C69	C	1.451033	0.792300	-0.428338
C70	C	1.951033	1.292300	0.071662
C71	C	1.450990	0.710322	-0.428318
C72	C	1.950990	1.210322	0.071682
C73	C	1.451124	0.963170	-0.428375
C74	C	1.951124	1.463170	0.071625
C75	C	1.451165	1.045155	-0.428394
C76	C	1.951165	1.545155	0.071606
C77	C	1.585628	1.045142	-0.328074
C78	C	2.085628	1.545142	0.171926
C79	C	1.585586	0.963163	-0.328054
C80	C	2.085586	1.463163	0.171946
C81	C	1.518331	0.922180	-0.378207
C82	C	2.018331	1.422180	0.121793
C83	C	1.518382	1.173388	-0.378199
C84	C	2.018382	1.673388	0.121801
C85	C	1.518416	1.086138	-0.378247
C86	C	2.018416	1.586138	0.121753
C87	C	1.451187	0.327830	-0.711139
C88	C	1.951187	0.827830	-0.211139
C89	C	1.451204	0.327812	-0.793120
C90	C	1.951204	0.827812	-0.293120
C91	C	1.518369	0.378006	-0.834102
C92	C	2.018369	0.878006	-0.334102
C93	C	1.585514	0.428227	-0.793100
C94	C	2.085514	0.928227	-0.293100
C95	C	1.585491	0.428248	-0.711121
C96	C	2.085491	0.928248	-0.211121
C97	C	1.585560	0.428178	-0.963970
C98	C	2.085560	0.928178	-0.463970
C99	C	1.585585	0.428156	-1.045954
C100	C	2.085585	0.928156	-0.545954
C101	C	1.451273	0.327742	-1.045969
C102	C	1.951273	0.827742	-0.545969
C103	C	1.451249	0.327763	-0.963990
C104	C	1.951249	0.827763	-0.463990
C105	C	1.518396	0.377983	-0.922993
C106	C	2.018396	0.877983	-0.422993
C107	C	1.518261	0.378136	-0.174200
C108	C	2.018261	0.878136	0.325800
C109	C	1.518443	0.377941	-0.086951
C110	C	2.018443	0.877941	0.413049
H111	H	1.118308	0.286922	-0.287243
H112	H	1.618308	0.786922	0.212757
H113	H	1.396600	0.286849	-1.079352
H114	H	1.896600	0.786849	-0.579352
Br115	Br	1.676682	0.496340	-0.908332
Br116	Br	2.176682	0.996340	-0.408332
Br117	Br	1.359725	0.654701	-0.496383
Br118	Br	1.859725	1.154701	0.003617
Br119	Br	1.360036	0.259699	-0.655528
Br120	Br	1.860036	0.759699	-0.155528
Br121	Br	1.359853	0.907551	-0.496443
Br122	Br	1.859853	1.407551	0.003557
Br123	Br	0.889466	0.259658	-0.260053
Br124	Br	1.389466	0.759658	0.239947
H125	H	0.929933	0.464762	-0.543929
H126	H	1.429933	0.964762	-0.043929
H127	H	1.107659	0.544164	-0.464244
H128	H	1.607659	1.044164	0.035756
Br129	Br	0.914240	0.587747	-0.458793
Br130	Br	1.414240	1.087747	0.041207
Br131	Br	1.360105	0.259634	-0.908371
Br132	Br	1.860105	0.759634	-0.408371
H133	H	1.640277	0.469029	-1.079320
H134	H	2.140277	0.969029	-0.579320
Br135	Br	1.676659	0.496356	-0.848717
Br136	Br	2.176659	0.996356	-0.348717
H137	H	1.640173	0.469133	-0.677742
H138	H	2.140173	0.969133	-0.177742
H139	H	1.640170	0.676938	-0.287139
H140	H	2.140170	1.176938	0.212861
H141	H	1.640256	0.825657	-0.287182
H142	H	2.140256	1.325657	0.212818
H143	H	1.640306	0.929784	-0.287200
H144	H	2.140306	1.429784	0.212800
Br145	Br	1.123345	0.459438	-0.587499
Br146	Br	1.623345	0.959438	-0.087499
Br147	Br	1.359938	1.100793	-0.496468
Br148	Br	1.859938	1.600793	0.003532
Br149	Br	1.676889	1.100760	-0.260000
Br150	Br	2.176889	1.600760	0.240000
H151	H	1.396315	0.825686	-0.469189
H152	H	1.896315	1.325686	0.030811
H153	H	1.396526	0.286924	-0.826496
H154	H	1.896526	0.786924	-0.326496
