data_functionalizedCrystal
_audit_creation_method	'MofGen! by Chris Wilmer'
_symmetry_space_group_name_H-M	'P1'
_symmetry_Int_Tables_number	1
_symmetry_cell_setting	triclinic
loop_
_symmetry_equiv_pos_as_xyz
  x,y,z
_cell_length_a	13.262522
_cell_length_b	13.596369
_cell_length_c	13.339070
_cell_angle_alpha	89.997041
_cell_angle_beta	80.571184
_cell_angle_gamma	105.921070
loop_
_atom_site_label
_atom_site_type_symbol
_atom_site_fract_x
_atom_site_fract_y
_atom_site_fract_z
O1	O	1.432415	0.464945	-0.136424
O2	O	1.131149	0.384361	-0.151258
O3	O	1.247206	0.415402	0.003568
O4	O	1.316357	0.433904	-0.291250
O5	O	1.247188	0.251814	0.003576
O6	O	1.131130	0.220773	-0.151250
O7	O	1.432396	0.301357	-0.136415
Zn8	Zn	1.281760	0.235092	-0.143831
Zn9	Zn	1.281785	0.450626	-0.143842
O10	O	1.316339	0.270317	-0.291242
C11	C	1.091793	0.292042	-0.150423
C12	C	0.974550	0.260682	-0.147934
C13	C	0.919466	0.156771	-0.146762
C14	C	0.809308	0.127298	-0.144414
C15	C	0.754225	0.201732	-0.143245
C16	C	0.809309	0.305645	-0.144425
C17	C	0.919477	0.335121	-0.146765
C18	C	0.754235	0.380082	-0.143249
C19	C	0.809320	0.483995	-0.144428
C20	C	0.919476	0.513466	-0.146769
C21	C	0.974560	0.439031	-0.147938
C22	C	0.644068	0.350606	-0.140908
C23	C	0.644079	0.528956	-0.140912
C24	C	0.754236	0.558429	-0.143260
N25	N	1.281751	0.087998	-0.143823
C26	C	1.281783	-0.313284	-0.143843
C27	C	1.281772	-0.201636	-0.143841
C28	C	1.281768	-0.112647	-0.143834
C29	C	1.281755	-0.000992	-0.143830
C30	C	1.471752	0.393678	-0.137251
C31	C	1.588995	0.425045	-0.139740
N32	N	1.281800	0.597722	-0.143842
C33	C	1.235516	0.330485	0.041311
C34	C	1.200698	0.321175	0.153759
C35	C	1.328029	0.355236	-0.328984
C36	C	1.362847	0.364552	-0.441432
C37	C	1.471426	0.393590	0.517413
C38	C	1.504143	0.402332	0.411762
C39	C	1.428284	0.382044	0.347256
C40	C	1.319703	0.353012	0.388411
C41	C	1.286983	0.344261	0.494072
C42	C	1.243842	0.332715	0.323915
C43	C	1.135261	0.303683	0.365070
C44	C	1.102546	0.294934	0.470720
C45	C	1.178405	0.315222	0.535226
C46	C	1.276562	0.341466	0.218255
C47	C	1.092119	0.292136	0.194914
C48	C	1.059402	0.283394	0.300564
H49	H	0.764464	0.042692	-0.143440
C50	C	1.088337	0.122781	-0.150349
C51	C	0.980015	0.074962	-0.148047
H52	H	1.125717	0.072269	-0.151148
H53	H	1.097206	0.161785	-0.091742
H54	H	1.115556	0.166707	-0.209730
H55	H	0.952794	0.031042	-0.088661
H56	H	0.971140	0.035941	-0.206659
C57	C	1.081351	0.373376	0.680207
C58	C	1.142447	0.305620	0.651364
H59	H	1.059163	0.367453	0.751908
H60	H	1.020635	0.357122	0.647695
H61	H	1.122831	0.441506	0.660594
H62	H	1.100965	0.237489	0.670971
H63	H	1.203173	0.321867	0.683889
C64	C	1.118824	0.429057	-0.064322
C65	C	1.095650	0.471419	-0.150508
H66	H	1.193579	0.449052	-0.065907
H67	H	1.093893	0.356530	-0.063804
H68	H	1.084726	0.452877	-0.004806
H69	H	1.129741	0.447593	-0.210025
H70	H	1.120593	0.543961	-0.151036
C71	C	0.892099	0.154564	0.313209
C72	C	0.940050	0.251477	0.345804
H73	H	0.818416	0.134866	0.341134
H74	H	0.924616	0.106226	0.335331
H75	H	0.900733	0.156881	0.241053
H76	H	0.931424	0.249158	0.417960
H77	H	0.907524	0.299827	0.323688
H78	H	0.599230	0.589567	-0.139962
C79	C	0.944983	0.336876	0.142488
C80	C	1.008721	0.269834	0.124022
H81	H	0.893499	0.323101	0.098722
H82	H	0.988245	0.405481	0.129960
H83	H	0.909966	0.327499	0.211305
H84	H	1.043745	0.279217	0.055207
H85	H	0.965454	0.201213	0.136542
C86	C	0.908420	0.686798	-0.146540
C87	C	0.980026	0.627687	-0.148056
H88	H	0.945803	0.757312	-0.147340
H89	H	0.856280	0.669136	-0.086637
H90	H	0.874629	0.674044	-0.204625
H91	H	1.013812	0.640435	-0.089966
H92	H	1.032185	0.645355	-0.207965
H93	H	1.454929	0.389164	0.261232
C94	C	1.408615	0.376777	0.066666
C95	C	1.395908	0.373382	0.173023
H96	H	1.482299	0.396478	0.038745
H97	H	1.376102	0.425123	0.044555
H98	H	1.376074	0.311025	0.044567
H99	H	1.428441	0.439136	0.195122
H100	H	1.428435	0.325034	0.195143
H101	H	1.533178	0.410098	0.569942
C102	C	0.596638	0.185899	-0.053222
C103	C	0.583531	0.236390	-0.139619
H104	H	0.559271	0.115382	-0.052432
H105	H	0.569401	0.215246	0.006144
H106	H	0.670133	0.192816	-0.054794
H107	H	0.510036	0.229480	-0.138043
H108	H	0.610763	0.207033	-0.199000
C109	C	1.683163	0.450210	0.445454
C110	C	1.623488	0.434246	0.366528
H111	H	1.756845	0.469919	0.417525
H112	H	1.666555	0.388729	0.486182
H113	H	1.666569	0.502823	0.486172
H114	H	1.640075	0.381627	0.325814
H115	H	1.640103	0.495735	0.325783
C116	C	0.935278	0.334294	0.483350
C117	C	0.983194	0.263015	0.515959
H118	H	0.861596	0.314589	0.511282
H119	H	0.943907	0.336594	0.411204
H120	H	0.967825	0.400036	0.505464
H121	H	0.950651	0.197274	0.493838
H122	H	0.974557	0.260704	0.588120
H123	H	0.664530	0.177728	-0.141335
H124	H	0.799102	0.643037	-0.144220
