data_functionalizedCrystal
_audit_creation_method	'MofGen! by Chris Wilmer'
_symmetry_space_group_name_H-M	'P1'
_symmetry_Int_Tables_number	1
_symmetry_cell_setting	triclinic
loop_
_symmetry_equiv_pos_as_xyz
  x,y,z
_cell_length_a	16.625548
_cell_length_b	12.759399
_cell_length_c	12.759393
_cell_angle_alpha	90.028567
_cell_angle_beta	89.979449
_cell_angle_gamma	89.983400
loop_
_atom_site_label
_atom_site_type_symbol
_atom_site_fract_x
_atom_site_fract_y
_atom_site_fract_z
Zn1	Zn	1.232719	0.418172	-0.594094
Zn2	Zn	1.232639	0.593892	-0.418424
Zn3	Zn	1.097881	0.418231	-0.418423
Zn4	Zn	1.097868	0.593813	-0.594055
O5	O	1.165277	0.506027	-0.506249
O6	O	1.345541	0.441490	-0.570807
O7	O	1.214735	0.570647	-0.271402
O8	O	1.115807	0.271202	-0.441742
O9	O	1.345482	0.570591	-0.441743
O10	O	1.214872	0.271159	-0.570807
O11	O	1.115729	0.441590	-0.271402
O12	O	0.985047	0.441514	-0.441705
O13	O	1.115784	0.570456	-0.741082
O14	O	0.985037	0.570513	-0.570741
O15	O	1.214859	0.441414	-0.741110
O16	O	1.214722	0.740902	-0.441706
O17	O	1.115706	0.740844	-0.570741
C18	C	0.955786	0.506012	-0.506220
C19	C	0.866165	0.506031	-0.506232
C20	C	1.165226	0.778994	-0.506242
C21	C	1.165278	0.895771	-0.506275
C22	C	1.165329	0.505920	-0.780282
C23	C	1.165351	0.505874	-0.897059
C24	C	0.537989	0.506038	-0.506277
C25	C	0.629298	0.506033	-0.506261
C26	C	0.702074	0.506035	-0.506254
C27	C	0.793388	0.506029	-0.506239
C28	C	1.375586	0.506043	-0.506279
C29	C	1.465207	0.506049	-0.506292
C30	C	1.216892	0.950628	-0.439163
C31	C	1.216940	1.060352	-0.439201
C32	C	1.113753	1.060352	-0.573466
C33	C	1.113710	0.950630	-0.573432
C34	C	1.268460	0.895769	-0.372005
C35	C	1.320077	0.950626	-0.304887
C36	C	1.320126	1.060350	-0.304926
C37	C	1.268556	1.115217	-0.372082
C38	C	1.165347	1.231994	-0.506293
C39	C	1.165370	1.115217	-0.506347
C40	C	1.113821	0.438662	-0.951927
C41	C	1.113845	0.438630	-1.061651
C42	C	1.216938	0.573027	-1.061630
C43	C	1.216909	0.573063	-0.951908
C44	C	1.062264	0.371473	-0.897079
C45	C	1.010730	0.304254	-0.951947
C46	C	1.010754	0.304223	-1.061671
C47	C	1.062312	0.371410	-1.116527
C48	C	1.165271	0.506058	-0.233282
C49	C	1.165405	0.505807	-0.116505
H50	H	1.268424	0.806426	-0.371963
N51	N	1.372753	0.894571	-0.236307
N52	N	1.372704	0.796606	-0.236281
H53	H	1.409907	0.757016	-0.187845
N54	N	1.269545	0.641704	-0.895838
N55	N	1.269508	0.641725	-0.797873
H56	H	1.306681	0.690208	-0.758271
N57	N	1.268603	1.227298	-0.372143
N58	N	1.285440	1.276184	-0.454135
H59	H	1.285472	1.355340	-0.454176
H60	H	0.968787	0.249497	-1.106341
H61	H	1.362161	1.105012	-0.250283
H62	H	1.071767	1.105033	-0.628141
N63	N	1.060988	0.894604	-0.641997
N64	N	1.014947	0.943594	-0.701949
H65	H	0.977714	0.904026	-0.750380
H66	H	1.258916	0.627726	-1.106302
N67	N	1.062233	0.371483	-0.785000
N68	N	1.016202	0.311489	-0.736037
H69	H	1.016182	0.311493	-0.656880
N70	N	0.958063	0.235645	-0.895902
N71	N	0.958045	0.235683	-0.797937
H72	H	0.920847	0.187228	-0.758355
N73	N	1.062319	0.371378	-1.228608
N74	N	1.016299	0.311368	-1.277588
H75	H	1.016304	0.311342	-1.356744
