data_functionalizedCrystal
_audit_creation_method	'MofGen! by Chris Wilmer'
_symmetry_space_group_name_H-M	'P1'
_symmetry_Int_Tables_number	1
_symmetry_cell_setting	triclinic
loop_
_symmetry_equiv_pos_as_xyz
  x,y,z
_cell_length_a	18.215407
_cell_length_b	19.805404
_cell_length_c	18.215399
_cell_angle_alpha	89.968894
_cell_angle_beta	89.982187
_cell_angle_gamma	90.023864
loop_
_atom_site_label
_atom_site_type_symbol
_atom_site_fract_x
_atom_site_fract_y
_atom_site_fract_z
Zn1	Zn	1.125049	-0.269569	-0.416060
Zn2	Zn	1.124948	-0.382760	-0.292987
Zn3	Zn	1.001982	-0.269580	-0.293012
Zn4	Zn	1.001938	-0.382711	-0.416016
O5	O	1.063479	-0.326155	-0.354519
O6	O	1.228020	-0.284601	-0.399742
O7	O	1.108612	-0.367772	-0.190006
O8	O	1.018367	-0.174862	-0.309363
O9	O	1.227946	-0.367761	-0.309321
O10	O	1.108785	-0.174854	-0.399766
O11	O	1.018269	-0.284618	-0.190024
O12	O	0.898992	-0.284570	-0.309321
O13	O	1.018293	-0.367677	-0.519006
O14	O	0.898959	-0.367687	-0.399691
O15	O	1.108742	-0.284553	-0.519039
O16	O	1.108570	-0.477470	-0.309278
O17	O	1.018195	-0.477434	-0.399667
C18	C	0.872273	-0.326125	-0.354504
C19	C	0.790474	-0.326129	-0.354516
C20	C	0.525449	-0.282936	-0.401676
C21	C	0.602308	-0.282926	-0.401674
C22	C	0.602250	-0.369395	-0.307377
C23	C	0.525393	-0.369409	-0.307384
C24	C	0.486994	-0.326176	-0.354532
C25	C	0.640710	-0.326151	-0.354523
C26	C	0.724044	-0.326140	-0.354520
C27	C	0.403655	-0.326188	-0.354536
C28	C	1.063386	-0.502011	-0.354481
C29	C	1.063414	-0.577243	-0.354490
C30	C	1.110659	-1.038971	-0.401695
C31	C	1.110630	-0.968283	-0.401678
C32	C	1.063578	-0.933005	-0.354564
C33	C	1.016557	-0.968419	-0.307459
C34	C	1.016590	-1.039106	-0.307473
C35	C	1.016422	-0.683346	-0.307402
C36	C	1.016391	-0.612653	-0.307393
C37	C	1.110462	-0.612522	-0.401607
C38	C	1.110495	-0.683209	-0.401621
C39	C	1.063478	-0.718617	-0.354513
C40	C	1.063511	-0.795266	-0.354531
C41	C	1.063541	-0.856358	-0.354550
C42	C	1.255432	-0.326185	-0.354534
C43	C	1.337231	-0.326198	-0.354540
C44	C	1.063524	-0.326108	-0.546472
C45	C	1.063543	-0.326088	-0.628271
C46	C	1.063592	-0.149612	-0.354572
C47	C	1.063640	-0.074380	-0.354595
C48	C	1.110657	-0.282765	-0.816483
C49	C	1.110666	-0.282745	-0.893341
C50	C	1.016481	-0.369307	-0.893297
C51	C	1.016469	-0.369323	-0.816439
C52	C	1.063561	-0.326053	-0.778034
C53	C	1.063582	-0.326017	-0.931750
C54	C	1.063591	-0.325996	-1.015084
C55	C	1.063551	-0.326073	-0.694695
C56	C	1.063477	-0.326153	-0.163312
C57	C	1.063600	-0.325982	-0.081514
H58	H	0.633615	-0.247716	-0.440064
O59	O	0.639469	-0.411354	-0.261474
C60	C	0.620675	-0.396473	-0.188156
H61	H	0.564878	-0.370461	-0.186686
H62	H	0.618018	-0.445287	-0.155065
H63	H	0.663930	-0.361641	-0.163429
H64	H	0.494082	-0.404624	-0.268993
H65	H	1.148967	-1.067689	-0.440068
O66	O	1.156133	-0.717582	-0.447363
C67	C	1.146093	-0.787566	-0.437261
H68	H	1.089317	-0.797279	-0.413112
H69	H	1.151067	-0.814392	-0.492394
H70	H	1.189776	-0.807616	-0.398111
O71	O	1.156277	-0.933782	-0.447366
C72	C	1.146149	-0.863827	-0.437265
H73	H	1.122082	-0.854228	-0.380445
H74	H	1.201258	-0.836917	-0.442308
H75	H	1.106918	-0.843769	-0.480874
O76	O	1.156486	-0.240675	-0.930576
C77	C	1.198030	-0.202477	-0.880195
H78	H	1.200553	-0.230215	-0.825400
H79	H	1.256021	-0.195261	-0.902413
H80	H	1.171112	-0.151070	-0.872031
O81	O	0.970780	-0.411436	-0.930525
C82	C	0.986833	-0.478901	-0.911736
H83	H	1.015112	-0.480318	-0.855935
H84	H	0.933702	-0.509246	-0.909089
H85	H	1.024664	-0.501694	-0.954988
O86	O	0.970821	-0.411410	-0.779004
C87	C	1.012689	-0.455150	-0.734551
H88	H	1.068474	-0.431287	-0.723057
H89	H	0.982701	-0.464224	-0.680495
H90	H	1.020748	-0.505306	-0.764152
H91	H	0.494188	-0.247733	-0.440067
O92	O	0.970607	-0.578353	-0.261726
C93	C	0.923040	-0.537463	-0.303573
H94	H	0.918464	-0.558735	-0.361532
H95	H	0.866423	-0.536718	-0.276899
H96	H	0.945770	-0.483872	-0.306126
H97	H	1.148749	-0.583686	-0.439963
O98	O	1.156291	-0.240694	-0.779096
C99	C	1.114407	-0.196972	-0.734663
H100	H	1.058623	-0.220843	-0.723129
H101	H	1.144381	-0.187910	-0.680626
H102	H	1.106350	-0.146808	-0.764303
O103	O	0.970678	-0.717630	-0.261624
C104	C	0.929154	-0.671333	-0.220029
H105	H	0.926566	-0.620928	-0.250165
H106	H	0.871184	-0.691805	-0.212129
H107	H	0.956133	-0.663828	-0.164159
O108	O	0.970772	-0.934120	-0.261799
C109	C	0.923208	-0.893231	-0.303650
H110	H	0.918640	-0.914501	-0.361611
H111	H	0.866587	-0.892489	-0.276983
H112	H	0.945936	-0.839639	-0.306198
O113	O	0.970845	-1.073400	-0.261698
C114	C	0.929320	-1.027107	-0.220098
H115	H	0.926728	-0.976701	-0.250230
H116	H	0.871351	-1.047582	-0.212198
H117	H	0.956300	-1.019604	-0.164229
