data_functionalizedCrystal
_audit_creation_method	'MofGen! by Chris Wilmer'
_symmetry_space_group_name_H-M	'P1'
_symmetry_Int_Tables_number	1
_symmetry_cell_setting	triclinic
loop_
_symmetry_equiv_pos_as_xyz
  x,y,z
_cell_length_a	23.096457
_cell_length_b	19.377369
_cell_length_c	23.096457
_cell_angle_alpha	72.125061
_cell_angle_beta	90.003973
_cell_angle_gamma	48.636862
loop_
_atom_site_label
_atom_site_type_symbol
_atom_site_fract_x
_atom_site_fract_y
_atom_site_fract_z
Zr1	Zr	0.442276	0.779866	0.040066
O2	O	0.327800	0.928517	-0.030263
O3	O	0.492631	0.631227	0.046284
O4	O	0.470597	0.779886	-0.052390
O5	O	0.349854	0.779838	0.163697
O6	O	0.565877	0.779888	-0.052393
O7	O	0.349834	0.779858	0.068411
O8	O	0.605291	0.513964	0.124117
O9	O	0.310439	1.045761	-0.012813
O10	O	0.566774	0.692361	0.067468
O11	O	0.495683	0.692345	0.138582
O12	O	0.469741	0.867371	0.022406
O13	O	0.398649	0.867355	0.093519
Zr14	Zr	0.594269	0.779837	0.192031
Zr15	Zr	0.594237	0.779869	0.040060
Zr16	Zr	0.442308	0.779834	0.192036
Zr17	Zr	0.414588	0.966858	0.067897
Zr18	Zr	0.621957	0.592845	0.164200
O19	O	0.543914	0.928476	0.185812
O20	O	0.543868	0.928521	-0.030271
O21	O	0.327846	0.928472	0.185819
O22	O	0.708745	0.631186	0.262360
O23	O	0.708699	0.631231	0.046277
O24	O	0.492677	0.631182	0.262367
O25	O	0.686691	0.779865	0.068399
O26	O	0.565948	0.779817	0.284486
O27	O	0.470668	0.779815	0.284489
O28	O	0.686711	0.779845	0.163686
O29	O	0.431228	1.045764	-0.012817
O30	O	0.605317	0.513939	0.244913
O31	O	0.726106	0.513942	0.244909
O32	O	0.726080	0.513967	0.124113
O33	O	0.310465	1.045736	0.107984
O34	O	0.431254	1.045739	0.107980
O35	O	0.566804	0.692332	0.209691
O36	O	0.637896	0.692348	0.138577
O37	O	0.540862	0.867358	0.093515
O38	O	0.469771	0.867342	0.164628
C39	C	0.552906	0.545953	0.081235
C40	C	0.564660	0.466570	0.069420
C41	C	0.418075	0.205138	0.216365
C42	C	0.429217	0.130455	0.205313
C43	C	0.503431	0.130481	0.131076
C44	C	0.492299	0.205163	0.142124
C45	C	0.449619	0.242486	0.184769
C46	C	0.523843	0.242510	0.110528
C47	C	0.512707	0.317189	0.121572
C48	C	0.470028	0.354520	0.164213
C49	C	0.438484	0.317164	0.195813
C50	C	0.566517	0.205191	0.067880
C51	C	0.598061	0.242539	0.036284
C52	C	0.586931	0.317213	0.047331
C53	C	0.544251	0.354544	0.089972
C54	C	0.618475	0.354569	0.015731
C55	C	0.607340	0.429247	0.026776
C56	C	0.533116	0.429223	0.101017
C57	C	0.328193	0.779848	0.116055
C58	C	0.263681	0.779846	0.116057
C59	C	0.284026	0.688495	0.139573
C60	C	0.223411	0.688494	0.139575
C61	C	0.142451	0.779849	0.116049
C62	C	0.122107	0.871211	0.092534
C63	C	0.182722	0.871210	0.092537
N64	N	0.009574	0.847856	0.065756
N65	N	-0.048005	0.847850	0.065753
C66	C	-0.040184	0.779858	0.116038
N67	N	0.027400	0.711855	0.166324
N68	N	0.084986	0.711857	0.166325
C69	C	0.076718	0.779860	0.116043
C70	C	-0.085562	0.688499	0.139560
C71	C	-0.146180	0.688501	0.139565
C72	C	-0.247484	0.871221	0.092517
C73	C	-0.186865	0.871216	0.092518
C74	C	-0.105906	0.779852	0.116037
C75	C	0.708352	0.779855	0.116042
C76	C	0.772864	0.779857	0.116040
C77	C	0.518232	0.779891	-0.074044
C78	C	0.518218	0.779905	-0.138559
C79	C	0.483639	1.013750	0.150861
C80	C	0.471885	1.093133	0.162676
C81	C	0.570710	0.779907	-0.168854
C82	C	0.570729	0.779887	-0.229465
C83	C	0.518242	0.779884	-0.259784
C84	C	0.465746	0.779875	-0.229480
C85	C	0.465734	0.779886	-0.168868
N86	N	0.447561	0.836911	-0.369652
N87	N	0.447575	0.836904	-0.427232
C88	C	0.518276	0.779851	-0.442404
N89	N	0.588965	0.722818	-0.397825
N90	N	0.588950	0.722830	-0.340241
C91	C	0.518250	0.779872	-0.325507
C92	C	0.570793	0.779830	-0.538420
C93	C	0.570814	0.779803	-0.599030
C94	C	0.465823	0.779802	-0.599046
C95	C	0.465810	0.779818	-0.538435
C96	C	0.518294	0.779837	-0.508126
C97	C	0.518313	0.779812	0.306140
C98	C	0.518327	0.779798	0.370656
C99	C	0.742986	0.545957	0.081229
C100	C	0.819251	0.466576	0.069412
C101	C	0.552946	0.545914	0.271327
C102	C	0.564714	0.466517	0.324028
C103	C	0.743026	0.545918	0.271321
C104	C	0.819305	0.466523	0.324019
C105	C	0.293519	1.013785	-0.039225
C106	C	0.217240	1.093181	-0.091923
C107	C	0.293559	1.013746	0.150868
C108	C	0.217294	1.093127	0.162685
C109	C	0.483599	1.013789	-0.039231
C110	C	0.471831	1.093186	-0.091931
C111	C	0.817942	0.429304	0.026738
C112	C	0.889594	0.354727	0.015621
C113	C	0.962556	0.317418	0.047183
C114	C	0.963863	0.354696	0.089859
C115	C	0.892211	0.429277	0.100971
C116	C	0.607365	0.429225	0.385901
C117	C	0.618418	0.354634	0.435426
C118	C	0.586825	0.317332	0.423076
C119	C	0.544168	0.354631	0.361197
C120	C	0.533111	0.429226	0.311674
C121	C	0.892242	0.429246	0.311646
C122	C	0.963919	0.354657	0.361158
C123	C	0.962658	0.317339	0.423041
C124	C	0.889713	0.354623	0.435413
C125	C	0.818037	0.429216	0.385903
C126	C	0.144301	1.130466	-0.079548
C127	C	0.072621	1.205079	-0.129056
C128	C	0.073882	1.242400	-0.190939
C129	C	0.146827	1.205111	-0.203312
C130	C	0.218505	1.130505	-0.153804
C131	C	0.218602	1.130407	0.205354
C132	C	0.146947	1.205004	0.216456
C133	C	0.073985	1.242316	0.184893
C134	C	0.072678	1.205034	0.142219
C135	C	0.144332	1.130443	0.131114
C136	C	0.503435	1.130464	-0.079562
C137	C	0.492393	1.205056	-0.129075
C138	C	0.449742	1.242372	-0.190956
C139	C	0.418137	1.205086	-0.203326
C140	C	0.429184	1.130491	-0.153814
H141	H	0.498363	0.459613	0.135742
F142	F	1.041522	0.314976	0.123447
H143	H	0.653155	0.324273	0.485806
H144	H	0.758538	0.459681	0.001027
H145	H	0.893288	0.459614	0.135724
H146	H	0.148027	1.235347	0.251207
H147	H	1.020894	0.256688	0.038129
F148	F	0.641000	0.468909	0.399059
F149	F	0.888186	0.315062	-0.029798
H150	H	0.056185	0.945593	0.073379
H151	H	0.613563	0.779799	-0.623695
F152	F	0.148157	1.244840	-0.269176
H153	H	0.440752	1.303113	-0.231266
F154	F	-0.002270	1.321703	0.196720
F155	F	0.487719	0.468903	0.245823
F156	F	-0.004981	1.244752	0.108633
F157	F	-0.005004	1.244748	-0.115875
H158	H	0.595834	0.256592	0.463406
H159	H	-0.019640	0.614105	0.158725
F160	F	0.893602	0.468953	0.245790
F161	F	0.510548	0.314920	0.348062
F162	F	0.142928	1.090770	0.085702
H163	H	0.015511	1.303149	-0.231246
H164	H	0.383409	1.235481	-0.253716
F165	F	1.041544	0.314987	0.347976
H166	H	0.613476	0.779889	-0.254136
F167	F	0.161066	0.968443	0.067507
F168	F	1.038949	0.237949	0.475728
H169	H	0.423091	0.779794	-0.623730
H170	H	0.613448	0.779919	-0.144178
H171	H	0.632808	0.212144	0.001561
F172	F	0.548832	1.090763	-0.013707
F173	F	0.526031	1.244729	-0.115897
H174	H	0.422988	0.779883	-0.144201
H175	H	0.423063	0.779822	-0.513768
F176	F	0.395535	1.090832	-0.166987
F177	F	0.888383	0.314897	0.501278
F178	F	0.740416	0.468876	0.399080
F179	F	0.142942	1.090757	-0.013692
F180	F	0.296130	1.090825	-0.166984
H181	H	0.403730	0.347555	0.230539
F182	F	0.458173	0.434004	0.175964
F183	F	0.372657	0.244858	0.261756
H184	H	0.403525	0.100051	0.231045
F185	F	-0.124522	0.591268	0.164603
F186	F	0.296246	1.090712	0.238951
H187	H	0.575577	0.144388	0.058886
F188	F	0.663886	0.314847	-0.029659
F189	F	0.548849	0.090755	0.085691
H190	H	0.633025	0.459657	0.001046
H191	H	0.349943	0.614100	0.158719
H192	H	-0.313402	0.945604	0.073361
F193	F	0.245061	0.591262	0.164603
H194	H	0.423012	0.779871	-0.254167
F195	F	0.626654	0.779844	-0.506162
F196	F	-0.208520	0.968446	0.067485
