data_functionalizedCrystal
_audit_creation_method	'MofGen! by Chris Wilmer'
_symmetry_space_group_name_H-M	'P1'
_symmetry_Int_Tables_number	1
_symmetry_cell_setting	triclinic
loop_
_symmetry_equiv_pos_as_xyz
  x,y,z
_cell_length_a	18.050589
_cell_length_b	18.050591
_cell_length_c	18.050582
_cell_angle_alpha	89.977259
_cell_angle_beta	90.018205
_cell_angle_gamma	89.978346
loop_
_atom_site_label
_atom_site_type_symbol
_atom_site_fract_x
_atom_site_fract_y
_atom_site_fract_z
Zn1	Zn	-0.295837	-1.135293	0.420090
Zn2	Zn	0.037497	-0.801959	0.753423
Zn3	Zn	0.370830	-0.468626	1.086757
Zn4	Zn	-0.420020	-1.135203	0.295909
Zn5	Zn	-0.086687	-0.801870	0.629243
Zn6	Zn	0.246647	-0.468537	0.962576
Zn7	Zn	-0.295834	-1.011112	0.295897
Zn8	Zn	0.037499	-0.677778	0.629230
Zn9	Zn	0.370833	-0.344445	0.962564
Zn10	Zn	-0.419975	-1.011060	0.420041
Zn11	Zn	-0.086642	-0.677726	0.753374
Zn12	Zn	0.246692	-0.344393	1.086708
O13	O	-0.357916	-1.073167	0.357984
O14	O	-0.024583	-0.739833	0.691318
O15	O	0.308750	-0.406500	1.024651
O16	O	-0.312330	-1.239205	0.403643
O17	O	0.021004	-0.905872	0.736976
O18	O	0.354337	-0.572539	1.070309
O19	O	-0.403564	-1.118727	0.191983
O20	O	-0.070231	-0.785393	0.525316
O21	O	0.263103	-0.452060	0.858650
O22	O	-0.191910	-1.027644	0.312387
O23	O	0.141423	-0.694310	0.645720
O24	O	0.474757	-0.360977	0.979054
O25	O	-0.403567	-1.239140	0.312408
O26	O	-0.070233	-0.905806	0.645741
O27	O	0.263100	-0.572473	0.979075
O28	O	-0.191912	-1.118879	0.403631
O29	O	0.141422	-0.785545	0.736964
O30	O	0.474755	-0.452212	1.070298
O31	O	-0.312325	-1.027557	0.191974
O32	O	0.021008	-0.694224	0.525307
O33	O	0.354341	-0.360890	0.858641
O34	O	-0.312282	-0.907180	0.312339
O35	O	0.021052	-0.573847	0.645673
O36	O	0.354385	-0.240514	0.979006
O37	O	-0.403490	-1.027555	0.523972
O38	O	-0.070157	-0.694222	0.857305
O39	O	0.263176	-0.360888	1.190639
O40	O	-0.403488	-0.907142	0.403547
O41	O	-0.070154	-0.573809	0.736881
O42	O	0.263179	-0.240475	1.070214
O43	O	-0.312286	-1.118828	0.524008
O44	O	0.021047	-0.785495	0.857341
O45	O	0.354380	-0.452162	1.190675
O46	O	-0.523939	-1.118676	0.312360
O47	O	-0.190605	-0.785343	0.645694
O48	O	0.142728	-0.452010	0.979027
O49	O	-0.523906	-1.027468	0.403559
O50	O	-0.190572	-0.694135	0.736893
O51	O	0.142761	-0.360802	1.070226
C52	C	-0.357880	-0.880215	0.357937
C53	C	-0.024547	-0.546881	0.691271
C54	C	0.308786	-0.213548	1.024604
C55	C	-0.357883	-0.797669	0.357935
C56	C	-0.024549	-0.464336	0.691268
C57	C	0.308784	-0.131002	1.024601
C58	C	-0.308220	-0.548843	0.308440
C59	C	0.025113	-0.215509	0.641773
C60	C	0.358446	0.117824	0.975107
C61	C	-0.290142	-0.598275	0.376217
C62	C	0.043191	-0.264941	0.709551
C63	C	0.376525	0.068392	1.042884
C64	C	-0.357905	-0.500548	0.357980
C65	C	-0.024572	-0.167215	0.691313
C66	C	0.308762	0.166118	1.024647
C67	C	-0.375937	-0.598198	0.290184
C68	C	-0.042604	-0.264865	0.623518
C69	C	0.290729	0.068468	0.956851
C70	C	-0.357892	-0.646534	0.357954
C71	C	-0.024559	-0.313200	0.691287
C72	C	0.308775	0.020133	1.024621
C73	C	-0.339791	-0.548893	0.425793
C74	C	-0.006458	-0.215560	0.759127
C75	C	0.326875	0.117773	1.092460
C76	C	-0.425618	-0.548813	0.339714
C77	C	-0.092285	-0.215479	0.673048
C78	C	0.241048	0.117854	1.006381
C79	C	-0.407566	-0.598222	0.407538
C80	C	-0.074232	-0.264889	0.740872
C81	C	0.259101	0.068444	1.074205
C82	C	-0.357910	-0.416450	0.357994
C83	C	-0.024577	-0.083117	0.691327
C84	C	0.308756	0.250216	1.024661
C85	C	-0.357887	-0.730630	0.357948
C86	C	-0.024553	-0.397297	0.691281
C87	C	0.308780	-0.063963	1.024615
C88	C	-0.550869	-1.073077	0.357972
C89	C	-0.217535	-0.739744	0.691305
C90	C	0.115798	-0.406410	1.024639
C91	C	-0.633414	-1.073107	0.357992
C92	C	-0.300081	-0.739773	0.691325
C93	C	0.033252	-0.406440	1.024658
C94	C	-0.832874	-1.023557	0.407568
C95	C	-0.499541	-0.690223	0.740902
C96	C	-0.166207	-0.356890	1.074235
C97	C	-0.882306	-1.005459	0.339798
C98	C	-0.548973	-0.672126	0.673132
C99	C	-0.215639	-0.338792	1.006465
C100	C	-0.784545	-1.073180	0.358001
C101	C	-0.451211	-0.739846	0.691335
C102	C	-0.117878	-0.406513	1.024668
C103	C	-0.882195	-1.091314	0.425779
C104	C	-0.548861	-0.757981	0.759112
C105	C	-0.215528	-0.424647	1.092446
C106	C	-0.930530	-1.073249	0.358017
C107	C	-0.597196	-0.739915	0.691350
C108	C	-0.263863	-0.406582	1.024683
C109	C	-0.832889	-1.055046	0.290196
C110	C	-0.499556	-0.721713	0.623529
C111	C	-0.166223	-0.388380	0.956862
C112	C	-0.832774	-1.140933	0.376222
C113	C	-0.499440	-0.807600	0.709555
C114	C	-0.166107	-0.474266	1.042888
C115	C	-0.882183	-1.122861	0.308405
C116	C	-0.548850	-0.789527	0.641739
C117	C	-0.215517	-0.456194	0.975072
C118	C	-0.700446	-1.073138	0.357993
C119	C	-0.367113	-0.739805	0.691327
C120	C	-0.033780	-0.406471	1.024660
C121	C	-1.014626	-1.073291	0.358017
C122	C	-0.681293	-0.739957	0.691350
C123	C	-0.347960	-0.406624	1.024684
C124	C	-0.164211	-1.073277	0.358013
C125	C	0.169122	-0.739944	0.691346
C126	C	0.502456	-0.406610	1.024680
C127	C	-0.081665	-1.073324	0.358025
C128	C	0.251668	-0.739991	0.691359
C129	C	0.585002	-0.406657	1.024692
C130	C	-0.357884	-1.073196	0.551690
C131	C	-0.024550	-0.739863	0.885023
C132	C	0.308783	-0.406529	1.218357
C133	C	-0.357870	-1.073208	0.634236
C134	C	-0.024536	-0.739875	0.967569
C135	C	0.308797	-0.406542	1.300903
C136	C	-0.357940	-0.266872	0.358019
C137	C	-0.024607	0.066461	0.691352
C138	C	0.308726	0.399794	1.024686
C139	C	-0.357917	-0.349418	0.358001
C140	C	-0.024583	-0.016085	0.691334
C141	C	0.308750	0.317249	1.024667
C142	C	-0.357896	-1.073181	0.165032
C143	C	-0.024562	-0.739847	0.498366
C144	C	0.308771	-0.406514	0.831699
C145	C	-0.357701	-1.073312	0.082487
C146	C	-0.024367	-0.739979	0.415820
C147	C	0.308966	-0.406645	0.749154
C148	C	-0.407399	-1.023612	0.833667
C149	C	-0.074065	-0.690278	1.167000
C150	C	0.259268	-0.356945	1.500334
C151	C	-0.425560	-1.091367	0.883069
C152	C	-0.092226	-0.758034	1.216402
C153	C	0.241107	-0.424700	1.549736
C154	C	-0.357813	-1.073245	0.785366
C155	C	-0.024480	-0.739912	1.118700
C156	C	0.308854	-0.406578	1.452033
C157	C	-0.339631	-1.005527	0.883046
C158	C	-0.006298	-0.672194	1.216379
C159	C	0.327036	-0.338860	1.549713
C160	C	-0.357760	-1.073274	0.931352
C161	C	-0.024426	-0.739941	1.264685
C162	C	0.308907	-0.406608	1.598018
C163	C	-0.376010	-1.141036	0.833681
C164	C	-0.042676	-0.807702	1.167014
C165	C	0.290657	-0.474369	1.500348
C166	C	-0.290049	-1.055150	0.833654
C167	C	0.043284	-0.721816	1.166987
C168	C	0.376617	-0.388483	1.500320
C169	C	-0.308185	-1.122952	0.883034
C170	C	0.025148	-0.789619	1.216367
C171	C	0.358482	-0.456285	1.549700
C172	C	-0.357845	-1.073227	0.701268
C173	C	-0.024512	-0.739894	1.034601
C174	C	0.308821	-0.406560	1.367935
C175	C	-0.357727	-1.073300	1.015448
C176	C	-0.024393	-0.739967	1.348781
C177	C	0.308940	-0.406633	1.682115
H178	H	-0.266178	-0.527163	0.266609
H179	H	0.067156	-0.193829	0.599942
H180	H	0.400489	0.139504	0.933275
Cl181	Cl	-0.472221	-0.958870	0.800198
Cl182	Cl	-0.138887	-0.625536	1.133531
Cl183	Cl	0.194446	-0.292203	1.466864
Cl184	Cl	-0.799595	-1.031307	0.201684
Cl185	Cl	-0.466261	-0.697973	0.535017
Cl186	Cl	-0.132928	-0.364640	0.868350
Cl187	Cl	-0.201722	-0.631811	0.400067
Cl188	Cl	0.131611	-0.298477	0.733401
Cl189	Cl	0.464944	0.034856	1.066734
Cl190	Cl	-0.399495	-0.631640	0.201683
Cl191	Cl	-0.066161	-0.298307	0.535016
Cl192	Cl	0.267172	0.035027	0.868350
Cl193	Cl	-0.399828	-1.229497	0.800347
Cl194	Cl	-0.066494	-0.896164	1.133681
Cl195	Cl	0.266839	-0.562830	1.467014
Cl196	Cl	-0.915402	-1.187699	0.243627
Cl197	Cl	-0.582069	-0.854365	0.576961
Cl198	Cl	-0.248735	-0.521032	0.910294
H199	H	-0.449577	-0.619766	0.449470
H200	H	-0.116244	-0.286433	0.782803
H201	H	0.217090	0.046900	1.116137
H202	H	-0.811222	-0.981531	0.449426
H203	H	-0.477889	-0.648197	0.782759
H204	H	-0.144556	-0.314864	1.116093
Cl205	Cl	-0.316130	-0.515599	0.514322
Cl206	Cl	0.017203	-0.182265	0.847655
Cl207	Cl	0.350537	0.151068	1.180988
H208	H	-0.482871	-0.527071	0.324251
H209	H	-0.149538	-0.193738	0.657585
H210	H	0.183795	0.139596	0.990918
Cl211	Cl	-0.799156	-1.229325	0.400044
Cl212	Cl	-0.465823	-0.895992	0.733377
Cl213	Cl	-0.132489	-0.562658	1.066710
H214	H	-0.903852	-1.106625	0.483091
H215	H	-0.570519	-0.773291	0.816425
H216	H	-0.237186	-0.439958	1.149758
Cl217	Cl	-0.513999	-1.115025	0.916583
Cl218	Cl	-0.180666	-0.781692	1.249916
Cl219	Cl	0.152667	-0.448359	1.583249
H220	H	-0.904080	-0.948195	0.324401
H221	H	-0.570746	-0.614861	0.657735
H222	H	-0.237413	-0.281528	0.991068
H223	H	-0.266229	-1.164986	0.904572
H224	H	0.067104	-0.831653	1.237906
H225	H	0.400438	-0.498319	1.571239
H226	H	-0.232782	-1.039807	0.811932
H227	H	0.100551	-0.706474	1.145265
H228	H	0.433884	-0.373141	1.478599
Cl229	Cl	-0.315921	-0.917092	0.916526
Cl230	Cl	0.017412	-0.583758	1.249860
Cl231	Cl	0.350746	-0.250425	1.583193
