data_functionalizedCrystal
_audit_creation_method	'MofGen! by Chris Wilmer'
_symmetry_space_group_name_H-M	'P1'
_symmetry_Int_Tables_number	1
_symmetry_cell_setting	triclinic
loop_
_symmetry_equiv_pos_as_xyz
  x,y,z
_cell_length_a	23.196402
_cell_length_b	15.698487
_cell_length_c	23.196401
_cell_angle_alpha	119.993011
_cell_angle_beta	90.011299
_cell_angle_gamma	120.000839
loop_
_atom_site_label
_atom_site_type_symbol
_atom_site_fract_x
_atom_site_fract_y
_atom_site_fract_z
Zr1	Zr	0.555371	-0.932375	-0.075663
O2	O	0.463300	-1.110090	-0.167712
O3	O	0.583593	-0.754663	-0.047446
O4	O	0.583568	-0.932376	-0.167715
O5	O	0.463348	-0.932375	0.047429
O6	O	0.678440	-0.932372	-0.167717
O7	O	0.463325	-0.932378	-0.047442
O8	O	0.678486	-0.614477	0.047423
O9	O	0.463302	-1.250271	-0.167712
O10	O	0.666434	-0.827754	-0.035412
O11	O	0.595650	-0.827755	0.035391
O12	O	0.595619	-1.036989	-0.106211
O13	O	0.524834	-1.036990	-0.035408
Zr14	Zr	0.706717	-0.932365	0.075643
Zr15	Zr	0.706680	-0.932369	-0.075666
Zr16	Zr	0.555407	-0.932371	0.075646
Zr17	Zr	0.555374	-1.155947	-0.075662
Zr18	Zr	0.706713	-0.708793	0.075642
O19	O	0.678494	-1.110077	0.047425
O20	O	0.678442	-1.110082	-0.167717
O21	O	0.463351	-1.110085	0.047430
O22	O	0.798788	-0.754650	0.167692
O23	O	0.798736	-0.754655	-0.047450
O24	O	0.583645	-0.754658	0.167696
O25	O	0.798739	-0.932365	-0.047450
O26	O	0.678520	-0.932364	0.167695
O27	O	0.583648	-0.932368	0.167697
O28	O	0.798762	-0.932363	0.047422
O29	O	0.583573	-1.250266	-0.167714
O30	O	0.678514	-0.614474	0.167694
O31	O	0.798785	-0.614469	0.167691
O32	O	0.798757	-0.614472	0.047421
O33	O	0.463331	-1.250268	-0.047441
O34	O	0.583602	-1.250264	-0.047444
O35	O	0.666468	-0.827751	0.106191
O36	O	0.737253	-0.827750	0.035388
O37	O	0.666438	-1.036985	-0.035411
O38	O	0.595653	-1.036986	0.035392
C39	C	0.631039	-0.652716	-0.000011
C40	C	0.631037	-0.557803	-0.000012
C41	C	0.441778	-0.932377	-0.000006
C42	C	0.377543	-0.932380	-0.000005
C43	C	0.631037	-0.480722	-0.000010
C44	C	0.631043	-0.384017	-0.000009
C45	C	0.347359	-0.932390	-0.052274
C46	C	0.287007	-0.932379	-0.052274
C47	C	0.256835	-0.932382	-0.000010
C48	C	0.287030	-0.932365	0.052268
C49	C	0.347384	-0.932364	0.052271
C50	C	0.137465	-1.002579	0.016276
C51	C	0.077110	-1.002587	0.016269
C52	C	0.070685	-0.932381	-0.000014
C53	C	0.124618	-0.862181	-0.016304
C54	C	0.184972	-0.862180	-0.016302
C55	C	0.191392	-0.932383	-0.000007
C56	C	-0.024939	-0.932377	-0.052285
C57	C	-0.085289	-0.932359	-0.052281
C58	C	-0.085269	-0.932358	0.052258
C59	C	-0.024917	-0.932364	0.052256
C60	C	0.005243	-0.932379	-0.000019
C61	C	0.820309	-0.932363	-0.000014
C62	C	0.884544	-0.932360	-0.000016
C63	C	0.631049	-0.212025	-0.000010
C64	C	0.631051	-0.306938	-0.000011
C65	C	0.630998	-0.932374	-0.189275
C66	C	0.630983	-0.932376	-0.253509
C67	C	0.594022	-1.041591	-0.320639
C68	C	0.594040	-1.041593	-0.380994
C69	C	0.631009	-0.932373	-0.374216
C70	C	0.667979	-0.823143	-0.307074
C71	C	0.667966	-0.823145	-0.246721
C72	C	0.625758	-0.848697	-0.441533
C73	C	0.625766	-0.848700	-0.501886
C74	C	0.631054	-0.932364	-0.560363
C75	C	0.636320	-1.016045	-0.558486
C76	C	0.636306	-1.016046	-0.498133
C77	C	0.631028	-0.932359	-0.439654
C78	C	0.594110	-1.041588	-0.692939
C79	C	0.594133	-1.041585	-0.753294
C80	C	0.668068	-0.823133	-0.679372
C81	C	0.668049	-0.823139	-0.619019
C82	C	0.631067	-0.932370	-0.625808
C83	C	0.631089	-0.932366	0.189254
C84	C	0.631104	-0.932364	0.253489
C85	C	0.820304	-0.652708	-0.000015
C86	C	0.884538	-0.557794	-0.000017
C87	C	0.631084	-0.652711	0.189253
C88	C	0.631098	-0.557798	0.253487
C89	C	0.820350	-0.652704	0.189249
C90	C	0.884598	-0.557788	0.253482
C91	C	0.441738	-1.212036	-0.189270
C92	C	0.377489	-1.306952	-0.253503
C93	C	0.441783	-1.212032	-0.000005
C94	C	0.377550	-1.306946	-0.000004
C95	C	0.631003	-1.212029	-0.189274
C96	C	0.630989	-1.306943	-0.253508
C97	C	0.877736	-0.513223	-0.036981
C98	C	0.938084	-0.424053	-0.036997
C99	C	1.005234	-0.379449	-0.000044
C100	C	1.012034	-0.424029	0.036921
C101	C	0.951687	-0.513203	0.036932
C102	C	0.668071	-0.513223	0.320616
C103	C	0.668081	-0.424054	0.380976
C104	C	0.631122	-0.379455	0.374207
C105	C	0.594145	-0.424039	0.307072
C106	C	0.594131	-0.513212	0.246713
C107	C	0.951726	-0.513214	0.246688
C108	C	1.012100	-0.424042	0.307036
C109	C	1.005345	-0.379441	0.374177
C110	C	0.938211	-0.424024	0.380970
C111	C	0.877838	-0.513200	0.320622
C112	C	0.310362	-1.351537	-0.246709
C113	C	0.249988	-1.440736	-0.307056
C114	C	0.256742	-1.485343	-0.374198
C115	C	0.323876	-1.440754	-0.380990
C116	C	0.384249	-1.351563	-0.320643
C117	C	0.384352	-1.351526	0.036954
C118	C	0.324003	-1.440721	0.036953
C119	C	0.256854	-1.485328	-0.000002
C120	C	0.250053	-1.440744	-0.036964
C121	C	0.310401	-1.351557	-0.036967
C122	C	0.667956	-1.351513	-0.246716
C123	C	0.667957	-1.440683	-0.307065
C124	C	0.630986	-1.485286	-0.374206
C125	C	0.594019	-1.440707	-0.380996
C126	C	0.594023	-1.351533	-0.320648
H127	H	0.371914	-0.932398	-0.094838
H128	H	0.698196	-0.387765	0.435635
N129	N	0.554142	-1.488831	-0.453415
H130	H	0.530721	-1.447070	-0.448568
H131	H	0.588075	-1.473309	-0.480063
H132	H	0.698170	-0.734204	-0.673852
N133	N	0.191625	-1.581527	-0.439285
H134	H	0.191582	-1.655537	-0.468339
H135	H	0.148112	-1.602894	-0.424732
N136	N	0.254441	-0.932421	-0.108667
H137	H	0.204263	-1.006706	-0.136124
H138	H	0.254579	-0.858107	-0.085833
N139	N	0.177626	-1.488847	-0.076810
H140	H	0.171977	-1.420804	-0.057416
H141	H	0.171990	-1.525869	-0.128506
H142	H	0.564053	-0.387713	0.301571
H143	H	0.698059	-1.476970	-0.301523
H144	H	0.563917	-1.315254	-0.326187
H145	H	0.932533	-0.387767	-0.067098
N146	N	0.243140	-0.786472	-0.033870
H147	H	0.229917	-0.741995	-0.044188
H148	H	0.288478	-0.726515	0.007523
H149	H	0.439023	-1.315214	0.067052
H150	H	0.438905	-1.315262	-0.326183
H151	H	0.119388	-0.805017	-0.029567
H152	H	-0.109863	-0.932360	-0.094843
N153	N	0.707935	-0.561313	0.327934
H154	H	0.674033	-0.650836	0.304538
H155	H	0.745126	-0.545705	0.304557
H156	H	0.957239	-0.549515	0.192024
N157	N	0.707913	-0.705342	-0.546610
H158	H	0.731337	-0.636149	-0.551472
H159	H	0.673974	-0.700584	-0.519974
H160	H	-0.109833	-0.932354	0.094815
N161	N	1.070467	-0.283235	0.439261
H162	H	1.056007	-0.261732	0.482829
H163	H	1.099493	-0.314336	0.439222
H164	H	0.621447	-0.780568	-0.393923
H165	H	0.304853	-1.315263	-0.067060
N166	N	0.007598	-0.932389	-0.108662
H167	H	-0.020681	-0.932384	-0.141773
H168	H	0.057779	-0.858115	-0.085806
N169	N	1.070316	-0.283268	-0.000063
H170	H	1.070338	-0.209276	0.020967
H171	H	1.113856	-0.261867	0.028943
N172	N	0.331159	-1.488863	-0.453407
H173	H	0.307758	-1.578384	-0.480093
H174	H	0.307758	-1.473263	-0.480031
H175	H	0.823065	-0.549539	-0.067081
H176	H	0.698081	-0.734216	-0.301559
N177	N	0.631149	-0.283261	0.439310
H178	H	0.581098	-0.314286	0.439350
H179	H	0.660216	-0.261826	0.482826
H180	H	0.957235	-0.549481	0.067037
N181	N	0.554208	-0.561347	0.174311
H182	H	0.530786	-0.519576	0.179189
H183	H	0.588100	-0.545863	0.147620
H184	H	0.262461	-0.932365	0.094823
H185	H	0.329554	-1.477006	0.067055
H186	H	0.698065	-0.734206	-0.192059
N187	N	1.084503	-0.375966	0.299701
H188	H	1.079615	-0.417748	0.248009
H189	H	1.111162	-0.286441	0.323133
H190	H	0.932722	-0.387696	0.435644
H191	H	-0.000341	-0.932363	0.094816
H192	H	0.698061	-1.315211	-0.192053
N193	N	1.084462	-0.375916	0.076775
H194	H	1.121653	-0.312659	0.071157
H195	H	1.090070	-0.338967	0.128461
H196	H	0.823183	-0.549480	0.326164
H197	H	0.304849	-1.315224	-0.192044
H198	H	0.207721	-1.557950	0.000006
N199	N	0.177585	-1.488814	-0.299721
H200	H	0.182473	-1.447008	-0.248029
H201	H	0.150922	-1.473306	-0.323155
N202	N	0.630993	-1.581456	-0.439293
H203	H	0.660024	-1.602915	-0.424796
H204	H	0.580918	-1.655407	-0.468321
H205	H	0.033199	-1.059753	0.029530
H206	H	0.621475	-0.780566	-0.503410
H207	H	0.142714	-1.059675	0.029594
H208	H	0.563911	-1.130536	-0.326173
N209	N	0.379950	-0.932339	0.108653
H210	H	0.351683	-0.932330	0.141767
H211	H	0.379854	-1.006613	0.085803
H212	H	0.563939	-1.130531	-0.435661
H213	H	0.640622	-1.084176	-0.606100
N214	N	0.641993	-1.106281	-0.496096
H215	H	0.600918	-1.190607	-0.535136
H216	H	0.687716	-1.095007	-0.502779
N217	N	0.554227	-1.159393	-0.700253
H218	H	0.530818	-1.228584	-0.751941
H219	H	0.588154	-1.164150	-0.676804
H220	H	0.564038	-1.130525	-0.807956
