data_functionalizedCrystal
_audit_creation_method	'MofGen! by Chris Wilmer'
_symmetry_space_group_name_H-M	'P1'
_symmetry_Int_Tables_number	1
_symmetry_cell_setting	triclinic
loop_
_symmetry_equiv_pos_as_xyz
  x,y,z
_cell_length_a	18.215407
_cell_length_b	16.959454
_cell_length_c	18.215399
_cell_angle_alpha	90.026105
_cell_angle_beta	90.016824
_cell_angle_gamma	90.020523
loop_
_atom_site_label
_atom_site_type_symbol
_atom_site_fract_x
_atom_site_fract_y
_atom_site_fract_z
Zn1	Zn	1.125075	-0.314661	0.416138
Zn2	Zn	1.625075	0.185339	0.916138
Zn3	Zn	1.125000	-0.446852	0.293080
Zn4	Zn	1.625000	0.053148	0.793080
Zn5	Zn	1.002014	-0.314693	0.293085
Zn6	Zn	1.502014	0.185307	0.793085
Zn7	Zn	1.001983	-0.446803	0.416105
Zn8	Zn	1.501983	0.053197	0.916105
O9	O	1.063518	-0.380752	0.354602
O10	O	1.563518	0.119248	0.854602
O11	O	1.228049	-0.332204	0.399825
O12	O	1.728049	0.167796	0.899825
O13	O	1.108667	-0.429355	0.190097
O14	O	1.608667	0.070645	0.690097
O15	O	1.018382	-0.204078	0.309424
O16	O	1.518382	0.295922	0.809424
O17	O	1.227994	-0.429325	0.309416
O18	O	1.727994	0.070675	0.809416
O19	O	1.108794	-0.204055	0.399830
O20	O	1.608794	0.295945	0.899830
O21	O	1.018309	-0.332258	0.190100
O22	O	1.518309	0.167742	0.690100
O23	O	0.899025	-0.332210	0.309392
O24	O	1.399025	0.167790	0.809392
O25	O	1.018330	-0.429240	0.519094
O26	O	1.518330	0.070760	1.019094
O27	O	0.899003	-0.429271	0.399775
O28	O	1.399003	0.070729	0.899775
O29	O	1.108765	-0.332156	0.519118
O30	O	1.608765	0.167844	1.019118
O31	O	1.108638	-0.557457	0.309385
O32	O	1.608638	-0.057457	0.809385
O33	O	1.018258	-0.557420	0.399770
O34	O	1.518258	-0.057420	0.899770
C35	C	0.872312	-0.380739	0.354581
C36	C	1.372312	0.119261	0.854581
C37	C	0.790513	-0.380752	0.354589
C38	C	1.290513	0.119248	0.854589
C39	C	1.063456	-0.586119	0.354590
C40	C	1.563456	-0.086119	0.854590
C41	C	1.063497	-0.673975	0.354609
C42	C	1.563497	-0.173975	0.854609
C43	C	0.602327	-0.431371	0.401593
C44	C	1.102327	0.068629	0.901593
C45	C	0.525468	-0.431374	0.401602
C46	C	1.025468	0.068626	0.901602
C47	C	0.525461	-0.330148	0.307628
C48	C	1.025461	0.169852	0.807628
C49	C	0.602319	-0.330142	0.307623
C50	C	1.102319	0.169858	0.807623
C51	C	0.640749	-0.380758	0.354604
C52	C	1.140749	0.119242	0.854604
C53	C	0.487033	-0.380766	0.354618
C54	C	0.987033	0.119234	0.854618
C55	C	0.403700	-0.380769	0.354628
C56	C	0.903700	0.119231	0.854628
C57	C	0.724088	-0.380755	0.354596
C58	C	1.224088	0.119245	0.854596
C59	C	1.016526	-1.045462	0.401661
C60	C	1.516526	-0.545462	0.901661
C61	C	1.110715	-1.045440	0.307618
C62	C	1.610715	-0.545440	0.807618
C63	C	1.110690	-0.962894	0.307611
C64	C	1.610690	-0.462894	0.807611
C65	C	1.063580	-0.921628	0.354629
C66	C	1.563580	-0.421628	0.854629
C67	C	1.016497	-0.962908	0.401654
C68	C	1.516497	-0.462908	0.901654
C69	C	1.157767	-0.921608	0.260582
C70	C	1.657767	-0.421608	0.760582
C71	C	1.157743	-0.839057	0.260573
C72	C	1.657743	-0.339057	0.760573
C73	C	1.110637	-0.797789	0.307595
C74	C	1.610637	-0.297789	0.807595
C75	C	1.063552	-0.839075	0.354622
C76	C	1.563552	-0.339075	0.854622
C77	C	1.016442	-0.797809	0.401640
C78	C	1.516442	-0.297809	0.901640
C79	C	0.969361	-0.839093	0.448672
C80	C	1.469361	-0.339093	0.948672
C81	C	0.969391	-0.921641	0.448676
C82	C	1.469391	-0.421641	0.948676
C83	C	1.110606	-0.715241	0.307591
C84	C	1.610606	-0.215241	0.807591
C85	C	1.016414	-0.715255	0.401634
C86	C	1.516414	-0.215255	0.901634
C87	C	1.255471	-0.380767	0.354624
C88	C	1.755471	0.119233	0.854624
C89	C	1.337270	-0.380773	0.354633
C90	C	1.837270	0.119227	0.854633
C91	C	1.063553	-0.380689	0.546555
C92	C	1.563553	0.119311	1.046555
C93	C	1.063568	-0.380662	0.628354
C94	C	1.563568	0.119338	1.128354
C95	C	1.063600	-0.174584	0.354631
C96	C	1.563600	0.325416	0.854631
C97	C	1.063635	-0.086728	0.354643
C98	C	1.563635	0.413272	0.854643
C99	C	1.063526	-0.380758	0.163396
C100	C	1.563526	0.119242	0.663396
C101	C	1.063653	-0.380562	0.081597
C102	C	1.563653	0.119438	0.581597
C103	C	1.016558	-0.330070	0.816551
C104	C	1.516558	0.169930	1.316551
C105	C	1.016571	-0.330054	0.893409
C106	C	1.516571	0.169946	1.393409
C107	C	1.110665	-0.431161	0.893395
C108	C	1.610665	0.068839	1.393395
C109	C	1.110648	-0.431180	0.816538
C110	C	1.610648	0.068820	1.316538
C111	C	1.063596	-0.380630	0.778118
C112	C	1.563596	0.119370	1.278118
C113	C	1.063625	-0.380595	0.931834
C114	C	1.563625	0.119405	1.431834
C115	C	1.063640	-0.380578	1.015168
C116	C	1.563640	0.119422	1.515168
C117	C	1.063580	-0.380648	0.694779
C118	C	1.563580	0.119352	1.194779
H119	H	0.633615	-0.472584	0.439850
H120	H	1.133615	0.027416	0.939850
H121	H	0.494187	-0.472586	0.439866
H122	H	0.994187	0.027414	0.939866
H123	H	0.978245	-0.288909	0.785271
H124	H	1.478245	0.211091	1.285271
F125	F	0.484554	-0.276283	0.257629
F126	F	0.984554	0.223717	0.757629
F127	F	1.160712	-0.484999	0.775632
F128	F	1.660712	0.015001	1.275632
F129	F	1.160704	-0.671308	0.257534
F130	F	1.660704	-0.171308	0.757534
H131	H	0.633603	-0.288922	0.269359
H132	H	1.133603	0.211078	0.769359
F133	F	0.966499	-0.276249	0.934309
F134	F	1.466499	0.223751	1.434309
H135	H	0.978054	-0.681662	0.439924
H136	H	1.478054	-0.181662	0.939924
H137	H	0.931001	-0.805485	0.486951
H138	H	1.431001	-0.305485	0.986951
F139	F	1.207903	-0.965529	0.210549
F140	F	1.707903	-0.465529	0.710549
F141	F	0.919287	-0.965583	0.498725
F142	F	1.419287	-0.465583	0.998725
H143	H	0.978195	-1.079079	0.439955
H144	H	1.478195	-0.579079	0.939955
F145	F	1.160849	-1.089360	0.257581
F146	F	1.660849	-0.589360	0.757581
H147	H	1.148974	-0.472316	0.924687
H148	H	1.648974	0.027684	1.424687
F149	F	1.207855	-0.795127	0.210523
F150	F	1.707855	-0.295127	0.710523
