data_functionalizedCrystal
_audit_creation_method	'MofGen! by Chris Wilmer'
_symmetry_space_group_name_H-M	'P1'
_symmetry_Int_Tables_number	1
_symmetry_cell_setting	triclinic
loop_
_symmetry_equiv_pos_as_xyz
  x,y,z
_cell_length_a	23.532407
_cell_length_b	22.010155
_cell_length_c	10.540539
_cell_angle_alpha	90.006440
_cell_angle_beta	96.312916
_cell_angle_gamma	90.003069
loop_
_atom_site_label
_atom_site_type_symbol
_atom_site_fract_x
_atom_site_fract_y
_atom_site_fract_z
O1	O	0.756281	0.050447	-0.154064
O2	O	0.590565	0.050464	-0.176358
O3	O	0.677204	0.050454	0.019620
O4	O	0.669643	0.050457	-0.350041
O5	O	0.677188	-0.050596	0.019590
O6	O	0.590549	-0.050586	-0.176387
O7	O	0.756266	-0.050604	-0.154093
Cu8	Cu	0.673406	-0.059822	-0.165243
Cu9	Cu	0.673425	0.059682	-0.165208
O10	O	0.669627	-0.050594	-0.350071
C11	C	0.569338	-0.000059	-0.175805
C12	C	0.506109	-0.000052	-0.174098
C13	C	0.107702	-0.000079	-0.279368
C14	C	0.048291	-0.000083	-0.277782
O15	O	0.012191	-0.000104	-0.375368
N16	N	0.024895	-0.000082	-0.161273
C17	C	0.060914	-0.000085	-0.046343
O18	O	0.035558	-0.000085	0.052903
C19	C	0.120323	-0.000085	-0.047930
C20	C	0.143715	-0.000079	-0.164446
C21	C	0.131094	-0.000074	-0.395874
C22	C	0.190501	-0.000069	-0.397460
C23	C	0.226515	-0.000069	-0.282538
C24	C	0.203122	-0.000074	-0.166031
C25	C	0.156340	-0.000092	0.066999
C26	C	0.215753	-0.000093	0.065402
C27	C	0.239146	-0.000087	-0.051114
C28	C	0.298542	-0.000070	-0.052694
N29	N	0.321938	-0.000070	-0.169203
C30	C	0.285924	-0.000070	-0.284125
C31	C	-0.063851	-0.000084	-0.043019
C32	C	-0.123259	-0.000079	-0.041431
C33	C	-0.135878	-0.000079	-0.272870
C34	C	-0.076468	-0.000079	-0.274457
C35	C	-0.040455	-0.000085	-0.159528
C36	C	0.410683	-0.000059	-0.287445
C37	C	0.470095	-0.000052	-0.289020
C38	C	0.482709	-0.000056	-0.057581
C39	C	0.423302	-0.000060	-0.056005
C40	C	0.387290	-0.000064	-0.170948
O41	O	0.334677	-0.000051	0.044840
O42	O	0.311288	-0.000077	-0.383354
N43	N	0.673397	-0.143874	-0.165266
C44	C	0.711791	-0.563658	-0.078441
C45	C	0.711793	-0.627266	-0.078433
O46	O	0.744414	-0.660161	-0.004627
N47	N	0.673424	-0.659081	-0.165182
C48	C	0.635046	-0.627286	-0.251936
O49	O	0.602410	-0.660189	-0.325721
C50	C	0.635041	-0.563680	-0.251938
C51	C	0.673417	-0.531867	-0.165192
C52	C	0.750163	-0.531845	0.008298
C53	C	0.750161	-0.468242	0.008288
C54	C	0.711787	-0.436451	-0.078463
C55	C	0.673415	-0.468264	-0.165203
C56	C	0.596661	-0.531886	-0.338686
C57	C	0.596659	-0.468275	-0.338679
C58	C	0.635035	-0.436462	-0.251933
C59	C	0.635039	-0.372870	-0.251964
N60	N	0.673408	-0.341054	-0.165215
C61	C	0.711782	-0.372845	-0.078464
C62	C	0.635059	-0.760864	-0.251925
C63	C	0.635066	-0.824469	-0.251930
C64	C	0.711813	-0.824444	-0.078424
C65	C	0.711808	-0.760838	-0.078426
C66	C	0.673428	-0.729048	-0.165176
C67	C	0.711775	-0.239274	-0.078494
C68	C	0.711771	-0.175665	-0.078516
C69	C	0.635023	-0.175695	-0.252016
C70	C	0.635028	-0.239299	-0.252000
C71	C	0.673407	-0.271086	-0.165228
O72	O	0.602433	-0.339935	-0.325728
O73	O	0.744407	-0.339935	-0.004681
C74	C	0.777493	-0.000079	-0.154646
C75	C	0.840722	-0.000082	-0.156353
C76	C	0.676629	-0.000070	0.066889
C77	C	0.674933	-0.000066	0.207782
N78	N	0.673438	0.143735	-0.165174
C79	C	0.670202	-0.000068	-0.397340
C80	C	0.671898	-0.000068	-0.538233
C81	C	0.609924	0.000167	0.389075
C82	C	0.611644	-0.000060	0.242514
C83	C	0.705381	-0.057774	0.270422
C84	C	0.703221	-0.057823	0.416896
C85	C	0.704526	0.057090	0.417490
C86	C	0.705109	0.057853	0.270527
H87	H	-0.165212	-0.000081	-0.366446
H88	H	0.682830	0.100544	0.228950
H89	H	-0.142300	-0.000075	0.053448
O90	O	0.766944	-0.060629	0.242820
H91	H	0.795394	-0.060001	0.334074
O92	O	0.753200	-0.858746	0.015144
H93	H	0.797657	-0.846543	-0.000535
O94	O	0.555291	-0.566189	-0.432293
H95	H	0.528614	-0.533387	-0.492614
O96	O	0.521560	-0.000065	0.066364
H97	H	0.548938	0.041117	0.071191
H98	H	-0.034532	-0.000083	0.050577
O99	O	0.766234	0.062467	0.240468
H100	H	0.776105	0.023374	0.180075
O101	O	0.131118	-0.000111	0.192671
H102	H	0.166150	-0.000122	0.272303
O103	O	0.576804	0.054974	0.425904
H104	H	0.604157	0.082632	0.496416
O105	O	0.753159	-0.141351	0.015057
H106	H	0.779837	-0.174148	0.075390
O107	O	0.677423	0.115041	0.458403
H108	H	0.632277	0.117098	0.415168
O109	O	0.254596	-0.000103	0.189367
H110	H	0.281971	0.041082	0.194201
O111	O	0.753174	-0.273555	0.015077
H112	H	0.779858	-0.240740	0.075371
H113	H	0.781407	-0.442344	0.078927
O114	O	0.753186	-0.726522	0.015151
H115	H	0.797647	-0.738723	-0.000502
O116	O	0.398065	-0.000064	0.069661
H117	H	0.433091	-0.000066	0.149305
H118	H	0.781411	-0.557724	0.078947
O119	O	0.576930	-0.054339	0.427961
H120	H	0.604481	-0.081598	0.498834
O121	O	0.673392	-0.114954	0.453256
H122	H	0.702874	-0.141886	0.520864
H123	H	0.750240	0.057474	0.466216
O124	O	0.579671	-0.054943	0.186131
H125	H	0.580784	-0.055294	0.081134
H126	H	0.603823	-0.850367	-0.322580
O127	O	0.763507	-0.061316	0.482432
H128	H	0.788241	-0.021442	0.454687
O129	O	0.593667	-0.726573	-0.345501
H130	H	0.601329	-0.738783	-0.444368
O131	O	0.495327	-0.000055	-0.414695
H132	H	0.460300	-0.000065	-0.494337
O133	O	0.677353	-0.114658	0.213067
H134	H	0.641742	-0.101974	0.139967
H135	H	0.381368	-0.000064	-0.381042
H136	H	0.565404	-0.442395	-0.409320
O137	O	0.593644	-0.273618	-0.345565
H138	H	0.549188	-0.261413	-0.329886
O139	O	0.215729	-0.000081	-0.523130
H140	H	0.180698	-0.000091	-0.602765
O141	O	0.593620	-0.141402	-0.345551
H142	H	0.600060	-0.091829	-0.330955
H143	H	0.101777	-0.000076	-0.489463
O144	O	0.579897	0.054726	0.185035
H145	H	0.563173	0.081622	0.261911
H146	H	-0.057427	-0.000078	-0.369335
