data_functionalizedCrystal
_audit_creation_method	'MofGen! by Chris Wilmer'
_symmetry_space_group_name_H-M	'P1'
_symmetry_Int_Tables_number	1
_symmetry_cell_setting	triclinic
loop_
_symmetry_equiv_pos_as_xyz
  x,y,z
_cell_length_a	16.109302
_cell_length_b	17.019294
_cell_length_c	14.586319
_cell_angle_alpha	86.117240
_cell_angle_beta	89.994552
_cell_angle_gamma	83.427801
loop_
_atom_site_label
_atom_site_type_symbol
_atom_site_fract_x
_atom_site_fract_y
_atom_site_fract_z
O1	O	1.103039	0.101398	-0.084285
O2	O	1.436372	0.434731	0.249048
O3	O	1.769706	0.768064	0.582382
O4	O	0.860966	0.114015	-0.085274
O5	O	1.194299	0.447349	0.248059
O6	O	1.527632	0.780682	0.581393
O7	O	0.988756	-0.007128	-0.075709
O8	O	1.322089	0.326205	0.257624
O9	O	1.655422	0.659539	0.590957
O10	O	0.975249	0.222541	-0.093849
O11	O	1.308583	0.555874	0.239484
O12	O	1.641916	0.889207	0.572817
O13	O	0.988747	-0.007130	0.076772
O14	O	1.322080	0.326204	0.410105
O15	O	1.655413	0.659537	0.743438
O16	O	0.860957	0.114014	0.067207
O17	O	1.194290	0.447347	0.400540
O18	O	1.527624	0.780680	0.733874
O19	O	1.103030	0.101396	0.068196
O20	O	1.436364	0.434729	0.401529
O21	O	1.769697	0.768062	0.734863
Cu22	Cu	0.981993	0.107704	0.081624
Cu23	Cu	1.315326	0.441038	0.414958
Cu24	Cu	1.648659	0.774371	0.748291
Cu25	Cu	0.982003	0.107707	-0.098702
Cu26	Cu	1.315337	0.441040	0.234631
Cu27	Cu	1.648670	0.774373	0.567964
O28	O	0.975240	0.222539	0.058631
O29	O	1.308574	0.555872	0.391965
O30	O	1.641907	0.889206	0.725298
C31	C	0.829987	0.113503	-0.008992
C32	C	1.163320	0.446837	0.324341
C33	C	1.496654	0.780170	0.657675
C34	C	0.737693	0.111971	-0.008868
C35	C	1.071026	0.445304	0.324465
C36	C	1.404360	0.778637	0.657798
C37	C	0.525351	0.108426	0.074520
C38	C	0.858684	0.441759	0.407853
C39	C	1.192017	0.775092	0.741187
C40	C	0.438632	0.106977	0.074631
C41	C	0.771965	0.440310	0.407965
C42	C	1.105298	0.773644	0.741298
C43	C	0.438652	0.106983	-0.091612
C44	C	0.771985	0.440316	0.241721
C45	C	1.105319	0.773650	0.575054
C46	C	0.525370	0.108426	-0.091722
C47	C	0.858703	0.441759	0.241611
C48	C	1.192037	0.775093	0.574945
C49	C	0.568716	0.109151	-0.008654
C50	C	0.902050	0.442485	0.324680
C51	C	1.235383	0.775818	0.658013
C52	C	0.395280	0.106260	-0.008432
C53	C	0.728613	0.439593	0.324901
C54	C	1.061946	0.772926	0.658234
C55	C	0.301255	0.104689	-0.008313
C56	C	0.634589	0.438023	0.325021
C57	C	0.967922	0.771356	0.658354
C58	C	0.662747	0.110720	-0.008773
C59	C	0.996080	0.444054	0.324560
C60	C	1.329414	0.777387	0.657894
C61	C	0.988239	-0.036518	0.002850
C62	C	1.321572	0.296815	0.336184
C63	C	1.654906	0.630149	0.669517
C64	C	0.986703	-0.124088	0.009761
C65	C	1.320036	0.209245	0.343095
C66	C	1.653369	0.542579	0.676428
C67	C	0.985988	-0.165223	-0.070109
C68	C	1.319321	0.168110	0.263225
C69	C	1.652654	0.501444	0.596558
C70	C	0.984539	-0.247504	-0.063612
C71	C	1.317872	0.085830	0.269721
C72	C	1.651205	0.419163	0.603055
C73	C	0.983811	-0.288648	0.022755
C74	C	1.317144	0.044685	0.356088
C75	C	1.650478	0.378018	0.689422
C76	C	0.984524	-0.247507	0.102631
C77	C	1.317857	0.085826	0.435964
C78	C	1.651190	0.419159	0.769298
C79	C	0.985966	-0.165227	0.096134
C80	C	1.319300	0.168106	0.429467
C81	C	1.652633	0.501439	0.762800
C82	C	0.979449	-0.537080	0.046531
C83	C	1.312782	-0.203747	0.379864
C84	C	1.646115	0.129587	0.713198
C85	C	0.978008	-0.619366	0.053023
C86	C	1.311342	-0.286033	0.386356
C87	C	1.644675	0.047301	0.719689
C88	C	0.978022	-0.619357	-0.113221
C89	C	1.311356	-0.286023	0.220112
C90	C	1.644689	0.047310	0.553445
C91	C	0.979470	-0.537076	-0.119711
C92	C	1.312803	-0.203742	0.213622
C93	C	1.646137	0.129591	0.546956
C94	C	0.980178	-0.495941	-0.039835
C95	C	1.313511	-0.162608	0.293498
C96	C	1.646845	0.170726	0.626831
C97	C	0.982333	-0.372753	0.029398
C98	C	1.315666	-0.039419	0.362731
C99	C	1.648999	0.293914	0.696064
C100	C	0.981650	-0.411838	-0.046479
C101	C	1.314984	-0.078504	0.286855
C102	C	1.648317	0.254829	0.620188
C103	C	1.134009	0.101908	-0.008088
C104	C	1.467342	0.435241	0.325245
C105	C	1.800676	0.768574	0.658579
C106	C	1.226303	0.103440	-0.008218
C107	C	1.559636	0.436774	0.325116
C108	C	1.892970	0.770107	0.658449
C109	C	0.975757	0.251929	-0.019930
C110	C	1.309090	0.585262	0.313403
C111	C	1.642424	0.918596	0.646736
C112	C	0.977293	0.339499	-0.026847
C113	C	1.310627	0.672832	0.306486
C114	C	1.643960	1.006166	0.639819
N115	N	0.981991	0.107702	0.208456
N116	N	1.315325	0.441036	0.541789
N117	N	1.648658	0.774369	0.875123
N118	N	0.982011	0.107702	-0.225534
N119	N	1.315344	0.441036	0.107800
N120	N	1.648678	0.774369	0.441133
C121	C	1.038595	0.054078	0.447696
C122	C	1.371929	0.387412	0.781030
C123	C	1.705262	0.720745	1.114363
C124	C	1.038598	0.054076	0.543678
C125	C	1.371931	0.387410	0.877011
C126	C	1.705265	0.720743	1.210344
C127	C	0.925401	0.161329	0.535219
C128	C	1.258734	0.494662	0.868553
C129	C	1.592068	0.827996	1.201886
C130	C	0.925395	0.161327	0.439240
C131	C	1.258729	0.494660	0.772573
C132	C	1.592062	0.827993	1.105907
C133	C	0.981997	0.107702	0.395481
C134	C	1.315331	0.441035	0.728814
C135	C	1.648664	0.774369	1.062148
C136	C	0.982005	0.107703	0.587442
C137	C	1.315339	0.441036	0.920775
C138	C	1.648672	0.774369	1.254108
C139	C	0.982008	0.107701	0.691509
C140	C	1.315341	0.441034	1.024842
C141	C	1.648674	0.774368	1.358176
C142	C	0.981994	0.107703	0.291407
C143	C	1.315328	0.441036	0.624740
C144	C	1.648661	0.774369	0.958074
H145	H	0.986585	-0.131729	-0.140438
H146	H	1.319918	0.201604	0.192895
H147	H	1.653251	0.534937	0.526228
O148	O	0.983754	-0.291853	-0.149771
O149	O	1.317088	0.041481	0.183562
O150	O	1.650421	0.374814	0.516895
H151	H	1.039727	-0.336394	-0.150251
H152	H	1.373060	-0.003061	0.183082
H153	H	1.706393	0.330273	0.516415
O154	O	0.980238	-0.492695	-0.212864
O155	O	1.313571	-0.159362	0.120469
O156	O	1.646905	0.173972	0.453802
H157	H	0.979486	-0.535122	-0.267314
H158	H	1.312819	-0.201788	0.066020
H159	H	1.646153	0.131545	0.399353
O160	O	0.864369	0.219177	0.582418
O161	O	1.197702	0.552511	0.915752
O162	O	1.531035	0.885844	1.249085
H163	H	0.799567	0.209111	0.564815
H164	H	1.132900	0.542444	0.898149
H165	H	1.466233	0.875778	1.231482
H166	H	0.560641	0.109016	0.142160
H167	H	0.893974	0.442350	0.475493
H168	H	1.227307	0.775683	0.808826
H169	H	0.981743	-0.406262	0.099718
H170	H	1.315076	-0.072929	0.433052
H171	H	1.648409	0.260404	0.766385
H172	H	1.084683	0.010413	0.412070
H173	H	1.418016	0.343746	0.745403
H174	H	1.751350	0.677079	1.078737
H175	H	0.403327	0.106386	0.142359
H176	H	0.736660	0.439720	0.475693
H177	H	1.069994	0.773053	0.809026
O178	O	1.099653	-0.003751	0.599999
O179	O	1.432986	0.329583	0.933332
O180	O	1.766319	0.662916	1.266665
H181	H	1.139014	-0.041030	0.553441
H182	H	1.472347	0.292303	0.886775
H183	H	1.805681	0.625636	1.220108
O184	O	0.391899	0.106212	-0.181207
O185	O	0.725233	0.439546	0.152127
O186	O	1.058566	0.772879	0.485460
H187	H	0.324312	0.105097	-0.167160
H188	H	0.657645	0.438430	0.166173
H189	H	0.990978	0.771763	0.499507
O190	O	0.864350	0.219169	0.382911
O191	O	1.197684	0.552502	0.716244
O192	O	1.531017	0.885836	1.049577
H193	H	0.825002	0.256466	0.429461
H194	H	1.158335	0.589800	0.762795
H195	H	1.491668	0.923133	1.096128
H196	H	0.560680	0.109015	-0.159456
H197	H	0.894013	0.442348	0.173877
H198	H	1.227346	0.775681	0.507211
H199	H	0.986537	-0.131735	0.161172
H200	H	1.319870	0.201599	0.494506
H201	H	1.653204	0.534932	0.827839
O202	O	0.982428	-0.367463	-0.139630
O203	O	1.315761	-0.034129	0.193703
O204	O	1.649095	0.299204	0.527036
H205	H	1.038791	-0.390297	-0.177690
H206	H	1.372124	-0.056964	0.155643
H207	H	1.705458	0.276370	0.488976
H208	H	0.977444	-0.652857	-0.178252
H209	H	1.310777	-0.319524	0.155082
H210	H	1.644111	0.013810	0.488415
O211	O	0.977214	-0.663748	0.146180
O212	O	1.310548	-0.330414	0.479513
O213	O	1.643881	0.002919	0.812846
H214	H	0.977940	-0.621321	0.200632
H215	H	1.311273	-0.287987	0.533965
H216	H	1.644607	0.045346	0.867298
H217	H	0.980042	-0.503600	0.111572
H218	H	1.313375	-0.170267	0.444905
H219	H	1.646709	0.163066	0.778239
H220	H	0.983926	-0.281013	0.172953
H221	H	1.317259	0.052320	0.506287
H222	H	1.650593	0.385653	0.839620
