data_functionalizedCrystal
_audit_creation_method	'MofGen! by Chris Wilmer'
_symmetry_space_group_name_H-M	'P1'
_symmetry_Int_Tables_number	1
_symmetry_cell_setting	triclinic
loop_
_symmetry_equiv_pos_as_xyz
  x,y,z
_cell_length_a	14.971482
_cell_length_b	14.044190
_cell_length_c	14.048226
_cell_angle_alpha	89.988942
_cell_angle_beta	89.994098
_cell_angle_gamma	88.402193
loop_
_atom_site_label
_atom_site_type_symbol
_atom_site_fract_x
_atom_site_fract_y
_atom_site_fract_z
O1	O	1.196683	0.123521	-0.079159
O2	O	1.696683	0.623521	0.420841
O3	O	0.937448	0.138319	-0.079165
O4	O	1.437448	0.638319	0.420835
O5	O	1.063171	-0.007069	-0.079144
O6	O	1.563171	0.492931	0.420856
O7	O	1.070960	0.268909	-0.079181
O8	O	1.570960	0.768909	0.420819
O9	O	1.063154	-0.007078	0.079178
O10	O	1.563154	0.492922	0.579178
O11	O	0.937431	0.138310	0.079156
O12	O	1.437431	0.638310	0.579156
O13	O	1.196666	0.123512	0.079162
O14	O	1.696666	0.623512	0.579162
Zn15	Zn	1.067046	0.130910	0.104296
Zn16	Zn	1.567046	0.630910	0.604296
Zn17	Zn	1.067068	0.130921	-0.104299
Zn18	Zn	1.567068	0.630921	0.395701
O19	O	1.070943	0.268900	0.079140
O20	O	1.570943	0.768900	0.579140
C21	C	0.904063	0.137653	-0.000005
C22	C	1.404063	0.637653	0.499995
C23	C	0.804609	0.135672	-0.000006
C24	C	1.304609	0.635672	0.499994
C25	C	0.757882	0.134734	0.086296
C26	C	1.257882	0.634734	0.586296
C27	C	0.664435	0.132857	0.086297
C28	C	1.164435	0.632857	0.586297
C29	C	0.617718	0.131925	-0.000005
C30	C	1.117718	0.631925	0.499995
C31	C	0.664452	0.132860	-0.086314
C32	C	1.164452	0.632860	0.413686
C33	C	0.757897	0.134730	-0.086314
C34	C	1.257897	0.634730	0.413686
C35	C	0.469683	0.128965	-0.086307
C36	C	0.969683	0.628965	0.413693
C37	C	0.376232	0.127097	-0.086307
C38	C	0.876232	0.627097	0.413693
C39	C	0.376222	0.127092	0.086304
C40	C	0.876222	0.627092	0.586304
C41	C	0.469667	0.128962	0.086304
C42	C	0.969667	0.628962	0.586304
C43	C	0.516394	0.129899	-0.000006
C44	C	1.016394	0.629899	0.499994
C45	C	1.059755	-0.042392	0.000020
C46	C	1.559755	0.457608	0.500020
C47	C	1.049591	-0.147629	0.000028
C48	C	1.549591	0.352371	0.500028
C49	C	1.103093	-0.397856	-0.000008
C50	C	1.603093	0.102144	0.499992
C51	C	1.031025	-0.340307	-0.000003
C52	C	1.531025	0.159693	0.499997
C53	C	1.041358	-0.233092	0.000014
C54	C	1.541358	0.266908	0.500014
C55	C	1.092761	-0.505082	-0.000026
C56	C	1.592761	-0.005082	0.499974
C57	C	1.230051	0.124178	-0.000000
C58	C	1.730051	0.624178	0.500000
C59	C	1.329504	0.126159	-0.000005
C60	C	1.829504	0.626159	0.499995
C61	C	1.074359	0.304223	-0.000025
C62	C	1.574359	0.804223	0.499975
C63	C	1.084522	0.409460	-0.000039
C64	C	1.584522	0.909460	0.499961
N65	N	1.067037	0.130902	0.246657
N66	N	1.567037	0.630902	0.746657
N67	N	1.067084	0.130922	-0.246660
N68	N	1.567084	0.630922	0.253340
C69	C	1.122728	0.066550	0.296484
C70	C	1.622728	0.566550	0.796484
C71	C	1.122734	0.066550	0.396142
C72	C	1.622734	0.566550	0.896142
C73	C	1.067053	0.130906	0.445970
C74	C	1.567053	0.630906	0.945970
C75	C	1.011355	0.195260	0.396136
C76	C	1.511355	0.695260	0.896136
C77	C	1.011345	0.195255	0.296480
C78	C	1.511345	0.695255	0.796480
C79	C	1.011381	0.195267	0.603850
C80	C	1.511381	0.695267	1.103850
C81	C	1.011392	0.195273	0.703513
C82	C	1.511392	0.695273	1.203513
C83	C	1.122770	0.066562	0.703512
C84	C	1.622770	0.566562	1.203512
C85	C	1.122760	0.066557	0.603856
C86	C	1.622760	0.566557	1.103856
C87	C	1.067064	0.130912	0.554029
C88	C	1.567064	0.630912	1.054029
H89	H	0.507726	0.129728	-0.156589
H90	H	1.007726	0.629728	0.343411
F91	F	1.193877	-0.357008	0.000005
F92	F	1.693877	0.142992	0.500005
H93	H	1.168074	0.014148	0.255921
H94	H	1.668074	0.514148	0.755921
H95	H	0.626395	0.132078	0.156573
H96	H	1.126395	0.632078	0.656573
F97	F	1.182027	-0.001931	0.550825
F98	F	1.682027	0.498069	1.050825
F99	F	0.807593	0.135732	0.178152
F100	F	1.307593	0.635732	0.678152
H101	H	0.961564	-0.371561	-0.000010
H102	H	1.461564	0.128439	0.499990
F103	F	1.182005	-0.001941	0.449173
F104	F	1.682005	0.498059	0.949173
H105	H	0.626408	0.132095	-0.156582
H106	H	1.126408	0.632095	0.343418
H107	H	0.966014	0.247657	0.436711
H108	H	1.466014	0.747657	0.936711
F109	F	0.807628	0.135725	-0.178168
F110	F	1.307628	0.635725	0.321832
H111	H	0.507701	0.129727	0.156578
H112	H	1.007701	0.629727	0.656578
H113	H	1.168120	0.014161	0.744088
H114	H	1.668120	0.514161	1.244088
H115	H	0.966050	0.247677	0.744078
H116	H	1.466050	0.747677	1.244078
F117	F	0.326514	0.126103	-0.178159
F118	F	0.826514	0.626103	0.321841
H119	H	0.966024	0.247669	0.563283
H120	H	1.466024	0.747669	1.063283
F121	F	0.952068	0.263744	0.243451
F122	F	1.452068	0.763744	0.743451
H123	H	0.338172	0.126330	0.156580
H124	H	0.838172	0.626330	0.656580
