data_functionalizedCrystal
_audit_creation_method	'MofGen! by Chris Wilmer'
_symmetry_space_group_name_H-M	'P1'
_symmetry_Int_Tables_number	1
_symmetry_cell_setting	triclinic
loop_
_symmetry_equiv_pos_as_xyz
  x,y,z
_cell_length_a	15.995350
_cell_length_b	15.995350
_cell_length_c	9.130307
_cell_angle_alpha	90.002128
_cell_angle_beta	89.998938
_cell_angle_gamma	83.492375
loop_
_atom_site_label
_atom_site_type_symbol
_atom_site_fract_x
_atom_site_fract_y
_atom_site_fract_z
O1	O	0.107925	1.110982	-0.121668
O2	O	0.121253	0.867207	-0.121697
O3	O	-0.007299	0.995758	-0.121680
O4	O	0.236477	0.982431	-0.121685
O5	O	-0.007300	0.995754	0.121919
O6	O	0.121252	0.867203	0.121902
O7	O	0.107924	1.110978	0.121931
Cu8	Cu	0.114588	0.989090	0.144159
Cu9	Cu	0.114589	0.989095	-0.143925
O10	O	0.236475	0.982427	0.121914
C11	C	0.120701	0.836010	0.000098
C12	C	0.119049	0.743060	0.000087
C13	C	-0.038494	0.995205	0.000116
C14	C	-0.131444	0.993553	0.000108
C15	C	0.113117	0.405312	0.000118
C16	C	0.021565	0.452746	0.000663
C17	C	0.023217	0.549436	0.000103
C18	C	0.116060	0.572873	0.000103
C19	C	0.161217	0.531788	-0.138999
C20	C	0.158917	0.435152	-0.139105
C21	C	0.160807	0.434808	0.137913
C22	C	0.160785	0.531754	0.139741
C23	C	0.117727	0.667570	0.000090
C24	C	0.111452	0.310614	0.000121
C25	C	-0.469192	0.987621	0.000112
C26	C	-0.421758	0.896069	-0.000445
C27	C	-0.325068	0.897721	0.000104
C28	C	-0.301631	0.990564	0.000109
C29	C	-0.342710	1.035718	0.139219
C30	C	-0.439345	1.033418	0.139335
C31	C	-0.439702	1.035314	-0.137682
C32	C	-0.342757	1.035292	-0.139521
C33	C	-0.206934	0.992231	0.000112
C34	C	-0.563890	0.985956	0.000119
C35	C	0.267671	0.982980	0.000114
C36	C	0.360621	0.984631	0.000113
C37	C	0.108476	1.142175	0.000132
C38	C	0.110127	1.235125	0.000134
N39	N	0.114586	0.989093	0.346782
N40	N	0.114584	0.989099	-0.346548
C41	C	0.000787	1.102971	0.346787
C42	C	-0.056111	1.159916	0.423456
C43	C	-0.056111	1.159924	0.576789
C44	C	0.000790	1.102980	0.653457
C45	C	0.057687	1.046035	0.576788
C46	C	0.057683	1.046035	0.423451
C47	C	0.171481	0.932154	0.576783
C48	C	0.171487	0.932148	0.423449
C49	C	0.228383	0.875210	0.653451
C50	C	0.285285	0.818268	0.576782
C51	C	0.285284	0.818262	0.423439
C52	C	0.228385	0.875204	0.346780
H53	H	-0.015031	0.434222	0.100418
H54	H	-0.441352	0.859638	0.098749
H55	H	-0.296645	0.862227	-0.099616
H56	H	0.000779	1.102983	0.778309
N57	N	0.228381	0.875185	0.181401
H58	H	0.285278	0.887351	0.144449
H59	H	0.183664	0.919890	0.144582
H60	H	-0.014861	0.433154	-0.098542
N61	N	-0.466908	0.995675	-0.277351
H62	H	-0.498630	0.946395	-0.252712
H63	H	-0.415652	0.975507	-0.337716
N64	N	-0.288149	0.850391	0.132409
H65	H	-0.334696	0.828376	0.190606
H66	H	-0.258301	0.889468	0.195684
N67	N	-0.481760	1.124729	-0.138911
H68	H	-0.462570	1.155063	-0.227665
H69	H	-0.466037	1.154521	-0.047109
N70	N	0.000800	1.102960	0.181407
H71	H	0.013025	1.159840	0.144469
H72	H	-0.056107	1.090754	0.144582
H73	H	-0.440289	0.859478	-0.100204
H74	H	0.127821	0.559069	0.242648
H75	H	0.130876	0.414271	0.243349
H76	H	-0.102441	1.206278	0.361020
N77	N	0.119673	0.569352	-0.276141
H78	H	0.162168	0.596722	-0.336023
H79	H	0.071606	0.612942	-0.248369
N80	N	0.250469	0.552099	0.150882
H81	H	0.263436	0.588418	0.065183
H82	H	0.289966	0.498162	0.149695
H83	H	0.229426	0.545913	-0.144171
N84	N	0.250220	0.392743	0.139168
H85	H	0.259825	0.354761	0.050962
H86	H	0.260220	0.358305	0.231516
H87	H	-0.457647	1.000488	0.243318
H88	H	-0.471593	1.100634	0.145650
H89	H	-0.328584	1.103927	0.144396
H90	H	-0.314329	1.004353	0.242736
N91	N	0.346653	0.756860	0.659473
H92	H	0.382701	0.720786	0.587642
H93	H	0.314568	0.719852	0.723088
H94	H	-0.102445	1.206290	0.639213
N95	N	0.228383	0.875213	0.818831
H96	H	0.183708	0.919929	0.855770
H97	H	0.285315	0.887355	0.855636
N98	N	-0.306608	0.991619	-0.275848
H99	H	-0.263769	0.943063	-0.247297
H100	H	-0.278609	1.032844	-0.337578
N101	N	-0.322419	1.124978	-0.150652
H102	H	-0.259435	1.125485	-0.156857
H103	H	-0.344591	1.157415	-0.061216
N104	N	-0.023794	0.587099	0.132187
H105	H	-0.045782	0.540896	0.191298
H106	H	-0.072484	0.628457	0.098855
N107	N	-0.024118	0.586350	-0.132200
H108	H	-0.046135	0.539801	-0.190391
H109	H	0.014953	0.616199	-0.195483
N110	N	0.346651	0.756835	0.340760
H111	H	0.406086	0.766465	0.367445
H112	H	0.337949	0.765496	0.232015
N113	N	0.115294	0.410890	-0.276827
H114	H	0.147230	0.427988	-0.365310
H115	H	0.056059	0.440438	-0.279040
N116	N	0.247948	0.392427	-0.147410
H117	H	0.288513	0.436393	-0.150999
H118	H	0.254676	0.356525	-0.238566
