data_functionalizedCrystal
_audit_creation_method	'MofGen! by Chris Wilmer'
_symmetry_space_group_name_H-M	'P1'
_symmetry_Int_Tables_number	1
_symmetry_cell_setting	triclinic
loop_
_symmetry_equiv_pos_as_xyz
  x,y,z
_cell_length_a	21.395361
_cell_length_b	19.805407
_cell_length_c	21.395355
_cell_angle_alpha	90.031996
_cell_angle_beta	89.978489
_cell_angle_gamma	89.970677
loop_
_atom_site_label
_atom_site_type_symbol
_atom_site_fract_x
_atom_site_fract_y
_atom_site_fract_z
Zn1	Zn	-0.249534	-1.034755	-0.354373
Zn2	Zn	0.083799	-0.701422	-0.021039
Zn3	Zn	0.417132	-0.368088	0.312294
Zn4	Zn	-0.354294	-1.034650	-0.249590
Zn5	Zn	-0.020961	-0.701316	0.083744
Zn6	Zn	0.312373	-0.367983	0.417077
Zn7	Zn	-0.249532	-0.921558	-0.249596
Zn8	Zn	0.083802	-0.588225	0.083737
Zn9	Zn	0.417135	-0.254891	0.417071
Zn10	Zn	-0.354275	-0.921525	-0.354316
Zn11	Zn	-0.020942	-0.588191	-0.020983
Zn12	Zn	0.312391	-0.254858	0.312350
O13	O	-0.301909	-0.978122	-0.301969
O14	O	0.031424	-0.644788	0.031365
O15	O	0.364758	-0.311455	0.364698
O16	O	-0.263440	-1.129458	-0.340494
O17	O	0.069894	-0.796124	-0.007161
O18	O	0.403227	-0.462791	0.326173
O19	O	-0.340404	-1.019618	-0.161913
O20	O	-0.007071	-0.686284	0.171421
O21	O	0.326263	-0.352951	0.504754
O22	O	-0.161854	-0.936632	-0.263521
O23	O	0.171479	-0.603298	0.069812
O24	O	0.504812	-0.269965	0.403146
O25	O	-0.340406	-1.129380	-0.263511
O26	O	-0.007073	-0.796047	0.069823
O27	O	0.326260	-0.462714	0.403156
O28	O	-0.161856	-1.019797	-0.340500
O29	O	0.171477	-0.686464	-0.007167
O30	O	0.504811	-0.353131	0.326167
O31	O	-0.263436	-0.936530	-0.161917
O32	O	0.069898	-0.603196	0.171416
O33	O	0.403231	-0.269863	0.504749
O34	O	-0.263417	-0.826837	-0.263466
O35	O	0.069916	-0.493504	0.069867
O36	O	0.403249	-0.160170	0.403200
O37	O	-0.340374	-0.936575	-0.442002
O38	O	-0.007041	-0.603242	-0.108668
O39	O	0.326292	-0.269908	0.224665
O40	O	-0.340372	-0.826813	-0.340404
O41	O	-0.007039	-0.493479	-0.007071
O42	O	0.326295	-0.160146	0.326263
O43	O	-0.263422	-1.019765	-0.442043
O44	O	0.069912	-0.686432	-0.108710
O45	O	0.403245	-0.353098	0.224623
O46	O	-0.441969	-1.019585	-0.263456
O47	O	-0.108636	-0.686252	0.069877
O48	O	0.224697	-0.352919	0.403211
O49	O	-0.441956	-0.936473	-0.340398
O50	O	-0.108622	-0.603140	-0.007065
O51	O	0.224711	-0.269806	0.326269
C52	C	-0.301893	-0.802266	-0.301930
C53	C	0.031440	-0.468932	0.031403
C54	C	0.364774	-0.135599	0.364737
C55	C	-0.301901	-0.727034	-0.301928
C56	C	0.031432	-0.393700	0.031405
C57	C	0.364765	-0.060367	0.364738
C58	C	-0.342047	-0.265248	-0.341986
C59	C	-0.008714	0.068086	-0.008652
C60	C	0.324619	0.401419	0.324681
C61	C	-0.342047	-0.335936	-0.341975
C62	C	-0.008714	-0.002603	-0.008641
C63	C	0.324620	0.330730	0.324692
C64	C	-0.301918	-0.371272	-0.301975
C65	C	0.031416	-0.037939	0.031359
C66	C	0.364749	0.295395	0.364692
C67	C	-0.261791	-0.335916	-0.261979
C68	C	0.071542	-0.002583	0.071354
C69	C	0.404876	0.330751	0.404688
C70	C	-0.261795	-0.265229	-0.261987
C71	C	0.071538	0.068105	0.071346
C72	C	0.404872	0.401438	0.404679
C73	C	-0.261775	-0.620989	-0.261944
C74	C	0.071559	-0.287656	0.071390
C75	C	0.404892	0.045678	0.404723
C76	C	-0.261772	-0.691681	-0.261940
C77	C	0.071561	-0.358348	0.071394
C78	C	0.404894	-0.025015	0.404727
C79	C	-0.342027	-0.691697	-0.341931
C80	C	-0.008693	-0.358363	-0.008597
C81	C	0.324640	-0.025030	0.324736
C82	C	-0.342031	-0.621010	-0.341939
C83	C	-0.008697	-0.287676	-0.008606
C84	C	0.324636	0.045657	0.324727
C85	C	-0.301906	-0.585659	-0.301941
C86	C	0.031427	-0.252326	0.031392
C87	C	0.364760	0.081007	0.364725
C88	C	-0.301908	-0.509011	-0.301953
C89	C	0.031425	-0.175678	0.031380
C90	C	0.364759	0.157656	0.364714
C91	C	-0.301913	-0.447919	-0.301966
C92	C	0.031421	-0.114586	0.031368
C93	C	0.364754	0.218747	0.364701
C94	C	-0.464696	-0.978032	-0.301934
C95	C	-0.131363	-0.644699	0.031399
C96	C	0.201970	-0.311366	0.364733
C97	C	-0.534338	-0.978056	-0.301940
C98	C	-0.201004	-0.644723	0.031393
C99	C	0.132329	-0.311390	0.364727
C100	C	-0.567037	-1.021371	-0.261917
C101	C	-0.233704	-0.688038	0.071416
C102	C	0.099629	-0.354704	0.404750
C103	C	-0.632473	-1.021403	-0.261931
C104	C	-0.299139	-0.688069	0.071402
C105	C	0.034194	-0.354736	0.404735
C106	C	-0.665206	-0.978107	-0.301961
C107	C	-0.331873	-0.644774	0.031372
C108	C	0.001461	-0.311440	0.364705
C109	C	-0.632499	-0.934789	-0.341992
C110	C	-0.299165	-0.601456	-0.008659
C111	C	0.034168	-0.268122	0.324675
C112	C	-0.567065	-0.934764	-0.341981
C113	C	-0.233731	-0.601430	-0.008648
C114	C	0.099602	-0.268097	0.324685
C115	C	-0.768920	-0.917163	-0.306864
C116	C	-0.435587	-0.583830	0.026469
C117	C	-0.102253	-0.250497	0.359803
C118	C	-0.834353	-0.917188	-0.306870
C119	C	-0.501019	-0.583854	0.026463
C120	C	-0.167686	-0.250521	0.359796
C121	C	-0.867027	-0.978186	-0.301998
C122	C	-0.533693	-0.644853	0.031335
C123	C	-0.200360	-0.311519	0.364669
C124	C	-0.834260	-1.039162	-0.297106
C125	C	-0.500926	-0.705828	0.036227
C126	C	-0.167593	-0.372495	0.369560
C127	C	-0.768826	-1.039136	-0.297096
C128	C	-0.435492	-0.705803	0.036238
C129	C	-0.102159	-0.372469	0.369571
C130	C	-0.736158	-0.978130	-0.301978
C131	C	-0.402825	-0.644797	0.031356
C132	C	-0.069492	-0.311463	0.364689
C133	C	-0.970679	-1.021539	-0.261988
C134	C	-0.637345	-0.688205	0.071345
C135	C	-0.304012	-0.354872	0.404678
C136	C	-1.036115	-1.021571	-0.262007
C137	C	-0.702782	-0.688238	0.071326
C138	C	-0.369449	-0.354905	0.404660
C139	C	-1.036140	-0.934952	-0.342064
C140	C	-0.702807	-0.601618	-0.008731
C141	C	-0.369474	-0.268285	0.324602
C142	C	-0.970705	-0.934925	-0.342049
C143	C	-0.637372	-0.601592	-0.008716
C144	C	-0.304038	-0.268258	0.324617
C145	C	-0.937978	-0.978218	-0.302008
C146	C	-0.604645	-0.644884	0.031325
C147	C	-0.271311	-0.311551	0.364659
C148	C	-0.138486	-0.978230	-0.302017
C149	C	0.194848	-0.644897	0.031316
C150	C	0.528181	-0.311563	0.364649
C151	C	-0.068844	-0.978276	-0.302038
C152	C	0.264489	-0.644943	0.031295
C153	C	0.597822	-0.311609	0.364628
C154	C	-0.301896	-0.978178	-0.465392
C155	C	0.031437	-0.644845	-0.132059
C156	C	0.364770	-0.311511	0.201275
C157	C	-0.301891	-0.978202	-0.535033
C158	C	0.031443	-0.644869	-0.201700
C159	C	0.364776	-0.311535	0.131633
C160	C	-0.301923	-0.154665	-0.302000
C161	C	0.031411	0.178669	0.031333
C162	C	0.364744	0.512002	0.364666
C163	C	-0.301922	-0.229897	-0.301994
C164	C	0.031411	0.103437	0.031339
C165	C	0.364745	0.436770	0.364672
C166	C	-0.261820	-1.021517	-0.567769
C167	C	0.071514	-0.688184	-0.234436
C168	C	0.404847	-0.354850	0.098898
C169	C	-0.261793	-1.021516	-0.633205
C170	C	0.071541	-0.688183	-0.299871
C171	C	0.404874	-0.354849	0.033462
C172	C	-0.301848	-0.978207	-0.665902
C173	C	0.031485	-0.644874	-0.332568
C174	C	0.364819	-0.311541	0.000765
C175	C	-0.341922	-0.934884	-0.633158
C176	C	-0.008589	-0.601550	-0.299825
C177	C	0.324745	-0.268217	0.033509
C178	C	-0.341943	-0.934881	-0.567724
C179	C	-0.008610	-0.601548	-0.234391
C180	C	0.324723	-0.268214	0.098943
C181	C	-0.358263	-0.972832	-0.769564
C182	C	-0.024930	-0.639498	-0.436230
C183	C	0.308403	-0.306165	-0.102897
C184	C	-0.358243	-0.972839	-0.834997
C185	C	-0.024910	-0.639506	-0.501663
C186	C	0.308424	-0.306173	-0.168330
C187	C	-0.301782	-0.978211	-0.867723
C188	C	0.031551	-0.644878	-0.534389
C189	C	0.364885	-0.311545	-0.201056
C190	C	-0.245339	-0.983590	-0.835008
C191	C	0.087994	-0.650257	-0.501674
C192	C	0.421327	-0.316924	-0.168341
C193	C	-0.245361	-0.983588	-0.769573
C194	C	0.087973	-0.650254	-0.436240
C195	C	0.421306	-0.316921	-0.102907
C196	C	-0.301829	-0.978205	-0.736854
C197	C	0.031504	-0.644872	-0.403521
C198	C	0.364838	-0.311538	-0.070187
C199	C	-0.261678	-1.021528	-0.971411
C200	C	0.071655	-0.688195	-0.638078
C201	C	0.404988	-0.354861	-0.304744
C202	C	-0.261650	-1.021522	-1.036848
C203	C	0.071683	-0.688189	-0.703514
C204	C	0.405016	-0.354856	-0.370181
C205	C	-0.341785	-0.934893	-1.036800
C206	C	-0.008452	-0.601560	-0.703467
C207	C	0.324882	-0.268227	-0.370133
C208	C	-0.341807	-0.934895	-0.971365
C209	C	-0.008474	-0.601562	-0.638031
C210	C	0.324859	-0.268229	-0.304698
C211	C	-0.301755	-0.978216	-0.938674
C212	C	0.031578	-0.644883	-0.605341
C213	C	0.364912	-0.311550	-0.272007
C214	C	-0.301876	-0.978105	-0.139181
C215	C	0.031457	-0.644771	0.194152
C216	C	0.364790	-0.311438	0.527486
C217	C	-0.301705	-0.978212	-0.069540
C218	C	0.031628	-0.644879	0.263793
C219	C	0.364961	-0.311545	0.597126
H220	H	-0.374699	-0.720487	-0.374497
H221	H	-0.041366	-0.387154	-0.041164
H222	H	0.291967	-0.053820	0.292169
H223	H	-1.062791	-0.899702	-0.374660
H224	H	-0.729458	-0.566369	-0.041327
H225	H	-0.396124	-0.233036	0.292006
H226	H	-0.861027	-0.867537	-0.310847
H227	H	-0.527693	-0.534204	0.022486
H228	H	-0.194360	-0.200871	0.355819
H229	H	-0.229016	-1.056793	-1.063500
H230	H	0.104317	-0.723460	-0.730167
H231	H	0.437651	-0.390127	-0.396833
H232	H	-0.229119	-0.236447	-0.229424
H233	H	0.104214	0.096887	0.103909
H234	H	0.437547	0.430220	0.437243
H235	H	-0.374573	-0.899606	-0.541071
H236	H	-0.041240	-0.566272	-0.207738
H237	H	0.292094	-0.232939	0.125596
N238	N	-0.667797	-0.888085	-0.385164
N239	N	-0.334464	-0.554751	-0.051831
N240	N	-0.001130	-0.221418	0.281502
H241	H	-0.656379	-0.898569	-0.429940
H242	H	-0.323046	-0.565235	-0.096607
H243	H	0.010287	-0.231902	0.236727
H244	H	-0.714201	-0.894691	-0.379044
H245	H	-0.380867	-0.561358	-0.045711
H246	H	-0.047534	-0.228024	0.287623
N247	N	-0.869490	-1.104959	-0.291848
N248	N	-0.536157	-0.771625	0.041485
N249	N	-0.202823	-0.438292	0.374819
H250	H	-0.915914	-1.095726	-0.292600
H251	H	-0.582581	-0.762392	0.040733
H252	H	-0.249247	-0.429059	0.374066
H253	H	-0.858005	-1.135195	-0.328108
H254	H	-0.524671	-0.801861	0.005226
H255	H	-0.191338	-0.468528	0.338559
N256	N	-0.385130	-0.888171	-0.668414
N257	N	-0.051796	-0.554837	-0.335080
N258	N	0.281537	-0.221504	-0.001747
H259	H	-0.375394	-0.839817	-0.657002
H260	H	-0.042061	-0.506484	-0.323668
H261	H	0.291273	-0.173151	0.009665
H262	H	-0.379022	-0.894799	-0.714824
H263	H	-0.045689	-0.561466	-0.381490
H264	H	0.287645	-0.228132	-0.048157
N265	N	-0.384991	-0.888184	-1.072059
N266	N	-0.051657	-0.554851	-0.738726
N267	N	0.281676	-0.221517	-0.405392
H268	H	-0.410382	-0.860745	-1.041388
H269	H	-0.077048	-0.527412	-0.708055
H270	H	0.256285	-0.194078	-0.374722
H271	H	-0.359474	-0.856878	-1.099193
H272	H	-0.026141	-0.523545	-0.765860
H273	H	0.307192	-0.190212	-0.432526
H274	H	-0.374441	-0.899628	-0.944711
H275	H	-0.041108	-0.566294	-0.611377
H276	H	0.292225	-0.232961	-0.278044
N277	N	-0.385317	-0.582897	-0.385076
N278	N	-0.051984	-0.249564	-0.051743
N279	N	0.281349	0.083769	0.281590
H280	H	-0.359903	-0.553602	-0.414164
H281	H	-0.026570	-0.220268	-0.080831
H282	H	0.306764	0.113065	0.252503
H283	H	-0.410730	-0.616062	-0.410365
H284	H	-0.077397	-0.282729	-0.077032
H285	H	0.255936	0.050605	0.256301
N286	N	-0.531791	-0.888042	-0.385149
N287	N	-0.198458	-0.554709	-0.051816
N288	N	0.134876	-0.221376	0.281518
H289	H	-0.562454	-0.860619	-0.410513
H290	H	-0.229121	-0.527286	-0.077179
H291	H	0.104213	-0.193953	0.256154
H292	H	-0.504684	-0.856722	-0.359608
H293	H	-0.171350	-0.523388	-0.026274
H294	H	0.161983	-0.190055	0.307059
N295	N	-0.419117	-0.967043	-0.870280
N296	N	-0.085783	-0.633710	-0.536946
N297	N	0.247550	-0.300376	-0.203613
H298	H	-0.454887	-0.963631	-0.839621
H299	H	-0.121554	-0.630298	-0.506287
H300	H	0.211780	-0.296964	-0.172954
H301	H	-0.418199	-0.925341	-0.897410
H302	H	-0.084866	-0.592008	-0.564077
H303	H	0.248467	-0.258674	-0.230744
H304	H	-1.062738	-1.056848	-0.229417
H305	H	-0.729405	-0.723514	0.103917
H306	H	-0.396071	-0.390181	0.437250
N307	N	-0.385328	-0.227138	-0.385131
N308	N	-0.051995	0.106195	-0.051797
N309	N	0.281339	0.439529	0.281536
H310	H	-0.410748	-0.260262	-0.410462
H311	H	-0.077415	0.073071	-0.077128
H312	H	0.255919	0.406405	0.256205
H313	H	-0.414287	-0.197777	-0.359575
H314	H	-0.080954	0.135557	-0.026242
H315	H	0.252380	0.468890	0.307091
H316	H	-0.404229	-0.968276	-0.742924
H317	H	-0.070896	-0.634943	-0.409590
H318	H	0.262438	-0.301609	-0.076257
H319	H	-0.944079	-0.899651	-0.374637
H320	H	-0.610746	-0.566318	-0.041304
H321	H	-0.277412	-0.232984	0.292030
N322	N	-0.218486	-1.068249	-0.936140
N323	N	0.114847	-0.734915	-0.602807
N324	N	0.448181	-0.401582	-0.269474
H325	H	-0.173710	-1.057772	-0.947513
H326	H	0.159623	-0.724439	-0.614180
H327	H	0.492956	-0.391105	-0.280847
H328	H	-0.224645	-1.061651	-0.889733
H329	H	0.108689	-0.728318	-0.556400
H330	H	0.442022	-0.394985	-0.223067
H331	H	-0.944032	-1.056792	-0.229386
H332	H	-0.610698	-0.723459	0.103947
H333	H	-0.277365	-0.390126	0.437280
H334	H	-0.374722	-0.364716	-0.374538
H335	H	-0.041389	-0.031383	-0.041205
H336	H	0.291944	0.301951	0.292128
H337	H	-0.229092	-0.720450	-0.229366
H338	H	0.104241	-0.387116	0.103968
H339	H	0.437575	-0.053783	0.437301
N340	N	-0.218500	-0.582867	-0.218806
N341	N	0.114834	-0.249533	0.114528
N342	N	0.448167	0.083800	0.447861
H343	H	-0.193077	-0.615980	-0.193468
H344	H	0.140256	-0.282647	0.139865
H345	H	0.473590	0.050687	0.473199
H346	H	-0.189543	-0.553569	-0.244364
H347	H	0.143791	-0.220236	0.088969
H348	H	0.477124	0.113097	0.422302
H349	H	-0.742323	-0.867487	-0.310834
H350	H	-0.408990	-0.534154	0.022499
H351	H	-0.075656	-0.200821	0.355833
N352	N	-0.218511	-0.374024	-0.218832
N353	N	0.114822	-0.040691	0.114501
N354	N	0.448156	0.292642	0.447835
H355	H	-0.224595	-0.424169	-0.224896
H356	H	0.108738	-0.090836	0.108438
H357	H	0.442072	0.242498	0.441771
H358	H	-0.173779	-0.361696	-0.228667
H359	H	0.159555	-0.028363	0.104666
H360	H	0.492888	0.304971	0.437999
N361	N	-0.531741	-1.068073	-0.218740
N362	N	-0.198408	-0.734740	0.114594
N363	N	0.134926	-0.401406	0.447927
H364	H	-0.504555	-1.099414	-0.244232
H365	H	-0.171222	-0.766080	0.089101
H366	H	0.162111	-0.432747	0.422435
H367	H	-0.504664	-1.040527	-0.189681
H368	H	-0.171330	-0.707193	0.143652
H369	H	0.162003	-0.373860	0.476986
N370	N	-0.218621	-1.068238	-0.532510
N371	N	0.114712	-0.734905	-0.199177
N372	N	0.448046	-0.401571	0.134157
H373	H	-0.193231	-1.095678	-0.563181
H374	H	0.140102	-0.762345	-0.229848
H375	H	0.473435	-0.429011	0.103485
H376	H	-0.189630	-1.040706	-0.505350
H377	H	0.143703	-0.707373	-0.172016
H378	H	0.477037	-0.374039	0.161317
N379	N	-0.667752	-1.068123	-0.218763
N380	N	-0.334419	-0.734790	0.114570
N381	N	-0.001085	-0.401457	0.447903
H382	H	-0.637091	-1.095545	-0.193397
H383	H	-0.303757	-0.762212	0.139936
H384	H	0.029576	-0.428879	0.473270
H385	H	-0.694938	-1.040592	-0.189749
H386	H	-0.361605	-0.707259	0.143584
H387	H	-0.028271	-0.373926	0.476918
H388	H	-0.742148	-1.088784	-0.293114
H389	H	-0.408815	-0.755451	0.040219
H390	H	-0.075482	-0.422117	0.373552
N391	N	-0.218572	-1.068236	-0.668523
N392	N	0.114762	-0.734902	-0.335190
N393	N	0.448095	-0.401569	-0.001857
H394	H	-0.193202	-1.095677	-0.637885
H395	H	0.140132	-0.762344	-0.304551
H396	H	0.473465	-0.429011	0.028782
H397	H	-0.244075	-1.099539	-0.695685
H398	H	0.089258	-0.766205	-0.362352
H399	H	0.422591	-0.432872	-0.029018
N400	N	-0.184490	-0.989391	-0.734286
N401	N	0.148844	-0.656058	-0.400953
N402	N	0.482177	-0.322724	-0.067620
H403	H	-0.148716	-0.992797	-0.764942
H404	H	0.184617	-0.659464	-0.431609
H405	H	0.517951	-0.326130	-0.098276
H406	H	-0.178677	-0.948155	-0.707117
H407	H	0.154656	-0.614821	-0.373783
H408	H	0.487990	-0.281488	-0.040450
H409	H	-0.199363	-0.987966	-0.861651
H410	H	0.133970	-0.654633	-0.528318
H411	H	0.467303	-0.321299	-0.194985
