data_functionalizedCrystal
_audit_creation_method	'MofGen! by Chris Wilmer'
_symmetry_space_group_name_H-M	'P1'
_symmetry_Int_Tables_number	1
_symmetry_cell_setting	triclinic
loop_
_symmetry_equiv_pos_as_xyz
  x,y,z
_cell_length_a	15.297327
_cell_length_b	12.827893
_cell_length_c	12.827885
_cell_angle_alpha	90.019272
_cell_angle_beta	99.642715
_cell_angle_gamma	80.293436
loop_
_atom_site_label
_atom_site_type_symbol
_atom_site_fract_x
_atom_site_fract_y
_atom_site_fract_z
Zn1	Zn	-0.359117	-1.525601	-0.662774
Zn2	Zn	0.140883	-1.025601	-0.162774
Zn3	Zn	-0.510002	-1.495216	-0.518254
Zn4	Zn	-0.010002	-0.995216	-0.018254
Zn5	Zn	-0.359161	-1.350834	-0.488057
Zn6	Zn	0.140839	-0.850834	0.011943
Zn7	Zn	-0.509935	-1.320562	-0.692941
Zn8	Zn	-0.009935	-0.820562	-0.192941
O9	O	-0.434554	-1.423053	-0.590506
O10	O	0.065446	-0.923053	-0.090506
O11	O	-0.379142	-1.667805	-0.643616
O12	O	0.120858	-1.167805	-0.143616
O13	O	-0.490040	-1.476016	-0.368022
O14	O	0.009960	-0.976016	0.131978
O15	O	-0.232910	-1.399403	-0.485971
O16	O	0.267090	-0.899403	0.014029
O17	O	-0.489997	-1.645481	-0.537438
O18	O	0.010003	-1.145481	-0.037438
O19	O	-0.232878	-1.527804	-0.614335
O20	O	0.267122	-1.027804	-0.114335
O21	O	-0.379217	-1.369939	-0.345836
O22	O	0.120783	-0.869939	0.154164
O23	O	-0.379152	-1.200584	-0.515222
O24	O	0.120848	-0.700584	-0.015222
O25	O	-0.489883	-1.347808	-0.835166
O26	O	0.010117	-0.847808	-0.335166
O27	O	-0.489925	-1.178343	-0.665749
O28	O	0.010075	-0.678343	-0.165749
O29	O	-0.379077	-1.498450	-0.813003
O30	O	0.120923	-0.998450	-0.313003
O31	O	-0.636239	-1.446662	-0.566689
O32	O	-0.136239	-0.946662	-0.066689
O33	O	-0.636189	-1.318345	-0.695031
O34	O	-0.136189	-0.818345	-0.195031
C35	C	-0.434537	-1.151547	-0.590483
C36	C	0.065463	-0.651547	-0.090483
C37	C	-0.434551	-1.035391	-0.590502
C38	C	0.065449	-0.535391	-0.090502
C39	C	-0.668948	-1.375950	-0.637433
C40	C	-0.168948	-0.875950	-0.137433
C41	C	-0.769223	-1.355894	-0.657544
C42	C	-0.269223	-0.855894	-0.157544
C43	C	-0.434468	-1.423142	-0.863059
C44	C	0.065532	-0.923142	-0.363059
C45	C	-0.434431	-1.423180	-0.979205
C46	C	0.065569	-0.923180	-0.479205
C47	C	-1.051858	-1.566825	-0.447130
C48	C	-0.551858	-1.066825	0.052870
C49	C	-0.957645	-1.585667	-0.428230
C50	C	-0.457645	-1.085667	0.071770
C51	C	-0.910535	-1.528226	-0.485557
C52	C	-0.410535	-1.028226	0.014443
C53	C	-0.957647	-1.451938	-0.561787
C54	C	-0.457647	-0.951938	-0.061787
C55	C	-1.051869	-1.433088	-0.580683
C56	C	-0.551869	-0.933088	-0.080683
C57	C	-0.910546	-1.394489	-0.619110
C58	C	-0.410546	-0.894489	-0.119110
C59	C	-0.957658	-1.318201	-0.695340
C60	C	-0.457658	-0.818201	-0.195340
C61	C	-1.051871	-1.299355	-0.714233
C62	C	-0.551871	-0.799355	-0.214233
C63	C	-1.098981	-1.356796	-0.656906
C64	C	-0.598981	-0.856796	-0.156906
C65	C	-0.816324	-1.413339	-0.600214
C66	C	-0.316324	-0.913339	-0.100214
C67	C	-0.816335	-1.279602	-0.733767
C68	C	-0.316335	-0.779602	-0.233767
C69	C	-0.910548	-1.260760	-0.752667
C70	C	-0.410548	-0.760760	-0.252667
C71	C	-0.199245	-1.470370	-0.543419
C72	C	0.300755	-0.970370	-0.043419
C73	C	-0.098970	-1.490533	-0.523353
C74	C	0.401030	-0.990533	-0.023353
C75	C	-0.434572	-1.695620	-0.590531
C76	C	0.065428	-1.195620	-0.090531
C77	C	-0.434580	-1.811771	-0.590541
C78	C	0.065420	-1.311771	-0.090541
C79	C	-0.489451	-0.972611	-0.664907
C80	C	0.010549	-0.472611	-0.164907
C81	C	-0.489467	-0.852558	-0.664929
C82	C	0.010533	-0.352558	-0.164929
C83	C	-0.379590	-1.497731	-1.020021
C84	C	0.120410	-0.997731	-0.520021
C85	C	-0.379551	-1.497772	-1.140063
C86	C	0.120449	-0.997772	-0.640063
C87	C	-0.434575	-1.423038	-0.319001
C88	C	0.065425	-0.923038	0.180999
C89	C	-0.434358	-1.423254	-0.202805
C90	C	0.065642	-0.923254	0.297195
H91	H	-0.777973	-1.475453	-0.538147
H92	H	-0.277973	-0.975453	-0.038147
H93	H	-0.481315	-1.359428	-1.167670
H94	H	0.018685	-0.859428	-0.667670
Cl95	Cl	-1.111096	-1.203445	-0.810061
Cl96	Cl	-0.611096	-0.703445	-0.310061
Cl97	Cl	-0.757118	-1.207379	-0.805833
Cl98	Cl	-0.257118	-0.707379	-0.305833
H99	H	-0.536437	-1.007743	-0.728595
H100	H	-0.036437	-0.507743	-0.228595
Cl101	Cl	-0.307120	-1.596211	-0.936765
Cl102	Cl	0.192880	-1.096211	-0.436765
Cl103	Cl	-0.361994	-0.981162	-0.492177
Cl104	Cl	0.138006	-0.481162	0.007823
Cl105	Cl	-0.506873	-1.324673	-1.062456
Cl106	Cl	-0.006873	-0.824673	-0.562456
H107	H	-0.332602	-1.561601	-1.175206
H108	H	0.167398	-1.061601	-0.675206
H109	H	-1.175698	-1.341461	-0.672293
H110	H	-0.675698	-0.841461	-0.172293
Cl111	Cl	-0.562042	-0.769272	-0.763279
Cl112	Cl	-0.062042	-0.269272	-0.263279
Cl113	Cl	-0.362012	-0.895049	-0.492178
Cl114	Cl	0.137988	-0.395049	0.007822
H115	H	-0.833822	-1.543571	-0.470163
H116	H	-0.333822	-1.043571	0.029837
Cl117	Cl	-0.898425	-1.681578	-0.332413
Cl118	Cl	-0.398425	-1.181578	0.167587
Cl119	Cl	-0.969785	-1.164857	-0.848495
Cl120	Cl	-0.469785	-0.664857	-0.348495
H121	H	-1.090224	-1.613579	-0.400457
H122	H	-0.590224	-1.113579	0.099543
