data_functionalizedCrystal
_audit_creation_method	'MofGen! by Chris Wilmer'
_symmetry_space_group_name_H-M	'P1'
_symmetry_Int_Tables_number	1
_symmetry_cell_setting	triclinic
loop_
_symmetry_equiv_pos_as_xyz
  x,y,z
_cell_length_a	14.853567
_cell_length_b	11.026607
_cell_length_c	13.330367
_cell_angle_alpha	89.999313
_cell_angle_beta	90.002061
_cell_angle_gamma	96.110474
loop_
_atom_site_label
_atom_site_type_symbol
_atom_site_fract_x
_atom_site_fract_y
_atom_site_fract_z
O1	O	-1.221937	-0.158473	-0.083350
O2	O	-0.962524	-0.177351	-0.083367
O3	O	-1.070731	0.008777	-0.083356
O4	O	-1.113730	-0.344601	-0.083361
O5	O	-1.070717	0.008772	0.083491
O6	O	-0.962510	-0.177357	0.083480
O7	O	-1.221924	-0.158478	0.083497
Cu8	Cu	-1.092216	-0.167918	0.098723
Cu9	Cu	-1.092232	-0.167911	-0.098593
O10	O	-1.113717	-0.344607	0.083486
C11	C	-0.928790	-0.176499	0.000055
C12	C	-0.828293	-0.173935	0.000048
C13	C	-1.255657	-0.159331	0.000073
C14	C	-1.356154	-0.161894	0.000073
C15	C	-1.062791	0.053999	0.000066
C16	C	-1.039143	0.188753	0.000061
C17	C	-0.396170	-0.052535	0.000072
C18	C	-0.410570	-0.273660	0.000068
C19	C	-0.504993	-0.276070	0.000065
C20	C	-0.545008	-0.166711	0.000064
C21	C	-0.490601	-0.054942	0.000066
C22	C	-0.559406	-0.387838	0.000053
C23	C	-0.653835	-0.390252	0.000049
C24	C	-0.693852	-0.280892	0.000055
C25	C	-0.639439	-0.169118	0.000058
C26	C	-0.679455	-0.059759	0.000056
C27	C	-0.625044	0.052016	0.000067
C28	C	-0.530619	0.054418	0.000072
C29	C	-0.788277	-0.283294	0.000049
C30	C	-0.773886	-0.062166	0.000050
C31	C	-1.121656	-0.389828	0.000062
C32	C	-1.145304	-0.524582	0.000061
N33	N	-1.092211	-0.167922	0.237505
C34	C	-1.104439	0.262448	0.000063
C35	C	-1.079999	0.401724	0.000058
N36	N	-1.092242	-0.167898	-0.237374
C37	C	-1.044285	-0.250314	0.290025
C38	C	-1.140142	-0.085525	0.290012
C39	C	-1.140151	-0.085520	0.395031
C40	C	-1.092224	-0.167912	0.447551
C41	C	-1.044289	-0.250310	0.395053
C42	C	-1.188077	-0.003116	0.447536
C43	C	-1.188087	-0.003107	0.552561
C44	C	-1.140165	-0.085506	0.605083
C45	C	-1.092229	-0.167908	0.552579
C46	C	-1.044302	-0.250300	0.605100
C47	C	-0.996371	-0.332709	0.552598
C48	C	-0.996368	-0.332709	0.447576
C49	C	-1.140168	-0.085505	0.710105
C50	C	-1.044307	-0.250295	0.710128
H51	H	-0.806459	0.026889	0.000053
H52	H	-0.698129	-0.481266	0.000040
H53	H	-1.219304	0.435409	-0.000010
H54	H	-1.179157	-0.018437	0.247247
H55	H	-0.957343	-0.399802	0.404822
Br56	Br	-0.915809	0.255435	0.000038
H57	H	-1.006000	0.441734	0.000047
Br58	Br	-0.456771	0.206099	0.000082
H59	H	-0.832575	-0.374300	0.000043
H60	H	-0.351864	0.038470	0.000085
Br61	Br	-0.979269	-0.362130	0.781398
Br62	Br	-0.931320	-0.444512	0.623887
Br63	Br	-0.505096	-0.536244	0.000033
H64	H	-1.005263	-0.317414	0.247275
H65	H	-1.227092	0.063972	0.404771
H66	H	-1.178433	0.222432	0.000074
Br67	Br	-1.253135	0.108727	0.623808
H68	H	-1.179188	-0.018404	0.752848
H69	H	-0.657637	0.141056	0.000059
H70	H	-0.377983	-0.362695	0.000061
