data_functionalizedCrystal
_audit_creation_method	'MofGen! by Chris Wilmer'
_symmetry_space_group_name_H-M	'P1'
_symmetry_Int_Tables_number	1
_symmetry_cell_setting	triclinic
loop_
_symmetry_equiv_pos_as_xyz
  x,y,z
_cell_length_a	10.654559
_cell_length_b	9.130313
_cell_length_c	15.995300
_cell_angle_alpha	89.999101
_cell_angle_beta	96.019754
_cell_angle_gamma	90.000951
loop_
_atom_site_label
_atom_site_type_symbol
_atom_site_fract_x
_atom_site_fract_y
_atom_site_fract_z
O1	O	1.666259	0.121791	-0.117643
O2	O	1.300632	0.121791	-0.128840
O3	O	1.493473	0.121798	-0.001409
O4	O	1.473418	0.121784	-0.245074
O5	O	1.493471	-0.121801	-0.001403
O6	O	1.300630	-0.121808	-0.128833
O7	O	1.666256	-0.121808	-0.117636
Cu8	Cu	1.483443	-0.144050	-0.123234
Cu9	Cu	1.483446	0.144033	-0.123242
O10	O	1.473415	-0.121815	-0.245067
C11	C	1.253844	-0.000009	-0.128013
C12	C	1.114435	-0.000008	-0.125548
C13	C	1.063926	-0.000007	-0.048203
C14	C	0.932935	0.000004	-0.045892
C15	C	0.902971	0.000007	-0.198279
C16	C	1.033960	0.000007	-0.200589
C17	C	1.144401	-0.000022	0.026838
C18	C	1.093894	-0.000023	0.104190
C19	C	0.962902	-0.000012	0.106500
C20	C	0.882418	0.000000	0.031459
C21	C	1.492654	0.000004	0.029794
C22	C	1.490202	0.000019	0.122761
C23	C	1.713044	-0.000005	-0.118464
C24	C	1.852454	0.000004	-0.120928
N25	N	1.483449	0.346656	-0.123242
N26	N	1.483450	-0.346673	-0.123228
C27	C	1.568996	0.423311	-0.066927
C28	C	1.569000	0.576648	-0.066921
C29	C	1.397898	0.576661	-0.179549
C30	C	1.397901	0.423327	-0.179558
C31	C	1.654544	0.346641	-0.010610
C32	C	1.740097	0.423296	0.045710
C33	C	1.740101	0.576633	0.045715
C34	C	1.654552	0.653314	-0.010600
C35	C	1.474235	-0.000018	-0.276270
C36	C	1.476687	-0.000023	-0.369237
C37	C	1.485673	0.000004	0.292971
C38	C	1.622980	0.000007	0.339636
C39	C	1.620475	-0.000551	0.436338
C40	C	1.481216	-0.000008	0.460553
C41	C	1.413092	-0.138840	0.419820
C42	C	1.416566	-0.138951	0.323166
C43	C	1.414536	0.138076	0.322895
C44	C	1.414549	0.139895	0.419839
C45	C	1.478689	-0.000020	0.555263
C46	C	1.488195	0.000006	0.198260
H47	H	1.251062	-0.000035	0.024965
H48	H	1.809770	0.639044	0.091567
N49	N	1.180691	-0.000020	0.185123
H50	H	1.271337	-0.000030	0.171925
H51	H	1.164330	-0.090323	0.218800
N52	N	1.305629	0.340627	-0.240288
H53	H	1.353493	0.277020	-0.277729
H54	H	1.251446	0.412548	-0.275902
N55	N	1.832376	0.340601	0.106439
H56	H	1.819394	0.231832	0.097893
H57	H	1.818063	0.367395	0.165962
H58	H	1.075084	-0.000007	-0.263570
H59	H	1.673771	-0.100653	0.463877
H60	H	0.921783	0.000002	0.169483
H61	H	0.775757	0.000022	0.033347
H62	H	1.313023	0.148695	0.435775
H63	H	1.310767	-0.143614	0.434516
H64	H	1.315740	-0.144877	0.291481
H65	H	1.464297	0.242605	0.446887
N66	N	0.816171	0.000018	-0.279212
H67	H	0.725525	0.000016	-0.266012
H68	H	0.832523	-0.090288	-0.312886
N69	N	1.481571	-0.276948	0.298512
H70	H	1.507708	-0.337133	0.350410
H71	H	1.558740	-0.250193	0.270133
N72	N	1.280442	0.139860	0.281581
H73	H	1.265788	0.051715	0.243662
H74	H	1.265720	0.232269	0.247245
H75	H	1.654546	0.221786	-0.010608
N76	N	1.654546	0.818699	-0.010607
H77	H	1.739806	0.855642	-0.023428
H78	H	1.636407	0.855514	0.046442
H79	H	1.328246	0.639105	-0.225398
N80	N	1.691411	0.131215	0.473637
H81	H	1.724590	0.190188	0.427263
H82	H	1.764325	0.097536	0.514567
H83	H	1.678153	0.099563	0.320833
H84	H	1.677374	-0.099328	0.319653
N85	N	1.474990	-0.276226	0.457015
H86	H	1.469397	-0.277804	0.519652
H87	H	1.566536	-0.277874	0.445852
N88	N	1.474408	0.277513	0.295392
H89	H	1.548259	0.252586	0.263251
H90	H	1.504821	0.337747	0.346493
