data_functionalizedCrystal
_audit_creation_method	'MofGen! by Chris Wilmer'
_symmetry_space_group_name_H-M	'P1'
_symmetry_Int_Tables_number	1
_symmetry_cell_setting	triclinic
loop_
_symmetry_equiv_pos_as_xyz
  x,y,z
_cell_length_a	19.851628
_cell_length_b	14.560438
_cell_length_c	14.560438
_cell_angle_alpha	119.999504
_cell_angle_beta	89.994708
_cell_angle_gamma	59.997979
loop_
_atom_site_label
_atom_site_type_symbol
_atom_site_fract_x
_atom_site_fract_y
_atom_site_fract_z
Zr1	Zr	0.648974	1.005176	0.120401
O2	O	0.541402	1.196800	0.267066
O3	O	0.681950	0.813568	0.075443
O4	O	0.681944	1.005177	0.267046
O5	O	0.541415	1.005185	-0.075680
O6	O	0.792805	1.005159	0.267028
O7	O	0.541409	1.005191	0.075463
O8	O	0.792818	0.662406	-0.075715
O9	O	0.541402	1.347938	0.267063
O10	O	0.778750	0.892360	0.056252
O11	O	0.696019	0.892368	-0.056530
O12	O	0.696011	1.117963	0.169058
O13	O	0.613280	1.117971	0.056275
Zr14	Zr	0.825795	1.005138	-0.120683
Zr15	Zr	0.825786	1.005148	0.120372
Zr16	Zr	0.648983	1.005166	-0.120654
Zr17	Zr	0.648974	1.246223	0.120397
Zr18	Zr	0.825794	0.764090	-0.120679
O19	O	0.792818	1.196745	-0.075725
O20	O	0.792806	1.196760	0.267024
O21	O	0.541415	1.196786	-0.075684
O22	O	0.933367	0.813513	-0.267348
O23	O	0.933354	0.813528	0.075401
O24	O	0.681963	0.813554	-0.267306
O25	O	0.933354	1.005128	0.075398
O26	O	0.792825	1.005137	-0.267328
O27	O	0.681963	1.005154	-0.267310
O28	O	0.933360	1.005122	-0.075745
O29	O	0.681944	1.347915	0.267040
O30	O	0.792825	0.662398	-0.267322
O31	O	0.933366	0.662376	-0.267345
O32	O	0.933359	0.662384	-0.075738
O33	O	0.541409	1.347930	0.075456
O34	O	0.681951	1.347907	0.075433
O35	O	0.778758	0.892350	-0.169340
O36	O	0.861489	0.892342	-0.056558
O37	O	0.778750	1.117945	0.056248
O38	O	0.696019	1.117954	-0.056534
C39	C	0.737384	0.703643	-0.000135
C40	C	0.737384	0.601312	-0.000133
C41	C	0.780567	0.553231	0.058738
C42	C	0.780570	0.457072	0.058727
C43	C	0.694201	0.457086	-0.059027
C44	C	0.694203	0.553237	-0.059023
C45	C	0.516220	1.005192	-0.000104
C46	C	0.441159	1.005204	-0.000092
C47	C	0.214701	1.128184	0.061377
C48	C	0.192338	1.066699	0.105946
C49	C	0.303752	1.005170	-0.000124
C50	C	0.192374	1.066664	-0.044673
C51	C	0.171020	1.005147	-0.000155
C52	C	0.282378	0.943685	0.044507
C53	C	0.282412	0.943667	-0.106171
C54	C	0.260102	0.882093	-0.061628
C55	C	0.380214	1.005188	-0.000104
C56	C	0.094563	1.005120	-0.000173
C57	C	0.958549	1.005121	-0.000178
C58	C	1.033610	1.005109	-0.000190
C59	C	0.737373	1.005169	0.301382
C60	C	0.737369	1.005174	0.403716
C61	C	0.737385	1.306671	-0.000147
C62	C	0.737385	1.409002	-0.000149
C63	C	0.694181	1.122935	0.510677
C64	C	0.694189	1.122931	0.606827
C65	C	0.780575	0.887394	0.489042
C66	C	0.780572	0.887399	0.392895
C67	C	0.737391	1.005150	0.698339
C68	C	0.737381	1.005165	0.596014
C69	C	0.958549	0.703607	-0.000172
C70	C	1.033610	0.601264	-0.000183
C71	C	0.737395	0.703630	-0.301659
C72	C	0.737399	0.601295	-0.403991
C73	C	0.958560	0.703595	-0.301695
C74	C	1.033625	0.601248	-0.404040
C75	C	0.516209	1.306719	0.301413
C76	C	0.441144	1.409066	0.403758
C77	C	0.516220	1.306706	-0.000110
C78	C	0.441159	1.409049	-0.000100
C79	C	0.737374	1.306683	0.301376
C80	C	0.737370	1.409018	0.403709
C81	C	1.025670	0.553212	0.058708
C82	C	1.096191	0.457064	0.058721
C83	C	1.174651	0.408962	-0.000165
C84	C	1.182589	0.457023	-0.059057
C85	C	1.112069	0.553177	-0.059062
C86	C	1.112068	0.553180	-0.393231
C87	C	1.182606	0.457027	-0.489386
C88	C	1.174699	0.408937	-0.596348
C89	C	1.096248	0.457015	-0.607155
C90	C	1.025711	0.553172	-0.511001
C91	C	0.362701	1.457145	0.392949
C92	C	0.292163	1.553328	0.489103
C93	C	0.300070	1.601423	0.596066
C94	C	0.378521	1.553339	0.606873
C95	C	0.449058	1.457165	0.510719
C96	C	0.449099	1.457111	-0.058980
C97	C	0.378578	1.553286	-0.058966
C98	C	0.300118	1.601391	-0.000078
C99	C	0.292180	1.553325	0.058810
C100	C	0.362700	1.457158	0.058802
C101	C	0.780589	0.553206	-0.510952
C102	C	0.780583	0.457061	-0.607101
C103	C	0.694196	0.457097	-0.489312
C104	C	0.694197	0.553247	-0.393166
H105	H	0.815735	0.417926	0.106664
Cl106	Cl	0.639893	1.270982	0.741290
Cl107	Cl	0.132471	1.146962	-0.102824
H108	H	0.385057	1.592406	-0.106924
Cl109	Cl	1.122064	0.613565	-0.133113
H110	H	0.659003	1.218835	0.519494
H111	H	0.815748	0.791506	0.480245
H112	H	0.321071	0.891734	0.082274
Cl113	Cl	0.388447	1.613810	0.741349
H114	H	0.242628	1.679734	0.674351
H115	H	0.815745	0.791498	0.305797
Cl116	Cl	0.639892	0.613713	-0.258690
H117	H	0.228291	1.592461	0.480282
H118	H	1.118521	0.592320	-0.306145
H119	H	0.961791	0.592376	0.106673
H120	H	1.089822	0.417846	-0.694257
Cl121	Cl	0.927099	0.613581	-0.524610
H122	H	1.232141	0.330639	-0.674633
Cl123	Cl	0.211471	1.722286	-0.000082
Cl124	Cl	1.263298	0.288078	-0.000149
H125	H	0.659043	0.417933	-0.106972
Cl126	Cl	1.281220	0.396601	-0.475774
H127	H	0.659038	0.592383	-0.106968
Cl128	Cl	0.132410	1.146969	0.244387
Cl129	Cl	1.086193	0.396658	0.132757
H130	H	0.278710	0.777994	-0.113638
H131	H	0.815729	0.592370	0.106687
Cl132	Cl	0.547725	1.396663	-0.133015
Cl133	Cl	1.281231	0.396533	-0.133085
Cl134	Cl	0.352739	1.396703	0.258493
Cl135	Cl	0.547669	1.396725	0.524328
Cl136	Cl	0.193538	1.613809	0.132831
H137	H	0.356224	1.418029	0.106747
Cl138	Cl	0.834896	0.613609	-0.524563
Cl139	Cl	0.834879	0.396614	-0.741566
Cl140	Cl	0.639892	0.396683	-0.475715
Cl141	Cl	0.342337	0.863464	-0.244585
Cl142	Cl	0.186217	1.288767	0.141784
