data_functionalizedCrystal
_audit_creation_method	'MofGen! by Chris Wilmer'
_symmetry_space_group_name_H-M	'P1'
_symmetry_Int_Tables_number	1
_symmetry_cell_setting	triclinic
loop_
_symmetry_equiv_pos_as_xyz
  x,y,z
_cell_length_a	10.723023
_cell_length_b	14.044220
_cell_length_c	9.798715
_cell_angle_alpha	89.995876
_cell_angle_beta	89.996770
_cell_angle_gamma	88.828213
loop_
_atom_site_label
_atom_site_type_symbol
_atom_site_fract_x
_atom_site_fract_y
_atom_site_fract_z
O1	O	1.670498	0.133036	-0.113481
O2	O	1.308619	0.145772	-0.113487
O3	O	1.484127	0.001384	-0.113471
O4	O	1.494990	0.277424	-0.113498
O5	O	1.484112	0.001384	0.113511
O6	O	1.308605	0.145771	0.113495
O7	O	1.670483	0.133036	0.113501
Zn8	Zn	1.489542	0.139403	0.149536
Zn9	Zn	1.489561	0.139404	-0.149523
O10	O	1.494976	0.277423	0.113484
C11	C	1.262020	0.144845	0.000003
C12	C	1.123188	0.142072	0.000001
C13	C	1.061285	0.140836	0.117584
C14	C	0.917795	0.137971	0.117584
C15	C	1.479364	-0.033962	0.000021
C16	C	1.465180	-0.139280	0.000022
C17	C	1.439248	-0.332109	0.000002
C18	C	1.539850	-0.389089	-0.000000
C19	C	1.525421	-0.496386	-0.000012
C20	C	1.453675	-0.224802	0.000013
C21	C	1.717083	0.133963	0.000007
C22	C	1.855915	0.136735	0.000000
C23	C	1.499739	0.312769	-0.000010
C24	C	1.513923	0.418087	-0.000021
N25	N	1.489538	0.139403	0.353636
N26	N	1.489574	0.139397	-0.353622
C27	C	1.563202	0.078511	0.421420
C28	C	1.563222	0.078508	0.578582
H29	H	1.114518	0.141894	0.218250
H30	H	1.426481	0.191528	0.411954
O31	O	1.655466	-0.351048	-0.000165
C32	C	1.669826	-0.294427	-0.117727
H33	H	1.574109	-0.270535	-0.156932
H34	H	1.720308	-0.337711	-0.200042
C35	C	1.864180	-0.235726	-0.033841
C36	C	1.746618	-0.206375	-0.081986
H37	H	1.911553	-0.181413	-0.011798
H38	H	1.854509	-0.273875	0.045361
H39	H	1.906232	-0.271797	-0.102445
H40	H	1.704562	-0.170315	-0.013377
H41	H	1.756284	-0.168218	-0.161177
H42	H	1.342291	-0.363909	-0.000003
O43	O	0.919535	0.138134	-0.120019
C44	C	0.989968	0.221662	-0.127341
H45	H	1.007709	0.249391	-0.019888
H46	H	0.936265	0.278084	-0.188477
C47	C	1.093695	0.165172	-0.329880
C48	C	1.115494	0.199225	-0.197903
H49	H	1.171123	0.151334	-0.373412
H50	H	1.046240	0.108899	-0.324951
H51	H	1.048939	0.212196	-0.380810
H52	H	1.160235	0.152197	-0.146971
H53	H	1.162960	0.255490	-0.202825
H54	H	1.626294	0.026379	0.636874
H55	H	1.069956	0.141007	-0.100665
H56	H	1.426508	0.191535	0.588095
O57	O	1.638291	0.016205	0.351889
C58	C	1.607287	-0.077804	0.386703
H59	H	1.507294	-0.078802	0.426113
H60	H	1.673405	-0.105391	0.469497
C61	C	1.741994	-0.140656	0.211248
C62	C	1.619177	-0.141883	0.259642
H63	H	1.749333	-0.180184	0.132874
H64	H	1.762886	-0.077320	0.187796
H65	H	1.797078	-0.163642	0.280255
H66	H	1.564097	-0.118886	0.190642
H67	H	1.598276	-0.205216	0.283080
O68	O	0.854253	0.136531	0.237652
C69	C	0.783769	0.053026	0.244941
H70	H	0.826660	-0.003504	0.174783
H71	H	0.683816	0.069595	0.211562
C72	C	0.731177	0.085225	0.478934
C73	C	0.783863	0.015790	0.392773
H74	H	0.731229	0.062257	0.570124
H75	H	0.778659	0.141485	0.474023
H76	H	0.647887	0.099026	0.451102
H77	H	0.867155	0.001999	0.420595
H78	H	0.736394	-0.040474	0.397692
