data_functionalizedCrystal
_audit_creation_method	'MofGen! by Chris Wilmer'
_symmetry_space_group_name_H-M	'P1'
_symmetry_Int_Tables_number	1
_symmetry_cell_setting	triclinic
loop_
_symmetry_equiv_pos_as_xyz
  x,y,z
_cell_length_a	12.759395
_cell_length_b	11.169416
_cell_length_c	11.169409
_cell_angle_alpha	90.030874
_cell_angle_beta	89.979216
_cell_angle_gamma	89.988123
loop_
_atom_site_label
_atom_site_type_symbol
_atom_site_fract_x
_atom_site_fract_y
_atom_site_fract_z
Zn1	Zn	1.606303	0.477661	-0.678586
Zn2	Zn	1.606207	0.678401	-0.477908
Zn3	Zn	1.430601	0.477736	-0.477917
Zn4	Zn	1.430607	0.678306	-0.678549
O5	O	1.518429	0.578026	-0.578240
O6	O	1.753312	0.504298	-0.651977
O7	O	1.582869	0.651854	-0.309959
O8	O	1.453946	0.309776	-0.504555
O9	O	1.753240	0.651781	-0.504540
O10	O	1.583034	0.309721	-0.651986
O11	O	1.453852	0.504426	-0.309966
O12	O	1.283581	0.504334	-0.504520
O13	O	1.453957	0.651618	-0.846504
O14	O	1.283585	0.651692	-0.651923
O15	O	1.583040	0.504205	-0.846531
O16	O	1.582875	0.846338	-0.504504
O17	O	1.453863	0.846268	-0.651915
C18	C	1.518388	0.889851	-0.578231
C19	C	1.518466	1.023251	-0.578267
C20	C	1.245462	0.578011	-0.578219
C21	C	1.128685	0.578034	-0.578239
C22	C	1.518510	0.577893	-0.891282
C23	C	1.518545	0.577836	-1.024683
C24	C	1.128729	0.731726	-0.731482
C25	C	1.073890	0.808581	-0.808107
C26	C	0.964168	0.808596	-0.808122
C27	C	0.909283	0.731744	-0.731506
C28	C	0.964122	0.654889	-0.654881
C29	C	1.073846	0.654885	-0.654872
C30	C	0.964079	0.501193	-0.501645
C31	C	1.073800	0.501182	-0.501623
C32	C	0.909193	0.424341	-0.425029
C33	C	0.964032	0.347490	-0.348396
C34	C	1.073761	0.347480	-0.348384
C35	C	1.128639	0.424327	-0.424998
C36	C	1.792463	0.578042	-0.578261
C37	C	1.909240	0.578048	-0.578270
C38	C	1.518500	0.264984	-0.578275
C39	C	1.518530	0.131584	-0.578290
C40	C	1.518410	0.578072	-0.266415
C41	C	1.518579	0.577791	-0.133016
H42	H	1.118589	0.871150	-0.870488
C43	C	0.904812	0.892160	-0.891367
C44	C	0.976354	0.959475	-0.958447
C45	C	0.921714	1.036472	-1.035137
H46	H	0.862033	0.846441	-0.943845
H47	H	0.862005	0.944467	-0.845400
H48	H	1.019143	0.907174	-1.004412
H49	H	1.019135	1.005218	-0.906001
H50	H	0.878907	1.088779	-0.989169
H51	H	0.878937	0.990744	-1.087607
H52	H	0.970247	1.082162	-1.080651
H53	H	1.218070	0.731731	-0.731469
H54	H	0.819942	0.731753	-0.731535
H55	H	0.819852	0.424354	-0.425052
C56	C	0.904255	0.264192	-0.265266
C57	C	0.796429	0.280668	-0.281666
C58	C	0.741325	0.203966	-0.205093
H59	H	0.922128	0.183522	-0.282887
H60	H	0.922134	0.281673	-0.184566
H61	H	0.778556	0.263178	-0.362347
H62	H	0.778524	0.361321	-0.264036
H63	H	0.759205	0.221448	-0.124393
H64	H	0.759207	0.123302	-0.222721
H65	H	0.668160	0.215142	-0.216202
C66	C	1.133107	0.263992	-0.265052
C67	C	1.061552	0.196721	-0.197945
C68	C	1.116179	0.119813	-0.121154
H69	H	1.175942	0.211644	-0.310911
H70	H	1.175856	0.309810	-0.212605
H71	H	1.018821	0.150907	-0.250385
H72	H	1.018715	0.249038	-0.152062
H73	H	1.158928	0.165631	-0.068706
H74	H	1.159012	0.067473	-0.167022
H75	H	1.067638	0.074168	-0.075604
H76	H	1.217980	0.424329	-0.424991
