data_functionalizedCrystal
_audit_creation_method	'MofGen! by Chris Wilmer'
_symmetry_space_group_name_H-M	'P1'
_symmetry_Int_Tables_number	1
_symmetry_cell_setting	triclinic
loop_
_symmetry_equiv_pos_as_xyz
  x,y,z
_cell_length_a	27.732046
_cell_length_b	27.732048
_cell_length_c	10.868271
_cell_angle_alpha	90.010073
_cell_angle_beta	90.001757
_cell_angle_gamma	97.357683
loop_
_atom_site_label
_atom_site_type_symbol
_atom_site_fract_x
_atom_site_fract_y
_atom_site_fract_z
O1	O	-0.640927	0.057513	0.102160
O2	O	-0.307594	0.390847	0.435494
O3	O	0.025739	0.724180	0.768827
O4	O	-0.500134	0.066260	0.102203
O5	O	-0.166801	0.399593	0.435536
O6	O	0.166533	0.732926	0.768870
O7	O	-0.574903	-0.008510	0.102157
O8	O	-0.241570	0.324823	0.435490
O9	O	0.091763	0.658157	0.768824
O10	O	-0.566158	0.132283	0.102206
O11	O	-0.232825	0.465617	0.435540
O12	O	0.100509	0.798950	0.768873
O13	O	-0.574897	-0.008513	-0.102488
O14	O	-0.241564	0.324820	0.230846
O15	O	0.091769	0.658154	0.564179
O16	O	-0.500128	0.066257	-0.102442
O17	O	-0.166795	0.399590	0.230892
O18	O	0.166539	0.732924	0.564225
O19	O	-0.640921	0.057511	-0.102484
O20	O	-0.307588	0.390844	0.230849
O21	O	0.025745	0.724177	0.564182
Zn22	Zn	-0.570524	0.061883	-0.134955
Zn23	Zn	-0.237190	0.395217	0.198379
Zn24	Zn	0.096143	0.728550	0.531712
Zn25	Zn	-0.570532	0.061887	0.134673
Zn26	Zn	-0.237198	0.395220	0.468007
Zn27	Zn	0.096135	0.728554	0.801340
O28	O	-0.566152	0.132281	-0.102438
O29	O	-0.232819	0.465614	0.230895
O30	O	0.100515	0.798947	0.564228
C31	C	-0.482124	0.066075	-0.000114
C32	C	-0.148791	0.399408	0.333219
C33	C	0.184543	0.732742	0.666552
C34	C	-0.428469	0.065522	-0.000099
C35	C	-0.095136	0.398856	0.333234
C36	C	0.238198	0.732189	0.666568
C37	C	-0.574717	-0.026518	-0.000169
C38	C	-0.241384	0.306815	0.333165
C39	C	0.091950	0.640148	0.666498
C40	C	-0.574164	-0.080173	-0.000179
C41	C	-0.240831	0.253160	0.333155
C42	C	0.092503	0.586493	0.666488
C43	C	-0.089654	0.106228	-0.000129
C44	C	0.243680	0.439562	0.333204
C45	C	0.577013	0.772895	0.666537
C46	C	0.112006	0.104178	-0.000136
C47	C	0.445339	0.437512	0.333198
C48	C	0.778673	0.770845	0.666531
O49	O	0.143262	0.141399	-0.000175
O50	O	0.476595	0.474733	0.333158
O51	O	0.809928	0.808066	0.666491
N52	N	0.131130	0.059843	-0.000149
N53	N	0.464463	0.393177	0.333185
N54	N	0.797797	0.726510	0.666518
C55	C	0.099835	0.016018	-0.000168
C56	C	0.433169	0.349351	0.333165
C57	C	0.766502	0.682684	0.666499
O58	O	0.120728	-0.021739	-0.000192
O59	O	0.454062	0.311594	0.333142
O60	O	0.787395	0.644927	0.666475
C61	C	-0.101824	0.018068	-0.000170
C62	C	0.231510	0.351401	0.333163
C63	C	0.564843	0.684735	0.666497
C64	C	-0.120944	0.062406	-0.000145
C65	C	0.212389	0.395739	0.333188
C66	C	0.545722	0.729072	0.666522
C67	C	-0.108775	0.150563	-0.000105
C68	C	0.224558	0.483896	0.333228
C69	C	0.557892	0.817229	0.666561
C70	C	-0.159187	0.151075	-0.000097
C71	C	0.174146	0.484408	0.333236
C72	C	0.507480	0.817741	0.666570
C73	C	-0.190478	0.107252	-0.000113
C74	C	0.142856	0.440585	0.333221
C75	C	0.476189	0.773919	0.666554
C76	C	-0.171356	0.062918	-0.000137
C77	C	0.161977	0.396251	0.333197
C78	C	0.495310	0.729584	0.666530
C79	C	-0.133117	-0.025757	-0.000198
C80	C	0.200216	0.307576	0.333135
C81	C	0.533549	0.640909	0.666468
C82	C	-0.183535	-0.025241	-0.000202
C83	C	0.149799	0.308092	0.333131
C84	C	0.483132	0.641426	0.666465
C85	C	-0.202655	0.019097	-0.000177
C86	C	0.130678	0.352430	0.333157
C87	C	0.464011	0.685764	0.666490
C88	C	-0.253059	0.019607	-0.000144
C89	C	0.080274	0.352941	0.333190
C90	C	0.413608	0.686274	0.666523
N91	N	-0.272183	0.063942	-0.000131
N92	N	0.061151	0.397276	0.333202
N93	N	0.394484	0.730609	0.666536
C94	C	-0.240892	0.107765	-0.000115
C95	C	0.092441	0.441098	0.333218
C96	C	0.425775	0.774432	0.666551
C97	C	0.205709	0.014944	-0.000164
C98	C	0.539043	0.348278	0.333169
C99	C	0.872376	0.681611	0.666502
C100	C	0.256124	0.014432	-0.000161
C101	C	0.589457	0.347765	0.333172
C102	C	0.922790	0.681098	0.666505
C103	C	0.268291	0.102593	-0.000132
C104	C	0.601625	0.435926	0.333202
C105	C	0.934958	0.769259	0.666535
C106	C	0.217876	0.103105	-0.000126
C107	C	0.551209	0.436438	0.333208
C108	C	0.884543	0.769771	0.666541
C109	C	0.186586	0.059279	-0.000151
C110	C	0.519919	0.392613	0.333182
C111	C	0.853252	0.725946	0.666515
C112	C	-0.346761	0.108837	-0.000097
C113	C	-0.013428	0.442170	0.333237
C114	C	0.319905	0.775503	0.666570
C115	C	-0.397178	0.109345	-0.000083
C116	C	-0.063845	0.442678	0.333250
C117	C	0.269488	0.776011	0.666583
C118	C	-0.409341	0.021184	-0.000120
C119	C	-0.076008	0.354517	0.333214
C120	C	0.257325	0.687851	0.666547
C121	C	-0.358929	0.020676	-0.000127
C122	C	-0.025596	0.354009	0.333207
C123	C	0.307738	0.687342	0.666540
C124	C	-0.327640	0.064506	-0.000119
C125	C	0.005694	0.397839	0.333214
C126	C	0.339027	0.731173	0.666547
O127	O	-0.284343	-0.017594	-0.000118
O128	O	0.048990	0.315740	0.333215
O129	O	0.382324	0.649073	0.666548
O130	O	-0.261795	0.145516	-0.000119
O131	O	0.071539	0.478849	0.333214
O132	O	0.404872	0.812183	0.666548
C133	C	-0.039242	0.105716	-0.000138
C134	C	0.294092	0.439050	0.333196
C135	C	0.627425	0.772383	0.666529
C136	C	-0.020120	0.061382	-0.000162
C137	C	0.313213	0.394715	0.333172
C138	C	0.646546	0.728049	0.666505
C139	C	-0.051411	0.017559	-0.000177
C140	C	0.281922	0.350893	0.333156
C141	C	0.615256	0.684226	0.666490
C142	C	0.030294	0.060869	-0.000159
C143	C	0.363627	0.394203	0.333175
C144	C	0.696961	0.727536	0.666508
C145	C	0.061585	0.104692	-0.000143
C146	C	0.394918	0.438025	0.333190
C147	C	0.728251	0.771358	0.666524
C148	C	0.042461	0.149027	-0.000130
C149	C	0.375794	0.482360	0.333203
C150	C	0.709128	0.815693	0.666536
C151	C	-0.007951	0.149539	-0.000122
C152	C	0.325382	0.482872	0.333211
C153	C	0.658716	0.816205	0.666545
C154	C	-0.032287	-0.026776	-0.000190
C155	C	0.301046	0.306558	0.333143
C156	C	0.634379	0.639891	0.666477
C157	C	0.018125	-0.027284	-0.000197
C158	C	0.351459	0.306049	0.333136
C159	C	0.684792	0.639383	0.666470
C160	C	0.049416	0.016538	-0.000181
C161	C	0.382749	0.349872	0.333152
C162	C	0.716083	0.683205	0.666485
C163	C	0.341069	0.057697	-0.000158
C164	C	0.674402	0.391030	0.333175
C165	C	1.007735	0.724364	0.666509
C166	C	0.287415	0.058254	-0.000146
C167	C	0.620748	0.391587	0.333187
C168	C	0.954081	0.724921	0.666521
C169	C	-0.614868	-0.418989	-0.000128
C170	C	-0.281535	-0.085655	0.333205
C171	C	0.051799	0.247678	0.666539
C172	C	-0.612817	-0.620648	-0.000110
C173	C	-0.279484	-0.287315	0.333223
C174	C	0.053850	0.046018	0.666557
O175	O	-0.650038	-0.651904	-0.000068
O176	O	-0.316704	-0.318571	0.333266
O177	O	0.016629	0.014763	0.666599
N178	N	-0.568482	-0.639772	-0.000098
N179	N	-0.235148	-0.306438	0.333235
N180	N	0.098185	0.026895	0.666569
C181	C	-0.524656	-0.608477	-0.000082
C182	C	-0.191323	-0.275143	0.333251
C183	C	0.142011	0.058190	0.666585
O184	O	-0.486899	-0.629370	-0.000058
O185	O	-0.153566	-0.296036	0.333275
O186	O	0.179768	0.037297	0.666608
C187	C	-0.526708	-0.406818	-0.000091
C188	C	-0.193374	-0.073485	0.333242
C189	C	0.139959	0.259848	0.666576
C190	C	-0.571046	-0.387698	-0.000116
C191	C	-0.237712	-0.054364	0.333218
C192	C	0.095621	0.278969	0.666551
C193	C	-0.659202	-0.399868	-0.000151
C194	C	-0.325869	-0.066534	0.333182
C195	C	0.007464	0.266799	0.666515
C196	C	-0.659715	-0.349456	-0.000162
C197	C	-0.326381	-0.016122	0.333171
C198	C	0.006952	0.317211	0.666504
C199	C	-0.615892	-0.318165	-0.000150
C200	C	-0.282559	0.015169	0.333183
C201	C	0.050774	0.348502	0.666516
C202	C	-0.571558	-0.337286	-0.000127
C203	C	-0.238225	-0.003952	0.333207
C204	C	0.095109	0.329381	0.666540
C205	C	-0.482882	-0.375524	-0.000066
C206	C	-0.149549	-0.042191	0.333267
C207	C	0.183784	0.291142	0.666601
C208	C	-0.483399	-0.325107	-0.000065
C209	C	-0.150066	0.008226	0.333268
C210	C	0.183267	0.341560	0.666601
C211	C	-0.527737	-0.305986	-0.000090
C212	C	-0.194404	0.027347	0.333243
C213	C	0.138929	0.360680	0.666577
C214	C	-0.528248	-0.255583	-0.000126
C215	C	-0.194915	0.077750	0.333208
C216	C	0.138419	0.411084	0.666541
N217	N	-0.572583	-0.236459	-0.000138
N218	N	-0.239250	0.096874	0.333195
N219	N	0.094083	0.430207	0.666529
C220	C	-0.616405	-0.267750	-0.000150
C221	C	-0.283072	0.065583	0.333183
C222	C	0.050261	0.398916	0.666516
C223	C	-0.523582	-0.714351	-0.000080
C224	C	-0.190249	-0.381018	0.333254
C225	C	0.143085	-0.047684	0.666587
C226	C	-0.523069	-0.764765	-0.000080
C227	C	-0.189736	-0.431432	0.333254
C228	C	0.143598	-0.098099	0.666587
C229	C	-0.611230	-0.776933	-0.000106
C230	C	-0.277897	-0.443600	0.333228
C231	C	0.055437	-0.110267	0.666561
C232	C	-0.611743	-0.726518	-0.000114
C233	C	-0.278409	-0.393185	0.333219
C234	C	0.054924	-0.059851	0.666552
C235	C	-0.567917	-0.695227	-0.000092
C236	C	-0.234584	-0.361894	0.333241
C237	C	0.098749	-0.028561	0.666575
C238	C	-0.617478	-0.161881	-0.000175
C239	C	-0.284145	0.171452	0.333159
C240	C	0.049189	0.504785	0.666492
C241	C	-0.617986	-0.111464	-0.000191
C242	C	-0.284653	0.221869	0.333142
C243	C	0.048680	0.555202	0.666476
C244	C	-0.529826	-0.099301	-0.000159
C245	C	-0.196492	0.234033	0.333175
C246	C	0.136841	0.567366	0.666508
C247	C	-0.529317	-0.149713	-0.000149
C248	C	-0.195983	0.183620	0.333185
C249	C	0.137350	0.516953	0.666518
C250	C	-0.573147	-0.181003	-0.000153
C251	C	-0.239814	0.152331	0.333181
C252	C	0.093520	0.485664	0.666514
O253	O	-0.491047	-0.224299	-0.000154
O254	O	-0.157714	0.109035	0.333179
O255	O	0.175620	0.442368	0.666512
O256	O	-0.654157	-0.246848	-0.000146
O257	O	-0.320823	0.086485	0.333187
O258	O	0.012510	0.419819	0.666520
C259	C	-0.614356	-0.469401	-0.000117
C260	C	-0.281022	-0.136067	0.333217
C261	C	0.052311	0.197266	0.666550
C262	C	-0.570021	-0.488522	-0.000093
C263	C	-0.236688	-0.155188	0.333240
C264	C	0.096646	0.178145	0.666573
C265	C	-0.526199	-0.457231	-0.000081
C266	C	-0.192866	-0.123897	0.333252
C267	C	0.140468	0.209436	0.666586
C268	C	-0.569508	-0.538936	-0.000093
C269	C	-0.236175	-0.205603	0.333240
C270	C	0.097159	0.127731	0.666573
C271	C	-0.613330	-0.570227	-0.000106
C272	C	-0.279997	-0.236894	0.333228
C273	C	0.053336	0.096440	0.666561
C274	C	-0.657666	-0.551103	-0.000118
C275	C	-0.324332	-0.217770	0.333215
C276	C	0.009001	0.115563	0.666549
C277	C	-0.658178	-0.500692	-0.000129
C278	C	-0.324844	-0.167358	0.333204
C279	C	0.008489	0.165975	0.666538
C280	C	-0.481864	-0.476354	-0.000069
C281	C	-0.148530	-0.143021	0.333265
C282	C	0.184803	0.190312	0.666598
C283	C	-0.481355	-0.526767	-0.000059
C284	C	-0.148022	-0.193433	0.333274
C285	C	0.185312	0.139900	0.666608
C286	C	-0.525177	-0.558058	-0.000071
C287	C	-0.191844	-0.224724	0.333262
C288	C	0.141490	0.108609	0.666595
C289	C	-0.566338	0.150289	-0.000110
C290	C	-0.233005	0.483622	0.333223
C291	C	0.100328	0.816956	0.666557
C292	C	-0.566891	0.203944	-0.000092
C293	C	-0.233558	0.537277	0.333242
C294	C	0.099775	0.870610	0.666575
N295	N	-0.570522	0.061880	-0.318969
N296	N	-0.237188	0.395214	0.014365
N297	N	0.096145	0.728547	0.347698
C298	C	-0.570529	0.061886	-0.569975
C299	C	-0.237196	0.395219	-0.236642
C300	C	0.096138	0.728553	0.096692
C301	C	-0.570523	0.061884	-0.430297
C302	C	-0.237190	0.395218	-0.096964
C303	C	0.096143	0.728551	0.236369
N304	N	-0.570537	0.061886	0.318687
N305	N	-0.237204	0.395219	0.652021
N306	N	0.096129	0.728553	0.985354
H307	H	-0.321291	0.144528	-0.000095
H308	H	0.012042	0.477861	0.333239
H309	H	0.345376	0.811194	0.666572
H310	H	-0.023514	0.185643	-0.000103
H311	H	0.309819	0.518976	0.333230
H312	H	0.643153	0.852310	0.666564
N313	N	-0.481497	-0.170340	-0.000139
N314	N	-0.148164	0.162993	0.333194
N315	N	0.185170	0.496327	0.666528
H316	H	-0.453814	-0.142865	-0.000137
H317	H	-0.120481	0.190468	0.333196
H318	H	0.212853	0.523801	0.666529
H319	H	-0.479366	-0.190982	0.075736
H320	H	-0.146033	0.142351	0.409069
H321	H	0.187300	0.475685	0.742402
N322	N	-0.075030	0.197832	-0.000158
N323	N	0.258303	0.531165	0.333175
N324	N	0.591637	0.864499	0.666508
H325	H	-0.094801	0.225991	-0.000167
H326	H	0.238532	0.559324	0.333167
H327	H	0.571866	0.892658	0.666500
H328	H	-0.053835	0.199561	0.075688
H329	H	0.279498	0.532895	0.409021
H330	H	0.612831	0.866228	0.742355
H331	H	0.180236	-0.020746	-0.000185
H332	H	0.513570	0.312587	0.333148
H333	H	0.846903	0.645921	0.666481
N334	N	-0.704930	-0.584861	-0.000139
N335	N	-0.371596	-0.251528	0.333194
N336	N	-0.038263	0.081805	0.666528
H337	H	-0.706680	-0.606042	0.075726
H338	H	-0.373346	-0.272709	0.409060
H339	H	-0.040013	0.060624	0.742393
H340	H	-0.733071	-0.565070	-0.000199
H341	H	-0.399738	-0.231737	0.333134
H342	H	-0.066405	0.101596	0.666468
H343	H	-0.434827	-0.014495	-0.000128
H344	H	-0.101494	0.318838	0.333206
H345	H	0.231839	0.652172	0.666539
H346	H	-0.695819	-0.333893	-0.000178
H347	H	-0.362486	-0.000560	0.333156
H348	H	-0.029153	0.332774	0.666489
N349	N	-0.436128	-0.291360	-0.000075
N350	N	-0.102795	0.041974	0.333258
N351	N	0.230538	0.375307	0.666591
H352	H	-0.443177	-0.256520	-0.000091
H353	H	-0.109844	0.076814	0.333242
H354	H	0.223490	0.410147	0.666576
H355	H	-0.416788	-0.297505	0.075792
H356	H	-0.083455	0.035828	0.409125
H357	H	0.249878	0.369162	0.742459
N358	N	0.302058	0.149851	-0.000174
N359	N	0.635391	0.483184	0.333160
N360	N	0.968724	0.816518	0.666493
H361	H	0.295942	0.169197	-0.076051
H362	H	0.629275	0.502530	0.257283
H363	H	0.962608	0.835863	0.590616
H364	H	0.295951	0.169196	0.075723
H365	H	0.629284	0.502529	0.409057
H366	H	0.962617	0.835863	0.742390
N367	N	-0.482562	-0.065547	-0.000179
N368	N	-0.149228	0.267787	0.333155
N369	N	0.184105	0.601120	0.666488
H370	H	-0.489618	-0.030709	-0.000193
H371	H	-0.156285	0.302624	0.333140
H372	H	0.177048	0.635957	0.666474
H373	H	-0.463220	-0.071688	0.075688
H374	H	-0.129886	0.261645	0.409021
H375	H	0.203447	0.594979	0.742355
N376	N	0.076215	0.196293	-0.000105
N377	N	0.409549	0.529626	0.333228
N378	N	0.742882	0.862960	0.666561
H379	H	0.111052	0.189236	-0.000113
H380	H	0.444386	0.522569	0.333220
H381	H	0.777719	0.855902	0.666553
H382	H	0.070061	0.215631	-0.075963
H383	H	0.403394	0.548964	0.257370
H384	H	0.736728	0.882298	0.590704
N385	N	-0.433527	-0.547380	-0.000032
N386	N	-0.100193	-0.214047	0.333302
N387	N	0.233140	0.119287	0.666635
H388	H	-0.431350	-0.568016	0.075838
H389	H	-0.098017	-0.234683	0.409172
H390	H	0.235316	0.098650	0.742505
H391	H	-0.431368	-0.568009	-0.075936
H392	H	-0.098034	-0.234676	0.257398
H393	H	0.235299	0.098658	0.590731
N394	N	-0.475244	-0.785379	-0.000066
N395	N	-0.141911	-0.452046	0.333267
N396	N	0.191422	-0.118713	0.666600
H397	H	-0.473066	-0.806019	0.075797
H398	H	-0.139732	-0.472686	0.409130
H399	H	0.193601	-0.139352	0.742463
H400	H	-0.473088	-0.806005	-0.075977
H401	H	-0.139755	-0.472672	0.257356
H402	H	0.193578	-0.139339	0.590689
N403	N	-0.112502	-0.073580	-0.000231
N404	N	0.220831	0.259754	0.333102
N405	N	0.554164	0.593087	0.666435
H406	H	-0.139981	-0.101258	-0.000251
H407	H	0.193352	0.232075	0.333082
H408	H	0.526685	0.565408	0.666416
H409	H	-0.091854	-0.075712	-0.076102
H410	H	0.241479	0.257621	0.257232
H411	H	0.574813	0.590954	0.590565
H412	H	-0.647847	-0.710954	-0.000133
H413	H	-0.314513	-0.377621	0.333200
H414	H	0.018820	-0.044287	0.666533
N415	N	0.197254	0.150926	-0.000094
N416	N	0.530588	0.484259	0.333239
N417	N	0.863921	0.817592	0.666572
H418	H	0.224731	0.178606	-0.000079
H419	H	0.558064	0.511940	0.333254
H420	H	0.891398	0.845273	0.666588
H421	H	0.176603	0.153062	-0.075959
H422	H	0.509936	0.486395	0.257374
H423	H	0.843269	0.819729	0.590708
H424	H	-0.694282	-0.485129	-0.000149
H425	H	-0.360949	-0.151795	0.333185
H426	H	-0.027616	0.181538	0.666518
N427	N	-0.706472	-0.433613	-0.000166
N428	N	-0.373138	-0.100280	0.333167
N429	N	-0.039805	0.233054	0.666501
H430	H	-0.734631	-0.413842	-0.000182
H431	H	-0.401297	-0.080509	0.333152
H432	H	-0.067964	0.252825	0.666485
H433	H	-0.708178	-0.454798	-0.076035
H434	H	-0.374845	-0.121465	0.257298
H435	H	-0.041511	0.211869	0.590632
H436	H	0.271687	-0.021673	-0.000163
H437	H	0.605020	0.311661	0.333171
H438	H	0.938354	0.644994	0.666504
H439	H	-0.412743	0.145452	-0.000062
H440	H	-0.079410	0.478785	0.333271
H441	H	0.253923	0.812118	0.666605
H442	H	-0.487892	-0.688878	-0.000062
H443	H	-0.154559	-0.355544	0.333272
H444	H	0.178775	-0.022211	0.666605
H445	H	0.033688	-0.063392	-0.000208
H446	H	0.367021	0.269941	0.333126
H447	H	0.700355	0.603275	0.666459
H448	H	-0.654093	-0.095900	-0.000214
H449	H	-0.320760	0.237434	0.333119
H450	H	0.012573	0.570767	0.666452
N451	N	-0.217283	-0.072511	-0.000238
N452	N	0.116050	0.260822	0.333096
N453	N	0.449383	0.594156	0.666429
H454	H	-0.197517	-0.100673	-0.000255
H455	H	0.135817	0.232660	0.333078
H456	H	0.469150	0.565994	0.666412
H457	H	-0.238464	-0.074222	0.075627
H458	H	0.094869	0.259111	0.408960
H459	H	0.428202	0.592445	0.742293
H460	H	-0.646912	-0.802419	-0.000116
H461	H	-0.313579	-0.469086	0.333217
H462	H	0.019755	-0.135753	0.666551
N463	N	-0.435060	-0.396139	-0.000055
N464	N	-0.101727	-0.062806	0.333278
N465	N	0.231607	0.270528	0.666612
H466	H	-0.407382	-0.368660	-0.000045
H467	H	-0.074048	-0.035326	0.333288
H468	H	0.259285	0.298007	0.666622
H469	H	-0.432925	-0.416785	0.075809
H470	H	-0.099591	-0.083452	0.409143
H471	H	0.233742	0.249881	0.742476
N472	N	-0.066033	-0.074044	-0.000216
N473	N	0.267300	0.259290	0.333118
N474	N	0.600634	0.592623	0.666451
H475	H	-0.046264	-0.102204	-0.000227
H476	H	0.287070	0.231130	0.333106
H477	H	0.620403	0.564463	0.666439
H478	H	-0.087213	-0.075754	0.075651
H479	H	0.246120	0.257580	0.408984
H480	H	0.579454	0.590913	0.742317
N481	N	-0.338302	-0.027144	-0.000131
N482	N	-0.004968	0.306189	0.333203
N483	N	0.328365	0.639523	0.666536
H484	H	-0.365776	-0.054827	-0.000133
H485	H	-0.032443	0.278506	0.333201
H486	H	0.300890	0.611839	0.666534
H487	H	-0.317655	-0.029279	-0.076002
H488	H	0.015679	0.304054	0.257331
H489	H	0.349012	0.637387	0.590665
H490	H	-0.653169	-0.187352	-0.000173
H491	H	-0.319835	0.145982	0.333160
H492	H	0.013498	0.479315	0.666494
N493	N	-0.434597	-0.442606	-0.000062
N494	N	-0.101264	-0.109273	0.333272
N495	N	0.232069	0.224061	0.666605
H496	H	-0.415238	-0.448714	0.075804
H497	H	-0.081904	-0.115380	0.409137
H498	H	0.251429	0.217953	0.742471
H499	H	-0.415277	-0.448747	-0.075970
H500	H	-0.081944	-0.115413	0.257364
H501	H	0.251390	0.217920	0.590697
N502	N	-0.179806	0.198896	-0.000064
N503	N	0.153527	0.532230	0.333270
N504	N	0.486860	0.865563	0.666603
H505	H	-0.152328	0.226576	-0.000054
H506	H	0.181005	0.559909	0.333279
H507	H	0.514338	0.893243	0.666612
H508	H	-0.200460	0.201033	-0.075924
H509	H	0.132873	0.534367	0.257409
H510	H	0.466207	0.867700	0.590742
