data_functionalizedCrystal
_audit_creation_method	'MofGen! by Chris Wilmer'
_symmetry_space_group_name_H-M	'P1'
_symmetry_Int_Tables_number	1
_symmetry_cell_setting	triclinic
loop_
_symmetry_equiv_pos_as_xyz
  x,y,z
_cell_length_a	11.792254
_cell_length_b	16.974800
_cell_length_c	16.053802
_cell_angle_alpha	91.074188
_cell_angle_beta	87.412233
_cell_angle_gamma	96.206824
loop_
_atom_site_label
_atom_site_type_symbol
_atom_site_fract_x
_atom_site_fract_y
_atom_site_fract_z
O1	O	-0.144679	1.049700	0.001532
O2	O	0.355321	1.549700	0.501532
O3	O	-0.162053	0.820313	-0.013974
O4	O	0.337947	1.320313	0.486026
O5	O	0.011836	0.940568	-0.005849
O6	O	0.511836	1.440568	0.494151
O7	O	-0.318569	0.929445	-0.006593
O8	O	0.181431	1.429445	0.493407
O9	O	0.002304	0.933948	0.132562
O10	O	0.502304	1.433948	0.632562
O11	O	-0.171585	0.813694	0.124438
O12	O	0.328415	1.313694	0.624438
O13	O	-0.154211	1.043080	0.139943
O14	O	0.345789	1.543080	0.639943
Zn15	Zn	-0.164412	0.927336	0.154166
Zn16	Zn	0.335588	1.427336	0.654166
Zn17	Zn	-0.151853	0.936057	-0.028197
Zn18	Zn	0.348147	1.436057	0.471803
O19	O	-0.328101	0.922825	0.131818
O20	O	0.171899	1.422825	0.631818
C21	C	-0.165984	0.787637	0.053246
C22	C	0.334016	1.287637	0.553246
C23	C	-0.163481	0.700133	0.047331
C24	C	0.336519	1.200133	0.547331
C25	C	-0.167499	0.655420	0.120002
C26	C	0.332501	1.155420	0.620002
C27	C	-0.165129	0.573203	0.114447
C28	C	0.334871	1.073203	0.614447
C29	C	-0.158750	0.535699	0.036219
C30	C	0.341250	1.035699	0.536219
C31	C	-0.154729	0.580418	-0.036457
C32	C	0.345271	1.080418	0.463543
C33	C	-0.157091	0.662635	-0.030901
C34	C	0.342909	1.162635	0.469099
C35	C	-0.151123	0.290196	0.011511
C36	C	0.348877	0.790196	0.511511
C37	C	-0.148765	0.207973	0.005959
C38	C	0.351235	0.707973	0.505959
C39	C	-0.159163	0.200764	0.156864
C40	C	0.340837	0.700764	0.656864
C41	C	-0.161531	0.282981	0.162414
C42	C	0.338469	0.782981	0.662414
C43	C	-0.157504	0.327694	0.089737
C44	C	0.342496	0.827694	0.589737
N45	N	-0.156332	0.451660	0.030538
N46	N	0.343668	0.951660	0.530538
N47	N	-0.159914	0.411733	0.095419
N48	N	0.340086	0.911733	0.595419
C49	C	-0.365621	0.926836	0.062661
C50	C	0.134379	1.426836	0.562661
C51	C	-0.491622	0.928933	0.062805
C52	C	0.008378	1.428933	0.562805
C53	C	-0.593948	0.930637	0.062916
C54	C	-0.093948	1.430637	0.562916
C55	C	-0.722322	0.932768	0.063050
C56	C	-0.222322	1.432768	0.563050
C57	C	0.049357	0.936558	0.063307
C58	C	0.549357	1.436558	0.563307
C59	C	0.175358	0.934461	0.063157
C60	C	0.675358	1.434461	0.563157
C61	C	-0.150280	1.075757	0.072721
C62	C	0.349720	1.575757	0.572721
C63	C	-0.152783	1.163260	0.078631
C64	C	0.347217	1.663260	0.578631
N65	N	-0.172982	0.921390	0.278625
N66	N	0.327018	1.421390	0.778625
N67	N	-0.143274	0.942010	-0.152655
N68	N	0.356726	1.442010	0.347345
C69	C	-0.099018	0.972577	0.325777
C70	C	0.400982	1.472577	0.825777
C71	C	-0.105024	0.968425	0.412903
C72	C	0.394976	1.468425	0.912903
C73	C	-0.185000	0.913089	0.452876
C74	C	0.315000	1.413089	0.952876
C75	C	-0.258967	0.861896	0.405717
C76	C	0.241033	1.361896	0.905717
C77	C	-0.252955	0.866045	0.318592
C78	C	0.247045	1.366045	0.818592
C79	C	-0.211229	0.894966	0.713061
C80	C	0.288771	1.394966	1.213061
C81	C	-0.217238	0.890822	0.800192
C82	C	0.282762	1.390822	1.300192
C83	C	-0.063292	0.997351	0.807373
C84	C	0.436708	1.497351	1.307373
C85	C	-0.057292	1.001498	0.720246
C86	C	0.442708	1.501498	1.220246
C87	C	-0.131255	0.950303	0.673095
C88	C	0.368745	1.450303	1.173095
N89	N	-0.191143	0.908845	0.541933
N90	N	0.308857	1.408845	1.041933
N91	N	-0.125106	0.954543	0.584039
N92	N	0.374894	1.454543	1.084039
H93	H	-0.153822	0.699039	-0.090078
H94	H	0.346178	1.199039	0.409922
H95	H	-0.313182	0.824361	0.280201
H96	H	0.186818	1.324361	0.780201
F97	F	-0.289948	0.840482	0.662886
F98	F	0.210052	1.340482	1.162886
H99	H	-0.033898	1.017641	0.293238
H100	H	0.466102	1.517641	0.793238
H101	H	0.007831	1.046558	0.687703
H102	H	0.507831	1.546558	1.187703
F103	F	-0.344079	0.802998	0.448259
F104	F	0.155921	1.302998	0.948259
F105	F	-0.141979	0.168061	-0.077305
F106	F	0.358021	0.668061	0.422695
F107	F	-0.174295	0.695326	0.203264
F108	F	0.325705	1.195326	0.703264
H109	H	-0.168382	0.536803	0.173623
H110	H	0.331618	1.036803	0.673623
F111	F	-0.147906	0.540505	-0.119713
F112	F	0.352094	1.040505	0.380287
H113	H	-0.044796	1.010106	0.451295
H114	H	0.455204	1.510106	0.951295
F115	F	0.015422	1.051832	0.857559
F116	F	0.515422	1.551832	1.357559
H117	H	-0.147840	0.326592	-0.047668
H118	H	0.352160	0.826592	0.452332
H119	H	-0.166720	0.313511	0.226115
H120	H	0.333280	0.813511	0.726115
F121	F	-0.163445	0.153172	0.234206
F122	F	0.336555	0.653172	0.734206
F123	F	-0.302366	0.831923	0.842728
F124	F	0.197634	1.331923	1.342728
