data_functionalizedCrystal
_audit_creation_method	'MofGen! by Chris Wilmer'
_symmetry_space_group_name_H-M	'P1'
_symmetry_Int_Tables_number	1
_symmetry_cell_setting	triclinic
loop_
_symmetry_equiv_pos_as_xyz
  x,y,z
_cell_length_a	18.050582
_cell_length_b	18.050591
_cell_length_c	18.050589
_cell_angle_alpha	90.024227
_cell_angle_beta	90.018205
_cell_angle_gamma	90.020922
loop_
_atom_site_label
_atom_site_type_symbol
_atom_site_fract_x
_atom_site_fract_y
_atom_site_fract_z
Zn1	Zn	-0.420054	-1.135293	0.295786
Zn2	Zn	-0.295873	-1.135203	0.419969
Zn3	Zn	-0.295865	-1.011112	0.295789
Zn4	Zn	-0.420009	-1.011060	0.419930
O5	O	-0.357950	-1.073167	0.357868
O6	O	-0.403603	-1.239205	0.312274
O7	O	-0.191948	-1.118727	0.403514
O8	O	-0.312354	-1.027644	0.191864
O9	O	-0.312369	-1.239140	0.403511
O10	O	-0.403595	-1.118879	0.191862
O11	O	-0.191942	-1.027557	0.312279
O12	O	-0.312311	-0.907180	0.312241
O13	O	-0.523940	-1.027555	0.403444
O14	O	-0.403519	-0.907142	0.403447
O15	O	-0.523973	-1.118828	0.312236
O16	O	-0.312325	-1.118676	0.523888
O17	O	-0.403527	-1.027468	0.523860
C18	C	-0.357909	-0.880215	0.357841
C19	C	-0.357909	-0.797669	0.357847
C20	C	-0.357938	-1.073077	0.550820
C21	C	-0.357958	-1.073107	0.633366
C22	C	-0.551656	-1.073196	0.357835
C23	C	-0.634202	-1.073208	0.357821
C24	C	-0.833635	-1.023612	0.407353
C25	C	-0.883034	-1.091367	0.425511
C26	C	-0.785332	-1.073245	0.357765
C27	C	-0.883014	-1.005527	0.339586
C28	C	-0.931317	-1.073274	0.357711
C29	C	-0.833645	-1.141036	0.375958
C30	C	-0.833620	-1.055150	0.290002
C31	C	-0.882998	-1.122952	0.308134
C32	C	-0.701234	-1.073227	0.357797
C33	C	-1.015414	-1.073300	0.357679
C34	C	-0.164998	-1.073181	0.357848
C35	C	-0.082453	-1.073312	0.357652
C36	C	-0.357992	-1.266872	0.357897
C37	C	-0.358010	-1.349418	0.357909
C38	C	-0.308425	-0.598217	0.308191
C39	C	-0.290154	-0.548798	0.375927
C40	C	-0.357943	-0.646539	0.357869
C41	C	-0.376212	-0.548877	0.290157
C42	C	-0.357974	-0.500553	0.357885
C43	C	-0.339637	-0.598206	0.425641
C44	C	-0.425726	-0.598289	0.339825
C45	C	-0.407481	-0.548892	0.407607
C46	C	-0.357923	-0.730637	0.357859
C47	C	-0.357994	-0.416457	0.357903
C48	C	-0.357979	-1.073277	0.164163
C49	C	-0.357991	-1.073324	0.081617
C50	C	-0.407536	-1.023557	0.832828
C51	C	-0.339767	-1.005459	0.882261
C52	C	-0.357967	-1.073180	0.784497
C53	C	-0.425744	-1.091314	0.882146
C54	C	-0.357983	-1.073249	0.930482
C55	C	-0.290162	-1.055046	0.832842
C56	C	-0.376186	-1.140933	0.832722
C57	C	-0.308370	-1.122861	0.882133
C58	C	-0.357959	-1.073138	0.700398
C59	C	-0.357983	-1.073291	1.014578
H60	H	-0.811961	-0.981678	0.449342
O61	O	-0.501610	-0.627137	0.319579
H62	H	-0.539327	-0.579764	0.308955
O63	O	-0.252898	-0.626913	0.252606
H64	H	-0.281960	-0.660769	0.210262
O65	O	-0.804828	-1.034813	0.214157
H66	H	-0.852232	-1.024157	0.176463
O67	O	-0.396643	-0.520164	0.214295
H68	H	-0.396967	-0.458679	0.215139
H69	H	-0.449395	-0.981531	0.811178
O70	O	-0.319350	-0.929605	0.911086
H71	H	-0.360567	-0.888482	0.891345
H72	H	-0.232834	-1.039669	0.811275
O73	O	-0.214246	-0.519993	0.396163
H74	H	-0.173226	-0.539740	0.354841
H75	H	-0.266409	-1.164855	0.903645
O76	O	-0.911733	-0.929653	0.319238
H77	H	-0.946416	-0.907932	0.365126
H78	H	-0.324134	-0.619785	0.482928
O79	O	-0.462963	-0.520364	0.463323
H80	H	-0.447634	-0.540224	0.519457
H81	H	-0.391613	-1.198184	0.810948
H82	H	-0.483056	-1.106625	0.903802
H83	H	-0.904739	-1.106690	0.482794
H84	H	-0.904535	-1.164986	0.266177
H85	H	-0.812050	-1.198333	0.391377
