data_functionalizedCrystal
_audit_creation_method	'MofGen! by Chris Wilmer'
_symmetry_space_group_name_H-M	'P1'
_symmetry_Int_Tables_number	1
_symmetry_cell_setting	triclinic
loop_
_symmetry_equiv_pos_as_xyz
  x,y,z
_cell_length_a	25.639242
_cell_length_b	29.839131
_cell_length_c	25.639234
_cell_angle_alpha	89.974578
_cell_angle_beta	89.973005
_cell_angle_gamma	90.036947
loop_
_atom_site_label
_atom_site_type_symbol
_atom_site_fract_x
_atom_site_fract_y
_atom_site_fract_z
Zn1	Zn	0.799240	-0.178936	-0.295739
Zn2	Zn	1.132573	0.154398	0.037594
Zn3	Zn	1.465907	0.487731	0.370927
Zn4	Zn	0.799152	-0.254058	-0.208302
Zn5	Zn	1.132485	0.079275	0.125031
Zn6	Zn	1.465819	0.412609	0.458364
Zn7	Zn	0.711809	-0.178937	-0.208303
Zn8	Zn	1.045142	0.154397	0.125030
Zn9	Zn	1.378476	0.487730	0.458363
Zn10	Zn	0.711757	-0.254034	-0.295692
Zn11	Zn	1.045091	0.079300	0.037641
Zn12	Zn	1.378424	0.412633	0.370975
O13	O	0.755490	-0.216491	-0.252009
O14	O	1.088823	0.116842	0.081324
O15	O	1.422156	0.450176	0.414657
O16	O	0.872394	-0.188911	-0.284160
O17	O	1.205727	0.144423	0.049174
O18	O	1.539060	0.477756	0.382507
O19	O	0.787551	-0.244104	-0.135137
O20	O	1.120884	0.089230	0.198196
O21	O	1.454217	0.422563	0.531530
O22	O	0.723465	-0.116070	-0.219922
O23	O	1.056799	0.217264	0.113411
O24	O	1.390132	0.550597	0.446745
O25	O	0.872329	-0.244102	-0.219920
O26	O	1.205662	0.089231	0.113413
O27	O	1.538996	0.422564	0.446746
O28	O	0.787701	-0.116069	-0.284161
O29	O	1.121034	0.217265	0.049173
O30	O	1.454367	0.550598	0.382506
O31	O	0.723380	-0.188912	-0.135138
O32	O	1.056713	0.144421	0.198195
O33	O	1.390047	0.477754	0.531529
O34	O	0.638637	-0.188889	-0.219876
O35	O	0.971970	0.144445	0.113457
O36	O	1.305304	0.477778	0.446790
O37	O	0.723377	-0.244061	-0.368864
O38	O	1.056711	0.089272	-0.035530
O39	O	1.390044	0.422606	0.297803
O40	O	0.638599	-0.244062	-0.284081
O41	O	0.971932	0.089271	0.049253
O42	O	1.305266	0.422605	0.382586
O43	O	0.787651	-0.188887	-0.368898
O44	O	1.120984	0.144446	-0.035565
O45	O	1.454317	0.477780	0.297768
O46	O	0.787500	-0.316922	-0.219875
O47	O	1.120834	0.016412	0.113459
O48	O	1.454167	0.349745	0.446792
O49	O	0.723292	-0.316904	-0.284080
O50	O	1.056625	0.016429	0.049254
O51	O	1.389959	0.349763	0.382587
C52	C	0.619647	-0.216473	-0.251974
C53	C	0.952980	0.116860	0.081360
C54	C	1.286314	0.450193	0.414693
C55	C	0.561533	-0.216477	-0.251971
C56	C	0.894866	0.116857	0.081362
C57	C	1.228200	0.450190	0.414696
C58	C	0.201159	-0.245268	-0.285409
C59	C	0.534492	0.088066	0.047925
C60	C	0.867826	0.421399	0.381258
C61	C	0.146555	-0.245270	-0.285417
C62	C	0.479888	0.088063	0.047916
C63	C	0.813221	0.421396	0.381250
O64	O	0.118309	-0.269728	-0.313817
O65	O	0.451642	0.063606	0.019517
O66	O	0.784975	0.396939	0.352850
N67	N	0.119251	-0.216503	-0.252043
N68	N	0.452584	0.116830	0.081290
N69	N	0.785917	0.450163	0.414623
C70	C	0.146553	-0.187728	-0.218663
C71	C	0.479887	0.145605	0.114670
C72	C	0.813220	0.478938	0.448004
O73	O	0.118315	-0.163260	-0.190277
O74	O	0.451648	0.170074	0.143056
O75	O	0.784982	0.503407	0.476389
C76	C	0.201157	-0.187724	-0.218658
C77	C	0.534490	0.145610	0.114675
C78	C	0.867823	0.478943	0.448009
C79	C	0.228458	-0.216496	-0.252030
C80	C	0.561791	0.116837	0.081303
C81	C	0.895125	0.450171	0.414637
C82	C	0.228460	-0.274037	-0.318778
C83	C	0.561794	0.059296	0.014555
C84	C	0.895127	0.392629	0.347888
C85	C	0.283061	-0.274035	-0.318769
C86	C	0.616394	0.059298	0.014564
C87	C	0.949728	0.392632	0.347897
C88	C	0.310360	-0.245263	-0.285391
C89	C	0.643693	0.088070	0.047943
C90	C	0.977027	0.421404	0.381276
C91	C	0.283059	-0.216494	-0.252021
C92	C	0.616392	0.116840	0.081313
C93	C	0.949725	0.450173	0.414646
C94	C	0.228459	-0.158947	-0.185281
C95	C	0.561792	0.174387	0.148053
C96	C	0.895125	0.507720	0.481386
C97	C	0.283066	-0.158944	-0.185279
C98	C	0.616399	0.174389	0.148055
C99	C	0.949732	0.507722	0.481388
C100	C	0.310367	-0.187717	-0.218651
C101	C	0.643700	0.145617	0.114683
C102	C	0.977034	0.478950	0.448016
C103	C	0.364958	-0.187720	-0.218633
C104	C	0.698292	0.145614	0.114700
C105	C	1.031625	0.478947	0.448034
N106	N	0.392263	-0.216487	-0.252006
N107	N	0.725596	0.116847	0.081327
N108	N	1.058929	0.450180	0.414660
C109	C	0.364963	-0.245258	-0.285385
C110	C	0.698297	0.088075	0.047948
C111	C	1.031630	0.421408	0.381281
C112	C	0.031883	-0.187740	-0.218677
C113	C	0.365216	0.145593	0.114656
C114	C	0.698549	0.478927	0.447989
C115	C	-0.022720	-0.187746	-0.218679
C116	C	0.310614	0.145587	0.114654
C117	C	0.643947	0.478920	0.447987
C118	C	-0.022714	-0.245288	-0.285434
C119	C	0.310619	0.088045	0.047899
C120	C	0.643952	0.421379	0.381233
C121	C	0.031889	-0.245283	-0.285429
C122	C	0.365222	0.088050	0.047904
C123	C	0.698556	0.421383	0.381238
C124	C	0.059187	-0.216507	-0.252051
C125	C	0.392520	0.116826	0.081283
C126	C	0.725854	0.450160	0.414616
C127	C	0.479629	-0.245252	-0.285363
C128	C	0.812962	0.088082	0.047970
C129	C	1.146295	0.421415	0.381303
C130	C	0.534234	-0.245248	-0.285350
C131	C	0.867567	0.088085	0.047984
C132	C	1.200901	0.421418	0.381317
C133	C	0.534224	-0.187705	-0.218597
C134	C	0.867557	0.145628	0.114736
C135	C	1.200891	0.478961	0.448069
C136	C	0.479623	-0.187710	-0.218609
C137	C	0.812957	0.145623	0.114725
C138	C	1.146290	0.478956	0.448058
C139	C	0.452327	-0.216485	-0.251996
C140	C	0.785660	0.116848	0.081337
C141	C	1.118994	0.450182	0.414671
O142	O	0.393239	-0.163273	-0.190249
O143	O	0.726572	0.170060	0.143084
O144	O	1.059906	0.503393	0.476418
O145	O	0.393208	-0.269719	-0.313771
O146	O	0.726542	0.063614	0.019562
O147	O	1.059875	0.396948	0.352896
C148	C	0.755395	-0.333214	-0.251983
C149	C	1.088729	0.000120	0.081350
C150	C	1.422062	0.333453	0.414683
C151	C	0.755403	-0.383148	-0.251990
C152	C	1.088736	-0.049815	0.081344
C153	C	1.422069	0.283519	0.414677
C154	C	0.788984	-0.692788	-0.218627
C155	C	1.122317	-0.359455	0.114707
C156	C	1.455650	-0.026121	0.448040
C157	C	0.789048	-0.880461	-0.218647
C158	C	1.122382	-0.547128	0.114686
C159	C	1.455715	-0.213794	0.448020
O160	O	0.817525	-0.904723	-0.190260
O161	O	1.150859	-0.571390	0.143073
O162	O	1.484192	-0.238056	0.476406
N163	N	0.755598	-0.903933	-0.252049
N164	N	1.088931	-0.570600	0.081285
N165	N	1.422265	-0.237266	0.414618
C166	C	0.722132	-0.880484	-0.285450
C167	C	1.055465	-0.547151	0.047883
C168	C	1.388798	-0.213817	0.381216
O169	O	0.693685	-0.904754	-0.313865
O170	O	1.027019	-0.571421	0.019469
O171	O	1.360352	-0.238088	0.352802
C172	C	0.722070	-0.692812	-0.285432
C173	C	1.055403	-0.359478	0.047901
C174	C	1.388737	-0.026145	0.381235
C175	C	0.755519	-0.669342	-0.252024
C176	C	1.088852	-0.336009	0.081309
C177	C	1.422186	-0.002675	0.414642
C178	C	0.822430	-0.669318	-0.185222
C179	C	1.155763	-0.335985	0.148111
C180	C	1.489097	-0.002652	0.481445
C181	C	0.822412	-0.622403	-0.185215
C182	C	1.155745	-0.289070	0.148118
C183	C	1.489078	0.044264	0.481451
C184	C	0.788947	-0.598957	-0.218613
C185	C	1.122280	-0.265624	0.114720
C186	C	1.455613	0.067710	0.448054
C187	C	0.755500	-0.622427	-0.252018
C188	C	1.088834	-0.289093	0.081316
C189	C	1.422167	0.044240	0.414649
C190	C	0.688607	-0.669363	-0.318836
C191	C	1.021940	-0.336030	0.014497
C192	C	1.355273	-0.002697	0.347831
C193	C	0.688595	-0.622442	-0.318829
C194	C	1.021929	-0.289109	0.014504
C195	C	1.355262	0.044224	0.347837
C196	C	0.722044	-0.598973	-0.285422
C197	C	1.055377	-0.265639	0.047912
C198	C	1.388711	0.067694	0.381245
C199	C	0.722017	-0.552065	-0.285409
C200	C	1.055350	-0.218732	0.047925
C201	C	1.388684	0.114601	0.381258
N202	N	0.755467	-0.528593	-0.252007
N203	N	1.088801	-0.195260	0.081326
N204	N	1.422134	0.138073	0.414660
C205	C	0.788932	-0.552039	-0.218609
C206	C	1.122265	-0.218706	0.114724
C207	C	1.455599	0.114627	0.448058
C208	C	0.722166	-0.979014	-0.285457
C209	C	1.055499	-0.645681	0.047877
C210	C	1.388832	-0.312348	0.381210
C211	C	0.722180	-1.025932	-0.285461
C212	C	1.055514	-0.692599	0.047873
C213	C	1.388847	-0.359266	0.381206
C214	C	0.789098	-1.025906	-0.218658
C215	C	1.122431	-0.692573	0.114676
C216	C	1.455764	-0.359240	0.448009
C217	C	0.789080	-0.978988	-0.218652
C218	C	1.122413	-0.645654	0.114682
C219	C	1.455747	-0.312321	0.448015
C220	C	0.755616	-0.955542	-0.252055
C221	C	1.088949	-0.622209	0.081279
C222	C	1.422282	-0.288876	0.414612
C223	C	0.788890	-0.453513	-0.218597
C224	C	1.122224	-0.120180	0.114736
C225	C	1.455557	0.213153	0.448070
C226	C	0.788868	-0.406594	-0.218592
C227	C	1.122201	-0.073261	0.114742
C228	C	1.455534	0.260073	0.448075
C229	C	0.721952	-0.406624	-0.285396
C230	C	1.055286	-0.073291	0.047937
C231	C	1.388619	0.260043	0.381270
C232	C	0.721973	-0.453539	-0.285400
C233	C	1.055306	-0.120206	0.047933
C234	C	1.388640	0.213127	0.381267
C235	C	0.755446	-0.476983	-0.251999
C236	C	1.088780	-0.143650	0.081335
C237	C	1.422113	0.189684	0.414668
O238	O	0.693559	-0.527774	-0.313785
O239	O	1.026892	-0.194441	0.019549
O240	O	1.360226	0.138892	0.352882
O241	O	0.817382	-0.527761	-0.190207
O242	O	1.150716	-0.194427	0.143126
O243	O	1.484049	0.138906	0.476460
C244	C	0.789002	-0.739703	-0.218633
C245	C	1.122336	-0.406370	0.114700
C246	C	1.455669	-0.073037	0.448033
C247	C	0.755556	-0.763173	-0.252038
C248	C	1.088889	-0.429840	0.081295
C249	C	1.422222	-0.096506	0.414629
C250	C	0.722091	-0.739727	-0.285436
C251	C	1.055424	-0.406394	0.047898
C252	C	1.388758	-0.073060	0.381231
C253	C	0.755570	-0.810091	-0.252042
C254	C	1.088904	-0.476758	0.081291
C255	C	1.422237	-0.143424	0.414625
C256	C	0.789035	-0.833537	-0.218644
C257	C	1.122369	-0.500203	0.114689
C258	C	1.455702	-0.166870	0.448023
C259	C	0.822486	-0.810065	-0.185242
C260	C	1.155819	-0.476731	0.148091
C261	C	1.489152	-0.143398	0.481424
C262	C	0.822467	-0.763149	-0.185235
C263	C	1.155800	-0.429816	0.148098
C264	C	1.489134	-0.096483	0.481431
C265	C	0.688641	-0.763199	-0.318838
C266	C	1.021974	-0.429866	0.014496
C267	C	1.355307	-0.096532	0.347829
C268	C	0.688661	-0.810115	-0.318841
C269	C	1.021995	-0.476781	0.014492
C270	C	1.355328	-0.143448	0.347825
C271	C	0.722126	-0.833560	-0.285443
C272	C	1.055460	-0.500227	0.047890
C273	C	1.388793	-0.166894	0.381223
C274	C	0.891863	-0.216509	-0.252045
C275	C	1.225196	0.116824	0.081288
C276	C	1.558529	0.450158	0.414622
C277	C	0.949977	-0.216517	-0.252060
C278	C	1.283310	0.116817	0.081273
C279	C	1.616643	0.450150	0.414606
C280	C	0.755518	-0.216471	-0.388382
C281	C	1.088851	0.116862	-0.055049
C282	C	1.422185	0.450196	0.278284
C283	C	0.755530	-0.216463	-0.446496
C284	C	1.088863	0.116871	-0.113163
C285	C	1.422197	0.450204	0.220170
C286	C	0.755599	-0.099313	-0.252047
C287	C	1.088932	0.234021	0.081287
C288	C	1.422265	0.567354	0.414620
C289	C	0.755645	-0.049378	-0.252063
C290	C	1.088978	0.283955	0.081271
C291	C	1.422312	0.617289	0.414604
C292	C	0.788957	-0.245164	-0.697682
C293	C	1.122291	0.088170	-0.364349
C294	C	1.455624	0.421503	-0.031015
C295	C	0.788952	-0.245173	-0.643078
C296	C	1.122285	0.088160	-0.309744
C297	C	1.455619	0.421493	0.023589
O298	O	0.817349	-0.269626	-0.614834
O299	O	1.150682	0.063708	-0.281501
O300	O	1.484015	0.397041	0.051833
N301	N	0.755541	-0.216441	-0.615770
N302	N	1.088875	0.116892	-0.282437
N303	N	1.422208	0.450226	0.050896
C304	C	0.722130	-0.187701	-0.643070
C305	C	1.055464	0.145633	-0.309737
C306	C	1.388797	0.478966	0.023597
O307	O	0.693711	-0.163263	-0.614829
O308	O	1.027045	0.170071	-0.281496
O309	O	1.360378	0.503404	0.051837
C310	C	0.722134	-0.187694	-0.697674
C311	C	1.055467	0.145640	-0.364340
C312	C	1.388800	0.478973	-0.031007
C313	C	0.755550	-0.216425	-0.724978
C314	C	1.088883	0.116909	-0.391645
C315	C	1.422217	0.450242	-0.058311
C316	C	0.822371	-0.273893	-0.724986
C317	C	1.155704	0.059441	-0.391653
C318	C	1.489037	0.392774	-0.058320
C319	C	0.822377	-0.273883	-0.779587
C320	C	1.155710	0.059451	-0.446254
C321	C	1.489043	0.392784	-0.112920
C322	C	0.788969	-0.245144	-0.806883
C323	C	1.122303	0.088190	-0.473550
C324	C	1.455636	0.421523	-0.140216
C325	C	0.755556	-0.216415	-0.779579
C326	C	1.088890	0.116919	-0.446245
C327	C	1.422223	0.450252	-0.112912
C328	C	0.688721	-0.158956	-0.724972
C329	C	1.022054	0.174377	-0.391639
C330	C	1.355387	0.507711	-0.058306
C331	C	0.688726	-0.158952	-0.779579
C332	C	1.022060	0.174381	-0.446246
C333	C	1.355393	0.507715	-0.112913
C334	C	0.722143	-0.187683	-0.806884
C335	C	1.055476	0.145650	-0.473551
C336	C	1.388810	0.478984	-0.140217
C337	C	0.722155	-0.187666	-0.861475
C338	C	1.055488	0.145668	-0.528142
C339	C	1.388822	0.479001	-0.194808
N340	N	0.755566	-0.216398	-0.888782
N341	N	1.088899	0.116936	-0.555449
N342	N	1.422232	0.450269	-0.222116
C343	C	0.788973	-0.245137	-0.861486
C344	C	1.122306	0.088196	-0.528153
C345	C	1.455639	0.421530	-0.194820
C346	C	0.722126	-0.187718	-0.528399
C347	C	1.055459	0.145616	-0.195066
C348	C	1.388792	0.478949	0.138267
C349	C	0.722125	-0.187722	-0.473797
C350	C	1.055458	0.145612	-0.140464
C351	C	1.388791	0.478945	0.192870
C352	C	0.788945	-0.245195	-0.473808
C353	C	1.122279	0.088138	-0.140475
C354	C	1.455612	0.421472	0.192858
C355	C	0.788949	-0.245188	-0.528412
C356	C	1.122282	0.088145	-0.195078
C357	C	1.455615	0.421478	0.138255
C358	C	0.755536	-0.216450	-0.555707
C359	C	1.088869	0.116883	-0.222373
C360	C	1.422203	0.450217	0.110960
C361	C	0.788983	-0.245113	-0.976152
C362	C	1.122317	0.088220	-0.642818
C363	C	1.455650	0.421553	-0.309485
C364	C	0.788988	-0.245099	-1.030757
C365	C	1.122321	0.088234	-0.697424
C366	C	1.455655	0.421567	-0.364090
C367	C	0.722165	-0.187628	-1.030741
C368	C	1.055499	0.145706	-0.697408
C369	C	1.388832	0.479039	-0.364074
C370	C	0.722162	-0.187640	-0.976140
C371	C	1.055496	0.145693	-0.642807
C372	C	1.388829	0.479027	-0.309474
C373	C	0.755573	-0.216386	-0.948847
C374	C	1.088906	0.116947	-0.615514
C375	C	1.422240	0.450280	-0.282180
O376	O	0.693771	-0.163227	-0.889753
O377	O	1.027105	0.170106	-0.556420
O378	O	1.360438	0.503440	-0.223087
O379	O	0.817382	-0.269575	-0.889734
O380	O	1.150716	0.063759	-0.556401
O381	O	1.484049	0.397092	-0.223067
C382	C	0.755491	-0.216478	-0.116167
C383	C	1.088825	0.116855	0.217167
C384	C	1.422158	0.450188	0.550500
C385	C	0.755581	-0.216360	-0.058053
C386	C	1.088914	0.116973	0.275280
C387	C	1.422247	0.450306	0.608614
H388	H	-0.044951	-0.268714	-0.312615
H389	H	0.288382	0.064619	0.020719
H390	H	0.621715	0.397952	0.354052
H391	H	0.694938	-1.045037	-0.312660
H392	H	1.028271	-0.711704	0.020674
H393	H	1.361605	-0.378371	0.354007
H394	H	0.849586	-0.297280	-0.801813
H395	H	1.182919	0.036053	-0.468480
H396	H	1.516253	0.369387	-0.135147
H397	H	0.661367	-0.688464	-0.346038
H398	H	0.994700	-0.355131	-0.012704
H399	H	1.328033	-0.021798	0.320629
H400	H	0.849732	-0.829163	-0.158047
H401	H	1.183066	-0.495829	0.175286
H402	H	1.516399	-0.162496	0.508620
H403	H	0.457394	-0.164282	-0.191433
H404	H	0.790727	0.169051	0.141900
H405	H	1.124060	0.502384	0.475233
F406	F	0.686562	-0.157127	-0.557444
F407	F	1.019896	0.176206	-0.224111
F408	F	1.353229	0.509540	0.109222
H409	H	0.305285	-0.297463	-0.345945
H410	H	0.638618	0.035870	-0.012612
H411	H	0.971952	0.369203	0.320721
F412	F	0.312115	-0.128315	-0.149753
F413	F	0.645449	0.205018	0.183581
F414	F	0.978782	0.538352	0.516914
H415	H	0.849575	-0.297298	-0.702768
H416	H	1.182909	0.036036	-0.369434
H417	H	1.516242	0.369369	-0.036101
H418	H	0.661508	-0.135561	-0.702750
H419	H	0.994842	0.197772	-0.369417
H420	H	1.328175	0.531106	-0.036084
F421	F	0.563287	-0.275874	-0.320869
F422	F	0.896620	0.057459	0.012464
F423	F	1.229954	0.390793	0.345797
F424	F	0.858019	-0.597431	-0.149664
F425	F	1.191352	-0.264097	0.183670
F426	F	1.524685	0.069236	0.517003
H427	H	0.816193	-0.268518	-0.953936
H428	H	1.149526	0.064815	-0.620602
H429	H	1.482859	0.398148	-0.287269
F430	F	0.858052	-0.694264	-0.149673
F431	F	1.191385	-0.360931	0.183660
F432	F	1.524719	-0.027598	0.516994
F433	F	0.653165	-0.128362	-0.808626
F434	F	0.986499	0.204972	-0.475292
F435	F	1.319832	0.538305	-0.141959
H436	H	-0.044944	-0.164322	-0.191499
H437	H	0.288390	0.169012	0.141834
H438	H	0.621723	0.502345	0.475167
F439	F	0.686565	-0.157136	-0.444744
F440	F	1.019898	0.176197	-0.111410
F441	F	1.353232	0.509530	0.221923
H442	H	0.816105	-0.387486	-0.191385
H443	H	1.149439	-0.054153	0.141948
H444	H	1.482772	0.279180	0.475281
H445	H	0.694959	-0.164239	-0.953908
H446	H	1.028292	0.169095	-0.620575
H447	H	1.361626	0.502428	-0.287241
F448	F	0.199415	-0.304662	-0.354308
F449	F	0.532748	0.028671	-0.020975
F450	F	0.866081	0.362004	0.312358
F451	F	0.824681	-0.954014	-0.183095
F452	F	1.158014	-0.620680	0.150238
F453	F	1.491347	-0.287347	0.483572
H454	H	0.556461	-0.164281	-0.191419
H455	H	0.889794	0.169052	0.141914
H456	H	1.223128	0.502385	0.475247
F457	F	0.060940	-0.275906	-0.320948
F458	F	0.394273	0.057428	0.012385
F459	F	0.727607	0.390761	0.345718
H460	H	0.661345	-0.603356	-0.346032
H461	H	0.994679	-0.270022	-0.012699
H462	H	1.328012	0.063311	0.320635
H463	H	0.816159	-0.268584	-0.550639
H464	H	1.149492	0.064750	-0.217306
H465	H	1.482826	0.398083	0.116027
H466	H	0.816149	-0.472596	-0.191400
H467	H	1.149482	-0.139262	0.141934
H468	H	1.482816	0.194071	0.475267
F469	F	0.824712	-1.050867	-0.183112
F470	F	1.158046	-0.717534	0.150221
F471	F	1.491379	-0.384200	0.483555
F472	F	0.686364	-0.478518	-0.320946
F473	F	1.019697	-0.145185	0.012387
F474	F	1.353031	0.188148	0.345720
H475	H	0.694967	-0.164228	-1.052975
H476	H	1.028301	0.169105	-0.719642
H477	H	1.361634	0.502439	-0.386309
F478	F	0.686545	-0.954068	-0.321011
F479	F	1.019879	-0.620735	0.012323
F480	F	1.353212	-0.287401	0.345656
F481	F	0.060931	-0.157113	-0.183146
F482	F	0.394264	0.176221	0.150187
F483	F	0.727598	0.509554	0.483521
H484	H	0.206239	-0.135519	-0.158104
H485	H	0.539573	0.197815	0.175229
H486	H	0.872906	0.531148	0.508563
H487	H	0.694704	-0.387527	-0.312587
H488	H	1.028037	-0.054194	0.020746
H489	H	1.361370	0.279140	0.354080
F490	F	0.858070	-0.738177	-0.149680
F491	F	1.191403	-0.404844	0.183654
F492	F	1.524736	-0.071510	0.516987
H493	H	0.661419	-0.829220	-0.346045
H494	H	0.994752	-0.495886	-0.012712
H495	H	1.328086	-0.162553	0.320621
F496	F	0.824499	-0.275784	-0.444748
F497	F	1.157832	0.057550	-0.111415
F498	F	1.491165	0.390883	0.221918
F499	F	0.653021	-0.738252	-0.354387
F500	F	0.986354	-0.404919	-0.021053
F501	F	1.319688	-0.071586	0.312280
H502	H	0.816202	-0.268496	-1.052986
H503	H	1.149535	0.064838	-0.719652
H504	H	1.482868	0.398171	-0.386319
H505	H	0.457410	-0.268682	-0.312552
H506	H	0.790744	0.064651	0.020782
H507	H	1.124077	0.397985	0.354115
