data_functionalizedCrystal
_audit_creation_method	'MofGen! by Chris Wilmer'
_symmetry_space_group_name_H-M	'P1'
_symmetry_Int_Tables_number	1
_symmetry_cell_setting	triclinic
loop_
_symmetry_equiv_pos_as_xyz
  x,y,z
_cell_length_a	6.817900
_cell_length_b	11.102289
_cell_length_c	11.102291
_cell_angle_alpha	91.949175
_cell_angle_beta	108.605752
_cell_angle_gamma	108.605707
loop_
_atom_site_label
_atom_site_type_symbol
_atom_site_fract_x
_atom_site_fract_y
_atom_site_fract_z
V1	V	-4.111539	-0.175855	-0.396259
O2	O	-4.070571	0.008434	-0.388716
O3	O	-4.088316	-0.348675	-0.393548
O4	O	-4.088323	-0.173157	-0.569081
O5	O	-4.070563	-0.168299	-0.211968
V6	V	-4.588641	-0.153811	-0.374216
O7	O	-4.386882	-0.224210	-0.444611
O8	O	-4.763495	-0.105456	-0.325864
O9	O	-4.388657	0.019009	-0.376926
O10	O	-4.747005	-0.338100	-0.381759
O11	O	-4.747013	-0.161367	-0.558507
O12	O	-4.388650	-0.156509	-0.201394
C13	C	-3.938626	-0.390805	-0.387297
C14	C	-4.001093	-0.532087	-0.386233
C15	C	-4.214448	-0.604936	-0.392073
C16	C	-4.273136	-0.737687	-0.391084
C17	C	-3.905091	-0.724729	-0.378410
C18	C	-3.846411	-0.591981	-0.379408
C19	C	-4.426934	-0.612418	-0.399385
C20	C	-4.485622	-0.745169	-0.398396
C21	C	-3.938635	-0.166913	-0.611205
C22	C	-4.001104	-0.165850	-0.752488
C23	C	-4.214459	-0.171690	-0.825336
C24	C	-4.273130	-0.170667	-0.958082
C25	C	-3.905073	-0.157970	-0.945121
C26	C	-3.846400	-0.158984	-0.812376
C27	C	-4.426957	-0.179026	-0.832821
C28	C	-4.485628	-0.178003	-0.965567
C29	C	-4.201689	0.061132	-0.383174
C30	C	-4.118462	0.202413	-0.384246
C31	C	-4.201680	-0.162758	-0.159263
C32	C	-4.118448	-0.163813	-0.017979
H33	H	-3.779163	-0.773511	-0.372854
H34	H	-3.779126	-0.152377	-0.993897
H35	H	-4.446431	-0.092765	-0.785725
H36	H	-4.522090	-0.087766	-0.994669
C37	C	-4.578023	-0.586447	-0.524251
H38	H	-4.679969	-0.665849	-0.574935
H39	H	-4.656353	-0.536525	-0.503714
H40	H	-4.490943	-0.540959	-0.571152
C41	C	-4.679740	-0.302138	-1.036967
H42	H	-4.719742	-0.353891	-0.976251
H43	H	-4.802315	-0.280849	-1.087121
H44	H	-4.636887	-0.348270	-1.091566
C45	C	-4.555817	-0.307053	-0.799755
H46	H	-4.510810	-0.303392	-0.709022
H47	H	-4.709453	-0.321390	-0.833903
H48	H	-4.526642	-0.375363	-0.835925
C49	C	-4.427020	-0.540493	-0.278341
H50	H	-4.386395	-0.451082	-0.283154
H51	H	-4.570468	-0.571567	-0.272974
H52	H	-4.324202	-0.554440	-0.204212
C53	C	-4.663635	-0.823357	-0.525597
H54	H	-4.702318	-0.766316	-0.582923
H55	H	-4.607778	-0.876984	-0.563144
H56	H	-4.790637	-0.874997	-0.509201
C57	C	-4.554921	-0.778905	-0.281119
H58	H	-4.543573	-0.702694	-0.233551
H59	H	-4.703155	-0.836802	-0.309460
H60	H	-4.460743	-0.818016	-0.227980
H61	H	-3.672690	-0.532675	-0.374667
H62	H	-3.672673	-0.154230	-0.753067
