data_functionalizedCrystal
_audit_creation_method	'MofGen! by Chris Wilmer'
_symmetry_space_group_name_H-M	'P1'
_symmetry_Int_Tables_number	1
_symmetry_cell_setting	triclinic
loop_
_symmetry_equiv_pos_as_xyz
  x,y,z
_cell_length_a	17.699083
_cell_length_b	12.811415
_cell_length_c	16.776229
_cell_angle_alpha	84.562504
_cell_angle_beta	89.998886
_cell_angle_gamma	83.665490
loop_
_atom_site_label
_atom_site_type_symbol
_atom_site_fract_x
_atom_site_fract_y
_atom_site_fract_z
O1	O	1.004673	0.132732	-0.075770
O2	O	1.504673	0.632732	0.424230
O3	O	0.784372	0.150001	-0.077044
O4	O	1.284372	0.650001	0.422956
O5	O	0.900064	-0.011441	-0.065357
O6	O	1.400064	0.488559	0.434643
O7	O	0.888981	0.294174	-0.087457
O8	O	1.388981	0.794174	0.412543
O9	O	0.900049	-0.011451	0.067221
O10	O	1.400049	0.488549	0.567221
O11	O	0.784357	0.149991	0.055533
O12	O	1.284357	0.649991	0.555533
O13	O	1.004658	0.132722	0.056807
O14	O	1.504658	0.632722	0.556807
Zn15	Zn	0.894505	0.141355	0.077220
Zn16	Zn	1.394505	0.641355	0.577220
Zn17	Zn	0.894525	0.141368	-0.097456
Zn18	Zn	1.394525	0.641368	0.402544
O19	O	0.888966	0.294164	0.045120
O20	O	1.388966	0.794164	0.545120
C21	C	0.756165	0.149377	-0.010714
C22	C	1.256165	0.649377	0.489286
C23	C	0.672138	0.147521	-0.010590
C24	C	1.172138	0.647521	0.489410
C25	C	0.623942	0.242284	-0.017442
C26	C	1.123942	0.742284	0.482558
C27	C	0.544991	0.240533	-0.017305
C28	C	1.044991	0.740533	0.482695
C29	C	0.514238	0.144019	-0.010322
C30	C	1.014238	0.644019	0.489678
C31	C	0.562440	0.049249	-0.003466
C32	C	1.062440	0.549249	0.496534
C33	C	0.641390	0.051000	-0.003597
C34	C	1.141390	0.551000	0.496403
C35	C	0.244045	0.042183	-0.002935
C36	C	0.744045	0.542183	0.497065
C37	C	0.165090	0.040438	-0.002807
C38	C	0.665090	0.540438	0.497193
C39	C	0.147646	0.231715	-0.016643
C40	C	0.647646	0.731715	0.483357
C41	C	0.226596	0.233467	-0.016775
C42	C	0.726596	0.733467	0.483225
C43	C	0.274792	0.138698	-0.009915
C44	C	0.774792	0.638698	0.490085
C45	C	0.360399	0.140597	-0.010062
C46	C	0.860399	0.640597	0.489938
C47	C	0.428631	0.142118	-0.010180
C48	C	0.928631	0.642118	0.489820
C49	C	0.899435	-0.050549	0.003758
C50	C	1.399435	0.449451	0.503758
C51	C	0.897574	-0.167062	0.012178
C52	C	1.397574	0.332938	0.512178
C53	C	0.894081	-0.385982	-0.116552
C54	C	1.394081	0.114018	0.383448
C55	C	0.892333	-0.495457	-0.108645
C56	C	1.392333	0.004543	0.391355
C57	C	0.892324	-0.495489	0.035899
C58	C	1.392324	0.004511	0.535899
C59	C	0.894072	-0.386014	0.027992
C60	C	1.394072	0.113986	0.527992
C61	C	0.894952	-0.331264	-0.048237
C62	C	1.394952	0.168736	0.451763
C63	C	0.896706	-0.221788	-0.056143
C64	C	1.396706	0.278212	0.443857
C65	C	0.896692	-0.221821	0.088400
C66	C	1.396692	0.278179	0.588400
C67	C	0.894943	-0.331296	0.096308
C68	C	1.394943	0.168704	0.596308
C69	C	1.032865	0.133346	-0.009524
C70	C	1.532865	0.633346	0.490476
C71	C	1.116892	0.135202	-0.009654
C72	C	1.616892	0.635202	0.490346
C73	C	0.889595	0.333271	-0.023996
C74	C	1.389595	0.833271	0.476004
C75	C	0.891456	0.449785	-0.032422
C76	C	1.391456	0.949785	0.467578
N77	N	0.894496	0.141345	0.196432
N78	N	1.394496	0.641345	0.696432
N79	N	0.894540	0.141369	-0.216668
N80	N	1.394540	0.641369	0.283332
C81	C	0.945741	0.069888	0.243322
C82	C	1.445741	0.569888	0.743322
C83	C	0.945745	0.069887	0.326774
C84	C	1.445745	0.569887	0.826774
C85	C	0.894508	0.141349	0.363334
C86	C	1.394508	0.641349	0.863334
C87	C	0.843258	0.212810	0.316438
C88	C	1.343258	0.712810	0.816438
C89	C	0.843251	0.212805	0.232988
C90	C	1.343251	0.712805	0.732988
C91	C	0.843286	0.212831	0.652984
C92	C	1.343286	0.712831	1.152984
C93	C	0.843298	0.212832	0.736440
C94	C	1.343298	0.712832	1.236440
C95	C	0.945780	0.069913	0.746770
C96	C	1.445780	0.569913	1.246770
C97	C	0.945772	0.069908	0.663320
C98	C	1.445772	0.569908	1.163320
C99	C	0.894520	0.141364	0.616431
C100	C	1.394520	0.641364	1.116431
C101	C	0.894515	0.141363	0.525943
C102	C	1.394515	0.641363	1.025943
C103	C	0.894516	0.141357	0.453821
C104	C	1.394516	0.641357	0.953821
H105	H	0.537395	-0.029335	0.002232
H106	H	1.037395	0.470665	0.502232
N107	N	0.897633	-0.162798	0.162087
N108	N	1.397633	0.337202	0.662087
H109	H	0.850467	-0.173226	0.194437
H110	H	1.350467	0.326774	0.694437
H111	H	0.944220	-0.190519	0.195620
H112	H	1.444220	0.309481	0.695620
N113	N	0.095651	0.333925	-0.024017
N114	N	0.595651	0.833925	0.475983
H115	H	0.105584	0.376031	0.022086
H116	H	0.605584	0.876031	0.522086
H117	H	0.105587	0.375974	-0.076235
H118	H	0.605587	0.875974	0.423765
H119	H	0.140054	-0.038160	0.002881
H120	H	0.640054	0.461840	0.502881
H121	H	0.801536	0.270992	0.346210
H122	H	1.301536	0.770992	0.846210
H123	H	0.987467	0.011700	0.213560
H124	H	1.487467	0.511700	0.713560
N125	N	0.787977	0.289871	0.182409
N126	N	1.287977	0.789871	0.682409
H127	H	0.755519	0.335143	0.218231
H128	H	1.255519	0.835143	0.718231
H129	H	0.817088	0.336222	0.144423
H130	H	1.317088	0.836222	0.644423
N131	N	0.657101	0.346388	-0.024975
N132	N	1.157101	0.846388	0.475025
H133	H	0.689471	0.351377	0.023808
H134	H	1.189471	0.851377	0.523808
H135	H	0.689427	0.351323	-0.074513
H136	H	1.189427	0.851323	0.425487
N137	N	0.493007	0.342741	-0.024606
N138	N	0.993007	0.842741	0.475394
H139	H	0.524469	0.404147	-0.029026
H140	H	1.024469	0.904147	0.470974
H141	H	0.459825	0.346262	-0.073976
H142	H	0.959825	0.846262	0.426024
N143	N	1.001055	-0.007166	0.797346
N144	N	1.501055	0.492834	1.297346
H145	H	1.033515	-0.052431	0.761521
H146	H	1.533515	0.447569	1.261521
H147	H	1.034638	0.032967	0.829059
H148	H	1.534638	0.532967	1.329059
H149	H	0.251631	0.312059	-0.022465
H150	H	0.751631	0.812059	0.477535
H151	H	0.891602	-0.540084	0.097961
H152	H	1.391602	-0.040084	0.597961
H153	H	0.283277	-0.034985	0.002651
H154	H	0.783277	0.465015	0.502651
H155	H	0.680631	-0.026166	0.001982
H156	H	1.180631	0.473834	0.501982
H157	H	0.987471	0.011701	0.364952
H158	H	1.487471	0.511701	0.864952
N159	N	0.788023	0.289901	0.775873
N160	N	1.288023	0.789901	1.275873
H161	H	0.795808	0.279060	0.835854
H162	H	1.295808	0.779060	1.335854
H163	H	0.796987	0.364350	0.755897
H164	H	1.296987	0.864350	1.255897
N165	N	0.897604	-0.162689	-0.138344
N166	N	1.397604	0.337311	0.361656
H167	H	0.945176	-0.125866	-0.144244
H168	H	1.445176	0.374134	0.355756
H169	H	0.896739	-0.213996	-0.180393
H170	H	1.396739	0.286004	0.319607
H171	H	0.987497	0.011721	0.633555
H172	H	1.487497	0.511721	1.133555
N173	N	0.895042	-0.326925	-0.198764
N174	N	1.395042	0.173075	0.301236
H175	H	0.894229	-0.378202	-0.240844
H176	H	1.394229	0.121798	0.259156
H177	H	0.848906	-0.272873	-0.205824
H178	H	1.348906	0.227127	0.294176
N179	N	0.891424	-0.554482	-0.182327
N180	N	1.391424	-0.054482	0.317673
H181	H	0.892258	-0.503185	-0.231814
H182	H	1.392258	-0.003185	0.268186
H183	H	0.937573	-0.608514	-0.181546
H184	H	1.437573	-0.108514	0.318454
N185	N	0.894004	-0.390351	0.178522
N186	N	1.394004	0.109649	0.678522
H187	H	0.892768	-0.468007	0.173167
H188	H	1.392768	0.031993	0.673167
H189	H	0.941177	-0.379845	0.209313
H190	H	1.441177	0.120155	0.709313
H191	H	0.801556	0.271015	0.614813
H192	H	1.301556	0.771015	1.114813
