data_functionalizedCrystal
_audit_creation_method	'MofGen! by Chris Wilmer'
_symmetry_space_group_name_H-M	'P1'
_symmetry_Int_Tables_number	1
_symmetry_cell_setting	triclinic
loop_
_symmetry_equiv_pos_as_xyz
  x,y,z
_cell_length_a	10.540514
_cell_length_b	10.540539
_cell_length_c	14.048226
_cell_angle_alpha	89.995726
_cell_angle_beta	89.993041
_cell_angle_gamma	84.520326
loop_
_atom_site_label
_atom_site_type_symbol
_atom_site_fract_x
_atom_site_fract_y
_atom_site_fract_z
O1	O	1.685909	0.178751	-0.079168
O2	O	1.316492	0.195640	-0.079167
O3	O	1.509629	0.002488	-0.079166
O4	O	1.492773	0.371902	-0.079168
O5	O	1.509605	0.002476	0.079155
O6	O	1.316469	0.195628	0.079155
O7	O	1.685886	0.178739	0.079154
Zn8	Zn	1.501173	0.187182	0.104291
Zn9	Zn	1.501204	0.187197	-0.104304
O10	O	1.492749	0.371891	0.079153
C11	C	1.269177	0.194374	-0.000006
C12	C	1.128227	0.190605	-0.000005
C13	C	1.057522	0.328745	-0.000008
C14	C	0.910908	0.324871	-0.000372
C15	C	0.935903	0.115485	-0.090244
C16	C	1.082442	0.120338	-0.090315
C17	C	1.082818	0.118281	0.089733
C18	C	0.935839	0.116948	0.090914
C19	C	1.508353	-0.044821	-0.000007
C20	C	1.504571	-0.185769	-0.000012
C21	C	1.359652	-0.369182	-0.000367
C22	C	1.363486	-0.222564	-0.000011
C23	C	1.572454	-0.247439	0.090397
C24	C	1.567639	-0.393983	0.090473
C25	C	1.570535	-0.394488	-0.089568
C26	C	1.571835	-0.247506	-0.090763
C27	C	1.733201	0.180004	-0.000009
C28	C	1.874151	0.183774	-0.000016
C29	C	1.494025	0.419199	-0.000008
C30	C	1.497807	0.560147	-0.000009
N31	N	1.501161	0.187170	0.246652
N32	N	1.501226	0.187198	-0.246665
C33	C	1.586710	0.101679	0.296470
C34	C	1.586718	0.101678	0.396128
C35	C	1.501184	0.187176	0.445965
C36	C	1.415626	0.272672	0.396140
C37	C	1.415613	0.272666	0.296484
C38	C	1.415663	0.272682	0.603854
C39	C	1.415678	0.272690	0.703517
C40	C	1.586769	0.101694	0.703498
C41	C	1.586755	0.101687	0.603842
C42	C	1.501199	0.187185	0.554024
H43	H	0.893306	0.162304	-0.157648
F44	F	0.882243	0.182175	0.178166
H45	H	1.304137	-0.399389	0.064104
H46	H	1.345976	0.342282	0.436724
H47	H	0.911654	0.014102	0.096631
H48	H	1.309677	-0.180808	0.064906
H49	H	0.869186	0.378363	-0.065433
F50	F	1.144604	-0.014893	0.090883
H51	H	1.130449	0.018865	-0.094166
H52	H	1.656367	0.032061	0.255899
H53	H	1.525279	-0.204840	0.157677
F54	F	1.324556	0.363655	0.243465
H55	H	1.517450	-0.422183	0.158056
F56	F	1.703731	-0.456229	-0.090365
H57	H	1.669105	-0.441961	0.094574
F58	F	1.293669	-0.166862	-0.084720
F59	F	1.324638	0.363688	0.756551
F60	F	1.324599	0.363676	0.550838
H61	H	1.656377	0.032063	0.436689
F62	F	1.510856	-0.435704	-0.179135
F63	F	1.123970	0.178377	0.179152
H64	H	1.676062	-0.225095	0.093758
H65	H	1.656431	0.032079	0.744066
F66	F	1.286815	-0.406548	-0.085110
H67	H	1.522165	-0.206639	-0.157645
H68	H	1.656410	0.032075	0.563264
F69	F	0.855126	0.395085	0.084144
F70	F	1.097038	0.400928	-0.084457
F71	F	1.095439	0.402264	0.084223
H72	H	1.674697	-0.223294	-0.096223
H73	H	1.110677	0.170224	-0.158020
H74	H	0.913589	0.011853	-0.093343
