data_functionalizedCrystal
_audit_creation_method	'MofGen! by Chris Wilmer'
_symmetry_space_group_name_H-M	'P1'
_symmetry_Int_Tables_number	1
_symmetry_cell_setting	triclinic
loop_
_symmetry_equiv_pos_as_xyz
  x,y,z
_cell_length_a	16.109318
_cell_length_b	27.732048
_cell_length_c	15.186229
_cell_angle_alpha	89.991324
_cell_angle_beta	90.000224
_cell_angle_gamma	83.055609
loop_
_atom_site_label
_atom_site_type_symbol
_atom_site_fract_x
_atom_site_fract_y
_atom_site_fract_z
O1	O	1.102352	0.062170	-0.073165
O2	O	0.860196	0.069893	-0.073184
O3	O	0.988795	-0.004333	-0.073157
O4	O	0.973753	0.136396	-0.073192
O5	O	0.988786	-0.004335	0.073300
O6	O	0.860188	0.069892	0.073273
O7	O	1.102343	0.062169	0.073292
Zn8	Zn	0.981264	0.066030	0.096536
Zn9	Zn	0.981275	0.066032	-0.096428
O10	O	0.973745	0.136395	0.073265
C11	C	0.829221	0.069578	0.000042
C12	C	0.736938	0.068636	0.000036
C13	C	0.437907	0.065593	-0.079782
C14	C	0.524617	0.066475	-0.079787
C15	C	0.524627	0.066467	0.079888
C16	C	0.437919	0.065582	0.079893
C17	C	0.394561	0.065147	0.000055
C18	C	0.567979	0.066915	0.000045
C19	C	0.661994	0.067871	0.000040
C20	C	0.300540	0.064190	0.000060
C21	C	0.988475	-0.022342	0.000074
C22	C	0.987524	-0.076001	0.000081
C23	C	1.057532	-0.414521	0.000041
C24	C	1.054004	-0.616195	0.000029
O25	O	1.118022	-0.647181	-0.000005
N26	N	0.977751	-0.635641	0.000024
C27	C	0.902374	-0.604664	0.000016
O28	O	0.837434	-0.625832	0.000002
C29	C	0.905902	-0.402991	0.000022
C30	C	0.982161	-0.383548	0.000036
C31	C	1.133784	-0.395078	0.000054
C32	C	1.134665	-0.344662	0.000062
C33	C	1.059294	-0.313689	0.000057
C34	C	0.983042	-0.333133	0.000044
C35	C	0.830526	-0.372015	0.000008
C36	C	0.831415	-0.321594	0.000007
C37	C	0.907673	-0.302152	0.000021
C38	C	0.908551	-0.251744	0.000047
N39	N	0.984805	-0.232299	0.000052
C40	C	1.060176	-0.263271	0.000057
C41	C	0.900526	-0.710546	0.000014
C42	C	0.899644	-0.760964	0.000014
C43	C	1.051275	-0.772492	0.000026
C44	C	1.052157	-0.722073	0.000032
C45	C	0.976780	-0.691101	0.000019
C46	C	1.062021	-0.157394	0.000075
C47	C	1.062896	-0.106974	0.000086
C48	C	0.911265	-0.095451	0.000070
C49	C	0.910390	-0.145867	0.000063
C50	C	0.985775	-0.176838	0.000062
O51	O	0.844569	-0.220730	0.000070
O52	O	1.125106	-0.242095	0.000051
C53	C	1.056651	-0.464936	0.000033
C54	C	0.980398	-0.484380	0.000020
C55	C	0.905027	-0.453407	0.000015
C56	C	0.979516	-0.534798	0.000020
C57	C	1.054887	-0.565770	0.000025
C58	C	1.131141	-0.546325	0.000031
C59	C	1.132022	-0.495909	0.000038
C60	C	0.828773	-0.472853	0.000010
C61	C	0.827899	-0.523269	0.000003
C62	C	0.903270	-0.554241	0.000008
C63	C	1.133318	0.062484	0.000064
C64	C	1.225601	0.063426	0.000065
C65	C	0.974065	0.154404	0.000032
C66	C	0.975015	0.208063	0.000019
N67	N	0.981263	0.066029	0.228229
N68	N	0.981284	0.066029	-0.228121
C69	C	1.038225	0.033173	0.453963
C70	C	1.038228	0.033171	0.546153
C71	C	0.924315	0.098887	0.546138
C72	C	0.924309	0.098886	0.453950
C73	C	0.981269	0.066029	0.407865
C74	C	0.981277	0.066029	0.592243
C75	C	0.981280	0.066028	0.692199
C76	C	0.981266	0.066029	0.307903
H77	H	0.402607	0.065238	-0.144791
H78	H	0.877941	0.125639	0.583670
C79	C	1.144942	-0.191455	0.000081
H80	H	1.190476	-0.172648	0.000098
H81	H	1.147765	-0.211359	-0.050992
H82	H	1.147748	-0.211367	0.051161
C83	C	1.100883	-0.002969	0.596857
H84	H	1.134807	-0.022533	0.556205
H85	H	1.071242	-0.023097	0.632828
H86	H	1.135269	0.014431	0.632811
C87	C	0.861656	0.135030	0.403239
H88	H	0.827742	0.154604	0.443887
H89	H	0.827272	0.117635	0.367284
H90	H	0.891308	0.155158	0.367268
H91	H	0.559906	0.066838	-0.144799
H92	H	1.194120	-0.480084	0.000050
H93	H	0.559940	0.066822	0.144889
C94	C	0.390234	0.065093	0.167718
H95	H	0.428472	0.065486	0.215266
H96	H	0.363111	0.036577	0.171042
H97	H	0.349708	0.092921	0.171031
C98	C	1.100870	-0.002972	0.403272
H99	H	1.134786	-0.022543	0.443934
H100	H	1.135254	0.014419	0.367300
H101	H	1.071214	-0.023101	0.367322
C102	C	1.146783	-0.085590	0.000096
H103	H	1.191543	-0.111260	0.000089
H104	H	1.150281	-0.066167	0.051171
H105	H	1.150281	-0.066156	-0.050981
C106	C	1.214047	-0.580401	0.000030
H107	H	1.202592	-0.613211	0.000016
H108	H	1.245349	-0.574518	0.051102
H109	H	1.245340	-0.574502	-0.051050
H110	H	0.768428	-0.387836	-0.000009
H111	H	1.196763	-0.328837	0.000070
C112	C	0.748498	-0.287528	-0.000003
H113	H	0.702961	-0.306332	-0.000005
H114	H	0.745692	-0.267613	-0.051073
H115	H	0.745683	-0.267627	0.051079
H116	H	1.195164	-0.420291	0.000055
C117	C	1.134182	-0.806567	0.000017
H118	H	1.122728	-0.839378	0.000006
H119	H	1.165489	-0.800684	0.051086
H120	H	1.165468	-0.800668	-0.051067
C121	C	1.136040	-0.700690	0.000039
H122	H	1.180798	-0.726361	0.000038
H123	H	1.139538	-0.681264	0.051110
H124	H	1.139542	-0.681260	-0.051043
C125	C	0.828363	-0.061375	0.000059
H126	H	0.839816	-0.028564	0.000055
H127	H	0.797055	-0.067270	0.051124
H128	H	0.797078	-0.067263	-0.051028
C129	C	0.815760	-0.782346	0.000006
H130	H	0.771002	-0.756675	-0.000007
H131	H	0.812253	-0.801780	0.051076
H132	H	0.812267	-0.801768	-0.051077
H133	H	0.839142	-0.685333	0.000004
H134	H	0.848294	-0.161698	0.000076
H135	H	0.767396	-0.447639	0.000004
C136	C	0.744008	-0.544650	-0.000015
H137	H	0.699250	-0.518979	-0.000027
H138	H	0.740497	-0.564087	0.051050
H139	H	0.740520	-0.564069	-0.051102
