data_functionalizedCrystal
_audit_creation_method	'MofGen! by Chris Wilmer'
_symmetry_space_group_name_H-M	'P1'
_symmetry_Int_Tables_number	1
_symmetry_cell_setting	triclinic
loop_
_symmetry_equiv_pos_as_xyz
  x,y,z
_cell_length_a	17.077404
_cell_length_b	17.640280
_cell_length_c	17.077396
_cell_angle_alpha	101.225604
_cell_angle_beta	90.019501
_cell_angle_gamma	78.800538
loop_
_atom_site_label
_atom_site_type_symbol
_atom_site_fract_x
_atom_site_fract_y
_atom_site_fract_z
Zn1	Zn	1.263288	-0.314659	0.380745
Zn2	Zn	1.289758	-0.446839	0.222973
Zn3	Zn	1.132026	-0.314687	0.249487
Zn4	Zn	1.158541	-0.446792	0.354206
O5	O	1.210903	-0.380744	0.301853
O6	O	1.376648	-0.332201	0.359827
O7	O	1.268815	-0.429340	0.116637
O8	O	1.127263	-0.204078	0.289102
O9	O	1.396095	-0.429313	0.243912
O10	O	1.223701	-0.204058	0.385536
O11	O	1.152930	-0.332248	0.136117
O12	O	1.025694	-0.332203	0.263368
O13	O	1.172456	-0.429233	0.467580
O14	O	1.045176	-0.429260	0.340305
O15	O	1.249413	-0.332155	0.487078
O16	O	1.294527	-0.557437	0.218179
O17	O	1.198122	-0.557403	0.314595
C18	C	1.006953	-0.380730	0.301834
C19	C	0.919705	-0.380743	0.301841
C20	C	0.888895	-0.431357	0.341806
C21	C	0.806915	-0.431359	0.341818
C22	C	0.755747	-0.380750	0.301860
C23	C	0.786562	-0.330130	0.261894
C24	C	0.868540	-0.330125	0.261887
C25	C	0.615696	-0.330146	0.261910
C26	C	0.533712	-0.330151	0.261915
C27	C	0.554070	-0.431379	0.341841
C28	C	0.636048	-0.431374	0.341834
C29	C	0.666858	-0.380755	0.301866
C30	C	1.252095	-0.586099	0.260647
C31	C	1.269789	-0.673950	0.243045
C32	C	1.076806	-0.962931	0.435857
C33	C	1.093434	-1.045481	0.419293
C34	C	1.193882	-1.045451	0.318996
C35	C	1.177265	-0.962900	0.335555
C36	C	1.118726	-0.921646	0.393986
C37	C	1.219185	-0.921615	0.293683
C38	C	1.202567	-0.839070	0.310238
C39	C	1.144029	-0.797811	0.368665
C40	C	1.102108	-0.839101	0.410541
C41	C	1.277721	-0.962870	0.235249
C42	C	1.319640	-0.921585	0.193377
C43	C	1.303026	-0.839039	0.209936
C44	C	1.244488	-0.797780	0.268362
C45	C	1.344947	-0.797748	0.168060
C46	C	1.328329	-0.715204	0.184615
C47	C	1.227870	-0.715235	0.284917
C48	C	1.415651	-0.380759	0.301872
C49	C	1.502902	-0.380765	0.301880
C50	C	1.210939	-0.380686	0.506609
C51	C	1.210954	-0.380661	0.593864
C52	C	1.169572	-0.174588	0.343237
C53	C	1.151959	-0.086736	0.360872
C54	C	1.210901	-0.380745	0.097905
C55	C	1.210993	-0.380547	0.010695
C56	C	1.251027	-0.330109	0.645009
C57	C	1.251031	-0.330082	0.726995
C58	C	1.210967	-0.380613	0.757833
C59	C	1.170889	-0.431168	0.706682
C60	C	1.170881	-0.431190	0.624699
C61	C	1.170911	-0.431120	0.877562
C62	C	1.170921	-0.431100	0.959550
C63	C	1.251062	-0.330013	0.979858
C64	C	1.251053	-0.330035	0.897874
C65	C	1.210977	-0.380591	0.846729
H66	H	0.744895	-0.288920	0.229364
O67	O	0.777070	-0.480496	0.380749
C68	C	0.793680	-0.463322	0.462460
H69	H	0.847102	-0.432930	0.470232
H70	H	0.807962	-0.520417	0.486097
H71	H	0.739406	-0.422734	0.497125
O72	O	1.045190	-0.798938	0.467215
C73	C	0.984901	-0.751265	0.432043
H74	H	1.010127	-0.738905	0.375057
H75	H	0.962679	-0.693214	0.475652
H76	H	0.933148	-0.783127	0.416980
O77	O	0.484087	-0.281024	0.223001
C78	C	0.507491	-0.298183	0.141280
H79	H	0.573110	-0.328546	0.133478
H80	H	0.498801	-0.241084	0.117647
H81	H	0.469488	-0.338791	0.106635
O82	O	1.289928	-0.280786	1.029469
C83	C	1.256966	-0.202016	1.025252
H84	H	1.226454	-0.200398	0.966050
H85	H	1.306514	-0.166582	1.029565
H86	H	1.211276	-0.175372	1.076731
H87	H	1.138262	-0.472276	0.835923
H88	H	0.893623	-0.288906	0.229348
H89	H	1.392604	-0.831350	0.120480
H90	H	1.138265	-0.472308	0.731798
H91	H	0.930551	-0.472571	0.374341
H92	H	1.138240	-0.472347	0.583058
H93	H	0.677708	-0.472589	0.374366
H94	H	1.362464	-0.681589	0.150517
O95	O	1.052633	-1.085619	0.459854
C96	C	1.011601	-1.133441	0.405526
H97	H	1.001790	-1.108601	0.348678
H98	H	0.951368	-1.134408	0.433665
H99	H	1.048462	-1.195983	0.390305
H100	H	0.528981	-0.472593	0.374387
H101	H	1.180207	-0.681645	0.332503
O102	O	1.376586	-0.961703	0.136720
C103	C	1.436848	-1.009414	0.171882
H104	H	1.436658	-0.984507	0.238706
H105	H	1.497455	-1.010328	0.143357
H106	H	1.425162	-1.071986	0.162016
H107	H	0.640776	-0.288919	0.229372
O108	O	1.127879	-0.717627	0.384605
C109	C	1.102202	-0.690097	0.314882
H110	H	1.125221	-0.737673	0.260136
H111	H	1.126492	-0.634850	0.312046
H112	H	1.034133	-0.675505	0.316085
O113	O	1.019902	-0.922972	0.492629
C114	C	0.986484	-0.977109	0.526063
H115	H	0.995619	-1.035967	0.482105
H116	H	0.919843	-0.953296	0.539171
H117	H	1.016967	-0.985841	0.583949
H118	H	1.241543	-1.079051	0.271419
H119	H	1.291251	-1.030083	0.221774
H120	H	1.283655	-0.288963	0.619907
H121	H	1.283664	-0.288919	0.768634
O122	O	1.289844	-0.280897	0.867848
C123	C	1.234894	-0.229847	0.830695
H124	H	1.181002	-0.257736	0.812801
H125	H	1.264729	-0.219253	0.775180
H126	H	1.214517	-0.171273	0.874058
O127	O	1.131931	-0.480206	0.989383
C128	C	1.096567	-0.524842	0.926661
H129	H	1.087351	-0.492486	0.874718
H130	H	1.036411	-0.533255	0.948653
H131	H	1.137340	-0.584879	0.905895
