data_functionalizedCrystal
_audit_creation_method	'MofGen! by Chris Wilmer'
_symmetry_space_group_name_H-M	'P1'
_symmetry_Int_Tables_number	1
_symmetry_cell_setting	triclinic
loop_
_symmetry_equiv_pos_as_xyz
  x,y,z
_cell_length_a	13.032721
_cell_length_b	13.033304
_cell_length_c	13.032268
_cell_angle_alpha	90.922231
_cell_angle_beta	103.289627
_cell_angle_gamma	74.816908
loop_
_atom_site_label
_atom_site_type_symbol
_atom_site_fract_x
_atom_site_fract_y
_atom_site_fract_z
Zn1	Zn	-0.335813	-1.451133	-0.818131
Zn2	Zn	0.164187	-0.951133	-0.318131
Zn3	Zn	-0.490910	-1.451019	-0.663066
Zn4	Zn	0.009090	-0.951019	-0.163066
Zn5	Zn	-0.330110	-1.301797	-0.623681
Zn6	Zn	0.169890	-0.801797	-0.123681
Zn7	Zn	-0.535896	-1.250931	-0.818005
Zn8	Zn	-0.035896	-0.750931	-0.318005
O9	O	-0.423183	-1.363720	-0.730721
O10	O	0.076817	-0.863720	-0.230721
O11	O	-0.339947	-1.597353	-0.814097
O12	O	0.160053	-1.097353	-0.314097
O13	O	-0.448366	-1.452464	-0.511621
O14	O	0.051634	-0.952464	-0.011621
O15	O	-0.179836	-1.342943	-0.633046
O16	O	0.320164	-0.842943	-0.133046
O17	O	-0.453897	-1.597269	-0.700172
O18	O	0.046103	-1.097269	-0.200172
O19	O	-0.184026	-1.452659	-0.775907
O20	O	0.315974	-0.952659	-0.275907
O21	O	-0.330227	-1.342832	-0.482685
O22	O	0.169773	-0.842832	0.017315
O23	O	-0.373848	-1.148815	-0.632923
O24	O	0.126152	-0.648815	-0.132923
O25	O	-0.530569	-1.256248	-0.964242
O26	O	-0.030569	-0.756248	-0.464242
O27	O	-0.525038	-1.111443	-0.775692
O28	O	-0.025038	-0.611443	-0.275692
O29	O	-0.383568	-1.403335	-0.964335
O30	O	0.116432	-0.903335	-0.464335
O31	O	-0.647909	-1.403141	-0.700049
O32	O	-0.147909	-0.903141	-0.200049
O33	O	-0.680960	-1.256137	-0.813882
O34	O	-0.180960	-0.756137	-0.313882
C35	C	-0.453707	-1.092212	-0.700021
C36	C	0.046293	-0.592212	-0.200021
C37	C	-0.466795	-0.976052	-0.686914
C38	C	0.033205	-0.476052	-0.186914
C39	C	-0.416366	-0.924277	-0.737549
C40	C	0.083634	-0.424277	-0.237549
C41	C	-0.429892	-0.804220	-0.724004
C42	C	0.070108	-0.304220	-0.224004
C43	C	-0.703595	-1.324132	-0.761252
C44	C	-0.203595	-0.824132	-0.261252
C45	C	-0.823551	-1.307287	-0.774359
C46	C	-0.323551	-0.807287	-0.274359
C47	C	-0.860644	-1.372560	-0.723934
C48	C	-0.360644	-0.872560	-0.223934
C49	C	-0.984625	-1.355151	-0.737479
C50	C	-0.484625	-0.855151	-0.237479
C51	C	-0.141675	-1.403488	-0.700097
C52	C	0.358325	-0.903488	-0.200097
C53	C	-0.021713	-1.420434	-0.687047
C54	C	0.478287	-0.920434	-0.187047
C55	C	-0.462723	-1.324130	-1.003262
C56	C	0.037277	-0.824130	-0.503262
C57	C	-0.479572	-1.307259	-1.119403
C58	C	0.020428	-0.807259	-0.619403
C59	C	-0.392534	-0.636290	-0.761534
C60	C	0.107466	-0.136290	-0.261534
C61	C	-0.379456	-0.752448	-0.774646
C62	C	0.120544	-0.252448	-0.274646
C63	C	-0.414352	-1.372514	-1.171228
C64	C	0.085648	-0.872514	-0.671228
C65	C	-0.431765	-1.355079	-1.291266
C66	C	0.068235	-0.855079	-0.791266
C67	C	-0.383712	-1.403227	-0.459238
C68	C	0.116288	-0.903227	0.040762
C69	C	-0.366535	-1.420343	-0.343088
C70	C	0.133465	-0.920343	0.156912
H71	H	-0.519979	-0.931497	-0.633535
H72	H	-0.019979	-0.431497	-0.133535
H73	H	-0.961688	-1.489214	-0.633849
H74	H	-0.461688	-0.989214	-0.133849
H75	H	-0.345619	-1.441285	-1.126729
H76	H	0.154381	-0.941285	-0.626729
H77	H	-0.500493	-1.286294	-1.335758
H78	H	-0.000493	-0.786294	-0.835758
H79	H	-0.297795	-1.489117	-1.298594
H80	H	0.202205	-0.989117	-0.798594
N81	N	-0.500349	-0.745209	-0.653296
N82	N	-0.000349	-0.245209	-0.153296
H83	H	-0.577707	-0.750929	-0.679923
H84	H	-0.077707	-0.250929	-0.179923
H85	H	-0.470434	-0.777386	-0.578967
H86	H	0.029566	-0.277386	-0.078967
H87	H	-1.044652	-1.286379	-0.790686
H88	H	-0.544652	-0.786379	-0.290686
H89	H	-0.548295	-1.238479	-1.163899
H90	H	-0.048295	-0.738479	-0.663899
H91	H	-0.800617	-1.441336	-0.670739
H92	H	-0.300617	-0.941336	-0.170739
N93	N	-0.903054	-1.216191	-0.844835
N94	N	-0.403054	-0.716191	-0.344835
H95	H	-0.980353	-1.216669	-0.844523
H96	H	-0.480353	-0.716669	-0.344523
H97	H	-0.889513	-1.146670	-0.817950
H98	H	-0.389513	-0.646670	-0.317950
H99	H	-0.363174	-0.968833	-0.790922
H100	H	0.136826	-0.468833	-0.290922
H101	H	-0.326258	-0.796999	-0.828021
H102	H	0.173742	-0.296999	-0.328021
