data_functionalizedCrystal
_audit_creation_method	'MofGen! by Chris Wilmer'
_symmetry_space_group_name_H-M	'P1'
_symmetry_Int_Tables_number	1
_symmetry_cell_setting	triclinic
loop_
_symmetry_equiv_pos_as_xyz
  x,y,z
_cell_length_a	19.121102
_cell_length_b	19.120900
_cell_length_c	12.594509
_cell_angle_alpha	92.474355
_cell_angle_beta	87.540104
_cell_angle_gamma	90.076315
loop_
_atom_site_label
_atom_site_type_symbol
_atom_site_fract_x
_atom_site_fract_y
_atom_site_fract_z
Zn1	Zn	1.059828	0.324895	-0.649229
Zn2	Zn	1.054718	0.442147	-0.463320
Zn3	Zn	0.942588	0.319916	-0.464010
Zn4	Zn	0.937541	0.437092	-0.634012
O5	O	0.998669	0.381012	-0.552643
O6	O	1.157255	0.344648	-0.630646
O7	O	1.039817	0.425965	-0.314462
O8	O	0.962390	0.222467	-0.495237
O9	O	1.153501	0.430793	-0.494060
O10	O	1.048527	0.226125	-0.631316
O11	O	0.957436	0.336162	-0.314969
O12	O	0.843814	0.331260	-0.480482
O13	O	0.953790	0.422177	-0.784980
O14	O	0.840106	0.417349	-0.605381
O15	O	1.043633	0.339746	-0.796160
O16	O	1.034924	0.539586	-0.479305
O17	O	0.948835	0.535872	-0.604712
C18	C	0.816522	0.373216	-0.541356
C19	C	0.738598	0.369898	-0.536552
C20	C	0.700075	0.413228	-0.599212
C21	C	0.626857	0.410101	-0.594703
C22	C	0.592165	0.363646	-0.527529
C23	C	0.630694	0.320311	-0.464867
C24	C	0.703910	0.323435	-0.469381
C25	C	0.371195	0.351964	-0.510655
C26	C	0.297974	0.348845	-0.506142
C27	C	0.294142	0.438634	-0.635981
C28	C	0.367360	0.441757	-0.640485
C29	C	0.405883	0.398419	-0.577827
C30	C	0.517325	0.360450	-0.522916
C31	C	0.480721	0.401612	-0.582446
C32	C	0.990796	0.563168	-0.540306
C33	C	0.987492	0.641098	-0.535069
C34	C	0.998719	0.380953	-0.830271
C35	C	0.998740	0.380928	-0.948579
C36	C	1.181527	0.388840	-0.563974
C37	C	1.259450	0.392175	-0.568802
C38	C	0.966541	1.081759	-0.501922
C39	C	0.969646	1.008536	-0.506843
C40	C	1.016015	0.973768	-0.580205
C41	C	1.059276	1.012227	-0.648656
C42	C	1.056167	1.085449	-0.643739
C43	C	1.027644	0.752778	-0.598603
C44	C	1.030752	0.679552	-0.603513
C45	C	0.941120	0.675865	-0.461701
C46	C	0.938018	0.749088	-0.456786
C47	C	0.981276	0.787541	-0.525241
C48	C	1.019193	0.898923	-0.585235
C49	C	0.978095	0.862385	-0.520215
C50	C	1.006549	1.198145	-0.565058
C51	C	1.009800	1.120213	-0.570366
C52	C	0.949889	0.425736	-1.011754
C53	C	1.013123	0.445599	-1.085340
C54	C	0.935558	0.361024	-1.085799
C55	C	1.062005	0.400826	-1.020606
C56	C	0.984398	0.316219	-1.021058
C57	C	1.047677	0.336061	-1.094616
C58	C	0.998662	0.381023	-0.276100
C59	C	0.998785	0.380856	-0.157814
H60	H	0.508971	0.439433	-0.637144
H61	H	1.068514	0.651248	-0.663256
O62	O	1.029226	0.518040	-1.122904
H63	H	0.988587	0.555169	-1.089555
O64	O	1.102820	1.126929	-0.717567
H65	H	1.137083	1.161818	-0.669947
H66	H	1.056948	0.870609	-0.644965
O67	O	1.132937	0.422821	-0.982768
H68	H	1.132393	0.422573	-0.894624
O69	O	0.479901	0.310350	-0.450463
H70	H	0.518987	0.280739	-0.407647
O71	O	0.895212	0.476007	-0.963795
H72	H	0.907311	0.529659	-0.989455
H73	H	1.089053	0.298139	-1.130608
O74	O	0.968258	0.243802	-0.983448
H75	H	0.959725	0.207780	-1.053174
O76	O	0.737493	0.463330	-0.671669
H77	H	0.698401	0.492929	-0.714491
O78	O	0.585298	0.456969	-0.662072
H79	H	0.621720	0.489852	-0.709453
O80	O	0.923000	0.967058	-0.433006
H81	H	0.890245	1.003536	-0.381153
H82	H	0.882107	0.344219	-1.114527
O83	O	0.252617	0.485391	-0.703566
H84	H	0.220629	0.452654	-0.757892
O85	O	0.404779	0.491855	-0.712947
H86	H	0.365690	0.521456	-0.755771
H87	H	0.269730	0.311008	-0.451448
H88	H	0.602442	0.282484	-0.410177
O89	O	0.412729	0.305238	-0.443039
H90	H	0.401052	0.249626	-0.464265
O91	O	0.745466	0.276709	-0.401787
H92	H	0.709043	0.243888	-0.354306
O93	O	1.074306	0.794245	-0.672427
H94	H	1.041495	0.826254	-0.722369
O95	O	0.916526	1.119258	-0.422798
H96	H	0.886963	1.080213	-0.376040
O97	O	0.888003	0.786588	-0.377664
H98	H	0.858439	0.747546	-0.330901
H99	H	0.905901	0.644550	-0.405968
H100	H	1.097029	0.983915	-0.708394
H101	H	0.940338	0.890696	-0.460489
