data_functionalizedCrystal
_audit_creation_method	'MofGen! by Chris Wilmer'
_symmetry_space_group_name_H-M	'P1'
_symmetry_Int_Tables_number	1
_symmetry_cell_setting	triclinic
loop_
_symmetry_equiv_pos_as_xyz
  x,y,z
_cell_length_a	8.497374
_cell_length_b	8.497374
_cell_length_c	12.827893
_cell_angle_alpha	90.001385
_cell_angle_beta	89.994501
_cell_angle_gamma	90.000078
loop_
_atom_site_label
_atom_site_type_symbol
_atom_site_fract_x
_atom_site_fract_y
_atom_site_fract_z
Zn1	Zn	-0.628323	0.892034	1.597640
Zn2	Zn	-0.892068	0.628275	1.597652
Zn3	Zn	-0.628297	0.628263	1.422935
Zn4	Zn	-0.892055	0.892008	1.422931
O5	O	-0.760186	0.760145	1.510290
O6	O	-0.663325	0.857061	1.743878
O7	O	-0.857073	0.407511	1.574483
O8	O	-0.407538	0.663258	1.446107
O9	O	-0.857098	0.663279	1.743887
O10	O	-0.407557	0.857050	1.574462
O11	O	-0.663281	0.407502	1.446119
O12	O	-0.663269	0.663233	1.276699
O13	O	-0.857076	1.112774	1.446099
O14	O	-0.857051	0.857006	1.276695
O15	O	-0.663313	1.112793	1.574457
O16	O	-1.112829	0.663254	1.574478
O17	O	-1.112819	0.857018	1.446111
C18	C	-0.760157	0.760116	1.238780
C19	C	-0.760182	0.760141	1.122627
C20	C	-0.170066	0.760139	1.510286
C21	C	-0.348710	0.760148	1.510291
C22	C	-0.856246	0.855902	0.950824
C23	C	-0.856222	0.855878	1.070874
C24	C	-0.760188	1.171625	1.510282
C25	C	-0.760205	1.350269	1.510284
C26	C	-0.760216	0.760174	1.782860
C27	C	-0.760229	0.760187	1.899013
H28	H	-0.938473	0.937858	0.906304
Cl29	Cl	-0.633287	0.633628	0.967739
H30	H	-0.938418	0.937831	1.115430
H31	H	-0.677968	0.678199	1.078077
