data_functionalizedCrystal
_audit_creation_method	'MofGen! by Chris Wilmer'
_symmetry_space_group_name_H-M	'P1'
_symmetry_Int_Tables_number	1
_symmetry_cell_setting	triclinic
loop_
_symmetry_equiv_pos_as_xyz
  x,y,z
_cell_length_a	21.395362
_cell_length_b	18.050589
_cell_length_c	21.395356
_cell_angle_alpha	89.977426
_cell_angle_beta	89.964122
_cell_angle_gamma	90.044101
loop_
_atom_site_label
_atom_site_type_symbol
_atom_site_fract_x
_atom_site_fract_y
_atom_site_fract_z
Zn1	Zn	0.957820	-0.295360	-0.354610
Zn2	Zn	1.291154	0.037974	-0.021277
Zn3	Zn	1.624487	0.371307	0.312057
Zn4	Zn	0.957742	-0.419553	-0.249843
Zn5	Zn	1.291076	-0.086219	0.083491
Zn6	Zn	1.624409	0.247114	0.416824
Zn7	Zn	0.853050	-0.295415	-0.249811
Zn8	Zn	1.186383	0.037918	0.083522
Zn9	Zn	1.519717	0.371251	0.416855
Zn10	Zn	0.853009	-0.419547	-0.354547
Zn11	Zn	1.186342	-0.086214	-0.021214
Zn12	Zn	1.519676	0.247120	0.312119
O13	O	0.905406	-0.357469	-0.302203
O14	O	1.238739	-0.024135	0.031130
O15	O	1.572072	0.309198	0.364464
O16	O	1.045488	-0.311813	-0.340752
O17	O	1.378821	0.021520	-0.007418
O18	O	1.712155	0.354853	0.325915
O19	O	0.943839	-0.403111	-0.162161
O20	O	1.277172	-0.069778	0.171173
O21	O	1.610506	0.263556	0.504506
O22	O	0.866998	-0.191483	-0.263726
O23	O	1.200331	0.141850	0.069607
O24	O	1.533665	0.475183	0.402941
O25	O	1.045431	-0.403057	-0.263780
O26	O	1.378764	-0.069724	0.069554
O27	O	1.712097	0.263609	0.402887
O28	O	0.943972	-0.191443	-0.340721
O29	O	1.277306	0.141891	-0.007388
O30	O	1.610639	0.475224	0.325945
O31	O	0.866922	-0.311908	-0.162138
O32	O	1.200256	0.021425	0.171196
O33	O	1.533589	0.354759	0.504529
O34	O	0.765367	-0.311903	-0.263665
O35	O	1.098700	0.021431	0.069668
O36	O	1.432033	0.354764	0.403001
O37	O	0.866928	-0.403048	-0.442234
O38	O	1.200262	-0.069714	-0.108900
O39	O	1.533595	0.263619	0.224433
O40	O	0.765337	-0.403101	-0.340615
O41	O	1.098670	-0.069768	-0.007281
O42	O	1.432003	0.263565	0.326052
O43	O	0.943933	-0.311808	-0.442280
O44	O	1.277266	0.021525	-0.108946
O45	O	1.610599	0.354859	0.224387
O46	O	0.943799	-0.523476	-0.263719
O47	O	1.277133	-0.190143	0.069614
O48	O	1.610466	0.143190	0.402948
O49	O	0.866852	-0.523472	-0.340645
O50	O	1.200186	-0.190139	-0.007312
O51	O	1.533519	0.143194	0.326021
C52	C	0.742618	-0.357508	-0.302130
C53	C	1.075951	-0.024175	0.031203
C54	C	1.409285	0.309159	0.364536
C55	C	0.672977	-0.357543	-0.302114
C56	C	1.006310	-0.024209	0.031219
C57	C	1.339643	0.309124	0.364553
C58	C	0.640264	-0.405093	-0.342121
C59	C	0.973597	-0.071760	-0.008788
C60	C	1.306931	0.261574	0.324545
C61	C	0.574829	-0.405075	-0.342149
C62	C	0.908162	-0.071741	-0.008816
C63	C	1.241495	0.261592	0.324517
C64	C	0.542108	-0.357514	-0.302159
C65	C	0.875442	-0.024181	0.031175
C66	C	1.208775	0.309153	0.364508
C67	C	0.574829	-0.309955	-0.262148
C68	C	0.908162	0.023379	0.071185
C69	C	1.241495	0.356712	0.404518
C70	C	0.640263	-0.309969	-0.262126
C71	C	0.973596	0.023364	0.071207
C72	C	1.306929	0.356698	0.404541
C73	C	0.438391	-0.351543	-0.245753
C74	C	0.771725	-0.018209	0.087580
C75	C	1.105058	0.315124	0.420914
C76	C	0.372958	-0.351533	-0.245774
C77	C	0.706292	-0.018200	0.087559
C78	C	1.039625	0.315133	0.420893
C79	C	0.340288	-0.357466	-0.302228
C80	C	0.673621	-0.024132	0.031106
C81	C	1.006954	0.309201	0.364439
C82	C	0.373058	-0.363422	-0.358662
C83	C	0.706391	-0.030089	-0.025329
C84	C	1.039725	0.303244	0.308005
C85	C	0.438492	-0.363437	-0.358640
C86	C	0.771825	-0.030103	-0.025306
C87	C	1.105159	0.303230	0.308027
C88	C	0.471156	-0.357493	-0.302179
C89	C	0.804489	-0.024160	0.031155
C90	C	1.137823	0.309174	0.364488
C91	C	0.236623	-0.404999	-0.342269
C92	C	0.569956	-0.071665	-0.008936
C93	C	0.903289	0.261668	0.324398
C94	C	0.171186	-0.404975	-0.342298
C95	C	0.504519	-0.071642	-0.008965
C96	C	0.837853	0.261691	0.324369
C97	C	0.171187	-0.309859	-0.262291
C98	C	0.504520	0.023474	0.071042
C99	C	0.837854	0.356808	0.404375
C100	C	0.236622	-0.309878	-0.262268
C101	C	0.569956	0.023455	0.071065
C102	C	0.903289	0.356788	0.404399
C103	C	0.269336	-0.357452	-0.302256
C104	C	0.602670	-0.024119	0.031077
C105	C	0.936003	0.309214	0.364411
C106	C	0.905330	-0.550421	-0.302192
C107	C	1.238663	-0.217088	0.031141
C108	C	1.571997	0.116246	0.364474
C109	C	0.905355	-0.632967	-0.302209
C110	C	1.238688	-0.299633	0.031124
C111	C	1.572022	0.033700	0.364458
C112	C	0.863552	-0.832442	-0.344027
C113	C	1.196886	-0.499109	-0.010693
C114	C	1.530219	-0.165775	0.322640
C115	C	0.848282	-0.881886	-0.286848
C116	C	1.181615	-0.548553	0.046485
C117	C	1.514949	-0.215219	0.379818
C118	C	0.905416	-0.784097	-0.302217
C119	C	1.238750	-0.450764	0.031116
C120	C	1.572083	-0.117430	0.364450
C121	C	0.920717	-0.881734	-0.359402
C122	C	1.254051	-0.548401	-0.026069
C123	C	1.587384	-0.215068	0.307265
C124	C	0.905475	-0.930082	-0.302230
C125	C	1.238808	-0.596749	0.031103
C126	C	1.572141	-0.263415	0.364437
C127	C	0.890116	-0.832454	-0.245009
C128	C	1.223450	-0.499121	0.088325
C129	C	1.556783	-0.165787	0.421658
C130	C	0.962578	-0.832298	-0.317601
C131	C	1.295911	-0.498965	0.015733
C132	C	1.629245	-0.165631	0.349066
C133	C	0.947330	-0.881720	-0.260383
C134	C	1.280663	-0.548386	0.072950
C135	C	1.613996	-0.215053	0.406284
C136	C	0.905381	-0.699999	-0.302211
C137	C	1.238715	-0.366665	0.031123
C138	C	1.572048	-0.033332	0.364456
C139	C	0.905510	-1.014178	-0.302230
C140	C	1.238843	-0.680845	0.031103
C141	C	1.572177	-0.347512	0.364436
C142	C	1.068829	-0.357430	-0.302276
C143	C	1.402162	-0.024096	0.031057
C144	C	1.735495	0.309237	0.364390
C145	C	1.138470	-0.357413	-0.302307
C146	C	1.471803	-0.024080	0.031026
C147	C	1.805137	0.309253	0.364359
C148	C	0.905435	-0.357421	-0.465626
C149	C	1.238768	-0.024088	-0.132293
C150	C	1.572101	0.309246	0.201040
C151	C	0.905447	-0.357401	-0.535268
C152	C	1.238780	-0.024067	-0.201934
C153	C	1.572114	0.309266	0.131399
C154	C	0.905499	-0.163763	-0.302227
C155	C	1.238832	0.169570	0.031106
C156	C	1.572165	0.502904	0.364440
C157	C	0.905538	-0.081217	-0.302237
C158	C	1.238871	0.252116	0.031096
C159	C	1.572205	0.585449	0.364429
C160	C	0.945602	-0.309774	-1.037089
C161	C	1.278935	0.023560	-0.703756
C162	C	1.612269	0.356893	-0.370422
C163	C	0.945597	-0.309792	-0.971653
C164	C	1.278930	0.023542	-0.638320
C165	C	1.612264	0.356875	-0.304987
C166	C	0.905501	-0.357302	-0.938906
C167	C	1.238834	-0.023968	-0.605573
C168	C	1.572167	0.309365	-0.272239
C169	C	0.865417	-0.404811	-0.971600
C170	C	1.198751	-0.071478	-0.638266
C171	C	1.532084	0.261856	-0.304933
C172	C	0.865428	-0.404797	-1.037034
C173	C	1.198761	-0.071464	-0.703700
C174	C	1.532095	0.261870	-0.370367
C175	C	0.849032	-0.363202	-0.835211
C176	C	1.182365	-0.029868	-0.501878
C177	C	1.515698	0.303465	-0.168545
C178	C	0.849020	-0.363210	-0.769778
C179	C	1.182354	-0.029877	-0.436445
C180	C	1.515687	0.303456	-0.103112
C181	C	0.905469	-0.357349	-0.737085
C182	C	1.238802	-0.024016	-0.403752
C183	C	1.572135	0.309317	-0.070419
C184	C	0.961930	-0.351464	-0.769833
C185	C	1.295263	-0.018130	-0.436500
C186	C	1.628597	0.315203	-0.103166
C187	C	0.961941	-0.351450	-0.835267
C188	C	1.295274	-0.018116	-0.501934
C189	C	1.628607	0.315217	-0.168601
C190	C	0.905485	-0.357323	-0.867954
C191	C	1.238818	-0.023989	-0.534620
C192	C	1.572152	0.309344	-0.201287
C193	C	0.945547	-0.309866	-0.633447
C194	C	1.278880	0.023467	-0.300114
C195	C	1.612214	0.356801	0.033220
C196	C	0.945543	-0.309889	-0.568010
C197	C	1.278876	0.023444	-0.234677
C198	C	1.612210	0.356777	0.098656
C199	C	0.865358	-0.404905	-0.567958
C200	C	1.198691	-0.071571	-0.234624
C201	C	1.532024	0.261762	0.098709
C202	C	0.865367	-0.404885	-0.633393
C203	C	1.198701	-0.071552	-0.300060
C204	C	1.532034	0.261781	0.033274
C205	C	0.905461	-0.357362	-0.666134
C206	C	1.238794	-0.024029	-0.332801
C207	C	1.572128	0.309305	0.000533
C208	C	0.905413	-0.357463	-0.139415
C209	C	1.238746	-0.024129	0.193918
C210	C	1.572079	0.309204	0.527251
C211	C	0.905522	-0.357274	-0.069774
C212	C	1.238855	-0.023940	0.263559
C213	C	1.572188	0.309393	0.596892
H214	H	0.346459	-0.368252	-0.404632
H215	H	0.679792	-0.034918	-0.071299
H216	H	1.013125	0.298415	0.262035
H217	H	0.263260	-0.443732	-0.374833
H218	H	0.596593	-0.110399	-0.041499
H219	H	0.929926	0.222934	0.291834
Cl220	Cl	0.130061	-0.464754	-0.392601
Cl221	Cl	0.463395	-0.131421	-0.059268
Cl222	Cl	0.796728	0.201912	0.274065
H223	H	0.548183	-0.271229	-0.229589
H224	H	0.881517	0.062104	0.103745
H225	H	1.214850	0.395438	0.437078
Cl226	Cl	0.130059	-0.250063	-0.212020
Cl227	Cl	0.463392	0.083270	0.121313
Cl228	Cl	0.796726	0.416604	0.454646
H229	H	0.799970	-0.903683	-0.273849
H230	H	1.133303	-0.570350	0.059485
H231	H	1.466636	-0.237017	0.392818
H232	H	0.978252	-0.271080	-1.063742
H233	H	1.311586	0.062253	-0.730409
H234	H	1.644919	0.395587	-0.397076
H235	H	0.832713	-0.443591	-0.541296
H236	H	1.166046	-0.110258	-0.207962
H237	H	1.499380	0.223076	0.125371
H238	H	0.828097	-0.810803	-0.379334
H239	H	1.161430	-0.477470	-0.046000
H240	H	1.494764	-0.144137	0.287333
H241	H	0.877142	-0.810896	-0.196640
H242	H	1.210475	-0.477563	0.136693
H243	H	1.543809	-0.144230	0.470027
Cl244	Cl	1.002030	-0.914918	-0.205743
Cl245	Cl	1.335363	-0.581585	0.127590
Cl246	Cl	1.668696	-0.248251	0.460924
Cl247	Cl	0.681387	-0.464896	-0.392395
Cl248	Cl	1.014720	-0.131563	-0.059062
Cl249	Cl	1.348053	0.201770	0.274272
H250	H	0.263257	-0.271162	-0.229686
H251	H	0.596591	0.062172	0.103647
H252	H	0.929924	0.395505	0.436980
H253	H	0.548189	-0.443795	-0.374731
H254	H	0.881522	-0.110462	-0.041397
H255	H	1.214856	0.222871	0.291936
H256	H	0.832727	-0.443562	-0.660006
H257	H	1.166060	-0.110229	-0.326673
H258	H	1.499394	0.223105	0.006661
H259	H	0.346282	-0.346688	-0.199822
H260	H	0.679615	-0.013354	0.133511
H261	H	1.012948	0.319979	0.466845
H262	H	1.010880	-0.810503	-0.330628
H263	H	1.344213	-0.477169	0.002706
H264	H	1.677546	-0.143836	0.336039
Cl265	Cl	0.940662	-0.915160	-0.434057
Cl266	Cl	1.273995	-0.581826	-0.100724
Cl267	Cl	1.607329	-0.248493	0.232609
Cl268	Cl	0.815037	-0.464516	-1.078126
Cl269	Cl	1.148370	-0.131183	-0.744793
Cl270	Cl	1.481704	0.202150	-0.411460
H271	H	0.465171	-0.368285	-0.404590
H272	H	0.798504	-0.034951	-0.071257
H273	H	1.131838	0.298382	0.262077
H274	H	1.007896	-0.346688	-0.743216
H275	H	1.341229	-0.013355	-0.409882
H276	H	1.674562	0.319978	-0.076549
H277	H	0.978235	-0.271109	-0.945036
H278	H	1.311568	0.062225	-0.611702
H279	H	1.644902	0.395558	-0.278369
Cl280	Cl	0.778041	-0.370602	-0.728616
Cl281	Cl	1.111374	-0.037268	-0.395283
Cl282	Cl	1.444707	0.296065	-0.061950
H283	H	1.007914	-0.346659	-0.861928
H284	H	1.341247	-0.013326	-0.528594
H285	H	1.674580	0.320007	-0.195261
Cl286	Cl	0.995938	-0.250111	-0.674610
Cl287	Cl	1.329272	0.083222	-0.341276
Cl288	Cl	1.662605	0.416555	-0.007943
Cl289	Cl	0.995938	-0.250174	-0.526919
Cl290	Cl	1.329272	0.083160	-0.193586
Cl291	Cl	1.662605	0.416493	0.139748
Cl292	Cl	0.815012	-0.464540	-0.930432
Cl293	Cl	1.148346	-0.131207	-0.597099
Cl294	Cl	1.481679	0.202126	-0.263766
H295	H	0.464986	-0.346709	-0.199778
H296	H	0.798320	-0.013375	0.133555
H297	H	1.131653	0.319958	0.466888
Cl298	Cl	0.681389	-0.250187	-0.211826
Cl299	Cl	1.014722	0.083147	0.121507
Cl300	Cl	1.348056	0.416480	0.454840
H301	H	0.803062	-0.367975	-0.861825
H302	H	1.136395	-0.034642	-0.528491
H303	H	1.469728	0.298691	-0.195158
