data_functionalizedCrystal
_audit_creation_method	'MofGen! by Chris Wilmer'
_symmetry_space_group_name_H-M	'P1'
_symmetry_Int_Tables_number	1
_symmetry_cell_setting	triclinic
loop_
_symmetry_equiv_pos_as_xyz
  x,y,z
_cell_length_a	14.560438
_cell_length_b	14.560438
_cell_length_c	14.560438
_cell_angle_alpha	60.004622
_cell_angle_beta	90.001334
_cell_angle_gamma	60.005643
loop_
_atom_site_label
_atom_site_type_symbol
_atom_site_fract_x
_atom_site_fract_y
_atom_site_fract_z
Zr1	Zr	0.884927	1.005122	-0.120367
O2	O	0.738307	1.196698	-0.266989
O3	O	0.929852	0.813548	-0.075440
O4	O	0.929879	1.005124	-0.267016
O5	O	0.738284	1.005120	0.075727
O6	O	1.081019	1.005122	-0.267014
O7	O	0.738280	1.005122	-0.075413
O8	O	1.080971	0.662428	0.075680
O9	O	0.738332	1.347814	-0.266967
O10	O	1.061833	0.892343	-0.056254
O11	O	0.949042	0.892342	0.056540
O12	O	0.949073	1.117898	-0.169016
O13	O	0.836282	1.117897	-0.056223
Zr14	Zr	1.125985	1.005115	0.120687
Zr15	Zr	1.125979	1.005119	-0.120365
Zr16	Zr	0.884933	1.005117	0.120685
Zr17	Zr	0.884967	1.246134	-0.120332
Zr18	Zr	1.125945	0.764103	0.120652
O19	O	1.081060	1.196689	0.075760
O20	O	1.081051	1.196695	-0.266986
O21	O	0.738316	1.196692	0.075756
O22	O	1.272605	0.813539	0.267309
O23	O	1.272596	0.813544	-0.075436
O24	O	0.929861	0.813542	0.267305
O25	O	1.272628	1.005117	-0.075408
O26	O	1.081033	1.005113	0.267335
O27	O	0.929893	1.005115	0.267334
O28	O	1.272632	1.005115	0.075733
O29	O	0.929936	1.347812	-0.266965
O30	O	1.080976	0.662425	0.267285
O31	O	1.272580	0.662423	0.267287
O32	O	1.272575	0.662426	0.075683
O33	O	0.738337	1.347811	-0.075363
O34	O	0.929941	1.347809	-0.075361
O35	O	1.061839	0.892339	0.169336
O36	O	1.174630	0.892340	0.056542
O37	O	1.061870	1.117895	-0.056220
O38	O	0.949079	1.117894	0.056573
C39	C	1.005406	0.703649	0.000115
C40	C	1.005389	0.601333	0.000100
C41	C	0.946550	0.553219	0.059012
C42	C	0.946613	0.457007	0.059069
C43	C	1.064364	0.457027	-0.058699
C44	C	1.064293	0.553244	-0.058762
C45	C	0.887646	0.601308	0.117874
C46	C	0.828803	0.553193	0.176791
C47	C	0.828867	0.456981	0.176848
C48	C	0.887772	0.408884	0.117988
C49	C	0.703938	1.005121	0.000157
C50	C	0.601605	1.005122	0.000155
C51	C	0.553527	1.005126	-0.083111
C52	C	0.457379	1.005118	-0.083105
C53	C	0.457394	1.005106	0.083439
C54	C	0.553544	1.005106	0.083437
C55	C	1.306974	1.005116	0.000163
C56	C	1.409307	1.005115	0.000164
C57	C	1.005448	1.005123	-0.301360
C58	C	1.005446	1.005125	-0.403692
C59	C	1.005506	1.306588	0.000205
C60	C	1.005523	1.408904	0.000220
C61	C	0.946587	1.122860	-0.510630
C62	C	0.946601	1.122854	-0.606778
C63	C	1.064332	0.887367	-0.489039
C64	C	1.064325	0.887375	-0.392893
C65	C	1.005464	1.005113	0.301679
C66	C	1.005466	1.005112	0.404012
C67	C	1.306925	0.703646	0.000119
C68	C	1.409240	0.601329	0.000105
C69	C	1.005414	0.703644	0.301635
C70	C	1.005400	0.601326	0.403953
C71	C	1.306932	0.703641	0.301638
C72	C	1.409250	0.601322	0.403957
C73	C	0.703980	1.306596	-0.301318
C74	C	0.601661	1.408915	-0.403637
C75	C	0.703987	1.306591	0.000201
C76	C	0.601672	1.408908	0.000215
C77	C	1.005498	1.306593	-0.301315
C78	C	1.005512	1.408911	-0.403633
C79	C	1.398432	0.553259	-0.058778
C80	C	1.494573	0.457129	-0.058795
C81	C	1.612325	0.457143	0.058962
C82	C	1.516186	0.553278	0.058972
C83	C	1.064271	0.553253	0.510900
C84	C	1.064244	0.457124	0.607035
C85	C	0.946474	0.457144	0.489261
C86	C	0.946495	0.553278	0.393128
C87	C	1.516196	0.553251	0.393153
C88	C	1.612331	0.457120	0.489296
C89	C	1.494561	0.457136	0.607045
C90	C	1.398429	0.553272	0.510903
H91	H	0.780945	0.417818	0.224813
C92	C	1.280795	0.606122	-0.123532
H93	H	1.225083	0.670252	-0.115086
H94	H	1.272364	0.643626	-0.200988
H95	H	1.272359	0.537093	-0.094455
C96	C	1.482666	0.404265	0.724682
H97	H	1.555235	0.340115	0.780395
H98	H	1.442726	0.473280	0.733128
H99	H	1.442709	0.366757	0.733103
C100	C	0.606431	1.005107	0.175032
H101	H	0.564029	1.005117	0.224621
H102	H	0.681596	0.929786	0.216146
H103	H	0.606278	1.080439	0.140828
C104	C	0.887576	0.707139	0.117809
H105	H	0.931061	0.728901	0.074297
H106	H	0.812556	0.782119	0.086289
H107	H	0.919094	0.675669	0.192808
C108	C	1.129044	0.606121	0.522806
H109	H	1.164091	0.563730	0.600272
H110	H	1.184762	0.590368	0.487749
H111	H	1.078226	0.696889	0.487759
H112	H	0.592657	1.005137	-0.150922
H113	H	1.112182	0.417989	0.694113
C114	C	0.881840	1.252379	-0.522509
H115	H	0.846799	1.322496	-0.599970
H116	H	0.826120	1.257288	-0.487454
H117	H	0.932672	1.257269	-0.487446
C118	C	1.729961	0.404268	0.123732
H119	H	1.722626	0.446673	0.158797
H120	H	1.769897	0.313506	0.179437
H121	H	1.769927	0.420027	0.072917
C122	C	1.528074	0.606155	0.123748
H123	H	1.605535	0.563758	0.158819
H124	H	1.493022	0.696919	0.072938
H125	H	1.493011	0.590388	0.179466
C126	C	0.404492	1.005131	-0.174702
H127	H	0.446885	1.005150	-0.224303
H128	H	0.404639	0.929810	-0.140514
H129	H	0.329325	1.080462	-0.215818
C130	C	0.881852	1.252360	-0.724408
H131	H	0.890295	1.235496	-0.780126
H132	H	0.804397	1.300733	-0.732840
H133	H	0.910935	1.300742	-0.732835
H134	H	0.898518	0.418011	0.480461
C135	C	1.280780	0.606161	0.522781
H136	H	1.225079	0.670308	0.450204
H137	H	1.272322	0.537156	0.562720
H138	H	1.272353	0.643678	0.562730
C139	C	1.528093	0.606115	0.275516
H140	H	1.455524	0.670246	0.219802
H141	H	1.568050	0.643617	0.267087
H142	H	1.568034	0.537087	0.267080
H143	H	1.112267	0.791499	-0.480260
H144	H	1.112260	0.791495	-0.305814
H145	H	0.418252	1.005096	0.151244
H146	H	1.485763	0.417997	-0.106745
C147	C	1.729969	0.404204	0.477413
H148	H	1.785676	0.340067	0.549987
H149	H	1.738374	0.366695	0.437466
H150	H	1.738441	0.473204	0.437467
H151	H	0.898549	0.592423	0.306041
C152	C	0.764005	0.606097	0.241528
H153	H	0.728961	0.563671	0.276611
H154	H	0.814790	0.590413	0.297214
H155	H	0.708264	0.696853	0.190683
C156	C	1.129168	0.404109	-0.123425
H157	H	1.120792	0.339904	-0.114940
H158	H	1.100093	0.473089	-0.200890
H159	H	1.206614	0.366657	-0.094354
H160	H	0.887808	0.330553	0.118028
H161	H	1.112204	0.592420	-0.106735
