data_functionalizedCrystal
_audit_creation_method	'MofGen! by Chris Wilmer'
_symmetry_space_group_name_H-M	'P1'
_symmetry_Int_Tables_number	1
_symmetry_cell_setting	triclinic
loop_
_symmetry_equiv_pos_as_xyz
  x,y,z
_cell_length_a	21.395362
_cell_length_b	11.169416
_cell_length_c	21.395364
_cell_angle_alpha	89.996294
_cell_angle_beta	90.036401
_cell_angle_gamma	90.026221
loop_
_atom_site_label
_atom_site_type_symbol
_atom_site_fract_x
_atom_site_fract_y
_atom_site_fract_z
Zn1	Zn	0.957901	-0.477611	0.354618
Zn2	Zn	1.457901	0.022389	0.854618
Zn3	Zn	0.957855	-0.678230	0.249855
Zn4	Zn	1.457855	-0.178230	0.749855
Zn5	Zn	0.853130	-0.477616	0.249820
Zn6	Zn	1.353130	0.022384	0.749820
Zn7	Zn	0.853123	-0.678306	0.354560
Zn8	Zn	1.353123	-0.178306	0.854560
O9	O	0.905502	-0.577941	0.302213
O10	O	1.405502	-0.077941	0.802213
O11	O	1.045573	-0.504190	0.340761
O12	O	1.545573	-0.004190	0.840761
O13	O	0.943947	-0.651589	0.162172
O14	O	1.443947	-0.151589	0.662172
O15	O	0.867051	-0.309665	0.263732
O16	O	1.367051	0.190335	0.763732
O17	O	1.045539	-0.651584	0.263791
O18	O	1.545539	-0.151584	0.763791
O19	O	0.944026	-0.309662	0.340727
O20	O	1.444026	0.190338	0.840727
O21	O	0.867006	-0.504198	0.162147
O22	O	1.367006	-0.004198	0.662147
O23	O	0.765451	-0.504271	0.263674
O24	O	1.265451	-0.004271	0.763674
O25	O	0.867038	-0.651714	0.442245
O26	O	1.367038	-0.151714	0.942245
O27	O	0.765446	-0.651718	0.340626
O28	O	1.265446	-0.151718	0.840626
O29	O	0.944019	-0.504263	0.442289
O30	O	1.444019	-0.004263	0.942289
O31	O	0.943939	-0.846190	0.263734
O32	O	1.443939	-0.346190	0.763734
O33	O	0.866993	-0.846246	0.340660
O34	O	1.366993	-0.346246	0.840660
C35	C	0.742715	-0.578004	0.302141
C36	C	1.242715	-0.078004	0.802141
C37	C	0.673073	-0.578060	0.302124
C38	C	1.173073	-0.078060	0.802124
C39	C	0.640374	-0.654937	0.342133
C40	C	1.140374	-0.154937	0.842133
C41	C	0.574938	-0.654908	0.342161
C42	C	1.074938	-0.154908	0.842161
C43	C	0.542205	-0.578014	0.302169
C44	C	1.042205	-0.078014	0.802169
C45	C	0.574913	-0.501122	0.262157
C46	C	1.074913	-0.001122	0.762157
C47	C	0.640347	-0.501145	0.262135
C48	C	1.140347	-0.001145	0.762135
C49	C	0.438486	-0.568318	0.245763
C50	C	0.938486	-0.068318	0.745763
C51	C	0.373053	-0.568303	0.245784
C52	C	0.873053	-0.068303	0.745784
C53	C	0.340384	-0.577936	0.302238
C54	C	0.840384	-0.077936	0.802238
C55	C	0.373157	-0.587608	0.358672
C56	C	0.873157	-0.087608	0.858672
C57	C	0.438591	-0.587631	0.358650
C58	C	0.938591	-0.087631	0.858650
C59	C	0.471253	-0.577980	0.302189
C60	C	0.971253	-0.077980	0.802189
C61	C	0.236732	-0.654785	0.342281
C62	C	0.736732	-0.154785	0.842281
C63	C	0.171296	-0.654747	0.342310
C64	C	0.671296	-0.154747	0.842310
C65	C	0.171271	-0.500968	0.262300
C66	C	0.671271	-0.000968	0.762300
C67	C	0.236706	-0.500999	0.262277
C68	C	0.736706	-0.000999	0.762277
C69	C	0.269433	-0.577914	0.302266
C70	C	0.769433	-0.077914	0.802266
C71	C	0.905477	-0.889766	0.302208
C72	C	1.405477	-0.389766	0.802208
C73	C	0.905524	-1.023165	0.302227
C74	C	1.405524	-0.523165	0.802227
C75	C	1.068926	-0.577878	0.302287
C76	C	1.568926	-0.077878	0.802287
C77	C	1.138567	-0.577851	0.302318
C78	C	1.638567	-0.077851	0.802318
C79	C	0.905533	-0.577996	0.465636
C80	C	1.405533	-0.077996	0.965636
C81	C	0.905546	-0.578020	0.535278
C82	C	1.405546	-0.078020	1.035278
C83	C	0.905544	-0.264898	0.302232
C84	C	1.405544	0.235102	0.802232
C85	C	0.905562	-0.131498	0.302240
C86	C	1.405562	0.368502	0.802240
C87	C	0.945623	-0.501256	0.568014
C88	C	1.445623	-0.001256	1.068014
C89	C	0.945614	-0.501236	0.633450
C90	C	1.445614	-0.001236	1.133450
C91	C	0.905533	-0.578002	0.666146
C92	C	1.405533	-0.078002	1.166146
C93	C	0.865448	-0.654772	0.633402
C94	C	1.365448	-0.154772	1.133402
C95	C	0.865454	-0.654781	0.567967
C96	C	1.365454	-0.154781	1.067967
C97	C	0.900564	-0.686121	0.769817
C98	C	1.400564	-0.186121	1.269817
C99	C	0.900562	-0.686114	0.835250
C100	C	1.400562	-0.186114	1.335250
C101	C	0.905511	-0.577974	0.867967
C102	C	1.405511	-0.077974	1.367967
C103	C	0.910474	-0.469838	0.835242
C104	C	1.410474	0.030162	1.335242
C105	C	0.910480	-0.469847	0.769808
C106	C	1.410480	0.030153	1.269808
C107	C	0.905522	-0.578001	0.737098
C108	C	1.405522	-0.078001	1.237098
C109	C	0.945580	-0.501182	0.971656
C110	C	1.445580	-0.001182	1.471656
C111	C	0.945566	-0.501161	1.037093
C112	C	1.445566	-0.001161	1.537093
C113	C	0.865404	-0.654707	1.037043
C114	C	1.365404	-0.154707	1.537043
C115	C	0.865414	-0.654718	0.971608
C116	C	1.365414	-0.154718	1.471608
C117	C	0.905506	-0.577957	0.938918
C118	C	1.405506	-0.077957	1.438918
C119	C	0.905475	-0.577922	1.139426
C120	C	1.405475	-0.077922	1.639426
C121	C	0.905485	-0.577926	1.069784
C122	C	1.405485	-0.077926	1.569784
H123	H	0.667016	-0.717566	0.374697
H124	H	1.167016	-0.217566	0.874697
C125	C	0.989660	-0.416731	1.073106
C126	C	1.489660	0.083269	1.573106
H127	H	0.983913	-0.427712	1.116759
H128	H	1.483913	0.072288	1.616759
H129	H	1.031753	-0.434302	1.062413
H130	H	1.531753	0.065698	1.562413
H131	H	0.980510	-0.336087	1.062372
H132	H	1.480510	0.163913	1.562372
C133	C	0.538961	-0.739406	0.386209
C134	C	1.038961	-0.239406	0.886209
H135	H	0.567824	-0.785198	0.410031
H136	H	1.067824	-0.285198	0.910031
H137	H	0.513496	-0.693513	0.413544
H138	H	1.013496	-0.193513	0.913544
H139	H	0.513377	-0.791635	0.362232
H140	H	1.013377	-0.291635	0.862232
H141	H	0.896367	-0.774159	0.743185
H142	H	1.396367	-0.274159	1.243185
C143	C	0.474641	-0.598265	0.420720
C144	C	0.974641	-0.098265	0.920720
H145	H	0.518289	-0.596909	0.412618
H146	H	1.018289	-0.096909	0.912618
H147	H	0.463968	-0.533064	0.447139
H148	H	0.963968	-0.033064	0.947139
H149	H	0.463914	-0.671402	0.440692
H150	H	0.963914	-0.171402	0.940692
H151	H	0.896524	-0.774165	0.861890
H152	H	1.396524	-0.274165	1.361890
H153	H	0.832812	-0.717272	0.660027
H154	H	1.332812	-0.217272	1.160027
H155	H	0.465079	-0.560469	0.199789
H156	H	0.965079	-0.060469	0.699789
C157	C	0.915930	-0.350907	0.733813
C158	C	1.415930	0.149093	1.233813
H159	H	0.918872	-0.286496	0.762665
H160	H	1.418872	0.213504	1.262665
H161	H	0.952248	-0.352451	0.708311
H162	H	1.452248	0.147549	1.208311
H163	H	0.880019	-0.340387	0.708264
H164	H	1.380019	0.159613	1.208264
C165	C	0.272681	-0.416444	0.218263
C166	C	0.772681	0.083556	0.718263
H167	H	0.316338	-0.427464	0.223981
H168	H	0.816338	0.072536	0.723981
H169	H	0.261911	-0.433861	0.176154
H170	H	0.761911	0.066139	0.676154
H171	H	0.261993	-0.335828	0.227512
H172	H	0.761993	0.164172	0.727512
C173	C	0.337009	-0.557662	0.183711
C174	C	0.837009	-0.057662	0.683711
H175	H	0.365836	-0.551905	0.150087
H176	H	0.865836	-0.051905	0.650087
H177	H	0.311455	-0.626415	0.178147
H178	H	0.811455	-0.126415	0.678147
H179	H	0.311508	-0.488078	0.184600
H180	H	0.811508	0.011922	0.684600
H181	H	0.346559	-0.595450	0.404643
H182	H	0.846559	-0.095450	0.904643
C183	C	0.135323	-0.739311	0.386322
C184	C	0.635323	-0.239311	0.886322
H185	H	0.091665	-0.728273	0.380615
H186	H	0.591665	-0.228273	0.880615
H187	H	0.146008	-0.819924	0.377076
H188	H	0.646008	-0.319924	0.877076
H189	H	0.146096	-0.721888	0.428434
H190	H	0.646096	-0.221888	0.928434
C191	C	0.821312	-0.739147	1.072998
C192	C	1.321312	-0.239147	1.572998
H193	H	0.797442	-0.784865	1.044126
H194	H	1.297442	-0.284865	1.544126
H195	H	0.845267	-0.791428	1.098548
H196	H	1.345267	-0.291428	1.598548
H197	H	0.794014	-0.693232	1.098497
H198	H	1.294014	-0.193232	1.598497
C199	C	0.989701	-0.416796	0.669471
C200	C	1.489701	0.083204	1.169471
H201	H	0.983951	-0.427781	0.713123
H202	H	1.483951	0.072219	1.213123
H203	H	1.031797	-0.434349	0.658780
H204	H	1.531797	0.065651	1.158780
H205	H	0.980542	-0.336155	0.658737
H206	H	1.480542	0.163845	1.158737
H207	H	0.832782	-0.717236	0.944953
H208	H	1.332782	-0.217236	1.444953
C209	C	0.989717	-0.416813	0.532059
C210	C	1.489717	0.083187	1.032059
H211	H	1.013581	-0.371084	0.560932
H212	H	1.513581	0.128916	1.060932
H213	H	1.017012	-0.462713	0.506555
H214	H	1.517012	0.037287	1.006555
H215	H	0.965756	-0.364524	0.506515
H216	H	1.465756	0.135476	1.006515
H217	H	0.914505	-0.381780	0.861879
H218	H	1.414505	0.118220	1.361879
C219	C	0.989668	-0.416731	0.935695
C220	C	1.489668	0.083269	1.435695
H221	H	1.013528	-0.370992	0.964566
H222	H	1.513528	0.129008	1.464566
H223	H	1.016967	-0.462624	0.910191
H224	H	1.516967	0.037376	1.410191
H225	H	0.965701	-0.364452	0.910149
H226	H	1.465701	0.135548	1.410149
C227	C	0.538909	-0.416541	0.218167
C228	C	1.038909	0.083459	0.718167
H229	H	0.495255	-0.427545	0.223906
H230	H	0.995255	0.072455	0.723906
H231	H	0.549667	-0.335937	0.227404
H232	H	1.049667	0.164063	0.727404
H233	H	0.549586	-0.433975	0.176048
H234	H	1.049586	0.066025	0.676048
C235	C	0.676318	-0.416583	0.218120
C236	C	1.176318	0.083417	0.718120
H237	H	0.647454	-0.370785	0.194303
H238	H	1.147454	0.129215	0.694303
H239	H	0.701888	-0.364383	0.242123
H240	H	1.201888	0.135617	0.742123
H241	H	0.701798	-0.462423	0.190768
H242	H	1.201798	0.037577	0.690768
C243	C	0.821376	-0.739243	0.531956
C244	C	1.321376	-0.239243	1.031956
H245	H	0.797506	-0.784968	0.560798
H246	H	1.297506	-0.284968	1.060798
H247	H	0.794085	-0.693358	0.506400
H248	H	1.294085	-0.193358	1.006400
H249	H	0.845350	-0.791533	0.506457
H250	H	1.345350	-0.291533	1.006457
H251	H	0.263380	-0.717408	0.374846
H252	H	0.763380	-0.217408	0.874846
H253	H	0.144620	-0.438353	0.229741
H254	H	0.644620	0.061647	0.729741
