data_functionalizedCrystal
_audit_creation_method	'MofGen! by Chris Wilmer'
_symmetry_space_group_name_H-M	'P1'
_symmetry_Int_Tables_number	1
_symmetry_cell_setting	triclinic
loop_
_symmetry_equiv_pos_as_xyz
  x,y,z
_cell_length_a	15.944551
_cell_length_b	23.532357
_cell_length_c	14.421503
_cell_angle_alpha	89.998741
_cell_angle_beta	89.996859
_cell_angle_gamma	83.163515
loop_
_atom_site_label
_atom_site_type_symbol
_atom_site_fract_x
_atom_site_fract_y
_atom_site_fract_z
O1	O	1.113891	0.073444	-0.077027
O2	O	0.869263	0.082500	-0.077051
O3	O	0.998975	-0.004933	-0.077019
O4	O	0.984178	0.160877	-0.077059
O5	O	0.998954	-0.004920	0.077204
O6	O	0.869241	0.082513	0.077172
O7	O	1.113869	0.073457	0.077197
Cu8	Cu	0.991553	0.077986	0.091266
Cu9	Cu	0.991579	0.077970	-0.091121
O10	O	0.984157	0.160890	0.077165
C11	C	0.837961	0.082130	0.000058
C12	C	0.744725	0.081003	0.000049
C13	C	0.530363	0.024114	0.000081
C14	C	0.469124	0.050525	-0.075966
C15	C	0.574017	0.078964	0.000061
C16	C	0.469124	0.050551	0.076086
C17	C	0.409121	0.076990	0.000076
C18	C	0.514006	0.105390	-0.076049
C19	C	0.514013	0.105408	0.076072
C20	C	0.452791	0.131859	0.000007
C21	C	0.669009	0.080099	0.000051
C22	C	0.314130	0.075859	0.000079
C23	C	0.998595	-0.026145	0.000096
C24	C	0.997482	-0.089368	0.000104
C25	C	0.990507	-0.481413	-0.084014
C26	C	0.989450	-0.540817	-0.084019
O27	O	0.988884	-0.571541	-0.155515
N28	N	0.988913	-0.570523	0.000047
C29	C	0.989426	-0.540822	0.084124
O30	O	0.988872	-0.571544	0.155628
C31	C	0.990478	-0.481419	0.084128
C32	C	0.991023	-0.451716	0.000057
C33	C	0.991051	-0.451711	-0.168078
C34	C	0.992111	-0.392312	-0.168073
C35	C	0.992626	-0.362615	-0.084002
C36	C	0.992082	-0.392317	0.000062
C37	C	0.990985	-0.451718	0.168204
C38	C	0.992036	-0.392311	0.168201
C39	C	0.992581	-0.362609	0.084130
C40	C	0.993657	-0.303221	0.084139
N41	N	0.994193	-0.273515	0.000073
C42	C	0.993678	-0.303212	-0.083998
C43	C	0.987216	-0.665572	0.084108
C44	C	0.986170	-0.724974	0.084105
C45	C	0.986192	-0.724965	-0.084039
C46	C	0.987244	-0.665562	-0.084034
C47	C	0.987752	-0.635866	0.000042
C48	C	0.995903	-0.178469	-0.083979
C49	C	0.996966	-0.119065	-0.083966
C50	C	0.996940	-0.119079	0.084176
C51	C	0.995882	-0.178478	0.084164
C52	C	0.995360	-0.208172	0.000078
O53	O	0.994220	-0.272458	0.155598
O54	O	0.994221	-0.272482	-0.155490
C55	C	1.145171	0.073826	0.000086
C56	C	1.238407	0.074953	0.000088
C57	C	0.984538	0.182101	0.000048
C58	C	0.985650	0.245324	0.000034
N59	N	0.991542	0.077996	0.219548
N60	N	0.991597	0.077955	-0.219402
C61	C	0.931552	0.118407	0.469187
C62	C	1.007356	0.129464	0.530994
C63	C	0.991562	0.077983	0.408709
C64	C	0.915778	0.066939	0.530996
C65	C	0.991575	0.077971	0.591431
C66	C	1.067404	0.089065	0.469155
C67	C	0.975776	0.026518	0.469152
C68	C	1.051635	0.037553	0.530931
C69	C	0.991553	0.077991	0.303448
C70	C	0.991593	0.077962	0.696689
H71	H	0.449231	0.027347	0.140376
C72	C	0.957753	-0.031462	0.432945
C73	C	0.878282	-0.042794	0.464204
C74	C	0.861635	-0.096196	0.430856
H75	H	0.999759	-0.060312	0.454983
H76	H	0.958348	-0.031144	0.367073
H77	H	0.877693	-0.043117	0.530062
H78	H	0.836259	-0.013958	0.442168
H79	H	0.862231	-0.095878	0.364984
H80	H	0.903646	-0.125042	0.452897
H81	H	0.807710	-0.103890	0.452053
H82	H	0.533934	0.128594	0.140356
C83	C	0.442759	0.019540	-0.161709
C84	C	0.514366	0.000858	-0.214656
C85	C	0.490119	-0.027698	-0.293638
H86	H	0.404895	0.044866	-0.197624
H87	H	0.415611	-0.012493	-0.143451
H88	H	0.541501	0.032887	-0.232915
H89	H	0.552238	-0.024475	-0.178769
H90	H	0.462971	-0.059731	-0.275380
H91	H	0.452255	-0.002369	-0.329545
H92	H	0.538701	-0.040382	-0.329568
H93	H	0.992438	-0.368134	0.236668
C94	C	1.119303	-0.008030	0.567045
C95	C	1.118123	-0.007869	0.664122
C96	C	1.180439	-0.049855	0.697423
H97	H	1.173131	-0.000148	0.545854
H98	H	1.108534	-0.044506	0.544984
H99	H	1.128897	0.028599	0.686174
H100	H	1.064309	-0.015758	0.685337
H101	H	1.169671	-0.086331	0.675362
H102	H	1.234264	-0.041969	0.676226
H103	H	1.179643	-0.049755	0.763293
C104	C	0.997364	-0.086845	-0.175291
C105	C	0.924821	-0.094889	-0.225982
C106	C	0.925145	-0.065219	-0.310112
H107	H	1.046122	-0.100901	-0.209945
H108	H	0.998020	-0.047201	-0.163318
H109	H	0.924173	-0.134525	-0.237958
H110	H	0.876052	-0.080830	-0.191356
H111	H	0.925801	-0.025574	-0.298139
H112	H	0.973906	-0.079277	-0.344757
H113	H	0.875922	-0.070668	-0.344512
H114	H	0.880855	0.152620	0.442076
C115	C	0.995469	-0.210781	-0.175208
C116	C	1.067124	-0.251304	-0.180122
C117	C	1.066750	-0.281083	-0.264144
H118	H	0.995987	-0.184641	-0.225338
H119	H	0.946092	-0.229642	-0.178731
H120	H	1.116488	-0.232444	-0.176608
H121	H	1.066621	-0.277455	-0.130012
H122	H	1.017373	-0.299944	-0.267667
H123	H	1.067266	-0.254939	-0.314267
H124	H	1.115363	-0.308585	-0.267485
C125	C	0.575468	-0.036546	0.000050
C126	C	0.662912	-0.034705	0.000887
C127	C	0.704493	-0.090572	0.000868
H128	H	0.560324	-0.056005	-0.054015
H129	H	0.559511	-0.056230	0.053550
H130	H	0.678863	-0.015030	-0.052607
H131	H	0.678082	-0.015257	0.054948
H132	H	0.688536	-0.110256	0.054368
H133	H	0.689342	-0.110026	-0.053198
H134	H	0.763827	-0.089330	0.001445
C135	C	0.540566	0.136247	-0.161840
C136	C	0.628252	0.136906	-0.160877
C137	C	0.652753	0.165317	-0.239898
H138	H	0.513389	0.174425	-0.162149
H139	H	0.524893	0.116884	-0.215792
H140	H	0.643917	0.156270	-0.106940
H141	H	0.655450	0.098736	-0.160582
H142	H	0.637079	0.145955	-0.293850
H143	H	0.625570	0.203494	-0.240201
H144	H	0.712251	0.165764	-0.239260
H145	H	0.997364	-0.094889	0.152624
H146	H	1.020720	0.172981	0.558157
C147	C	0.830361	0.054521	0.567396
C148	C	0.831731	0.054183	0.664469
C149	C	0.753055	0.042759	0.698028
H150	H	0.818651	0.018240	0.545411
H151	H	0.787769	0.083291	0.546307
H152	H	0.874310	0.025415	0.685549
H153	H	0.843427	0.090460	0.686478
H154	H	0.710464	0.071529	0.676939
H155	H	0.741353	0.006478	0.676037
H156	H	0.753973	0.042533	0.763895
C157	C	0.992646	-0.360166	-0.259449
C158	C	0.991942	-0.398895	-0.333065
C159	C	0.992419	-0.369307	-0.417259
H160	H	1.042031	-0.341332	-0.263081
H161	H	0.944047	-0.332661	-0.262999
H162	H	1.040536	-0.426390	-0.329517
H163	H	0.942561	-0.417731	-0.329464
H164	H	0.943820	-0.341802	-0.420809
H165	H	1.041805	-0.350474	-0.420881
H166	H	0.991934	-0.395579	-0.467218
H167	H	0.990628	-0.475883	-0.236542
H168	H	1.131513	0.098452	0.442106
H169	H	0.987686	-0.641382	-0.152493
C170	C	0.985450	-0.757228	-0.175291
C171	C	0.912558	-0.784908	-0.180213
C172	C	0.911841	-0.814628	-0.264261
H173	H	1.033968	-0.784788	-0.178872
H174	H	0.985876	-0.731046	-0.225390
H175	H	0.912141	-0.811087	-0.130129
H176	H	0.864029	-0.757361	-0.176649
H177	H	0.912267	-0.788447	-0.314359
H178	H	0.960362	-0.842185	-0.267834
H179	H	0.862382	-0.833409	-0.267615
H180	H	0.985740	-0.749154	0.152564
C181	C	0.987608	-0.633287	0.175369
C182	C	0.915928	-0.592786	0.180298
C183	C	0.916253	-0.563043	0.264357
H184	H	1.036951	-0.614407	0.178963
H185	H	0.987094	-0.659468	0.225457
H186	H	0.916450	-0.566609	0.130224
H187	H	0.866573	-0.611651	0.176720
H188	H	0.915739	-0.589224	0.314445
H189	H	0.965599	-0.544166	0.267944
H190	H	0.867615	-0.535563	0.267716
C191	C	0.408085	0.192628	-0.000251
C192	C	0.430833	0.221066	-0.080015
C193	C	0.389657	0.277044	-0.080295
H194	H	0.424102	0.212330	0.053186
H195	H	0.348700	0.191606	0.000213
H196	H	0.490205	0.222092	-0.080470
H197	H	0.414815	0.201382	-0.133465
H198	H	0.330271	0.276021	-0.079831
H199	H	0.405676	0.296740	-0.026854
H200	H	0.405079	0.296344	-0.134417
H201	H	0.990543	-0.475892	0.236664
C202	C	0.995256	-0.210624	0.175537
C203	C	0.995918	-0.171898	0.249162
C204	C	0.995321	-0.201483	0.333349
H205	H	1.043814	-0.238147	0.179170
H206	H	0.945830	-0.229434	0.179074
H207	H	1.045338	-0.153098	0.245626
H208	H	0.947363	-0.144374	0.245559
H209	H	0.945896	-0.220293	0.336886
H210	H	1.043880	-0.229005	0.336972
H211	H	0.995762	-0.175212	0.383313
