data_functionalizedCrystal
_audit_creation_method	'MofGen! by Chris Wilmer'
_symmetry_space_group_name_H-M	'P1'
_symmetry_Int_Tables_number	1
_symmetry_cell_setting	triclinic
loop_
_symmetry_equiv_pos_as_xyz
  x,y,z
_cell_length_a	10.489716
_cell_length_b	15.944499
_cell_length_c	9.565339
_cell_angle_alpha	90.003478
_cell_angle_beta	89.996780
_cell_angle_gamma	84.003373
loop_
_atom_site_label
_atom_site_type_symbol
_atom_site_fract_x
_atom_site_fract_y
_atom_site_fract_z
O1	O	1.692396	0.118405	-0.116238
O2	O	1.321039	0.129551	-0.116242
O3	O	1.516893	0.001761	-0.116242
O4	O	1.496542	0.246195	-0.116238
O5	O	1.516877	0.001769	0.116278
O6	O	1.321023	0.129559	0.116278
O7	O	1.692381	0.118413	0.116282
Zn8	Zn	1.506700	0.123987	0.153198
Zn9	Zn	1.506720	0.123977	-0.153157
O10	O	1.496527	0.246203	0.116283
C11	C	1.273511	0.128717	0.000018
C12	C	1.131915	0.126212	0.000015
C13	C	1.033133	0.204577	0.000014
C14	C	0.956365	0.163171	0.114664
C15	C	0.956387	0.163145	-0.114583
C16	C	1.057012	0.084839	0.114760
C17	C	1.057040	0.084824	-0.114589
C18	C	0.980322	0.043361	0.000089
C19	C	1.516052	-0.029535	0.000015
C20	C	1.513554	-0.122798	0.000004
C21	C	1.627340	-0.413657	0.000013
C22	C	1.568183	-0.352980	0.114662
C23	C	1.504479	-0.458489	0.000020
C24	C	1.568166	-0.352994	-0.114585
C25	C	1.508944	-0.293553	0.000010
C26	C	1.445288	-0.399040	0.114764
C27	C	1.445288	-0.399061	-0.114586
C28	C	1.386042	-0.338402	0.000091
C29	C	1.501910	-0.553504	0.000027
C30	C	1.511504	-0.198539	0.000013
C31	C	1.739909	0.119247	0.000020
C32	C	1.881504	0.121752	0.000013
C33	C	1.497368	0.277499	0.000023
C34	C	1.499866	0.370762	0.000025
N35	N	1.506695	0.123994	0.362277
N36	N	1.506735	0.123963	-0.362237
C37	C	1.416092	0.183073	0.453480
C38	C	1.531350	0.200062	0.546661
C39	C	1.391487	0.107011	0.546652
C40	C	1.622011	0.141022	0.453406
C41	C	1.482072	0.047937	0.453389
C42	C	1.597414	0.064895	0.546528
H43	H	0.912442	0.196238	-0.211497
F44	F	1.636101	-0.326303	0.241344
F45	F	1.636123	-0.326345	-0.241262
F46	F	1.252652	-0.295829	0.000166
F47	F	1.316035	0.248433	0.400073
F48	F	1.558608	0.284114	0.600212
H49	H	1.719478	0.155450	0.412620
H50	H	1.674134	0.014918	0.587126
F51	F	1.760610	-0.456430	0.000154
H52	H	1.461183	-0.016349	0.412388
H53	H	1.393358	-0.419328	0.211792
H54	H	1.294041	0.092660	0.587614
H55	H	1.056838	0.272742	0.000122
H56	H	0.912408	0.196255	0.211591
H57	H	1.393371	-0.419485	-0.211516
H58	H	1.100790	0.051780	0.211784
H59	H	1.101010	0.051765	-0.211522
H60	H	0.956856	-0.024854	0.000154
