data_functionalizedCrystal
_audit_creation_method	'MofGen! by Chris Wilmer'
_symmetry_space_group_name_H-M	'P1'
_symmetry_Int_Tables_number	1
_symmetry_cell_setting	triclinic
loop_
_symmetry_equiv_pos_as_xyz
  x,y,z
_cell_length_a	14.446369
_cell_length_b	14.560438
_cell_length_c	14.560438
_cell_angle_alpha	59.996693
_cell_angle_beta	90.001510
_cell_angle_gamma	59.999926
loop_
_atom_site_label
_atom_site_type_symbol
_atom_site_fract_x
_atom_site_fract_y
_atom_site_fract_z
Zr1	Zr	0.891775	1.005267	-0.120558
O2	O	0.743963	1.196886	-0.267224
O3	O	0.937086	0.813656	-0.075588
O4	O	0.937083	1.005267	-0.267205
O5	O	0.743971	1.005272	0.075533
O6	O	1.089420	1.005259	-0.267200
O7	O	0.743967	1.005275	-0.075608
O8	O	1.089426	0.662501	0.075568
O9	O	0.743965	1.348030	-0.267234
O10	O	1.070100	0.892460	-0.056416
O11	O	0.956415	0.892464	0.056375
O12	O	0.956411	1.118062	-0.169229
O13	O	0.842726	1.118066	-0.056438
Zr14	Zr	1.134741	1.005250	0.120503
Zr15	Zr	1.134735	1.005254	-0.120549
Zr16	Zr	0.891781	1.005263	0.120494
Zr17	Zr	0.891777	1.246324	-0.120574
Zr18	Zr	1.134740	0.764193	0.120518
O19	O	1.089430	1.196861	0.075533
O20	O	1.089421	1.196867	-0.267212
O21	O	0.743972	1.196880	0.075521
O22	O	1.282553	0.813631	0.267169
O23	O	1.282544	0.813637	-0.075576
O24	O	0.937095	0.813650	0.267157
O25	O	1.282546	1.005245	-0.075588
O26	O	1.089434	1.005250	0.267150
O27	O	0.937097	1.005258	0.267144
O28	O	1.282550	1.005243	0.075553
O29	O	0.937085	1.348019	-0.267227
O30	O	1.089431	0.662498	0.267172
O31	O	1.282552	0.662488	0.267179
O32	O	1.282547	0.662491	0.075575
O33	O	0.743969	1.348027	-0.075630
O34	O	0.937090	1.348016	-0.075623
O35	O	1.070106	0.892456	0.169174
O36	O	1.183790	0.892451	0.056383
O37	O	1.070101	1.118053	-0.056430
O38	O	0.956417	1.118058	0.056360
C39	C	1.013256	0.703733	-0.000008
C40	C	1.013255	0.601398	-0.000002
C41	C	0.929327	0.636618	-0.083287
C42	C	0.929332	0.540478	-0.083316
C43	C	1.097198	0.373899	0.083236
C44	C	1.097197	0.470039	0.083260
C45	C	0.709352	1.005275	-0.000039
C46	C	0.606209	1.005281	-0.000042
C47	C	0.387840	1.147553	-0.070835
C48	C	0.495072	1.147649	-0.071233
C49	C	0.602884	0.934607	-0.051928
C50	C	0.495115	0.935510	-0.052448
C51	C	0.496483	0.932577	0.122727
C52	C	0.602452	0.935259	0.122533
C53	C	1.317164	1.005242	-0.000017
C54	C	1.420307	1.005236	-0.000013
C55	C	1.013251	1.005264	-0.301547
C56	C	1.013248	1.005265	-0.403880
C57	C	1.013261	1.306784	-0.000047
C58	C	1.013261	1.409119	-0.000054
C59	C	0.953905	1.123025	-0.510844
C60	C	0.953918	1.123019	-0.606992
C61	C	1.072619	0.887483	-0.489200
C62	C	1.072612	0.887490	-0.393054
C63	C	1.013266	1.005254	0.301492
C64	C	1.013269	1.005252	0.403825
C65	C	1.317162	0.703717	0.000003
C66	C	1.420304	0.601376	0.000013
C67	C	1.013264	0.703728	0.301511
C68	C	1.013266	0.601391	0.403851
C69	C	1.317170	0.703712	0.301522
C70	C	1.420315	0.601369	0.403866
C71	C	0.709347	1.306806	-0.301578
C72	C	0.606202	1.409148	-0.403921
C73	C	0.709355	1.306801	-0.000058
C74	C	0.606212	1.409141	-0.000068
C75	C	1.013253	1.306789	-0.301566
C76	C	1.013251	1.409126	-0.403906
C77	C	1.409419	0.553298	-0.058859
C78	C	1.506335	0.457146	-0.058853
C79	C	1.625021	0.457155	0.058906
C80	C	1.528105	0.553312	0.058893
C81	C	1.072611	0.553307	0.510810
C82	C	1.072599	0.457160	0.606965
C83	C	0.953897	0.457186	0.489188
C84	C	0.953902	0.553338	0.393035
C85	C	1.528114	0.553284	0.393074
C86	C	1.625026	0.457131	0.489240
C87	C	1.506324	0.457153	0.606986
C88	C	1.409415	0.553311	0.510821
H89	H	1.165547	0.441349	0.151083
O90	O	1.136651	0.760456	-0.477521
H91	H	1.102370	0.703976	-0.430818
O92	O	0.492932	1.221105	-0.025144
H93	H	0.569693	1.221246	-0.025380
O94	O	1.741293	0.405308	0.122408
H95	H	1.732578	0.454910	0.163332
H96	H	0.860991	0.569167	-0.151137
H97	H	1.120922	0.418016	0.694053
H98	H	1.497464	0.418010	0.694079
H99	H	1.120944	0.592434	0.519622
H100	H	0.333885	1.203406	-0.036208
H101	H	0.905571	0.592492	0.305938
O102	O	0.838810	0.778298	-0.173098
H103	H	0.780459	0.786632	-0.231025
O104	O	0.315047	1.221178	-0.190061
H105	H	0.301890	1.156850	-0.199096
H106	H	0.905567	0.418047	0.480396
O107	O	1.494599	0.405288	-0.122353
H108	H	1.447559	0.361464	-0.088317
H109	H	1.536995	0.592413	0.305990
O110	O	1.741299	0.405256	0.477605
H111	H	1.732591	0.454824	0.387076
O112	O	0.491836	1.221565	-0.191162
H113	H	0.413591	1.257368	-0.249100
H114	H	1.120942	0.791591	-0.305953
H115	H	1.165539	0.266938	0.151026
H116	H	1.321633	0.592466	0.519616
H117	H	0.444769	0.985737	-0.142767
H118	H	0.681611	0.831392	0.179740
H119	H	0.905596	1.218911	-0.694084
O120	O	0.530404	0.797209	0.011449
H121	H	0.624297	0.729980	0.042575
O122	O	1.293147	0.605160	-0.122378
H123	H	1.301864	0.555581	-0.163325
O124	O	0.706568	0.795956	0.013083
H125	H	0.761702	0.775900	0.083231
O126	O	1.539837	0.605171	0.122401
H127	H	1.631078	0.555580	0.163363
O128	O	0.889880	1.250049	-0.522516
H129	H	0.949783	1.255684	-0.481516
H130	H	0.605017	0.983697	-0.141391
H131	H	0.523923	0.827740	0.175745
H132	H	0.446461	0.978112	0.166072
H133	H	0.601935	0.986789	0.161295
