data_functionalizedCrystal
_audit_creation_method	'MofGen! by Chris Wilmer'
_symmetry_space_group_name_H-M	'P1'
_symmetry_Int_Tables_number	1
_symmetry_cell_setting	triclinic
loop_
_symmetry_equiv_pos_as_xyz
  x,y,z
_cell_length_a	15.995350
_cell_length_b	15.538191
_cell_length_c	14.185569
_cell_angle_alpha	82.124202
_cell_angle_beta	76.847063
_cell_angle_gamma	114.617766
loop_
_atom_site_label
_atom_site_type_symbol
_atom_site_fract_x
_atom_site_fract_y
_atom_site_fract_z
O1	O	-0.246460	-1.228538	-0.083440
O2	O	-0.149782	-0.954280	-0.083436
O3	O	-0.322287	-1.098906	-0.083437
O4	O	-0.073955	-1.083912	-0.083439
O5	O	-0.373243	-1.141630	0.083397
O6	O	-0.200737	-0.997004	0.083399
O7	O	-0.297416	-1.271262	0.083394
Cu8	Cu	-0.253729	-1.138034	0.098629
Cu9	Cu	-0.193468	-1.087508	-0.098671
O10	O	-0.124910	-1.126635	0.083395
C11	C	-0.165144	-0.940547	-0.000018
C12	C	-0.135015	-0.835973	-0.000016
C13	C	-0.378771	-1.119648	-0.000022
C14	C	-0.471155	-1.117788	-0.000028
N15	N	-0.296116	-1.173578	0.237400
C16	C	-0.806875	-1.111115	-0.000024
C17	C	-0.728023	-1.008019	-0.000397
C18	C	-0.632013	-1.009974	-0.000021
C19	C	-0.640320	-1.114425	-0.000026
C20	C	-0.725935	-1.189625	0.095241
C21	C	-0.821808	-1.187058	0.095321
C22	C	-0.764867	-1.140601	-0.094401
C23	C	-0.667530	-1.140254	-0.095660
C24	C	-0.546193	-1.116302	-0.000024
C25	C	-0.901005	-1.109243	-0.000019
C26	C	-0.068426	-1.105893	-0.000022
C27	C	0.023960	-1.107752	-0.000023
C28	C	-0.282052	-1.284995	-0.000026
C29	C	-0.312180	-1.389566	-0.000034
C30	C	-0.434345	-0.548179	-0.000030
C31	C	-0.406012	-0.449913	-0.000031
C32	C	-0.246646	-0.427470	-0.000032
C33	C	-0.274967	-0.525737	-0.000026
C34	C	-0.368817	-0.586085	-0.000026
C35	C	-0.209439	-0.563643	-0.000022
C36	C	-0.237757	-0.661900	-0.000021
C37	C	-0.331602	-0.722252	-0.000025
C38	C	-0.397135	-0.684342	-0.000026
C39	C	-0.115587	-0.503292	-0.000029
C40	C	-0.050060	-0.541197	-0.000025
C41	C	-0.078379	-0.639458	-0.000017
C42	C	-0.172225	-0.699811	-0.000021
C43	C	-0.012847	-0.677369	-0.000016
C44	C	-0.041165	-0.775626	-0.000016
C45	C	-0.200542	-0.798068	-0.000020
N46	N	-0.151090	-1.051971	-0.237442
C47	C	-0.026594	-0.947543	0.605052
C48	C	-0.058698	-0.974474	0.710074
C49	C	-0.211417	-1.102566	0.710033
C50	C	-0.179328	-1.075643	0.605010
C51	C	-0.086915	-0.998131	0.552528
C52	C	-0.239649	-1.126231	0.552485
C53	C	-0.207560	-1.099314	0.447471
C54	C	-0.115150	-1.021807	0.394981
C55	C	-0.054826	-0.971214	0.447514
C56	C	-0.332059	-1.203747	0.604969
C57	C	-0.392380	-1.254336	0.552445
C58	C	-0.360294	-1.227413	0.447428
C59	C	-0.267884	-1.149907	0.394939
C60	C	-0.420618	-1.278007	0.394896
C61	C	-0.388529	-1.251089	0.289882
C62	C	-0.235795	-1.122989	0.289925
H63	H	-0.713177	-0.949356	-0.068715
H64	H	-0.850603	-1.168250	0.166539
O65	O	0.000005	-0.925188	0.760941
C66	C	0.154899	-0.795315	0.749897
C67	C	0.088512	-0.851031	0.692165
H68	H	0.226479	-0.735361	0.694317
H69	H	0.118065	-0.760793	0.799041
H70	H	0.169321	-0.848600	0.799086
H71	H	0.074069	-0.797809	0.642922
H72	H	0.125379	-0.885569	0.643085
H73	H	-0.736212	-1.267269	0.098780
O74	O	-0.145953	-1.047795	0.238977
C75	C	0.026201	-0.984324	0.206897
C76	C	-0.075479	-1.069553	0.264641
H77	H	0.083205	-1.001876	0.227641
H78	H	0.038844	-0.973778	0.122808
H79	H	0.031821	-0.914180	0.227547
H80	H	-0.081172	-1.139746	0.244075
H81	H	-0.088078	-1.080012	0.348716
O82	O	-0.488259	-0.742890	-0.000201
C83	C	-0.606767	-0.769988	-0.086602
C84	C	-0.503548	-0.703609	-0.086536
H85	H	-0.619168	-0.738244	-0.156385
H86	H	-0.615776	-0.846725	-0.086669
H87	H	-0.661802	-0.774104	-0.016749
H88	H	-0.448451	-0.699412	-0.156377
H89	H	-0.494621	-0.626908	-0.086417
H90	H	-0.467622	-1.317449	0.595188
H91	H	-0.459379	-0.419056	-0.000036
H92	H	-0.089023	-0.999895	0.309472
O93	O	-0.510369	-1.353251	0.446039
C94	C	-0.627462	-1.451540	0.607802
C95	C	-0.525805	-1.366292	0.550011
H96	H	-0.639966	-1.462124	0.691874
H97	H	-0.684541	-1.433999	0.587238
H98	H	-0.633111	-1.521659	0.587068
H99	H	-0.520061	-1.296138	0.570714
H100	H	-0.468774	-1.383917	0.570580
H101	H	-0.819511	-1.216377	-0.095045
H102	H	-0.437649	-1.292285	0.247116
H103	H	-0.878358	-1.263785	0.099639
H104	H	-0.510769	-0.597319	-0.000024
H105	H	0.020421	-0.908089	0.404781
H106	H	-0.607467	-1.085062	-0.166136
O107	O	0.078303	-0.618872	0.000110
C108	C	0.196778	-0.591713	0.086562
C109	C	0.093534	-0.658056	0.086535
H110	H	0.209118	-0.623356	0.156440
H111	H	0.251868	-0.587649	0.016791
H112	H	0.205756	-0.514967	0.086505
H113	H	0.084462	-0.734834	0.086627
H114	H	0.038495	-0.662036	0.156300
O115	O	-0.674554	-1.229320	-0.102480
C116	C	-0.593037	-1.329302	-0.116206
C117	C	-0.584961	-1.228392	-0.108484
H118	H	-0.520606	-1.328578	-0.121084
H119	H	-0.651601	-1.388264	-0.047051
H120	H	-0.612874	-1.345749	-0.186278
H121	H	-0.565093	-1.211851	-0.038454
H122	H	-0.526421	-1.169486	-0.177688
O123	O	-0.155470	-0.368716	-0.000162
C124	C	-0.004580	-0.222657	-0.086618
C125	C	-0.107819	-0.289094	-0.086587
H126	H	0.033983	-0.158278	-0.156496
H127	H	-0.008622	-0.193894	-0.016846
H128	H	0.037355	-0.266662	-0.086563
H129	H	-0.149813	-0.245155	-0.086678
H130	H	-0.103706	-0.317861	-0.156353
H131	H	-0.570596	-0.952551	-0.068312
O132	O	-0.291756	-0.856781	0.000162
C133	C	-0.442597	-1.002910	0.086567
C134	C	-0.339337	-0.936495	0.086498
H135	H	-0.481089	-1.067385	0.156352
H136	H	-0.484638	-0.959005	0.086635
H137	H	-0.438482	-1.031542	0.016715
H138	H	-0.343362	-0.907847	0.156338
H139	H	-0.297336	-0.980443	0.086378
H140	H	-0.092533	-0.423285	-0.000032
O141	O	-0.358963	-0.817651	-0.000158
C142	C	-0.329526	-0.930369	-0.086620
C143	C	-0.298423	-0.822293	-0.086582
H144	H	-0.280608	-0.934157	-0.156496
H145	H	-0.323180	-0.969988	-0.016847
H146	H	-0.407872	-0.966977	-0.086572
H147	H	-0.220073	-0.785600	-0.086665
H148	H	-0.304839	-0.782746	-0.156348
O149	O	-0.750988	-1.078496	-0.180572
C150	C	-0.791421	-1.061458	-0.333318
C151	C	-0.807247	-1.131907	-0.235764
H152	H	-0.836881	-1.104616	-0.377978
H153	H	-0.814082	-1.003788	-0.314276
H154	H	-0.711516	-1.023817	-0.379954
H155	H	-0.887137	-1.169618	-0.189081
H156	H	-0.784522	-1.189516	-0.254876
O157	O	0.041051	-0.482451	0.000022
C158	C	0.155330	-0.321120	-0.000034
C159	C	0.052111	-0.387543	-0.000069
H160	H	0.164311	-0.244368	-0.000130
H161	H	0.167755	-0.352717	0.069807
H162	H	0.210365	-0.317090	-0.069833
H163	H	-0.002990	-0.391601	0.069682
H164	H	0.039768	-0.355920	-0.069956
O165	O	-0.301256	-1.177782	0.760912
C166	C	-0.473410	-1.241158	0.793074
C167	C	-0.371721	-1.155923	0.735374
H168	H	-0.530410	-1.223506	0.772464
H169	H	-0.479162	-1.311328	0.772393
H170	H	-0.485940	-1.251714	0.877147
H171	H	-0.359124	-1.145277	0.651288
H172	H	-0.366018	-1.085800	0.756139
H173	H	0.048654	-0.884419	0.562320
H174	H	-0.358180	-1.225663	0.690479
H175	H	-0.708484	-1.172495	0.166140
H176	H	0.012192	-0.806491	-0.000004
H177	H	-0.755912	-0.984432	0.067543
H178	H	-0.612824	-0.987290	0.068389
