data_functionalizedCrystal
_audit_creation_method	'MofGen! by Chris Wilmer'
_symmetry_space_group_name_H-M	'P1'
_symmetry_Int_Tables_number	1
_symmetry_cell_setting	triclinic
loop_
_symmetry_equiv_pos_as_xyz
  x,y,z
_cell_length_a	12.837943
_cell_length_b	16.109301
_cell_length_c	14.586319
_cell_angle_alpha	90.005214
_cell_angle_beta	89.997399
_cell_angle_gamma	90.854790
loop_
_atom_site_label
_atom_site_type_symbol
_atom_site_fract_x
_atom_site_fract_y
_atom_site_fract_z
O1	O	1.375379	-0.216129	-0.076235
O2	O	1.708713	0.117204	0.257099
O3	O	2.042046	0.450537	0.590432
O4	O	1.073577	-0.205453	-0.076239
O5	O	1.406911	0.127881	0.257095
O6	O	1.740244	0.461214	0.590428
O7	O	1.232769	-0.090419	-0.076227
O8	O	1.566103	0.242915	0.257106
O9	O	1.899436	0.576248	0.590440
O10	O	1.216188	-0.331163	-0.076246
O11	O	1.549521	0.002170	0.257087
O12	O	1.882854	0.335503	0.590421
O13	O	1.232758	-0.090416	0.076254
O14	O	1.566091	0.242917	0.409587
O15	O	1.899425	0.576251	0.742920
O16	O	1.073566	-0.205450	0.076242
O17	O	1.406900	0.127883	0.409575
O18	O	1.740233	0.461217	0.742909
O19	O	1.375368	-0.216126	0.076246
O20	O	1.708702	0.117207	0.409580
O21	O	2.042035	0.450540	0.742913
Cu22	Cu	1.224466	-0.210788	0.090167
Cu23	Cu	1.557800	0.122545	0.423500
Cu24	Cu	1.891133	0.455879	0.756834
Cu25	Cu	1.224479	-0.210791	-0.090159
Cu26	Cu	1.557813	0.122542	0.243174
Cu27	Cu	1.891146	0.455875	0.576507
O28	O	1.216177	-0.331161	0.076235
O29	O	1.549510	0.002173	0.409568
O30	O	1.882843	0.335506	0.742901
C31	C	1.034953	-0.201845	0.000001
C32	C	1.368286	0.131489	0.333335
C33	C	1.701619	0.464822	0.666668
C34	C	0.919879	-0.191088	0.000000
C35	C	1.253212	0.142246	0.333333
C36	C	1.586546	0.475579	0.666667
C37	C	1.413993	-0.219735	0.000004
C38	C	1.747327	0.113599	0.333338
C39	C	2.080660	0.446932	0.666671
C40	C	1.529067	-0.230491	-0.000000
C41	C	1.862400	0.102842	0.333333
C42	C	2.195733	0.436175	0.666666
C43	C	1.232092	-0.059389	0.000014
C44	C	1.565425	0.273944	0.333347
C45	C	1.898759	0.607278	0.666680
C46	C	1.230078	0.033066	0.000015
C47	C	1.563412	0.366400	0.333348
C48	C	1.896745	0.699733	0.666682
C49	C	1.770069	-0.101174	0.000019
C50	C	2.103402	0.232159	0.333353
C51	C	2.436735	0.565492	0.666686
C52	C	1.878191	-0.111278	0.000015
C53	C	2.211525	0.222056	0.333348
C54	C	2.544858	0.555389	0.666681
C55	C	1.853436	-0.260800	-0.000007
C56	C	2.186769	0.072533	0.333326
C57	C	2.520103	0.405867	0.666659
C58	C	1.745314	-0.250697	-0.000003
C59	C	2.078647	0.082636	0.333330
C60	C	2.411980	0.415970	0.666664
C61	C	1.703634	-0.170882	0.000009
C62	C	2.036968	0.162452	0.333342
C63	C	2.370301	0.495785	0.666676
C64	C	1.595510	-0.160779	0.000007
C65	C	1.928843	0.172554	0.333340
C66	C	2.262176	0.505888	0.666674
C67	C	1.570757	-0.310301	-0.000009
C68	C	1.904090	0.023032	0.333325
C69	C	2.237423	0.356366	0.666658
C70	C	1.678879	-0.320404	-0.000013
C71	C	2.012212	0.012929	0.333320
C72	C	2.345546	0.346263	0.666654
C73	C	1.216854	-0.362190	-0.000008
C74	C	1.550187	-0.028857	0.333325
C75	C	1.883520	0.304476	0.666659
C76	C	1.218868	-0.454645	-0.000015
C77	C	1.552201	-0.121312	0.333318
C78	C	1.885534	0.212021	0.666651
N79	N	1.224465	-0.210786	0.216999
N80	N	1.557798	0.122548	0.550332
N81	N	1.891131	0.455881	0.883665
C82	C	1.319857	0.248206	0.000002
C83	C	1.653191	0.581540	0.333335
C84	C	1.986524	0.914873	0.666668
C85	C	1.317957	0.335078	-0.000006
C86	C	1.651290	0.668411	0.333327
C87	C	1.984624	1.001744	0.666661
C88	C	1.129081	0.330208	-0.000005
C89	C	1.462415	0.663541	0.333328
C90	C	1.795748	0.996875	0.666662
C91	C	1.130983	0.243338	-0.000004
C92	C	1.464316	0.576672	0.333329
C93	C	1.797649	0.910005	0.666663
C94	C	1.226374	0.202340	0.000004
C95	C	1.559707	0.535673	0.333337
C96	C	1.893040	0.869007	0.666671
C97	C	1.222572	0.376081	-0.000004
C98	C	1.555906	0.709414	0.333329
C99	C	1.889239	1.042748	0.666662
C100	C	1.220511	0.470271	-0.000013
C101	C	1.553845	0.803604	0.333321
C102	C	1.887178	1.136937	0.666654
C103	C	1.228435	0.108144	0.000011
C104	C	1.561768	0.441477	0.333344
C105	C	1.895102	0.774811	0.666677
N106	N	1.224489	-0.210787	-0.216991
N107	N	1.557823	0.122546	0.116342
N108	N	1.891156	0.455879	0.449676
C109	C	1.294978	-0.159869	0.452010
C110	C	1.628311	0.173464	0.785344
C111	C	1.961645	0.506797	1.118677
C112	C	1.294981	-0.159868	0.547991
C113	C	1.628314	0.173466	0.881325
C114	C	1.961648	0.506799	1.214658
C115	C	1.153968	-0.261706	0.547991
C116	C	1.487302	0.071627	0.881324
C117	C	1.820635	0.404961	1.214657
C118	C	1.153961	-0.261703	0.452011
C119	C	1.487295	0.071631	0.785345
C120	C	1.820628	0.404964	1.118678
C121	C	1.224472	-0.210786	0.404023
C122	C	1.557805	0.122547	0.737357
C123	C	1.891139	0.455881	1.070690
C124	C	1.224482	-0.210787	0.595984
C125	C	1.557815	0.122546	0.929318
C126	C	1.891149	0.455879	1.262651
C127	C	1.224485	-0.210786	0.700051
C128	C	1.557818	0.122548	1.033385
C129	C	1.891151	0.455881	1.366718
C130	C	1.224468	-0.210786	0.299950
C131	C	1.557802	0.122547	0.633283
C132	C	1.891135	0.455881	0.966616
H133	H	1.736133	-0.036186	0.000020
H134	H	2.069466	0.297148	0.333353
H135	H	2.402800	0.630481	0.666686
H136	H	1.352391	-0.118409	0.412941
H137	H	1.685724	0.214925	0.746274
H138	H	2.019058	0.548258	1.079607
C139	C	1.372542	-0.103863	0.600773
C140	C	1.705875	0.229470	0.934106
C141	C	2.039209	0.562804	1.267440
H142	H	1.414536	-0.073545	0.558444
H143	H	1.747870	0.259788	0.891777
H144	H	2.081203	0.593121	1.225111
H145	H	1.335274	-0.066282	0.638223
H146	H	1.668608	0.267051	0.971556
H147	H	2.001941	0.600384	1.304890
H148	H	1.415684	-0.137216	0.638205
H149	H	1.749017	0.196118	0.971539
H150	H	2.082350	0.529451	1.304872
C151	C	1.420789	0.385528	-0.000003
C152	C	1.754122	0.718861	0.333331
C153	C	2.087456	1.052194	0.666664
H154	H	1.477868	0.348666	0.000009
H155	H	1.811202	0.681999	0.333342
H156	H	2.144535	1.015333	0.666676
H157	H	1.423981	0.419512	-0.053177
H158	H	1.757315	0.752845	0.280157
H159	H	2.090648	1.086178	0.613490
H160	H	1.423967	0.419521	0.053177
H161	H	1.757301	0.752854	0.386510
H162	H	2.090634	1.086188	0.719844
C163	C	1.076423	-0.317718	0.600780
C164	C	1.409756	0.015615	0.934113
C165	C	1.743089	0.348949	1.267447
H166	H	1.086531	-0.310435	0.664815
H167	H	1.419865	0.022898	0.998149
H168	H	1.753198	0.356231	1.331482
H169	H	1.007245	-0.303181	0.585062
H170	H	1.340578	0.030152	0.918395
H171	H	1.673911	0.363486	1.251729
H172	H	1.087669	-0.374104	0.585038
H173	H	1.421002	-0.040770	0.918372
H174	H	1.754336	0.292563	1.251705
C175	C	1.024160	0.375309	-0.000001
C176	C	1.357494	0.708643	0.333333
C177	C	1.690827	1.041976	0.666666
H178	H	1.036415	0.433615	0.000009
H179	H	1.369748	0.766949	0.333342
H180	H	1.703082	1.100282	0.666675
H181	H	0.985666	0.360070	-0.053172
H182	H	1.319000	0.693403	0.280162
H183	H	1.652333	1.026736	0.613495
H184	H	0.985674	0.360074	0.053182
H185	H	1.319007	0.693408	0.386515
H186	H	1.652341	1.026741	0.719849
C187	C	1.028146	0.192882	0.000002
C188	C	1.361479	0.526215	0.333335
C189	C	1.694812	0.859548	0.666668
H190	H	0.971062	0.229739	0.000010
H191	H	1.304396	0.563072	0.333343
H192	H	1.637729	0.896406	0.666677
H193	H	1.024965	0.158887	-0.053171
H194	H	1.358298	0.492220	0.280162
H195	H	1.691631	0.825554	0.613496
H196	H	1.024964	0.158899	0.053183
H197	H	1.358297	0.492232	0.386516
H198	H	1.691631	0.825565	0.719849
C199	C	1.076403	-0.317716	0.399222
C200	C	1.409736	0.015617	0.732555
C201	C	1.743070	0.348951	1.065889
H202	H	1.034421	-0.348049	0.441547
H203	H	1.367754	-0.014716	0.774880
H204	H	1.701087	0.318617	1.108213
H205	H	1.033265	-0.284370	0.361788
H206	H	1.366598	0.048964	0.695122
H207	H	1.699931	0.382297	1.028455
H208	H	1.113684	-0.355296	0.361773
H209	H	1.447017	-0.021962	0.695106
H210	H	1.780351	0.311371	1.028440
H211	H	1.561577	-0.095790	0.000013
H212	H	1.894910	0.237544	0.333346
H213	H	2.228243	0.570877	0.666680
C214	C	1.724733	-0.408193	-0.000031
C215	C	2.058066	-0.074860	0.333302
C216	C	2.391400	0.258473	0.666636
H217	H	1.798642	-0.404228	-0.000038
H218	H	2.131975	-0.070895	0.333295
H219	H	2.465309	0.262438	0.666628
H220	H	1.701926	-0.437263	0.053135
H221	H	2.035259	-0.103930	0.386468
H222	H	2.368592	0.229404	0.719801
H223	H	1.701930	-0.437247	-0.053219
H224	H	2.035263	-0.103913	0.280114
H225	H	2.368597	0.229420	0.613448
C226	C	1.951266	-0.034600	0.000017
C227	C	2.284599	0.298733	0.333351
C228	C	2.617933	0.632067	0.666684
H229	H	1.910954	0.014379	0.000017
H230	H	2.244287	0.347712	0.333351
H231	H	2.577620	0.681046	0.666684
H232	H	1.993963	-0.035432	0.053187
H233	H	2.327296	0.297902	0.386520
H234	H	2.660630	0.631235	0.719853
H235	H	1.993954	-0.035434	-0.053167
H236	H	2.327288	0.297899	0.280166
H237	H	2.660621	0.631233	0.613500
C238	C	1.899297	-0.348587	-0.000013
C239	C	2.232630	-0.015254	0.333320
C240	C	2.565964	0.318080	0.666654
H241	H	1.973205	-0.344617	-0.000016
H242	H	2.306539	-0.011283	0.333317
H243	H	2.639872	0.322050	0.666651
H244	H	1.876488	-0.377651	0.053156
H245	H	2.209822	-0.044317	0.386489
H246	H	2.543155	0.289016	0.719823
H247	H	1.876501	-0.377649	-0.053197
H248	H	2.209835	-0.044316	0.280136
H249	H	2.543168	0.289017	0.613469
C250	C	1.497676	-0.386982	-0.000022
C251	C	1.831010	-0.053649	0.333311
C252	C	2.164343	0.279685	0.666645
H253	H	1.427312	-0.369536	-0.000015
H254	H	1.760646	-0.036203	0.333319
H255	H	2.093979	0.297131	0.666652
H256	H	1.510317	-0.419352	-0.053201
H257	H	1.843650	-0.086018	0.280132
H258	H	2.176983	0.247315	0.613466
H259	H	1.510305	-0.419358	0.053153
H260	H	1.843638	-0.086025	0.386486
H261	H	2.176972	0.247309	0.719819
H262	H	1.397531	0.214828	0.000006
H263	H	1.730864	0.548161	0.333340
H264	H	2.064197	0.881495	0.666673
