data_functionalizedCrystal
_audit_creation_method	'MofGen! by Chris Wilmer'
_symmetry_space_group_name_H-M	'P1'
_symmetry_Int_Tables_number	1
_symmetry_cell_setting	triclinic
loop_
_symmetry_equiv_pos_as_xyz
  x,y,z
_cell_length_a	12.759399
_cell_length_b	12.759401
_cell_length_c	12.759393
_cell_angle_alpha	90.018496
_cell_angle_beta	89.968020
_cell_angle_gamma	89.984723
loop_
_atom_site_label
_atom_site_type_symbol
_atom_site_fract_x
_atom_site_fract_y
_atom_site_fract_z
Zn1	Zn	-0.418200	-1.606252	-0.593978
Zn2	Zn	-0.593919	-1.606145	-0.418297
Zn3	Zn	-0.418255	-1.430554	-0.418318
Zn4	Zn	-0.593838	-1.430542	-0.593939
O5	O	-0.506053	-1.518373	-0.506133
O6	O	-0.441520	-1.753259	-0.570682
O7	O	-0.570673	-1.582813	-0.271279
O8	O	-0.271227	-1.453911	-0.441645
O9	O	-0.570620	-1.753181	-0.441610
O10	O	-0.271186	-1.582996	-0.570702
O11	O	-0.441614	-1.453807	-0.271294
O12	O	-0.441535	-1.283532	-0.441606
O13	O	-0.570482	-1.453890	-0.740965
O14	O	-0.570536	-1.283522	-0.570634
O15	O	-0.441442	-1.582983	-0.740994
O16	O	-0.740929	-1.582801	-0.441571
O17	O	-0.740870	-1.453786	-0.570614
C18	C	-0.506033	-1.245406	-0.506119
C19	C	-0.506050	-1.128629	-0.506138
C20	C	-0.779020	-1.518309	-0.506109
C21	C	-0.895797	-1.518378	-0.506134
C22	C	-0.505947	-1.518447	-0.780166
C23	C	-0.505902	-1.518478	-0.896943
C24	C	-0.950655	-1.585633	-0.439018
C25	C	-1.060379	-1.585700	-0.439053
C26	C	-1.060377	-1.451249	-0.573324
C27	C	-0.950655	-1.451187	-0.573293
C28	C	-1.210258	-1.709709	-0.401662
C29	C	-1.265120	-1.776955	-0.334530
C30	C	-1.229581	-1.793120	-0.232019
C31	C	-1.139183	-1.742023	-0.196620
C32	C	-1.084327	-1.674770	-0.263747
C33	C	-1.119864	-1.658625	-0.366273
C34	C	-0.800774	-1.327177	-0.610673
C35	C	-0.745916	-1.259917	-0.677795
C36	C	-0.781452	-1.243742	-0.780308
C37	C	-0.871854	-1.294820	-0.815703
C38	C	-0.926712	-1.362079	-0.748580
C39	C	-0.891168	-1.378256	-0.646069
C40	C	-0.232019	-1.518467	-0.506180
C41	C	-0.115243	-1.518506	-0.506200
C42	C	-0.506073	-1.792407	-0.506148
C43	C	-0.506082	-1.909183	-0.506154
C44	C	-0.573328	-1.073790	-0.573211
C45	C	-0.573342	-0.964066	-0.573223
C46	C	-0.438796	-0.964030	-0.439078
C47	C	-0.438778	-1.073752	-0.439072
C48	C	-0.651010	-1.073810	-0.650656
C49	C	-0.651024	-0.964086	-0.650667
C50	C	-0.438704	-1.585707	-0.951822
C51	C	-0.438666	-1.585732	-1.061546
C52	C	-0.573033	-1.451297	-1.061503
C53	C	-0.573064	-1.451267	-0.951781
C54	C	-0.361131	-1.663325	-0.951848
C55	C	-0.361093	-1.663350	-1.061572
C56	C	-0.506083	-1.518361	-0.233166
C57	C	-0.505832	-1.518533	-0.116389
H58	H	-1.010725	-1.633170	-0.234927
H59	H	-0.621980	-0.930088	-0.728019
O60	O	-1.119554	-1.378765	-0.645735
H61	H	-1.169474	-1.425779	-0.699235
H62	H	-0.383987	-1.118398	-0.384461
H63	H	-1.000319	-1.403674	-0.777409
H64	H	-0.382886	-1.744720	-1.091350
O65	O	-0.758768	-0.924601	-0.621599
H66	H	-0.811504	-0.992288	-0.607348
H67	H	-0.627780	-1.396520	-0.907102
O68	O	-0.910210	-1.277384	-0.926266
H69	H	-0.848631	-1.302183	-0.982533
O70	O	-0.891481	-1.658110	-0.366599
H71	H	-0.948065	-1.704896	-0.319944
O72	O	-1.100852	-1.759459	-0.086050
H73	H	-1.162452	-1.734678	-0.029798
H74	H	-0.629311	-1.103618	-0.732063
H75	H	-0.728262	-1.107823	-0.621371
O76	O	-0.645471	-1.378807	-1.120647
H77	H	-0.634163	-1.390122	-1.206164
O78	O	-0.253362	-1.634494	-0.912418
H79	H	-0.200576	-1.620389	-0.980131
O80	O	-0.722287	-1.171197	-0.852711
H81	H	-0.653453	-1.138393	-0.810882
O82	O	-0.399748	-1.765681	-0.906747
H83	H	-0.420192	-1.819972	-0.971570
H84	H	-0.672302	-1.218333	-0.648970
H85	H	-0.384025	-0.919336	-0.384476
H86	H	-0.283784	-1.634237	-1.095621
H87	H	-1.274257	-1.847874	-0.177359
H88	H	-1.338722	-1.818558	-0.363361
H89	H	-1.239195	-1.696564	-0.485138
H90	H	-0.771826	-1.340350	-0.527201
