data_functionalizedCrystal
_audit_creation_method	'MofGen! by Chris Wilmer'
_symmetry_space_group_name_H-M	'P1'
_symmetry_Int_Tables_number	1
_symmetry_cell_setting	triclinic
loop_
_symmetry_equiv_pos_as_xyz
  x,y,z
_cell_length_a	6.394984
_cell_length_b	10.723024
_cell_length_c	9.798715
_cell_angle_alpha	90.003391
_cell_angle_beta	89.998391
_cell_angle_gamma	94.518389
loop_
_atom_site_label
_atom_site_type_symbol
_atom_site_fract_x
_atom_site_fract_y
_atom_site_fract_z
O1	O	0.293022	-1.660294	-0.113477
O2	O	0.321071	-1.297439	-0.113482
O3	O	0.003055	-1.484020	-0.113475
O4	O	0.611038	-1.473712	-0.113484
O5	O	0.003054	-1.484006	0.113507
O6	O	0.321070	-1.297424	0.113501
O7	O	0.293022	-1.660279	0.113505
Zn8	Zn	0.307045	-1.478850	0.149541
Zn9	Zn	0.307047	-1.478868	-0.149518
O10	O	0.611037	-1.473698	0.113499
C11	C	0.319029	-1.250910	0.000009
C12	C	0.312922	-1.112291	0.000007
C13	C	0.925207	-1.481963	0.000020
C14	C	0.688880	-1.475751	0.000017
C15	C	0.295063	-1.706808	0.000011
C16	C	0.301170	-1.845427	0.000004
N17	N	0.307044	-1.478846	0.353641
N18	N	0.307032	-1.478882	-0.353617
C19	C	0.490867	-1.039195	0.000004
C20	C	0.484559	-0.895925	0.000002
C21	C	0.172929	-1.557180	0.421420
C22	C	0.172922	-1.557200	0.578583
H23	H	0.636893	-0.833107	-0.000006
O24	O	0.678015	-1.091266	-0.000052
C25	C	0.854938	-1.281536	0.000047
C26	C	0.642843	-1.222736	0.000075
H27	H	0.826575	-1.387837	0.000179
H28	H	0.947661	-1.250236	-0.094967
H29	H	0.947609	-1.250050	0.095016
H30	H	0.550001	-1.254194	-0.094830
H31	H	0.550279	-1.254032	0.095152
H32	H	0.155908	-1.068805	-0.000026
O33	O	0.443736	-1.398794	0.423358
C34	C	0.486135	-1.229183	0.584823
C35	C	0.331098	-1.319789	0.505982
H36	H	0.395128	-1.165267	0.651622
H37	H	0.590916	-1.284888	0.651804
H38	H	0.587158	-1.170257	0.509323
H39	H	0.229937	-1.378736	0.581384
H40	H	0.226462	-1.264010	0.438981
O41	O	0.119556	-0.920479	-0.000176
C42	C	-0.094375	-1.081422	-0.117810
C43	C	0.111399	-0.996508	-0.117759
H44	H	-0.101058	-1.142895	-0.212881
H45	H	-0.101092	-1.143075	-0.022884
H46	H	-0.233398	-1.021085	-0.117742
H47	H	0.250537	-1.056748	-0.117876
H48	H	0.117932	-0.934848	-0.212677
O49	O	0.035699	-1.637048	0.351885
C50	C	-0.326591	-1.703938	0.307855
C51	C	-0.171432	-1.613391	0.386678
H52	H	-0.494089	-1.684861	0.335977
H53	H	-0.302303	-1.689643	0.193490
H54	H	-0.298224	-1.804415	0.335816
H55	H	-0.199704	-1.512878	0.358831
H56	H	-0.195756	-1.627795	0.501023
O57	O	0.036136	-1.637386	0.648046
C58	C	-0.083996	-1.852290	0.691919
C59	C	0.071074	-1.761619	0.613191
H60	H	-0.055832	-1.952751	0.663746
H61	H	-0.059602	-1.838161	0.806299
H62	H	-0.251475	-1.833067	0.663923
H63	H	0.238615	-1.780786	0.641072
H64	H	0.046498	-1.775767	0.498830
O65	O	0.444317	-1.398994	0.576927
C66	C	0.806655	-1.332129	0.533022
C67	C	0.651413	-1.422693	0.611752
H68	H	0.974124	-1.351240	0.561171
H69	H	0.782441	-1.346370	0.418643
H70	H	0.778305	-1.231659	0.561040
H71	H	0.679668	-1.523198	0.583849
H72	H	0.675663	-1.408344	0.726113
