data_functionalizedCrystal
_audit_creation_method	'MofGen! by Chris Wilmer'
_symmetry_space_group_name_H-M	'P1'
_symmetry_Int_Tables_number	1
_symmetry_cell_setting	triclinic
loop_
_symmetry_equiv_pos_as_xyz
  x,y,z
_cell_length_a	6.817900
_cell_length_b	19.453103
_cell_length_c	19.453114
_cell_angle_alpha	96.316406
_cell_angle_beta	101.709288
_cell_angle_gamma	101.709178
loop_
_atom_site_label
_atom_site_type_symbol
_atom_site_fract_x
_atom_site_fract_y
_atom_site_fract_z
V1	V	-3.997997	-0.097914	-0.219328
O2	O	-3.995098	0.003953	-0.214817
O3	O	-3.941017	-0.193423	-0.218151
O4	O	-3.941018	-0.096738	-0.314837
O5	O	-3.995097	-0.093402	-0.117462
V6	V	-4.483849	-0.085690	-0.207105
O7	O	-4.254148	-0.124727	-0.246141
O8	O	-4.677895	-0.058877	-0.180292
O9	O	-4.317623	0.009819	-0.208282
O10	O	-4.604145	-0.187557	-0.211616
O11	O	-4.604146	-0.090202	-0.308971
O12	O	-4.317621	-0.086866	-0.111596
C13	C	-3.784208	-0.216695	-0.214774
C14	C	-3.818849	-0.294777	-0.214449
C15	C	-4.016582	-0.335044	-0.217808
C16	C	-4.049135	-0.408411	-0.217509
C17	C	-3.883937	-0.441507	-0.213837
C18	C	-3.686178	-0.401231	-0.210481
C19	C	-3.653634	-0.327867	-0.210787
N20	N	-3.779057	-0.547627	-0.170551
N21	N	-3.809984	-0.617320	-0.170259
C22	C	-3.981979	-0.662551	-0.212916
N23	N	-4.121905	-0.635454	-0.255867
N24	N	-4.090980	-0.565754	-0.256156
C25	C	-3.919205	-0.521058	-0.213505
C26	C	-4.215023	-0.782371	-0.215953
C27	C	-4.247572	-0.855741	-0.215658
C28	C	-3.884605	-0.848558	-0.208622
C29	C	-3.852066	-0.775191	-0.208924
C30	C	-4.017281	-0.742102	-0.212586
C31	C	-3.784208	-0.093363	-0.338106
C32	C	-3.818848	-0.093034	-0.416187
C33	C	-4.016587	-0.096405	-0.456456
C34	C	-4.049136	-0.096095	-0.529822
C35	C	-3.883941	-0.092429	-0.562918
C36	C	-3.686172	-0.089054	-0.522640
C37	C	-3.653625	-0.089356	-0.449274
N38	N	-3.820865	-0.129523	-0.681832
N39	N	-3.851796	-0.129237	-0.751526
C40	C	-3.981989	-0.091516	-0.783963
N41	N	-4.080118	-0.054100	-0.744075
N42	N	-4.049192	-0.054389	-0.674375
C43	C	-3.919211	-0.092100	-0.642470
C44	C	-4.215033	-0.094550	-0.903783
C45	C	-4.247572	-0.094236	-0.977150
C46	C	-3.884605	-0.087202	-0.969967
C47	C	-3.852068	-0.087509	-0.896601
C48	C	-4.017291	-0.091187	-0.863515
C49	C	-4.137773	0.033088	-0.211656
C50	C	-4.082370	0.111169	-0.211986
C51	C	-4.137773	-0.090243	-0.088323
C52	C	-4.082372	-0.090569	-0.010241
H53	H	-4.210158	-0.441203	-0.220245
C54	C	-4.462152	-0.097748	-1.020887
C55	C	-4.459872	-0.037027	-1.053531
C56	C	-4.657512	-0.040232	-1.093821
H57	H	-4.503986	-0.138901	-1.056264
H58	H	-4.555934	-0.099945	-0.990690
H59	H	-4.366121	-0.034836	-1.083725
H60	H	-4.418076	0.004136	-1.018170
H61	H	-4.751295	-0.042429	-1.063624
H62	H	-4.699329	-0.081388	-1.129194
H63	H	-4.655996	0.000969	-1.115969
H64	H	-3.750096	-0.084210	-0.996913
H65	H	-4.151127	-0.099397	-0.429521
H66	H	-3.492614	-0.295081	-0.208052
H67	H	-4.408596	-0.888526	-0.218398
H68	H	-4.349566	-0.097542	-0.876842
H69	H	-4.349551	-0.755428	-0.218933
C70	C	-3.705235	-0.884495	-0.204489
C71	C	-3.681689	-0.916720	-0.143358
C72	C	-3.516455	-0.949826	-0.139524
H73	H	-3.731600	-0.919564	-0.245344
H74	H	-3.582737	-0.850016	-0.202489
H75	H	-3.804159	-0.951195	-0.145363
H76	H	-3.655292	-0.881665	-0.102492
H77	H	-3.393957	-0.915347	-0.137524
H78	H	-3.542835	-0.984892	-0.180382
H79	H	-3.500445	-0.971689	-0.098043
H80	H	-3.691053	-0.084771	-0.863815
H81	H	-4.210166	-0.098844	-0.562615
H82	H	-3.691049	-0.742405	-0.206184
H83	H	-3.551669	-0.086066	-0.549591
C84	C	-3.507060	-0.437285	-0.206459
C85	C	-3.577869	-0.510151	-0.206889
C86	C	-3.412915	-0.543383	-0.203179
H87	H	-3.448459	-0.430423	-0.246222
H88	H	-3.405740	-0.417268	-0.163876
H89	H	-3.679153	-0.530161	-0.249468
H90	H	-3.636452	-0.517033	-0.167128
H91	H	-3.311595	-0.523367	-0.160596
H92	H	-3.354325	-0.536516	-0.242943
H93	H	-3.460932	-0.592825	-0.203464
C94	C	-4.195823	-0.299043	-0.221901
C95	C	-4.219299	-0.266790	-0.283016
C96	C	-4.384374	-0.233609	-0.286807
H97	H	-4.318407	-0.333463	-0.223900
H98	H	-4.169266	-0.263980	-0.181017
H99	H	-4.245868	-0.301850	-0.323889
H100	H	-4.096758	-0.232360	-0.281030
H101	H	-4.357818	-0.198546	-0.245923
H102	H	-4.506945	-0.268034	-0.288804
H103	H	-4.400312	-0.211717	-0.328269
H104	H	-3.492597	-0.086606	-0.416487
