data_functionalizedCrystal
_audit_creation_method	'MofGen! by Chris Wilmer'
_symmetry_space_group_name_H-M	'P1'
_symmetry_Int_Tables_number	1
_symmetry_cell_setting	triclinic
loop_
_symmetry_equiv_pos_as_xyz
  x,y,z
_cell_length_a	16.959455
_cell_length_b	16.625546
_cell_length_c	16.959447
_cell_angle_alpha	89.967784
_cell_angle_beta	89.985678
_cell_angle_gamma	90.019415
loop_
_atom_site_label
_atom_site_type_symbol
_atom_site_fract_x
_atom_site_fract_y
_atom_site_fract_z
Zn1	Zn	1.208371	-0.321051	-0.446898
Zn2	Zn	1.208288	-0.455899	-0.314715
Zn3	Zn	1.076199	-0.321077	-0.314736
Zn4	Zn	1.076158	-0.455839	-0.446854
O5	O	1.142254	-0.388466	-0.380801
O6	O	1.318970	-0.338954	-0.429374
O7	O	1.190748	-0.438050	-0.204107
O8	O	1.093784	-0.208241	-0.332295
O9	O	1.318909	-0.438026	-0.332260
O10	O	1.190890	-0.208222	-0.429394
O11	O	1.093703	-0.338997	-0.204122
O12	O	0.965583	-0.338939	-0.332252
O13	O	1.093714	-0.437923	-0.557471
O14	O	0.965553	-0.437947	-0.429318
O15	O	1.190850	-0.338895	-0.557503
O16	O	1.190709	-0.568723	-0.332217
O17	O	1.093634	-0.568679	-0.429298
C18	C	0.936888	-0.388440	-0.380783
C19	C	0.849031	-0.388448	-0.380794
C20	C	0.477547	-0.336870	-0.330364
C21	C	0.477564	-0.440129	-0.431283
C22	C	0.560110	-0.440117	-0.431278
C23	C	0.601378	-0.388482	-0.380815
C24	C	0.560100	-0.336859	-0.330356
C25	C	0.601394	-0.491746	-0.481731
C26	C	0.683945	-0.491737	-0.481727
C27	C	0.725215	-0.440097	-0.431267
C28	C	0.683932	-0.388471	-0.380807
C29	C	0.725200	-0.336836	-0.330343
C30	C	0.683918	-0.285205	-0.279886
C31	C	0.601370	-0.285219	-0.279895
C32	C	0.807763	-0.440083	-0.431257
C33	C	0.807753	-0.336824	-0.330335
C34	C	1.142179	-0.597957	-0.380768
C35	C	1.142219	-0.687578	-0.380780
C36	C	1.142357	-1.015754	-0.380862
C37	C	1.142316	-0.924445	-0.380842
C38	C	1.142288	-0.851669	-0.380821
C39	C	1.142248	-0.760355	-0.380801
C40	C	1.348422	-0.388494	-0.380819
C41	C	1.436279	-0.388505	-0.380827
C42	C	1.142287	-0.388400	-0.586969
C43	C	1.142301	-0.388371	-0.674826
C44	C	1.142351	-0.178157	-0.380851
C45	C	1.142392	-0.088536	-0.380873
C46	C	1.091821	-0.439845	-1.046287
C47	C	1.192969	-0.336727	-1.046316
C48	C	1.192948	-0.336744	-0.963770
C49	C	1.142364	-0.388313	-0.922479
C50	C	1.091800	-0.439866	-0.963734
C51	C	1.243517	-0.285199	-0.922509
C52	C	1.243498	-0.285214	-0.839958
C53	C	1.192909	-0.336780	-0.798666
C54	C	1.142343	-0.388334	-0.839925
C55	C	1.091758	-0.439903	-0.798634
C56	C	1.041187	-0.491453	-0.839892
C57	C	1.041211	-0.491431	-0.922441
C58	C	1.192886	-0.336802	-0.716117
C59	C	1.091737	-0.439923	-0.716080
C60	C	1.142267	-0.388475	-0.175435
C61	C	1.142406	-0.388276	-0.087578
H62	H	0.841371	-0.482122	-0.472336
Cl63	Cl	0.425684	-0.505055	-0.494703
Cl64	Cl	0.549469	-0.220319	-0.216469
Cl65	Cl	0.549511	-0.556679	-0.545141
H66	H	1.284705	-0.243219	-0.956135
H67	H	1.000005	-0.533444	-0.806262
Cl68	Cl	1.028247	-0.504645	-1.098152
Cl69	Cl	1.256564	-0.271907	-1.098226
H70	H	1.284676	-0.243239	-0.806373
Cl71	Cl	0.735834	-0.556640	-0.545160
H72	H	0.717529	-0.243167	-0.238795
H73	H	1.234062	-0.294833	-0.682528
H74	H	0.841348	-0.294771	-0.289245
Cl75	Cl	0.425653	-0.271962	-0.266940
H76	H	1.000041	-0.533403	-0.956041
Cl77	Cl	1.028137	-0.504753	-0.664178
