data_functionalizedCrystal
_audit_creation_method	'MofGen! by Chris Wilmer'
_symmetry_space_group_name_H-M	'P1'
_symmetry_Int_Tables_number	1
_symmetry_cell_setting	triclinic
loop_
_symmetry_equiv_pos_as_xyz
  x,y,z
_cell_length_a	14.519709
_cell_length_b	15.995292
_cell_length_c	12.996460
_cell_angle_alpha	89.997047
_cell_angle_beta	90.000034
_cell_angle_gamma	83.574380
loop_
_atom_site_label
_atom_site_type_symbol
_atom_site_fract_x
_atom_site_fract_y
_atom_site_fract_z
O1	O	1.223644	0.109763	-0.085425
O2	O	0.955141	0.122689	-0.085456
O3	O	1.096760	-0.005654	-0.085441
O4	O	1.082025	0.238106	-0.085440
O5	O	1.096745	-0.005661	0.085692
O6	O	0.955126	0.122682	0.085678
O7	O	1.223629	0.109756	0.085708
Cu8	Cu	1.089376	0.116218	0.101319
Cu9	Cu	1.089394	0.116227	-0.101067
O10	O	1.082010	0.238099	0.085694
C11	C	0.920775	0.122083	0.000107
C12	C	0.818397	0.120278	0.000095
C13	C	0.443515	0.113632	0.000142
C14	C	0.547819	0.115478	0.000128
C15	C	0.630953	0.116955	0.000117
C16	C	0.735264	0.118801	0.000106
C17	C	1.096153	-0.036854	0.000123
C18	C	1.094355	-0.129810	0.000115
C19	C	1.087745	-0.467558	0.000124
C20	C	1.189962	-0.444093	0.000518
C21	C	1.191905	-0.347414	0.000128
C22	C	1.091025	-0.299997	0.000120
C23	C	1.039930	-0.329171	-0.097609
C24	C	1.038699	-0.425963	-0.097687
C25	C	1.036595	-0.425831	0.096924
C26	C	1.040383	-0.329333	0.098212
C27	C	1.092873	-0.205298	0.000114
C28	C	1.085894	-0.562257	0.000122
C29	C	1.257995	0.110362	0.000143
C30	C	1.360373	0.112167	0.000149
C31	C	1.082617	0.269299	0.000127
C32	C	1.084415	0.362254	0.000129
N33	N	1.089371	0.116212	0.243666
N34	N	1.089407	0.116226	-0.243414
C35	C	1.089393	0.116227	0.663480
C36	C	1.089384	0.116226	0.546675
C37	C	1.089382	0.116220	0.453577
C38	C	1.089373	0.116217	0.336764
H39	H	1.231922	-0.328332	0.070183
H40	H	1.229149	-0.473049	-0.069166
O41	O	0.941599	-0.287103	-0.102433
H42	H	0.892820	-0.335798	-0.101362
H43	H	1.232170	-0.328946	-0.070041
O44	O	0.936936	-0.444522	0.097795
H45	H	0.890422	-0.384564	0.095273
O46	O	1.078999	-0.463196	0.195047
H47	H	1.105505	-0.412863	0.241614
H48	H	1.077588	-0.310715	0.170511
H49	H	1.074098	-0.452723	-0.170734
H50	H	1.229355	-0.472034	0.070603
O51	O	0.939433	-0.445402	-0.103584
H52	H	0.907204	-0.418262	-0.175355
O53	O	1.087171	-0.302839	-0.193945
H54	H	1.147002	-0.268944	-0.172467
H55	H	0.966750	-0.296474	0.104108
