data_functionalizedCrystal
_audit_creation_method	'MofGen! by Chris Wilmer'
_symmetry_space_group_name_H-M	'P1'
_symmetry_Int_Tables_number	1
_symmetry_cell_setting	triclinic
loop_
_symmetry_equiv_pos_as_xyz
  x,y,z
_cell_length_a	10.654546
_cell_length_b	10.654550
_cell_length_c	9.130313
_cell_angle_alpha	89.999890
_cell_angle_beta	89.998822
_cell_angle_gamma	84.484193
loop_
_atom_site_label
_atom_site_type_symbol
_atom_site_fract_x
_atom_site_fract_y
_atom_site_fract_z
O1	O	1.667837	0.176372	-0.121827
O2	O	1.302358	0.193183	-0.121823
O3	O	1.493500	0.002038	-0.121820
O4	O	1.476694	0.367517	-0.121831
O5	O	1.493498	0.002043	0.121779
O6	O	1.302355	0.193188	0.121776
O7	O	1.667834	0.176377	0.121771
Cu8	Cu	1.485094	0.184783	0.144016
Cu9	Cu	1.485097	0.184777	-0.144068
O10	O	1.476692	0.367522	0.121768
C11	C	1.255558	0.191952	-0.000023
C12	C	1.116115	0.188262	-0.000021
C13	C	1.050621	0.186513	-0.132814
C14	C	0.919601	0.183036	-0.132825
C15	C	0.919579	0.183051	0.132759
C16	C	1.050596	0.186538	0.132770
C17	C	1.116140	0.188237	-0.265605
C18	C	1.050646	0.186487	-0.398408
C19	C	0.919626	0.183009	-0.398419
C20	C	0.854098	0.181283	-0.265628
C21	C	1.492265	-0.044757	-0.000022
C22	C	1.488573	-0.184200	-0.000027
C23	C	1.601115	-0.263687	-0.000024
C24	C	1.597638	-0.394708	-0.000034
C25	C	1.369068	-0.366742	-0.000045
C26	C	1.372546	-0.235724	-0.000045
C27	C	1.717142	-0.212164	-0.000007
C28	C	1.829693	-0.291652	-0.000002
C29	C	1.826216	-0.422673	-0.000012
C30	C	1.710188	-0.474206	-0.000027
C31	C	1.714633	0.177608	-0.000032
C32	C	1.854077	0.181298	-0.000043
C33	C	1.477927	0.414317	-0.000033
C34	C	1.481619	0.553761	-0.000037
N35	N	1.485102	0.184787	0.346639
N36	N	1.485100	0.184764	-0.346690
C37	C	1.569762	0.100177	0.423292
C38	C	1.569758	0.100162	0.576629
C39	C	1.400431	0.269378	0.576646
C40	C	1.400429	0.269386	0.423312
C41	C	1.667525	0.002485	0.423284
C42	C	1.667522	0.002470	0.576621
H43	H	0.866303	0.181597	-0.506554
Cl44	Cl	1.808296	0.049725	0.349842
H45	H	1.917860	-0.487390	-0.000023
H46	H	1.646082	-0.094047	0.381667
H47	H	1.637009	-0.088752	0.624171
H48	H	1.707367	-0.580893	-0.000051
Cl49	Cl	1.816525	0.035680	0.640882
H50	H	1.222824	0.191066	-0.265610
Cl51	Cl	1.133019	0.188671	-0.565335
H52	H	1.331482	0.338270	0.360902
H53	H	1.280905	-0.171003	-0.000045
Cl54	Cl	1.223216	-0.431528	-0.000059
H55	H	0.747411	0.178465	-0.265648
H56	H	0.866217	0.181644	0.240872
Cl57	Cl	1.975547	-0.226870	-0.000003
H58	H	1.103922	0.187969	0.240901
H59	H	1.719985	-0.105482	0.000006
Cl60	Cl	1.293991	0.375724	0.673043
