data_functionalizedCrystal
_audit_creation_method	'MofGen! by Chris Wilmer'
_symmetry_space_group_name_H-M	'P1'
_symmetry_Int_Tables_number	1
_symmetry_cell_setting	triclinic
loop_
_symmetry_equiv_pos_as_xyz
  x,y,z
_cell_length_a	18.050591
_cell_length_b	18.050588
_cell_length_c	18.050582
_cell_angle_alpha	89.978848
_cell_angle_beta	89.979078
_cell_angle_gamma	90.025567
loop_
_atom_site_label
_atom_site_type_symbol
_atom_site_fract_x
_atom_site_fract_y
_atom_site_fract_z
Zn1	Zn	1.135286	-0.295786	-0.420039
Zn2	Zn	1.635286	0.204214	0.079961
Zn3	Zn	1.135193	-0.419969	-0.295852
Zn4	Zn	1.635193	0.080031	0.204148
Zn5	Zn	1.011105	-0.295789	-0.295850
Zn6	Zn	1.511105	0.204211	0.204150
Zn7	Zn	1.011050	-0.419930	-0.419987
Zn8	Zn	1.511050	0.080070	0.080013
O9	O	1.073158	-0.357868	-0.357932
O10	O	1.573158	0.142132	0.142068
O11	O	1.239198	-0.312274	-0.403587
O12	O	1.739198	0.187726	0.096413
O13	O	1.118717	-0.403514	-0.191927
O14	O	1.618717	0.096486	0.308073
O15	O	1.027639	-0.191864	-0.312344
O16	O	1.527639	0.308136	0.187656
O17	O	1.239130	-0.403511	-0.312348
O18	O	1.739130	0.096489	0.187652
O19	O	1.118874	-0.191862	-0.403586
O20	O	1.618874	0.308138	0.096414
O21	O	1.027550	-0.312279	-0.191925
O22	O	1.527550	0.187721	0.308075
O23	O	0.907173	-0.312241	-0.312295
O24	O	1.407173	0.187759	0.187705
O25	O	1.027546	-0.403444	-0.523919
O26	O	1.527546	0.096556	-0.023919
O27	O	0.907133	-0.403447	-0.403498
O28	O	1.407133	0.096553	0.096502
O29	O	1.118821	-0.312236	-0.523957
O30	O	1.618821	0.187764	-0.023957
O31	O	1.118664	-0.523888	-0.312298
O32	O	1.618664	-0.023888	0.187702
O33	O	1.027456	-0.523860	-0.403500
O34	O	1.527456	-0.023860	0.096500
C35	C	0.880206	-0.357841	-0.357891
C36	C	1.380206	0.142159	0.142109
C37	C	0.797661	-0.357847	-0.357891
C38	C	1.297661	0.142153	0.142109
C39	C	1.073064	-0.550821	-0.357910
C40	C	1.573064	-0.050821	0.142090
C41	C	1.073092	-0.633366	-0.357925
C42	C	1.573092	-0.133366	0.142075
C43	C	0.598210	-0.308191	-0.308409
C44	C	1.098210	0.191809	0.191591
C45	C	0.548789	-0.375927	-0.290134
C46	C	1.048789	0.124073	0.209866
C47	C	0.646530	-0.357869	-0.357924
C48	C	1.146530	0.142131	0.142076
C49	C	0.548870	-0.290157	-0.376197
C50	C	1.048870	0.209843	0.123803
C51	C	0.500545	-0.357885	-0.357955
C52	C	1.000545	0.142115	0.142045
C53	C	0.598196	-0.425641	-0.339615
C54	C	1.098196	0.074359	0.160385
C55	C	0.598281	-0.339825	-0.425709
C56	C	1.098281	0.160175	0.074291
C57	C	0.548882	-0.407607	-0.407460
C58	C	1.048882	0.092393	0.092540
C59	C	0.730628	-0.357859	-0.357905
C60	C	1.230628	0.142141	0.142095
C61	C	0.416449	-0.357903	-0.357975
C62	C	0.916449	0.142097	0.142025
C63	C	1.023571	-0.882203	-0.407521
C64	C	1.523571	-0.382203	0.092479
C65	C	1.091288	-0.832739	-0.425752
C66	C	1.591288	-0.332739	0.074248
C67	C	1.073246	-0.930487	-0.357966
C68	C	1.573246	-0.430487	0.142034
C69	C	1.005457	-0.832869	-0.339750
C70	C	1.505457	-0.332869	0.160250
C71	C	1.073167	-0.784502	-0.357948
C72	C	1.573167	-0.284502	0.142052
C73	C	1.140999	-0.882110	-0.376233
C74	C	1.640999	-0.382110	0.123767
C75	C	1.055123	-0.882244	-0.290199
C76	C	1.555123	-0.382244	0.209801
C77	C	1.122886	-0.832802	-0.308404
C78	C	1.622886	-0.332802	0.191596
C79	C	1.073291	-1.014585	-0.357979
C80	C	1.573291	-0.514585	0.142021
C81	C	1.073130	-0.700405	-0.357935
C82	C	1.573130	-0.200405	0.142065
C83	C	1.266864	-0.357897	-0.357974
C84	C	1.766864	0.142103	0.142026
C85	C	1.349410	-0.357909	-0.357991
C86	C	1.849410	0.142091	0.142009
C87	C	1.073188	-0.357835	-0.551638
C88	C	1.573188	0.142165	-0.051638
C89	C	1.073200	-0.357821	-0.634183
C90	C	1.573200	0.142179	-0.134183
C91	C	1.073273	-0.164163	-0.357971
C92	C	1.573273	0.335837	0.142029
C93	C	1.073322	-0.081617	-0.357987
C94	C	1.573322	0.418383	0.142013
C95	C	1.023602	-0.407353	-0.833614
C96	C	1.523602	0.092647	-0.333614
C97	C	1.091357	-0.425511	-0.883013
C98	C	1.591357	0.074489	-0.383013
C99	C	1.073237	-0.357765	-0.785314
C100	C	1.573237	0.142235	-0.285314
C101	C	1.005519	-0.339586	-0.882997
C102	C	1.505519	0.160414	-0.382997
C103	C	1.073266	-0.357711	-0.931299
C104	C	1.573266	0.142289	-0.431299
C105	C	1.141027	-0.375958	-0.833626
C106	C	1.641027	0.124042	-0.333626
C107	C	1.055143	-0.290002	-0.833605
C108	C	1.555143	0.209998	-0.333605
C109	C	1.122945	-0.308134	-0.882982
C110	C	1.622945	0.191866	-0.382982
C111	C	1.073219	-0.357797	-0.701216
C112	C	1.573219	0.142203	-0.201216
C113	C	1.073292	-0.357679	-1.015396
C114	C	1.573292	0.142321	-0.515396
C115	C	1.073172	-0.357848	-0.164980
C116	C	1.573172	0.142152	0.335020
C117	C	1.073304	-0.357652	-0.082434
C118	C	1.573304	0.142348	0.417566
H119	H	0.527051	-0.391202	-0.232824
H120	H	1.027051	0.108798	0.267176
O121	O	1.111548	-0.803931	-0.501654
O122	O	1.611548	-0.303931	-0.001654
H123	H	1.167384	-0.824508	-0.517124
H124	H	1.667384	-0.324508	-0.017124
H125	H	1.198310	-0.903651	-0.391699
H126	H	1.698310	-0.403651	0.108301
O127	O	1.178543	-0.804240	-0.252884
O128	O	1.678543	-0.304240	0.247116
H129	H	1.234701	-0.824065	-0.268173
H130	H	1.734701	-0.324065	0.231827
O131	O	0.929645	-0.319238	-0.911717
O132	O	1.429645	0.180762	-0.411717
H133	H	0.907924	-0.365126	-0.946397
H134	H	1.407924	0.134874	-0.446397
H135	H	0.948163	-0.811235	-0.324350
H136	H	1.448163	-0.311235	0.175650
H137	H	1.164980	-0.266177	-0.904522
H138	H	1.664980	0.233823	-0.404522
O139	O	1.111654	-0.501382	-0.911772
O140	O	1.611654	-0.001382	-0.411772
H141	H	1.070362	-0.542470	-0.892007
H142	H	1.570362	-0.042470	-0.392007
O143	O	0.626917	-0.252606	-0.252889
O144	O	1.126917	0.247394	0.247111
H145	H	0.607095	-0.267774	-0.196676
H146	H	1.107095	0.232226	0.303324
O147	O	0.626767	-0.501523	-0.319060
O148	O	1.126767	-0.001523	0.180940
H149	H	0.688255	-0.500912	-0.319177
H150	H	1.188255	-0.000912	0.180823
H151	H	1.198324	-0.391377	-0.812029
H152	H	1.698324	0.108623	-0.312029
O153	O	0.968062	-0.462967	-0.804880
O154	O	1.468062	0.037033	-0.304880
H155	H	0.983277	-0.519152	-0.824664
H156	H	1.483277	-0.019152	-0.324664
O157	O	1.034837	-0.911075	-0.214318
O158	O	1.534837	-0.411075	0.285682
H159	H	0.978549	-0.891392	-0.199327
H160	H	1.478549	-0.391392	0.300673
O161	O	1.034808	-0.214157	-0.804817
O162	O	1.534808	0.285843	-0.304817
H163	H	1.024152	-0.176463	-0.852223
H164	H	1.524152	0.323537	-0.352223
O165	O	0.520353	-0.463323	-0.462939
O166	O	1.020353	0.036677	0.037061
H167	H	0.540211	-0.519457	-0.447608
H168	H	1.040211	-0.019457	0.052392
O169	O	0.627111	-0.319570	-0.501598
O170	O	1.127111	0.180430	-0.001598
H171	H	0.607394	-0.263304	-0.516629
H172	H	1.107394	0.236696	-0.016629
H173	H	0.527163	-0.232894	-0.391613
H174	H	1.027163	0.267106	0.108387
H175	H	0.981648	-0.903892	-0.449467
H176	H	1.481648	-0.403892	0.050533
