data_functionalizedCrystal
_audit_creation_method	'MofGen! by Chris Wilmer'
_symmetry_space_group_name_H-M	'P1'
_symmetry_Int_Tables_number	1
_symmetry_cell_setting	triclinic
loop_
_symmetry_equiv_pos_as_xyz
  x,y,z
_cell_length_a	17.038272
_cell_length_b	13.339070
_cell_length_c	12.376457
_cell_angle_alpha	104.410245
_cell_angle_beta	102.103643
_cell_angle_gamma	76.629575
loop_
_atom_site_label
_atom_site_type_symbol
_atom_site_fract_x
_atom_site_fract_y
_atom_site_fract_z
O1	O	0.388434	-1.395122	-0.094053
O2	O	0.336008	-1.096082	-0.094045
O3	O	0.248021	-1.243823	-0.094040
O4	O	0.476421	-1.247381	-0.094058
O5	O	0.269979	-1.206898	0.093971
O6	O	0.357966	-1.059157	0.093966
O7	O	0.410392	-1.358198	0.093958
Zn8	Zn	0.387665	-1.202815	0.123813
Zn9	Zn	0.358734	-1.251465	-0.123900
O10	O	0.498379	-1.210456	0.093953
C11	C	0.229169	-1.222128	-0.000034
C12	C	0.140282	-1.212482	-0.000034
C13	C	0.338131	-1.039168	-0.000039
C14	C	0.311734	-0.924594	-0.000035
C15	C	0.408268	-1.415112	-0.000051
C16	C	0.434664	-1.529688	-0.000061
C17	C	0.109396	-1.301039	-0.000036
C18	C	0.025875	-1.291972	-0.000046
C19	C	-0.026757	-1.194346	-0.000047
C20	C	0.004133	-1.105783	-0.000050
C21	C	0.087652	-1.114852	-0.000047
C22	C	-0.279475	-1.162306	-0.000062
C23	C	-0.362998	-1.153242	-0.000061
C24	C	-0.341250	-1.339433	-0.000060
C25	C	-0.257730	-1.348493	-0.000050
C26	C	-0.226847	-1.259931	-0.000059
C27	C	-0.112129	-1.185075	-0.000055
C28	C	-0.141478	-1.269204	-0.000059
C29	C	0.517230	-1.232152	-0.000055
C30	C	0.606116	-1.241799	-0.000062
N31	N	0.407411	-1.169620	0.292870
C32	C	0.516981	-0.577472	-0.000069
C33	C	0.541784	-0.685120	-0.000076
C34	C	0.484274	-0.744994	-0.000065
C35	C	0.401956	-0.697208	-0.000049
C36	C	0.377149	-0.589551	-0.000051
C37	C	0.344442	-0.757073	-0.000047
C38	C	0.262125	-0.709288	-0.000031
C39	C	0.237322	-0.601640	-0.000033
C40	C	0.294832	-0.541767	-0.000043
C41	C	0.369249	-0.864731	-0.000045
C42	C	0.229417	-0.876810	-0.000027
C43	C	0.204614	-0.769161	-0.000021
N44	N	0.338984	-1.284667	-0.292957
C45	C	0.293132	-1.361722	0.647862
C46	C	0.279311	-1.384949	0.529523
C47	C	0.311334	-1.331119	0.470354
C48	C	0.357182	-1.254057	0.529535
C49	C	0.371011	-1.230833	0.647886
C50	C	0.389213	-1.200230	0.470378
C51	C	0.435061	-1.123169	0.529560
C52	C	0.448886	-1.099948	0.647899
C53	C	0.416863	-1.153779	0.707068
C54	C	0.375385	-1.223454	0.352027
C55	C	0.453263	-1.092565	0.352052
C56	C	0.467084	-1.069338	0.470391
H57	H	0.152246	-1.380536	-0.000027
C58	C	0.114068	-0.716592	-0.000015
H59	H	0.107535	-0.643907	-0.000026
H60	H	0.097060	-0.723835	0.065550
H61	H	0.081749	-0.749595	-0.065586
C62	C	0.580232	-0.511612	-0.000081
H63	H	0.553667	-0.440655	-0.000075
H64	H	0.605367	-0.539649	-0.065647
H65	H	0.620681	-0.513886	0.065489
H66	H	-0.405849	-1.073735	-0.000044
H67	H	0.300079	-1.350034	0.373997
C68	C	0.499323	-1.015192	0.713001
H69	H	0.502978	-1.009077	0.791955
H70	H	0.473452	-0.949451	0.693626
H71	H	0.552667	-1.034773	0.693597
C72	C	0.166149	-0.942655	-0.000017
H73	H	0.113569	-0.898782	-0.000025
H74	H	0.180575	-0.972024	0.065546
H75	H	0.165263	-0.997779	-0.065589
C76	C	0.146774	-0.549077	-0.000035
H77	H	0.140237	-0.476393	-0.000051
H78	H	0.129763	-0.556319	0.065528
H79	H	0.114461	-0.582087	-0.065607
H80	H	0.504474	-0.832647	-0.000073
C81	C	-0.375220	-1.436847	-0.000062
H82	H	-0.331911	-1.496286	-0.000055
H83	H	-0.415003	-1.450057	-0.065627
H84	H	-0.399693	-1.424303	0.065509
H85	H	0.000733	-1.364085	-0.000044
H86	H	-0.214880	-1.427990	-0.000049
C87	C	-0.245511	-1.064887	-0.000051
H88	H	-0.288819	-1.005446	-0.000037
H89	H	-0.221036	-1.077421	-0.065611
H90	H	-0.205730	-1.051680	0.065524
H91	H	-0.038728	-1.026294	-0.000058
C92	C	0.257909	-1.420927	0.712942
H93	H	0.228625	-1.470149	0.660751
H94	H	0.222081	-1.371930	0.759124
H95	H	0.301298	-1.457249	0.759092
H96	H	0.428113	-1.134865	0.803429
C97	C	0.121630	-1.017443	-0.000047
H98	H	0.178907	-1.036828	-0.000057
H99	H	0.111131	-0.964824	0.065514
H100	H	0.095820	-0.990591	-0.065621
C101	C	-0.083588	-1.376589	-0.000056
H102	H	-0.113941	-1.428039	-0.000061
H103	H	-0.042902	-1.371111	0.065508
H104	H	-0.058213	-1.396875	-0.065628
H105	H	-0.154992	-1.105586	-0.000053
C106	C	0.517521	-0.984583	0.535498
H107	H	0.521173	-0.978471	0.614452
H108	H	0.491652	-0.918841	0.516124
H109	H	0.570867	-1.004164	0.516098
H110	H	0.436273	-0.903626	-0.000054
C111	C	0.632327	-0.737675	-0.000080
H112	H	0.663027	-0.686599	-0.000074
H113	H	0.637256	-0.792300	-0.065641
H114	H	0.652564	-0.766534	0.065494
C115	C	0.488496	-1.033353	0.286978
H116	H	0.473689	-1.058214	0.208021
H117	H	0.546367	-1.045319	0.306365
H118	H	0.467152	-0.959995	0.306386
H119	H	0.338055	-1.286198	0.303852
C120	C	0.228916	-1.469743	0.464426
H121	H	0.225284	-1.475883	0.385471
H122	H	0.175569	-1.450213	0.483806
H123	H	0.254824	-1.535469	0.483827
H124	H	0.274642	-0.454110	-0.000038
