data_functionalizedCrystal
_audit_creation_method	'MofGen! by Chris Wilmer'
_symmetry_space_group_name_H-M	'P1'
_symmetry_Int_Tables_number	1
_symmetry_cell_setting	triclinic
loop_
_symmetry_equiv_pos_as_xyz
  x,y,z
_cell_length_a	23.532407
_cell_length_b	23.532407
_cell_length_c	9.730223
_cell_angle_alpha	89.994043
_cell_angle_beta	90.005152
_cell_angle_gamma	82.848678
loop_
_atom_site_label
_atom_site_type_symbol
_atom_site_fract_x
_atom_site_fract_y
_atom_site_fract_z
O1	O	0.755256	0.069132	-0.114132
O2	O	0.589393	0.079136	-0.114175
O3	O	0.677326	-0.008798	-0.114127
O4	O	0.667323	0.157066	-0.114180
O5	O	0.677325	-0.008796	0.114453
O6	O	0.589392	0.079138	0.114405
O7	O	0.755255	0.069135	0.114448
Zn8	Zn	0.672323	0.074137	0.150719
Zn9	Zn	0.672325	0.074134	-0.150445
O10	O	0.667322	0.157068	0.114400
C11	C	0.568176	0.078882	0.000110
C12	C	0.504959	0.078116	0.000095
C13	C	0.677071	-0.030013	0.000167
C14	C	0.676305	-0.093230	0.000177
C15	C	0.105856	0.125350	0.000143
C16	C	0.046456	0.124638	0.000151
O17	O	0.009711	0.168424	0.000187
N18	N	0.023830	0.072362	0.000166
C19	C	0.060607	0.020794	0.000185
O20	O	0.035908	-0.023737	0.000200
C21	C	0.120006	0.021506	0.000187
C22	C	0.142629	0.073785	0.000158
C23	C	0.128479	0.177625	0.000116
C24	C	0.187876	0.178336	0.000105
C25	C	0.224649	0.126772	0.000120
C26	C	0.202025	0.074497	0.000147
C27	C	0.156783	-0.030062	0.000216
C28	C	0.216185	-0.029345	0.000218
C29	C	0.238808	0.022934	0.000190
C30	C	0.298194	0.023643	0.000151
N31	N	0.320820	0.075920	0.000137
C32	C	0.284048	0.127484	0.000121
C33	C	-0.064135	0.019302	0.000185
C34	C	-0.123533	0.018589	0.000174
C35	C	-0.137680	0.122434	0.000143
C36	C	-0.078281	0.123146	0.000144
C37	C	-0.041509	0.071578	0.000171
C38	C	0.408784	0.128974	0.000097
C39	C	0.468186	0.129680	0.000080
C40	C	0.482329	0.025836	0.000119
C41	C	0.422932	0.025129	0.000128
C42	C	0.386160	0.076702	0.000122
O43	O	0.334974	-0.020119	0.000121
O44	O	0.308755	0.172007	0.000125
C45	C	0.723539	-0.492333	0.000114
C46	C	0.722827	-0.551733	0.000103
O47	O	0.766613	-0.588478	0.000063
N48	N	0.670551	-0.574359	0.000091
C49	C	0.618983	-0.537582	0.000075
O50	O	0.574452	-0.562281	0.000062
C51	C	0.619695	-0.478182	0.000076
C52	C	0.671974	-0.455560	0.000102
C53	C	0.775814	-0.469710	0.000138
C54	C	0.776525	-0.410313	0.000152
C55	C	0.724961	-0.373540	0.000140
C56	C	0.672685	-0.396164	0.000115
C57	C	0.568127	-0.441406	0.000050
C58	C	0.568844	-0.382004	0.000050
C59	C	0.621123	-0.359381	0.000076
C60	C	0.621832	-0.299995	0.000117
N61	N	0.674109	-0.277368	0.000129
C62	C	0.725673	-0.314141	0.000141
C63	C	0.617491	-0.662324	0.000071
C64	C	0.616778	-0.721722	0.000080
C65	C	0.720623	-0.735869	0.000105
C66	C	0.721335	-0.676470	0.000106
C67	C	0.669767	-0.639698	0.000083
C68	C	0.727163	-0.189405	0.000170
C69	C	0.727869	-0.130003	0.000188
C70	C	0.624025	-0.115860	0.000156
C71	C	0.623318	-0.175257	0.000144
C72	C	0.674891	-0.212029	0.000146
O73	O	0.578070	-0.263215	0.000151
O74	O	0.770196	-0.289433	0.000135
C75	C	0.776472	0.069388	0.000160
C76	C	0.839689	0.070154	0.000166
C77	C	0.667577	0.178283	0.000104
C78	C	0.668343	0.241500	0.000084
N79	N	0.672327	0.074138	0.356255
N80	N	0.672326	0.074127	-0.355982
C81	C	0.711273	0.035214	0.428202
C82	C	0.711272	0.035207	0.572085
C83	C	0.633375	0.113053	0.572061
C84	C	0.633374	0.113057	0.428181
C85	C	0.750225	-0.003705	0.356276
C86	C	0.789176	-0.042631	0.428224
C87	C	0.789174	-0.042638	0.572107
C88	C	0.750223	-0.003718	0.644042
H89	H	0.486602	0.172255	0.000056
C90	C	0.832012	-0.085457	0.651252
H91	H	0.826431	-0.079891	0.747244
H92	H	0.869984	-0.079462	0.627683
H93	H	0.826042	-0.123436	0.627667
H94	H	-0.059867	0.165717	0.000129
H95	H	0.098544	0.219617	0.000108
C96	C	0.131911	-0.087571	0.000266
H97	H	0.162326	-0.118173	0.000296
H98	H	0.109028	-0.090020	-0.079435
H99	H	0.109041	-0.090003	0.079996
C100	C	0.522786	-0.030880	0.000146
H101	H	0.561400	-0.022964	0.000153
H102	H	0.515960	-0.052339	-0.079548
H103	H	0.515963	-0.052324	0.079883
H104	H	0.769159	-0.219337	0.000166
C105	C	-0.148412	-0.038918	0.000192
H106	H	-0.117999	-0.069523	0.000209
H107	H	-0.171295	-0.041359	-0.079512
H108	H	-0.171282	-0.041355	0.079920
H109	H	0.770444	-0.111587	0.000213
H110	H	0.378852	0.170970	0.000096
C111	C	0.750217	-0.003727	0.802310
H112	H	0.721441	0.025025	0.834844
H113	H	0.786570	0.003881	0.834875
H114	H	0.742627	-0.040092	0.834852
H115	H	-0.167632	0.164421	0.000136
C116	C	0.832017	-0.085443	0.349107
H117	H	0.855208	-0.108629	0.412568
H118	H	0.855607	-0.065074	0.292985
H119	H	0.811664	-0.109047	0.292977
H120	H	0.762610	-0.765821	0.000110
H121	H	0.601663	0.144741	0.630640
H122	H	0.574207	-0.740136	0.000082
H123	H	0.206289	0.220908	0.000081
C124	C	0.256634	-0.086070	0.000245
H125	H	0.295252	-0.078163	0.000246
H126	H	0.249801	-0.107523	-0.079453
H127	H	0.249809	-0.107515	0.079979
H128	H	-0.034198	-0.022693	0.000195
H129	H	0.819097	-0.391900	0.000167
C130	C	0.590537	0.155875	0.349034
H131	H	0.567345	0.179059	0.412474
H132	H	0.566949	0.135509	0.292900
H133	H	0.610892	0.179482	0.292911
H134	H	0.404512	-0.017441	0.000131
H135	H	0.582043	-0.085909	0.000151
C136	C	0.832540	-0.510151	0.000162
H137	H	0.863770	-0.488162	0.000188
H138	H	0.834431	-0.533618	-0.079543
H139	H	0.834421	-0.533617	0.079889
H140	H	0.763906	-0.658056	0.000126
H141	H	0.575496	-0.632386	0.000064
H142	H	0.750231	-0.003701	0.239120
H143	H	0.526850	-0.352066	0.000029
C144	C	0.510618	-0.466278	0.000010
H145	H	0.480016	-0.435863	-0.000015
H146	H	0.508171	-0.489161	0.079712
H147	H	0.508184	-0.489147	-0.079719
C148	C	0.565812	-0.200144	0.000112
H149	H	0.535205	-0.169733	0.000098
H150	H	0.563370	-0.223032	0.079806
H151	H	0.563381	-0.223009	-0.079625
