data_functionalizedCrystal
_audit_creation_method	'MofGen! by Chris Wilmer'
_symmetry_space_group_name_H-M	'P1'
_symmetry_Int_Tables_number	1
_symmetry_cell_setting	triclinic
loop_
_symmetry_equiv_pos_as_xyz
  x,y,z
_cell_length_a	14.971491
_cell_length_b	15.944493
_cell_length_c	14.048226
_cell_angle_alpha	89.999441
_cell_angle_beta	89.991693
_cell_angle_gamma	83.545640
loop_
_atom_site_label
_atom_site_type_symbol
_atom_site_fract_x
_atom_site_fract_y
_atom_site_fract_z
O1	O	1.186802	0.109487	-0.079189
O2	O	0.926385	0.122591	-0.079180
O3	O	1.063732	-0.006232	-0.079193
O4	O	1.049455	0.238310	-0.079176
O5	O	1.063715	-0.006240	0.079129
O6	O	0.926369	0.122583	0.079141
O7	O	1.186785	0.109479	0.079133
Zn8	Zn	1.056574	0.116030	0.104274
Zn9	Zn	1.056596	0.116040	-0.104321
O10	O	1.049439	0.238303	0.079145
C11	C	0.893053	0.122000	-0.000019
C12	C	0.793759	0.120242	-0.000016
C13	C	0.366072	0.112658	-0.086339
C14	C	0.459370	0.114308	-0.086336
C15	C	0.506006	0.115134	-0.000031
C16	C	0.459340	0.114302	0.086275
C17	C	0.366044	0.112646	0.086270
C18	C	0.653797	0.117755	0.086279
C19	C	0.747099	0.119412	0.086284
C20	C	0.747123	0.119417	-0.086327
C21	C	0.653827	0.117761	-0.086332
C22	C	0.607167	0.116930	-0.000025
C23	C	1.063140	-0.037531	-0.000036
C24	C	1.061391	-0.130782	-0.000048
C25	C	1.142236	-0.366463	-0.000033
C26	C	1.098647	-0.417070	-0.078091
C27	C	1.058149	-0.301506	-0.000036
C28	C	1.098612	-0.417053	0.078001
C29	C	1.055024	-0.466419	-0.000021
C30	C	1.014583	-0.350884	-0.078159
C31	C	1.014560	-0.350864	0.078003
C32	C	0.970909	-0.401438	-0.000075
C33	C	1.059952	-0.206504	-0.000046
C34	C	1.053215	-0.561417	-0.000018
C35	C	1.220117	0.110070	-0.000031
C36	C	1.319412	0.111828	-0.000040
C37	C	1.050030	0.269602	-0.000014
C38	C	1.051780	0.362852	-0.000008
N39	N	1.056566	0.116023	0.246635
N40	N	1.056611	0.116041	-0.246682
C41	C	1.117402	0.059003	0.296447
C42	C	1.117408	0.059003	0.396105
C43	C	1.056582	0.116027	0.445948
C44	C	0.995739	0.173049	0.396129
C45	C	0.995729	0.173044	0.296473
C46	C	0.995765	0.173055	0.603843
C47	C	0.995775	0.173060	0.703505
C48	C	1.117444	0.059013	0.703475
C49	C	1.117434	0.059009	0.603819
C50	C	1.056592	0.116032	0.554006
H51	H	0.497357	0.114978	-0.156610
C52	C	1.239087	0.040907	0.184294
C53	C	1.184224	-0.003700	0.241639
H54	H	1.280330	0.002186	0.150457
H55	H	1.202854	0.074878	0.140386
H56	H	1.271297	0.075899	0.223152
H57	H	1.152010	-0.038688	0.202780
H58	H	1.220462	-0.037685	0.285552
C59	C	1.237693	-0.053703	0.386065
C60	C	1.184295	-0.003662	0.450859
H61	H	1.278993	-0.092385	0.419869
H62	H	1.200473	-0.083989	0.347214
H63	H	1.269838	-0.018671	0.347178
H64	H	1.152145	-0.038694	0.489741
H65	H	1.221520	0.026626	0.489725
C66	C	0.663218	0.117922	-0.256952
C67	C	0.602563	0.116849	-0.181198
H68	H	0.631569	0.117352	-0.315517
H69	H	0.692772	0.167512	-0.253365
H70	H	0.706441	0.069620	-0.253354
H71	H	0.559344	0.165155	-0.184792
H72	H	0.572995	0.067254	-0.184786
C73	C	0.935514	-0.376038	-0.222216
C74	C	0.966688	-0.312031	-0.167351
H75	H	0.905944	-0.352048	-0.277275
H76	H	0.984884	-0.415262	-0.240868
H77	H	0.894558	-0.404203	-0.185715
H78	H	1.007650	-0.283869	-0.203849
H79	H	0.917311	-0.272792	-0.148699
C80	C	0.737713	0.119210	0.256903
C81	C	0.798365	0.120303	0.181150
H82	H	0.769367	0.119752	0.315469
H83	H	0.694499	0.167509	0.253329
H84	H	0.708152	0.069617	0.253293
H85	H	0.827922	0.169900	0.184756
H86	H	0.841595	0.071999	0.184725
C87	C	1.218793	-0.514434	0.139409
C88	C	1.146557	-0.456061	0.167089
H89	H	1.248399	-0.538509	0.194406
H90	H	1.197103	-0.557717	0.102421
H91	H	1.259875	-0.486658	0.102639
H92	H	1.105472	-0.483838	0.203854
H93	H	1.168247	-0.412771	0.204093
C94	C	0.574318	0.044014	0.186411
C95	C	0.510603	0.115210	0.181142
H96	H	0.605967	0.044581	0.244977
H97	H	0.544754	-0.005570	0.182827
H98	H	0.615455	0.044755	0.135008
H99	H	0.469462	0.114466	0.232541
H100	H	0.540169	0.164807	0.184735
H101	H	0.328053	0.111979	0.156544
H102	H	1.166968	0.012580	0.563237
C103	C	0.890146	0.121945	-0.162974
C104	C	0.798408	0.120325	-0.181199
H105	H	0.921808	0.122504	-0.221542
H106	H	0.898597	0.171156	-0.127515
H107	H	0.912250	0.073264	-0.127516
H108	H	0.776303	0.169009	-0.216650
H109	H	0.789952	0.071109	-0.216672
H110	H	0.898423	-0.416974	-0.000115
C111	C	1.283832	-0.378798	-0.082026
C112	C	1.239996	-0.345222	-0.000163
H113	H	1.344177	-0.365666	-0.082117
H114	H	1.283411	-0.438320	-0.082575
H115	H	1.253643	-0.355165	-0.136902
H116	H	1.270181	-0.368859	0.054714
H117	H	1.240422	-0.285687	0.000395
C118	C	1.143690	-0.543571	-0.166661
C119	C	1.146585	-0.456100	-0.167186
H120	H	1.173282	-0.567662	-0.221667
H121	H	1.172962	-0.567106	-0.111240
H122	H	1.082858	-0.555266	-0.166737
H123	H	1.207417	-0.444405	-0.167103
H124	H	1.117315	-0.432558	-0.222622
C125	C	1.010828	-0.345374	0.248765
C126	C	0.966656	-0.311809	0.167097
H127	H	0.981262	-0.321257	0.303772
H128	H	1.009822	-0.404825	0.249723
H129	H	1.071357	-0.332790	0.248191
H130	H	0.906129	-0.324399	0.167667
H131	H	0.967653	-0.252345	0.166139
H132	H	0.328107	0.111991	-0.156619
C133	C	0.874029	0.191087	0.508242
C134	C	0.928878	0.235729	0.450919
H135	H	0.832757	0.229786	0.542070
H136	H	0.841860	0.156078	0.469378
H137	H	0.910275	0.157131	0.552167
H138	H	0.892633	0.269680	0.406989
H139	H	0.961049	0.270752	0.489787
C140	C	1.136903	-0.055290	0.815529
C141	C	1.184321	-0.003675	0.758219
H142	H	1.178193	-0.093991	0.849322
H143	H	1.100687	-0.021334	0.859475
H144	H	1.099680	-0.085563	0.776652
H145	H	1.221540	0.026602	0.797098
H146	H	1.220552	-0.037636	0.714269
C147	C	0.875480	0.285764	0.693531
C148	C	0.928898	0.235725	0.758296
H149	H	0.834186	0.324443	0.727359
H150	H	0.912687	0.316052	0.654657
H151	H	0.843327	0.250729	0.654666
H152	H	0.961055	0.270759	0.797157
H153	H	0.891686	0.205434	0.797187
C154	C	0.875476	0.285782	0.306506
C155	C	0.928860	0.235726	0.241715
H156	H	0.834195	0.324482	0.272700
H157	H	0.843316	0.250768	0.345385
H158	H	0.912713	0.316056	0.345365
H159	H	0.891624	0.205447	0.202861
H160	H	0.961022	0.270745	0.202820
H161	H	0.615808	0.117089	0.156559
H162	H	0.946218	0.219487	0.563289
