data_functionalizedCrystal
_audit_creation_method	'MofGen! by Chris Wilmer'
_symmetry_space_group_name_H-M	'P1'
_symmetry_Int_Tables_number	1
_symmetry_cell_setting	triclinic
loop_
_symmetry_equiv_pos_as_xyz
  x,y,z
_cell_length_a	18.101398
_cell_length_b	18.101395
_cell_length_c	12.759393
_cell_angle_alpha	89.965065
_cell_angle_beta	89.987865
_cell_angle_gamma	90.027508
loop_
_atom_site_label
_atom_site_type_symbol
_atom_site_fract_x
_atom_site_fract_y
_atom_site_fract_z
Zn1	Zn	1.132134	-0.294884	-0.593777
Zn2	Zn	1.132023	-0.418742	-0.418082
Zn3	Zn	1.008288	-0.294910	-0.418135
Zn4	Zn	1.008242	-0.418678	-0.593742
O5	O	1.070172	-0.356804	-0.505934
O6	O	1.235752	-0.311330	-0.570463
O7	O	1.115582	-0.402353	-0.271068
O8	O	1.024782	-0.191273	-0.441470
O9	O	1.235671	-0.402328	-0.441381
O10	O	1.115771	-0.191254	-0.570514
O11	O	1.024674	-0.311374	-0.271107
O12	O	0.904649	-0.311312	-0.441437
O13	O	1.024704	-0.402219	-0.740768
O14	O	0.904615	-0.402244	-0.570455
O15	O	1.115727	-0.311268	-0.740793
O16	O	1.115537	-0.522367	-0.441348
O17	O	1.024596	-0.522320	-0.570404
C18	C	0.877761	-0.356774	-0.505949
C19	C	0.795447	-0.356780	-0.505980
C20	C	1.070070	-0.549214	-0.505890
C21	C	1.070094	-0.631528	-0.505906
C22	C	0.496356	-0.356823	-0.505936
C23	C	0.527685	-0.414312	-0.586710
C24	C	0.613303	-0.414132	-0.587042
C25	C	0.644739	-0.356802	-0.505958
C26	C	0.613686	-0.278798	-0.536217
C27	C	0.528041	-0.279143	-0.536792
C28	C	0.527900	-0.376651	-0.394708
C29	C	0.613550	-0.378363	-0.395302
C30	C	0.728598	-0.356786	-0.505968
C31	C	0.412497	-0.356835	-0.505928
C32	C	1.070179	-0.782237	-0.505947
C33	C	1.012932	-0.813592	-0.587084
C34	C	1.013148	-0.899210	-0.587426
C35	C	1.070261	-0.930619	-0.505989
C36	C	1.148337	-0.899440	-0.535757
C37	C	1.147958	-0.813795	-0.536322
C38	C	1.050051	-0.813880	-0.394848
C39	C	1.048376	-0.899532	-0.395464
C40	C	1.070313	-1.014479	-0.506010
C41	C	1.070133	-0.698377	-0.505929
C42	C	1.263334	-0.356833	-0.505920
C43	C	1.345648	-0.356846	-0.505914
C44	C	1.070223	-0.356733	-0.779967
C45	C	1.070244	-0.356703	-0.896744
C46	C	1.070294	-0.163642	-0.506002
C47	C	1.070346	-0.081327	-0.506030
C48	C	1.117607	-0.404023	-1.061315
C49	C	1.117585	-0.404056	-0.951591
C50	C	1.022918	-0.309320	-0.951627
C51	C	1.022937	-0.309291	-1.061349
C52	C	1.164956	-0.451373	-1.116156
C53	C	1.212282	-0.498758	-1.061281
C54	C	1.212259	-0.498791	-0.951557
C55	C	1.164911	-0.451440	-0.896708
C56	C	1.070164	-0.356820	-0.232967
C57	C	1.070285	-0.356641	-0.116191
H58	H	0.634297	-0.471976	-0.568077
C59	C	1.164885	-0.451484	-0.776007
N60	N	1.164868	-0.451515	-0.685097
C61	C	0.970848	-0.257227	-0.891289
N62	N	0.931632	-0.217986	-0.845843
H63	H	0.994064	-0.792346	-0.367685
H64	H	1.164981	-0.451350	-1.205499
C65	C	1.031236	-0.926818	-0.698643
N66	N	1.044876	-0.947612	-0.782411
H67	H	0.507640	-0.334777	-0.334523
H68	H	1.164995	-0.793761	-0.617527
C69	C	1.030736	-0.784451	-0.697667
N70	N	1.044150	-0.762503	-0.780959
H71	H	1.192079	-0.793048	-0.479781
C72	C	0.640994	-0.455899	-0.364455
N73	N	0.661679	-0.514295	-0.341216
H74	H	0.635154	-0.261678	-0.616646
H75	H	0.507318	-0.234775	-0.480657
C76	C	1.264258	-0.550945	-1.121616
N77	N	1.303371	-0.590290	-1.167059
H78	H	1.192179	-0.919780	-0.478489
C79	C	1.171783	-0.928334	-0.644275
N80	N	1.189439	-0.950094	-0.726015
H81	H	0.506285	-0.432559	-0.367209
H82	H	0.990917	-0.919920	-0.373009
C83	C	1.100633	-0.928387	-0.309476
N84	N	1.140008	-0.950108	-0.244715
H85	H	1.091741	-0.793594	-0.334398
C86	C	1.264329	-0.550903	-0.891197
N87	N	1.303558	-0.590148	-0.845736
H88	H	0.984405	-0.270707	-1.106030
H89	H	0.506177	-0.401359	-0.668646
C90	C	0.499827	-0.492714	-0.561384
N91	N	0.478838	-0.551768	-0.542307
H92	H	0.633808	-0.401012	-0.669455
H93	H	0.634049	-0.234803	-0.479221
C94	C	0.642447	-0.325895	-0.309631
N95	N	0.664209	-0.286368	-0.245106
C96	C	0.934941	-0.927697	-0.562308
N97	N	0.876031	-0.949150	-0.543395
C98	C	0.501076	-0.256410	-0.646636
N99	N	0.480770	-0.239283	-0.729371
H100	H	0.954837	-0.793068	-0.568689
