data_functionalizedCrystal
_audit_creation_method	'MofGen! by Chris Wilmer'
_symmetry_space_group_name_H-M	'P1'
_symmetry_Int_Tables_number	1
_symmetry_cell_setting	triclinic
loop_
_symmetry_equiv_pos_as_xyz
  x,y,z
_cell_length_a	19.077105
_cell_length_b	14.908178
_cell_length_c	19.076919
_cell_angle_alpha	91.159747
_cell_angle_beta	89.923776
_cell_angle_gamma	90.879305
loop_
_atom_site_label
_atom_site_type_symbol
_atom_site_fract_x
_atom_site_fract_y
_atom_site_fract_z
Zn1	Zn	1.039568	-0.434467	0.420095
Zn2	Zn	1.539568	0.065533	0.920095
Zn3	Zn	1.037992	-0.578863	0.295834
Zn4	Zn	1.537992	-0.078863	0.795834
Zn5	Zn	0.927303	-0.422436	0.298451
Zn6	Zn	1.427303	0.077564	0.798451
Zn7	Zn	0.915837	-0.578321	0.408612
Zn8	Zn	1.415837	-0.078321	0.908612
O9	O	0.980175	-0.503522	0.355748
O10	O	1.480175	-0.003522	0.855748
O11	O	1.137464	-0.458883	0.407322
O12	O	1.637464	0.041117	0.907322
O13	O	1.027448	-0.553304	0.198075
O14	O	1.527448	-0.053304	0.698075
O15	O	0.947654	-0.298363	0.320489
O16	O	1.447654	0.201637	0.820489
O17	O	1.136306	-0.564970	0.316028
O18	O	1.636306	-0.064970	0.816028
O19	O	1.030134	-0.307202	0.409860
O20	O	1.530134	0.192798	0.909860
O21	O	0.946126	-0.438378	0.199998
O22	O	1.446126	0.061622	0.699998
O23	O	0.827677	-0.437853	0.309354
O24	O	1.327677	0.062147	0.809354
O25	O	0.928111	-0.564047	0.508242
O26	O	1.428111	-0.064047	1.008242
O27	O	0.819253	-0.552381	0.390288
O28	O	1.319253	-0.052381	0.890288
O29	O	1.019015	-0.458358	0.516678
O30	O	1.519015	0.041642	1.016678
O31	O	1.016329	-0.704460	0.304893
O32	O	1.516329	-0.204460	0.804893
O33	O	0.926582	-0.704062	0.387751
O34	O	1.426582	-0.204062	0.887751
C35	C	0.798027	-0.493754	0.348859
C36	C	1.298027	0.006246	0.848859
C37	C	0.720102	-0.489597	0.345928
C38	C	1.220102	0.010403	0.845928
C39	C	0.679124	-0.547357	0.386615
C40	C	1.179124	-0.047357	0.886615
C41	C	0.605905	-0.543439	0.383864
C42	C	1.105905	-0.043439	0.883864
C43	C	0.573666	-0.481767	0.340423
C44	C	1.073666	0.018233	0.840423
C45	C	0.614649	-0.424002	0.299735
C46	C	1.114649	0.075998	0.799735
C47	C	0.687867	-0.427915	0.302490
C48	C	1.187867	0.072085	0.802490
C49	C	0.355158	-0.463656	0.327678
C50	C	0.855158	0.036344	0.827678
C51	C	0.281935	-0.459749	0.324924
C52	C	0.781935	0.040251	0.824924
C53	C	0.273196	-0.579186	0.409055
C54	C	0.773196	-0.079186	0.909055
C55	C	0.346416	-0.583097	0.411803
C56	C	0.846416	-0.083097	0.911803
C57	C	0.387393	-0.525329	0.371117
C58	C	0.887393	-0.025329	0.871117
N59	N	0.498825	-0.477764	0.337609
N60	N	0.998825	0.022236	0.837609
N61	N	0.462232	-0.529329	0.373936
N62	N	0.962232	-0.029329	0.873936
C63	C	0.970059	-0.736847	0.344808
C64	C	1.470059	-0.236847	0.844808
C65	C	0.965794	-0.836670	0.340153
C66	C	1.465794	-0.336670	0.840153
C67	C	1.043595	-1.033301	0.424563
C68	C	1.543595	-0.533301	0.924563
C69	C	1.039591	-1.127093	0.420192
C70	C	1.539591	-0.627093	0.920192
C71	C	0.953778	-1.118048	0.327045
C72	C	1.453778	-0.618048	0.827045
C73	C	0.957782	-1.024256	0.331416
C74	C	1.457782	-0.524256	0.831416
C75	C	1.002693	-0.981886	0.380176
C76	C	1.502693	-0.481886	0.880176
C77	C	1.006701	-0.888092	0.384543
C78	C	1.506701	-0.388092	0.884543
C79	C	0.920885	-0.879048	0.291399
C80	C	1.420885	-0.379048	0.791399
C81	C	0.916880	-0.972840	0.287028
C82	C	1.416880	-0.472840	0.787028
C83	C	1.163034	-0.513329	0.362664
C84	C	1.663034	-0.013329	0.862664
C85	C	1.240957	-0.517508	0.365611
C86	C	1.740957	-0.017508	0.865611
C87	C	0.972460	-0.512484	0.538609
C88	C	1.472460	-0.012484	1.038609
C89	C	0.969172	-0.516303	0.616533
C90	C	1.469172	-0.016303	1.116533
C91	C	0.990349	-0.269287	0.366747
C92	C	1.490349	0.230713	0.866747
C93	C	0.994684	-0.169470	0.371434
C94	C	1.494684	0.330530	0.871434
C95	C	0.987903	-0.494532	0.173603
C96	C	1.487903	0.005468	0.673603
C97	C	0.991338	-0.490467	0.095696
C98	C	1.491338	0.009533	0.595696
C99	C	1.014954	-0.463073	0.657536
C100	C	1.514954	0.036927	1.157536
C101	C	1.011856	-0.466657	0.730754
C102	C	1.511856	0.033343	1.230754
C103	C	0.962980	-0.523477	0.762968
C104	C	1.462980	-0.023477	1.262968
C105	C	0.917193	-0.576709	0.721960
C106	C	1.417193	-0.076709	1.221960
C107	C	0.920287	-0.573120	0.648744
C108	C	1.420287	-0.073120	1.148744
C109	C	0.948646	-0.540110	0.981471
C110	C	1.448646	-0.040110	1.481471
C111	C	0.945556	-0.543697	1.054693
C112	C	1.445556	-0.043697	1.554693
C113	C	1.040219	-0.433644	1.063482
C114	C	1.540219	0.066356	1.563482
C115	C	1.043312	-0.430063	0.990264
C116	C	1.543312	0.069937	1.490264
C117	C	0.997523	-0.483291	0.949262
C118	C	1.497523	0.016709	1.449262
N119	N	0.959814	-0.527145	0.837809
N120	N	1.459814	-0.027145	1.337809
N121	N	1.000686	-0.479619	0.874423
N122	N	1.500686	0.020381	1.374423
H123	H	0.388513	-0.416623	0.294543
H124	H	0.888513	0.083377	0.794543
H125	H	1.080169	-0.998803	0.464261
H126	H	1.580169	-0.498803	0.964261
H127	H	0.588394	-0.373783	0.264367
H128	H	1.088394	0.126217	0.764367
C129	C	1.040765	-1.237644	0.509957
C130	C	1.540765	-0.737644	1.009957
C131	C	1.084551	-1.183612	0.468984
C132	C	1.584551	-0.683612	0.968984
H133	H	1.068523	-1.272532	0.540083
H134	H	1.568523	-0.772532	1.040083
H135	H	1.013455	-1.276298	0.480292
H136	H	1.513455	-0.776298	0.980292
H137	H	1.010631	-1.200741	0.537293
H138	H	1.510631	-0.700741	1.037293
H139	H	1.114683	-1.220515	0.441644
H140	H	1.614683	-0.720515	0.941644
H141	H	1.111874	-1.144953	0.498652
H142	H	1.611874	-0.644953	0.998652
H143	H	1.083115	-0.383796	0.964040
H144	H	1.583115	0.116204	1.464040
H145	H	0.705367	-0.597580	0.421987
H146	H	1.205367	-0.097580	0.921987
C147	C	1.105095	-0.788039	0.402861
C148	C	1.605095	-0.288039	0.902861
C149	C	1.056065	-0.841519	0.438140
C150	C	1.556065	-0.341519	0.938140
H151	H	1.135572	-0.759295	0.435953
H152	H	1.635572	-0.259295	0.935953
H153	H	1.081311	-0.743994	0.377058
H154	H	1.581311	-0.243994	0.877058
H155	H	1.131663	-0.824565	0.371652
H156	H	1.631663	-0.324565	0.871652
H157	H	1.029494	-0.804991	0.469345
H158	H	1.529494	-0.304991	0.969345
H159	H	1.079852	-0.885569	0.463955
H160	H	1.579852	-0.385569	0.963955
C161	C	0.869347	-1.099697	0.235418
C162	C	1.369347	-0.599697	0.735418
C163	C	0.904408	-1.164631	0.273457
C164	C	1.404408	-0.664631	0.773457
H165	H	0.838864	-1.128458	0.202340
H166	H	1.338864	-0.628458	0.702340
H167	H	0.902607	-1.063426	0.211484
H168	H	1.402607	-0.563426	0.711484
H169	H	0.842782	-1.063180	0.266635
H170	H	1.342782	-0.563180	0.766635
H171	H	0.930977	-1.201144	0.242240
H172	H	1.430977	-0.701144	0.742240
H173	H	0.871143	-1.200917	0.297393
H174	H	1.371143	-0.700917	0.797393
H175	H	0.887581	-0.837175	0.255254
H176	H	1.387581	-0.337175	0.755254
C177	C	1.108207	-0.354643	0.673585
C178	C	1.608207	0.145357	1.173585
C179	C	1.068680	-0.400611	0.622130
C180	C	1.568680	0.099389	1.122130
H181	H	1.141371	-0.316076	0.651727
H182	H	1.641371	0.183924	1.151727
H183	H	1.132117	-0.396608	0.701318
H184	H	1.632117	0.103392	1.201318
H185	H	1.077938	-0.320058	0.702600
H186	H	1.577938	0.179942	1.202600
H187	H	1.098949	-0.435202	0.593118
H188	H	1.598949	0.064798	1.093118
H189	H	1.044769	-0.358641	0.594385
H190	H	1.544769	0.141359	1.094385
H191	H	0.255689	-0.409517	0.289554
H192	H	0.755689	0.090483	0.789554
C193	C	0.517922	-0.660316	0.384675
C194	C	1.017922	-0.160316	0.884675
C195	C	0.560856	-0.606931	0.428582
C196	C	1.060856	-0.106931	0.928582
H197	H	0.490107	-0.699509	0.412285
H198	H	0.990107	-0.199509	0.912285
H199	H	0.546283	-0.694631	0.353559
H200	H	1.046283	-0.194631	0.853559
H201	H	0.488251	-0.623010	0.358414
H202	H	0.988251	-0.123010	0.858414
H203	H	0.590531	-0.644236	0.454840
H204	H	1.090531	-0.144236	0.954840
H205	H	0.532492	-0.572613	0.459711
H206	H	1.032492	-0.072613	0.959711
H207	H	0.721230	-0.380877	0.269362
H208	H	1.221230	0.119123	0.769362
C209	C	0.330420	-0.700758	0.494691
C210	C	0.830420	-0.200758	0.994691
C211	C	0.381851	-0.650888	0.459557
C212	C	0.881851	-0.150888	0.959557
H213	H	0.352298	-0.742607	0.524173
H214	H	0.852298	-0.242607	1.024173
H215	H	0.301662	-0.732020	0.461419
H216	H	0.801662	-0.232020	0.961419
H217	H	0.302427	-0.661466	0.522316
H218	H	0.802427	-0.161466	1.022316
H219	H	0.409840	-0.690179	0.431927
H220	H	0.909840	-0.190179	0.931927
H221	H	0.410621	-0.619624	0.492833
H222	H	0.910621	-0.119624	0.992833
C223	C	1.023359	-0.350399	0.819115
C224	C	1.523359	0.149601	1.319115
C225	C	1.062179	-0.408133	0.775818
C226	C	1.562179	0.091867	1.275818
H227	H	1.054428	-0.314259	0.846930
H228	H	1.554428	0.185741	1.346930
H229	H	0.993818	-0.384749	0.848782
H230	H	1.493818	0.115251	1.348782
H231	H	0.995513	-0.313024	0.790995
H232	H	1.495513	0.186976	1.290995
H233	H	1.090022	-0.445513	0.803939
H234	H	1.590022	0.054487	1.303939
H235	H	1.091732	-0.373780	0.746148
H236	H	1.591732	0.126220	1.246148
C237	C	1.077505	-0.390271	1.179621
C238	C	1.577505	0.109729	1.679621
C239	C	1.090542	-0.375128	1.108553
C240	C	1.590542	0.124872	1.608553
H241	H	1.108569	-0.354136	1.207444
H242	H	1.608569	0.145864	1.707444
H243	H	1.084642	-0.451739	1.189173
H244	H	1.584642	0.048261	1.689173
H245	H	1.030462	-0.375191	1.190444
H246	H	1.530462	0.124809	1.690444
H247	H	1.137583	-0.390214	1.097728
H248	H	1.637583	0.109786	1.597728
H249	H	1.083410	-0.313645	1.098996
H250	H	1.583410	0.186355	1.598996
H251	H	0.880313	-1.007351	0.247331
H252	H	1.380313	-0.507351	0.747331
H253	H	0.905752	-0.589969	1.080919
H254	H	1.405752	-0.089969	1.580919
C255	C	0.795626	-0.615187	0.737954
C256	C	1.295626	-0.115187	1.237954
C257	C	0.863464	-0.639167	0.757368
C258	C	1.363464	-0.139167	1.257368
H259	H	0.762458	-0.653746	0.759816
H260	H	1.262458	-0.153746	1.259816
H261	H	0.790921	-0.620670	0.688487
H262	H	1.290921	-0.120670	1.188487
H263	H	0.787489	-0.554886	0.752405
H264	H	1.287489	-0.054886	1.252405
H265	H	0.871603	-0.699466	0.742913
H266	H	1.371603	-0.199466	1.242913
H267	H	0.868172	-0.633693	0.806846
H268	H	1.368172	-0.133693	1.306846
H269	H	0.911370	-0.583466	0.948096
H270	H	1.411370	-0.083466	1.448096
H271	H	0.239825	-0.626216	0.442180
H272	H	0.739825	-0.126216	0.942180
H273	H	0.883000	-0.616456	0.615360
H274	H	1.383000	-0.116456	1.115360
