data_functionalizedCrystal
_audit_creation_method	'MofGen! by Chris Wilmer'
_symmetry_space_group_name_H-M	'P1'
_symmetry_Int_Tables_number	1
_symmetry_cell_setting	triclinic
loop_
_symmetry_equiv_pos_as_xyz
  x,y,z
_cell_length_a	10.723024
_cell_length_b	9.130313
_cell_length_c	10.654550
_cell_angle_alpha	89.995631
_cell_angle_beta	84.476400
_cell_angle_gamma	89.996784
loop_
_atom_site_label
_atom_site_type_symbol
_atom_site_fract_x
_atom_site_fract_y
_atom_site_fract_z
O1	O	1.657213	-0.121789	0.176149
O2	O	1.294063	-0.121794	0.193010
O3	O	1.483988	-0.121783	0.001839
O4	O	1.467289	-0.121801	0.367320
O5	O	1.483974	0.121816	0.001834
O6	O	1.294050	0.121804	0.193004
O7	O	1.657200	0.121809	0.176144
Cu8	Cu	1.475624	0.144049	0.184574
Cu9	Cu	1.475639	-0.144034	0.184580
O10	O	1.467275	0.121798	0.367315
C11	C	1.247557	0.000004	0.191780
C12	C	1.109002	0.000003	0.188109
N13	N	1.475622	0.346672	0.184568
N14	N	1.475651	-0.346657	0.184576
C15	C	1.034035	-0.000004	0.295078
C16	C	0.890831	-0.000005	0.291287
C17	C	1.703706	0.000007	0.177373
C18	C	1.842261	-0.000001	0.181045
C19	C	1.482755	0.000016	-0.044961
C20	C	1.479086	0.000014	-0.184404
C21	C	1.559749	0.423329	0.099954
C22	C	1.559761	0.576666	0.099954
C23	C	1.391515	0.576675	0.269194
C24	C	1.391498	0.423341	0.269187
C25	C	1.590911	0.000015	-0.263907
C26	C	1.587457	-0.000003	-0.394927
C27	C	1.360343	-0.000017	-0.366929
C28	C	1.363799	-0.000010	-0.235912
C29	C	1.468508	-0.000004	0.414115
C30	C	1.472176	-0.000012	0.553558
H31	H	0.826412	-0.000017	0.382860
H32	H	0.906673	-0.000004	0.089466
H33	H	1.266480	-0.000033	-0.408883
H34	H	1.272732	-0.000015	-0.171177
H35	H	1.628246	0.360909	0.031050
N36	N	1.089434	-0.000000	0.420113
H37	H	1.183882	0.000002	0.405099
H38	H	1.060682	-0.090309	0.469450
N39	N	1.053591	0.000022	0.063080
H40	H	1.000184	-0.090278	0.056626
H41	H	1.123360	0.000084	-0.007715
H42	H	1.628263	0.639076	0.031052
N43	N	1.300752	0.340663	0.360462
H44	H	1.348905	0.277021	0.416507
H45	H	1.245103	0.277154	0.311862
H46	H	1.323024	0.639114	0.338091
N47	N	1.715254	0.000033	-0.208355
H48	H	1.721759	-0.090261	-0.154606
H49	H	1.721664	0.090403	-0.154697
H50	H	1.678516	-0.000006	-0.459653
