data_functionalizedCrystal
_audit_creation_method	'MofGen! by Chris Wilmer'
_symmetry_space_group_name_H-M	'P1'
_symmetry_Int_Tables_number	1
_symmetry_cell_setting	triclinic
loop_
_symmetry_equiv_pos_as_xyz
  x,y,z
_cell_length_a	12.827893
_cell_length_b	13.897447
_cell_length_c	13.897441
_cell_angle_alpha	89.970673
_cell_angle_beta	89.980094
_cell_angle_gamma	90.019501
loop_
_atom_site_label
_atom_site_type_symbol
_atom_site_fract_x
_atom_site_fract_y
_atom_site_fract_z
Zn1	Zn	1.597646	-0.383985	-0.545368
Zn2	Zn	1.597526	-0.545307	-0.384073
Zn3	Zn	1.422886	-0.384027	-0.384089
Zn4	Zn	1.422860	-0.545240	-0.545328
O5	O	1.510229	-0.464640	-0.464715
O6	O	1.743866	-0.405395	-0.523982
O7	O	1.574319	-0.523958	-0.249094
O8	O	1.446129	-0.249040	-0.405506
O9	O	1.743778	-0.523917	-0.405480
O10	O	1.574525	-0.249009	-0.523998
O11	O	1.446012	-0.405467	-0.249105
O12	O	1.276646	-0.405402	-0.405468
O13	O	1.446086	-0.523803	-0.680315
O14	O	1.276627	-0.523844	-0.523929
O15	O	1.574500	-0.405330	-0.680345
O16	O	1.574295	-0.680279	-0.405441
O17	O	1.445969	-0.680230	-0.523914
C18	C	1.238719	-0.464621	-0.464696
C19	C	1.122566	-0.464636	-0.464711
C20	C	1.070800	-0.523337	-0.523240
C21	C	0.950750	-0.523354	-0.523257
C22	C	1.510144	-0.715254	-0.464692
C23	C	1.510204	-0.822468	-0.464715
C24	C	1.510254	-0.909538	-0.464737
C25	C	1.510327	-1.018770	-0.464762
C26	C	1.782799	-0.464659	-0.464734
C27	C	1.898953	-0.464667	-0.464742
C28	C	1.510303	-0.464554	-0.716308
C29	C	1.510335	-0.464518	-0.823522
C30	C	1.510343	-0.213047	-0.464758
C31	C	1.510392	-0.105833	-0.464777
C32	C	1.510363	-0.464453	-1.019817
C33	C	1.510344	-0.464492	-0.910585
C34	C	1.510216	-0.464655	-0.214100
C35	C	1.510387	-0.464419	-0.106887
H36	H	0.906232	-0.573612	-0.573362
C37	C	1.021752	-0.451195	-0.335103
C38	C	0.959038	-0.396818	-0.397091
H39	H	1.058856	-0.409307	-0.293343
H40	H	0.979141	-0.493136	-0.298106
H41	H	1.069804	-0.488009	-0.371822
H42	H	0.910980	-0.360010	-0.360371
H43	H	1.001652	-0.354861	-0.434091
C44	C	1.193748	-0.536773	-0.652841
C45	C	1.130944	-0.591166	-0.590870
H46	H	1.230881	-0.578652	-0.694589
H47	H	1.151194	-0.494845	-0.689850
H48	H	1.241775	-0.499944	-0.616107
H49	H	1.082912	-0.627990	-0.627603
H50	H	1.173501	-0.633111	-0.553856
H51	H	1.078009	-0.414389	-0.414620
