data_functionalizedCrystal
_audit_creation_method	'MofGen! by Chris Wilmer'
_symmetry_space_group_name_H-M	'P1'
_symmetry_Int_Tables_number	1
_symmetry_cell_setting	triclinic
loop_
_symmetry_equiv_pos_as_xyz
  x,y,z
_cell_length_a	14.853558
_cell_length_b	14.853567
_cell_length_c	11.804365
_cell_angle_alpha	101.851263
_cell_angle_beta	78.135926
_cell_angle_gamma	83.633032
loop_
_atom_site_label
_atom_site_type_symbol
_atom_site_fract_x
_atom_site_fract_y
_atom_site_fract_z
O1	O	1.214556	0.099488	-0.099003
O2	O	1.714556	0.599488	0.400997
O3	O	0.952096	0.113517	-0.099008
O4	O	1.452096	0.613517	0.400992
O5	O	1.090338	-0.024728	-0.099009
O6	O	1.590338	0.475272	0.400991
O7	O	1.076315	0.237733	-0.099002
O8	O	1.576315	0.737733	0.400998
O9	O	1.053944	0.011630	0.099047
O10	O	1.553944	0.511630	0.599047
O11	O	0.915703	0.149875	0.099049
O12	O	1.415703	0.649875	0.599049
O13	O	1.178163	0.135846	0.099053
O14	O	1.678163	0.635846	0.599053
Cu15	Cu	1.043610	0.146180	0.117135
Cu16	Cu	1.543610	0.646180	0.617135
Cu17	Cu	1.086649	0.103183	-0.117090
Cu18	Cu	1.586649	0.603183	0.382910
O19	O	1.039921	0.274091	0.099054
O20	O	1.539921	0.774091	0.599054
C21	C	0.900311	0.131062	0.000020
C22	C	1.400311	0.631062	0.500020
C23	C	0.800227	0.129161	0.000018
C24	C	1.300227	0.629161	0.500018
C25	C	0.773046	0.108450	-0.107947
C26	C	1.273046	0.608450	0.392053
C27	C	0.733366	0.148078	0.107981
C28	C	1.233366	0.648078	0.607981
C29	C	0.639332	0.146288	0.107983
C30	C	1.139332	0.646288	0.607983
C31	C	0.612151	0.125577	0.000018
C32	C	1.112151	0.625577	0.500018
C33	C	0.679004	0.106656	-0.107949
C34	C	1.179004	0.606656	0.392051
C35	C	0.572474	0.165199	0.215948
C36	C	1.072474	0.665199	0.715948
C37	C	0.478434	0.163409	0.215954
C38	C	0.978434	0.663409	0.715954
C39	C	0.451250	0.142704	0.107988
C40	C	0.951250	0.642704	0.607988
C41	C	0.518110	0.123784	0.000017
C42	C	1.018110	0.623784	0.500017
C43	C	0.490928	0.103073	-0.107948
C44	C	0.990928	0.603073	0.392052
C45	C	0.557785	0.084159	-0.215921
C46	C	1.057785	0.584159	0.284079
C47	C	0.651821	0.085952	-0.215915
C48	C	1.151821	0.585952	0.284085
C49	C	0.357215	0.140911	0.107982
C50	C	0.857215	0.640911	0.607982
C51	C	0.396887	0.101279	-0.107950
C52	C	0.896887	0.601279	0.392050
C53	C	1.071506	-0.040139	0.000016
C54	C	1.571506	0.459861	0.500016
C55	C	1.069604	-0.140224	0.000005
C56	C	1.569604	0.359776	0.500005
C57	C	0.979434	-0.552751	0.000027
C58	C	1.479434	-0.052751	0.500027
C59	C	1.143667	-0.574037	0.000029
C60	C	1.643667	-0.074037	0.500029
C61	C	1.145459	-0.480005	0.000022
C62	C	1.645459	0.019995	0.500022
C63	C	1.064236	-0.422341	0.000019
C64	C	1.564236	0.077659	0.500019
C65	C	0.981223	-0.458709	0.000023
C66	C	1.481223	0.041291	0.500023
C67	C	1.228469	-0.443627	0.000030
C68	C	1.728469	0.056373	0.500030
C69	C	1.230263	-0.349589	0.000025
C70	C	1.730263	0.150411	0.500025
C71	C	1.149041	-0.291925	0.000013
C72	C	1.649041	0.208075	0.500013
C73	C	1.066025	-0.328299	0.000016
C74	C	1.566025	0.171701	0.500016
C75	C	0.984802	-0.270635	0.000013
C76	C	1.484802	0.229365	0.500013
C77	C	0.901786	-0.307008	0.000007
C78	C	1.401786	0.192992	0.500007
C79	C	0.900001	-0.401045	0.000012
C80	C	1.400001	0.098955	0.500012
C81	C	1.150827	-0.197888	0.000008
C82	C	1.650827	0.302112	0.500008
C83	C	0.986590	-0.176592	0.000009
C84	C	1.486590	0.323408	0.500009
C85	C	1.229949	0.118301	0.000023
C86	C	1.729949	0.618301	0.500023
C87	C	1.330034	0.120200	0.000017
C88	C	1.830034	0.620200	0.500017
C89	C	1.058753	0.289501	0.000027
C90	C	1.558753	0.789501	0.500027
C91	C	1.060657	0.389585	0.000030
C92	C	1.560657	0.889585	0.500030
N93	N	1.013344	0.176422	0.281876
N94	N	1.513344	0.676422	0.781876
N95	N	1.116922	0.072934	-0.281830
N96	N	1.616922	0.572934	0.218170
C97	C	1.189600	0.000295	0.655823
C98	C	1.689600	0.500295	1.155823
C99	C	1.212494	-0.022586	0.531161
C100	C	1.712494	0.477414	1.031161
C101	C	1.162708	0.027164	0.468834
C102	C	1.662708	0.527164	0.968834
C103	C	1.090025	0.099799	0.531180
C104	C	1.590025	0.599799	1.031180
C105	C	1.067133	0.122688	0.655854
C106	C	1.567133	0.622688	1.155854
C107	C	1.040241	0.149556	0.468865
C108	C	1.540241	0.649556	0.968865
C109	C	0.967558	0.222192	0.531212
C110	C	1.467558	0.722192	1.031212
C111	C	0.944669	0.245076	0.655874
C112	C	1.444669	0.745076	1.155874
C113	C	0.994455	0.195327	0.718201
C114	C	1.494455	0.695327	1.218201
C115	C	1.063133	0.126668	0.344191
C116	C	1.563133	0.626668	0.844191
C117	C	0.940666	0.249060	0.344223
C118	C	1.440666	0.749060	0.844223
C119	C	0.917772	0.271942	0.468884
C120	C	1.417772	0.771942	0.968884
H121	H	0.302783	0.156319	0.195892
H122	H	0.802783	0.656319	0.695892
H123	H	0.832413	-0.430669	0.000008
H124	H	1.332413	0.069331	0.500008
Cl125	Cl	0.523605	0.058102	-0.351642
Cl126	Cl	1.023605	0.558102	0.148358
H127	H	1.294593	-0.490581	0.000044
H128	H	1.794593	0.009419	0.500044
Cl129	Cl	1.334628	-0.303874	0.000012
Cl130	Cl	1.834628	0.196126	0.500012
Cl131	Cl	1.252188	-0.062233	0.734178
Cl132	Cl	1.752188	0.437767	1.234178
H133	H	0.975812	0.213954	0.819711
H134	H	1.475812	0.713954	1.319711
H135	H	0.827484	0.093054	-0.195856
H136	H	1.327484	0.593054	0.304144
Cl137	Cl	0.767540	0.174112	0.243701
Cl138	Cl	1.267540	0.674112	0.743701
H139	H	0.900128	0.289573	0.293476
H140	H	1.400128	0.789573	0.793476
H141	H	1.122313	0.067528	0.293439
H142	H	1.622313	0.567528	0.793439
H143	H	1.209793	-0.620990	0.000041
H144	H	1.709793	-0.120990	0.500041
Cl145	Cl	0.875078	-0.598477	0.000008
Cl146	Cl	1.375078	-0.098477	0.500008
Cl147	Cl	0.606649	0.191237	0.351666
Cl148	Cl	1.106649	0.691237	0.851666
H149	H	0.920449	-0.129649	0.000002
H150	H	1.420449	0.370351	0.500002
H151	H	0.885492	0.304227	0.706637
H152	H	1.385492	0.804227	1.206637
Cl153	Cl	0.394393	0.187199	0.351688
Cl154	Cl	0.894393	0.687199	0.851688
Cl155	Cl	1.255177	-0.152160	0.000038
Cl156	Cl	1.755177	0.347840	0.500038
Cl157	Cl	0.362724	0.075248	-0.243686
Cl158	Cl	0.862724	0.575248	0.256314
Cl159	Cl	0.735874	0.062164	-0.351638
Cl160	Cl	1.235874	0.562164	0.148362
H161	H	1.181353	0.008530	0.367328
H162	H	1.681353	0.508530	0.867328
Cl163	Cl	0.799680	-0.234504	0.000013
Cl164	Cl	1.299680	0.265496	0.500013
H165	H	1.271673	-0.081724	0.480403
H166	H	1.771673	0.418276	0.980403
H167	H	0.858591	0.331084	0.519663
H168	H	1.358591	0.831084	1.019663
