data_functionalizedCrystal
_audit_creation_method	'MofGen! by Chris Wilmer'
_symmetry_space_group_name_H-M	'P1'
_symmetry_Int_Tables_number	1
_symmetry_cell_setting	triclinic
loop_
_symmetry_equiv_pos_as_xyz
  x,y,z
_cell_length_a	14.908571
_cell_length_b	19.121063
_cell_length_c	14.910749
_cell_angle_alpha	95.531922
_cell_angle_beta	90.117042
_cell_angle_gamma	89.303906
loop_
_atom_site_label
_atom_site_type_symbol
_atom_site_fract_x
_atom_site_fract_y
_atom_site_fract_z
Zn1	Zn	1.324683	-0.366235	-0.606270
Zn2	Zn	1.824683	0.133765	-0.106270
Zn3	Zn	1.326685	-0.477336	-0.461641
Zn4	Zn	1.826685	0.022664	0.038359
Zn5	Zn	1.183619	-0.352796	-0.446608
Zn6	Zn	1.683619	0.147204	0.053392
Zn7	Zn	1.167904	-0.476460	-0.603221
Zn8	Zn	1.667904	0.023540	-0.103221
O9	O	1.250723	-0.418207	-0.529435
O10	O	1.750723	0.081793	-0.029435
O11	O	1.450435	-0.386963	-0.594652
O12	O	1.950435	0.113037	-0.094652
O13	O	1.315121	-0.455559	-0.333576
O14	O	1.815121	0.044441	0.166424
O15	O	1.208070	-0.256329	-0.462772
O16	O	1.708070	0.243671	0.037228
O17	O	1.451906	-0.468589	-0.488394
O18	O	1.951906	0.031411	0.011606
O19	O	1.311710	-0.266202	-0.580075
O20	O	1.811710	0.233798	-0.080075
O21	O	1.210011	-0.364060	-0.322531
O22	O	1.710011	0.135940	0.177469
O23	O	1.056048	-0.363210	-0.459815
O24	O	1.556048	0.136790	0.040185
O25	O	1.181286	-0.467095	-0.729696
O26	O	1.681286	0.032905	-0.229696
O27	O	1.044502	-0.454065	-0.574878
O28	O	1.544502	0.045935	-0.074878
O29	O	1.296472	-0.386113	-0.731936
O30	O	1.796472	0.113887	-0.231936
O31	O	1.299883	-0.575470	-0.485437
O32	O	1.799883	-0.075470	0.014563
O33	O	1.183228	-0.574826	-0.589455
O34	O	1.683228	-0.074826	-0.089455
C35	C	1.017737	-0.407084	-0.515385
C36	C	1.517737	0.092916	-0.015385
C37	C	0.918063	-0.402344	-0.509397
C38	C	1.418063	0.097656	-0.009397
C39	C	0.718791	-0.488176	-0.617812
C40	C	1.218791	0.011824	-0.117812
C41	C	0.625138	-0.483724	-0.612189
C42	C	1.125138	0.016276	-0.112189
C43	C	0.637101	-0.388986	-0.492532
C44	C	1.137101	0.111014	0.007468
C45	C	0.730755	-0.393438	-0.498156
C46	C	1.230755	0.106562	0.001844
C47	C	0.771596	-0.443035	-0.560797
C48	C	1.271596	0.056965	-0.060797
C49	C	0.865251	-0.447490	-0.566415
C50	C	1.365251	0.052510	-0.066415
C51	C	0.877213	-0.352748	-0.446763
C52	C	1.377213	0.147252	0.053237
C53	C	0.783559	-0.348297	-0.441140
C54	C	1.283559	0.151703	0.058860
C55	C	1.240091	-0.600625	-0.538768
C56	C	1.740091	-0.100625	-0.038768
C57	C	1.235622	-0.678669	-0.542796
C58	C	1.735622	-0.178669	-0.042796
C59	C	1.294302	-0.715651	-0.490582
C60	C	1.794302	-0.215651	0.009418
C61	C	1.290104	-0.788982	-0.494376
C62	C	1.790104	-0.288982	0.005624
C63	C	1.227223	-0.825331	-0.550379
C64	C	1.727223	-0.325331	-0.050379
C65	C	1.168541	-0.788344	-0.602599
C66	C	1.668541	-0.288344	-0.102599
C67	C	1.172743	-0.715014	-0.598810
C68	C	1.672743	-0.215014	-0.098810
C69	C	1.211498	-1.046723	-0.564533
C70	C	1.711498	-0.546723	-0.064533
C71	C	1.207299	-1.120058	-0.568316
C72	C	1.707299	-0.620058	-0.068316
C73	C	1.328863	-1.120692	-0.460094
C74	C	1.828863	-0.620692	0.039906
C75	C	1.333056	-1.047360	-0.456305
C76	C	1.833056	-0.547360	0.043695
C77	C	1.274378	-1.010380	-0.508528
C78	C	1.774378	-0.510380	-0.008528
C79	C	1.222929	-0.900287	-0.554256
C80	C	1.722929	-0.400287	-0.054256
C81	C	1.278676	-0.935426	-0.504656
C82	C	1.778676	-0.435426	-0.004656
C83	C	1.484618	-0.429373	-0.543540
C84	C	1.984618	0.070627	-0.043540
C85	C	1.584290	-0.434132	-0.549550
C86	C	2.084290	0.065868	-0.049550
C87	C	1.236903	-0.428005	-0.764419
C88	C	1.736903	0.071995	-0.264419
C89	C	1.231014	-0.432181	-0.864555
C90	C	1.731014	0.067819	-0.364555
C91	C	1.261419	-0.235078	-0.520086
C92	C	1.761419	0.264922	-0.020086
C93	C	1.265978	-0.157040	-0.516102
C94	C	1.765978	0.342960	-0.016102
C95	C	1.264543	-0.408398	-0.295365
C96	C	1.764543	0.091602	0.204635
C97	C	1.270618	-0.404033	-0.195230
C98	C	1.770618	0.095967	0.304770
C99	C	1.162896	-0.480823	-0.004320
C100	C	1.662896	0.019177	0.495680
C101	C	1.168600	-0.476724	0.089766
C102	C	1.668600	0.023276	0.589766
C103	C	1.287725	-0.391732	0.087031
C104	C	1.787725	0.108268	0.587031
C105	C	1.282021	-0.395832	-0.007055
C106	C	1.782021	0.104168	0.492945
C107	C	1.219605	-0.440379	-0.052727
C108	C	1.719605	0.059621	0.447273
C109	C	1.213906	-0.444482	-0.146816
C110	C	1.713906	0.055518	0.353184
C111	C	1.333026	-0.359487	-0.149549
C112	C	1.833026	0.140513	0.350451
C113	C	1.338730	-0.355388	-0.055463
C114	C	1.838730	0.144612	0.444537
H115	H	0.603832	-0.348602	-0.441539
H116	H	1.103832	0.151398	0.058461
H117	H	1.389545	-0.319117	-0.018264
H118	H	1.889545	0.180883	0.481736
Br119	Br	0.728123	-0.280985	-0.356138
Br120	Br	1.228123	0.219015	0.143862
Br121	Br	0.948882	-0.291490	-0.369370
Br122	Br	1.448882	0.208510	0.130630
Br123	Br	1.418409	-0.998037	-0.380310
Br124	Br	1.918409	-0.498037	0.119690
H125	H	1.345502	-0.686061	-0.444974
H126	H	1.845502	-0.186061	0.055026
Br127	Br	1.091630	-0.531610	0.155461
Br128	Br	1.591630	-0.031610	0.655461
Br129	Br	0.553476	-0.544986	-0.689574
Br130	Br	1.053476	-0.044986	-0.189574
Br131	Br	1.369749	-0.839170	-0.423516
Br132	Br	1.869749	-0.339170	0.076484
Br133	Br	1.408498	-1.170883	-0.389228
Br134	Br	1.908498	-0.670883	0.110772
Br135	Br	1.131863	-0.996546	-0.635408
Br136	Br	1.631863	-0.496546	-0.135408
H137	H	1.156103	-1.149652	-0.613938
H138	H	1.656103	-0.649652	-0.113938
H139	H	1.379204	-0.326556	-0.188973
H140	H	1.879204	0.173444	0.311027
Br141	Br	1.083208	-0.837673	-0.678613
Br142	Br	1.583208	-0.337673	-0.178613
H143	H	1.124962	-0.684904	-0.641329
H144	H	1.624962	-0.184904	-0.141329
H145	H	1.329878	-0.905829	-0.459061
H146	H	1.829878	-0.405829	0.040939
H147	H	1.171730	-0.929890	-0.599853
H148	H	1.671730	-0.429890	-0.099853
H149	H	1.163086	-0.480756	-0.184001
H150	H	1.663086	0.019244	0.315999
H151	H	0.898503	-0.487875	-0.617419
H152	H	1.398503	0.012125	-0.117419
H153	H	1.112080	-0.517100	-0.041507
H154	H	1.612080	-0.017100	0.458493
Br155	Br	0.774224	-0.555493	-0.702810
Br156	Br	1.274224	-0.055493	-0.202810
H157	H	1.338536	-0.355460	0.124234
H158	H	1.838536	0.144540	0.624234
