data_functionalizedCrystal
_audit_creation_method	'MofGen! by Chris Wilmer'
_symmetry_space_group_name_H-M	'P1'
_symmetry_Int_Tables_number	1
_symmetry_cell_setting	triclinic
loop_
_symmetry_equiv_pos_as_xyz
  x,y,z
_cell_length_a	19.188930
_cell_length_b	27.732048
_cell_length_c	17.666332
_cell_angle_alpha	89.988553
_cell_angle_beta	89.976766
_cell_angle_gamma	82.893716
loop_
_atom_site_label
_atom_site_type_symbol
_atom_site_fract_x
_atom_site_fract_y
_atom_site_fract_z
O1	O	0.925765	0.060348	-0.063200
O2	O	0.722402	0.068472	-0.063149
O3	O	0.830399	-0.005968	-0.063161
O4	O	0.817767	0.134787	-0.063187
O5	O	0.830380	-0.005971	0.062735
O6	O	0.722383	0.068468	0.062748
O7	O	0.925746	0.060344	0.062697
Cu8	Cu	0.824063	0.064406	0.074218
Cu9	Cu	0.824085	0.064410	-0.074670
O10	O	0.817748	0.134783	0.062710
C11	C	0.696383	0.068207	-0.000194
C12	C	0.618883	0.067417	-0.000174
C13	C	0.573681	0.111096	-0.000194
C14	C	0.500862	0.110354	-0.000202
C15	C	0.473249	0.065931	-0.000205
C16	C	0.518461	0.022246	-0.000181
C17	C	0.591278	0.022990	-0.000165
N18	N	0.365491	0.031976	-0.043078
N19	N	0.296317	0.031273	-0.043094
C20	C	0.253854	0.063689	-0.000251
N21	N	0.283177	0.096841	0.042600
N22	N	0.352357	0.097546	0.042613
C23	C	0.394291	0.065120	-0.000222
C24	C	0.129692	0.106566	-0.000279
C25	C	0.056872	0.105822	-0.000282
C26	C	0.074473	0.017714	-0.000269
C27	C	0.147292	0.018459	-0.000258
C28	C	0.174897	0.062886	-0.000267
C29	C	0.830125	-0.023977	-0.000211
C30	C	0.829326	-0.077635	-0.000204
C31	C	0.888119	-0.416270	-0.000258
C32	C	0.885157	-0.617939	-0.000268
O33	O	0.938918	-0.649030	-0.000314
N34	N	0.821118	-0.637258	-0.000251
C35	C	0.757816	-0.606157	-0.000237
O36	O	0.703280	-0.627217	-0.000231
C37	C	0.760780	-0.404489	-0.000233
C38	C	0.824822	-0.385173	-0.000242
C39	C	0.952156	-0.396953	-0.000268
C40	C	0.952896	-0.346539	-0.000261
C41	C	0.889599	-0.315441	-0.000245
C42	C	0.825562	-0.334759	-0.000235
C43	C	0.697478	-0.373389	-0.000224
C44	C	0.698225	-0.322969	-0.000225
C45	C	0.762267	-0.303653	-0.000234
C46	C	0.763005	-0.253247	-0.000212
N47	N	0.827043	-0.233928	-0.000229
C48	C	0.890340	-0.265025	-0.000245
C49	C	0.756265	-0.712036	-0.000238
C50	C	0.755524	-0.762452	-0.000238
C51	C	0.882865	-0.774231	-0.000270
C52	C	0.883605	-0.723813	-0.000265
C53	C	0.820303	-0.692716	-0.000254
C54	C	0.891889	-0.159151	-0.000231
C55	C	0.892623	-0.108732	-0.000221
C56	C	0.765283	-0.096958	-0.000193
C57	C	0.764549	-0.147373	-0.000198
C58	C	0.827857	-0.178468	-0.000220
O59	O	0.709272	-0.222127	-0.000174
O60	O	0.944868	-0.243956	-0.000268
C61	C	0.887379	-0.466684	-0.000265
C62	C	0.823342	-0.486001	-0.000255
C63	C	0.760045	-0.454904	-0.000238
C64	C	0.822601	-0.536418	-0.000254
C65	C	0.885898	-0.567515	-0.000271
C66	C	0.949936	-0.548195	-0.000288
C67	C	0.950676	-0.497781	-0.000281
C68	C	0.696007	-0.474223	-0.000222
C69	C	0.695272	-0.524638	-0.000227
C70	C	0.758569	-0.555735	-0.000244
C71	C	0.951765	0.060609	-0.000260
C72	C	1.029264	0.061399	-0.000285
C73	C	0.818023	0.152793	-0.000243
C74	C	0.818821	0.206450	-0.000254
N75	N	0.824052	0.064402	0.178937
N76	N	0.824101	0.064410	-0.179389
C77	C	0.871889	0.031456	0.218541
C78	C	0.871893	0.031454	0.297789
C79	C	0.824067	0.064406	0.337429
C80	C	0.776221	0.097354	0.297816
C81	C	0.776214	0.097352	0.218570
N82	N	0.814718	0.107196	0.461842
N83	N	0.814729	0.107196	0.537122
C84	C	0.824085	0.064412	0.576193
N85	N	0.833444	0.021627	0.537140
N86	N	0.833436	0.021628	0.461853
C87	C	0.824069	0.064411	0.423359
C88	C	0.871929	0.031462	0.701727
C89	C	0.871928	0.031459	0.780976
C90	C	0.776260	0.097363	0.781001
C91	C	0.776257	0.097361	0.701754
C92	C	0.824096	0.064411	0.662121
H93	H	0.051991	-0.018456	-0.000319
H94	H	0.910880	0.004628	0.813222
C95	C	0.628590	-0.288763	-0.000211
C96	C	0.575975	-0.290829	-0.065576
C97	C	0.506342	-0.256624	-0.065561
C98	C	0.489324	-0.220353	-0.000180
C99	C	0.541940	-0.218286	0.065190
C100	C	0.611574	-0.252491	0.065174
H101	H	0.588572	-0.317680	-0.113979
H102	H	0.467392	-0.258154	-0.113952
H103	H	0.437777	-0.195032	-0.000169
H104	H	0.529344	-0.191435	0.113593
H105	H	0.650524	-0.250961	0.113566
C106	C	0.723595	0.133597	0.174999
C107	C	0.671004	0.169858	0.218595
C108	C	0.618385	0.206104	0.175023
C109	C	0.618357	0.206089	0.087855
C110	C	0.670950	0.169826	0.044255
C111	C	0.723569	0.133580	0.087827
H112	H	0.671022	0.169870	0.283126
H113	H	0.579452	0.232948	0.207299
H114	H	0.579406	0.232920	0.055600
H115	H	0.670932	0.169814	-0.020276
H116	H	0.762502	0.106737	0.055551
C117	C	0.924543	-0.004787	0.658127
C118	C	0.924544	-0.004789	0.570959
C119	C	0.977158	-0.041038	0.527363
C120	C	1.029771	-0.077284	0.570934
C121	C	1.029772	-0.077283	0.658106
C122	C	0.977158	-0.041034	0.701703
H123	H	0.885595	0.022043	0.538701
H124	H	0.977156	-0.041039	0.462832
H125	H	1.068719	-0.104118	0.538661
H126	H	1.068721	-0.104116	0.690365
H127	H	0.977159	-0.041033	0.766234
C128	C	0.723643	0.133607	0.658182
C129	C	0.671052	0.169868	0.701777
C130	C	0.618433	0.206114	0.658205
C131	C	0.618406	0.206099	0.571037
C132	C	0.670999	0.169836	0.527437
C133	C	0.723617	0.133590	0.571010
H134	H	0.671071	0.169880	0.766308
H135	H	0.579501	0.232958	0.690481
H136	H	0.579454	0.232930	0.538783
H137	H	0.670980	0.169824	0.462906
H138	H	0.762550	0.106746	0.538733
H139	H	0.596152	0.147272	-0.000202
H140	H	0.712400	-0.163101	-0.000170
C141	C	0.197020	-0.029589	-0.000249
C142	C	0.166651	-0.078455	-0.000254
C143	C	0.216380	-0.126505	-0.000243
C144	C	0.296476	-0.125690	-0.000227
C145	C	0.326849	-0.076822	-0.000222
C146	C	0.277120	-0.028772	-0.000233
H147	H	0.107355	-0.079060	-0.000266
H148	H	0.193895	-0.162680	-0.000247
H149	H	0.333288	-0.161259	-0.000219
H150	H	0.386145	-0.076217	-0.000210
H151	H	0.299605	0.007403	-0.000229
H152	H	0.934404	-0.799559	-0.000283
H153	H	0.713749	-0.071630	-0.000177
H154	H	0.020068	0.141392	-0.000294
C155	C	0.924502	-0.004791	0.174944
C156	C	0.924494	-0.004795	0.087776
C157	C	0.977105	-0.041043	0.044175
C158	C	1.029725	-0.077287	0.087742
C159	C	1.029735	-0.077285	0.174914
C160	C	0.977123	-0.041037	0.218515
H161	H	0.885540	0.022036	0.055521
H162	H	0.977098	-0.041045	-0.020356
H163	H	1.068671	-0.104120	0.055466
H164	H	1.068689	-0.104116	0.207169
H165	H	0.977131	-0.041035	0.283046
H166	H	0.704714	-0.686720	-0.000229
H167	H	0.944776	-0.093007	-0.000226
C168	C	0.488090	-0.026619	-0.000187
C169	C	0.440409	-0.039247	0.065176
C170	C	0.410039	-0.088115	0.065175
C171	C	0.427349	-0.124355	-0.000189
C172	C	0.475032	-0.111728	-0.065557
C173	C	0.505402	-0.062861	-0.065556
H174	H	0.427593	-0.012419	0.113567
H175	H	0.374740	-0.097461	0.113565
H176	H	0.404867	-0.160529	-0.000190
H177	H	0.487848	-0.138556	-0.113949
H178	H	0.540700	-0.053514	-0.113946
C179	C	0.961528	-0.193351	-0.000248
C180	C	1.014138	-0.191282	0.065120
C181	C	1.083776	-0.225482	0.065109
C182	C	1.100803	-0.261752	-0.000271
C183	C	1.048191	-0.263823	-0.065645
C184	C	0.978553	-0.229623	-0.065633
H185	H	1.001535	-0.164432	0.113523
H186	H	1.122722	-0.223949	0.113503
H187	H	1.152353	-0.287069	-0.000279
H188	H	1.060795	-0.290673	-0.114047
H189	H	0.939607	-0.231156	-0.114027
C190	C	0.451127	0.158403	-0.000233
C191	C	0.481491	0.207270	-0.000244
C192	C	0.431759	0.255319	-0.000279
C193	C	0.351663	0.254500	-0.000301
C194	C	0.321295	0.205631	-0.000289
C195	C	0.371027	0.157582	-0.000255
H196	H	0.540787	0.207878	-0.000228
H197	H	0.454240	0.291495	-0.000287
H198	H	0.314848	0.290068	-0.000326
H199	H	0.261999	0.205023	-0.000306
H200	H	0.348546	0.121406	-0.000247
H201	H	0.737317	0.124191	0.813276
C202	C	1.021791	-0.431154	-0.000282
C203	C	1.074401	-0.429079	0.065086
C204	C	1.144041	-0.463276	0.065079
C205	C	1.161072	-0.499549	-0.000296
C206	C	1.108461	-0.501626	-0.065669
C207	C	1.038821	-0.467429	-0.065662
H208	H	1.061794	-0.402226	0.113485
H209	H	1.182987	-0.461738	0.113473
H210	H	1.212624	-0.524864	-0.000301
H211	H	1.121067	-0.528479	-0.114068
H212	H	0.999875	-0.468967	-0.114056
H213	H	0.628083	-0.012580	-0.000150
H214	H	0.152169	0.142741	-0.000275
H215	H	1.005046	-0.330816	-0.000272
C216	C	1.019564	-0.582409	-0.000308
C217	C	1.036551	-0.618703	0.065056
C218	C	1.106175	-0.652918	0.065030
C219	C	1.158811	-0.650840	-0.000359
C220	C	1.141826	-0.614545	-0.065727
C221	C	1.072202	-0.580329	-0.065702
H222	H	0.997585	-0.620242	0.113465
H223	H	1.118748	-0.679787	0.113421
H224	H	1.210351	-0.676169	-0.000378
H225	H	1.180791	-0.613005	-0.114137
H226	H	1.059629	-0.553461	-0.114093
H227	H	0.935754	-0.708089	-0.000273
C228	C	0.627027	-0.394625	-0.000219
C229	C	0.574587	-0.382831	0.065161
C230	C	0.504129	-0.404064	0.065165
C231	C	0.486111	-0.437090	-0.000211
C232	C	0.538552	-0.448885	-0.065596
C233	C	0.609010	-0.427652	-0.065600
H234	H	0.587924	-0.358382	0.113561
H235	H	0.465309	-0.395332	0.113568
H236	H	0.433954	-0.452807	-0.000208
H237	H	0.525216	-0.473334	-0.113995
H238	H	0.647830	-0.436384	-0.114002
H239	H	0.703375	-0.778175	-0.000217
H240	H	0.643117	-0.540360	-0.000213
H241	H	1.002826	-0.482059	-0.000289
H242	H	0.644461	-0.448908	-0.000210
H243	H	0.737280	0.124183	0.330095
H244	H	0.910848	0.004625	0.330041
