data_functionalizedCrystal
_audit_creation_method	'MofGen! by Chris Wilmer'
_symmetry_space_group_name_H-M	'P1'
_symmetry_Int_Tables_number	1
_symmetry_cell_setting	triclinic
loop_
_symmetry_equiv_pos_as_xyz
  x,y,z
_cell_length_a	17.699104
_cell_length_b	23.532407
_cell_length_c	22.010155
_cell_angle_alpha	89.990798
_cell_angle_beta	89.983410
_cell_angle_gamma	83.070097
loop_
_atom_site_label
_atom_site_type_symbol
_atom_site_fract_x
_atom_site_fract_y
_atom_site_fract_z
O1	O	1.003713	0.072074	-0.050544
O2	O	1.503713	0.572074	0.449456
O3	O	0.783289	0.081431	-0.050543
O4	O	1.283289	0.581431	0.449457
O5	O	0.900148	-0.006160	-0.050532
O6	O	1.400148	0.493840	0.449468
O7	O	0.886854	0.159665	-0.050554
O8	O	1.386854	0.659665	0.449446
O9	O	0.900113	-0.006160	0.050518
O10	O	1.400113	0.493840	0.550518
O11	O	0.783254	0.081431	0.050507
O12	O	1.283254	0.581431	0.550507
O13	O	1.003678	0.072074	0.050507
O14	O	1.503678	0.572074	0.550507
Cu15	Cu	0.893463	0.076752	0.059734
Cu16	Cu	1.393463	0.576752	0.559734
Cu17	Cu	0.893504	0.076752	-0.059770
Cu18	Cu	1.393504	0.576752	0.440230
O19	O	0.886819	0.159665	0.050496
O20	O	1.386819	0.659665	0.550496
C21	C	0.755076	0.081094	-0.000018
C22	C	1.255076	0.581094	0.499982
C23	C	0.671064	0.080082	-0.000017
C24	C	1.171064	0.580082	0.499983
C25	C	0.145961	0.125789	-0.000029
C26	C	0.645961	0.625789	0.499971
C27	C	0.224900	0.126736	-0.000031
C28	C	0.724900	0.626736	0.499969
C29	C	0.273779	0.075317	-0.000024
C30	C	0.773779	0.575317	0.499976
C31	C	0.243715	0.022947	-0.000021
C32	C	0.743715	0.522947	0.499979
C33	C	0.164777	0.022000	-0.000024
C34	C	0.664777	0.522000	0.499976
C35	C	0.562061	0.026764	-0.000012
C36	C	1.062061	0.526764	0.499988
C37	C	0.641004	0.027715	-0.000008
C38	C	1.141004	0.527715	0.499992
C39	C	0.622185	0.131500	-0.000020
C40	C	1.122185	0.631500	0.499980
C41	C	0.543247	0.130554	-0.000022
C42	C	1.043247	0.630554	0.499978
C43	C	0.513190	0.078184	-0.000022
C44	C	1.013190	0.578184	0.499978
C45	C	0.427595	0.077157	-0.000022
C46	C	0.927595	0.577157	0.499978
C47	C	0.359372	0.076343	-0.000021
C48	C	0.859372	0.576343	0.499979
C49	C	0.899792	-0.027377	-0.000005
C50	C	1.399792	0.472623	0.499995
C51	C	0.898774	-0.090597	-0.000001
C52	C	1.398774	0.409403	0.499999
C53	C	0.961545	-0.489516	-0.000034
C54	C	1.461545	0.010484	0.499966
C55	C	0.960599	-0.548919	-0.000039
C56	C	1.460599	-0.048919	0.499961
O57	O	1.018788	-0.585493	-0.000062
O58	O	1.518788	-0.085493	0.499938
N59	N	0.891127	-0.571749	-0.000038
N60	N	1.391127	-0.071749	0.499962
C61	C	0.822595	-0.535172	-0.000039
C62	C	1.322595	-0.035172	0.499961
O63	O	0.763417	-0.560045	-0.000040
O64	O	1.263417	-0.060045	0.499960
C65	C	0.823541	-0.475770	-0.000039
C66	C	1.323541	0.024230	0.499961
C67	C	0.893018	-0.452944	-0.000033
C68	C	1.393018	0.047056	0.499967
C69	C	1.031016	-0.466689	-0.000029
C70	C	1.531016	0.033311	0.499971
C71	C	1.031961	-0.407290	-0.000024
C72	C	1.531961	0.092710	0.499976
C73	C	0.963435	-0.370718	-0.000023
C74	C	1.463435	0.129282	0.499977
C75	C	0.893964	-0.393545	-0.000028
C76	C	1.393964	0.106455	0.499972
C77	C	0.755011	-0.439194	-0.000044
C78	C	1.255011	0.060806	0.499956
C79	C	0.755963	-0.379789	-0.000044
C80	C	1.255963	0.120211	0.499956
C81	C	0.825440	-0.356963	-0.000039
C82	C	1.325440	0.143037	0.499961
C83	C	0.826383	-0.297574	-0.000021
C84	C	1.326383	0.202426	0.499979
N85	N	0.895855	-0.274744	-0.000022
N86	N	1.395855	0.225256	0.499978
C87	C	0.964381	-0.311316	-0.000023
C88	C	1.464381	0.188684	0.499977
C89	C	0.820613	-0.659920	-0.000041
C90	C	1.320613	-0.159920	0.499959
C91	C	0.819666	-0.719321	-0.000037
C92	C	1.319666	-0.219321	0.499963
C93	C	0.957670	-0.733064	-0.000038
C94	C	1.457670	-0.233064	0.499962
C95	C	0.958617	-0.673662	-0.000037
C96	C	1.458617	-0.173662	0.499963
C97	C	0.890086	-0.637091	-0.000041
C98	C	1.390086	-0.137091	0.499959
C99	C	0.966361	-0.186574	-0.000010
C100	C	1.466361	0.313426	0.499990
C101	C	0.967300	-0.127169	-0.000002
C102	C	1.467300	0.372831	0.499998
C103	C	0.829296	-0.113431	-0.000004
C104	C	1.329296	0.386569	0.499996
C105	C	0.828357	-0.172831	-0.000009
C106	C	1.328357	0.327169	0.499991
C107	C	0.896895	-0.209401	-0.000014
C108	C	1.396895	0.290599	0.499986
O109	O	0.768224	-0.260965	-0.000001
O110	O	1.268224	0.239035	0.499999
O111	O	1.023550	-0.286435	-0.000030
O112	O	1.523550	0.213565	0.499970
C113	C	1.031890	0.072411	-0.000020
C114	C	1.531890	0.572411	0.499980
C115	C	1.115902	0.073423	-0.000025
C116	C	1.615902	0.573423	0.499975
C117	C	0.887175	0.180882	-0.000032
C118	C	1.387175	0.680882	0.499968
C119	C	0.888193	0.244102	-0.000041
C120	C	1.388193	0.744102	0.499959
N121	N	0.893439	0.076752	0.143786
N122	N	1.393439	0.576752	0.643786
N123	N	0.893534	0.076748	-0.143823
N124	N	1.393534	0.576748	0.356177
C125	C	0.939147	0.111247	0.563561
C126	C	1.439147	0.611247	1.063561
C127	C	0.939156	0.111245	0.627168
C128	C	1.439156	0.611245	1.127168
O129	O	0.977992	0.140570	0.660055
O130	O	1.477992	0.640570	1.160055
N131	N	0.893519	0.076746	0.658993
N132	N	1.393519	0.576746	1.158993
C133	C	0.847875	0.042241	0.627207
C134	C	1.347875	0.542241	1.127207
O135	O	0.809058	0.012897	0.660118
O136	O	1.309058	0.512897	1.160118
C137	C	0.847871	0.042240	0.563601
C138	C	1.347871	0.542240	1.063601
C139	C	0.893506	0.076746	0.531779
C140	C	1.393506	0.576746	1.031779
C141	C	0.984779	0.145749	0.531739
C142	C	1.484779	0.645749	1.031739
C143	C	0.984769	0.145751	0.468136
C144	C	1.484769	0.645751	0.968136
C145	C	0.939127	0.111251	0.436354
C146	C	1.439127	0.611251	0.936354
C147	C	0.893495	0.076748	0.468176
C148	C	1.393495	0.576748	0.968176
C149	C	0.802232	0.007733	0.531816
C150	C	1.302232	0.507733	1.031816
C151	C	0.802232	0.007734	0.468206
C152	C	1.302232	0.507734	0.968206
C153	C	0.847867	0.042240	0.436384
C154	C	1.347867	0.542240	0.936384
C155	C	0.847843	0.042250	0.372791
C156	C	1.347843	0.542250	0.872791
N157	N	0.893481	0.076749	0.340966
N158	N	1.393481	0.576749	0.840966
C159	C	0.939123	0.111250	0.372748
C160	C	1.439123	0.611250	0.872748
C161	C	0.847889	0.042246	0.760785
C162	C	1.347889	0.542246	1.260785
C163	C	0.847888	0.042250	0.824391
C164	C	1.347888	0.542250	1.324391
C165	C	0.939171	0.111253	0.824347
C166	C	1.439171	0.611253	1.324347
C167	C	0.939167	0.111252	0.760740
C168	C	1.439167	0.611252	1.260740
C169	C	0.893526	0.076745	0.728960
C170	C	1.393526	0.576745	1.228960
C171	C	0.939097	0.111252	0.239176
C172	C	1.439097	0.611252	0.739176
C173	C	0.939081	0.111252	0.175568
C174	C	1.439081	0.611252	0.675568
C175	C	0.847802	0.042247	0.175617
C176	C	1.347802	0.542247	0.675617
C177	C	0.847815	0.042249	0.239220
C178	C	1.347815	0.542249	0.739220
C179	C	0.893469	0.076752	0.270998
C180	C	1.393469	0.576752	0.770998
O181	O	0.809030	0.012938	0.339864
O182	O	1.309030	0.512938	0.839864
O183	O	0.977941	0.140584	0.339830
O184	O	1.477941	0.640584	0.839830
H185	H	0.249370	0.169378	-0.000041
H186	H	0.749370	0.669378	0.499959
Br187	Br	0.662980	0.202575	-0.000021
Br188	Br	1.162980	0.702575	0.499979
Br189	Br	0.785934	-0.004582	0.717661
Br190	Br	1.285934	0.495418	1.217661
H191	H	0.700155	-0.350015	-0.000049
H192	H	1.200155	0.149985	0.499951
H193	H	0.680800	-0.014159	-0.000004
H194	H	1.180800	0.485841	0.499996
Br195	Br	0.310049	-0.046837	-0.000015
Br196	Br	0.810049	0.453163	0.499985
H197	H	0.765072	-0.020366	0.557715
H198	H	1.265072	0.479634	1.057715
Br199	Br	0.521279	-0.044309	-0.000031
Br200	Br	1.021279	0.455691	0.499969
H201	H	1.086821	-0.496461	-0.000032
H202	H	1.586821	0.003539	0.499968
H203	H	0.698435	-0.457768	-0.000052
H204	H	1.198435	0.042232	0.499948
H205	H	1.013468	-0.762852	-0.000041
H206	H	1.513468	-0.262852	0.499959
H207	H	0.140305	-0.020642	-0.000021
H208	H	0.640305	0.479358	0.499979
H209	H	0.810639	0.014159	0.149729
H210	H	1.310639	0.514159	0.649729
H211	H	1.023879	-0.108588	0.000004
H212	H	1.523879	0.391412	0.500004
Br213	Br	1.059378	-0.236196	-0.000017
Br214	Br	1.559378	0.263804	0.499983
Br215	Br	1.126256	-0.376322	-0.000033
Br216	Br	1.626256	0.123678	0.499967
Br217	Br	0.727598	-0.610292	-0.000041
Br218	Br	1.227598	-0.110292	0.499959
Br219	Br	1.052910	-0.642690	-0.000029
Br220	Br	1.552910	-0.142690	0.499971
Br221	Br	0.740296	-0.039105	0.425079
Br222	Br	1.240296	0.460895	0.925079
H223	H	0.763091	-0.737900	-0.000031
H224	H	1.263091	-0.237900	0.499969
Br225	Br	1.001057	0.158078	0.282294
Br226	Br	1.501057	0.658078	0.782294
Br227	Br	0.785939	-0.004571	0.867569
Br228	Br	1.285939	0.495429	1.367569
H229	H	0.771783	-0.191416	0.000003
H230	H	1.271783	0.308584	0.500003
H231	H	0.773504	-0.083644	-0.000001
H232	H	1.273504	0.416356	0.499999
H233	H	1.021933	0.173847	0.442232
H234	H	1.521933	0.673847	0.942232
Br235	Br	1.001116	0.158074	0.867491
Br236	Br	1.501116	0.658074	1.367491
Br237	Br	1.001010	0.158091	0.132385
Br238	Br	1.501010	0.658091	0.632385
Br239	Br	1.046731	0.192577	0.574859
Br240	Br	1.546731	0.692577	1.074859
Br241	Br	0.476915	0.200339	-0.000028
Br242	Br	0.976915	0.700339	0.499972
H243	H	0.106169	0.167661	-0.000030
H244	H	0.606169	0.667661	0.499970
Br245	Br	1.001103	0.158081	0.717561
Br246	Br	1.501103	0.658081	1.217561
Br247	Br	0.785873	-0.004574	0.282408
Br248	Br	1.285873	0.495426	0.782408
