data_functionalizedCrystal
_audit_creation_method	'MofGen! by Chris Wilmer'
_symmetry_space_group_name_H-M	'P1'
_symmetry_Int_Tables_number	1
_symmetry_cell_setting	triclinic
loop_
_symmetry_equiv_pos_as_xyz
  x,y,z
_cell_length_a	11.792254
_cell_length_b	23.532407
_cell_length_c	10.268362
_cell_angle_alpha	89.990068
_cell_angle_beta	89.995475
_cell_angle_gamma	83.523637
loop_
_atom_site_label
_atom_site_type_symbol
_atom_site_fract_x
_atom_site_fract_y
_atom_site_fract_z
O1	O	1.505062	0.078089	-0.108314
O2	O	2.005062	0.578089	0.391686
O3	O	1.174534	0.086126	-0.108318
O4	O	1.674534	0.586126	0.391682
O5	O	1.349765	-0.000765	-0.108292
O6	O	1.849765	0.499235	0.391708
O7	O	1.329831	0.164980	-0.108340
O8	O	1.829831	0.664980	0.391660
O9	O	1.349750	-0.000768	0.108309
O10	O	1.849750	0.499232	0.608309
O11	O	1.174519	0.086123	0.108283
O12	O	1.674519	0.586123	0.608283
O13	O	1.505047	0.078086	0.108287
O14	O	2.005047	0.578086	0.608287
Cu15	Cu	1.339781	0.082104	0.128062
Cu16	Cu	1.839781	0.582104	0.628062
Cu17	Cu	1.339799	0.082108	-0.128093
Cu18	Cu	1.839799	0.582108	0.371907
O19	O	1.329816	0.164976	0.108261
O20	O	1.829816	0.664976	0.608261
C21	C	1.132247	0.085618	-0.000018
C22	C	1.632247	0.585618	0.499982
C23	C	1.006270	0.084103	-0.000018
C24	C	1.506270	0.584103	0.499982
C25	C	0.903963	0.082872	-0.000024
C26	C	1.403963	0.582872	0.499976
C27	C	0.775612	0.081332	-0.000024
C28	C	1.275612	0.581332	0.499976
C29	C	1.349250	-0.021986	0.000012
C30	C	1.849250	0.478014	0.500012
C31	C	1.347724	-0.085212	0.000022
C32	C	1.847724	0.414788	0.500022
C33	C	1.441849	-0.483755	-0.000048
C34	C	1.941849	0.016245	0.499952
C35	C	1.440432	-0.543163	-0.000058
C36	C	1.940432	-0.043163	0.499942
O37	O	1.527687	-0.579389	-0.000105
O38	O	2.027687	-0.079389	0.499895
N39	N	1.336257	-0.566409	-0.000059
N40	N	1.836257	-0.066409	0.499941
C41	C	1.233493	-0.530243	-0.000062
C42	C	1.733493	-0.030243	0.499938
O43	O	1.144754	-0.555471	-0.000065
O44	O	1.644754	-0.055471	0.499935
C45	C	1.234912	-0.470836	-0.000062
C46	C	1.734912	0.029164	0.499938
C47	C	1.339093	-0.447593	-0.000048
C48	C	1.839093	0.052407	0.499952
C49	C	1.546023	-0.460512	-0.000036
C50	C	2.046023	0.039488	0.499964
C51	C	1.547440	-0.401107	-0.000024
C52	C	2.047440	0.098893	0.499976
C53	C	1.444684	-0.364946	-0.000024
C54	C	1.944684	0.135054	0.499976
C55	C	1.340511	-0.388189	-0.000036
C56	C	1.840511	0.111811	0.499964
C57	C	1.132149	-0.434671	-0.000075
C58	C	1.632149	0.065329	0.499925
C59	C	1.133577	-0.375260	-0.000075
C60	C	1.633577	0.124740	0.499925
C61	C	1.237759	-0.352017	-0.000062
C62	C	1.737759	0.147983	0.499938
C63	C	1.239172	-0.292622	-0.000023
C64	C	1.739172	0.207378	0.499977
N65	N	1.343347	-0.269376	-0.000023
N66	N	1.843347	0.230624	0.499977
C67	C	1.446103	-0.305538	-0.000023
C68	C	1.946103	0.194462	0.499977
C69	C	1.230521	-0.655003	-0.000066
C70	C	1.730521	-0.155003	0.499934
C71	C	1.229101	-0.714410	-0.000057
C72	C	1.729101	-0.214410	0.499943
C73	C	1.436040	-0.727326	-0.000055
C74	C	1.936040	-0.227326	0.499945
C75	C	1.437459	-0.667918	-0.000055
C76	C	1.937459	-0.167918	0.499945
C77	C	1.334696	-0.631757	-0.000065
C78	C	1.834696	-0.131757	0.499935
C79	C	1.449071	-0.180784	0.000004
C80	C	1.949071	0.319216	0.500004
C81	C	1.450480	-0.121373	0.000022
C82	C	1.950480	0.378627	0.500022
C83	C	1.243541	-0.108462	0.000013
C84	C	1.743541	0.391538	0.500013
C85	C	1.242132	-0.167867	0.000002
C86	C	1.742132	0.332133	0.500002
C87	C	1.344907	-0.204027	-0.000007
C88	C	1.844907	0.295973	0.499993
O89	O	1.151962	-0.256362	0.000018
O90	O	1.651962	0.243638	0.500018
O91	O	1.534827	-0.280302	-0.000038
O92	O	2.034827	0.219698	0.499962
C93	C	1.547333	0.078594	-0.000016
C94	C	2.047333	0.578594	0.499984
C95	C	1.673311	0.080109	-0.000024
C96	C	2.173311	0.580109	0.499976
C97	C	1.330331	0.186197	-0.000046
C98	C	1.830331	0.686197	0.499954
C99	C	1.331857	0.249423	-0.000064
C100	C	1.831857	0.749423	0.499936
N101	N	1.339777	0.082100	0.308228
N102	N	1.839777	0.582100	0.808228
N103	N	1.339813	0.082107	-0.308259
N104	N	1.839813	0.582107	0.191741
C105	C	1.339794	0.082107	0.573899
C106	C	1.839794	0.582107	1.073899
C107	C	1.339781	0.082105	0.426061
C108	C	1.839781	0.582105	0.926061
H109	H	1.535320	-0.102453	0.000036
H110	H	2.035320	0.397547	0.500036
F111	F	1.558456	-0.219260	-0.000006
F112	F	2.058456	0.280740	0.499994
F113	F	1.021263	-0.459394	-0.000095
F114	F	1.521263	0.040606	0.499905
F115	F	1.545403	-0.765822	-0.000062
F116	F	2.045403	-0.265822	0.499938
H117	H	1.632275	-0.382189	-0.000018
H118	H	2.132275	0.117811	0.499982
F119	F	1.121138	-0.616522	-0.000065
F120	F	1.621138	-0.116522	0.499935
F121	F	1.655400	-0.498990	-0.000037
F122	F	2.155400	0.001010	0.499963
H123	H	1.522293	-0.648999	-0.000045
H124	H	2.022293	-0.148999	0.499955
H125	H	1.049893	-0.345819	-0.000086
H126	H	1.549893	0.154181	0.499914
H127	H	1.144266	-0.733328	-0.000046
H128	H	1.644266	-0.233328	0.499954
F129	F	1.131251	-0.192605	0.000011
F130	F	1.631251	0.307395	0.500011
F131	F	1.134187	-0.069966	0.000014
F132	F	1.634187	0.430034	0.500014
