data_functionalizedCrystal
_audit_creation_method	'MofGen! by Chris Wilmer'
_symmetry_space_group_name_H-M	'P1'
_symmetry_Int_Tables_number	1
_symmetry_cell_setting	triclinic
loop_
_symmetry_equiv_pos_as_xyz
  x,y,z
_cell_length_a	29.839135
_cell_length_b	29.839131
_cell_length_c	29.839126
_cell_angle_alpha	89.968194
_cell_angle_beta	89.976855
_cell_angle_gamma	90.037758
loop_
_atom_site_label
_atom_site_type_symbol
_atom_site_fract_x
_atom_site_fract_y
_atom_site_fract_z
Zn1	Zn	0.686773	-0.178857	-0.254023
Zn2	Zn	0.686703	-0.253978	-0.178883
Zn3	Zn	0.611646	-0.178866	-0.178901
Zn4	Zn	0.611612	-0.253964	-0.253980
O5	O	0.649183	-0.216416	-0.216447
O6	O	0.749631	-0.188824	-0.244066
O7	O	0.676732	-0.244023	-0.116019
O8	O	0.621655	-0.115998	-0.188892
O9	O	0.749580	-0.244015	-0.188861
O10	O	0.676851	-0.115991	-0.244084
O11	O	0.621587	-0.188839	-0.116032
O12	O	0.548774	-0.188826	-0.188850
O13	O	0.621597	-0.243992	-0.316853
O14	O	0.548749	-0.244000	-0.244010
O15	O	0.676818	-0.188811	-0.316885
O16	O	0.676699	-0.316843	-0.188819
O17	O	0.621529	-0.316833	-0.243993
C18	C	0.532461	-0.216413	-0.216428
C19	C	0.482526	-0.216422	-0.216430
C20	C	0.172907	-0.187722	-0.245235
C21	C	-0.014766	-0.187725	-0.245247
O22	O	-0.039011	-0.163313	-0.269717
N23	N	-0.038259	-0.216417	-0.216464
C24	C	-0.014830	-0.245108	-0.187672
O25	O	-0.039118	-0.269509	-0.163187
C26	C	0.172842	-0.245102	-0.187658
C27	C	0.196332	-0.216412	-0.216447
C28	C	0.196397	-0.159034	-0.274021
C29	C	0.243312	-0.159035	-0.274019
C30	C	0.266738	-0.187725	-0.245231
C31	C	0.243248	-0.216413	-0.216445
C32	C	0.196270	-0.273790	-0.158864
C33	C	0.243191	-0.273785	-0.158862
C34	C	0.266681	-0.245095	-0.187651
C35	C	0.313589	-0.245104	-0.187655
N36	N	0.337081	-0.216412	-0.216439
C37	C	0.313655	-0.187723	-0.245227
C38	C	-0.113361	-0.245109	-0.187683
C39	C	-0.160278	-0.245111	-0.187687
C40	C	-0.160212	-0.187728	-0.245262
C41	C	-0.113293	-0.187729	-0.245259
C42	C	-0.089868	-0.216418	-0.216467
C43	C	0.412181	-0.187728	-0.245221
C44	C	0.459101	-0.187733	-0.245218
C45	C	0.459030	-0.245114	-0.187642
C46	C	0.412114	-0.245111	-0.187647
C47	C	0.388691	-0.216414	-0.216438
O48	O	0.337862	-0.269500	-0.163195
O49	O	0.337951	-0.163318	-0.269702
C50	C	0.125991	-0.187721	-0.245236
C51	C	0.102501	-0.216409	-0.216450
C52	C	0.125927	-0.245099	-0.187662
C53	C	0.055583	-0.216411	-0.216454
C54	C	0.032158	-0.187722	-0.245242
C55	C	0.055650	-0.159030	-0.274026
C56	C	0.102566	-0.159031	-0.274025
C57	C	0.102434	-0.273790	-0.158878
C58	C	0.055519	-0.273787	-0.158883
C59	C	0.032093	-0.245098	-0.187671
C60	C	0.649115	-0.333139	-0.216409
C61	C	0.649127	-0.383073	-0.216408
C62	C	0.677917	-0.692679	-0.245226
C63	C	0.677966	-0.880352	-0.245253
O64	O	0.702378	-0.904584	-0.269728
N65	N	0.649260	-0.903858	-0.216497
C66	C	0.620537	-0.880444	-0.187734
O67	O	0.596118	-0.904744	-0.163279
C68	C	0.620486	-0.692772	-0.187709
C69	C	0.649198	-0.669268	-0.216464
C70	C	0.706626	-0.669174	-0.273979
C71	C	0.706616	-0.622259	-0.273971
C72	C	0.677896	-0.598848	-0.245209
C73	C	0.649187	-0.622352	-0.216456
C74	C	0.591761	-0.669359	-0.158949
C75	C	0.591750	-0.622438	-0.158946
C76	C	0.620462	-0.598933	-0.187701
C77	C	0.620456	-0.552026	-0.187685
N78	N	0.649163	-0.528519	-0.216442
C79	C	0.677883	-0.551930	-0.245203
C80	C	0.620566	-0.978975	-0.187748
C81	C	0.620579	-1.025893	-0.187753
C82	C	0.678008	-1.025797	-0.245274
C83	C	0.677997	-0.978878	-0.245266
C84	C	0.649273	-0.955468	-0.216504
C85	C	0.677858	-0.453404	-0.245183
C86	C	0.677846	-0.406484	-0.245170
C87	C	0.620416	-0.406584	-0.187651
C88	C	0.620429	-0.453500	-0.187662
C89	C	0.649152	-0.476909	-0.216431
O90	O	0.596054	-0.527764	-0.163227
O91	O	0.702291	-0.527622	-0.269662
C92	C	0.677928	-0.739594	-0.245235
C93	C	0.649219	-0.763098	-0.216482
C94	C	0.620499	-0.739687	-0.187720
C95	C	0.649232	-0.810016	-0.216487
C96	C	0.677952	-0.833427	-0.245249
C97	C	0.706659	-0.809921	-0.274006
C98	C	0.706648	-0.763005	-0.273997
C99	C	0.591793	-0.763194	-0.158964
C100	C	0.591806	-0.810110	-0.158974
C101	C	0.620526	-0.833521	-0.187736
C102	C	0.766362	-0.216420	-0.216467
C103	C	0.816296	-0.216422	-0.216475
C104	C	0.649211	-0.216399	-0.333625
C105	C	0.649223	-0.216392	-0.383560
C106	C	0.649264	-0.099238	-0.216495
C107	C	0.649299	-0.049304	-0.216515
C108	C	0.620518	-0.187612	-0.693213
C109	C	0.620531	-0.187581	-0.880886
O110	O	0.596103	-0.163157	-0.905160
N111	N	0.649244	-0.216308	-0.904345
C112	C	0.677954	-0.245046	-0.880883
O113	O	0.702374	-0.269482	-0.905142
C114	C	0.677939	-0.245079	-0.693211
C115	C	0.649227	-0.216348	-0.669754
C116	C	0.591808	-0.158884	-0.669757
C117	C	0.591807	-0.158890	-0.622841
C118	C	0.620516	-0.187625	-0.599382
C119	C	0.649226	-0.216354	-0.622839
C120	C	0.706647	-0.273819	-0.669749
C121	C	0.706639	-0.273826	-0.622828
C122	C	0.677927	-0.245094	-0.599372
C123	C	0.677934	-0.245095	-0.552464
N124	N	0.649220	-0.216369	-0.529005
C125	C	0.620511	-0.187634	-0.552464
C126	C	0.677961	-0.245026	-0.979414
C127	C	0.677966	-0.245017	-1.026331
C128	C	0.620541	-0.187553	-1.026332
C129	C	0.620540	-0.187560	-0.979413
C130	C	0.649248	-0.216299	-0.955955
C131	C	0.620511	-0.187649	-0.453939
C132	C	0.620514	-0.187657	-0.407019
C133	C	0.677936	-0.245122	-0.407023
C134	C	0.677936	-0.245113	-0.453938
C135	C	0.649219	-0.216375	-0.477395
O136	O	0.702345	-0.269511	-0.528162
O137	O	0.596089	-0.163209	-0.528197
C138	C	0.620519	-0.187606	-0.740129
C139	C	0.649229	-0.216335	-0.763585
C140	C	0.677938	-0.245070	-0.740126
C141	C	0.649234	-0.216326	-0.810503
C142	C	0.620525	-0.187591	-0.833962
C143	C	0.591812	-0.158865	-0.810503
C144	C	0.591811	-0.158871	-0.763588
C145	C	0.706652	-0.273796	-0.763585
C146	C	0.706651	-0.273787	-0.810500
C147	C	0.677942	-0.245052	-0.833959
C148	C	0.649181	-0.216401	-0.099725
C149	C	0.649257	-0.216282	-0.049790
H150	H	0.478111	-0.268473	-0.164205
C151	C	0.709523	-0.276717	-0.479741
N152	N	0.733311	-0.300524	-0.499173
C153	C	0.738250	-0.835682	-0.305645
N154	N	0.762041	-0.855087	-0.329476
C155	C	0.029685	-0.305349	-0.127208
N156	N	0.010229	-0.329118	-0.103348
C157	C	0.588998	-1.051742	-0.156117
N158	N	0.565207	-1.071210	-0.132289
H159	H	0.568405	-0.744137	-0.135543
H160	H	0.701244	-0.472458	-0.268612
C161	C	0.588960	-0.953229	-0.156111
N162	N	0.565154	-0.933840	-0.132282
C163	C	-0.186112	-0.276675	-0.156019
N164	N	-0.205568	-0.300448	-0.132163
C165	C	0.588925	-0.156033	-0.479734
N166	N	0.565137	-0.132217	-0.499163
H167	H	0.730036	-0.297183	-0.829595
C168	C	0.560222	-0.127266	-0.737792
N169	N	0.536427	-0.103461	-0.718365
H170	H	0.701312	-0.268516	-0.387914
C171	C	0.588848	-0.479355	-0.156028
N172	N	0.565057	-0.498827	-0.132203
H173	H	0.701228	-0.387349	-0.268586
H174	H	0.597167	-0.164155	-1.045440
C175	C	0.128399	-0.127466	-0.305692
N176	N	0.147853	-0.103688	-0.329543
C177	C	0.128196	-0.305355	-0.127209
N178	N	0.147598	-0.329133	-0.103355
H179	H	0.730029	-0.297198	-0.744489
C180	C	0.484937	-0.156168	-0.276888
N181	N	0.504395	-0.132392	-0.300739
C182	C	0.386423	-0.156162	-0.276896
N183	N	0.367021	-0.132390	-0.300755
C184	C	0.029873	-0.127468	-0.305690
N185	N	0.010456	-0.103693	-0.329534
C186	C	0.709580	-0.953028	-0.276900
N187	N	0.733369	-0.933559	-0.300729
H188	H	0.568438	-0.135466	-0.829612
C189	C	0.269145	-0.127467	-0.305684
N190	N	0.288599	-0.103686	-0.329533
H191	H	0.177329	-0.135669	-0.297464
C192	C	0.738203	-0.596410	-0.305602
N193	N	0.761996	-0.576944	-0.329429
C194	C	0.738227	-0.694919	-0.305619
N195	N	0.762034	-0.714307	-0.329448
H196	H	0.701393	-1.044866	-0.268692
C197	C	-0.087458	-0.156164	-0.276926
N198	N	-0.068002	-0.132387	-0.300777
H199	H	0.597034	-0.387516	-0.164232
H200	H	0.177153	-0.297153	-0.135421
H201	H	0.701351	-0.268408	-1.045426
C202	C	0.738229	-0.305430	-0.695541
N203	N	0.762018	-0.329242	-0.714966
H204	H	-0.094293	-0.268473	-0.164235
H205	H	0.701339	-0.268432	-0.960318
C206	C	0.588926	-0.156050	-0.381220
N207	N	0.565134	-0.132245	-0.361789
H208	H	0.262261	-0.297147	-0.135415
H209	H	0.568381	-0.688488	-0.135533
H210	H	0.568427	-0.829243	-0.135554
C211	C	-0.185988	-0.156167	-0.276926
N212	N	-0.205406	-0.132393	-0.300771
C213	C	0.560151	-0.596689	-0.127305
N214	N	0.536351	-0.577297	-0.103472
H215	H	0.568425	-0.135496	-0.603747
C216	C	0.588952	-0.155956	-0.953615
N217	N	0.565157	-0.132152	-0.934187
C218	C	0.738224	-0.305440	-0.597027
N219	N	0.762016	-0.329250	-0.577594
H220	H	0.568428	-0.135484	-0.688852
C221	C	0.386275	-0.276675	-0.155981
N222	N	0.366815	-0.300448	-0.132128
H223	H	0.730028	-0.743871	-0.297412
