data_functionalizedCrystal
_audit_creation_method	'MofGen! by Chris Wilmer'
_symmetry_space_group_name_H-M	'P1'
_symmetry_Int_Tables_number	1
_symmetry_cell_setting	triclinic
loop_
_symmetry_equiv_pos_as_xyz
  x,y,z
_cell_length_a	10.967874
_cell_length_b	10.654559
_cell_length_c	9.482900
_cell_angle_alpha	99.428095
_cell_angle_beta	68.707142
_cell_angle_gamma	84.601729
loop_
_atom_site_label
_atom_site_type_symbol
_atom_site_fract_x
_atom_site_fract_y
_atom_site_fract_z
O1	O	1.746289	0.086105	-0.558373
O2	O	1.368022	0.118247	-0.463610
O3	O	1.565846	-0.080915	-0.513169
O4	O	1.548465	0.285267	-0.508814
O5	O	1.525665	-0.040303	-0.261310
O6	O	1.327841	0.158858	-0.211752
O7	O	1.706108	0.126717	-0.306514
Cu8	Cu	1.513306	0.146496	-0.236136
Cu9	Cu	1.560825	0.098468	-0.533988
O10	O	1.508284	0.325878	-0.256956
C11	C	1.299496	0.139282	-0.325547
C12	C	1.155174	0.141442	-0.289392
C13	C	1.111645	0.121366	-0.403743
C14	C	0.962481	0.123598	-0.366378
C15	C	1.544478	-0.107356	-0.386922
C16	C	1.540653	-0.246645	-0.385973
C17	C	1.420582	-0.293317	-0.355897
C18	C	1.416994	-0.424192	-0.354987
C19	C	1.653559	-0.461713	-0.414239
C20	C	1.657144	-0.330839	-0.415137
C21	C	1.304091	-0.209123	-0.326733
C22	C	1.184011	-0.255794	-0.296656
C23	C	1.180422	-0.386669	-0.295746
C24	C	1.296914	-0.470873	-0.324913
C25	C	1.774634	0.105681	-0.444581
C26	C	1.918959	0.103520	-0.480746
C27	C	1.529653	0.352319	-0.383206
C28	C	1.533479	0.491606	-0.384164
N29	N	1.479893	0.180275	-0.026646
N30	N	1.594247	0.064679	-0.743481
C31	C	1.550960	0.108425	0.027750
C32	C	1.523170	0.136539	0.202129
H33	H	0.992117	0.084688	-0.606317
F34	F	1.059547	0.166075	-0.125268
H35	H	1.675665	-0.017658	0.173998
F36	F	1.307902	-0.069835	-0.327707
H37	H	1.441742	0.218867	0.284653
H38	H	1.293982	-0.577439	-0.324171
F39	F	0.866858	0.148233	-0.202246
F40	F	1.052622	-0.436334	-0.263720
H41	H	1.089166	-0.187226	-0.272896
F42	F	1.373466	0.287878	0.081219
H43	H	1.184809	0.102534	-0.529306
H44	H	1.748401	-0.530282	-0.437987
F45	F	1.657147	0.000602	-0.080054
H46	H	1.754916	-0.292838	-0.439626
