data_functionalizedCrystal
_audit_creation_method	'MofGen! by Chris Wilmer'
_symmetry_space_group_name_H-M	'P1'
_symmetry_Int_Tables_number	1
_symmetry_cell_setting	triclinic
loop_
_symmetry_equiv_pos_as_xyz
  x,y,z
_cell_length_a	10.489741
_cell_length_b	10.489716
_cell_length_c	8.965430
_cell_angle_alpha	90.004464
_cell_angle_beta	89.998843
_cell_angle_gamma	84.534155
loop_
_atom_site_label
_atom_site_type_symbol
_atom_site_fract_x
_atom_site_fract_y
_atom_site_fract_z
O1	O	1.694038	0.179960	-0.123932
O2	O	1.322840	0.196853	-0.123954
O3	O	1.516902	0.002807	-0.123948
O4	O	1.499976	0.374007	-0.123938
O5	O	1.516885	0.002820	0.124131
O6	O	1.322824	0.196866	0.124125
O7	O	1.694021	0.179973	0.124146
Cu8	Cu	1.508421	0.188421	0.146787
Cu9	Cu	1.508440	0.188406	-0.146595
O10	O	1.499960	0.374020	0.124140
C11	C	1.275301	0.195584	0.000082
C12	C	1.133672	0.191767	0.000073
C13	C	1.065542	0.068301	0.000084
C14	C	0.973418	0.126618	-0.122227
C15	C	0.973436	0.126661	0.122359
C16	C	1.043413	0.250135	-0.122339
C17	C	1.043440	0.250160	0.122357
C18	C	0.951344	0.308568	0.000016
C19	C	1.515622	-0.044719	0.000087
C20	C	1.511817	-0.186350	0.000073
C21	C	1.630822	-0.284024	0.000093
C22	C	1.567945	-0.361391	-0.122222
C23	C	1.567901	-0.361342	0.122364
C24	C	1.448990	-0.261851	-0.122344
C25	C	1.448964	-0.261797	0.122352
C26	C	1.386000	-0.339115	0.000007
C27	C	1.741561	0.181243	0.000107
C28	C	1.883190	0.185060	0.000106
C29	C	1.501240	0.421545	0.000102
C30	C	1.505044	0.563176	0.000106
N31	N	1.508417	0.188431	0.353136
N32	N	1.508455	0.188386	-0.352944
C33	C	1.418642	0.278141	0.450439
C34	C	1.534136	0.303952	0.549861
C35	C	1.392971	0.162631	0.549842
C36	C	1.623970	0.214300	0.450369
C37	C	1.482728	0.072928	0.450341
C38	C	1.598306	0.098691	0.549718
H39	H	1.734335	-0.259347	-0.000025
H40	H	1.074243	0.302330	-0.225860
N41	N	0.889286	0.436009	-0.000099
N42	N	0.769753	0.453742	0.000866
H43	H	0.725915	0.543745	0.000768
N44	N	1.386019	-0.207526	-0.252210
N45	N	1.378855	-0.089258	-0.273209
H46	H	1.334385	-0.050887	-0.364927
H47	H	1.282408	-0.363546	-0.000065
N48	N	1.693649	0.003493	0.604110
N49	N	1.661805	-0.085952	0.683823
H50	H	1.729143	-0.153180	0.722247
H51	H	1.342793	0.354076	0.406848
H52	H	1.460939	-0.024699	0.406594
N53	N	1.385997	-0.207208	0.252089
N54	N	1.426601	-0.239333	0.379006
H55	H	1.382139	-0.200781	0.470645
N56	N	1.082411	0.315634	0.252083
N57	N	1.198117	0.329853	0.272218
H58	H	1.225645	0.376085	0.363849
N59	N	1.630955	-0.415865	0.252081
N60	N	1.746679	-0.402745	0.273844
H61	H	1.791221	-0.441250	0.365450
H62	H	1.618188	-0.404891	-0.225628
N63	N	1.561420	0.426468	0.604685
N64	N	1.488845	0.524161	0.572882
H65	H	1.508107	0.610693	0.611594
N66	N	1.270473	0.135298	0.604665
N67	N	1.172754	0.207833	0.572859
H68	H	1.086236	0.188543	0.611578
H69	H	1.721638	0.236219	0.406858
H70	H	1.115241	-0.033196	-0.000072
H71	H	0.942456	0.074402	0.225764
N72	N	0.934545	0.061071	-0.251957
N73	N	0.975681	-0.053191	-0.273763
H74	H	0.948235	-0.099491	-0.365384
