data_functionalizedCrystal
_audit_creation_method	'MofGen! by Chris Wilmer'
_symmetry_space_group_name_H-M	'P1'
_symmetry_Int_Tables_number	1
_symmetry_cell_setting	triclinic
loop_
_symmetry_equiv_pos_as_xyz
  x,y,z
_cell_length_a	10.723023
_cell_length_b	10.654551
_cell_length_c	9.198806
_cell_angle_alpha	89.999648
_cell_angle_beta	89.996513
_cell_angle_gamma	84.476455
loop_
_atom_site_label
_atom_site_type_symbol
_atom_site_fract_x
_atom_site_fract_y
_atom_site_fract_z
O1	O	1.657215	0.176142	-0.120868
O2	O	1.294065	0.193004	-0.120873
O3	O	1.483989	0.001832	-0.120871
O4	O	1.467291	0.367313	-0.120870
O5	O	1.483974	0.001832	0.120914
O6	O	1.294050	0.193003	0.120912
O7	O	1.657200	0.176141	0.120917
Cu8	Cu	1.475624	0.184572	0.142992
Cu9	Cu	1.475642	0.184573	-0.142947
O10	O	1.467276	0.367313	0.120915
C11	C	1.247558	0.191777	0.000019
C12	C	1.109003	0.188106	0.000016
C13	C	1.047223	0.186469	0.125267
C14	C	0.904019	0.182675	0.125268
C15	C	1.482755	-0.044966	0.000018
C16	C	1.479086	-0.184408	0.000008
C17	C	1.477373	-0.249920	-0.131786
C18	C	1.473915	-0.380939	-0.131779
C19	C	1.473888	-0.380926	0.131828
C20	C	1.477338	-0.249907	0.131820
C21	C	1.479122	-0.184421	-0.263597
C22	C	1.477411	-0.249933	-0.395403
C23	C	1.473952	-0.380952	-0.395396
C24	C	1.472206	-0.446460	-0.263584
C25	C	1.703707	0.177369	0.000022
C26	C	1.842262	0.181039	0.000015
C27	C	1.468510	0.414111	0.000023
C28	C	1.472179	0.553553	0.000023
N29	N	1.475620	0.184571	0.344106
N30	N	1.475655	0.184564	-0.344061
C31	C	1.555364	0.103950	0.416303
C32	C	1.555383	0.103945	0.583716
H33	H	1.100349	0.187869	0.232498
H34	H	0.850889	0.181275	0.232499
Br35	Br	1.467496	-0.624273	-0.263578
Br36	Br	1.471611	-0.469857	-0.574270
Br37	Br	1.361864	0.299628	0.552474
H38	H	0.895383	0.182454	-0.107222
H39	H	1.472467	-0.434273	0.239143
H40	H	1.481941	-0.077738	-0.263618
H41	H	1.623659	0.034927	0.645803
H42	H	1.055878	0.186695	-0.107215
H43	H	1.478706	-0.196563	0.239138
H44	H	1.407358	0.253587	0.406233
Br45	Br	1.479773	-0.161032	-0.574281
H46	H	1.623617	0.034925	0.354178
