data_functionalizedCrystal
_audit_creation_method	'MofGen! by Chris Wilmer'
_symmetry_space_group_name_H-M	'P1'
_symmetry_Int_Tables_number	1
_symmetry_cell_setting	triclinic
loop_
_symmetry_equiv_pos_as_xyz
  x,y,z
_cell_length_a	14.971486
_cell_length_b	13.339070
_cell_length_c	13.448316
_cell_angle_alpha	89.996829
_cell_angle_beta	89.998199
_cell_angle_gamma	99.621712
loop_
_atom_site_label
_atom_site_type_symbol
_atom_site_fract_x
_atom_site_fract_y
_atom_site_fract_z
O1	O	1.219550	0.131873	-0.082571
O2	O	0.963055	0.147665	-0.082597
O3	O	1.061865	-0.007530	-0.082584
O4	O	1.120740	0.287068	-0.082584
O5	O	1.061845	-0.007540	0.082800
O6	O	0.963035	0.147656	0.082787
O7	O	1.219531	0.131864	0.082813
Cu8	Cu	1.091281	0.139759	0.097901
Cu9	Cu	1.091304	0.139770	-0.097685
O10	O	1.120720	0.287059	0.082800
C11	C	0.929545	0.146954	0.000091
C12	C	0.829725	0.144838	0.000081
C13	C	0.795041	0.236011	0.000082
C14	C	0.701248	0.234016	0.000097
C15	C	0.642141	0.140847	0.000103
C16	C	0.676832	0.049667	0.000105
C17	C	0.770623	0.051663	0.000097
C18	C	0.481342	0.045514	0.000119
C19	C	0.387545	0.043518	0.000125
C20	C	0.411968	0.227867	0.000119
C21	C	0.505759	0.229863	0.000111
C22	C	0.540442	0.138682	0.000111
C23	C	1.051910	-0.045236	0.000105
C24	C	1.022266	-0.157574	0.000098
C25	C	1.252762	-0.522088	0.000122
C26	C	1.280617	-0.416541	0.000135
C27	C	1.216032	-0.351794	0.000125
C28	C	1.123587	-0.392604	0.000104
C29	C	1.095729	-0.498161	0.000100
C30	C	1.058999	-0.327867	0.000103
C31	C	0.966554	-0.368677	0.000082
C32	C	0.938701	-0.474224	0.000077
C33	C	1.003286	-0.538970	0.000086
C34	C	1.086856	-0.222311	0.000107
C35	C	0.929823	-0.198384	0.000084
C36	C	0.901968	-0.303930	0.000072
C37	C	1.253040	0.132575	0.000122
C38	C	1.352860	0.134691	0.000126
C39	C	1.130675	0.324765	0.000108
C40	C	1.160319	0.437102	0.000109
N41	N	1.091271	0.139750	0.235465
N42	N	1.091319	0.139771	-0.235249
C43	C	1.135050	0.071058	0.287511
C44	C	1.135056	0.071057	0.391614
C45	C	1.091287	0.139754	0.443669
C46	C	1.047502	0.208449	0.391616
C47	C	1.047492	0.208445	0.287515
C48	C	1.047529	0.208456	0.608596
C49	C	1.047540	0.208463	0.712705
C50	C	1.135093	0.071069	0.712696
C51	C	1.135082	0.071064	0.608594
C52	C	1.091299	0.139761	0.556548
H53	H	0.383724	0.302110	0.000123
O54	O	1.242973	-0.249250	0.000004
C55	C	1.209248	-0.207416	-0.085668
H56	H	1.147359	-0.261255	-0.114241
H57	H	1.189277	-0.130923	-0.066406
H58	H	1.263837	-0.196241	-0.145633
H59	H	1.355886	-0.383322	0.000153
O60	O	1.005051	0.275319	0.442067
C61	C	1.044460	0.375520	0.416631
H62	H	1.078917	0.375456	0.341043
H63	H	0.989560	0.425224	0.413070
H64	H	1.096770	0.406905	0.475211
H65	H	0.826698	-0.337172	0.000056
H66	H	1.011841	0.264379	0.245140
H67	H	0.843160	0.311879	0.000077
O68	O	1.176614	-0.182507	0.000164
C69	C	1.187359	-0.075462	0.000139
H70	H	1.123685	-0.050760	0.031443
H71	H	1.248084	-0.042996	0.048161
H72	H	1.198997	-0.046071	-0.079203
H73	H	0.339422	-0.032348	0.000131
H74	H	0.980611	-0.624916	0.000072
H75	H	0.509578	-0.028735	0.000120
H76	H	1.170742	0.015133	0.755078
H77	H	0.553882	0.305729	0.000096
O78	O	1.177609	0.004237	0.558180
C79	C	1.216274	-0.056380	0.626437
H80	H	1.179314	-0.057594	0.700653
H81	H	1.209870	-0.137168	0.596361
H82	H	1.290902	-0.023396	0.637492
H83	H	1.011898	0.264402	0.755083
H84	H	1.305338	-0.574813	0.000138
H85	H	0.798860	-0.022579	0.000096
O86	O	0.667707	0.322675	0.000053
C87	C	0.739987	0.405335	0.000065
H88	H	0.803262	0.379735	-0.031254
H89	H	0.721424	0.469225	-0.047949
H90	H	0.753723	0.433887	0.079405
O91	O	0.848890	-0.513817	-0.000112
C92	C	0.807941	-0.480717	-0.085759
H93	H	0.861548	-0.458698	-0.145619
H94	H	0.754011	-0.544700	-0.114517
H95	H	0.775153	-0.411989	-0.066398
O96	O	0.619507	-0.040899	-0.000023
C97	C	0.634984	-0.096469	-0.085690
H98	H	0.706554	-0.068811	-0.114248
H99	H	0.627023	-0.180724	-0.066428
H100	H	0.583891	-0.084809	-0.145667
H101	H	1.170703	0.015122	0.433990
O102	O	0.867196	-0.135355	0.000027
C103	C	0.911605	-0.033443	0.000056
H104	H	0.982891	-0.029311	-0.031244
H105	H	0.872058	0.014319	-0.047966
H106	H	0.915777	-0.002927	0.079399
O107	O	1.004991	0.275288	0.558191
C108	C	0.966345	0.335910	0.626456
H109	H	1.003321	0.337122	0.700659
H110	H	0.972748	0.416698	0.596372
H111	H	0.891719	0.302932	0.637539
O112	O	1.177578	0.004227	0.237103
C113	C	1.216237	-0.056386	0.305369
H114	H	1.179273	-0.057592	0.379581
H115	H	1.209833	-0.137177	0.275300
H116	H	1.290864	-0.023403	0.316428
