data_functionalizedCrystal
_audit_creation_method	'MofGen! by Chris Wilmer'
_symmetry_space_group_name_H-M	'P1'
_symmetry_Int_Tables_number	1
_symmetry_cell_setting	triclinic
loop_
_symmetry_equiv_pos_as_xyz
  x,y,z
_cell_length_a	11.169417
_cell_length_b	12.759394
_cell_length_c	11.169406
_cell_angle_alpha	89.949547
_cell_angle_beta	89.969044
_cell_angle_gamma	90.015716
loop_
_atom_site_label
_atom_site_type_symbol
_atom_site_fract_x
_atom_site_fract_y
_atom_site_fract_z
Zn1	Zn	1.835057	-0.417992	-0.678525
Zn2	Zn	1.834891	-0.593766	-0.477834
Zn3	Zn	1.634304	-0.418105	-0.477859
Zn4	Zn	1.634334	-0.593632	-0.678479
O5	O	1.734646	-0.505874	-0.578174
O6	O	2.002984	-0.441317	-0.651912
O7	O	1.808201	-0.570568	-0.309887
O8	O	1.660990	-0.271068	-0.504508
O9	O	2.002863	-0.570458	-0.504465
O10	O	1.808483	-0.270985	-0.651936
O11	O	1.660830	-0.441510	-0.309906
O12	O	1.466358	-0.441380	-0.504463
O13	O	1.661043	-0.570229	-0.846435
O14	O	1.466381	-0.570339	-0.651858
O15	O	1.808513	-0.441187	-0.846469
O16	O	1.808231	-0.740770	-0.504420
O17	O	1.660882	-0.740671	-0.651833
C18	C	1.422822	-0.505858	-0.578159
C19	C	1.289422	-0.505876	-0.578181
C20	C	1.734574	-0.778841	-0.578145
C21	C	1.734653	-0.895618	-0.578173
C22	C	1.888202	-0.895667	-0.424787
C23	C	1.965008	-0.950553	-0.348108
C24	C	1.965079	-1.060274	-0.348140
C25	C	1.888337	-1.115113	-0.424863
C26	C	1.811532	-1.060227	-0.501542
C27	C	1.811467	-0.950503	-0.501498
C28	C	1.657990	-1.060178	-0.654932
C29	C	1.657912	-0.950456	-0.654895
C30	C	1.581249	-1.115017	-0.731655
C31	C	1.504436	-1.060131	-0.808329
C32	C	1.504368	-0.950403	-0.808293
C33	C	1.581106	-0.895571	-0.731574
C34	C	2.047689	-0.505890	-0.578190
C35	C	2.181089	-0.505897	-0.578197
C36	C	1.734799	-0.505681	-0.891217
C37	C	1.734865	-0.505599	-1.024617
C38	C	1.734752	-0.231840	-0.578230
C39	C	1.734796	-0.115063	-0.578253
C40	C	1.734563	-0.505990	-0.266349
C41	C	1.734730	-0.505776	-0.132950
H42	H	2.027493	-0.905894	-0.285643
H43	H	1.441828	-0.905721	-0.870739
C44	C	1.581035	-0.774880	-0.731539
H45	H	1.524300	-0.750043	-0.788189
H46	H	1.658467	-0.749988	-0.752340
H47	H	1.560274	-0.750152	-0.654062
C48	C	1.420035	-1.120448	-0.892719
H49	H	1.374283	-1.072049	-0.938385
H50	H	1.367785	-1.163344	-0.846787
H51	H	1.465976	-1.163154	-0.945068
H52	H	1.888412	-1.204454	-0.424893
H53	H	1.888137	-0.806326	-0.424737
H54	H	1.581317	-1.204358	-0.731681
H55	H	2.027626	-1.104962	-0.285708
