data_functionalizedCrystal
_audit_creation_method	'MofGen! by Chris Wilmer'
_symmetry_space_group_name_H-M	'P1'
_symmetry_Int_Tables_number	1
_symmetry_cell_setting	triclinic
loop_
_symmetry_equiv_pos_as_xyz
  x,y,z
_cell_length_a	14.853567
_cell_length_b	11.792241
_cell_length_c	13.330367
_cell_angle_alpha	89.995231
_cell_angle_beta	89.995418
_cell_angle_gamma	83.914173
loop_
_atom_site_label
_atom_site_type_symbol
_atom_site_fract_x
_atom_site_fract_y
_atom_site_fract_z
O1	O	1.196946	0.148181	-0.083355
O2	O	0.934555	0.165833	-0.083372
O3	O	1.072118	-0.008203	-0.083356
O4	O	1.059383	0.322217	-0.083371
O5	O	1.072098	-0.008206	0.083491
O6	O	0.934535	0.165829	0.083475
O7	O	1.196926	0.148177	0.083492
Cu8	Cu	1.065728	0.157003	0.098718
Cu9	Cu	1.065752	0.157008	-0.098598
O10	O	1.059363	0.322213	0.083476
C11	C	0.900953	0.165032	0.000049
C12	C	0.800860	0.162635	0.000043
C13	C	0.387884	0.049122	0.000071
C14	C	0.367408	0.255880	0.000060
C15	C	0.461451	0.258134	0.000057
C16	C	0.518715	0.155880	0.000059
C17	C	0.481936	0.051372	0.000064
C18	C	0.498237	0.362640	0.000042
C19	C	0.592285	0.364898	0.000037
C20	C	0.649550	0.262642	0.000046
C21	C	0.612766	0.158131	0.000053
C22	C	0.670030	0.055877	0.000055
C23	C	0.633248	-0.048637	0.000068
C24	C	0.539201	-0.050883	0.000073
C25	C	0.743596	0.264889	0.000041
C26	C	0.764081	0.058127	0.000048
C27	C	1.071308	-0.050491	0.000067
C28	C	1.068913	-0.176489	0.000066
C29	C	1.064511	-0.407174	0.000049
C30	C	1.066957	-0.278804	0.000058
C31	C	1.230527	0.148979	0.000069
C32	C	1.330621	0.151376	0.000069
C33	C	1.060173	0.364501	0.000051
C34	C	1.062567	0.490500	0.000046
N35	N	1.065718	0.156999	0.237500
N36	N	1.065769	0.157003	-0.237379
C37	C	1.004837	0.234040	0.710116
C38	C	1.126692	0.079966	0.710098
C39	C	1.126682	0.079962	0.605079
C40	C	1.065749	0.157000	0.552574
C41	C	1.004826	0.234042	0.605087
C42	C	1.187610	0.002930	0.552558
C43	C	1.187602	0.002925	0.447534
C44	C	1.126665	0.079958	0.395027
C45	C	1.065739	0.157001	0.447546
C46	C	1.004806	0.234039	0.395041
C47	C	0.943875	0.311078	0.447559
C48	C	0.943888	0.311075	0.552580
C49	C	1.126651	0.079961	0.290005
C50	C	1.004796	0.234040	0.290013
H51	H	0.357932	-0.035970	0.000086
C52	C	0.304419	0.368353	0.000057
C53	C	0.236951	0.395237	-0.086581
C54	C	0.173956	0.507714	-0.086583
C55	C	0.178430	0.593308	0.000053
C56	C	0.245902	0.566426	0.086697
C57	C	0.308896	0.453949	0.086699
H58	H	0.233637	0.331873	-0.150720
H59	H	0.124010	0.527613	-0.150723
H60	H	0.131798	0.676570	0.000052
H61	H	0.249216	0.629790	0.150836
H62	H	0.358843	0.434050	0.150839
H63	H	0.451606	0.445889	0.000030
C64	C	0.784055	0.379842	0.000019
C65	C	0.845893	0.409814	-0.086630
C66	C	0.886349	0.524775	-0.086654
C67	C	0.864966	0.609763	-0.000028
C68	C	0.803125	0.579793	0.086628
C69	C	0.762669	0.464832	0.086652
H70	H	0.861725	0.346899	-0.150762
H71	H	0.932128	0.546961	-0.150803
H72	H	0.894914	0.694864	-0.000045
H73	H	0.787293	0.642708	0.150760
H74	H	0.716890	0.442646	0.150800
H75	H	0.622224	0.449998	0.000026
H76	H	0.955173	0.296770	0.247270
H77	H	1.237224	-0.059786	0.595311
H78	H	0.810700	-0.025142	0.000054
H79	H	0.894267	0.373808	0.404797
H80	H	0.894281	0.373798	0.595347
H81	H	1.176264	0.017242	0.247250
H82	H	0.955225	0.296762	0.752878
H83	H	1.176306	0.017249	0.752851
C84	C	1.254616	-0.081821	0.389767
C85	C	1.252475	-0.211071	0.404221
C86	C	1.319486	-0.295820	0.346451
C87	C	1.388637	-0.251319	0.274227
C88	C	1.390781	-0.122063	0.259770
C89	C	1.323770	-0.037314	0.317539
H90	H	1.201283	-0.244020	0.457689
H91	H	1.317899	-0.391505	0.357154
H92	H	1.438242	-0.314055	0.231463
H93	H	1.441973	-0.089114	0.206302
H94	H	1.325357	0.058371	0.306836
C95	C	0.498737	-0.165837	0.000082
C96	C	0.520101	-0.250817	0.086726
C97	C	0.479631	-0.365768	0.086733
C98	C	0.417796	-0.395739	0.000095
C99	C	0.396428	-0.310757	-0.086556
C100	C	0.436899	-0.195805	-0.086562
H101	H	0.565878	-0.228633	0.150867
H102	H	0.495450	-0.428678	0.150878
H103	H	0.387838	-0.480833	0.000099
H104	H	0.350652	-0.332941	-0.150696
H105	H	0.421080	-0.132896	-0.150707
H106	H	0.679884	-0.131891	0.000063
