data_functionalizedCrystal
_audit_creation_method	'MofGen! by Chris Wilmer'
_symmetry_space_group_name_H-M	'P1'
_symmetry_Int_Tables_number	1
_symmetry_cell_setting	triclinic
loop_
_symmetry_equiv_pos_as_xyz
  x,y,z
_cell_length_a	8.497374
_cell_length_b	8.497374
_cell_length_c	19.805407
_cell_angle_alpha	90.004504
_cell_angle_beta	89.998906
_cell_angle_gamma	90.005237
loop_
_atom_site_label
_atom_site_type_symbol
_atom_site_fract_x
_atom_site_fract_y
_atom_site_fract_z
Zn1	Zn	0.628329	0.892223	1.034754
Zn2	Zn	0.892075	0.628489	1.034749
Zn3	Zn	0.628303	0.628438	0.921599
Zn4	Zn	0.892061	0.892208	0.921582
O5	O	0.760192	0.760339	0.978171
O6	O	0.663333	0.857266	1.129470
O7	O	0.857080	0.407720	1.019744
O8	O	0.407544	0.663415	0.936618
O9	O	0.857106	0.663502	1.129466
O10	O	0.407564	0.857217	1.019753
O11	O	0.663288	0.407682	0.936613
O12	O	0.663274	0.663399	0.826880
O13	O	0.857082	1.112972	0.936590
O14	O	0.857056	0.857190	0.826868
O15	O	0.663319	1.112984	1.019737
O16	O	1.112836	0.663487	1.019728
O17	O	1.112826	0.857240	0.936585
C18	C	0.760162	0.760288	0.802315
C19	C	0.760187	0.760304	0.727083
C20	C	0.861241	0.861047	0.691750
C21	C	0.861244	0.861070	0.621062
C22	C	0.760199	0.760339	0.585707
C23	C	0.659134	0.659591	0.621045
C24	C	0.659125	0.659578	0.691732
C25	C	0.659169	0.659644	0.335972
C26	C	0.659190	0.659661	0.265279
C27	C	0.861289	0.861135	0.265301
C28	C	0.861279	0.861122	0.335989
C29	C	0.760209	0.760381	0.371320
C30	C	0.760205	0.760360	0.447968
C31	C	0.760210	0.760351	0.509060
C32	C	1.170072	0.760362	0.978162
C33	C	1.348716	0.760336	0.978180
C34	C	0.760195	1.171820	0.978166
C35	C	0.760211	1.350464	0.978167
C36	C	0.760224	0.760392	1.154714
C37	C	0.760237	0.760414	1.229946
H38	H	0.576883	0.577602	0.364730
Br39	Br	0.522049	0.522945	0.217298
H40	H	0.943529	0.943069	0.720531
H41	H	0.943565	0.943142	0.364771
H42	H	0.576855	0.577582	0.592254
H43	H	0.576828	0.577551	0.720499
H44	H	0.943534	0.943104	0.592297
H45	H	0.943579	0.943169	0.236526
