data_functionalizedCrystal
_audit_creation_method	'MofGen! by Chris Wilmer'
_symmetry_space_group_name_H-M	'P1'
_symmetry_Int_Tables_number	1
_symmetry_cell_setting	triclinic
loop_
_symmetry_equiv_pos_as_xyz
  x,y,z
_cell_length_a	14.971486
_cell_length_b	14.971486
_cell_length_c	9.616153
_cell_angle_alpha	89.995023
_cell_angle_beta	90.007028
_cell_angle_gamma	83.614183
loop_
_atom_site_label
_atom_site_type_symbol
_atom_site_fract_x
_atom_site_fract_y
_atom_site_fract_z
O1	O	1.186936	0.116566	-0.115480
O2	O	1.686936	0.616566	0.384520
O3	O	0.926536	0.130525	-0.115517
O4	O	1.426536	0.630525	0.384483
O5	O	1.063715	-0.006654	-0.115495
O6	O	1.563715	0.493346	0.384505
O7	O	1.049757	0.253746	-0.115502
O8	O	1.549757	0.753746	0.384498
O9	O	1.063721	-0.006666	0.115797
O10	O	1.563721	0.493334	0.615797
O11	O	0.926542	0.130513	0.115775
O12	O	1.426542	0.630513	0.615775
O13	O	1.186942	0.116555	0.115812
O14	O	1.686942	0.616555	0.615812
Zn15	Zn	1.056743	0.123532	0.152516
Zn16	Zn	1.556743	0.623532	0.652516
Zn17	Zn	1.056735	0.123548	-0.152221
Zn18	Zn	1.556735	0.623548	0.347779
O19	O	1.049763	0.253734	0.115790
O20	O	1.549763	0.753734	0.615790
C21	C	0.893214	0.129895	0.000124
C22	C	1.393214	0.629895	0.500124
C23	C	0.793917	0.128024	0.000110
C24	C	1.293917	0.628024	0.500110
C25	C	0.736692	0.208614	0.000110
C26	C	1.236692	0.708614	0.500110
C27	C	0.643392	0.206850	0.000130
C28	C	1.143392	0.706850	0.500130
C29	C	0.607320	0.124497	0.000141
C30	C	1.107320	0.624497	0.500141
C31	C	0.664552	0.043902	0.000146
C32	C	1.164552	0.543902	0.500146
C33	C	0.757850	0.045666	0.000135
C34	C	1.257850	0.545666	0.500135
C35	C	0.470090	0.040231	0.000165
C36	C	0.970090	0.540231	0.500165
C37	C	0.376786	0.038466	0.000173
C38	C	0.876786	0.538466	0.500173
C39	C	0.355632	0.201415	0.000161
C40	C	0.855632	0.701415	0.500161
C41	C	0.448930	0.203179	0.000150
C42	C	0.948930	0.703179	0.500150
C43	C	0.506156	0.122584	0.000151
C44	C	1.006156	0.622584	0.500151
C45	C	1.063094	-0.039985	0.000148
C46	C	1.563094	0.460015	0.500148
C47	C	1.061223	-0.139282	0.000141
C48	C	1.561223	0.360718	0.500141
C49	C	1.220264	0.117185	0.000168
C50	C	1.720264	0.617185	0.500168
C51	C	1.319561	0.119055	0.000173
C52	C	1.819561	0.619055	0.500173
N53	N	1.056730	0.123552	-0.360195
N54	N	1.556730	0.623552	0.139805
C55	C	1.050384	0.287065	0.000144
C56	C	1.550384	0.787065	0.500144
C57	C	1.052255	0.386362	0.000142
C58	C	1.552255	0.886362	0.500142
C59	C	1.053131	0.433015	-0.125937
C60	C	1.553131	0.933015	0.374063
C61	C	1.054900	0.526314	-0.125938
C62	C	1.554900	1.026314	0.374062
C63	C	1.055787	0.572958	0.000140
C64	C	1.555787	1.072958	0.500140
C65	C	1.054913	0.526298	0.126228
C66	C	1.554913	1.026298	0.626228
C67	C	1.053150	0.433000	0.126228
C68	C	1.553150	0.933000	0.626228
C69	C	1.058585	0.720761	0.126219
C70	C	1.558585	1.220761	0.626219
C71	C	1.060347	0.814065	0.126220
C72	C	1.560347	1.314065	0.626220
C73	C	1.060336	0.814074	-0.125948
C74	C	1.560336	1.314074	0.374052
C75	C	1.058573	0.720776	-0.125947
C76	C	1.558573	1.220776	0.374053
C77	C	1.057697	0.674123	0.000141
C78	C	1.557697	1.174123	0.500141
C79	C	0.983193	0.196799	-0.419249
C80	C	1.483193	0.696799	0.080751
C81	C	0.983396	0.197042	-0.580416
C82	C	1.483396	0.697042	-0.080416
C83	C	1.150140	0.143867	-0.580975
C84	C	1.650140	0.643867	-0.080975
C85	C	1.149694	0.144411	-0.419758
C86	C	1.649694	0.644411	0.080242
C87	C	1.037727	0.029733	-0.419573
C88	C	1.537727	0.529733	0.080427
C89	C	1.035620	0.030336	-0.580803
C90	C	1.535620	0.530336	-0.080803
N91	N	1.056755	0.123521	0.360490
N92	N	1.556755	0.623521	0.860490
H93	H	1.052401	0.395045	-0.228605
H94	H	1.552401	0.895045	0.271395
H95	H	0.995573	0.266653	-0.619016
H96	H	1.495573	0.766653	-0.119016
H97	H	1.057846	0.682801	-0.228612
H98	H	1.557846	1.182801	0.271388
H99	H	1.055640	0.564283	0.228883
H100	H	1.555640	1.064283	0.728883
Cl101	Cl	0.829791	-0.055651	0.000141
Cl102	Cl	1.329791	0.444349	0.500141
H103	H	0.635175	-0.023152	0.000174
H104	H	1.135175	0.476848	0.500174
H105	H	1.061040	0.852044	0.228884
H106	H	1.561040	1.352044	0.728884
H107	H	1.166406	0.212831	-0.382186
H108	H	1.666406	0.712831	0.117814
Cl109	Cl	0.542030	-0.061092	0.000170
Cl110	Cl	1.042030	0.438908	0.500170
H111	H	0.478296	0.270239	0.000128
H112	H	0.978296	0.770239	0.500128
Cl113	Cl	1.001719	0.303690	-0.356786
Cl114	Cl	1.501719	0.803690	0.143214
H115	H	0.913545	0.184893	-0.380502
H116	H	1.413545	0.684893	0.119498
H117	H	1.206140	0.093165	-0.380689
H118	H	1.706140	0.593165	0.119311
H119	H	1.052436	0.395017	0.228894
H120	H	1.552436	0.895017	0.728894
Cl121	Cl	1.057489	0.662111	0.284734
Cl122	Cl	1.557489	1.162111	0.784734
H123	H	1.061041	0.852064	-0.228614
H124	H	1.561041	1.352064	0.271386
H125	H	0.596803	0.272474	0.000129
H126	H	1.096803	0.772474	0.500129
Cl127	Cl	1.056004	0.584959	-0.284445
Cl128	Cl	1.556004	1.084959	0.215555
Cl129	Cl	1.236690	0.063671	-0.640055
Cl130	Cl	1.736690	0.563671	-0.140055
H131	H	1.091352	-0.024776	-0.381377
H132	H	1.591352	0.475224	0.118623
Cl133	Cl	1.112949	-0.057778	-0.642872
Cl134	Cl	1.612949	0.442222	-0.142872
Cl135	Cl	0.876220	0.178394	-0.641530
Cl136	Cl	1.376220	0.678394	-0.141530
Cl137	Cl	0.934809	-0.000451	-0.356818
Cl138	Cl	1.434809	0.499549	0.143182
Cl139	Cl	0.782030	0.312150	0.000087
Cl140	Cl	1.282030	0.812150	0.500087
Cl141	Cl	0.283691	0.302736	0.000161
Cl142	Cl	0.783691	0.802736	0.500161
Cl143	Cl	0.331439	-0.065065	0.000233
Cl144	Cl	0.831439	0.434935	0.500233
Cl145	Cl	0.929557	0.006492	-0.639875
Cl146	Cl	1.429557	0.506492	-0.139875
H147	H	1.167261	0.211495	-0.621381
H148	H	1.667261	0.711495	-0.121381
