data_functionalizedCrystal
_audit_creation_method	'MofGen! by Chris Wilmer'
_symmetry_space_group_name_H-M	'P1'
_symmetry_Int_Tables_number	1
_symmetry_cell_setting	triclinic
loop_
_symmetry_equiv_pos_as_xyz
  x,y,z
_cell_length_a	19.805407
_cell_length_b	29.839131
_cell_length_c	19.805399
_cell_angle_alpha	89.962782
_cell_angle_beta	89.975799
_cell_angle_gamma	90.034474
loop_
_atom_site_label
_atom_site_type_symbol
_atom_site_fract_x
_atom_site_fract_y
_atom_site_fract_z
Zn1	Zn	1.034694	-0.178873	-0.382758
Zn2	Zn	1.034592	-0.254000	-0.269551
Zn3	Zn	0.921509	-0.178884	-0.269573
Zn4	Zn	0.921455	-0.253975	-0.382688
O5	O	0.978062	-0.216433	-0.326142
O6	O	1.129397	-0.188844	-0.367760
O7	O	1.019571	-0.244051	-0.174837
O8	O	0.936589	-0.116016	-0.284626
O9	O	1.129322	-0.244040	-0.284587
O10	O	1.019745	-0.116007	-0.367782
O11	O	0.936489	-0.188864	-0.174854
O12	O	0.826785	-0.188840	-0.284559
O13	O	0.936497	-0.243998	-0.477414
O14	O	0.826746	-0.244009	-0.367664
O15	O	1.019693	-0.188820	-0.477465
O16	O	1.019518	-0.316864	-0.284520
O17	O	0.936397	-0.316846	-0.367642
C18	C	0.802206	-0.216423	-0.326106
C19	C	0.726974	-0.216430	-0.326107
C20	C	0.265180	-0.245214	-0.369391
C21	C	0.335869	-0.245213	-0.369376
C22	C	0.371213	-0.216444	-0.326169
C23	C	0.335864	-0.187677	-0.282968
C24	C	0.265177	-0.187680	-0.282980
C25	C	0.620938	-0.187663	-0.282921
C26	C	0.691630	-0.187661	-0.282914
C27	C	0.691629	-0.245196	-0.369317
C28	C	0.620942	-0.245199	-0.369329
C29	C	0.585600	-0.216434	-0.326126
C30	C	0.508952	-0.216436	-0.326141
C31	C	0.447860	-0.216440	-0.326157
C32	C	0.977959	-0.333156	-0.326085
C33	C	0.977977	-0.383090	-0.326084
C34	C	1.021353	-0.692694	-0.369504
C35	C	1.021426	-0.880367	-0.369544
O36	O	1.058205	-0.904599	-0.406419
N37	N	0.978177	-0.903875	-0.326218
C38	C	0.934904	-0.880462	-0.282881
O39	O	0.898115	-0.904763	-0.246035
C40	C	0.934828	-0.692790	-0.282844
C41	C	0.978084	-0.669284	-0.326169
C42	C	1.064605	-0.669189	-0.412825
C43	C	1.064589	-0.622273	-0.412812
C44	C	1.021320	-0.598863	-0.369477
C45	C	0.978068	-0.622369	-0.326156
C46	C	0.891551	-0.669377	-0.239511
C47	C	0.891535	-0.622456	-0.239507
C48	C	0.934791	-0.598951	-0.282832
C49	C	0.934783	-0.552043	-0.282807
N50	N	0.978032	-0.528536	-0.326134
C51	C	1.021301	-0.551946	-0.369469
C52	C	0.934948	-0.978993	-0.282902
C53	C	0.934968	-1.025910	-0.282910
C54	C	1.021489	-1.025813	-0.369575
C55	C	1.021472	-0.978894	-0.369563
C56	C	0.978197	-0.955485	-0.326229
C57	C	1.021264	-0.453420	-0.369438
C58	C	1.021246	-0.406500	-0.369419
C59	C	0.934722	-0.406602	-0.282757
C60	C	0.934742	-0.453518	-0.282773
C61	C	0.978015	-0.476925	-0.326119
O62	O	0.898018	-0.527783	-0.245957
O63	O	1.058073	-0.527636	-0.406320
C64	C	1.021369	-0.739610	-0.369517
C65	C	0.978116	-0.763115	-0.326195
C66	C	0.934848	-0.739705	-0.282860
C67	C	0.978136	-0.810033	-0.326203
C68	C	1.021405	-0.833443	-0.369538
C69	C	1.064654	-0.809935	-0.412865
C70	C	1.064638	-0.763020	-0.412852
C71	C	0.891599	-0.763213	-0.239534
C72	C	0.891619	-0.810129	-0.239550
C73	C	0.934888	-0.833539	-0.282885
C74	C	1.154605	-0.216444	-0.326179
C75	C	1.229837	-0.216448	-0.326195
C76	C	0.978100	-0.216405	-0.502685
C77	C	0.978117	-0.216393	-0.577917
C78	C	0.978184	-0.099255	-0.326215
C79	C	0.978237	-0.049320	-0.326245
C80	C	1.021438	-0.187660	-0.613289
C81	C	1.021445	-0.187647	-0.683978
C82	C	0.978133	-0.216369	-0.719293
C83	C	0.934807	-0.245103	-0.683916
C84	C	0.934797	-0.245113	-0.613229
C85	C	0.934845	-0.245061	-0.968990
C86	C	0.934860	-0.245049	-1.039682
C87	C	1.021493	-0.187595	-1.039738
C88	C	1.021483	-0.187605	-0.969051
C89	C	0.978155	-0.216337	-0.933680
C90	C	0.978147	-0.216350	-0.857032
C91	C	0.978144	-0.216359	-0.795940
C92	C	0.978064	-0.216429	-0.150286
C93	C	0.978179	-0.216314	-0.075055
H94	H	0.236409	-0.268639	-0.404579
H95	H	0.720413	-0.268619	-0.404493
H96	H	0.364642	-0.268638	-0.404549
H97	H	0.856327	-0.688508	-0.204231
H98	H	1.056771	-0.164199	-1.068546
C99	C	0.374745	-0.156027	-0.235445
N100	N	0.404029	-0.132185	-0.199653
C101	C	0.730506	-0.156014	-0.235376
N102	N	0.759788	-0.132179	-0.199572
C103	C	0.582070	-0.156015	-0.235405
N104	N	0.552793	-0.132173	-0.199618
H105	H	0.236402	-0.164255	-0.247807
C106	C	1.112177	-0.596423	-0.460471
N107	N	1.148024	-0.576956	-0.496369
H108	H	1.056473	-0.387363	-0.404699
C109	C	1.068871	-0.479161	-0.417116
N110	N	1.104733	-0.498550	-0.453023
H111	H	1.099840	-0.688244	-0.448118
C112	C	0.887207	-0.276644	-1.078527
N113	N	0.851316	-0.300440	-1.107786
H114	H	0.899525	-0.472657	-0.247489
C115	C	1.069055	-0.953042	-0.417226
N116	N	1.104895	-0.933573	-0.453129
H117	H	1.056723	-0.164252	-0.712774
C118	C	1.069082	-1.051572	-0.417248
N119	N	1.104922	-1.070976	-0.453157
C120	C	0.887388	-1.051761	-0.235245
N121	N	0.851545	-1.071230	-0.199344
C122	C	0.887331	-0.953248	-0.235235
N123	N	0.851465	-0.933860	-0.199333
C124	C	0.843928	-0.596709	-0.191834
N125	N	0.808072	-0.577317	-0.155925
H126	H	0.899514	-0.268506	-0.584430
C127	C	1.069126	-0.156007	-0.930208
N128	N	1.105009	-0.132205	-0.900953
H129	H	0.592169	-0.268624	-0.404515
C130	C	0.887126	-0.380842	-0.235094
N131	N	0.851272	-0.361438	-0.199198
C132	C	0.887158	-0.276693	-0.722765
N133	N	0.851266	-0.300488	-0.752026
C134	C	0.887181	-0.276666	-0.930091
N135	N	0.851276	-0.300471	-0.900790
C136	C	1.112224	-0.737170	-0.460512
N137	N	1.148069	-0.717703	-0.496412
H138	H	1.099887	-0.829004	-0.448147
H139	H	0.856396	-0.829263	-0.204263
H140	H	0.856364	-0.744156	-0.204246
C141	C	1.069084	-0.156063	-0.574449
N142	N	1.104970	-0.132261	-0.545196
