data_functionalizedCrystal
_audit_creation_method	'MofGen! by Chris Wilmer'
_symmetry_space_group_name_H-M	'P1'
_symmetry_Int_Tables_number	1
_symmetry_cell_setting	triclinic
loop_
_symmetry_equiv_pos_as_xyz
  x,y,z
_cell_length_a	14.908571
_cell_length_b	14.908520
_cell_length_c	14.908308
_cell_angle_alpha	96.360765
_cell_angle_beta	89.824947
_cell_angle_gamma	89.794039
loop_
_atom_site_label
_atom_site_type_symbol
_atom_site_fract_x
_atom_site_fract_y
_atom_site_fract_z
Zn1	Zn	1.316651	0.470613	0.613065
Zn2	Zn	1.816651	0.970613	1.113065
Zn3	Zn	1.316549	0.613252	0.470429
Zn4	Zn	1.816549	1.113252	0.970429
Zn5	Zn	1.176020	0.453291	0.453125
Zn6	Zn	1.676020	0.953291	0.953125
Zn7	Zn	1.157642	0.612180	0.612023
Zn8	Zn	1.657642	1.112180	1.112023
O9	O	1.241715	0.537334	0.537161
O10	O	1.741715	1.037334	1.037161
O11	O	1.441995	0.497231	0.601822
O12	O	1.941995	0.997231	1.101822
O13	O	1.305556	0.585232	0.341941
O14	O	1.805556	1.085232	0.841941
O15	O	1.202409	0.329399	0.467536
O16	O	1.702409	0.829399	0.967536
O17	O	1.441920	0.602028	0.497029
O18	O	1.941920	1.102028	0.997029
O19	O	1.305730	0.342124	0.585043
O20	O	1.805730	0.842124	1.085043
O21	O	1.202310	0.467710	0.329228
O22	O	1.702310	0.967710	0.829228
O23	O	1.048225	0.466671	0.466525
O24	O	1.548225	0.966671	0.966525
O25	O	1.171086	0.600202	0.738354
O26	O	1.671086	1.100202	1.238354
O27	O	1.034722	0.583406	0.583267
O28	O	1.534722	1.083406	1.083267
O29	O	1.287909	0.496192	0.739120
O30	O	1.787909	0.996192	1.239120
O31	O	1.287736	0.739300	0.496018
O32	O	1.787736	1.239300	0.996018
O33	O	1.170987	0.738513	0.600046
O34	O	1.670987	1.238513	1.100046
C35	C	1.008970	0.523043	0.522906
C36	C	1.508970	1.023043	1.022906
C37	C	0.909397	0.516953	0.516830
C38	C	1.409397	1.016953	1.016830
C39	C	1.227379	0.771629	0.549818
C40	C	1.727379	1.271629	1.049818
C41	C	1.221326	0.871868	0.555268
C42	C	1.721326	1.371868	1.055268
C43	C	0.708277	0.627234	0.626831
C44	C	1.208277	1.127234	1.126831
C45	C	0.614720	0.621514	0.621125
C46	C	1.114720	1.121514	1.121125
C47	C	0.628723	0.499789	0.499719
C48	C	1.128723	0.999789	0.999719
C49	C	0.722281	0.505509	0.505424
C50	C	1.222281	1.005509	1.005424
C51	C	0.762054	0.569235	0.568981
C52	C	1.262054	1.069235	1.068981
C53	C	0.855613	0.574958	0.574682
C54	C	1.355613	1.074958	1.074682
C55	C	0.869615	0.453230	0.453280
C56	C	1.369615	0.953230	0.953280
C57	C	0.776058	0.447510	0.447575
C58	C	1.276058	0.947510	0.947575
C59	C	1.227459	0.550010	0.772372
C60	C	1.727459	1.050010	1.272372
C61	C	1.221383	0.555411	0.872606
C62	C	1.721383	1.055411	1.372606
C63	C	1.475370	0.551681	0.551472
C64	C	1.975370	1.051681	1.051472
C65	C	1.574939	0.557795	0.557571
C66	C	2.074939	1.057795	1.057571
C67	C	1.256131	0.302127	0.524476
C68	C	1.756131	0.802127	1.024476
C69	C	1.262274	0.201896	0.519070
C70	C	1.762274	0.701896	1.019070
C71	C	1.331634	1.060998	0.457284
C72	C	1.831634	1.560998	0.957284
C73	C	1.325950	1.155181	0.462402
C74	C	1.825950	1.655181	0.962402
C75	C	1.204279	1.154420	0.570626
C76	C	1.704279	1.654420	1.070626
C77	C	1.209963	1.060237	0.565508
C78	C	1.709963	1.560237	1.065508
C79	C	1.273642	1.013529	0.508834
C80	C	1.773642	1.513529	1.008834
C81	C	1.279321	0.919343	0.503712
C82	C	1.779321	1.419343	1.003712
C83	C	1.157655	0.918584	0.611940
C84	C	1.657655	1.418584	1.111940
C85	C	1.151970	1.012768	0.617058
C86	C	1.651970	1.512768	1.117058
C87	C	1.255972	0.524646	0.302864
C88	C	1.755972	1.024646	0.802864
C89	C	1.262236	0.519001	0.202628
C90	C	1.762236	1.019001	0.702628
C91	C	1.331614	0.457236	1.061752
C92	C	1.831614	0.957236	1.561752
C93	C	1.325908	0.462308	1.155930
C94	C	1.825908	0.962308	1.655930
C95	C	1.204264	0.570623	1.155141
C96	C	1.704264	1.070623	1.655141
C97	C	1.209969	0.565551	1.060963
C98	C	1.709969	1.065551	1.560963
C99	C	1.273647	0.508856	1.014272
C100	C	1.773647	1.008856	1.514272
C101	C	1.279356	0.503789	0.920093
C102	C	1.779356	1.003789	1.420093
C103	C	1.157708	0.612099	0.919305
C104	C	1.657708	1.112099	1.419305
C105	C	1.152002	0.617171	1.013483
C106	C	1.652002	1.117171	1.513483
H107	H	0.887995	0.626848	0.626432
H108	H	1.387995	1.126848	1.126432
H109	H	1.152420	0.616780	1.193173
H110	H	1.652420	1.116780	1.693173
Cl111	Cl	1.411672	0.385975	1.003053
Cl112	Cl	1.911672	0.885975	1.503053
H113	H	1.373109	0.420271	1.194585
H114	H	1.873109	0.920271	1.694585
Cl115	Cl	1.359409	0.432519	0.861397
Cl116	Cl	1.859409	0.932519	1.361397
Cl117	Cl	1.411672	1.002275	0.386025
Cl118	Cl	1.911672	1.502275	0.886025
H119	H	1.152440	1.192467	0.616773
H120	H	1.652440	1.692467	1.116773
H121	H	1.100156	0.663328	1.051511
H122	H	1.600156	1.163328	1.551511
H123	H	0.913411	0.406004	0.406173
H124	H	1.413411	0.906004	0.906173
Cl125	Cl	1.359370	0.860625	0.432463
Cl126	Cl	1.859370	1.360625	0.932463
Cl127	Cl	1.084840	0.677007	0.859611
Cl128	Cl	1.584840	1.177007	1.359611
H129	H	0.570938	0.668742	0.668234
H130	H	1.070938	1.168742	1.168234
Cl131	Cl	0.758282	0.707352	0.706720
Cl132	Cl	1.258282	1.207352	1.206720
H133	H	0.743661	0.395624	0.395831
H134	H	1.243661	0.895624	0.895831
Cl135	Cl	1.398860	1.214855	0.397596
Cl136	Cl	1.898860	1.714855	0.897596
Cl137	Cl	1.071924	1.071495	0.688303
Cl138	Cl	1.571924	1.571495	1.188303
Cl139	Cl	1.084734	0.858902	0.676737
Cl140	Cl	1.584734	1.358902	1.176737
H141	H	0.596323	0.447902	0.447979
H142	H	1.096323	0.947902	0.947979
