data_functionalizedCrystal
_audit_creation_method	'MofGen! by Chris Wilmer'
_symmetry_space_group_name_H-M	'P1'
_symmetry_Int_Tables_number	1
_symmetry_cell_setting	triclinic
loop_
_symmetry_equiv_pos_as_xyz
  x,y,z
_cell_length_a	19.805407
_cell_length_b	19.077068
_cell_length_c	19.805399
_cell_angle_alpha	92.269429
_cell_angle_beta	89.980427
_cell_angle_gamma	92.327086
loop_
_atom_site_label
_atom_site_type_symbol
_atom_site_fract_x
_atom_site_fract_y
_atom_site_fract_z
Zn1	Zn	1.023904	-0.280218	-0.393534
Zn2	Zn	1.357237	0.053115	-0.060201
Zn3	Zn	1.690571	0.386449	0.273133
Zn4	Zn	1.019269	-0.397917	-0.284888
Zn5	Zn	1.352603	-0.064584	0.048445
Zn6	Zn	1.685936	0.268750	0.381779
Zn7	Zn	0.910718	-0.280237	-0.280359
Zn8	Zn	1.244051	0.053096	0.052974
Zn9	Zn	1.577385	0.386429	0.386307
Zn10	Zn	0.906134	-0.397880	-0.398033
Zn11	Zn	1.239467	-0.064546	-0.064700
Zn12	Zn	1.572801	0.268787	0.268633
O13	O	0.965006	-0.339063	-0.339204
O14	O	1.298340	-0.005730	-0.005870
O15	O	1.631673	0.327604	0.327463
O16	O	1.118005	-0.295839	-0.379134
O17	O	1.451339	0.037495	-0.045801
O18	O	1.784672	0.370828	0.287533
O19	O	1.004848	-0.382330	-0.189571
O20	O	1.338182	-0.048997	0.143762
O21	O	1.671515	0.284336	0.477095
O22	O	0.929590	-0.181744	-0.291594
O23	O	1.262924	0.151590	0.041740
O24	O	1.596257	0.484923	0.375073
O25	O	1.114600	-0.382312	-0.299312
O26	O	1.447934	-0.048978	0.034021
O27	O	1.781267	0.284355	0.367354
O28	O	1.012748	-0.181729	-0.374743
O29	O	1.346081	0.151604	-0.041409
O30	O	1.679414	0.484937	0.291924
O31	O	0.925096	-0.295872	-0.186244
O32	O	1.258429	0.037462	0.147089
O33	O	1.591763	0.370795	0.480422
O34	O	0.815394	-0.295835	-0.295957
O35	O	1.148727	0.037498	0.037377
O36	O	1.482060	0.370831	0.370710
O37	O	0.921778	-0.382248	-0.492152
O38	O	1.255111	-0.048915	-0.158819
O39	O	1.588444	0.284419	0.174515
O40	O	0.812026	-0.382267	-0.382411
O41	O	1.145359	-0.048933	-0.049078
O42	O	1.478692	0.284400	0.284255
O43	O	1.008303	-0.295802	-0.488846
O44	O	1.341636	0.037531	-0.155513
O45	O	1.674970	0.370864	0.177820
O46	O	1.000404	-0.496403	-0.303675
O47	O	1.333737	-0.163070	0.029658
O48	O	1.667070	0.170263	0.362992
O49	O	0.917284	-0.496376	-0.386802
O50	O	1.250617	-0.163043	-0.053469
O51	O	1.583950	0.170291	0.279864
C52	C	0.789151	-0.339050	-0.339181
C53	C	1.122484	-0.005716	-0.005848
C54	C	1.455817	0.327617	0.327486
C55	C	0.713918	-0.339061	-0.339188
C56	C	1.047252	-0.005727	-0.005855
C57	C	1.380585	0.327606	0.327478
C58	C	0.676836	-0.384133	-0.384138
C59	C	1.010169	-0.050800	-0.050804
C60	C	1.343502	0.282533	0.282529
C61	C	0.606147	-0.384135	-0.384147
C62	C	0.939481	-0.050801	-0.050814
C63	C	1.272814	0.282532	0.282519
C64	C	0.572543	-0.339066	-0.339204
C65	C	0.905876	-0.005733	-0.005870
C66	C	1.239209	0.327600	0.327463
C67	C	0.609630	-0.293989	-0.294252
C68	C	0.942964	0.039345	0.039081
C69	C	1.276297	0.372678	0.372415
C70	C	0.680318	-0.293985	-0.294246
C71	C	1.013651	0.039349	0.039087
C72	C	1.346984	0.372682	0.372420
C73	C	0.324556	-0.294004	-0.294275
C74	C	0.657890	0.039329	0.039058
C75	C	0.991223	0.372662	0.372392
C76	C	0.253864	-0.294014	-0.294283
C77	C	0.587197	0.039320	0.039050
C78	C	0.920531	0.372653	0.372384
C79	C	0.250386	-0.384154	-0.384176
C80	C	0.583719	-0.050821	-0.050843
C81	C	0.917053	0.282512	0.282491
C82	C	0.321073	-0.384150	-0.384170
C83	C	0.654407	-0.050817	-0.050837
C84	C	0.987740	0.282517	0.282496
C85	C	0.358155	-0.339070	-0.339221
C86	C	0.691488	-0.005737	-0.005888
C87	C	1.024822	0.327596	0.327445
C88	C	0.434804	-0.339069	-0.339212
C89	C	0.768137	-0.005735	-0.005879
C90	C	1.101470	0.327598	0.327454
C91	C	0.495895	-0.339071	-0.339209
C92	C	0.829229	-0.005738	-0.005875
C93	C	1.162562	0.327596	0.327458
C94	C	0.957862	-0.521927	-0.346233
C95	C	1.291195	-0.188594	-0.012900
C96	C	1.624528	0.144739	0.320433
C97	C	0.954867	-0.600157	-0.349263
C98	C	1.288200	-0.266824	-0.015930
C99	C	1.621534	0.066509	0.317404
C100	C	0.996770	-0.636901	-0.307443
C101	C	1.330103	-0.303568	0.025891
C102	C	1.663437	0.029766	0.359224
C103	C	0.993957	-0.710406	-0.310296
C104	C	1.327291	-0.377073	0.023037
C105	C	1.660624	-0.043740	0.356370
C106	C	0.949238	-0.747167	-0.354968
C107	C	1.282571	-0.413834	-0.021634
C108	C	1.615905	-0.080500	0.311699
C109	C	0.907333	-0.710418	-0.396793
C110	C	1.240667	-0.377085	-0.063460
C111	C	1.574000	-0.043752	0.269874
C112	C	0.910150	-0.636914	-0.393942
C113	C	1.243483	-0.303581	-0.060609
C114	C	1.576817	0.029753	0.272725
C115	C	0.936174	-0.967002	-0.368135
C116	C	1.269507	-0.633668	-0.034801
C117	C	1.602840	-0.300335	0.298532
C118	C	0.933359	-1.040511	-0.370981
C119	C	1.266692	-0.707178	-0.037647
C120	C	1.600025	-0.373844	0.295686
C121	C	1.019984	-1.040494	-0.284485
C122	C	1.353317	-0.707161	0.048849
C123	C	1.686651	-0.373828	0.382182
C124	C	1.022794	-0.966989	-0.281635
C125	C	1.356127	-0.633655	0.051698
C126	C	1.689460	-0.300322	0.385032
C127	C	0.980892	-0.930246	-0.323463
C128	C	1.314225	-0.596913	0.009871
C129	C	1.647558	-0.263580	0.343204
N130	N	0.946361	-0.822301	-0.357884
N131	N	1.279694	-0.488968	-0.024551
N132	N	1.613027	-0.155635	0.308782
N133	N	0.983773	-0.855113	-0.320549
N134	N	1.317106	-0.521780	0.012784
N135	N	1.650440	-0.188447	0.346118
C136	C	1.141548	-0.339077	-0.339226
C137	C	1.474882	-0.005744	-0.005893
C138	C	1.808215	0.327590	0.327440
C139	C	1.216780	-0.339083	-0.339236
C140	C	1.550114	-0.005750	-0.005903
C141	C	1.883447	0.327584	0.327430
C142	C	0.965046	-0.339019	-0.515745
C143	C	1.298379	-0.005685	-0.182411
C144	C	1.631713	0.327648	0.150922
C145	C	0.965063	-0.339000	-0.590976
C146	C	1.298396	-0.005667	-0.257643
C147	C	1.631730	0.327667	0.075691
C148	C	0.972197	-0.155485	-0.332161
C149	C	1.305531	0.177849	0.001172
C150	C	1.638864	0.511182	0.334505
C151	C	0.975262	-0.077255	-0.329160
C152	C	1.308595	0.256079	0.004173
C153	C	1.641928	0.589412	0.337506
C154	C	1.010118	-0.293985	-0.624600
C155	C	1.343451	0.039348	-0.291267
C156	C	1.676784	0.372681	0.042067
C157	C	1.010125	-0.293965	-0.695288
C158	C	1.343459	0.039368	-0.361954
C159	C	1.676792	0.372702	-0.028621
C160	C	0.965081	-0.338963	-0.732350
C161	C	1.298414	-0.005630	-0.399017
C162	C	1.631748	0.327704	-0.065683
C163	C	0.920022	-0.383980	-0.698721
C164	C	1.253355	-0.050646	-0.365388
C165	C	1.586688	0.282687	-0.032055
C166	C	0.920011	-0.383996	-0.628035
C167	C	1.253344	-0.050663	-0.294701
C168	C	1.586678	0.282671	0.038632
C169	C	0.920062	-0.383914	-0.983792
C170	C	1.253396	-0.050581	-0.650459
C171	C	1.586729	0.282753	-0.317126
C172	C	0.920078	-0.383896	-1.054484
C173	C	1.253411	-0.050562	-0.721150
C174	C	1.586744	0.282771	-0.387817
C175	C	1.010177	-0.293883	-1.051045
C176	C	1.343510	0.039450	-0.717712
C177	C	1.676843	0.372784	-0.384378
C178	C	1.010166	-0.293899	-0.980358
C179	C	1.343499	0.039434	-0.647025
C180	C	1.676833	0.372767	-0.313692
C181	C	0.965104	-0.338913	-0.946736
C182	C	1.298438	-0.005580	-0.613402
C183	C	1.631771	0.327754	-0.280069
C184	C	0.965096	-0.338934	-0.870088
C185	C	1.298429	-0.005600	-0.536755
C186	C	1.631762	0.327733	-0.203421
C187	C	0.965093	-0.338947	-0.808997
C188	C	1.298426	-0.005613	-0.475663
C189	C	1.631759	0.327720	-0.142330
C190	C	0.965008	-0.339056	-0.163347
C191	C	1.298341	-0.005723	0.169986
C192	C	1.631674	0.327610	0.503319
C193	C	0.965130	-0.338877	-0.088109
C194	C	1.298463	-0.005544	0.245225
C195	C	1.631796	0.327790	0.578558
H196	H	0.226505	-0.257309	-0.257684
H197	H	0.559839	0.076024	0.075649
H198	H	0.893172	0.409357	0.408982
Cl199	Cl	1.066797	-0.237404	-0.737556
Cl200	Cl	1.400130	0.095929	-0.404222
Cl201	Cl	1.733464	0.429263	-0.070889
Cl202	Cl	0.863445	-0.440468	-1.101076
Cl203	Cl	1.196779	-0.107135	-0.767743
Cl204	Cl	1.530112	0.226198	-0.434409
H205	H	1.028079	-0.740320	-0.276241
H206	H	1.361412	-0.406987	0.057092
H207	H	1.694745	-0.073653	0.390426
Cl208	Cl	0.883495	-0.920821	-0.420717
Cl209	Cl	1.216828	-0.587488	-0.087384
Cl210	Cl	1.550162	-0.254154	0.245950
Cl211	Cl	0.857472	-0.590722	-0.446521
Cl212	Cl	1.190805	-0.257389	-0.113188
Cl213	Cl	1.524139	0.075945	0.220146
Cl214	Cl	1.072662	-1.086689	-0.231909
Cl215	Cl	1.405995	-0.753355	0.101424
Cl216	Cl	1.739328	-0.420022	0.434757
H217	H	1.059207	-0.937060	-0.245260
H218	H	1.392541	-0.603726	0.088073
H219	H	1.725874	-0.270393	0.421407
Cl220	Cl	0.863414	-0.440503	-0.941533
Cl221	Cl	1.196747	-0.107170	-0.608200
Cl222	Cl	1.530080	0.226164	-0.274866
H223	H	0.896951	-1.070439	-0.407369
H224	H	1.230284	-0.737106	-0.074036
H225	H	1.563618	-0.403773	0.259297
H226	H	1.046848	-0.257260	-0.950185
H227	H	1.380181	0.076074	-0.616852
H228	H	1.713515	0.409407	-0.283519
Cl229	Cl	0.851118	-0.756632	-0.452956
Cl230	Cl	1.184452	-0.423298	-0.119622
Cl231	Cl	1.517785	-0.089965	0.213711
H232	H	0.354740	-0.257303	-0.257670
H233	H	0.688073	0.076030	0.075663
H234	H	1.021406	0.409364	0.408997
Cl235	Cl	0.863366	-0.440586	-0.585765
Cl236	Cl	1.196700	-0.107252	-0.252431
Cl237	Cl	1.530033	0.226081	0.080902
H238	H	0.704191	-0.420836	-0.420734
H239	H	1.037525	-0.087502	-0.087401
H240	H	1.370858	0.245831	0.245933
H241	H	0.582264	-0.257290	-0.257661
H242	H	0.915597	0.076043	0.075672
H243	H	1.248931	0.409376	0.409006
Cl244	Cl	1.052987	-0.590695	-0.251277
Cl245	Cl	1.386320	-0.257362	0.082057
Cl246	Cl	1.719654	0.075972	0.415390
Cl247	Cl	0.726936	-0.237318	-0.237738
Cl248	Cl	1.060270	0.096016	0.095596
Cl249	Cl	1.393603	0.429349	0.428929
Cl250	Cl	1.066751	-0.237416	-0.578014
Cl251	Cl	1.400085	0.095917	-0.244680
Cl252	Cl	1.733418	0.429250	0.088653
H253	H	1.046866	-0.257228	-1.078429
H254	H	1.380199	0.076105	-0.745096
H255	H	1.713532	0.409438	-0.411762
H256	H	0.883343	-0.420615	-0.728903
H257	H	1.216677	-0.087282	-0.395570
H258	H	1.550010	0.246051	-0.062237
H259	H	0.575957	-0.420838	-0.420749
H260	H	0.909291	-0.087504	-0.087416
H261	H	1.242624	0.245829	0.245918
H262	H	0.348430	-0.420852	-0.420766
H263	H	0.681764	-0.087518	-0.087432
H264	H	1.015097	0.245815	0.245901
Cl265	Cl	0.203765	-0.440827	-0.440685
Cl266	Cl	0.537098	-0.107493	-0.107351
Cl267	Cl	0.870431	0.225840	0.225982
