data_functionalizedCrystal
_audit_creation_method	'MofGen! by Chris Wilmer'
_symmetry_space_group_name_H-M	'P1'
_symmetry_Int_Tables_number	1
_symmetry_cell_setting	triclinic
loop_
_symmetry_equiv_pos_as_xyz
  x,y,z
_cell_length_a	12.784890
_cell_length_b	14.519731
_cell_length_c	11.295483
_cell_angle_alpha	94.102025
_cell_angle_beta	86.328828
_cell_angle_gamma	78.397706
loop_
_atom_site_label
_atom_site_type_symbol
_atom_site_fract_x
_atom_site_fract_y
_atom_site_fract_z
O1	O	1.417473	-0.001013	-0.098988
O2	O	1.108097	0.038477	-0.098999
O3	O	1.270975	-0.116173	-0.098983
O4	O	1.254595	0.153637	-0.099005
O5	O	1.256669	-0.102609	0.099067
O6	O	1.093791	0.052041	0.099050
O7	O	1.403167	0.012552	0.099061
Cu8	Cu	1.247173	0.033535	0.117139
Cu9	Cu	1.264091	0.017494	-0.117077
O10	O	1.240289	0.167201	0.099044
C11	C	1.061350	0.047827	0.000024
C12	C	0.943371	0.055469	0.000020
C13	C	0.764586	0.151245	0.000010
C14	C	0.875436	0.144070	0.000011
C15	C	0.900448	-0.025964	0.000025
C16	C	0.789598	-0.018790	0.000024
C17	C	0.721670	0.069818	0.000019
C18	C	0.610816	0.076992	0.000027
C19	C	0.635831	-0.093042	0.000032
C20	C	0.746682	-0.100217	0.000032
C21	C	1.263054	-0.143688	0.000042
C22	C	1.260754	-0.245880	0.000043
C23	C	1.258886	-0.328872	0.000040
C24	C	1.256551	-0.432991	0.000031
C25	C	1.254698	-0.515979	0.000023
C26	C	1.252363	-0.620104	0.000016
C27	C	1.449915	0.003201	0.000035
C28	C	1.567894	-0.004441	0.000031
C29	C	1.248210	0.194716	0.000017
C30	C	1.250510	0.296908	0.000008
N31	N	1.235281	0.044816	0.281874
N32	N	1.275991	0.006204	-0.281812
C33	C	1.361595	-0.075056	0.531177
C34	C	1.352616	-0.066525	0.655839
C35	C	1.208339	0.070405	0.655865
C36	C	1.217318	0.061874	0.531202
C37	C	1.293950	-0.010858	0.468862
C38	C	1.302933	-0.019385	0.344197
C39	C	1.158652	0.117540	0.344225
C40	C	1.149673	0.126071	0.468887
H41	H	0.709276	0.223393	0.000020
N42	N	1.071385	0.200358	0.532555
N43	N	0.974161	0.205974	0.518648
H44	H	0.918868	0.258441	0.563611
N45	N	1.381142	-0.093714	0.280494
N46	N	1.378431	-0.177857	0.294428
H47	H	1.433643	-0.230367	0.249427
H48	H	1.423999	-0.134271	0.480419
H49	H	1.407698	-0.118802	0.706572
H50	H	1.145940	0.129616	0.706638
H51	H	1.103574	0.169816	0.293474
H52	H	0.910373	0.210377	0.000006
N53	N	0.541442	0.167506	0.000032
N54	N	0.579780	0.240200	0.000024
H55	H	0.530787	0.304129	0.000027
H56	H	0.600885	-0.159353	-0.000056
H57	H	0.955774	-0.098104	0.000020
H58	H	0.802003	-0.172359	0.000033
