data_functionalizedCrystal
_audit_creation_method	'MofGen! by Chris Wilmer'
_symmetry_space_group_name_H-M	'P1'
_symmetry_Int_Tables_number	1
_symmetry_cell_setting	triclinic
loop_
_symmetry_equiv_pos_as_xyz
  x,y,z
_cell_length_a	6.817900
_cell_length_b	10.943624
_cell_length_c	15.866433
_cell_angle_alpha	110.430020
_cell_angle_beta	102.657169
_cell_angle_gamma	108.838799
loop_
_atom_site_label
_atom_site_type_symbol
_atom_site_fract_x
_atom_site_fract_y
_atom_site_fract_z
V1	V	-4.123290	-0.465684	-0.132618
O2	O	-4.072828	-0.391842	0.006399
O3	O	-4.108903	-0.524992	-0.262984
O4	O	-4.101132	-0.640274	-0.130567
O5	O	-4.080653	-0.275762	-0.126935
V6	V	-4.599111	-0.435377	-0.115991
O7	O	-4.401445	-0.532167	-0.169090
O8	O	-4.771153	-0.368894	-0.079519
O9	O	-4.390291	-0.376068	0.014375
O10	O	-4.766970	-0.509219	-0.255008
O11	O	-4.759145	-0.625299	-0.121674
O12	O	-4.398062	-0.260787	-0.118043
C13	C	-3.961330	-0.533771	-0.294765
C14	C	-4.031028	-0.583426	-0.401340
C15	C	-4.191167	-0.778153	-0.565237
C16	C	-4.125668	-0.731480	-0.465092
C17	C	-4.001843	-0.481987	-0.437717
C18	C	-4.067322	-0.528639	-0.537862
C19	C	-4.161984	-0.676723	-0.601615
C20	C	-4.038139	-0.427209	-0.574240
C21	C	-4.103624	-0.473858	-0.674377
C22	C	-4.198292	-0.621937	-0.738136
C23	C	-4.227469	-0.723372	-0.701752
C24	C	-3.943491	-0.279126	-0.510486
C25	C	-3.914308	-0.177696	-0.546863
C26	C	-3.979779	-0.224344	-0.647001
C27	C	-4.074447	-0.372423	-0.710760
C28	C	-3.950602	-0.122909	-0.683385
C29	C	-4.016087	-0.169558	-0.783522
C30	C	-4.139932	-0.419072	-0.810897
C31	C	-3.951415	-0.680823	-0.125852
C32	C	-4.014807	-0.823961	-0.125037
C33	C	-3.859315	-0.898498	-0.119552
C34	C	-4.053458	-1.043247	-0.200969
C35	C	-3.933644	-0.934267	-0.042178
C36	C	-4.208166	-0.966870	-0.206531
C37	C	-4.088267	-0.857832	-0.047668
C38	C	-4.282549	-1.002563	-0.129108
C39	C	-4.201208	-0.367288	0.046150
C40	C	-4.110749	-0.317642	0.152725
C41	C	-4.211121	-0.220233	-0.122760
C42	C	-4.126966	-0.077091	-0.123570
H43	H	-4.268224	-0.898737	-0.617149
H44	H	-4.251615	-0.659916	-0.819673
Cl45	Cl	-3.582287	-0.828516	-0.113480
H46	H	-4.102235	-0.777994	0.017145
Cl47	Cl	-3.861199	-0.220483	-0.384599
H48	H	-4.304526	-0.843956	-0.753663
Cl49	Cl	-4.259025	-0.605243	-0.891054
Cl50	Cl	-4.162380	-0.859010	-0.419365
Cl51	Cl	-3.882905	-0.295833	-0.357564
H52	H	-3.837236	-0.057126	-0.494943
H53	H	-4.039406	-1.123049	-0.265779
Cl54	Cl	-3.831680	0.063243	-0.603230
Cl55	Cl	-3.979400	-0.042045	-0.829258
Cl56	Cl	-4.386450	-0.986269	-0.313890
Cl57	Cl	-4.559760	-1.072315	-0.135371
H58	H	-3.818213	-0.921970	0.027265
