data_functionalizedCrystal
_audit_creation_method	'MofGen! by Chris Wilmer'
_symmetry_space_group_name_H-M	'P1'
_symmetry_Int_Tables_number	1
_symmetry_cell_setting	triclinic
loop_
_symmetry_equiv_pos_as_xyz
  x,y,z
_cell_length_a	17.640112
_cell_length_b	25.639240
_cell_length_c	17.639477
_cell_angle_alpha	78.745603
_cell_angle_beta	114.276174
_cell_angle_gamma	101.259448
loop_
_atom_site_label
_atom_site_type_symbol
_atom_site_fract_x
_atom_site_fract_y
_atom_site_fract_z
Zn1	Zn	1.165540	-0.023810	-0.211669
Zn2	Zn	1.193275	-0.125967	-0.073862
Zn3	Zn	1.055590	-0.053258	-0.101687
Zn4	Zn	1.027698	-0.125957	-0.239423
O5	O	1.110526	-0.082248	-0.156660
O6	O	1.284529	-0.025042	-0.170128
O7	O	1.198291	-0.128650	0.037762
O8	O	1.070241	0.023827	-0.116305
O9	O	1.304905	-0.100096	-0.068882
O10	O	1.151021	0.045461	-0.197109
O11	O	1.097134	-0.075231	0.017320
O12	O	0.936581	-0.075221	-0.143218
O13	O	1.022703	-0.100079	-0.351057
O14	O	0.916089	-0.128633	-0.244412
O15	O	1.123975	-0.025032	-0.330666
O16	O	1.171245	-0.199144	-0.095795
O17	O	1.049596	-0.199136	-0.217432
C18	C	0.896436	-0.105122	-0.199846
C19	C	0.804844	-0.114917	-0.218341
C20	C	1.110422	-0.218110	-0.156619
C21	C	1.110448	-0.276221	-0.156614
C22	C	0.556757	-0.007820	-0.016164
C23	C	0.470690	-0.017034	-0.033553
C24	C	0.449442	-0.072763	-0.138745
C25	C	0.535509	-0.063552	-0.121367
C26	C	0.589160	-0.031080	-0.060075
C27	C	0.567912	-0.086812	-0.165278
C28	C	0.653972	-0.077603	-0.147898
C29	C	0.707629	-0.045134	-0.086607
C30	C	0.675220	-0.021871	-0.042695
C31	C	0.514260	-0.119286	-0.226566
C32	C	0.546663	-0.142547	-0.270477
C33	C	0.632724	-0.133335	-0.253102
C34	C	0.686381	-0.100866	-0.191810
C35	C	0.665133	-0.156598	-0.297014
C36	C	0.751192	-0.147389	-0.279634
C37	C	0.772441	-0.091657	-0.174430
C38	C	1.152595	-0.625251	-0.198824
C39	C	1.152616	-0.679851	-0.198836
O40	O	1.188326	-0.698474	-0.234686
N41	N	1.110624	-0.718466	-0.156717
C42	C	1.068602	-0.702480	-0.114590
O43	O	1.032885	-0.740339	-0.078766
C44	C	1.068576	-0.647881	-0.114584
C45	C	1.110578	-0.609267	-0.156699
C46	C	1.194593	-0.586638	-0.240936
C47	C	1.194573	-0.532042	-0.240923
C48	C	1.152555	-0.516059	-0.198798
C49	C	1.110558	-0.554671	-0.156685
C50	C	1.026549	-0.631895	-0.072462
C51	C	1.026527	-0.577291	-0.072460
C52	C	1.068528	-0.538678	-0.114575
C53	C	1.068521	-0.484092	-0.114546
N54	N	1.110513	-0.445476	-0.156666
C55	C	1.152530	-0.461460	-0.198791
C56	C	1.068657	-0.817141	-0.114608
C57	C	1.068687	-0.871739	-0.114609
C58	C	1.152700	-0.849106	-0.198856
C59	C	1.152675	-0.794507	-0.198850
C60	C	1.110649	-0.778525	-0.156727
C61	C	1.152486	-0.346805	-0.198759
C62	C	1.152465	-0.292205	-0.198739
C63	C	1.068449	-0.314842	-0.114496
C64	C	1.068473	-0.369437	-0.114512
C65	C	1.110493	-0.385416	-0.156650
O66	O	1.032827	-0.465429	-0.078717
O67	O	1.188231	-0.423596	-0.234618
C68	C	1.325452	-0.059285	-0.113306
C69	C	1.417040	-0.049500	-0.094831
C70	C	1.067134	-0.059270	-0.371597
C71	C	1.048643	-0.049478	-0.463191
C72	C	1.110648	0.054149	-0.156715
C73	C	1.110701	0.112273	-0.156738
C74	C	1.251175	-0.156336	-0.711187
C75	C	1.233790	-0.147130	-0.797255
C76	C	1.128462	-0.091508	-0.818540
C77	C	1.145836	-0.100712	-0.732472
C78	C	1.207194	-0.133125	-0.678802
C79	C	1.101855	-0.077501	-0.700088
C80	C	1.119231	-0.086701	-0.614027
C81	C	1.180588	-0.119112	-0.560351
C82	C	1.224570	-0.142326	-0.592742
C83	C	1.040501	-0.045084	-0.753758
C84	C	0.996520	-0.021874	-0.721373
C85	C	1.013891	-0.031077	-0.635312
C86	C	1.075248	-0.063488	-0.581637
C87	C	0.969909	-0.007863	-0.602922
C88	C	0.987285	-0.017064	-0.516861
C89	C	1.092624	-0.072688	-0.495576
C90	C	1.153796	-0.105094	0.057451
C91	C	1.172447	-0.114722	0.149076
H92	H	0.816125	-0.065207	-0.124532
H93	H	0.992347	-0.663326	-0.038167
C94	C	1.292055	-0.177987	-0.533701
H95	H	1.315762	-0.190495	-0.565312
H96	H	1.267284	-0.207725	-0.506480
H97	H	1.334759	-0.157735	-0.492894
H98	H	0.951474	0.001839	-0.490493
C99	C	1.240771	-0.489574	-0.287254
H100	H	1.265789	-0.506921	-0.312345
H101	H	1.283052	-0.467792	-0.248513
H102	H	1.201967	-0.467817	-0.329501
H103	H	1.026360	-0.037592	-0.823833
H104	H	0.992301	-0.564283	-0.038160
C105	C	0.902423	0.027791	-0.661963
H106	H	0.898373	0.029945	-0.717856
H107	H	0.917359	0.062706	-0.645438
H108	H	0.849895	0.012711	-0.659029
H109	H	1.034279	-0.400879	-0.080211
H110	H	0.777704	-0.037638	-0.072455
H111	H	0.444311	0.001914	0.002203
C112	C	1.022229	-0.297252	-0.068166
H113	H	1.028228	-0.259205	-0.074202
H114	H	1.045503	-0.310835	-0.010366
H115	H	0.964428	-0.310858	-0.091365
C116	C	1.198660	-0.249733	-0.245076
H117	H	1.223677	-0.267075	-0.270174
H118	H	1.240941	-0.227949	-0.206338
H119	H	1.159850	-0.227977	-0.287320
H120	H	1.142596	-0.099077	-0.451872
C121	C	1.240822	-0.604211	-0.287273
H122	H	1.265831	-0.573389	-0.312343
H123	H	1.202050	-0.625053	-0.329524
H124	H	1.283126	-0.625023	-0.248527
H125	H	1.301147	-0.182725	-0.667484
C126	C	0.390422	-0.108477	-0.206165
H127	H	0.334526	-0.110628	-0.210232
H128	H	0.406959	-0.143388	-0.191163
H129	H	0.393361	-0.093439	-0.258706
H130	H	1.186696	-0.359807	-0.233079
H131	H	0.444186	-0.126783	-0.240715
H132	H	0.718904	0.004580	0.007204
H133	H	0.600441	0.018631	0.033735
C134	C	1.198859	-0.752037	-0.245193
H135	H	1.223877	-0.769382	-0.270287
H136	H	1.241137	-0.730248	-0.206462
H137	H	1.160042	-0.730287	-0.287441
C138	C	0.606112	-0.192316	-0.364428
H139	H	0.550217	-0.194467	-0.368491
H140	H	0.622652	-0.227226	-0.349420
H141	H	0.609045	-0.177281	-0.416972
C142	C	0.487643	-0.178260	-0.337897
H143	H	0.431747	-0.180411	-0.341964
H144	H	0.504180	-0.213172	-0.322895
H145	H	0.490582	-0.163222	-0.390438
H146	H	1.034495	-0.903174	-0.080304
C147	C	1.022438	-0.799566	-0.068257
H148	H	0.997443	-0.830386	-0.043170
H149	H	0.980139	-0.778750	-0.106987
H150	H	1.061229	-0.778727	-0.026004
H151	H	0.777575	-0.166329	-0.315391
C152	C	1.282179	-0.172660	-0.832875
H153	H	1.321207	-0.193283	-0.788583
H154	H	1.311318	-0.145228	-0.859211
H155	H	1.243862	-0.195228	-0.872797
H156	H	1.194736	-0.126601	-0.490275
C157	C	1.198913	-0.866695	-0.245200
H158	H	1.192902	-0.904743	-0.239175
H159	H	1.256711	-0.853089	-0.222018
H160	H	1.175621	-0.853112	-0.303002
H161	H	1.078506	-0.065115	-0.862249
H162	H	0.946564	0.004519	-0.765083
