data_functionalizedCrystal
_audit_creation_method	'MofGen! by Chris Wilmer'
_symmetry_space_group_name_H-M	'P1'
_symmetry_Int_Tables_number	1
_symmetry_cell_setting	triclinic
loop_
_symmetry_equiv_pos_as_xyz
  x,y,z
_cell_length_a	10.723024
_cell_length_b	16.109301
_cell_length_c	15.186229
_cell_angle_alpha	90.002891
_cell_angle_beta	90.000907
_cell_angle_gamma	96.035325
loop_
_atom_site_label
_atom_site_type_symbol
_atom_site_fract_x
_atom_site_fract_y
_atom_site_fract_z
O1	O	0.160384	-1.104078	-0.073171
O2	O	0.660384	-0.604078	0.426829
O3	O	0.180344	-0.862133	-0.073184
O4	O	0.680344	-0.362133	0.426816
O5	O	-0.011286	-0.988686	-0.073174
O6	O	0.488714	-0.488686	0.426826
O7	O	0.352014	-0.977524	-0.073181
O8	O	0.852014	-0.477524	0.426819
O9	O	-0.011275	-0.988671	0.073283
O10	O	0.488725	-0.488671	0.573283
O11	O	0.180355	-0.862118	0.073273
O12	O	0.680355	-0.362118	0.573273
O13	O	0.160395	-1.104063	0.073287
O14	O	0.660395	-0.604063	0.573287
Zn15	Zn	0.170377	-0.983088	0.096533
Zn16	Zn	0.670377	-0.483088	0.596533
Zn17	Zn	0.170362	-0.983108	-0.096431
Zn18	Zn	0.670362	-0.483108	0.403569
O19	O	0.352025	-0.977510	0.073276
O20	O	0.852025	-0.477510	0.573276
C21	C	-0.057770	-0.987866	0.000054
C22	C	0.442230	-0.487866	0.500054
C23	C	-0.196292	-0.985436	0.000050
C24	C	0.303708	-0.485436	0.500050
C25	C	0.179541	-0.831146	0.000043
C26	C	0.679541	-0.331146	0.500043
C27	C	0.177117	-0.738836	0.000037
C28	C	0.677117	-0.238836	0.500037
C29	C	0.161198	-1.135050	0.000058
C30	C	0.661198	-0.635050	0.500058
C31	C	0.163622	-1.227359	0.000057
C32	C	0.663622	-0.727359	0.500057
C33	C	-0.272213	-1.056249	0.000053
C34	C	0.227787	-0.556249	0.500053
C35	C	-0.415383	-1.053739	0.000050
C36	C	0.084617	-0.553739	0.500050
C37	C	0.398508	-0.978329	0.000047
C38	C	0.898508	-0.478329	0.500047
C39	C	0.537031	-0.980759	0.000044
C40	C	1.037031	-0.480759	0.500044
N41	N	0.170386	-0.983081	0.228226
N42	N	0.670386	-0.483081	0.728226
C43	C	0.285190	-0.517200	0.000045
C44	C	0.785190	-0.017200	0.500045
C45	C	0.282903	-0.430466	0.000051
C46	C	0.782903	0.069534	0.500051
C47	C	0.055540	-0.449003	0.000052
C48	C	0.555540	0.050997	0.500052
C49	C	0.057829	-0.535735	0.000052
C50	C	0.557829	-0.035735	0.500052
C51	C	0.172658	-0.569831	0.000045
C52	C	0.672658	-0.069831	0.500045
C53	C	0.168081	-0.396365	0.000050
C54	C	0.668081	0.103635	0.500050
C55	C	0.165600	-0.302324	0.000056
C56	C	0.665600	0.197676	0.500056
C57	C	0.175139	-0.663877	0.000040
C58	C	0.675139	-0.163877	0.500040
N59	N	0.170343	-0.983122	-0.228123
N60	N	0.670343	-0.483122	0.271877
C61	C	0.246071	-1.033950	0.453950
C62	C	0.746071	-0.533950	0.953950
C63	C	0.246062	-1.033959	0.546140
C64	C	0.746062	-0.533959	1.046140
C65	C	0.094649	-0.932250	0.546146
C66	C	0.594649	-0.432250	1.046146
C67	C	0.094652	-0.932246	0.453958
C68	C	0.594652	-0.432246	0.953958
C69	C	0.170371	-0.983095	0.407862
C70	C	0.670371	-0.483095	0.907862
C71	C	0.170358	-0.983108	0.592240
C72	C	0.670358	-0.483108	1.092240
C73	C	0.170348	-0.983117	0.692196
C74	C	0.670348	-0.483117	1.192196
C75	C	0.170379	-0.983087	0.307900
C76	C	0.670379	-0.483087	0.807900
H77	H	-0.231219	-1.118732	0.000062
H78	H	0.268781	-0.618732	0.500062
C79	C	0.329352	-1.089892	0.403248
C80	C	0.829352	-0.589892	0.903248
N81	N	0.392077	-1.132032	0.365062
N82	N	0.892077	-0.632032	0.865062
C83	C	0.329361	-1.089889	0.596832
C84	C	0.829361	-0.589889	1.096832
N85	N	0.392112	-1.132014	0.635013
N86	N	0.892112	-0.632014	1.135013
C87	C	-0.374849	-0.898856	0.000040
C88	C	0.125151	-0.398856	0.500040
N89	N	-0.308467	-0.837167	0.000035
N90	N	0.191533	-0.337167	0.500035
H91	H	0.033004	-0.890851	0.583688
H92	H	0.533004	-0.390851	1.083688
C93	C	-0.503511	-1.135638	0.000054
C94	C	-0.003511	-0.635638	0.500054
N95	N	-0.569893	-1.197327	0.000055
N96	N	-0.069893	-0.697327	0.500055
C97	C	0.411505	-0.554702	0.000048
C98	C	0.911505	-0.054702	0.500048
N99	N	0.506649	-0.582946	0.000054
N100	N	1.006649	-0.082946	0.500054
H101	H	-0.037950	-0.421231	0.000063
H102	H	0.462050	0.078769	0.500063
C103	C	0.011373	-0.876298	0.403259
C104	C	0.511373	-0.376298	0.903259
N105	N	-0.051352	-0.834160	0.365072
N106	N	0.448648	-0.334160	0.865072
C107	C	0.406698	-0.372575	0.000056
C108	C	0.906698	0.127425	0.500056
N109	N	0.499947	-0.328972	0.000062
N110	N	0.999947	0.171028	0.500062
C111	C	-0.065973	-0.593633	0.000052
C112	C	0.434027	-0.093633	0.500052
N113	N	-0.159216	-0.637241	0.000054
N114	N	0.340784	-0.137241	0.500054
H115	H	-0.237286	-0.922953	0.000041
H116	H	0.262714	-0.422953	0.500041
