data_functionalizedCrystal
_audit_creation_method	'MofGen! by Chris Wilmer'
_symmetry_space_group_name_H-M	'P1'
_symmetry_Int_Tables_number	1
_symmetry_cell_setting	triclinic
loop_
_symmetry_equiv_pos_as_xyz
  x,y,z
_cell_length_a	14.908783
_cell_length_b	21.295417
_cell_length_c	14.908308
_cell_angle_alpha	93.260635
_cell_angle_beta	89.788727
_cell_angle_gamma	93.321081
loop_
_atom_site_label
_atom_site_type_symbol
_atom_site_fract_x
_atom_site_fract_y
_atom_site_fract_z
Zn1	Zn	1.345261	-0.220173	-0.587798
Zn2	Zn	1.678594	0.113160	-0.254465
Zn3	Zn	2.011928	0.446494	0.078869
Zn4	Zn	1.353817	-0.319050	-0.437424
Zn5	Zn	1.687151	0.014283	-0.104090
Zn6	Zn	2.020484	0.347616	0.229243
Zn7	Zn	1.203574	-0.219492	-0.428769
Zn8	Zn	1.536908	0.113842	-0.095436
Zn9	Zn	1.870241	0.447175	0.237897
Zn10	Zn	1.194840	-0.331104	-0.579044
Zn11	Zn	1.528173	0.002229	-0.245710
Zn12	Zn	1.861507	0.335562	0.087623
O13	O	1.274373	-0.272455	-0.508259
O14	O	1.607706	0.060879	-0.174925
O15	O	1.941040	0.394212	0.158408
O16	O	1.472225	-0.228530	-0.575136
O17	O	1.805558	0.104804	-0.241803
O18	O	2.138892	0.438137	0.091531
O19	O	1.341124	-0.300514	-0.310453
O20	O	1.674457	0.032820	0.022880
O21	O	2.007790	0.366153	0.356213
O22	O	1.222444	-0.131491	-0.449907
O23	O	1.555777	0.201842	-0.116573
O24	O	1.889111	0.535175	0.216760
O25	O	1.478511	-0.301174	-0.464657
O26	O	1.811845	0.032159	-0.131323
O27	O	2.145178	0.365492	0.202010
O28	O	1.326540	-0.131992	-0.566744
O29	O	1.659874	0.201342	-0.233411
O30	O	1.993207	0.534675	0.099922
O31	O	1.230741	-0.227369	-0.304095
O32	O	1.564074	0.105965	0.029238
O33	O	1.897407	0.439298	0.362572
O34	O	1.076587	-0.239057	-0.441418
O35	O	1.409920	0.094276	-0.108085
O36	O	1.743253	0.427610	0.225249
O37	O	1.207557	-0.321719	-0.706027
O38	O	1.540891	0.011615	-0.372694
O39	O	1.874224	0.344948	-0.039361
O40	O	1.070170	-0.321058	-0.551824
O41	O	1.403503	0.012275	-0.218490
O42	O	1.736836	0.345609	0.114843
O43	O	1.318071	-0.240218	-0.712459
O44	O	1.651404	0.093115	-0.379126
O45	O	1.984738	0.426449	-0.045792
O46	O	1.332654	-0.408740	-0.456168
O47	O	1.665988	-0.075407	-0.122835
O48	O	1.999321	0.257927	0.210499
O49	O	1.215854	-0.417596	-0.560216
O50	O	1.549187	-0.084263	-0.226882
O51	O	1.882521	0.249071	0.106451
C52	C	1.040752	-0.281292	-0.494732
C53	C	1.374085	0.052041	-0.161399
C54	C	1.707419	0.385375	0.171934
C55	C	0.940807	-0.285089	-0.488967
C56	C	1.274140	0.048245	-0.155634
C57	C	1.607473	0.381578	0.177700
C58	C	0.746441	-0.216696	-0.593351
C59	C	1.079774	0.116637	-0.260018
C60	C	1.413108	0.449971	0.073315
C61	C	0.652533	-0.220261	-0.587937
C62	C	0.985866	0.113072	-0.254604
C63	C	1.319200	0.446406	0.078729
C64	C	0.659082	-0.295781	-0.472721
C65	C	0.992416	0.037553	-0.139388
C66	C	1.325749	0.370886	0.193946
C67	C	0.752990	-0.292216	-0.478135
C68	C	1.086323	0.041118	-0.144802
C69	C	1.419657	0.374451	0.188532
C70	C	0.796666	-0.252672	-0.538453
C71	C	1.129999	0.080661	-0.205120
C72	C	1.463332	0.413994	0.128214
C73	C	0.890575	-0.249111	-0.543871
C74	C	1.223908	0.084222	-0.210538
C75	C	1.557242	0.417556	0.122796
C76	C	0.897123	-0.324627	-0.428651
C77	C	1.230456	0.008706	-0.095318
C78	C	1.563789	0.342040	0.238016
C79	C	0.803215	-0.328192	-0.423237
C80	C	1.136548	0.005141	-0.089904
C81	C	1.469882	0.338475	0.243430
C82	C	1.274258	-0.436009	-0.508202
C83	C	1.607591	-0.102675	-0.174869
C84	C	1.940925	0.230658	0.158465
C85	C	1.274289	-0.505976	-0.508213
C86	C	1.607623	-0.172643	-0.174879
C87	C	1.940956	0.160691	0.158454
C88	C	1.335155	-0.534211	-0.454097
C89	C	1.668488	-0.200878	-0.120764
C90	C	2.001822	0.132456	0.212570
C91	C	1.335196	-0.599953	-0.454120
C92	C	1.668529	-0.266619	-0.120786
C93	C	2.001863	0.066714	0.212547
C94	C	1.274356	-0.637457	-0.508248
C95	C	1.607689	-0.304124	-0.174914
C96	C	1.941023	0.029209	0.158419
C97	C	1.213486	-0.609215	-0.562374
C98	C	1.546819	-0.275882	-0.229041
C99	C	1.880152	0.057452	0.104292
C100	C	1.213453	-0.543474	-0.562357
C101	C	1.546786	-0.210141	-0.229023
C102	C	1.880119	0.123192	0.104310
N103	N	1.195300	-0.743994	-0.510548
N104	N	1.528634	-0.410661	-0.177214
N105	N	1.861967	-0.077328	0.156119
N106	N	1.195335	-0.806445	-0.510559
N107	N	1.528668	-0.473111	-0.177226
N108	N	1.862002	-0.139778	0.156107
C109	C	1.274454	-0.835530	-0.508305
C110	C	1.607787	-0.502197	-0.174972
C111	C	1.941120	-0.168864	0.158362
N112	N	1.353539	-0.799805	-0.506021
N113	N	1.686873	-0.466472	-0.172688
N114	N	2.020206	-0.133139	0.160645
N115	N	1.353504	-0.737349	-0.506005
N116	N	1.686838	-0.404016	-0.172672
N117	N	2.020171	-0.070682	0.160662
C118	C	1.274386	-0.708742	-0.508273
C119	C	1.607719	-0.375409	-0.174940
C120	C	1.941052	-0.042076	0.158394
C121	C	1.335369	-0.935050	-0.454211
C122	C	1.668702	-0.601716	-0.120878
C123	C	2.002035	-0.268383	0.212456
C124	C	1.335411	-1.000793	-0.454240
C125	C	1.668744	-0.667460	-0.120907
C126	C	2.002077	-0.334126	0.212427
C127	C	1.213693	-1.010054	-0.562489
C128	C	1.547026	-0.676721	-0.229156
C129	C	1.880359	-0.343387	0.104177
C130	C	1.213658	-0.944312	-0.562466
C131	C	1.546992	-0.610979	-0.229132
C132	C	1.880325	-0.277645	0.104201
C133	C	1.274495	-0.906814	-0.508322
C134	C	1.607829	-0.573480	-0.174988
C135	C	1.941162	-0.240147	0.158345
C136	C	1.508906	-0.263583	-0.521838
C137	C	1.842240	0.069750	-0.188505
C138	C	2.175573	0.403083	0.144828
C139	C	1.608850	-0.259803	-0.527625
C140	C	1.942184	0.073530	-0.194292
C141	C	2.275517	0.406864	0.139042
C142	C	1.260885	-0.282389	-0.742780
C143	C	1.594219	0.050944	-0.409446
C144	C	1.927552	0.384278	-0.076113
C145	C	1.255138	-0.286622	-0.842719
C146	C	1.588471	0.046711	-0.509385
C147	C	1.921804	0.380044	-0.176052
C148	C	1.274512	-0.108262	-0.508337
C149	C	1.607845	0.225071	-0.175003
C150	C	1.941179	0.558405	0.158330
C151	C	1.274571	-0.038293	-0.508370
C152	C	1.607904	0.295041	-0.175036
C153	C	1.941238	0.628374	0.158297
C154	C	1.359412	-0.209696	-1.037213
C155	C	1.692746	0.123638	-0.703880
C156	C	2.026079	0.456971	-0.370547
C157	C	1.354015	-0.213671	-1.131115
C158	C	1.687348	0.119662	-0.797782
C159	C	2.020682	0.452996	-0.464449
C160	C	1.238941	-0.298545	-1.124425
C161	C	1.572274	0.034789	-0.791092
C162	C	1.905608	0.368122	-0.457759
C163	C	1.244339	-0.294569	-1.030524
C164	C	1.577672	0.038764	-0.697190
C165	C	1.911005	0.372097	-0.363857
C166	C	1.304577	-0.250144	-0.986921
C167	C	1.637911	0.083189	-0.653588
C168	C	1.971244	0.416523	-0.320254
C169	C	1.309979	-0.246172	-0.893018
C170	C	1.643312	0.087161	-0.559685
C171	C	1.976646	0.420494	-0.226351
C172	C	1.194901	-0.331042	-0.886330
C173	C	1.528234	0.002291	-0.552996
C174	C	1.861568	0.335624	-0.219663
C175	C	1.189503	-0.335018	-0.980231
C176	C	1.522837	-0.001684	-0.646898
C177	C	1.856170	0.331649	-0.313565
C178	C	1.287860	-0.262512	-0.274653
C179	C	1.621193	0.070821	0.058680
C180	C	1.954527	0.404155	0.392014
C181	C	1.293782	-0.258095	-0.174725
C182	C	1.627115	0.075239	0.158609
C183	C	1.960449	0.408572	0.491942
H184	H	1.384694	-0.503682	-0.410012
H185	H	1.718027	-0.170348	-0.076679
H186	H	2.051361	0.162985	0.256655
Br187	Br	0.743933	-0.381851	-0.341376
Br188	Br	1.077266	-0.048518	-0.008043
Br189	Br	1.410599	0.284815	0.325291
H190	H	0.938026	-0.353927	-0.383956
H191	H	1.271359	-0.020594	-0.050622
H192	H	1.604692	0.312740	0.282711
H193	H	1.150252	-0.363980	-0.845371
H194	H	1.483586	-0.030647	-0.512038
H195	H	1.816919	0.302687	-0.178705
Br196	Br	1.130844	-0.505153	-0.635807
Br197	Br	1.464177	-0.171819	-0.302473
Br198	Br	1.797511	0.161514	0.030860
H199	H	0.926134	-0.216914	-0.592986
H200	H	1.259468	0.116420	-0.259653
H201	H	1.592801	0.449753	0.073681
H202	H	1.398665	-0.180732	-1.172060
H203	H	1.731998	0.152601	-0.838727
H204	H	2.065332	0.485934	-0.505393
H205	H	1.384763	-0.622946	-0.410053
H206	H	1.718096	-0.289613	-0.076719
H207	H	2.051430	0.043720	0.256614
H208	H	1.164159	-1.040589	-0.606566
H209	H	1.497493	-0.707256	-0.273232
H210	H	1.830826	-0.373923	0.060101
H211	H	0.782002	-0.184501	-0.642469
H212	H	1.115335	0.148832	-0.309135
H213	H	1.448669	0.482165	0.024198
H214	H	0.611643	-0.190964	-0.632639
H215	H	0.944977	0.142370	-0.299306
H216	H	1.278310	0.475703	0.034028
Br217	Br	1.107752	-0.395304	-1.039414
Br218	Br	1.441085	-0.061971	-0.706081
Br219	Br	1.774419	0.271363	-0.372747
Br220	Br	0.599793	-0.349432	-0.390854
Br221	Br	0.933126	-0.016098	-0.057520
Br222	Br	1.266460	0.317235	0.275813
H223	H	1.163951	-0.639755	-0.606447
H224	H	1.497284	-0.306422	-0.273114
H225	H	1.830618	0.026911	0.060219
H226	H	1.384908	-0.904517	-0.410126
H227	H	1.718242	-0.571184	-0.076793
H228	H	2.051575	-0.237851	0.256540
H229	H	1.384980	-1.023780	-0.410175
H230	H	1.718313	-0.690447	-0.076841
H231	H	2.051647	-0.357113	0.256492
Br232	Br	1.131049	-0.905990	-0.635910
Br233	Br	1.464382	-0.572657	-0.302577
Br234	Br	1.797715	-0.239323	0.030756
Br235	Br	1.441175	-0.149415	-0.978035
Br236	Br	1.774508	0.183918	-0.644701
Br237	Br	2.107842	0.517251	-0.311368
Br238	Br	1.391734	-0.185885	-0.833844
Br239	Br	1.725068	0.147449	-0.500510
Br240	Br	2.058401	0.480782	-0.167177
H241	H	1.189897	-0.334713	-1.159943
H242	H	1.523231	-0.001380	-0.826609
H243	H	1.856564	0.331953	-0.493276
