data_functionalizedCrystal
_audit_creation_method	'MofGen! by Chris Wilmer'
_symmetry_space_group_name_H-M	'P1'
_symmetry_Int_Tables_number	1
_symmetry_cell_setting	triclinic
loop_
_symmetry_equiv_pos_as_xyz
  x,y,z
_cell_length_a	12.827893
_cell_length_b	16.120444
_cell_length_c	12.827885
_cell_angle_alpha	92.864671
_cell_angle_beta	89.980728
_cell_angle_gamma	92.926656
loop_
_atom_site_label
_atom_site_type_symbol
_atom_site_fract_x
_atom_site_fract_y
_atom_site_fract_z
Zn1	Zn	1.576496	-0.331863	-0.611900
Zn2	Zn	1.909830	0.001470	-0.278567
Zn3	Zn	2.243163	0.334803	0.054766
Zn4	Zn	1.567494	-0.471299	-0.446006
Zn5	Zn	1.900828	-0.137966	-0.112673
Zn6	Zn	2.234161	0.195367	0.220661
Zn7	Zn	1.401735	-0.331905	-0.437177
Zn8	Zn	1.735068	0.001429	-0.103843
Zn9	Zn	2.068402	0.334762	0.229490
Zn10	Zn	1.392831	-0.471238	-0.620702
Zn11	Zn	1.726164	-0.137904	-0.287369
Zn12	Zn	2.059497	0.195429	0.045965
O13	O	1.484639	-0.401576	-0.528946
O14	O	1.817973	-0.068243	-0.195613
O15	O	2.151306	0.265090	0.137720
O16	O	1.721538	-0.350369	-0.589906
O17	O	2.054871	-0.017035	-0.256572
O18	O	2.388204	0.316298	0.076761
O19	O	1.545465	-0.452851	-0.298601
O20	O	1.878798	-0.119518	0.034732
O21	O	2.212132	0.213815	0.368065
O22	O	1.432411	-0.215233	-0.452976
O23	O	1.765745	0.118100	-0.119642
O24	O	2.099078	0.451433	0.213691
O25	O	1.714924	-0.452811	-0.468024
O26	O	2.048257	-0.119478	-0.134690
O27	O	2.381591	0.213855	0.198643
O28	O	1.560808	-0.215203	-0.581344
O29	O	1.894141	0.118130	-0.248011
O30	O	2.227474	0.451464	0.085322
O31	O	1.423683	-0.350438	-0.292114
O32	O	1.757016	-0.017105	0.041219
O33	O	2.090349	0.316228	0.374552
O34	O	1.254319	-0.350379	-0.461510
O35	O	1.587652	-0.017045	-0.128177
O36	O	1.920985	0.316288	0.205157
O37	O	1.417235	-0.452706	-0.765768
O38	O	1.750569	-0.119373	-0.432434
O39	O	2.083902	0.213960	-0.099101
O40	O	1.247777	-0.452746	-0.596345
O41	O	1.581110	-0.119413	-0.263012
O42	O	1.914443	0.213920	0.070321
O43	O	1.552174	-0.350309	-0.759301
O44	O	1.885507	-0.016975	-0.425968
O45	O	2.218840	0.316358	-0.092635
O46	O	1.536831	-0.587957	-0.476558
O47	O	1.870164	-0.254624	-0.143225
O48	O	2.203498	0.078710	0.190109
O49	O	1.408506	-0.587912	-0.604907
O50	O	1.741840	-0.254578	-0.271573
O51	O	2.075173	0.078755	0.061760
C52	C	1.213130	-0.401561	-0.528925
C53	C	1.546464	-0.068228	-0.195592
C54	C	1.879797	0.265106	0.137741
C55	C	1.096976	-0.401574	-0.528942
C56	C	1.430310	-0.068241	-0.195609
C57	C	1.763643	0.265092	0.137724
C58	C	1.048458	-0.350972	-0.589358
C59	C	1.381792	-0.017639	-0.256025
C60	C	1.715125	0.315694	0.077308
C61	C	0.928407	-0.350985	-0.589377
C62	C	1.261740	-0.017652	-0.256044
C63	C	1.595074	0.315682	0.077289
C64	C	1.470754	-0.618184	-0.542668
C65	C	1.804087	-0.284851	-0.209335
C66	C	2.137421	0.048482	0.123998
C67	C	1.464909	-0.710850	-0.548574
C68	C	1.798243	-0.377517	-0.215240
C69	C	2.131576	-0.044184	0.118093
C70	C	1.515214	-0.921795	-0.498537
C71	C	1.848547	-0.588461	-0.165204
C72	C	2.181880	-0.255128	0.168130
C73	C	1.454258	-0.880507	-0.559366
C74	C	1.787591	-0.547173	-0.226033
C75	C	2.120925	-0.213840	0.107300
C76	C	1.460186	-0.786101	-0.553359
C77	C	1.793520	-0.452768	-0.220026
C78	C	2.126853	-0.119434	0.113307
C79	C	1.509287	-1.016209	-0.504542
C80	C	1.842620	-0.682875	-0.171209
C81	C	2.175954	-0.349542	0.162124
C82	C	1.757208	-0.401592	-0.528968
C83	C	2.090542	-0.068259	-0.195634
C84	C	2.423875	0.265074	0.137699
C85	C	1.873361	-0.401599	-0.528977
C86	C	2.206694	-0.068266	-0.195644
C87	C	2.540028	0.265068	0.137690
C88	C	1.484715	-0.401496	-0.801511
C89	C	1.818049	-0.068163	-0.468178
C90	C	2.151382	0.265170	-0.134845
C91	C	1.484748	-0.401462	-0.917663
C92	C	1.818081	-0.068129	-0.584329
C93	C	2.151415	0.265205	-0.250996
C94	C	1.498607	-0.184122	-0.515193
C95	C	1.831940	0.149211	-0.181860
C96	C	2.165274	0.482544	0.151473
C97	C	1.504559	-0.091456	-0.509333
C98	C	1.837893	0.241877	-0.175999
C99	C	2.171226	0.575210	0.157334
C100	C	1.551527	-0.350783	-0.966247
C101	C	1.884860	-0.017449	-0.632913
C102	C	2.218194	0.315884	-0.299580
C103	C	1.551562	-0.350746	-1.086295
C104	C	1.884896	-0.017413	-0.752962
C105	C	2.218229	0.315921	-0.419628
C106	C	1.484627	-0.401596	-0.257438
C107	C	1.817961	-0.068262	0.075896
C108	C	2.151294	0.265071	0.409229
C109	C	1.484812	-0.401395	-0.141272
C110	C	1.818145	-0.068062	0.192061
C111	C	2.151479	0.265272	0.525394
H112	H	0.886670	-0.307666	-0.641105
H113	H	1.220003	0.025668	-0.307772
H114	H	1.553337	0.359001	0.025562
H115	H	1.427641	-0.444789	-1.099486
H116	H	1.760974	-0.111456	-0.766152
H117	H	2.094307	0.221878	-0.432819
F118	F	1.380225	-0.926975	-0.633330
F119	F	1.713558	-0.593641	-0.299997
F120	F	2.046891	-0.260308	0.033336
H121	H	1.571847	-0.886246	-0.441951
H122	H	1.905181	-0.552912	-0.108618
H123	H	2.238514	-0.219579	0.224716
H124	H	1.608670	-0.307418	-0.918966
H125	H	1.942003	0.025915	-0.585633
H126	H	2.275336	0.359249	-0.252300
F127	F	1.110329	-0.294330	-0.656946
F128	F	1.443662	0.039003	-0.323613
F129	F	1.776996	0.372337	0.009720
H130	H	1.427595	-0.444818	-0.964942
H131	H	1.760929	-0.111485	-0.631609
H132	H	2.094262	0.221848	-0.298276
H133	H	1.608738	-0.307360	-1.128089
H134	H	1.942071	0.025973	-0.794755
H135	H	2.275404	0.359306	-0.461422
H136	H	1.049637	-0.444904	-0.477230
H137	H	1.382970	-0.111571	-0.143897
H138	H	1.716304	0.221762	0.189436
F139	F	0.927903	-0.458233	-0.461370
F140	F	1.261236	-0.124900	-0.128037
F141	F	1.594570	0.208433	0.205297
