data_functionalizedCrystal
_audit_creation_method	'MofGen! by Chris Wilmer'
_symmetry_space_group_name_H-M	'P1'
_symmetry_Int_Tables_number	1
_symmetry_cell_setting	triclinic
loop_
_symmetry_equiv_pos_as_xyz
  x,y,z
_cell_length_a	23.532407
_cell_length_b	15.944551
_cell_length_c	15.021413
_cell_angle_alpha	90.002826
_cell_angle_beta	89.999348
_cell_angle_gamma	96.826292
loop_
_atom_site_label
_atom_site_type_symbol
_atom_site_fract_x
_atom_site_fract_y
_atom_site_fract_z
O1	O	0.073442	-1.113910	-0.073949
O2	O	0.082498	-0.869284	-0.073972
O3	O	-0.004933	-0.998974	-0.073943
O4	O	0.160873	-0.984220	-0.073977
O5	O	-0.004921	-0.998953	0.074121
O6	O	0.082510	-0.869263	0.074092
O7	O	0.073455	-1.113889	0.074116
Zn8	Zn	0.077985	-0.991573	0.097612
Zn9	Zn	0.077968	-0.991600	-0.097469
O10	O	0.160886	-0.984200	0.074087
C11	C	-0.026144	-0.998588	0.000091
C12	C	-0.089366	-0.997458	0.000098
C13	C	0.082128	-0.837983	0.000057
C14	C	0.081001	-0.744746	0.000049
C15	C	0.073824	-1.145190	0.000084
C16	C	0.074951	-1.238427	0.000087
C17	C	-0.488199	-1.067121	0.000056
C18	C	-0.547603	-1.066072	0.000049
O19	O	-0.584098	-1.130650	0.000022
N20	N	-0.570528	-0.988971	0.000042
C21	C	-0.534045	-0.912915	0.000033
O22	O	-0.558999	-0.847239	0.000026
C23	C	-0.474642	-0.913965	0.000034
C24	C	-0.451721	-0.991071	0.000049
C25	C	-0.465277	-1.144220	0.000070
C26	C	-0.405877	-1.145269	0.000079
C27	C	-0.369399	-1.069219	0.000073
C28	C	-0.392320	-0.992120	0.000058
C29	C	-0.438160	-0.837910	0.000018
C30	C	-0.378754	-0.838967	0.000018
C31	C	-0.355832	-0.916072	0.000034
C32	C	-0.296442	-0.917118	0.000060
N33	N	-0.273517	-0.994219	0.000067
C34	C	-0.309995	-1.070269	0.000073
C35	C	-0.658796	-0.910716	0.000031
C36	C	-0.718198	-0.909664	0.000037
C37	C	-0.731752	-1.062821	0.000050
C38	C	-0.672349	-1.063872	0.000051
C39	C	-0.635871	-0.987816	0.000037
C40	C	-0.185250	-1.072466	0.000092
C41	C	-0.125844	-1.073508	0.000104
C42	C	-0.112295	-0.920352	0.000085
C43	C	-0.171696	-0.919309	0.000078
C44	C	-0.208173	-0.995373	0.000078
O45	O	-0.259913	-0.852574	0.000083
O46	O	-0.285033	-1.135935	0.000069
C47	C	0.182097	-0.984586	0.000051
C48	C	0.245318	-0.985715	0.000038
N49	N	0.077995	-0.991561	0.230750
C50	C	0.024113	-0.530369	0.000078
C51	C	0.050524	-0.469137	-0.072931
C52	C	0.078962	-0.574038	0.000060
C53	C	0.050549	-0.469138	0.073049
C54	C	0.076989	-0.409142	0.000075
C55	C	0.105388	-0.514033	-0.073009
C56	C	0.105405	-0.514041	0.073036
C57	C	0.131856	-0.452826	0.000010
C58	C	0.080097	-0.669030	0.000051
C59	C	0.075858	-0.314150	0.000077
N60	N	0.077953	-0.991619	-0.230606
C61	C	0.118404	-0.931583	0.470420
C62	C	0.129461	-1.007390	0.529759
C63	C	0.077981	-0.991582	0.412357
C64	C	0.066938	-0.915796	0.529760
C65	C	0.077969	-0.991596	0.587781
C66	C	0.089063	-1.067428	0.470389
C67	C	0.026518	-0.975783	0.470385
C68	C	0.037552	-1.051645	0.529697
C69	C	0.077990	-0.991573	0.311300
C70	C	0.077960	-0.991614	0.688836
H71	H	-0.107185	-1.136300	0.000119
H72	H	0.128564	-0.533834	-0.134800
O73	O	0.022868	-0.445257	0.146620
C74	C	0.022658	-0.356869	0.146030
H75	H	0.028300	-0.332445	0.074871
H76	H	0.059279	-0.326158	0.189048
C77	C	-0.041595	-0.364792	0.270795
C78	C	-0.034670	-0.334796	0.183396
H79	H	-0.076956	-0.351175	0.293848
H80	H	-0.041452	-0.424340	0.271195
H81	H	-0.011074	-0.339197	0.306632
H82	H	-0.065187	-0.360398	0.147558
H83	H	-0.034820	-0.275251	0.182990
H84	H	0.128590	-0.533969	0.134754
O85	O	0.186224	-0.412840	-0.000203
C86	C	0.214919	-0.435738	-0.077269
H87	H	0.182219	-0.457923	-0.130818
H88	H	0.241437	-0.489001	-0.060555
C89	C	0.294775	-0.331582	-0.045926
C90	C	0.254613	-0.358824	-0.111698
H91	H	0.319263	-0.284140	-0.067162
H92	H	0.275445	-0.316158	0.005997
H93	H	0.316868	-0.375975	-0.032003
H94	H	0.232517	-0.314435	-0.125611
H95	H	0.273941	-0.374240	-0.163624
H96	H	0.027320	-0.449230	-0.134645
O97	O	-0.220620	-1.146408	-0.000022
C98	C	-0.210231	-1.193254	-0.076707
H99	H	-0.165174	-1.172236	-0.102274
H100	H	-0.242725	-1.182068	-0.130409
C101	C	-0.271192	-1.313743	-0.021995
C102	C	-0.215850	-1.287933	-0.053391
H103	H	-0.274660	-1.372146	-0.007615
H104	H	-0.278193	-1.282182	0.029668
H105	H	-0.298264	-1.304414	-0.066752
H106	H	-0.188779	-1.297252	-0.008631
H107	H	-0.208844	-1.319498	-0.105046
H108	H	0.152617	-0.880895	0.444393
H109	H	0.098450	-1.131539	0.444420
H110	H	0.172977	-1.020766	0.555839
O111	O	-0.076830	-0.846503	-0.000081
C112	C	-0.042054	-0.842566	-0.076753
H113	H	-0.063807	-0.885714	-0.130342
H114	H	0.001142	-0.863942	-0.059410
C115	C	-0.006315	-0.698108	-0.045728
C116	C	-0.033035	-0.751098	-0.111549
H117	H	-0.000749	-0.641687	-0.067190
H118	H	-0.029742	-0.700761	0.005930
H119	H	0.029679	-0.715932	-0.031281
H120	H	-0.069031	-0.733281	-0.125986
H121	H	-0.009613	-0.748440	-0.163210
H122	H	0.003360	-1.102446	0.555561
H123	H	-0.016985	-0.962383	0.444284
H124	H	0.057603	-0.851698	0.555841
H125	H	-0.387220	-1.208056	0.000088
H126	H	-0.494973	-1.206153	0.000072
H127	H	-0.761464	-1.124746	0.000052
O128	O	-0.650112	-1.138792	-0.000100
C129	C	-0.668770	-1.185137	-0.076768
H130	H	-0.681132	-1.140046	-0.130368
H131	H	-0.707480	-1.232268	-0.059424
C132	C	-0.604976	-1.288387	-0.045708
C133	C	-0.620155	-1.233004	-0.111543
H134	H	-0.574989	-1.317917	-0.067157
H135	H	-0.592407	-1.257165	0.005947
H136	H	-0.637238	-1.327655	-0.031260
H137	H	-0.587894	-1.193731	-0.125981
H138	H	-0.632716	-1.264220	-0.163201
H139	H	-0.736855	-0.846878	0.000039
H140	H	-0.629098	-0.848778	0.000027
H141	H	-0.349056	-0.777032	0.000006
O142	O	-0.460322	-0.762935	-0.000040
C143	C	-0.415376	-0.696048	-0.000029
H144	H	-0.375022	-0.719266	-0.028050
H145	H	-0.406974	-0.672597	0.071000
C146	C	-0.481706	-0.594780	-0.023699
C147	C	-0.432144	-0.623296	-0.058122
H148	H	-0.492049	-0.549901	-0.059529
H149	H	-0.511987	-0.639842	-0.023703
H150	H	-0.474697	-0.575244	0.035492
H151	H	-0.439155	-0.642841	-0.117306
H152	H	-0.401864	-0.578235	-0.058129
H153	H	-0.190359	-0.856524	0.000090
H154	H	-0.021407	-0.564086	-0.000003
