data_functionalizedCrystal
_audit_creation_method	'MofGen! by Chris Wilmer'
_symmetry_space_group_name_H-M	'P1'
_symmetry_Int_Tables_number	1
_symmetry_cell_setting	triclinic
loop_
_symmetry_equiv_pos_as_xyz
  x,y,z
_cell_length_a	19.288864
_cell_length_b	13.339070
_cell_length_c	17.766277
_cell_angle_alpha	89.997794
_cell_angle_beta	89.976791
_cell_angle_gamma	99.382770
loop_
_atom_site_label
_atom_site_type_symbol
_atom_site_fract_x
_atom_site_fract_y
_atom_site_fract_z
O1	O	0.945924	0.126087	-0.062840
O2	O	1.445924	0.626087	0.437160
O3	O	0.746977	0.143096	-0.062789
O4	O	1.246977	0.643096	0.437211
O5	O	0.823618	-0.012568	-0.062806
O6	O	1.323618	0.487432	0.437194
O7	O	0.869283	0.281751	-0.062822
O8	O	1.369283	0.781751	0.437178
O9	O	0.823598	-0.012576	0.062383
O10	O	1.323598	0.487424	0.562383
O11	O	0.746957	0.143088	0.062400
O12	O	1.246957	0.643088	0.562400
O13	O	0.945903	0.126079	0.062349
O14	O	1.445903	0.626079	0.562349
Cu15	Cu	0.846428	0.134583	0.073805
Cu16	Cu	1.346428	0.634583	0.573805
Cu17	Cu	0.846452	0.134592	-0.074245
Cu18	Cu	1.346452	0.634592	0.425755
O19	O	0.869263	0.281743	0.062366
O20	O	1.369263	0.781743	0.562366
C21	C	0.720984	0.142544	-0.000188
C22	C	1.220984	0.642544	0.499812
C23	C	0.643560	0.140901	-0.000168
C24	C	1.143560	0.640901	0.499832
C25	C	0.616663	0.232238	-0.000185
C26	C	1.116663	0.732238	0.499815
C27	C	0.543915	0.230694	-0.000193
C28	C	1.043915	0.730694	0.499807
C29	C	0.498067	0.137809	-0.000200
C30	C	0.998067	0.637809	0.499800
C31	C	0.524972	0.046461	-0.000178
C32	C	1.024972	0.546461	0.499822
C33	C	0.597719	0.048007	-0.000163
C34	C	1.097719	0.548007	0.499837
C35	C	0.375583	0.064794	-0.044080
C36	C	0.875583	0.564794	0.455920
C37	C	0.302838	0.063252	-0.044100
C38	C	0.802838	0.563252	0.455900
C39	C	0.273691	0.133037	-0.000245
C40	C	0.773691	0.633037	0.499755
C41	C	0.317301	0.204382	0.043621
C42	C	0.817301	0.704382	0.543621
C43	C	0.390047	0.205928	0.043637
C44	C	0.890047	0.705928	0.543637
C45	C	0.419184	0.136123	-0.000216
C46	C	0.919184	0.636123	0.499784
C47	C	0.167913	0.222706	-0.000270
C48	C	0.667913	0.722706	0.499730
C49	C	0.095163	0.221159	-0.000273
C50	C	0.595163	0.721159	0.499727
C51	C	0.076222	0.036923	-0.000266
C52	C	0.576222	0.536923	0.499734
C53	C	0.148970	0.038473	-0.000255
C54	C	0.648970	0.538473	0.499745
C55	C	0.194812	0.131367	-0.000260
C56	C	0.694812	0.631367	0.499740
C57	C	0.815894	-0.050226	-0.000211
C58	C	1.315894	0.449774	0.499789
C59	C	0.792901	-0.162423	-0.000208
C60	C	1.292901	0.337577	0.499792
C61	C	0.971681	-0.528031	-0.000253
C62	C	1.471681	-0.028031	0.499747
C63	C	0.993286	-0.422617	-0.000252
C64	C	1.493286	0.077383	0.499748
C65	C	0.943192	-0.357563	-0.000241
C66	C	1.443192	0.142437	0.499759
C67	C	0.871489	-0.397934	-0.000231
C68	C	1.371489	0.102066	0.499769
C69	C	0.849881	-0.503359	-0.000227
C70	C	1.349881	-0.003359	0.499773
C71	C	0.821392	-0.332891	-0.000215
C72	C	1.321392	0.167109	0.499785
C73	C	0.749689	-0.373262	-0.000205
C74	C	1.249689	0.126738	0.499795
C75	C	0.728085	-0.478677	-0.000201
C76	C	1.228085	0.021323	0.499799
C77	C	0.778180	-0.543730	-0.000212
C78	C	1.278180	-0.043730	0.499788
C79	C	0.842999	-0.227467	-0.000219
C80	C	1.342999	0.272533	0.499781
C81	C	0.721199	-0.202795	-0.000193
C82	C	1.221199	0.297205	0.499807
C83	C	0.699594	-0.308209	-0.000195
C84	C	1.199594	0.191791	0.499805
C85	C	0.971897	0.126630	-0.000254
C86	C	1.471897	0.626630	0.499746
C87	C	1.049320	0.128273	-0.000278
C88	C	1.549320	0.628273	0.499722
C89	C	0.876987	0.319401	-0.000231
C90	C	1.376987	0.819401	0.499769
C91	C	0.899980	0.431598	-0.000238
C92	C	1.399980	0.931598	0.499762
N93	N	0.846416	0.134575	0.177935
N94	N	1.346416	0.634575	0.677935
N95	N	0.846468	0.134591	-0.178375
N96	N	1.346468	0.634591	0.321625
C97	C	0.880375	0.065681	0.217315
C98	C	1.380375	0.565681	0.717315
C99	C	0.880378	0.065676	0.296116
C100	C	1.380378	0.565676	0.796116
C101	C	0.846433	0.134583	0.335536
C102	C	1.346433	0.634583	0.835536
C103	C	0.812467	0.203483	0.296147
C104	C	1.312467	0.703483	0.796147
C105	C	0.812459	0.203479	0.217347
C106	C	1.312459	0.703479	0.717347
C107	C	0.855080	0.226676	0.460370
C108	C	1.355080	0.726676	0.960370
C109	C	0.855093	0.226682	0.539169
C110	C	1.355093	0.726682	1.039169
C111	C	0.846454	0.134595	0.578582
C112	C	1.346454	0.634595	1.078582
C113	C	0.837815	0.042500	0.539187
C114	C	1.337815	0.542500	1.039187
C115	C	0.837807	0.042496	0.460387
C116	C	1.337807	0.542496	0.960387
C117	C	0.846437	0.134595	0.420982
C118	C	1.346437	0.634595	0.920982
C119	C	0.880417	0.065690	0.703408
C120	C	1.380417	0.565690	1.203408
C121	C	0.880415	0.065684	0.782211
C122	C	1.380415	0.565684	1.282211
C123	C	0.812509	0.203500	0.782240
C124	C	1.312509	0.703500	1.282240
C125	C	0.812506	0.203497	0.703438
C126	C	1.312506	0.703497	1.203438
C127	C	0.846463	0.134593	0.664027
C128	C	1.346463	0.634593	1.164027
H129	H	0.399307	0.007964	-0.079797
H130	H	0.899307	0.507964	0.420203
N131	N	0.917048	-0.008618	0.824691
N132	N	1.417048	0.491382	1.324691
H133	H	0.955216	0.029911	0.857363
H134	H	1.455216	0.529911	1.357363
H135	H	0.881863	-0.053259	0.857363
H136	H	1.381863	0.446741	1.357363
H137	H	0.073266	0.295539	-0.000282
H138	H	0.573266	0.795539	0.499718
H139	H	0.784866	0.259601	0.814335
H140	H	1.284866	0.759601	1.314335
H141	H	1.051667	-0.389754	-0.000259
H142	H	1.551667	0.110246	0.499741
N143	N	1.025706	-0.598191	-0.000252
N144	N	1.525706	-0.098191	0.499748
H145	H	1.001136	-0.671098	-0.000243
H146	H	1.501136	-0.171098	0.499757
H147	H	1.056089	-0.585158	-0.046665
H148	H	1.556089	-0.085158	0.453335
H149	H	0.901380	-0.194607	-0.000227
H150	H	1.401380	0.305393	0.499773
H151	H	0.760592	-0.629568	-0.000216
H152	H	1.260592	-0.129568	0.499784
H153	H	0.784857	0.259601	0.671374
H154	H	1.284857	0.759601	1.171374
H155	H	0.862132	0.301671	0.571239
H156	H	1.362132	0.801671	1.071239
H157	H	0.641212	-0.341094	-0.000186
H158	H	1.141212	0.158906	0.499814
H159	H	0.960787	-0.271731	-0.000240
H160	H	1.460787	0.228269	0.499760
H161	H	0.908023	0.009573	0.185228
H162	H	1.408023	0.509573	0.685228
H163	H	0.038893	-0.038706	-0.000318
H164	H	0.538893	0.461294	0.499682
N165	N	0.917016	-0.008623	0.338600
N166	N	1.417016	0.491377	0.838600
H167	H	0.911870	0.001839	0.394500
H168	H	1.411870	0.501839	0.894500
H169	H	0.895190	-0.080303	0.324847
H170	H	1.395190	0.419697	0.824847
H171	H	0.669700	-0.511543	-0.000188
H172	H	1.169700	-0.011543	0.499812
H173	H	0.680408	-0.149828	-0.000180
H174	H	1.180408	0.350172	0.499820
H175	H	0.830771	-0.032491	0.428314
H176	H	1.330771	0.467509	0.928314
N177	N	0.828499	-0.056831	0.581684
N178	N	1.328499	0.443169	1.081684
H179	H	0.829811	-0.042859	0.637581
H180	H	1.329811	0.457141	1.137581
H181	H	0.781801	-0.098782	0.567933
H182	H	1.281801	0.401218	1.067933
H183	H	0.425551	0.264016	0.079357
H184	H	0.925551	0.764016	0.579357
H185	H	0.908065	0.009582	0.671317
H186	H	1.408065	0.509582	1.171317
H187	H	0.862104	0.301669	0.428287
H188	H	1.362104	0.801669	0.928287
N189	N	0.775839	0.277801	0.174871
N190	N	1.275839	0.777801	0.674871
H191	H	0.780988	0.267345	0.118970
H192	H	1.280988	0.767345	0.618970
H193	H	0.724353	0.266308	0.188670
H194	H	1.224353	0.766308	0.688670
N195	N	0.666098	0.332434	-0.000192
N196	N	1.166098	0.832434	0.499808
H197	H	0.657551	0.372436	0.046209
H198	H	1.157551	0.872436	0.546209
H199	H	0.716246	0.319482	-0.000210
H200	H	1.216246	0.819482	0.499790
N201	N	0.775849	0.277800	0.338658
N202	N	1.275849	0.777800	0.838658
H203	H	0.781008	0.267351	0.394554
H204	H	1.281008	0.767351	0.894554
H205	H	0.797678	0.349474	0.324868
H206	H	1.297678	0.849474	0.824868
N207	N	0.177987	-0.060041	-0.000237
N208	N	0.677987	0.439959	0.499763
H209	H	0.137905	-0.119120	-0.000241
H210	H	0.637905	0.380880	0.499759
H211	H	0.207784	-0.063413	-0.046637
H212	H	0.707784	0.436587	0.453363
H213	H	0.293572	0.261207	0.079333
H214	H	0.793572	0.761207	0.579333
N215	N	0.514892	0.329210	-0.000213
N216	N	1.014892	0.829210	0.499787
H217	H	0.554972	0.388292	-0.000213
H218	H	1.054972	0.888292	0.499787
H219	H	0.485149	0.332572	-0.046631
H220	H	0.985149	0.832572	0.453369
H221	H	0.619617	-0.026373	-0.000149
H222	H	1.119617	0.473627	0.499851
N223	N	0.217358	0.322896	-0.000270
N224	N	0.717358	0.822896	0.499730
H225	H	0.208816	0.362893	0.046135
H226	H	0.708816	0.862893	0.546135
H227	H	0.267505	0.309935	-0.000292
H228	H	0.767505	0.809935	0.499708
N229	N	0.255805	-0.013697	-0.091407
N230	N	0.755805	0.486303	0.408593
H231	H	0.229461	0.022776	-0.128926
H232	H	0.729461	0.522776	0.371074
H233	H	0.285351	-0.057659	-0.119129
H234	H	0.785351	0.442341	0.380871
N235	N	0.475527	-0.053724	-0.000177
N236	N	0.975527	0.446276	0.499823
H237	H	0.425360	-0.040845	-0.000190
H238	H	0.925360	0.459155	0.499810
H239	H	0.484132	-0.093682	-0.046578
H240	H	0.984132	0.406318	0.453422
