data_functionalizedCrystal
_audit_creation_method	'MofGen! by Chris Wilmer'
_symmetry_space_group_name_H-M	'P1'
_symmetry_Int_Tables_number	1
_symmetry_cell_setting	triclinic
loop_
_symmetry_equiv_pos_as_xyz
  x,y,z
_cell_length_a	14.971486
_cell_length_b	10.654550
_cell_length_c	9.730223
_cell_angle_alpha	90.004253
_cell_angle_beta	89.998333
_cell_angle_gamma	84.049530
loop_
_atom_site_label
_atom_site_type_symbol
_atom_site_fract_x
_atom_site_fract_y
_atom_site_fract_z
O1	O	-1.187834	-0.163656	-0.114131
O2	O	-0.927540	-0.183254	-0.114169
O3	O	-1.063672	0.009348	-0.114141
O4	O	-1.051702	-0.356259	-0.114160
O5	O	-1.063663	0.009354	0.114439
O6	O	-0.927531	-0.183249	0.114411
O7	O	-1.187825	-0.163651	0.114449
Zn8	Zn	-1.057677	-0.173449	0.150722
Zn9	Zn	-1.057688	-0.173456	-0.150442
O10	O	-1.051694	-0.356253	0.114420
C11	C	-1.062788	0.056139	0.000149
C12	C	-1.060159	0.195555	0.000146
C13	C	-0.894206	-0.182375	0.000117
C14	C	-0.794895	-0.179749	0.000102
C15	C	-1.221159	-0.164530	0.000160
C16	C	-1.320470	-0.167156	0.000165
C17	C	-0.738285	-0.292898	0.000099
C18	C	-0.644972	-0.290422	0.000119
C19	C	-0.608271	-0.174797	0.000134
C20	C	-0.664888	-0.061639	0.000142
C21	C	-0.758199	-0.064116	0.000131
C22	C	-0.470397	-0.056485	0.000161
C23	C	-0.377080	-0.054007	0.000169
C24	C	-0.357171	-0.282791	0.000149
C25	C	-0.450482	-0.285268	0.000138
C26	C	-0.507092	-0.172110	0.000144
C27	C	-1.052577	-0.403044	0.000128
C28	C	-1.055206	-0.542460	0.000122
N29	N	-1.057675	-0.173444	0.356258
C30	C	-1.140311	0.275900	0.000157
C31	C	-1.137835	0.406894	0.000140
C32	C	-0.975048	0.377185	0.000107
C33	C	-0.977525	0.246193	0.000114
N34	N	-1.057697	-0.173451	-0.355978
C35	C	-1.117975	-0.088195	0.428197
C36	C	-1.117984	-0.088195	0.572080
C37	C	-0.997391	-0.258704	0.572073
C38	C	-0.997378	-0.258697	0.428193
H39	H	-0.598884	-0.382559	0.000114
H40	H	-0.907770	0.418431	0.000083
C41	C	-0.294904	-0.407263	0.000147
H42	H	-0.234074	-0.389232	0.000171
H43	H	-0.306099	-0.454665	-0.079573
H44	H	-0.306112	-0.454671	0.079859
C45	C	-1.184317	0.005573	0.651206
H46	H	-1.220228	0.056338	0.587753
H47	H	-1.151830	0.057929	0.707347
H48	H	-1.221833	-0.039704	0.707320
H49	H	-0.948271	-0.328117	0.369617
H50	H	-0.948299	-0.328117	0.630657
C51	C	-0.336709	0.073177	0.000194
H52	H	-0.383787	0.140215	0.000214
H53	H	-0.300718	0.078901	-0.079514
H54	H	-0.300726	0.078887	0.079918
H55	H	-1.167071	-0.018775	0.369631
H56	H	-0.768160	-0.387053	0.000086
C57	C	-1.231202	0.220194	0.000182
H58	H	-1.221200	0.130673	0.000198
H59	H	-1.264243	0.247756	-0.079524
H60	H	-1.264231	0.247776	0.079908
H61	H	-0.516488	0.035661	0.000168
C62	C	-0.889356	0.157802	0.000095
H63	H	-0.902668	0.072537	0.000087
H64	H	-0.855496	0.173165	0.079794
H65	H	-0.855518	0.173160	-0.079638
C66	C	-0.624523	0.065550	0.000157
H67	H	-0.671604	0.132583	0.000169
H68	H	-0.588532	0.071271	-0.079551
H69	H	-0.588541	0.071272	0.079881
C70	C	-0.490853	-0.412452	0.000125
H71	H	-0.443775	-0.479491	0.000138
H72	H	-0.526837	-0.418175	-0.079587
H73	H	-0.526842	-0.418164	0.079845
C74	C	-0.820469	0.060348	0.000122
H75	H	-0.785249	0.129566	0.000117
H76	H	-0.857292	0.064143	0.079826
H77	H	-0.857275	0.064130	-0.079606
C78	C	-1.226002	0.495269	0.000161
H79	H	-1.275567	0.446345	0.000191
H80	H	-1.228430	0.546979	-0.079552
H81	H	-1.228412	0.546993	0.079879
