data_functionalizedCrystal
_audit_creation_method	'MofGen! by Chris Wilmer'
_symmetry_space_group_name_H-M	'P1'
_symmetry_Int_Tables_number	1
_symmetry_cell_setting	triclinic
loop_
_symmetry_equiv_pos_as_xyz
  x,y,z
_cell_length_a	10.489746
_cell_length_b	10.489741
_cell_length_c	14.586319
_cell_angle_alpha	89.996488
_cell_angle_beta	89.999417
_cell_angle_gamma	84.540238
loop_
_atom_site_label
_atom_site_type_symbol
_atom_site_fract_x
_atom_site_fract_y
_atom_site_fract_z
O1	O	1.694048	0.179998	-0.076178
O2	O	1.322853	0.196884	-0.076193
O3	O	1.516897	0.002843	-0.076180
O4	O	1.500004	0.374039	-0.076192
O5	O	1.516884	0.002840	0.076301
O6	O	1.322840	0.196881	0.076287
O7	O	1.694035	0.179995	0.076303
Cu8	Cu	1.508436	0.188438	0.090218
Cu9	Cu	1.508452	0.188441	-0.090109
O10	O	1.499991	0.374036	0.076289
C11	C	1.275315	0.195606	0.000045
C12	C	1.133686	0.191786	0.000039
C13	C	0.980828	0.066062	0.000056
C14	C	1.058215	0.128917	0.075233
C15	C	1.058184	0.128950	-0.075102
C16	C	0.958724	0.247899	0.075300
C17	C	0.958687	0.247914	-0.075101
C18	C	1.036025	0.310856	0.000094
C19	C	1.515614	-0.044690	0.000060
C20	C	1.511797	-0.186320	0.000058
C21	C	1.388333	-0.254462	0.000046
C22	C	1.446650	-0.346585	0.075230
C23	C	1.446692	-0.346557	-0.075105
C24	C	1.570165	-0.276577	0.075303
C25	C	1.570190	-0.276539	-0.075098
C26	C	1.628597	-0.368635	0.000103
C27	C	1.741573	0.181273	0.000062
C28	C	1.883202	0.185093	0.000062
C29	C	1.501273	0.421569	0.000047
C30	C	1.505091	0.563198	0.000043
N31	N	1.508434	0.188434	0.217049
N32	N	1.508464	0.188434	-0.216940
C33	C	1.594385	0.102542	0.452062
C34	C	1.594389	0.102539	0.548043
C35	C	1.422503	0.274330	0.548041
C36	C	1.422494	0.274326	0.452061
C37	C	1.508443	0.188434	0.404074
C38	C	1.508455	0.188435	0.596035
C39	C	1.508459	0.188432	0.700102
C40	C	1.508438	0.188435	0.300000
H41	H	1.060501	0.414436	0.000132
H42	H	1.101686	0.078668	0.138794
N43	N	1.635672	-0.237600	-0.154841
N44	N	1.593609	-0.259662	-0.232850
H45	H	1.639846	-0.232159	-0.289176
N46	N	1.381124	-0.385422	-0.154833
N47	N	1.266860	-0.344293	-0.168211
H48	H	1.220542	-0.371738	-0.224514
H49	H	1.664368	0.032602	0.412993
H50	H	1.730200	-0.418057	0.000149
H51	H	1.664370	0.032598	0.587112
N52	N	0.904134	0.310890	-0.154847
N53	N	0.936252	0.270273	-0.232854
H54	H	0.897724	0.314741	-0.289182
N55	N	1.260985	-0.192188	0.000138
N56	N	1.186464	-0.210876	0.064590
H57	H	1.096526	-0.166895	0.064659
H58	H	1.352528	0.344264	0.587121
H59	H	1.394403	-0.377599	0.138787
H60	H	1.352503	0.344270	0.412987
H61	H	0.915438	0.298112	0.138930
N62	N	1.112696	0.065874	-0.154826
N63	N	1.099532	-0.049844	-0.168194
H64	H	1.138032	-0.094402	-0.224494
N65	N	1.635617	-0.237888	0.155135
N66	N	1.578880	-0.162144	0.211120
H67	H	1.625099	-0.134815	0.267502
N68	N	0.949823	-0.063780	0.000161
N69	N	0.985973	-0.136659	0.064818
H70	H	0.964074	-0.228359	0.064897
