data_functionalizedCrystal
_audit_creation_method	'MofGen! by Chris Wilmer'
_symmetry_space_group_name_H-M	'P1'
_symmetry_Int_Tables_number	1
_symmetry_cell_setting	triclinic
loop_
_symmetry_equiv_pos_as_xyz
  x,y,z
_cell_length_a	16.109301
_cell_length_b	10.654550
_cell_length_c	14.586319
_cell_angle_alpha	89.996358
_cell_angle_beta	89.999213
_cell_angle_gamma	83.973206
loop_
_atom_site_label
_atom_site_type_symbol
_atom_site_fract_x
_atom_site_fract_y
_atom_site_fract_z
O1	O	1.104091	0.161419	-0.076182
O2	O	0.862148	0.181507	-0.076197
O3	O	0.988682	-0.011352	-0.076183
O4	O	0.977557	0.354278	-0.076195
O5	O	0.988673	-0.011354	0.076298
O6	O	0.862139	0.181504	0.076284
O7	O	1.104082	0.161416	0.076299
Cu8	Cu	0.983110	0.171460	0.090214
Cu9	Cu	0.983120	0.171463	-0.090112
O10	O	0.977548	0.354275	0.076285
C11	C	0.831164	0.180692	0.000042
C12	C	0.738854	0.178253	0.000037
C13	C	0.987861	-0.058140	0.000057
C14	C	0.985417	-0.197550	0.000055
C15	C	0.517228	0.287019	0.000044
C16	C	0.430494	0.284717	0.000049
C17	C	0.449008	0.055896	0.000053
C18	C	0.535741	0.058199	0.000054
C19	C	0.569848	0.173764	0.000044
C20	C	0.396382	0.169159	0.000050
C21	C	0.302341	0.166662	0.000056
C22	C	0.663895	0.176262	0.000040
C23	C	1.059918	-0.278046	0.000059
C24	C	1.057616	-0.409036	0.000048
C25	C	0.906306	-0.379020	0.000032
C26	C	0.908608	-0.248033	0.000037
C27	C	1.145364	-0.606070	-0.053373
C28	C	1.219869	-0.686572	-0.053353
C29	C	1.287407	-0.657317	0.000086
C30	C	1.280443	-0.547563	0.053528
C31	C	1.205937	-0.467068	0.053516
C32	C	1.138402	-0.496322	0.000056
C33	C	0.820866	-0.050997	0.053465
C34	C	0.746359	0.029500	0.053460
C35	C	0.678814	0.000249	0.000026
C36	C	0.685770	-0.109507	-0.053402
C37	C	0.760277	-0.190004	-0.053397
C38	C	0.827822	-0.160745	0.000036
C39	C	1.135066	0.162231	0.000058
C40	C	1.227376	0.164671	0.000058
C41	C	0.978369	0.401063	0.000043
C42	C	0.980813	0.540473	0.000039
N43	N	0.983108	0.171457	0.217046
N44	N	0.983128	0.171457	-0.216944
C45	C	1.039156	0.086088	0.452058
C46	C	1.039159	0.086084	0.548040
C47	C	0.927074	0.256830	0.548037
C48	C	0.927068	0.256826	0.452058
C49	C	0.983114	0.171456	0.404071
C50	C	0.983122	0.171457	0.596031
C51	C	0.983124	0.171455	0.700099
C52	C	0.983111	0.171457	0.299997
H53	H	0.387654	0.376940	0.000051
C54	C	0.865408	0.350703	0.600821
H55	H	0.832018	0.401527	0.558492
H56	H	0.895593	0.403010	0.638271
H57	H	0.830550	0.305470	0.638254
C58	C	1.100804	-0.007819	0.600826
H59	H	1.092776	0.004397	0.664862
H60	H	1.156367	0.005842	0.585094
H61	H	1.091286	-0.091640	0.585099
H62	H	0.740696	0.118862	0.096976
H63	H	0.421227	-0.038193	0.000067
C64	C	0.821822	-0.434550	0.000015
H65	H	0.777781	-0.367845	0.000003
H66	H	0.817770	-0.485034	0.053185
H67	H	0.817787	-0.485014	-0.053169
H68	H	0.881428	0.326344	0.412983
C69	C	1.100796	-0.007826	0.399275
H70	H	1.134167	-0.058676	0.441605
H71	H	1.135664	0.037356	0.361826
H72	H	1.070579	-0.060120	0.361843
H73	H	0.578586	-0.034032	0.000057
H74	H	0.544996	0.381119	0.000043
H75	H	1.122460	-0.236948	0.000072
H76	H	1.200265	-0.377712	0.097031
C77	C	0.767935	-0.310734	-0.112168
H78	H	0.821980	-0.354488	-0.104506
H79	H	0.759544	-0.288788	-0.174855
H80	H	0.727011	-0.363421	-0.093385
H81	H	0.618142	0.065794	0.000039
C82	C	1.354730	-0.515394	0.112325
H83	H	1.339909	-0.438510	0.144155
H84	H	1.401329	-0.506587	0.073829
H85	H	1.368775	-0.581234	0.155281
C86	C	1.227533	-0.807285	-0.112143
H87	H	1.176644	-0.813170	-0.143989
H88	H	1.239064	-0.878900	-0.073637
H89	H	1.271616	-0.804244	-0.155085
H90	H	0.875872	-0.027152	0.096959
H91	H	1.348071	-0.722871	0.000101
H92	H	1.090378	-0.629892	-0.096901
H93	H	0.630762	-0.133341	-0.096893
