data_functionalizedCrystal
_audit_creation_method	'MofGen! by Chris Wilmer'
_symmetry_space_group_name_H-M	'P1'
_symmetry_Int_Tables_number	1
_symmetry_cell_setting	triclinic
loop_
_symmetry_equiv_pos_as_xyz
  x,y,z
_cell_length_a	16.109302
_cell_length_b	16.109301
_cell_length_c	9.616153
_cell_angle_alpha	90.001128
_cell_angle_beta	90.004770
_cell_angle_gamma	83.461631
loop_
_atom_site_label
_atom_site_type_symbol
_atom_site_fract_x
_atom_site_fract_y
_atom_site_fract_z
O1	O	1.103129	0.106872	0.115694
O2	O	1.603129	0.606872	0.615694
O3	O	0.861067	0.120170	0.115681
O4	O	1.361067	0.620170	0.615681
O5	O	0.988748	-0.007510	0.115695
O6	O	1.488748	0.492490	0.615695
O7	O	0.975449	0.234552	0.115680
O8	O	1.475449	0.734552	0.615680
O9	O	0.988741	-0.007517	-0.115597
O10	O	1.488741	0.492483	0.384403
O11	O	0.861061	0.120163	-0.115611
O12	O	1.361061	0.620163	0.384389
O13	O	1.103123	0.106865	-0.115598
O14	O	1.603123	0.606865	0.384402
Zn15	Zn	0.982091	0.113513	-0.152327
Zn16	Zn	1.482091	0.613513	0.347673
Zn17	Zn	0.982099	0.113522	0.152410
Zn18	Zn	1.482099	0.613522	0.652410
O19	O	0.975442	0.234545	-0.115612
O20	O	1.475442	0.734545	0.384388
C21	C	0.830089	0.119628	0.000034
C22	C	1.330089	0.619628	0.500034
C23	C	0.737794	0.118013	0.000030
C24	C	1.237794	0.618013	0.500030
C25	C	0.525449	0.114274	-0.126033
C26	C	1.025449	0.614274	0.373967
C27	C	0.438729	0.112747	-0.126028
C28	C	0.938729	0.612747	0.373972
C29	C	0.438747	0.112759	0.126138
C30	C	0.938747	0.612759	0.626138
C31	C	0.525466	0.114279	0.126132
C32	C	1.025466	0.614279	0.626132
C33	C	0.568815	0.115041	0.000042
C34	C	1.068815	0.615041	0.500042
C35	C	0.395375	0.111994	0.000053
C36	C	0.895375	0.611994	0.500053
C37	C	0.301350	0.110338	0.000060
C38	C	0.801350	0.610338	0.500060
C39	C	0.662847	0.116695	0.000035
C40	C	1.162847	0.616695	0.500035
C41	C	1.134101	0.107407	0.000052
C42	C	1.634101	0.607407	0.500052
C43	C	1.226396	0.109022	0.000066
C44	C	1.726396	0.609022	0.500066
C45	C	0.988206	-0.038488	0.000054
C46	C	1.488206	0.461512	0.500054
C47	C	0.986591	-0.130784	0.000068
C48	C	1.486591	0.369216	0.500068
N49	N	0.982091	0.113506	-0.360301
N50	N	1.482091	0.613506	0.139699
C51	C	0.975984	0.265523	0.000032
C52	C	1.475984	0.765523	0.500032
C53	C	0.977599	0.357819	0.000027
C54	C	1.477599	0.857819	0.500027
C55	C	0.905592	0.580091	0.000043
C56	C	1.405592	1.080091	0.500043
C57	C	0.907116	0.666811	0.000054
C58	C	1.407116	1.166811	0.500054
C59	C	1.058604	0.646937	0.000056
C60	C	1.558604	1.146937	0.500056
C61	C	1.057079	0.560218	0.000055
C62	C	1.557079	1.060218	0.500055
C63	C	0.980571	0.526798	0.000042
C64	C	1.480571	1.026798	0.500042
C65	C	0.983620	0.700237	0.000053
C66	C	1.483620	1.200237	0.500053
C67	C	0.985273	0.794263	0.000065
C68	C	1.485273	1.294263	0.500065
C69	C	0.978917	0.432766	0.000033
C70	C	1.478917	0.932766	0.500033
C71	C	1.050429	0.045213	-0.419292
C72	C	1.550429	0.545213	0.080708
C73	C	1.050680	0.045399	-0.580460
C74	C	1.550680	0.545399	-0.080460
C75	C	1.000667	0.200373	-0.581085
C76	C	1.500667	0.700373	-0.081085
C77	C	1.001149	0.199963	-0.419867
C78	C	1.501149	0.699963	0.080133
C79	C	0.894988	0.095731	-0.419739
C80	C	1.394988	0.595731	0.080261
C81	C	0.895581	0.093769	-0.580967
C82	C	1.395581	0.593769	-0.080967
N83	N	0.982106	0.113522	0.360384
N84	N	1.482106	0.613522	0.860384
H85	H	0.403442	0.112139	0.228796
H86	H	0.903442	0.612139	0.728796
H87	H	1.118140	0.516825	0.000059
H88	H	1.618140	1.016825	0.500059
Br89	Br	0.805354	0.739135	0.000069
Br90	Br	1.305354	1.239135	0.500069
H91	H	1.120895	0.674159	0.000053
H92	H	1.620895	1.174159	0.500053
Br93	Br	1.032344	-0.062186	-0.646429
Br94	Br	1.532344	0.437814	-0.146429
H95	H	0.403425	0.112122	-0.228692
H96	H	0.903425	0.612122	0.271308
H97	H	1.039627	-0.019552	-0.380505
H98	H	1.539627	0.480448	0.119495
Br99	Br	0.806897	0.171274	-0.648063
Br100	Br	1.306897	0.671274	-0.148063
H101	H	1.114709	0.056433	-0.378748
H102	H	1.614709	0.556433	0.121252
Br103	Br	0.810233	0.178733	-0.356157
Br104	Br	1.310233	0.678733	0.143843
Br105	Br	1.105315	0.227036	-0.648357
Br106	Br	1.605315	0.727036	-0.148357
H107	H	1.115329	0.056792	-0.619016
H108	H	1.615329	0.556792	-0.119016
H109	H	0.843293	0.552883	0.000028
H110	H	1.343293	1.052883	0.500028
H111	H	0.560776	0.114902	0.228804
H112	H	1.060776	0.614902	0.728804
H113	H	1.064660	0.215579	-0.382252
H114	H	1.564660	0.715579	0.117748
Br115	Br	0.921997	0.287840	-0.354818
Br116	Br	1.421997	0.787840	0.145182
H117	H	0.877055	0.033733	-0.379089
H118	H	1.377055	0.533733	0.120911
H119	H	0.881488	0.029877	-0.619223
H120	H	1.381488	0.529877	-0.119223
Br121	Br	0.919890	0.287149	-0.644934
Br122	Br	1.419890	0.787149	-0.144934
Br123	Br	0.584277	0.115304	-0.297154
Br124	Br	1.084277	0.615304	0.202846
