data_functionalizedCrystal
_audit_creation_method	'MofGen! by Chris Wilmer'
_symmetry_space_group_name_H-M	'P1'
_symmetry_Int_Tables_number	1
_symmetry_cell_setting	triclinic
loop_
_symmetry_equiv_pos_as_xyz
  x,y,z
_cell_length_a	14.519709
_cell_length_b	14.044190
_cell_length_c	13.101018
_cell_angle_alpha	86.339369
_cell_angle_beta	93.362947
_cell_angle_gamma	88.435961
loop_
_atom_site_label
_atom_site_type_symbol
_atom_site_fract_x
_atom_site_fract_y
_atom_site_fract_z
O1	O	1.238537	0.119059	0.085091
O2	O	1.571870	0.452392	0.418425
O3	O	1.905204	0.785726	0.751758
O4	O	0.971243	0.133692	0.085124
O5	O	1.304576	0.467025	0.418457
O6	O	1.637909	0.800358	0.751791
O7	O	1.100873	-0.011615	0.085088
O8	O	1.434207	0.321718	0.418421
O9	O	1.767540	0.655052	0.751755
O10	O	1.108907	0.264366	0.085127
O11	O	1.442240	0.597699	0.418461
O12	O	1.775573	0.931032	0.751794
O13	O	1.091562	-0.001180	-0.085340
O14	O	1.424895	0.332153	0.247993
O15	O	1.758228	0.665486	0.581327
O16	O	0.961931	0.144126	-0.085304
O17	O	1.295264	0.477460	0.248029
O18	O	1.628598	0.810793	0.581363
O19	O	1.229225	0.129494	-0.085336
O20	O	1.562559	0.462827	0.247997
O21	O	1.895892	0.796160	0.581330
Zn22	Zn	1.094100	0.138467	-0.112379
Zn23	Zn	1.427433	0.471800	0.220954
Zn24	Zn	1.760766	0.805133	0.554287
Zn25	Zn	1.106368	0.124719	0.112167
Zn26	Zn	1.439702	0.458052	0.445500
Zn27	Zn	1.773035	0.791385	0.778833
O28	O	1.099595	0.274800	-0.085301
O29	O	1.432928	0.608134	0.248033
O30	O	1.766261	0.941467	0.581366
C31	C	0.932172	0.138227	-0.000086
C32	C	1.265506	0.471560	0.333247
C33	C	1.598839	0.804893	0.666581
C34	C	0.829627	0.136182	-0.000074
C35	C	1.162960	0.469516	0.333259
C36	C	1.496293	0.802849	0.666592
C37	C	0.454121	0.128661	-0.000122
C38	C	0.787455	0.461994	0.333211
C39	C	1.120788	0.795328	0.666545
C40	C	0.558599	0.130750	-0.000109
C41	C	0.891932	0.464083	0.333225
C42	C	1.225265	0.797416	0.666558
C43	C	0.641871	0.132421	-0.000097
C44	C	0.975204	0.465755	0.333236
C45	C	1.308537	0.799088	0.666569
C46	C	0.746355	0.134511	-0.000086
C47	C	1.079688	0.467844	0.333248
C48	C	1.413021	0.801177	0.666581
C49	C	1.092704	-0.041718	-0.000129
C50	C	1.426037	0.291615	0.333205
C51	C	1.759371	0.624949	0.666538
C52	C	1.082224	-0.146961	-0.000136
C53	C	1.415557	0.186372	0.333197
C54	C	1.748891	0.519705	0.666530
C55	C	1.137391	-0.397156	-0.000103
C56	C	1.470725	-0.063823	0.333231
C57	C	1.804058	0.269510	0.666564
C58	C	1.063082	-0.339653	-0.000101
C59	C	1.396415	-0.006320	0.333233
C60	C	1.729748	0.327013	0.666566
C61	C	1.073735	-0.232430	-0.000121
C62	C	1.407068	0.100904	0.333213
C63	C	1.740402	0.434237	0.666546
C64	C	1.126739	-0.504390	-0.000083
C65	C	1.460073	-0.171057	0.333250
C66	C	1.793406	0.162277	0.666584
C67	C	1.268296	0.124959	-0.000124
C68	C	1.601629	0.458292	0.333209
C69	C	1.934963	0.791625	0.666542
C70	C	1.370842	0.127003	-0.000129
C71	C	1.704175	0.460336	0.333204
C72	C	2.037509	0.793669	0.666538
C73	C	1.107764	0.304903	-0.000082
C74	C	1.441098	0.638237	0.333252
C75	C	1.774431	0.971570	0.666585
C76	C	1.118245	0.410146	-0.000067
C77	C	1.451578	0.743479	0.333266
C78	C	1.784911	1.076813	0.666599
N79	N	1.085733	0.147849	-0.265626
N80	N	1.419067	0.481182	0.067707
N81	N	1.752400	0.814516	0.401041
C82	C	1.126119	0.102560	-0.525547
C83	C	1.459452	0.435894	-0.192213
C84	C	1.792786	0.769227	0.141120
C85	C	1.074358	0.160614	-0.474659
C86	C	1.407692	0.493948	-0.141326
C87	C	1.741025	0.827281	0.192007
C88	C	1.080689	0.153510	-0.358342
C89	C	1.414022	0.486843	-0.025009
C90	C	1.747356	0.820177	0.308324
C91	C	1.119790	0.109664	-0.641874
C92	C	1.453123	0.442997	-0.308541
C93	C	1.786456	0.776330	0.024793
N94	N	1.114741	0.115329	0.265413
N95	N	1.448075	0.448662	0.598747
N96	N	1.781408	0.781996	0.932080
H97	H	0.991462	-0.370951	-0.000086
H98	H	1.324795	-0.037618	0.333247
H99	H	1.658129	0.295716	0.666580
H100	H	1.175185	0.047527	-0.481760
H101	H	1.508518	0.380861	-0.148427
H102	H	1.841851	0.714194	0.184906
H103	H	1.209005	-0.365860	-0.000122
H104	H	1.542338	-0.032527	0.333211
H105	H	1.875671	0.300807	0.666545
Br106	Br	0.992576	0.252349	-0.547645
Br107	Br	1.325909	0.585682	-0.214311
Br108	Br	1.659243	0.919015	0.119022
