data_functionalizedCrystal
_audit_creation_method	'MofGen! by Chris Wilmer'
_symmetry_space_group_name_H-M	'P1'
_symmetry_Int_Tables_number	1
_symmetry_cell_setting	triclinic
loop_
_symmetry_equiv_pos_as_xyz
  x,y,z
_cell_length_a	16.109301
_cell_length_b	12.503552
_cell_length_c	16.109301
_cell_angle_alpha	93.517221
_cell_angle_beta	96.538519
_cell_angle_gamma	93.519472
loop_
_atom_site_label
_atom_site_type_symbol
_atom_site_fract_x
_atom_site_fract_y
_atom_site_fract_z
O1	O	1.107930	0.089256	-0.102063
O2	O	0.865869	0.089273	-0.115362
O3	O	0.993548	0.089253	0.012318
O4	O	0.980250	0.089276	-0.229743
O5	O	0.983935	-0.089388	0.002707
O6	O	0.856255	-0.089368	-0.124972
O7	O	1.098316	-0.089385	-0.111674
Cu8	Cu	0.976408	-0.105688	-0.119201
Cu9	Cu	0.987777	0.105576	-0.107835
O10	O	0.970637	-0.089365	-0.239354
C11	C	0.830087	-0.000045	-0.119628
C12	C	0.737792	-0.000039	-0.118013
N13	N	0.968418	-0.254279	-0.127194
C14	C	0.515519	-0.000044	-0.190021
C15	C	0.428799	-0.000051	-0.188497
C16	C	0.448672	-0.000061	-0.037009
C17	C	0.535391	-0.000062	-0.038534
C18	C	0.568812	-0.000048	-0.115042
C19	C	0.395373	-0.000054	-0.111993
C20	C	0.301346	-0.000062	-0.110341
C21	C	0.662845	-0.000042	-0.116695
C22	C	1.007523	-0.526718	-0.088073
C23	C	0.956671	-0.473386	-0.138953
C24	C	0.963209	-0.351464	-0.132409
C25	C	1.000987	-0.648652	-0.094617
C26	C	1.134098	-0.000064	-0.107407
C27	C	1.226393	-0.000064	-0.109022
C28	C	0.988203	-0.000068	0.038487
C29	C	0.986587	-0.000069	0.130783
N30	N	0.995774	0.254168	-0.099835
C31	C	0.975982	-0.000042	-0.265523
C32	C	0.977598	-0.000033	-0.357818
C33	C	1.058596	-0.000057	0.353056
C34	C	1.057072	-0.000048	0.439777
C35	C	0.905584	-0.000042	0.419903
C36	C	0.907109	-0.000043	0.333184
C37	C	0.983617	-0.000056	0.299763
C38	C	0.980568	-0.000046	0.473202
C39	C	0.978916	-0.000036	0.567229
C40	C	0.985270	-0.000064	0.205730
H41	H	0.542727	-0.000041	-0.252319
C42	C	1.032252	-0.400061	0.031747
C43	C	1.072935	-0.464739	-0.022660
H44	H	1.072640	-0.361781	0.072119
H45	H	0.995342	-0.443928	0.059347
H46	H	1.001193	-0.350596	0.000673
H47	H	1.103990	-0.514210	0.008414
H48	H	1.109860	-0.420868	-0.050262
H49	H	0.908226	-0.519294	-0.187428
H50	H	1.118128	-0.000047	0.483165
C51	C	0.677152	-0.000070	0.026391
C52	C	0.593979	-0.000065	0.043889
H53	H	0.713319	-0.000082	0.077273
H54	H	0.690625	0.062223	-0.001625
H55	H	0.683918	-0.062369	-0.008332
H56	H	0.587211	0.062238	0.078607
H57	H	0.580502	-0.062365	0.071918
H58	H	1.120894	-0.000066	0.325847
C59	C	0.417872	-0.000025	-0.338386
C60	C	0.370219	-0.000040	-0.270916
H61	H	0.381706	-0.000012	-0.389269
H62	H	0.448758	-0.062317	-0.339183
H63	H	0.455460	0.062276	-0.332470
H64	H	0.332635	-0.062345	-0.276829
H65	H	0.339319	0.062258	-0.270121
C66	C	0.835981	-0.000050	0.544012
C67	C	0.821488	-0.000043	0.456642
H68	H	0.784061	-0.000061	0.566689
H69	H	0.870194	0.062242	0.565650
H70	H	0.863505	-0.062350	0.558948
H71	H	0.793969	0.062262	0.441705
H72	H	0.787261	-0.062342	0.434996
C73	C	0.783391	0.091790	0.294479
C74	C	0.824684	-0.000043	0.274599
H75	H	0.732506	0.091787	0.258314
H76	H	0.818113	0.154072	0.287694
H77	H	0.771538	0.091777	0.350910
H78	H	0.836543	-0.000026	0.218169
H79	H	0.789954	-0.062341	0.281376
C80	C	0.324563	-0.000053	0.032594
C81	C	0.411933	-0.000062	0.047087
H82	H	0.301886	-0.000045	0.084514
H83	H	0.302923	-0.062344	-0.001619
H84	H	0.309629	0.062248	0.005070
H85	H	0.426867	-0.062368	0.074606
H86	H	0.433581	0.062235	0.081314
