data_functionalizedCrystal
_audit_creation_method	'MofGen! by Chris Wilmer'
_symmetry_space_group_name_H-M	'P1'
_symmetry_Int_Tables_number	1
_symmetry_cell_setting	triclinic
loop_
_symmetry_equiv_pos_as_xyz
  x,y,z
_cell_length_a	16.625548
_cell_length_b	21.295417
_cell_length_c	21.295411
_cell_angle_alpha	90.028718
_cell_angle_beta	90.016407
_cell_angle_gamma	90.031575
loop_
_atom_site_label
_atom_site_type_symbol
_atom_site_fract_x
_atom_site_fract_y
_atom_site_fract_z
Zn1	Zn	1.232602	-0.250619	0.355911
Zn2	Zn	1.732602	0.249381	0.855911
Zn3	Zn	1.232496	-0.355884	0.250636
Zn4	Zn	1.732496	0.144116	0.750636
Zn5	Zn	1.097774	-0.250634	0.250656
Zn6	Zn	1.597774	0.249366	0.750656
Zn7	Zn	1.097716	-0.355856	0.355868
Zn8	Zn	1.597716	0.144144	0.855868
O9	O	1.165147	-0.303248	0.303268
O10	O	1.665147	0.196752	0.803268
O11	O	1.345421	-0.264588	0.341956
O12	O	1.845421	0.235412	0.841956
O13	O	1.214605	-0.341940	0.162549
O14	O	1.714605	0.158060	0.662549
O15	O	1.115728	-0.162543	0.264644
O16	O	1.615728	0.337457	0.764644
O17	O	1.345343	-0.341925	0.264611
O18	O	1.845343	0.158075	0.764611
O19	O	1.214786	-0.162532	0.341975
O20	O	1.714786	0.337468	0.841975
O21	O	1.115625	-0.264614	0.162564
O22	O	1.615625	0.235386	0.662564
O23	O	0.984934	-0.264587	0.264603
O24	O	1.484934	0.235413	0.764603
O25	O	1.115629	-0.341878	0.443963
O26	O	1.615629	0.158122	0.943963
O27	O	0.984891	-0.341893	0.341902
O28	O	1.484891	0.158107	0.841902
O29	O	1.214729	-0.264561	0.443994
O30	O	1.714729	0.235439	0.943994
O31	O	1.214549	-0.443970	0.264569
O32	O	1.714549	0.056030	0.764569
O33	O	1.115526	-0.443949	0.341883
O34	O	1.615526	0.056051	0.841883
C35	C	0.955656	-0.303239	0.303250
C36	C	1.455656	0.196761	0.803250
C37	C	0.866035	-0.303251	0.303257
C38	C	1.366035	0.196749	0.803257
C39	C	0.537859	-0.303255	0.303284
C40	C	1.037859	0.196745	0.803284
C41	C	0.629168	-0.303252	0.303275
C42	C	1.129168	0.196748	0.803275
C43	C	0.701944	-0.303253	0.303270
C44	C	1.201944	0.196747	0.803270
C45	C	0.793259	-0.303250	0.303262
C46	C	1.293259	0.196750	0.803262
C47	C	1.165041	-0.466800	0.303233
C48	C	1.665041	0.033200	0.803233
C49	C	1.165070	-0.536768	0.303239
C50	C	1.665070	-0.036768	0.803239
C51	C	1.216677	-0.569624	0.263023
C52	C	1.716677	-0.069624	0.763023
C53	C	1.216715	-0.635367	0.263037
C54	C	1.716715	-0.135367	0.763037
C55	C	1.165131	-0.668251	0.303261
C56	C	1.665131	-0.168251	0.803261
C57	C	1.113520	-0.635386	0.343484
C58	C	1.613520	-0.135386	0.843484
C59	C	1.113490	-0.569645	0.343473
C60	C	1.613490	-0.069645	0.843473
N61	N	1.094596	-0.771518	0.308054
N62	N	1.594596	-0.271518	0.808054
N63	N	1.094627	-0.833969	0.308060
N64	N	1.594627	-0.333969	0.808060
C65	C	1.165221	-0.866325	0.303297
C66	C	1.665221	-0.366325	0.803297
N67	N	1.235785	-0.833871	0.298514
N68	N	1.735785	-0.333871	0.798514
N69	N	1.235753	-0.771414	0.298504
N70	N	1.735753	-0.271414	0.798504
C71	C	1.165159	-0.739536	0.303277
C72	C	1.665159	-0.239536	0.803277
C73	C	1.216874	-0.970467	0.263094
C74	C	1.716874	-0.470467	0.763094
C75	C	1.216913	-1.036211	0.263113
C76	C	1.716913	-0.536211	0.763113
C77	C	1.113711	-1.036229	0.343556
C78	C	1.613711	-0.536229	0.843556
C79	C	1.113679	-0.970487	0.343541
C80	C	1.613679	-0.470487	0.843541
C81	C	1.165260	-0.937610	0.303307
C82	C	1.665260	-0.437610	0.803307
C83	C	1.375456	-0.303258	0.303286
C84	C	1.875456	0.196742	0.803286
C85	C	1.465077	-0.303262	0.303293
C86	C	1.965077	0.196738	0.803293
C87	C	1.165184	-0.303215	0.467458
C88	C	1.665184	0.196785	0.967458
C89	C	1.165200	-0.303201	0.537426
C90	C	1.665200	0.196799	1.037426
C91	C	1.165275	-0.139058	0.303316
C92	C	1.665275	0.360942	0.803316
C93	C	1.165330	-0.069090	0.303337
C94	C	1.665330	0.430910	0.803337
C95	C	1.165156	-0.303236	0.139716
C96	C	1.665156	0.196764	0.639716
C97	C	1.165297	-0.303073	0.069748
C98	C	1.665297	0.196927	0.569748
C99	C	1.216829	-0.343334	1.036877
C100	C	1.716829	0.156666	1.536877
C101	C	1.216814	-0.343354	0.971135
C102	C	1.716814	0.156646	1.471135
C103	C	1.165276	-0.303102	0.938266
C104	C	1.665276	0.196898	1.438266
C105	C	1.113734	-0.262839	0.971145
C106	C	1.613734	0.237161	1.471145
C107	C	1.113745	-0.262825	1.036886
C108	C	1.613745	0.237175	1.536886
N109	N	1.159117	-0.248023	0.835061
N110	N	1.659117	0.251977	1.335061
N111	N	1.159112	-0.248039	0.772609
N112	N	1.659112	0.251961	1.272609
C113	C	1.165241	-0.303145	0.740191
C114	C	1.665241	0.196855	1.240191
N115	N	1.171390	-0.358236	0.772584
N116	N	1.671390	0.141764	1.272584
N117	N	1.171400	-0.358220	0.835041
N118	N	1.671400	0.141780	1.335041
C119	C	1.165259	-0.303114	0.866980
C120	C	1.665259	0.196886	1.366980
C121	C	1.216760	-0.343431	0.636034
C122	C	1.716760	0.156569	1.136034
C123	C	1.216740	-0.343452	0.570291
C124	C	1.716740	0.156548	1.070291
C125	C	1.113664	-0.262931	0.570302
C126	C	1.613664	0.237069	1.070302
C127	C	1.113680	-0.262916	0.636044
C128	C	1.613680	0.237084	1.136044
C129	C	1.165232	-0.303164	0.668907
C130	C	1.665232	0.196836	1.168907
H131	H	1.258678	-0.542858	0.230263
H132	H	1.758678	-0.042858	0.730263
O133	O	1.063716	-1.068232	0.382663
O134	O	1.563716	-0.568232	0.882663
C135	C	1.052842	-1.142372	0.467687
C136	C	1.552842	-0.642372	0.967687
C137	C	1.109550	-1.106176	0.423424
C138	C	1.609550	-0.606176	0.923424
H139	H	1.089877	-1.173049	0.500662
H140	H	1.589877	-0.673049	1.000662
H141	H	1.010731	-1.173245	0.438799
H142	H	1.510731	-0.673245	0.938799
H143	H	1.015931	-1.107580	0.496398
H144	H	1.515931	-0.607580	0.996398
H145	H	1.146513	-1.140924	0.394704
H146	H	1.646513	-0.640924	0.894704
H147	H	1.151608	-1.075294	0.452348
H148	H	1.651608	-0.575294	0.952348
O149	O	1.063464	-0.938664	0.382621
O150	O	1.563464	-0.438664	0.882621
C151	C	0.961138	-0.945622	0.462434
C152	C	1.461138	-0.445622	0.962434
C153	C	1.017954	-0.981739	0.418194
C154	C	1.517954	-0.481739	0.918194
H155	H	0.924340	-0.980432	0.491215
H156	H	1.424340	-0.480432	0.991215
H157	H	0.918933	-0.914911	0.433525
H158	H	1.418933	-0.414911	0.933525
H159	H	0.998126	-0.914776	0.495344
H160	H	1.498126	-0.414776	0.995344
H161	H	0.981031	-1.012618	0.385275
H162	H	1.481031	-0.512618	0.885275
H163	H	1.060160	-1.012409	0.447142
H164	H	1.560160	-0.512409	0.947142
H165	H	1.071720	-0.230129	0.662808
H166	H	1.571720	0.269871	1.162808
O167	O	1.267089	-1.068227	0.224158
O168	O	1.767089	-0.568227	0.724158
C169	C	1.312998	-1.169495	0.188620
C170	C	1.812998	-0.669495	0.688620
C171	C	1.256101	-1.133315	0.232745
C172	C	1.756101	-0.633315	0.732745
H173	H	1.304122	-1.222126	0.195538
H174	H	1.804122	-0.722126	0.695538
H175	H	1.377984	-1.156520	0.199788
H176	H	1.877984	-0.656520	0.699788
H177	H	1.298969	-1.156619	0.137831
H178	H	1.798969	-0.656619	0.637831
H179	H	1.270057	-1.146173	0.283549
H180	H	1.770057	-0.646173	0.783549
H181	H	1.191132	-1.146294	0.221523
H182	H	1.691132	-0.646294	0.721523
H183	H	1.258805	-0.376109	1.063630
H184	H	1.758805	0.123891	1.563630
O185	O	1.266939	-0.382500	0.667894
O186	O	1.766939	0.117500	1.167894
C187	C	1.404075	-0.413033	0.688048
C188	C	1.904075	0.086967	1.188048
C189	C	1.347339	-0.368758	0.651919
C190	C	1.847339	0.131242	1.151919
H191	H	1.469091	-0.401930	0.675156
H192	H	1.969091	0.098070	1.175156
H193	H	1.389939	-0.463805	0.675097
H194	H	1.889939	0.036195	1.175097
H195	H	1.395191	-0.406114	0.740678
H196	H	1.895191	0.093886	1.240678
H197	H	1.356191	-0.375622	0.599280
H198	H	1.856191	0.124378	1.099280
H199	H	1.361489	-0.318002	0.664922
H200	H	1.861489	0.181998	1.164922
H201	H	1.258790	-0.376132	0.944366
H202	H	1.758790	0.123868	1.444366
H203	H	1.071770	-0.230067	0.944379
H204	H	1.571770	0.269933	1.444379
H205	H	1.071522	-0.662165	0.376236
H206	H	1.571522	-0.162165	0.876236
O207	O	1.266870	-0.667195	0.223908
O208	O	1.766870	-0.167195	0.723908
C209	C	1.369248	-0.660244	0.144135
C210	C	1.869248	-0.160244	0.644135
C211	C	1.312476	-0.624123	0.188406
C212	C	1.812476	-0.124123	0.688406
H213	H	1.406147	-0.625436	0.115430
H214	H	1.906147	-0.125436	0.615430
H215	H	1.332300	-0.691052	0.111160
H216	H	1.832300	-0.191052	0.611160
H217	H	1.411366	-0.690993	0.173077
H218	H	1.911366	-0.190993	0.673077
H219	H	1.270347	-0.593341	0.159514
H220	H	1.770347	-0.093341	0.659514
H221	H	1.349474	-0.593355	0.221383
H222	H	1.849474	-0.093355	0.721383
O223	O	1.063662	-0.223652	1.068723
O224	O	1.563662	0.276348	1.568723
C225	C	0.961388	-0.143818	1.061796
C226	C	1.461388	0.356182	1.561796
C227	C	1.018078	-0.188140	1.025662
C228	C	1.518078	0.311860	1.525662
H229	H	0.924507	-0.115105	1.026998
H230	H	1.424507	0.384895	1.526998
H231	H	0.998399	-0.110853	1.092569
H232	H	1.498399	0.389147	1.592569
H233	H	0.919250	-0.172722	1.092581
H234	H	1.419250	0.327278	1.592581
H235	H	1.060228	-0.159287	0.994843
H236	H	1.560228	0.340713	1.494843
H237	H	0.981017	-0.221107	0.994929
H238	H	1.481017	0.278893	1.494929
O239	O	1.266762	-0.382651	0.538428
O240	O	1.766762	0.117349	1.038428
C241	C	1.305805	-0.489732	0.518264
C242	C	1.805805	0.010268	1.018264
C243	C	1.249116	-0.445411	0.554398
C244	C	1.749116	0.054589	1.054398
H245	H	1.291547	-0.540484	0.531153
H246	H	1.791547	-0.040484	1.031153
H247	H	1.370843	-0.478721	0.531212
H248	H	1.870843	0.021279	1.031212
H249	H	1.296956	-0.482801	0.465634
H250	H	1.796956	0.017199	0.965634
H251	H	1.257893	-0.452317	0.607036
H252	H	1.757893	0.047683	1.107036
H253	H	1.184099	-0.456433	0.541398
H254	H	1.684099	0.043567	1.041398
H255	H	1.071464	-0.542893	0.376223
H256	H	1.571464	-0.042893	0.876223
H257	H	1.258876	-0.943698	0.230335
H258	H	1.758876	-0.443698	0.730335
O259	O	1.063482	-0.223898	0.538410
O260	O	1.563482	0.276102	1.038410
C261	C	0.926348	-0.193319	0.518319
C262	C	1.426348	0.306681	1.018319
C263	C	0.983091	-0.237572	0.554468
C264	C	1.483091	0.262428	1.054468
H265	H	0.861341	-0.204350	0.531299
H266	H	1.361341	0.295650	1.031299
H267	H	0.935119	-0.200247	0.465678
H268	H	1.435119	0.299753	0.965678
H269	H	0.940589	-0.142561	0.531254
H270	H	1.440589	0.357439	1.031254
H271	H	0.968886	-0.288346	0.541587
H272	H	1.468886	0.211654	1.041587
H273	H	0.974310	-0.230590	0.607101
H274	H	1.474310	0.269410	1.107101
