data_functionalizedCrystal
_audit_creation_method	'MofGen! by Chris Wilmer'
_symmetry_space_group_name_H-M	'P1'
_symmetry_Int_Tables_number	1
_symmetry_cell_setting	triclinic
loop_
_symmetry_equiv_pos_as_xyz
  x,y,z
_cell_length_a	19.805407
_cell_length_b	19.077068
_cell_length_c	19.076919
_cell_angle_alpha	94.470751
_cell_angle_beta	92.275426
_cell_angle_gamma	92.326519
loop_
_atom_site_label
_atom_site_type_symbol
_atom_site_fract_x
_atom_site_fract_y
_atom_site_fract_z
Zn1	Zn	1.007415	-0.296701	-0.409953
Zn2	Zn	1.507415	0.203299	0.090047
Zn3	Zn	1.007332	-0.409854	-0.296798
Zn4	Zn	1.507332	0.090146	0.203202
Zn5	Zn	0.898971	-0.291983	-0.292072
Zn6	Zn	1.398971	0.208017	0.207928
Zn7	Zn	0.889457	-0.414549	-0.414629
Zn8	Zn	1.389457	0.085451	0.085371
O9	O	0.950794	-0.353272	-0.353363
O10	O	1.450794	0.146728	0.146637
O11	O	1.102120	-0.311720	-0.394964
O12	O	1.602120	0.188280	0.105036
O13	O	0.996904	-0.390279	-0.197524
O14	O	1.496904	0.109721	0.302476
O15	O	0.917372	-0.193960	-0.303774
O16	O	1.417372	0.306040	0.196226
O17	O	1.102058	-0.394854	-0.311829
O18	O	1.602058	0.105146	0.188171
O19	O	0.997046	-0.197426	-0.390381
O20	O	1.497046	0.302574	0.109619
O21	O	0.917291	-0.303680	-0.194052
O22	O	1.417291	0.196320	0.305948
O23	O	0.802993	-0.308232	-0.308309
O24	O	1.302993	0.191768	0.191691
O25	O	0.901159	-0.402855	-0.512656
O26	O	1.401159	0.097145	-0.012656
O27	O	0.796004	-0.398280	-0.398351
O28	O	1.296004	0.101720	0.101649
O29	O	0.987822	-0.316273	-0.509220
O30	O	1.487822	0.183727	-0.009220
O31	O	0.987679	-0.509126	-0.316363
O32	O	1.487679	-0.009126	0.183637
O33	O	0.901077	-0.512575	-0.402933
O34	O	1.401077	-0.012575	0.097067
C35	C	0.774940	-0.353254	-0.353325
C36	C	1.274940	0.146746	0.146675
C37	C	0.699708	-0.353264	-0.353326
C38	C	1.199708	0.146736	0.146674
C39	C	0.234291	-0.400244	-0.400226
C40	C	0.734291	0.099756	0.099774
C41	C	0.304980	-0.400242	-0.400211
C42	C	0.804980	0.099758	0.099789
C43	C	0.343942	-0.353290	-0.353391
C44	C	0.843942	0.146710	0.146609
C45	C	0.312212	-0.306341	-0.306579
C46	C	0.812212	0.193659	0.193421
C47	C	0.241524	-0.306347	-0.306591
C48	C	0.741524	0.193653	0.193409
C49	C	0.597288	-0.306318	-0.306528
C50	C	1.097288	0.193682	0.193472
C51	C	0.667981	-0.306314	-0.306521
C52	C	1.167981	0.193686	0.193479
C53	C	0.660744	-0.400213	-0.400148
C54	C	1.160744	0.099787	0.099852
C55	C	0.590056	-0.400218	-0.400160
C56	C	1.090056	0.099782	0.099840
C57	C	0.558332	-0.353273	-0.353346
C58	C	1.058332	0.146727	0.146654
C59	C	0.481683	-0.353276	-0.353362
C60	C	0.981683	0.146724	0.146638
C61	C	0.420590	-0.353282	-0.353378
C62	C	0.920590	0.146718	0.146622
C63	C	0.943355	-0.536430	-0.360684
C64	C	1.443355	-0.036430	0.139316
C65	C	0.940233	-0.614787	-0.363839
C66	C	1.440233	-0.114787	0.136161
C67	C	0.983888	-0.649781	-0.320287
C68	C	1.483888	-0.149781	0.179713
C69	C	0.980956	-0.723406	-0.323259
C70	C	1.480956	-0.223406	0.176741
C71	C	0.934365	-0.762035	-0.369780
C72	C	1.434365	-0.262035	0.130220
C73	C	0.890709	-0.727035	-0.413338
C74	C	1.390709	-0.227035	0.086662
C75	C	0.893645	-0.653412	-0.410369
C76	C	1.393645	-0.153412	0.089631
C77	C	0.920749	-0.982420	-0.383492
C78	C	1.420749	-0.482420	0.116508
C79	C	0.917815	-1.056049	-0.386456
C80	C	1.417815	-0.556049	0.113544
C81	C	1.008063	-1.052414	-0.296378
C82	C	1.508063	-0.552414	0.203622
C83	C	1.010992	-0.978790	-0.293410
C84	C	1.510992	-0.478790	0.206590
C85	C	0.967338	-0.943797	-0.336970
C86	C	1.467338	-0.443797	0.163030
N87	N	0.931366	-0.837291	-0.372818
N88	N	1.431366	-0.337291	0.127182
N89	N	0.970342	-0.868542	-0.333936
N90	N	1.470342	-0.368542	0.166064
C91	C	1.127334	-0.353290	-0.353402
C92	C	1.627334	0.146710	0.146598
C93	C	1.202565	-0.353297	-0.353418
C94	C	1.702565	0.146703	0.146582
C95	C	0.943438	-0.360614	-0.537231
C96	C	1.443438	0.139386	-0.037231
C97	C	0.940304	-0.363742	-0.615585
C98	C	1.440304	0.136258	-0.115585
C99	C	0.958280	-0.169399	-0.346029
C100	C	1.458280	0.330601	0.153971
C101	C	0.961470	-0.091043	-0.342904
C102	C	1.461470	0.408957	0.157096
C103	C	0.983950	-0.320136	-0.650608
C104	C	1.483950	0.179864	-0.150608
C105	C	0.980997	-0.323073	-0.724229
C106	C	1.480997	0.176927	-0.224229
C107	C	0.934400	-0.369621	-0.762826
C108	C	1.434400	0.130379	-0.262826
C109	C	0.890750	-0.413229	-0.727798
C110	C	1.390750	0.086771	-0.227798
C111	C	0.893700	-0.410288	-0.654178
C112	C	1.393700	0.089712	-0.154178
C113	C	0.920735	-0.383247	-0.983199
C114	C	1.420735	0.116753	-0.483199
C115	C	0.917789	-0.386187	-1.056824
C116	C	1.417789	0.113813	-0.556824
C117	C	1.008036	-0.296029	-1.053250
C118	C	1.508036	0.203971	-0.553250
C119	C	1.010985	-0.293095	-0.979629
C120	C	1.510985	0.206905	-0.479629
C121	C	0.967332	-0.336701	-0.944607
C122	C	1.467332	0.163299	-0.444607
N123	N	0.931382	-0.372626	-0.838079
N124	N	1.431382	0.127374	-0.338079
N125	N	0.970347	-0.333692	-0.869355
N126	N	1.470347	0.166308	-0.369355
C127	C	0.958162	-0.345907	-0.170208
C128	C	1.458162	0.154093	0.329792
C129	C	0.961435	-0.342580	-0.091847
C130	C	1.461435	0.157420	0.408153
H131	H	0.330807	-0.438472	-0.438325
H132	H	0.830807	0.061528	0.061675
H133	H	1.016503	-0.751895	-0.287793
H134	H	1.516503	-0.251895	0.212207
O135	O	1.056191	-0.941160	-0.248237
O136	O	1.556191	-0.441160	0.251763
C137	C	1.049431	-0.868674	-0.254967
C138	C	1.549431	-0.368674	0.245033
H139	H	0.996657	-0.859574	-0.277598
H140	H	1.496657	-0.359574	0.222402
H141	H	1.088882	-0.849230	-0.291703
H142	H	1.588882	-0.349230	0.208297
C143	C	1.124860	-0.839230	-0.154329
C144	C	1.624860	-0.339230	0.345671
C145	C	1.060040	-0.828053	-0.182119
C146	C	1.560040	-0.328053	0.317881
H147	H	1.131407	-0.814172	-0.109394
H148	H	1.631407	-0.314172	0.390606
H149	H	1.129417	-0.888065	-0.149796
H150	H	1.629417	-0.388065	0.350204
H151	H	1.157729	-0.823027	-0.184948
H152	H	1.657729	-0.323027	0.315052
H153	H	1.027173	-0.844264	-0.151504
H154	H	1.527173	-0.344264	0.348496
H155	H	1.055478	-0.779220	-0.186645
H156	H	1.555478	-0.279220	0.313355
H157	H	1.048930	-0.255192	-0.948208
H158	H	1.548930	0.244808	-0.448208
O159	O	1.050364	-0.253695	-1.087381
O160	O	1.550364	0.246305	-0.587381
C161	C	1.037783	-0.266281	-1.160637
C162	C	1.537783	0.233719	-0.660637
H163	H	0.984207	-0.289768	-1.171599
H164	H	1.484207	0.210232	-0.671599
H165	H	1.075566	-0.304658	-1.183038
H166	H	1.575566	0.195342	-0.683038
C167	C	1.111174	-0.167617	-1.182126
C168	C	1.611174	0.332383	-0.682126
C169	C	1.045370	-0.196457	-1.195590
C170	C	1.545370	0.303543	-0.695590
H171	H	1.115857	-0.124547	-1.203688
H172	H	1.615857	0.375453	-0.703688
H173	H	1.119653	-0.159138	-1.132772
H174	H	1.619653	0.340862	-0.632772
H175	H	1.142653	-0.199604	-1.200794
H176	H	1.642653	0.300396	-0.700794
H177	H	1.013893	-0.164474	-1.176914
H178	H	1.513893	0.335526	-0.676914
H179	H	1.036886	-0.204929	-1.244941
H180	H	1.536886	0.295071	-0.744941
H181	H	0.879884	-1.087499	-0.424352
H182	H	1.379884	-0.587499	0.075648
O183	O	0.851172	-0.619526	-0.452705
O184	O	1.351172	-0.119526	0.047295
C185	C	0.809432	-0.669407	-0.494417
C186	C	1.309432	-0.169407	0.005583
H187	H	0.806167	-0.720748	-0.467655
H188	H	1.306167	-0.220748	0.032345
H189	H	0.831730	-0.679336	-0.548292
H190	H	1.331730	-0.179336	-0.048292
C191	C	0.742141	-0.578069	-0.536224
C192	C	1.242141	-0.078069	-0.036224
C193	C	0.738126	-0.641126	-0.503352
C194	C	1.238126	-0.141126	-0.003352
H195	H	0.698157	-0.560624	-0.541739
H196	H	1.198157	-0.060624	-0.041739
H197	H	0.770263	-0.544463	-0.508124
H198	H	1.270263	-0.044463	-0.008124
H199	H	0.760725	-0.586352	-0.581117
H200	H	1.260725	-0.086352	-0.081117
H201	H	0.719550	-0.632840	-0.458457
H202	H	1.219550	-0.132840	0.041543
H203	H	0.709999	-0.674730	-0.531445
H204	H	1.209999	-0.174730	-0.031445
H205	H	1.043605	-1.080914	-0.260915
H206	H	1.543605	-0.580914	0.239085
O207	O	0.845544	-0.458427	-0.765397
O208	O	1.345544	0.041573	-0.265397
C209	C	0.852287	-0.451662	-0.837886
C210	C	1.352287	0.048338	-0.337886
H211	H	0.905059	-0.428983	-0.847036
H212	H	1.405059	0.071017	-0.347036
H213	H	0.812833	-0.414950	-0.857270
H214	H	1.312833	0.085050	-0.357270
C215	C	0.776849	-0.552353	-0.867286
C216	C	1.276849	-0.052353	-0.367286
C217	C	0.841666	-0.524504	-0.878525
C218	C	1.341666	-0.024504	-0.378525
H219	H	0.770294	-0.597284	-0.892355
H220	H	1.270294	-0.097284	-0.392355
H221	H	0.772303	-0.556909	-0.818449
H222	H	1.272303	-0.056909	-0.318449
H223	H	0.743977	-0.521753	-0.883439
H224	H	1.243977	-0.021753	-0.383439
H225	H	0.874536	-0.555099	-0.862364
H226	H	1.374536	-0.055099	-0.362364
H227	H	0.846217	-0.519954	-0.927361
H228	H	1.346217	-0.019954	-0.427361
H229	H	1.021896	-0.282233	-0.619187
H230	H	1.521896	0.217767	-0.119187
O231	O	0.705859	-0.260635	-0.261131
O232	O	1.205859	0.239365	0.238869
C233	C	0.747009	-0.216776	-0.299511
C234	C	1.247009	0.283224	0.200489
H235	H	0.723675	-0.214718	-0.354870
H236	H	1.223675	0.285282	0.145130
H237	H	0.799602	-0.238669	-0.302773
H238	H	1.299602	0.261331	0.197227
C239	C	0.781095	-0.144599	-0.194258
C240	C	1.281095	0.355401	0.305742
C241	C	0.752432	-0.142067	-0.262249
C242	C	1.252432	0.357933	0.237751
H243	H	0.784443	-0.098516	-0.171272
H244	H	1.284443	0.401484	0.328728
H245	H	0.753373	-0.174150	-0.168400
H246	H	1.253373	0.325850	0.331600
H247	H	0.824919	-0.162847	-0.196986
H248	H	1.324919	0.337153	0.303014
H249	H	0.708606	-0.123828	-0.259520
H250	H	1.208606	0.376172	0.240480
H251	H	0.780147	-0.112512	-0.288106
H252	H	1.280147	0.387488	0.211894
O253	O	1.023466	-0.280689	-0.758141
O254	O	1.523466	0.219311	-0.258141
C255	C	1.065218	-0.238966	-0.708287
C256	C	1.565218	0.261034	-0.208287
H257	H	1.068487	-0.265746	-0.656961
H258	H	1.568487	0.234254	-0.156961
H259	H	1.042931	-0.185108	-0.698313
H260	H	1.542931	0.314892	-0.198313
C261	C	1.132503	-0.197074	-0.799675
C262	C	1.632503	0.302926	-0.299675
C263	C	1.136522	-0.229970	-0.736637
C264	C	1.636522	0.270030	-0.236637
H265	H	1.176485	-0.191522	-0.817163
H266	H	1.676485	0.308478	-0.317163
H267	H	1.104372	-0.225182	-0.833263
H268	H	1.604372	0.274818	-0.333263
H269	H	1.113927	-0.152197	-0.791355
H270	H	1.613927	0.347803	-0.291355
H271	H	1.155089	-0.274850	-0.744960
H272	H	1.655089	0.225150	-0.244960
H273	H	1.164657	-0.201870	-0.703051
H274	H	1.664657	0.298130	-0.203051
H275	H	0.858152	-0.445791	-0.625663
H276	H	1.358152	0.054209	-0.125663
O277	O	0.566586	-0.260645	-0.261034
O278	O	1.066586	0.239355	0.238966
C279	C	0.616135	-0.219214	-0.219701
C280	C	1.116135	0.280786	0.280299
H281	H	0.665474	-0.217970	-0.248478
H282	H	1.165474	0.282030	0.251522
H283	H	0.624736	-0.242805	-0.167147
H284	H	1.124736	0.257195	0.332853
C285	C	0.531394	-0.145297	-0.171324
C286	C	1.031394	0.354703	0.328676
C287	C	0.591992	-0.143765	-0.206671
C288	C	1.091992	0.356235	0.293329
H289	H	0.516501	-0.098758	-0.163284
H290	H	1.016501	0.401242	0.336716
H291	H	0.498011	-0.173211	-0.199169
H292	H	0.998011	0.326789	0.300831
H293	H	0.538570	-0.164960	-0.127533
H294	H	1.038570	0.335040	0.372467
H295	H	0.584813	-0.124111	-0.250465
H296	H	1.084813	0.375889	0.249535
H297	H	0.625373	-0.115846	-0.178833
H298	H	1.125373	0.384154	0.321167
O299	O	0.872461	-0.431423	-1.094210
O300	O	1.372461	0.068577	-0.594210
C301	C	0.834575	-0.469293	-1.047514
C302	C	1.334575	0.030707	-0.547514
H303	H	0.835506	-0.438322	-0.993883
H304	H	1.335506	0.061678	-0.493883
H305	H	0.857492	-0.522524	-1.041824
H306	H	1.357492	-0.022524	-0.541824
C307	C	0.759833	-0.518629	-1.142509
C308	C	1.259833	-0.018629	-0.642509
C309	C	0.760971	-0.480588	-1.076640
C310	C	1.260971	0.019412	-0.576640
H311	H	0.714432	-0.525600	-1.160476
H312	H	1.214432	-0.025600	-0.660476
H313	H	0.785359	-0.493118	-1.173970
H314	H	1.285359	0.006882	-0.673970
H315	H	0.778934	-0.562984	-1.137758
H316	H	1.278934	-0.062984	-0.637758
H317	H	0.741879	-0.436231	-1.081393
H318	H	1.241879	0.063769	-0.581393
H319	H	0.735441	-0.506092	-1.045180
H320	H	1.235441	-0.006092	-0.545180
H321	H	0.215695	-0.268117	-0.268477
H322	H	0.715695	0.231883	0.231523
H323	H	0.885199	-0.418765	-0.954693
H324	H	1.385199	0.081235	-0.454693
H325	H	0.558336	-0.438449	-0.438288
H326	H	1.058336	0.061551	0.061712
O327	O	0.196547	-0.445917	-0.445736
O328	O	0.696547	0.054083	0.054264
C329	C	0.239711	-0.487340	-0.487058
C330	C	0.739711	0.012660	0.012942
H331	H	0.291146	-0.488582	-0.458265
H332	H	0.791146	0.011418	0.041735
H333	H	0.246152	-0.463742	-0.539607
H334	H	0.746152	0.036258	-0.039607
C335	C	0.145506	-0.561260	-0.535472
C336	C	0.645506	-0.061260	-0.035472
C337	C	0.208678	-0.562790	-0.500105
C338	C	0.708678	-0.062790	-0.000105
H339	H	0.126363	-0.607801	-0.543524
H340	H	0.626363	-0.107801	-0.043524
H341	H	0.116425	-0.533352	-0.507635
H342	H	0.616425	-0.033352	-0.007635
H343	H	0.150882	-0.541592	-0.579259
H344	H	0.650882	-0.041592	-0.079259
H345	H	0.203300	-0.582450	-0.456316
H346	H	0.703300	-0.082450	0.043684
H347	H	0.237758	-0.590704	-0.527936
H348	H	0.737758	-0.090704	-0.027936
H349	H	0.686582	-0.438440	-0.438265
H350	H	1.186582	0.061560	0.061735
H351	H	0.885203	-0.953935	-0.418959
H352	H	1.385203	-0.453935	0.081041
O353	O	0.350031	-0.260807	-0.260998
O354	O	0.850031	0.239193	0.239002
C355	C	0.334913	-0.273292	-0.191330
C356	C	0.834913	0.226708	0.308670
H357	H	0.313339	-0.329459	-0.189936
H358	H	0.813339	0.170541	0.310064
H359	H	0.296146	-0.234738	-0.171456
H360	H	0.796146	0.265262	0.328544
C361	C	0.426406	-0.194154	-0.145668
C362	C	0.926406	0.305846	0.354332
C363	C	0.399914	-0.263142	-0.143956
C364	C	0.899914	0.236858	0.356044
H365	H	0.466501	-0.187890	-0.116444
H366	H	0.966501	0.312110	0.383556
H367	H	0.436590	-0.185740	-0.192604
H368	H	0.936590	0.314260	0.307396
H369	H	0.394095	-0.162033	-0.129108
H370	H	0.894095	0.337967	0.370892
H371	H	0.432222	-0.295260	-0.160524
H372	H	0.932222	0.204740	0.339476
H373	H	0.389737	-0.271561	-0.097021
H374	H	0.889737	0.228439	0.402979
O375	O	0.845471	-0.764663	-0.458467
O376	O	1.345471	-0.264663	0.041533
C377	C	0.852249	-0.837150	-0.451761
C378	C	1.352249	-0.337150	0.048239
H379	H	0.876233	-0.845039	-0.397788
H380	H	1.376233	-0.345039	0.102212
H381	H	0.885754	-0.859668	-0.494453
H382	H	1.385754	-0.359668	0.005547
C383	C	0.752536	-0.865567	-0.525963
C384	C	1.252536	-0.365567	-0.025963
C385	C	0.781989	-0.875257	-0.459670
C386	C	1.281989	-0.375257	0.040330
H387	H	0.709198	-0.889075	-0.530845
H388	H	1.209198	-0.389075	-0.030845
H389	H	0.747971	-0.816732	-0.530484
H390	H	1.247971	-0.316732	-0.030484
H391	H	0.780464	-0.884332	-0.561532
H392	H	1.280464	-0.384332	-0.061532
H393	H	0.754065	-0.856485	-0.424102
H394	H	1.254065	-0.356485	0.075898
H395	H	0.786548	-0.924090	-0.455143
H396	H	1.286548	-0.424090	0.044857
O397	O	1.029205	-0.612368	-0.275075
O398	O	1.529205	-0.112368	0.224925
C399	C	1.067095	-0.659047	-0.237260
C400	C	1.567095	-0.159047	0.262740
H401	H	1.066169	-0.712665	-0.268254
H402	H	1.566169	-0.212665	0.231746
H403	H	1.044178	-0.664784	-0.184013
H404	H	1.544178	-0.164784	0.315987
C405	C	1.141828	-0.564000	-0.187945
C406	C	1.641828	-0.064000	0.312055
C407	C	1.140696	-0.629854	-0.226015
C408	C	1.640696	-0.129854	0.273985
H409	H	1.187227	-0.545991	-0.181005
H410	H	1.687227	-0.045991	0.318995
H411	H	1.116299	-0.532551	-0.213419
H412	H	1.616299	-0.032551	0.286581
H413	H	1.122727	-0.568790	-0.143577
H414	H	1.622727	-0.068790	0.356423
H415	H	1.159788	-0.625061	-0.270385
H416	H	1.659788	-0.125061	0.229615
H417	H	1.166229	-0.661301	-0.200548
H418	H	1.666229	-0.161301	0.299452
