data_functionalizedCrystal
_audit_creation_method	'MofGen! by Chris Wilmer'
_symmetry_space_group_name_H-M	'P1'
_symmetry_Int_Tables_number	1
_symmetry_cell_setting	triclinic
loop_
_symmetry_equiv_pos_as_xyz
  x,y,z
_cell_length_a	12.759401
_cell_length_b	18.215405
_cell_length_c	12.759393
_cell_angle_alpha	90.034559
_cell_angle_beta	90.019684
_cell_angle_gamma	90.021846
loop_
_atom_site_label
_atom_site_type_symbol
_atom_site_fract_x
_atom_site_fract_y
_atom_site_fract_z
Zn1	Zn	1.606197	-0.292958	0.593993
Zn2	Zn	2.106197	0.207042	1.093993
Zn3	Zn	1.606066	-0.416045	0.418304
Zn4	Zn	2.106066	0.083955	0.918304
Zn5	Zn	1.430499	-0.292995	0.418329
Zn6	Zn	1.930499	0.207005	0.918329
Zn7	Zn	1.430463	-0.415986	0.593942
Zn8	Zn	1.930463	0.084014	1.093942
O9	O	1.518306	-0.354496	0.506142
O10	O	2.018306	0.145504	1.006142
O11	O	1.753200	-0.309295	0.570698
O12	O	2.253200	0.190705	1.070698
O13	O	1.582738	-0.399762	0.271286
O14	O	2.082738	0.100238	0.771286
O15	O	1.453875	-0.190005	0.441663
O16	O	1.953875	0.309995	0.941663
O17	O	1.753105	-0.399726	0.441620
O18	O	2.253105	0.100274	0.941620
O19	O	1.582960	-0.189979	0.570722
O20	O	2.082960	0.310021	1.070722
O21	O	1.453749	-0.309357	0.271304
O22	O	1.953749	0.190643	0.771304
O23	O	1.283473	-0.309300	0.441613
O24	O	1.783473	0.190700	0.941613
O25	O	1.453814	-0.399626	0.740969
O26	O	1.953814	0.100374	1.240969
O27	O	1.283447	-0.399661	0.570635
O28	O	1.783447	0.100339	1.070635
O29	O	1.582925	-0.309238	0.741007
O30	O	2.082925	0.190762	1.241007
O31	O	1.582703	-0.519021	0.441571
O32	O	2.082703	-0.019021	0.941571
O33	O	1.453687	-0.518978	0.570611
O34	O	1.953687	-0.018978	1.070611
C35	C	1.245339	-0.354479	0.506122
C36	C	1.745339	0.145521	1.006122
C37	C	1.128562	-0.354489	0.506138
C38	C	1.628562	0.145511	1.006138
C39	C	1.518205	-0.545702	0.506105
C40	C	2.018205	-0.045702	1.006105
C41	C	1.518259	-0.627501	0.506125
C42	C	2.018259	-0.127501	1.006125
C43	C	1.073683	-0.307376	0.439080
C44	C	1.573683	0.192624	0.939080
C45	C	0.963959	-0.307394	0.439093
C46	C	1.463959	0.192606	0.939093
C47	C	0.964003	-0.401639	0.573232
C48	C	1.464003	0.098361	1.073232
C49	C	1.073725	-0.401625	0.573213
C50	C	1.573725	0.098375	1.073213
C51	C	1.073657	-0.252962	0.361639
C52	C	1.573657	0.247038	0.861639
C53	C	0.963933	-0.252980	0.361652
C54	C	1.463933	0.247020	0.861652
C55	C	1.585505	-0.815620	0.573417
C56	C	2.085505	-0.315620	1.073417
C57	C	1.585543	-0.892479	0.573437
C58	C	2.085543	-0.392479	1.073437
C59	C	1.451237	-0.892620	0.438931
C60	C	1.951237	-0.392620	0.938931
C61	C	1.451195	-0.815762	0.438917
C62	C	1.951195	-0.315762	0.938917
C63	C	1.518334	-0.777264	0.506159
C64	C	2.018334	-0.277264	1.006159
C65	C	1.518415	-0.930980	0.506192
C66	C	2.018415	-0.430980	1.006192
C67	C	1.518456	-1.014314	0.506213
C68	C	2.018456	-0.514314	1.006213
C69	C	1.518293	-0.693925	0.506140
C70	C	2.018293	-0.193925	1.006140
C71	C	1.792339	-0.354513	0.506162
C72	C	2.292339	0.145487	1.006162
C73	C	1.909116	-0.354521	0.506171
C74	C	2.409116	0.145479	1.006171
C75	C	1.518380	-0.354422	0.780175
C76	C	2.018380	0.145578	1.280175
C77	C	1.518411	-0.354390	0.896952
C78	C	2.018411	0.145610	1.396952
C79	C	1.518436	-0.162543	0.506201
C80	C	2.018436	0.337457	1.006201
C81	C	1.518491	-0.080744	0.506226
C82	C	2.018491	0.419256	1.006226
C83	C	1.518293	-0.354517	0.233174
C84	C	2.018293	0.145483	0.733174
C85	C	1.518466	-0.354341	0.116398
C86	C	2.018466	0.145659	0.616398
C87	C	1.585648	-0.307321	0.951835
C88	C	2.085648	0.192679	1.451835
C89	C	1.585673	-0.307294	1.061559
C90	C	2.085673	0.192706	1.561559
C91	C	1.451221	-0.401412	1.061507
C92	C	1.951221	0.098588	1.561507
C93	C	1.451191	-0.401435	0.951785
C94	C	1.951191	0.098565	1.451785
C95	C	1.663277	-0.252984	0.951866
C96	C	2.163277	0.247016	1.451866
C97	C	1.663302	-0.252958	1.061590
C98	C	2.163302	0.247042	1.561590
H99	H	1.118403	-0.439996	0.627808
H100	H	1.618403	0.060004	1.127808
H101	H	1.634199	-0.198804	1.095642
H102	H	2.134199	0.301196	1.595642
H103	H	0.919341	-0.440015	0.627842
H104	H	1.419341	0.059985	1.127842
H105	H	1.396576	-0.923974	0.384183
H106	H	1.896576	-0.423974	0.884183
C107	C	0.917893	-0.280466	0.257160
C108	C	1.417893	0.219534	0.757160
N109	N	0.883215	-0.301168	0.178457
N110	N	1.383215	0.198832	0.678457
H111	H	1.640173	-0.784277	0.628171
H112	H	2.140173	-0.284277	1.128171
H113	H	1.103386	-0.268154	0.280224
H114	H	1.603386	0.231846	0.780224
H115	H	0.934181	-0.196003	0.383593
H116	H	1.434181	0.303997	0.883593
H117	H	1.396436	-0.439761	0.907103
H118	H	1.896436	0.060239	1.407103
H119	H	1.107720	-0.198841	0.390921
H120	H	1.607720	0.301159	0.890921
H121	H	1.640238	-0.923704	0.628208
H122	H	2.140238	-0.423704	1.128208
C123	C	1.377281	-0.453158	1.121834
C124	C	1.877281	0.046842	1.621834
N125	N	1.321589	-0.492134	1.167271
N126	N	1.821589	0.007866	1.667271
H127	H	1.396492	-0.784531	0.384147
H128	H	1.896492	-0.284531	0.884147
H129	H	1.740545	-0.273417	0.917830
H130	H	2.240545	0.226583	1.417830
H131	H	1.641520	-0.195990	0.922114
H132	H	2.141520	0.304010	1.422114
H133	H	1.744670	-0.268224	1.091369
H134	H	2.244670	0.231776	1.591369
