data_functionalizedCrystal
_audit_creation_method	'MofGen! by Chris Wilmer'
_symmetry_space_group_name_H-M	'P1'
_symmetry_Int_Tables_number	1
_symmetry_cell_setting	triclinic
loop_
_symmetry_equiv_pos_as_xyz
  x,y,z
_cell_length_a	14.519709
_cell_length_b	22.010155
_cell_length_c	14.519731
_cell_angle_alpha	89.990057
_cell_angle_beta	83.684499
_cell_angle_gamma	89.996249
loop_
_atom_site_label
_atom_site_type_symbol
_atom_site_fract_x
_atom_site_fract_y
_atom_site_fract_z
O1	O	1.223876	0.050447	0.120869
O2	O	1.473876	0.300447	0.370869
O3	O	1.723876	0.550447	0.620869
O4	O	1.973876	0.800447	0.870869
O5	O	0.955400	0.050466	0.135106
O6	O	1.205400	0.300466	0.385106
O7	O	1.455400	0.550466	0.635106
O8	O	1.705400	0.800466	0.885106
O9	O	1.096746	0.050451	-0.006250
O10	O	1.346746	0.300451	0.243750
O11	O	1.596746	0.550451	0.493750
O12	O	1.846746	0.800451	0.743750
O13	O	1.082530	0.050463	0.262225
O14	O	1.332530	0.300463	0.512225
O15	O	1.582530	0.550463	0.762225
O16	O	1.832530	0.800463	1.012225
O17	O	1.096736	-0.050600	-0.006212
O18	O	1.346736	0.199400	0.243788
O19	O	1.596736	0.449400	0.493788
O20	O	1.846736	0.699400	0.743788
O21	O	0.955390	-0.050584	0.135143
O22	O	1.205390	0.199416	0.385143
O23	O	1.455390	0.449416	0.635143
O24	O	1.705390	0.699416	0.885143
O25	O	1.223866	-0.050603	0.120906
O26	O	1.473866	0.199397	0.370906
O27	O	1.723866	0.449397	0.620906
O28	O	1.973866	0.699397	0.870906
Cu29	Cu	1.089627	-0.059820	0.128028
Cu30	Cu	1.339627	0.190180	0.378028
Cu31	Cu	1.589627	0.440180	0.628028
Cu32	Cu	1.839627	0.690180	0.878028
Cu33	Cu	1.089638	0.059683	0.127984
Cu34	Cu	1.339638	0.309683	0.377984
Cu35	Cu	1.589638	0.559683	0.627984
Cu36	Cu	1.839638	0.809683	0.877984
O37	O	1.082520	-0.050588	0.262262
O38	O	1.332520	0.199412	0.512262
O39	O	1.582520	0.449412	0.762262
O40	O	1.832520	0.699412	1.012262
C41	C	0.921035	-0.000057	0.134461
C42	C	1.171035	0.249943	0.384461
C43	C	1.421035	0.499943	0.634461
C44	C	1.671035	0.749943	0.884461
C45	C	0.818654	-0.000050	0.132473
C46	C	1.068654	0.249950	0.382473
C47	C	1.318654	0.499950	0.632473
C48	C	1.568654	0.749950	0.882473
N49	N	1.089626	-0.143873	0.128058
N50	N	1.339626	0.106127	0.378058
N51	N	1.589626	0.356127	0.628058
N52	N	1.839626	0.606127	0.878058
C53	C	0.443757	-0.000078	0.125153
C54	C	0.693757	0.249922	0.375153
C55	C	0.943757	0.499922	0.625153
C56	C	1.193757	0.749922	0.875153
C57	C	0.548065	-0.000070	0.127186
C58	C	0.798065	0.249930	0.377186
C59	C	1.048065	0.499930	0.627186
C60	C	1.298065	0.749930	0.877186
C61	C	0.631202	-0.000063	0.128813
C62	C	0.881202	0.249937	0.378813
C63	C	1.131202	0.499937	0.628813
C64	C	1.381202	0.749937	0.878813
C65	C	0.735517	-0.000056	0.130846
C66	C	0.985517	0.249944	0.380846
C67	C	1.235517	0.499944	0.630846
C68	C	1.485517	0.749944	0.880846
C69	C	1.027016	-0.436478	0.190577
C70	C	1.277016	-0.186478	0.440577
C71	C	1.527016	0.063522	0.690577
C72	C	1.777016	0.313522	0.940577
C73	C	1.027014	-0.372870	0.190585
C74	C	1.277014	-0.122870	0.440585
C75	C	1.527014	0.127130	0.690585
C76	C	1.777014	0.377130	0.940585
O77	O	0.973753	-0.339973	0.243779
O78	O	1.223753	-0.089973	0.493779
O79	O	1.473753	0.160027	0.743779
O80	O	1.723753	0.410027	0.993779
N81	N	1.089618	-0.341057	0.128023
N82	N	1.339618	-0.091057	0.378023
N83	N	1.589618	0.158943	0.628023
N84	N	1.839618	0.408943	0.878023
C85	C	1.152223	-0.372854	0.065443
C86	C	1.402223	-0.122854	0.315443
C87	C	1.652223	0.127146	0.565443
C88	C	1.902223	0.377146	0.815443
O89	O	1.205472	-0.339954	0.012229
O90	O	1.455472	-0.089954	0.262229
O91	O	1.705472	0.160046	0.512229
O92	O	1.955472	0.410046	0.762229
C93	C	1.152220	-0.436461	0.065431
C94	C	1.402220	-0.186461	0.315431
C95	C	1.652220	0.063539	0.565431
C96	C	1.902220	0.313539	0.815431
C97	C	1.089618	-0.468271	0.128003
C98	C	1.339618	-0.218271	0.378003
C99	C	1.589618	0.031729	0.628003
C100	C	1.839618	0.281729	0.878003
C101	C	0.964418	-0.468288	0.253144
C102	C	1.214418	-0.218288	0.503144
C103	C	1.464418	0.031712	0.753144
C104	C	1.714418	0.281712	1.003144
C105	C	0.964421	-0.531891	0.253136
C106	C	1.214421	-0.281891	0.503136
C107	C	1.464421	-0.031891	0.753136
C108	C	1.714421	0.218109	1.003136
C109	C	1.027023	-0.563684	0.190562
C110	C	1.277023	-0.313684	0.440562
C111	C	1.527023	-0.063684	0.690562
C112	C	1.777023	0.186316	0.940562
C113	C	1.089621	-0.531874	0.127996
C114	C	1.339621	-0.281874	0.377996
C115	C	1.589621	-0.031874	0.627996
C116	C	1.839621	0.218126	0.877996
C117	C	1.214820	-0.468257	0.002846
C118	C	1.464820	-0.218257	0.252846
C119	C	1.714820	0.031743	0.502846
C120	C	1.964820	0.281743	0.752846
C121	C	1.214811	-0.531868	0.002839
C122	C	1.464811	-0.281868	0.252839
C123	C	1.714811	-0.031868	0.502839
C124	C	1.964811	0.218132	0.752839
C125	C	1.152209	-0.563678	0.065412
C126	C	1.402209	-0.313678	0.315412
C127	C	1.652209	-0.063678	0.565412
C128	C	1.902209	0.186322	0.815412
C129	C	1.152227	-0.627271	0.065414
C130	C	1.402227	-0.377271	0.315414
C131	C	1.652227	-0.127271	0.565414
C132	C	1.902227	0.122729	0.815414
N133	N	1.089622	-0.659084	0.127976
N134	N	1.339622	-0.409084	0.377976
N135	N	1.589622	-0.159084	0.627976
N136	N	1.839622	0.090916	0.877976
C137	C	1.027020	-0.627291	0.190550
C138	C	1.277020	-0.377291	0.440550
C139	C	1.527020	-0.127291	0.690550
C140	C	1.777020	0.122709	0.940550
C141	C	1.152223	-0.239277	0.065472
C142	C	1.402223	0.010723	0.315472
C143	C	1.652223	0.260723	0.565472
C144	C	1.902223	0.510723	0.815472
C145	C	1.152231	-0.175671	0.065487
C146	C	1.402231	0.074329	0.315487
C147	C	1.652231	0.324329	0.565487
C148	C	1.902231	0.574329	0.815487
C149	C	1.027020	-0.175692	0.190629
C150	C	1.277020	0.074308	0.440629
C151	C	1.527020	0.324308	0.690629
C152	C	1.777020	0.574308	0.940629
C153	C	1.027017	-0.239298	0.190617
C154	C	1.277017	0.010702	0.440617
C155	C	1.527017	0.260702	0.690617
C156	C	1.777017	0.510702	0.940617
C157	C	1.089618	-0.271090	0.128034
C158	C	1.339618	-0.021090	0.378034
C159	C	1.589618	0.228910	0.628034
C160	C	1.839618	0.478910	0.878034
C161	C	1.027033	-0.760862	0.190531
C162	C	1.277033	-0.510862	0.440531
C163	C	1.527033	-0.260862	0.690531
C164	C	1.777033	-0.010862	0.940531
C165	C	1.027045	-0.824471	0.190520
C166	C	1.277045	-0.574471	0.440520
C167	C	1.527045	-0.324471	0.690520
C168	C	1.777045	-0.074471	0.940520
C169	C	1.152253	-0.824445	0.065376
C170	C	1.402253	-0.574445	0.315376
C171	C	1.652253	-0.324445	0.565376
C172	C	1.902253	-0.074445	0.815376
C173	C	1.152244	-0.760842	0.065389
C174	C	1.402244	-0.510842	0.315389
C175	C	1.652244	-0.260842	0.565389
C176	C	1.902244	-0.010842	0.815389
C177	C	1.089627	-0.729052	0.127970
C178	C	1.339627	-0.479052	0.377970
C179	C	1.589627	-0.229052	0.627970
C180	C	1.839627	0.020948	0.877970
O181	O	1.205457	-0.660208	0.012246
O182	O	1.455457	-0.410208	0.262246
O183	O	1.705457	-0.160208	0.512246
O184	O	1.955457	0.089792	0.762246
O185	O	0.973772	-0.660199	0.243747
O186	O	1.223772	-0.410199	0.493747
O187	O	1.473772	-0.160199	0.743747
O188	O	1.723772	0.089801	0.993747
C189	C	1.258230	-0.000079	0.121551
C190	C	1.508230	0.249921	0.371551
C191	C	1.758230	0.499921	0.621551
C192	C	2.008230	0.749921	0.871551
C193	C	1.360612	-0.000082	0.123540
C194	C	1.610612	0.249918	0.373540
C195	C	1.860612	0.499918	0.623540
C196	C	2.110612	0.749918	0.873540
C197	C	1.096075	-0.000075	-0.040591
C198	C	1.346075	0.249925	0.209409
C199	C	1.596075	0.499925	0.459409
C200	C	1.846075	0.749925	0.709409
C201	C	1.094079	-0.000075	-0.142971
C202	C	1.344079	0.249925	0.107029
C203	C	1.594079	0.499925	0.357029
C204	C	1.844079	0.749925	0.607029
N205	N	1.089647	0.143736	0.127946
N206	N	1.339647	0.393736	0.377946
N207	N	1.589647	0.643736	0.627946
N208	N	1.839647	0.893736	0.877946
C209	C	1.092457	-0.000073	-0.226115
C210	C	1.342457	0.249927	0.023885
C211	C	1.592457	0.499927	0.273885
C212	C	1.842457	0.749927	0.523885
C213	C	1.090430	-0.000068	-0.330424
C214	C	1.340430	0.249932	-0.080424
C215	C	1.590430	0.499932	0.169576
C216	C	1.840430	0.749932	0.419576
C217	C	1.088822	-0.000064	-0.413563
C218	C	1.338822	0.249936	-0.163563
C219	C	1.588822	0.499936	0.086437
C220	C	1.838822	0.749936	0.336437
C221	C	1.086795	-0.000061	-0.517878
C222	C	1.336795	0.249939	-0.267878
C223	C	1.586795	0.499939	-0.017878
C224	C	1.836795	0.749939	0.232122
C225	C	1.083191	-0.000061	0.296603
C226	C	1.333191	0.249939	0.546603
C227	C	1.583191	0.499939	0.796603
C228	C	1.833191	0.749939	1.046603
C229	C	1.085187	-0.000057	0.398983
C230	C	1.335187	0.249943	0.648983
C231	C	1.585187	0.499943	0.898983
C232	C	1.835187	0.749943	1.148983
H233	H	0.976067	-0.850369	0.241477
H234	H	1.226067	-0.600369	0.491477
H235	H	1.476067	-0.350369	0.741477
H236	H	1.726067	-0.100369	0.991477
H237	H	1.203230	-0.734942	0.014446
H238	H	1.453230	-0.484942	0.264446
H239	H	1.703230	-0.234942	0.514446
H240	H	1.953230	0.015058	0.764446
H241	H	0.976045	-0.149794	0.241579
H242	H	1.226045	0.100206	0.491579
H243	H	1.476045	0.350206	0.741579
H244	H	1.726045	0.600206	0.991579
F245	F	1.218877	-0.858291	-0.001216
F246	F	1.468877	-0.608291	0.248784
F247	F	1.718877	-0.358291	0.498784
F248	F	1.968877	-0.108291	0.748784
F249	F	1.218862	-0.273107	-0.001137
F250	F	1.468862	-0.023107	0.248863
F251	F	1.718862	0.226893	0.498863
F252	F	1.968862	0.476893	0.748863
F253	F	0.960389	-0.727038	0.257137
F254	F	1.210389	-0.477038	0.507137
F255	F	1.460389	-0.227038	0.757137
F256	F	1.710389	0.022962	1.007137
F257	F	0.897788	-0.565740	0.319730
F258	F	1.147788	-0.315740	0.569730
F259	F	1.397788	-0.065740	0.819730
F260	F	1.647788	0.184260	1.069730
H261	H	0.913435	-0.442408	0.304099
H262	H	1.163435	-0.192408	0.554099
H263	H	1.413435	0.057592	0.804099
H264	H	1.663435	0.307592	1.054099
H265	H	1.203217	-0.149776	0.014545
H266	H	1.453217	0.100224	0.264545
H267	H	1.703217	0.350224	0.514545
H268	H	1.953217	0.600224	0.764545
F269	F	1.281449	-0.434414	-0.063753
F270	F	1.531449	-0.184414	0.186247
F271	F	1.781449	0.065586	0.436247
F272	F	2.031449	0.315586	0.686247
H273	H	0.976041	-0.265194	0.241568
H274	H	1.226041	-0.015194	0.491568
H275	H	1.476041	0.234806	0.741568
H276	H	1.726041	0.484806	0.991568
H277	H	1.265788	-0.557750	-0.048127
H278	H	1.515788	-0.307750	0.201873
H279	H	1.765788	-0.057750	0.451873
H280	H	2.015788	0.192250	0.701873
