data_functionalizedCrystal
_audit_creation_method	'MofGen! by Chris Wilmer'
_symmetry_space_group_name_H-M	'P1'
_symmetry_Int_Tables_number	1
_symmetry_cell_setting	triclinic
loop_
_symmetry_equiv_pos_as_xyz
  x,y,z
_cell_length_a	14.446369
_cell_length_b	14.446369
_cell_length_c	19.377372
_cell_angle_alpha	48.618270
_cell_angle_beta	89.998266
_cell_angle_gamma	60.000221
loop_
_atom_site_label
_atom_site_type_symbol
_atom_site_fract_x
_atom_site_fract_y
_atom_site_fract_z
Zr1	Zr	0.864648	1.067484	-0.114435
O2	O	0.683795	1.326721	-0.253711
O3	O	0.920085	0.854100	-0.071739
O4	O	0.876911	1.133593	-0.253704
O5	O	0.761031	0.979089	0.071789
O6	O	1.029249	1.133583	-0.253698
O7	O	0.726969	1.047227	-0.071747
O8	O	1.106480	0.633620	0.071802
O9	O	0.683800	1.479052	-0.253712
O10	O	1.057422	0.924877	-0.053527
O11	O	0.969154	0.874035	0.053588
O12	O	0.918321	1.203102	-0.160651
O13	O	0.830053	1.152259	-0.053536
Zr14	Zr	1.161935	0.958794	0.114496
Zr15	Zr	1.107610	1.067466	-0.114427
Zr16	Zr	0.918973	0.958811	0.114488
Zr17	Zr	0.864656	1.310434	-0.114437
Zr18	Zr	1.161927	0.715843	0.114497
O19	O	1.106498	1.172178	0.071800
O20	O	1.029256	1.326696	-0.253699
O21	O	0.761037	1.172202	0.071788
O22	O	1.342788	0.699557	0.253772
O23	O	1.265546	0.854075	-0.071727
O24	O	0.997327	0.699582	0.253760
O25	O	1.265552	1.047189	-0.071728
O26	O	1.149672	0.892684	0.253764
O27	O	0.997334	0.892695	0.253759
O28	O	1.299614	0.979051	0.071807
O29	O	0.876922	1.479038	-0.253705
O30	O	1.149661	0.547240	0.253766
O31	O	1.342783	0.547226	0.253772
O32	O	1.299603	0.633606	0.071809
O33	O	0.726980	1.392672	-0.071749
O34	O	0.920103	1.392658	-0.071742
O35	O	1.108262	0.823176	0.160711
O36	O	1.196530	0.874018	0.053596
O37	O	1.057429	1.152243	-0.053528
O38	O	0.969161	1.101401	0.053587
C39	C	1.013282	0.709245	0.000032
C40	C	1.013278	0.606106	0.000032
C41	C	0.957604	0.534747	0.067599
C42	C	0.958019	0.426941	0.067957
C43	C	1.148476	0.348157	0.048957
C44	C	1.148190	0.455159	0.049470
C45	C	0.934772	0.709149	-0.116502
C46	C	0.932333	0.602893	-0.116328
C47	C	0.709383	1.013161	0.000020
C48	C	0.606239	1.013168	0.000016
C49	C	0.371923	1.188468	-0.067207
C50	C	0.479065	1.188744	-0.067585
C51	C	0.591219	0.965332	-0.049263
C52	C	0.483333	0.966476	-0.049756
C53	C	0.524175	0.884550	0.116604
C54	C	0.630100	0.887340	0.116420
C55	C	1.317200	1.013117	0.000041
C56	C	1.420344	1.013110	0.000044
C57	C	0.945340	1.149071	-0.286318
C58	C	0.922278	1.195206	-0.383501
C59	C	1.013301	1.317033	0.000029
C60	C	1.013305	1.420172	0.000028
C61	C	1.209438	0.620800	-0.423545
C62	C	1.187743	0.664189	-0.514878
C63	C	1.042533	0.954634	-0.626698
C64	C	1.064220	0.911270	-0.535373
C65	C	1.147673	0.744350	-0.433801
C66	C	1.002454	1.034820	-0.545628
C67	C	1.024135	0.991459	-0.454310
C68	C	1.107581	0.824547	-0.352736
C69	C	1.169353	0.700989	-0.342482
C70	C	0.918995	1.201739	-0.647201
C71	C	0.857230	1.325289	-0.657457
C72	C	0.878917	1.281928	-0.566138
C73	C	0.962363	1.115017	-0.464564
C74	C	0.817144	1.405487	-0.576392
C75	C	0.838825	1.362125	-0.485073
C76	C	0.984043	1.071656	-0.373246
C77	C	1.081243	0.877206	0.286378
C78	C	1.104305	0.831072	0.383562
C79	C	1.317190	0.709223	0.000042
C80	C	1.420331	0.606077	0.000046
C81	C	1.081233	0.573312	0.286380
C82	C	1.104292	0.424039	0.383564
C83	C	1.385142	0.573290	0.286390
C84	C	1.511344	0.424010	0.383578
C85	C	0.641441	1.452987	-0.286330
C86	C	0.515239	1.602268	-0.383517
C87	C	0.709393	1.317055	0.000018
C88	C	0.606252	1.420201	0.000014
C89	C	0.945350	1.452966	-0.286319
C90	C	0.922291	1.602239	-0.383503
C91	C	1.187736	0.327386	0.485129
C92	C	1.209400	0.187138	0.576453
C93	C	1.147625	0.143538	0.566209
C94	C	1.064171	0.240205	0.464633
C95	C	1.042502	0.380458	0.373311
C96	C	1.616696	0.380446	0.373305
C97	C	1.735284	0.240198	0.464615
C98	C	1.748517	0.143511	0.566196
C99	C	1.643154	0.187086	0.576467
C100	C	1.524569	0.327338	0.485158
C101	C	0.409887	1.645844	-0.373245
C102	C	0.291299	1.786121	-0.464555
C103	C	0.278066	1.882814	-0.566136
C104	C	0.383429	1.839233	-0.576406
C105	C	0.502014	1.698964	-0.485098
C106	C	0.984085	1.645792	-0.373225
C107	C	0.962443	1.786033	-0.464531
C108	C	0.879000	1.882725	-0.566115
C109	C	0.817205	1.839162	-0.576391
C110	C	0.838854	1.698916	-0.485086
C111	C	1.654645	0.427848	0.067262
C112	C	1.547508	0.534592	0.067644
C113	C	1.435349	0.455829	0.049324
C114	C	1.543230	0.348218	0.049812
C115	C	1.502385	0.602165	-0.116548
C116	C	1.396464	0.710549	-0.116359
H117	H	1.012848	0.458310	0.153053
F118	F	0.311597	1.241648	-0.024224
H119	H	1.277358	0.108445	0.659152
F120	F	1.228374	0.174653	0.159950
H121	H	1.052031	1.567081	-0.290519
H122	H	0.832625	0.659701	-0.152883
H123	H	0.901345	1.237037	-0.721555
F124	F	1.170701	-0.005738	0.663412
H125	H	0.638320	0.921799	0.153234
F126	F	1.602639	0.483332	0.265204
H127	H	1.013880	0.204684	0.456308
F128	F	0.855969	2.031986	-0.663282
H129	H	1.012768	1.821482	-0.456143
H130	H	0.456217	1.285789	-0.153567
H131	H	0.296659	1.285057	-0.152670
F132	F	1.258207	0.523333	-0.234375
H133	H	0.749264	1.917910	-0.659113
F134	F	0.614131	1.652598	-0.496047
F135	F	1.657258	0.084167	0.684586
H136	H	0.412637	1.057813	-0.135528
H137	H	0.858649	0.638941	0.034987
F138	F	1.253499	0.373756	0.496056
F139	F	1.072898	0.894000	-0.265138
F140	F	1.874736	-0.005756	0.663367
F141	F	0.773066	1.652592	-0.496042
F142	F	1.539317	0.671946	0.024383
F143	F	1.714972	0.496928	0.024278
F144	F	1.847403	0.193846	0.453662
H145	H	1.453376	0.376940	0.134283
H146	H	1.729909	0.297610	0.152724
H147	H	1.570368	0.456308	0.153629
H148	H	0.974558	0.459140	0.290615
H149	H	1.304416	0.768465	-0.170680
F150	F	0.828940	0.495045	0.025107
F151	F	0.768409	1.502931	-0.765563
H152	H	1.193132	0.341899	0.002085
F153	F	1.412452	0.373678	0.496108
H154	H	0.420639	1.567124	-0.290541
H155	H	1.193622	0.499270	0.003414
F156	F	1.635641	0.176374	0.161920
H157	H	0.749189	1.541391	-0.659102
F158	F	0.179180	1.832472	-0.453601
F159	F	0.804914	0.856860	-0.169972
H160	H	1.505702	0.340018	0.003992
F161	F	0.773101	1.493621	-0.495988
F162	F	1.318588	0.513833	-0.011610
F163	F	1.130649	0.778397	-0.255546
F164	F	0.976542	0.608995	-0.187633
F165	F	0.369325	1.942155	-0.684525
F166	F	1.554991	0.679433	-0.170352
F167	F	0.151847	2.032096	-0.663306
F168	F	1.385717	0.851674	-0.164482
H169	H	1.462989	0.601275	-0.166890
H170	H	1.013722	0.297185	0.153920
F171	F	0.987097	0.774707	-0.182575
F172	F	1.227926	0.348622	0.161545
H173	H	0.520856	0.839492	-0.003940
F174	F	0.707975	0.798506	0.011676
F175	F	0.487211	1.241278	-0.024381
H176	H	0.573195	1.055136	-0.134221
H177	H	0.483921	0.910901	0.157771
H178	H	0.722146	0.756871	0.170743
H179	H	0.563557	0.754991	0.166948
H180	H	1.277400	0.484877	-0.340836
H181	H	1.238043	0.563567	-0.506515
H182	H	0.974583	1.090539	-0.709408
