data_functionalizedCrystal
_audit_creation_method	'MofGen! by Chris Wilmer'
_symmetry_space_group_name_H-M	'P1'
_symmetry_Int_Tables_number	1
_symmetry_cell_setting	triclinic
loop_
_symmetry_equiv_pos_as_xyz
  x,y,z
_cell_length_a	10.723022
_cell_length_b	10.723024
_cell_length_c	9.130313
_cell_angle_alpha	90.003351
_cell_angle_beta	90.003216
_cell_angle_gamma	84.467548
loop_
_atom_site_label
_atom_site_type_symbol
_atom_site_fract_x
_atom_site_fract_y
_atom_site_fract_z
O1	O	1.657188	0.175018	0.121786
O2	O	2.157188	0.675018	0.621786
O3	O	1.294035	0.191773	0.121790
O4	O	1.794035	0.691773	0.621790
O5	O	1.483988	0.001819	0.121783
O6	O	1.983988	0.501819	0.621783
O7	O	1.467235	0.364972	0.121794
O8	O	1.967235	0.864972	0.621794
O9	O	1.483975	0.001814	-0.121816
O10	O	1.983975	0.501814	0.378184
O11	O	1.294022	0.191767	-0.121808
O12	O	1.794022	0.691767	0.378192
O13	O	1.657175	0.175012	-0.121813
O14	O	2.157175	0.675012	0.378187
Cu15	Cu	1.475597	0.183389	-0.144053
Cu16	Cu	1.975597	0.683389	0.355947
Cu17	Cu	1.475613	0.183396	0.144031
Cu18	Cu	1.975613	0.683396	0.644031
O19	O	1.467222	0.364966	-0.121805
O20	O	1.967222	0.864966	0.378195
C21	C	1.247529	0.190551	-0.000008
C22	C	1.747529	0.690551	0.499992
C23	C	1.108975	0.186904	-0.000007
C24	C	1.608975	0.686904	0.499993
C25	C	0.890796	0.289421	-0.000001
C26	C	1.390796	0.789421	0.499999
C27	C	1.033999	0.293192	-0.000002
C28	C	1.533999	0.793192	0.499998
C29	C	1.482763	-0.044683	-0.000015
C30	C	1.982763	0.455317	0.499985
C31	C	1.479115	-0.183238	-0.000010
C32	C	1.979115	0.316762	0.499990
C33	C	1.585403	-0.258221	-0.000009
C34	C	2.085403	0.241779	0.499991
C35	C	1.581635	-0.401424	-0.000004
C36	C	2.081635	0.098576	0.499996
C37	C	1.703681	0.176234	-0.000011
C38	C	2.203681	0.676234	0.499989
C39	C	1.842235	0.179881	-0.000003
C40	C	2.342235	0.679881	0.499997
C41	C	1.468448	0.411468	-0.000004
C42	C	1.968448	0.911468	0.499996
C43	C	1.472095	0.550023	0.000000
C44	C	1.972095	1.050023	0.500000
N45	N	1.475595	0.183384	-0.346676
N46	N	1.975595	0.683384	0.153324
C47	C	1.559735	0.099308	-0.423331
C48	C	2.059735	0.599308	0.076669
C49	C	1.559747	0.099308	-0.576668
C50	C	2.059747	0.599308	-0.076668
C51	C	1.391476	0.267471	-0.576681
C52	C	1.891476	0.767471	-0.076681
C53	C	1.391459	0.267464	-0.423347
C54	C	1.891459	0.767464	0.076653
N55	N	1.475624	0.183391	0.346653
N56	N	1.975624	0.683391	0.846653
H57	H	1.075811	0.386980	-0.000009
H58	H	1.575811	0.886980	0.499991
F59	F	1.353154	-0.365770	-0.000011
F60	F	1.853154	0.134230	0.499989
F61	F	1.301896	0.356948	-0.341758
F62	F	1.801896	0.856948	0.158242
H63	H	1.067171	0.093113	0.000030
H64	H	1.567171	0.593113	0.500030
H65	H	0.906678	0.088892	0.000003
H66	H	1.406678	0.588892	0.500003
F67	F	1.649278	0.009819	-0.341738
F68	F	2.149278	0.509819	0.158262
H69	H	1.679188	-0.216399	-0.000019
H70	H	2.179188	0.283601	0.499981
F71	F	1.700571	-0.485639	-0.000014
F72	F	2.200571	0.014361	0.499986
H73	H	1.385329	-0.225059	0.000001
H74	H	1.885329	0.274941	0.500001
F75	F	1.301938	0.356954	-0.658289
F76	F	1.801938	0.856954	-0.158289
F77	F	0.806572	0.408354	0.000018
F78	F	1.306572	0.908354	0.500018
F79	F	1.649297	0.009821	-0.658245
F80	F	2.149297	0.509821	-0.158245
