data_functionalizedCrystal
_audit_creation_method	'MofGen! by Chris Wilmer'
_symmetry_space_group_name_H-M	'P1'
_symmetry_Int_Tables_number	1
_symmetry_cell_setting	triclinic
loop_
_symmetry_equiv_pos_as_xyz
  x,y,z
_cell_length_a	10.723023
_cell_length_b	15.995350
_cell_length_c	9.198806
_cell_angle_alpha	89.999047
_cell_angle_beta	89.996513
_cell_angle_gamma	83.979961
loop_
_atom_site_label
_atom_site_type_symbol
_atom_site_fract_x
_atom_site_fract_y
_atom_site_fract_z
O1	O	1.655690	0.117432	-0.120870
O2	O	1.292394	0.128673	-0.120875
O3	O	1.483973	0.001222	-0.120871
O4	O	1.464111	0.244883	-0.120874
O5	O	1.483958	0.001221	0.120914
O6	O	1.292379	0.128673	0.120910
O7	O	1.655675	0.117431	0.120915
Cu8	Cu	1.474026	0.123052	0.142990
Cu9	Cu	1.474044	0.123052	-0.142949
O10	O	1.464096	0.244883	0.120911
C11	C	1.245898	0.127855	0.000017
C12	C	1.107374	0.125408	0.000014
C13	C	0.902461	0.121788	-0.125238
C14	C	1.045632	0.124317	-0.125238
C15	C	1.483144	-0.029978	0.000019
C16	C	1.480683	-0.122942	0.000011
C17	C	1.471842	-0.460741	0.000015
C18	C	1.335403	-0.414090	-0.000529
C19	C	1.337865	-0.317386	0.000016
C20	C	1.476227	-0.293155	0.000012
C21	C	1.543515	-0.333846	0.138082
C22	C	1.540088	-0.430502	0.138197
C23	C	1.542923	-0.430843	-0.136758
C24	C	1.542891	-0.333898	-0.138582
C25	C	1.478713	-0.198443	0.000015
C26	C	1.469361	-0.555453	0.000022
C27	C	1.702172	0.118249	0.000020
C28	C	1.840695	0.120696	0.000013
C29	C	1.464925	0.276082	0.000018
C30	C	1.467387	0.369047	0.000017
N31	N	1.474022	0.123051	0.344103
N32	N	1.474057	0.123047	-0.344063
C33	C	1.554464	0.069302	0.416302
C34	C	1.554483	0.069299	0.583714
H35	H	1.098748	0.125260	-0.232470
H36	H	1.623357	0.023285	0.645802
H37	H	1.643791	-0.317957	-0.146922
C38	C	0.912434	0.121964	0.144886
C39	C	0.987782	0.196125	0.181000
C40	C	1.059517	0.197392	0.325878
C41	C	1.055904	0.124498	0.434641
C42	C	0.980553	0.050332	0.398530
C43	C	0.908818	0.049064	0.253652
H44	H	0.990459	0.250090	0.100485
H45	H	1.115296	0.252296	0.352610
H46	H	1.109007	0.125436	0.541889
H47	H	0.977876	-0.003634	0.479045
H48	H	0.853039	-0.005839	0.226920
C49	C	1.266386	-0.279390	-0.133669
C50	C	1.206661	-0.337036	-0.241673
C51	C	1.135165	-0.299045	-0.375354
C52	C	1.123393	-0.203407	-0.401031
C53	C	1.183119	-0.145755	-0.293024
C54	C	1.254616	-0.183746	-0.159343
H55	H	1.215374	-0.407839	-0.222668
H56	H	1.090951	-0.341723	-0.455308
H57	H	1.070467	-0.175283	-0.499990
H58	H	1.174406	-0.074952	-0.312029
H59	H	1.298829	-0.141068	-0.079390
H60	H	1.054264	0.124474	0.107252
H61	H	1.405163	0.169063	0.406230
H62	H	0.849349	0.120844	-0.232469
C63	C	1.261735	-0.439534	-0.134297
C64	C	1.324559	-0.502986	-0.244676
C65	C	1.250894	-0.528429	-0.378457
C66	C	1.114405	-0.490422	-0.401859
C67	C	1.051573	-0.426966	-0.291476
C68	C	1.125239	-0.401523	-0.157695
H69	H	1.425603	-0.531125	-0.227356
H70	H	1.297406	-0.575403	-0.460170
H71	H	1.059873	-0.509257	-0.500891
H72	H	0.950529	-0.398827	-0.308796
H73	H	1.078726	-0.354549	-0.075983
C74	C	1.680832	-0.313964	0.145067
C75	C	1.788019	-0.386013	0.144532
C76	C	1.925332	-0.366125	0.151531
C77	C	1.955457	-0.274187	0.159067
C78	C	1.848267	-0.202132	0.159603
C79	C	1.710954	-0.222021	0.152603
H80	H	1.765721	-0.454077	0.138954
H81	H	2.004681	-0.419465	0.151135
H82	H	2.057105	-0.259465	0.164248
H83	H	1.870565	-0.134069	0.165181
H84	H	1.631605	-0.168680	0.153000
H85	H	1.496768	-0.305733	0.240831
C86	C	1.675402	-0.473301	0.146690
C87	C	1.758856	-0.456551	0.277520
C88	C	1.894166	-0.499347	0.286026
C89	C	1.946022	-0.558893	0.163702
C90	C	1.862567	-0.575645	0.032863
C91	C	1.727257	-0.532849	0.024356
H92	H	1.720471	-0.412469	0.368080
H93	H	1.955945	-0.486945	0.382883
H94	H	2.046187	-0.590573	0.169999
H95	H	1.900953	-0.619727	-0.057697
H96	H	1.665478	-0.545251	-0.072501
C97	C	1.381009	0.185219	0.572081
C98	C	1.238849	0.182777	0.592018
C99	C	1.145801	0.244949	0.508150
C100	C	1.194915	0.309563	0.404345
C101	C	1.337083	0.312007	0.384403
C102	C	1.430130	0.249835	0.468271
H103	H	1.202485	0.134944	0.668865
H104	H	1.040559	0.243139	0.522912
H105	H	1.126036	0.355586	0.342260
H106	H	1.373446	0.359840	0.307556
H107	H	1.535373	0.251645	0.453509
H108	H	1.281106	-0.433996	0.097930
C109	C	1.476419	-0.297428	-0.276533
C110	C	1.417882	-0.356032	-0.383884
C111	C	1.351355	-0.319570	-0.521810
C112	C	1.343366	-0.224504	-0.552386
C113	C	1.401906	-0.165894	-0.445033
C114	C	1.468433	-0.202356	-0.307106
H115	H	1.423793	-0.426411	-0.361252
H116	H	1.308020	-0.362958	-0.601280
H117	H	1.294120	-0.197513	-0.654487
H118	H	1.395994	-0.095516	-0.467664
H119	H	1.511768	-0.158969	-0.227637
H120	H	1.284604	-0.289827	0.099157
H121	H	1.623315	0.023284	0.354178
H122	H	1.498321	-0.451639	-0.241406
H123	H	1.491008	-0.449085	0.241409
H124	H	1.643519	-0.462026	-0.137688
