data_functionalizedCrystal
_audit_creation_method	'MofGen! by Chris Wilmer'
_symmetry_space_group_name_H-M	'P1'
_symmetry_Int_Tables_number	1
_symmetry_cell_setting	triclinic
loop_
_symmetry_equiv_pos_as_xyz
  x,y,z
_cell_length_a	16.974897
_cell_length_b	14.044220
_cell_length_c	15.455313
_cell_angle_alpha	92.908275
_cell_angle_beta	83.675220
_cell_angle_gamma	88.284917
loop_
_atom_site_label
_atom_site_type_symbol
_atom_site_fract_x
_atom_site_fract_y
_atom_site_fract_z
O1	O	1.064114	0.112426	-0.146752
O2	O	1.397448	0.445759	0.186581
O3	O	1.730781	0.779092	0.519915
O4	O	0.834286	0.128724	-0.130638
O5	O	1.167619	0.462058	0.202696
O6	O	1.500953	0.795391	0.536029
O7	O	0.945750	-0.017391	-0.138444
O8	O	1.279083	0.315942	0.194889
O9	O	1.612417	0.649276	0.528222
O10	O	0.952650	0.258541	-0.138945
O11	O	1.285984	0.591874	0.194388
O12	O	1.619317	0.925208	0.527721
O13	O	0.939374	-0.009070	0.006264
O14	O	1.272707	0.324264	0.339598
O15	O	1.606040	0.657597	0.672931
O16	O	0.827910	0.137046	0.014071
O17	O	1.161243	0.470379	0.347404
O18	O	1.494576	0.803712	0.680738
O19	O	1.057738	0.120747	-0.002043
O20	O	1.391071	0.454080	0.331290
O21	O	1.724405	0.787414	0.664623
Cu22	Cu	0.942242	0.129656	0.019227
Cu23	Cu	1.275575	0.462989	0.352560
Cu24	Cu	1.608908	0.796323	0.685894
Cu25	Cu	0.949782	0.119815	-0.151908
Cu26	Cu	1.283116	0.453149	0.181425
Cu27	Cu	1.616449	0.786482	0.514759
O28	O	0.946274	0.266862	0.005763
O29	O	1.279607	0.600196	0.339097
O30	O	1.612941	0.933529	0.672430
C31	C	0.801507	0.132417	-0.056209
C32	C	1.134840	0.465751	0.277125
C33	C	1.468174	0.799084	0.610458
C34	C	0.713335	0.131012	-0.050026
C35	C	1.046669	0.464345	0.283307
C36	C	1.380002	0.797679	0.616640
C37	C	0.675380	0.125818	-0.125996
C38	C	1.008714	0.459152	0.207337
C39	C	1.342047	0.792485	0.540671
C40	C	0.592533	0.124514	-0.120174
C41	C	0.925866	0.457847	0.213159
C42	C	1.259199	0.791180	0.546492
C43	C	0.547641	0.128396	-0.038382
C44	C	0.880975	0.461729	0.294951
C45	C	1.214308	0.795063	0.628285
C46	C	0.585602	0.133593	0.037594
C47	C	0.918935	0.466926	0.370927
C48	C	1.252268	0.800259	0.704260
C49	C	0.668448	0.134904	0.031771
C50	C	1.001781	0.468237	0.365104
C51	C	1.335115	0.801571	0.698438
C52	C	0.299495	0.124967	-0.012509
C53	C	0.632829	0.458300	0.320824
C54	C	0.966162	0.791634	0.654157
C55	C	0.216644	0.123652	-0.006693
C56	C	0.549977	0.456986	0.326641
C57	C	0.883311	0.790319	0.659974
C58	C	0.223580	0.114575	-0.164461
C59	C	0.556914	0.447909	0.168872
C60	C	0.890247	0.781242	0.502206
C61	C	0.306428	0.115881	-0.170276
C62	C	0.639761	0.449215	0.163057
C63	C	0.973095	0.782548	0.496390
C64	C	0.344381	0.121083	-0.094301
C65	C	0.677714	0.454416	0.239032
C66	C	1.011048	0.787750	0.572366
N67	N	0.462958	0.127060	-0.032429
N68	N	0.796291	0.460393	0.300904
N69	N	1.129624	0.793726	0.634238
N70	N	0.429063	0.122426	-0.100255
N71	N	0.762396	0.455759	0.233079
N72	N	1.095730	0.789093	0.566412
C73	C	0.939542	-0.048529	-0.065878
C74	C	1.272875	0.284805	0.267455
C75	C	1.606208	0.618138	0.600789
C76	C	0.930533	-0.153707	-0.065245
C77	C	1.263867	0.179626	0.268088
C78	C	1.597200	0.512960	0.601421
C79	C	0.914064	-0.346282	-0.064103
C80	C	1.247398	-0.012949	0.269230
C81	C	1.580731	0.320384	0.602564
C82	C	0.977956	-0.404252	-0.068585
C83	C	1.311290	-0.070919	0.264748
C84	C	1.644623	0.262414	0.598081
C85	C	0.968793	-0.511408	-0.067950
C86	C	1.302126	-0.178075	0.265384
C87	C	1.635460	0.155259	0.598717
C88	C	0.923227	-0.239117	-0.064738
C89	C	1.256560	0.094217	0.268595
C90	C	1.589893	0.427550	0.601928
C91	C	1.090517	0.117054	-0.076474
C92	C	1.423850	0.450387	0.256859
C93	C	1.757184	0.783721	0.590192
C94	C	1.178689	0.118459	-0.082662
C95	C	1.512022	0.451792	0.250671
C96	C	1.845356	0.785126	0.584004
C97	C	0.952482	0.298000	-0.066805
C98	C	1.285816	0.631333	0.266528
C99	C	1.619149	0.964667	0.599862
C100	C	0.961491	0.403178	-0.067443
C101	C	1.294824	0.736511	0.265890
C102	C	1.628158	1.069845	0.599223
N103	N	0.936943	0.136577	0.139594
N104	N	1.270277	0.469910	0.472927
N105	N	1.603610	0.803244	0.806260
N106	N	0.955086	0.112887	-0.272275
N107	N	1.288420	0.446220	0.061058
N108	N	1.621753	0.779553	0.394392
C109	C	0.984317	0.074525	0.181670
C110	C	1.317650	0.407858	0.515003
C111	C	1.650984	0.741191	0.848336
C112	C	0.980318	0.079767	0.272758
C113	C	1.313651	0.413101	0.606091
C114	C	1.646985	0.746434	0.939424
C115	C	0.928949	0.147068	0.321768
C116	C	1.262283	0.480401	0.655101
C117	C	1.595616	0.813734	0.988434
C118	C	0.881571	0.209123	0.279685
C119	C	1.214904	0.542456	0.613019
C120	C	1.548237	0.875789	0.946352
C121	C	0.885566	0.203875	0.188599
C122	C	1.218899	0.537208	0.521933
C123	C	1.552233	0.870541	0.855266
C124	C	0.911703	0.169694	0.594557
C125	C	1.245036	0.503027	0.927890
C126	C	1.578369	0.836361	1.261224
C127	C	0.907713	0.174939	0.685649
C128	C	1.241046	0.508272	1.018982
C129	C	1.574380	0.841606	1.352316
C130	C	1.006460	0.045582	0.678715
C131	C	1.339793	0.378915	1.012048
C132	C	1.673126	0.712249	1.345382
C133	C	1.010454	0.040344	0.587627
C134	C	1.343787	0.373677	0.920961
C135	C	1.677120	0.707011	1.254294
C136	C	0.963072	0.102396	0.545553
C137	C	1.296405	0.435729	0.878887
C138	C	1.629739	0.769062	1.212220
N139	N	0.924863	0.152430	0.414874
N140	N	1.258196	0.485763	0.748207
N141	N	1.591529	0.819097	1.081541
N142	N	0.967155	0.097028	0.452449
N143	N	1.300489	0.430361	0.785782
N144	N	1.633822	0.763695	1.119115
H145	H	0.180094	0.126841	0.059916
H146	H	0.513427	0.460174	0.393249
H147	H	0.846761	0.793508	0.726583
H148	H	1.045035	-0.004939	0.712980
H149	H	1.378368	0.328395	1.046314
H150	H	1.711701	0.661728	1.379647
N151	N	0.832493	-0.387126	-0.058380
N152	N	1.165826	-0.053793	0.274954
N153	N	1.499160	0.279541	0.608287
H154	H	0.828209	-0.430703	-0.111557
H155	H	1.161543	-0.097369	0.221777
H156	H	1.494876	0.235964	0.555110
H157	H	0.823543	-0.424495	-0.004238
H158	H	1.156876	-0.091161	0.329095
H159	H	1.490209	0.242172	0.662428
H160	H	1.052282	-0.014457	0.547725
H161	H	1.385615	0.318876	0.881058
H162	H	1.718949	0.652209	1.214392
H163	H	0.549044	0.136760	0.104191
H164	H	0.882378	0.470093	0.437524
H165	H	1.215711	0.803426	0.770858
N166	N	0.723796	0.121621	-0.214216
N167	N	1.057130	0.454954	0.119118
N168	N	1.390463	0.788287	0.452451
H169	H	0.687177	0.118134	-0.261458
H170	H	1.020511	0.451467	0.071875
H171	H	1.353844	0.784800	0.405209
H172	H	0.756053	0.180701	-0.219915
H173	H	1.089386	0.514034	0.113418
H174	H	1.422719	0.847368	0.446752
N175	N	1.059527	-0.363392	-0.074289
N176	N	1.392860	-0.030059	0.259045
N177	N	1.726193	0.303275	0.592378
H178	H	1.086946	-0.382565	-0.022731
H179	H	1.420280	-0.049231	0.310603
H180	H	1.753613	0.284102	0.643936
H181	H	1.091627	-0.388724	-0.130050
H182	H	1.424960	-0.055391	0.203283
H183	H	1.758294	0.277943	0.536617
H184	H	1.026150	0.019726	0.141771
H185	H	1.359484	0.353059	0.475105
H186	H	1.692817	0.686392	0.808438
H187	H	0.561634	0.120285	-0.182037
H188	H	0.894967	0.453618	0.151296
H189	H	1.228300	0.786951	0.484630
H190	H	0.699349	0.139137	0.093634
H191	H	1.032683	0.472471	0.426967
H192	H	1.366016	0.805804	0.760301
H193	H	1.018893	0.029239	0.307016
H194	H	1.352226	0.362572	0.640349
H195	H	1.685559	0.695906	0.973682
H196	H	0.865880	0.229747	0.725549
H197	H	1.199214	0.563080	1.058882
H198	H	1.532547	0.896414	1.392216
H199	H	0.873124	0.220221	0.560307
H200	H	1.206457	0.553554	0.893641
H201	H	1.539791	0.886887	1.226974
N202	N	0.826159	0.281705	0.332541
N203	N	1.159492	0.615039	0.665875
N204	N	1.492826	0.948372	0.999208
H205	H	0.830817	0.275617	0.396629
H206	H	1.164150	0.608950	0.729963
H207	H	1.497483	0.942284	1.063296
H208	H	0.840771	0.347966	0.315629
H209	H	1.174104	0.681299	0.648963
H210	H	1.507437	1.014632	0.982296
H211	H	0.342974	0.112713	-0.236881
H212	H	0.676307	0.446047	0.096453
H213	H	1.009640	0.779380	0.429786
H214	H	0.192670	0.110343	-0.226316
H215	H	0.526003	0.443676	0.107017
H216	H	0.859337	0.777009	0.440351
H217	H	0.330387	0.129196	0.049355
H218	H	0.663720	0.462530	0.382689
H219	H	0.997054	0.795863	0.716022
H220	H	0.846988	0.254403	0.154342
H221	H	1.180322	0.587736	0.487675
H222	H	1.513655	0.921070	0.821009
