data_functionalizedCrystal
_audit_creation_method	'MofGen! by Chris Wilmer'
_symmetry_space_group_name_H-M	'P1'
_symmetry_Int_Tables_number	1
_symmetry_cell_setting	triclinic
loop_
_symmetry_equiv_pos_as_xyz
  x,y,z
_cell_length_a	13.897441
_cell_length_b	21.395362
_cell_length_c	21.395361
_cell_angle_alpha	89.953415
_cell_angle_beta	89.963518
_cell_angle_gamma	90.041279
loop_
_atom_site_label
_atom_site_type_symbol
_atom_site_fract_x
_atom_site_fract_y
_atom_site_fract_z
Zn1	Zn	-0.545871	-0.957843	-0.249153
Zn2	Zn	-0.384556	-0.957750	-0.353940
Zn3	Zn	-0.384531	-0.853063	-0.249209
Zn4	Zn	-0.545750	-0.853027	-0.353926
O5	O	-0.465177	-0.905421	-0.301557
O6	O	-0.524533	-1.045509	-0.263036
O7	O	-0.249571	-0.943840	-0.340077
O8	O	-0.405974	-0.867016	-0.161524
O9	O	-0.406015	-1.045441	-0.340022
O10	O	-0.524509	-0.943997	-0.161483
O11	O	-0.249553	-0.866926	-0.263132
O12	O	-0.405857	-0.765380	-0.263118
O13	O	-0.680748	-0.866955	-0.339998
O14	O	-0.524304	-0.765354	-0.340052
O15	O	-0.680837	-0.943963	-0.263022
O16	O	-0.405898	-0.943805	-0.441616
O17	O	-0.524327	-0.866865	-0.441606
C18	C	-0.465065	-0.742633	-0.301590
C19	C	-0.465040	-0.672992	-0.301619
C20	C	-0.716770	-0.905465	-0.301502
C21	C	-0.823984	-0.905484	-0.301478
C22	C	-0.465123	-0.905338	-0.464345
C23	C	-0.465133	-0.905360	-0.533986
C24	C	-1.020279	-0.905501	-0.301436
C25	C	-0.911047	-0.905490	-0.301461
C26	C	-0.214563	-0.905413	-0.301567
C27	C	-0.107349	-0.905515	-0.301414
C28	C	-0.465290	-1.068844	-0.301524
C29	C	-0.465338	-1.138486	-0.301510
C30	C	-0.526623	-0.640282	-0.341732
C31	C	-0.526666	-0.574846	-0.341717
C32	C	-0.465109	-0.542124	-0.301595
C33	C	-0.403522	-0.574842	-0.261475
C34	C	-0.403487	-0.640276	-0.261487
C35	C	-0.378272	-0.438402	-0.296563
C36	C	-0.378305	-0.372969	-0.296555
C37	C	-0.465215	-0.340303	-0.301554
C38	C	-0.552095	-0.373078	-0.306575
C39	C	-0.552061	-0.438512	-0.306587
C40	C	-0.465140	-0.471171	-0.301577
C41	C	-0.526850	-0.236640	-0.341653
C42	C	-0.526895	-0.171204	-0.341633
C43	C	-0.403742	-0.171201	-0.261394
C44	C	-0.403706	-0.236636	-0.261410
C45	C	-0.465258	-0.269352	-0.301543
C46	C	-0.403530	-0.945458	-0.566684
C47	C	-0.403551	-0.945487	-0.632119
C48	C	-0.465166	-0.905407	-0.664854
C49	C	-0.526780	-0.865306	-0.632149
C50	C	-0.526764	-0.865283	-0.566714
C51	C	-0.472695	-0.848992	-0.768584
C52	C	-0.472705	-0.849015	-0.834017
C53	C	-0.465222	-0.905480	-0.866675
C54	C	-0.457710	-0.961925	-0.833892
C55	C	-0.457693	-0.961901	-0.768458
C56	C	-0.465191	-0.905429	-0.735807
C57	C	-0.403640	-0.945613	-0.970325
C58	C	-0.403668	-0.945643	-1.035762
C59	C	-0.526892	-0.865457	-1.035790
C60	C	-0.526869	-0.865432	-0.970355
C61	C	-0.465237	-0.905510	-0.937626
C62	C	-0.465252	-0.905521	-0.138134
C63	C	-0.465284	-0.905564	-0.068492
H64	H	-0.576746	-0.666915	-0.374411
C65	C	-0.656669	-0.097707	-0.350434
C66	C	-0.594596	-0.135247	-0.385728
H67	H	-0.698468	-0.075513	-0.377658
H68	H	-0.620020	-0.068858	-0.326540
H69	H	-0.693627	-0.123296	-0.323174
H70	H	-0.557632	-0.109658	-0.412985
H71	H	-0.631249	-0.164101	-0.409633
H72	H	-0.353458	-0.978249	-0.943677
H73	H	-0.478792	-0.803008	-0.742000
H74	H	-0.353505	-0.978300	-1.062383
C75	C	-0.707494	-0.458814	-0.261890
C76	C	-0.647556	-0.474539	-0.312094
H77	H	-0.766447	-0.481059	-0.265287
H78	H	-0.719953	-0.415176	-0.262606
H79	H	-0.676736	-0.469555	-0.223731
H80	H	-0.678311	-0.463793	-0.350254
H81	H	-0.635099	-0.518187	-0.311385
C82	C	-0.539854	-0.501181	-0.425994
C83	C	-0.594361	-0.538882	-0.385814
H84	H	-0.581648	-0.478979	-0.453215
H85	H	-0.497753	-0.526656	-0.449928
H86	H	-0.503206	-0.472332	-0.402087
H87	H	-0.631004	-0.567735	-0.409721
H88	H	-0.636479	-0.513405	-0.361879
C89	C	-0.348754	-0.740579	-0.225880
C90	C	-0.335786	-0.676236	-0.217394
H91	H	-0.306960	-0.762779	-0.198657
H92	H	-0.334508	-0.751244	-0.267964
H93	H	-0.413587	-0.751351	-0.216763
H94	H	-0.270955	-0.665463	-0.226516
H95	H	-0.350025	-0.665567	-0.175301
C96	C	-0.573572	-0.759201	-0.652390
C97	C	-0.594510	-0.821249	-0.668126
H98	H	-0.615395	-0.732004	-0.674598
H99	H	-0.508756	-0.750060	-0.663161
H100	H	-0.582381	-0.753458	-0.608739
H101	H	-0.585694	-0.826993	-0.711777
H102	H	-0.659342	-0.830392	-0.657359
C103	C	-0.581633	-0.829890	-1.136105
C104	C	-0.594624	-0.821401	-1.071765
H105	H	-0.623448	-0.802689	-1.158315
H106	H	-0.595834	-0.871982	-1.146766
H107	H	-0.516806	-0.820744	-1.146868
H108	H	-0.659449	-0.830551	-1.061000
H109	H	-0.580429	-0.779299	-1.061099
H110	H	-0.353625	-0.144559	-0.228723
H111	H	-0.577028	-0.832778	-0.943730
C112	C	-0.222853	-0.352684	-0.341233
C113	C	-0.282804	-0.336951	-0.291039
H114	H	-0.163890	-0.330453	-0.337824
H115	H	-0.253586	-0.341939	-0.379393
H116	H	-0.210411	-0.396331	-0.340515
H117	H	-0.295252	-0.293304	-0.291759
H118	H	-0.252064	-0.347691	-0.252868
C119	C	-0.531026	-1.032093	-0.907338
C120	C	-0.449498	-1.024002	-0.869776
H121	H	-0.525959	-1.070417	-0.929488
H122	H	-0.535489	-0.998489	-0.936226
H123	H	-0.586922	-1.032868	-0.881769
H124	H	-0.393603	-1.023221	-0.895346
H125	H	-0.445025	-1.057614	-0.840885
H126	H	-0.307495	-0.464992	-0.292489
C127	C	-0.281727	-1.024732	-0.625526
C128	C	-0.335826	-0.989561	-0.668071
H129	H	-0.239912	-1.051938	-0.647721
H130	H	-0.323787	-1.048680	-0.599958
H131	H	-0.244779	-0.997429	-0.600051
H132	H	-0.372779	-1.016864	-0.693542
H133	H	-0.293760	-0.965612	-0.693649
C134	C	-0.487545	-0.737407	-0.827567
C135	C	-0.480963	-0.786973	-0.870048
H136	H	-0.492649	-0.699105	-0.849812
H137	H	-0.431629	-0.736602	-0.802076
H138	H	-0.542833	-0.742896	-0.802010
H139	H	-0.425670	-0.781486	-0.895602
H140	H	-0.536884	-0.787777	-0.895550
H141	H	-0.576975	-0.263279	-0.374328
C142	C	-0.273767	-0.954186	-0.493163
C143	C	-0.335790	-0.989516	-0.530712
H144	H	-0.231945	-0.981387	-0.470959
H145	H	-0.310451	-0.930309	-0.464322
H146	H	-0.236830	-0.926910	-0.518747
H147	H	-0.372732	-1.016789	-0.505128
H148	H	-0.299102	-1.013404	-0.559557
H149	H	-0.576930	-0.832630	-0.540091
H150	H	-0.622866	-0.346483	-0.310645
H151	H	-0.353553	-0.263269	-0.228749
H152	H	-0.353403	-0.548195	-0.228806
H153	H	-0.451579	-1.007860	-0.741768
