data_functionalizedCrystal
_audit_creation_method	'MofGen! by Chris Wilmer'
_symmetry_space_group_name_H-M	'P1'
_symmetry_Int_Tables_number	1
_symmetry_cell_setting	triclinic
loop_
_symmetry_equiv_pos_as_xyz
  x,y,z
_cell_length_a	30.711274
_cell_length_b	30.700811
_cell_length_c	30.700862
_cell_angle_alpha	90.002981
_cell_angle_beta	120.003201
_cell_angle_gamma	60.000191
loop_
_atom_site_label
_atom_site_type_symbol
_atom_site_fract_x
_atom_site_fract_y
_atom_site_fract_z
O1	O	-0.384090	-0.298800	-0.012975
O2	O	-0.294923	-0.235460	0.012883
O3	O	-0.384086	-0.235459	-0.076313
O4	O	-0.294928	-0.298801	0.076221
O5	O	-0.311666	-0.307905	-0.076312
O6	O	-0.222503	-0.307906	0.012884
O7	O	-0.311670	-0.371245	-0.012974
Zn8	Zn	-0.255588	-0.351078	-0.000045
Zn9	Zn	-0.351005	-0.255628	-0.000046
O10	O	-0.222507	-0.371246	0.076222
C11	C	-0.071080	-0.031743	0.039175
C12	C	-0.018309	-0.058198	0.039543
C13	C	-0.071078	-0.110620	0.039178
C14	C	-0.018307	-0.136955	0.039546
C15	C	0.007769	-0.110619	0.039175
C16	C	-0.097036	-0.058199	0.039546
C17	C	-0.213077	0.158465	0.024893
C18	C	-0.242107	0.212331	0.020855
C19	C	-0.217191	0.239352	0.018826
C20	C	-0.248671	0.297760	0.014437
C21	C	-0.163242	0.212504	0.020840
C22	C	-0.134212	0.158641	0.024886
C23	C	-0.159132	0.131622	0.026912
C24	C	0.183633	-0.158783	0.024890
C25	C	0.233443	-0.183609	0.020851
C26	C	0.258429	-0.235554	0.018823
C27	C	0.312429	-0.262473	0.014436
C28	C	0.233606	-0.262675	0.020840
C29	C	0.183805	-0.237853	0.024888
C30	C	0.158819	-0.185901	0.026909
C31	C	-0.213070	-0.158788	0.024905
C32	C	-0.242103	-0.183613	0.020863
C33	C	-0.217186	-0.235560	0.018837
C34	C	-0.248663	-0.262479	0.014451
C35	C	-0.163240	-0.262678	0.020849
C36	C	-0.134212	-0.237851	0.024889
C37	C	-0.159129	-0.185906	0.026922
C38	C	-0.127652	0.073217	0.031294
C39	C	-0.102560	0.026662	0.034789
C40	C	-0.102556	-0.137537	0.034795
C41	C	-0.127647	-0.158992	0.031303
C42	C	0.061769	-0.137534	0.034789
C43	C	0.104814	-0.158989	0.031294
C44	C	-0.390646	-0.450786	-0.018869
C45	C	-0.360080	-0.508241	-0.015171
C46	C	-0.364686	-0.424332	-0.019233
C47	C	-0.469495	-0.371910	-0.018869
C48	C	-0.523236	-0.345031	-0.015173
C49	C	-0.443415	-0.345576	-0.019234
C50	C	-0.390642	-0.371911	-0.018863
C51	C	-0.360072	-0.345034	-0.015160
C52	C	-0.443419	-0.424330	-0.019239
C53	C	-0.535518	-0.110283	-0.503951
C54	C	-0.588290	-0.057862	-0.530286
C55	C	-0.535518	-0.110284	-0.425075
C56	C	-0.588289	-0.057863	-0.451530
C57	C	-0.614367	-0.031408	-0.503951
C58	C	-0.509561	-0.136618	-0.451530
C59	C	-0.393523	-0.238047	-0.552116
C60	C	-0.364494	-0.263048	-0.576943
C61	C	-0.389411	-0.236096	-0.628889
C62	C	-0.357932	-0.263198	-0.655807
C63	C	-0.443361	-0.184142	-0.656009
C64	C	-0.472390	-0.159148	-0.631185
C65	C	-0.447469	-0.186102	-0.579236
C66	C	-0.790234	0.158800	-0.631712
C67	C	-0.840044	0.212665	-0.656712
C68	C	-0.865030	0.239688	-0.629762
C69	C	-0.919031	0.298093	-0.656861
C70	C	-0.840205	0.212840	-0.577809
C71	C	-0.790404	0.158975	-0.552813
C72	C	-0.765419	0.131958	-0.579770
C73	C	-0.393522	-0.238048	-0.234867
C74	C	-0.364489	-0.263047	-0.180999
C75	C	-0.389405	-0.236095	-0.153977
C76	C	-0.357926	-0.263197	-0.095570
C77	C	-0.443351	-0.184144	-0.180823
C78	C	-0.472380	-0.159147	-0.234689
C79	C	-0.447463	-0.186106	-0.261708
C80	C	-0.478948	-0.158994	-0.552321
C81	C	-0.504039	-0.137387	-0.530867
C82	C	-0.504039	-0.137388	-0.366670
C83	C	-0.478947	-0.158994	-0.320115
C84	C	-0.668367	0.026997	-0.531054
C85	C	-0.711413	0.073551	-0.552660
O86	O	0.456747	-0.371242	-0.012989
O87	O	0.330108	-0.307898	0.012862
O88	O	0.330102	-0.307902	-0.076331
O89	O	0.456753	-0.371237	0.076204
O90	O	0.330100	-0.235456	-0.076334
O91	O	0.330107	-0.235452	0.012859
O92	O	0.456746	-0.298795	-0.012991
Zn93	Zn	0.393426	-0.255621	-0.000067
Zn94	Zn	0.393428	-0.351072	-0.000063
O95	O	0.456752	-0.298791	0.076201
O96	O	-0.311680	0.469552	-0.012990
O97	O	-0.222517	0.317020	0.012860
O98	O	-0.311682	0.406206	-0.076333
O99	O	-0.222514	0.380367	0.076203
O100	O	-0.384101	0.406204	-0.076330
O101	O	-0.294935	0.317019	0.012863
O102	O	-0.384098	0.469551	-0.012987
Zn103	Zn	-0.351015	0.393284	-0.000062
Zn104	Zn	-0.255600	0.393286	-0.000066
O105	O	-0.294933	0.380365	0.076206
O106	O	-1.063348	0.469883	-0.692457
O107	O	-0.936707	0.317351	-0.629120
O108	O	-0.936703	0.406539	-0.629112
O109	O	-1.063353	0.380695	-0.692465
O110	O	-0.936705	0.406541	-0.701558
O111	O	-0.936709	0.317353	-0.701566
O112	O	-1.063350	0.469885	-0.764903
Zn113	Zn	-1.000030	0.393619	-0.744737
Zn114	Zn	-1.000028	0.393616	-0.649286
O115	O	-1.063355	0.380697	-0.764912
O116	O	-0.294924	-0.298804	-0.764570
O117	O	-0.384087	-0.235458	-0.701231
O118	O	-0.294922	-0.235461	-0.701223
O119	O	-0.384089	-0.298801	-0.764578
O120	O	-0.222503	-0.307905	-0.628778
O121	O	-0.311668	-0.307902	-0.628785
O122	O	-0.222505	-0.371248	-0.692124
Zn123	Zn	-0.255588	-0.351077	-0.648953
Zn124	Zn	-0.351004	-0.255629	-0.744403
O125	O	-0.311670	-0.371245	-0.692132
C126	C	-0.137109	-0.450791	0.234760
C127	C	-0.083371	-0.508247	0.261637
C128	C	-0.163185	-0.424337	0.261096
C129	C	-0.215958	-0.371915	0.155885
C130	C	-0.246526	-0.345036	0.098429
C131	C	-0.241915	-0.345581	0.182341
C132	C	-0.215957	-0.371916	0.234762
C133	C	-0.246523	-0.345038	0.261641
C134	C	-0.163187	-0.424336	0.182339
C135	C	0.609367	-0.371900	0.234744
C136	C	0.639936	-0.345021	0.261623
C137	C	0.635326	-0.424320	0.261080
C138	C	0.530513	-0.371902	0.155868
C139	C	0.476771	-0.345026	0.098411
C140	C	0.556592	-0.424323	0.182323
C141	C	0.609367	-0.450776	0.234745
C142	C	0.639935	-0.508231	0.261625
C143	C	0.556592	-0.345567	0.182322
C144	C	-0.215966	0.374508	0.234742
C145	C	-0.246533	0.378211	0.261622
C146	C	-0.163196	0.374145	0.261075
C147	C	-0.215966	0.374496	0.155867
C148	C	-0.246532	0.378186	0.098411
C149	C	-0.163196	0.374133	0.182319
C150	C	-0.137120	0.374510	0.234739
C151	C	-0.083383	0.378215	0.261615
C152	C	-0.241923	0.374131	0.182322
C153	C	-0.071117	-0.031762	-0.503978
C154	C	-0.097076	-0.058218	-0.530313
C155	C	0.007736	-0.110635	-0.425100
C156	C	-0.018343	-0.136971	-0.451554
C157	C	-0.071117	-0.110639	-0.503976
C158	C	-0.018343	-0.058215	-0.451556
C159	C	-0.133544	0.158445	-0.552147
C160	C	-0.162399	0.212309	-0.576974
C161	C	-0.216357	0.239329	-0.628922
C162	C	-0.247653	0.297735	-0.655841
C163	C	-0.241455	0.212479	-0.656042
C164	C	-0.212595	0.158617	-0.631216
C165	C	-0.158637	0.131600	-0.579267
C166	C	-0.213119	-0.158809	-0.631739
C167	C	-0.242150	-0.183636	-0.656740
C168	C	-0.217236	-0.235579	-0.629789
C169	C	-0.248711	-0.262501	-0.656888
C170	C	-0.163282	-0.262698	-0.577834
C171	C	-0.134247	-0.237875	-0.552838
C172	C	-0.159175	-0.185925	-0.579796
C173	C	0.183616	-0.158793	-0.234889
C174	C	0.233425	-0.183615	-0.181021
C175	C	0.258413	-0.235561	-0.153998
C176	C	0.312417	-0.262476	-0.095590
C177	C	0.233586	-0.262680	-0.180844
C178	C	0.183777	-0.237855	-0.234710
C179	C	0.158799	-0.185912	-0.261731
C180	C	-0.127350	0.073196	-0.552350
C181	C	-0.102409	0.026642	-0.530895
C182	C	0.061741	-0.137548	-0.366694
C183	C	0.104790	-0.159001	-0.320139
C184	C	-0.102597	-0.137555	-0.531080
C185	C	-0.127690	-0.159010	-0.552686
O186	O	0.705079	-0.682971	0.298762
O187	O	0.615915	-0.530440	0.235414
O188	O	0.705074	-0.619630	0.235414
O189	O	0.615920	-0.593781	0.298762
O190	O	0.777498	-0.619626	0.307859
O191	O	0.688338	-0.530436	0.307859
O192	O	0.777503	-0.682967	0.371207
Zn193	Zn	0.744420	-0.606701	0.351035
Zn194	Zn	0.648998	-0.606706	0.255586
O195	O	0.688344	-0.593777	0.371207
C196	C	-0.614034	0.432443	-0.503962
C197	C	-0.587958	0.432807	-0.530298
C198	C	-0.535188	0.432456	-0.425089
C199	C	-0.509231	0.432821	-0.451545
C200	C	-0.535187	0.432444	-0.503965
C201	C	-0.587958	0.432820	-0.451542
C202	C	-0.789897	0.418152	-0.552117
C203	C	-0.839706	0.414110	-0.576941
C204	C	-0.864691	0.412074	-0.628886
C205	C	-0.918690	0.407682	-0.655801
C206	C	-0.839867	0.414086	-0.656008
C207	C	-0.790067	0.418135	-0.631186
C208	C	-0.765082	0.420168	-0.579239
C209	C	-0.472763	0.418144	-0.631728
C210	C	-0.443909	0.414103	-0.656730
C211	C	-0.389955	0.412078	-0.629782
C212	C	-0.358661	0.407689	-0.656882
C213	C	-0.364860	0.414102	-0.577830
C214	C	-0.393718	0.418153	-0.552833
C215	C	-0.447672	0.420170	-0.579788
C216	C	-0.472766	0.418206	-0.234881
C217	C	-0.443908	0.414171	-0.181014
C218	C	-0.389954	0.412149	-0.153995
C219	C	-0.358660	0.407770	-0.095588
C220	C	-0.364858	0.414158	-0.180842
C221	C	-0.393716	0.418191	-0.234707
C222	C	-0.447674	0.420220	-0.261724
C223	C	-0.711078	0.424554	-0.552326
C224	C	-0.668034	0.428052	-0.530874
C225	C	-0.503898	0.428080	-0.366685
C226	C	-0.478959	0.424594	-0.320131
C227	C	-0.503897	0.428054	-0.531069
C228	C	-0.478958	0.424557	-0.552676
H229	H	-0.142952	-0.304977	0.019199
O230	O	-0.294560	0.238485	0.018818
C231	C	-0.342690	0.281767	-0.029361
H232	H	-0.322461	0.293957	-0.045249
H233	H	-0.371251	0.269465	-0.059894
C234	C	-0.408855	0.314226	0.000235
C235	C	-0.384009	0.329201	-0.019277
H236	H	-0.434345	0.343485	0.006453
H237	H	-0.376430	0.285065	0.032693
H238	H	-0.432652	0.303974	-0.025213
H239	H	-0.360207	0.339446	0.006173
H240	H	-0.416431	0.358365	-0.051731
O241	O	-0.138128	0.238465	-0.550658
C242	C	-0.181432	0.281750	-0.545799
H243	H	-0.229732	0.293938	-0.578228
H244	H	-0.171098	0.269450	-0.504928
C245	C	-0.118128	0.314211	-0.512066
C246	C	-0.177451	0.329184	-0.551898
H247	H	-0.115671	0.343470	-0.515825
H248	H	-0.088952	0.285048	-0.515337
H249	H	-0.109523	0.303961	-0.478010
H250	H	-0.186052	0.339427	-0.585952
H251	H	-0.206629	0.358349	-0.548633
O252	O	-0.863813	0.412076	-0.550622
C253	C	-0.858918	0.363897	-0.545755
H254	H	-0.855223	0.348005	-0.578182
H255	H	-0.816096	0.333369	-0.504883
C256	C	-0.920947	0.393497	-0.512022
C257	C	-0.916413	0.373980	-0.551851
H258	H	-0.956411	0.399715	-0.515780
H259	H	-0.924243	0.425955	-0.515299
H260	H	-0.885258	0.368054	-0.477965
H261	H	-0.952098	0.399426	-0.585907
H262	H	-0.913124	0.341526	-0.548580
H263	H	-0.284394	0.373547	0.161083
H264	H	-0.373277	0.419824	-0.256562
H265	H	-0.090318	-0.259959	-0.510539
H266	H	0.163567	-0.259941	-0.256565
H267	H	0.253937	-0.304980	-0.158840
O268	O	-0.293927	0.238772	-0.706464
C269	C	-0.341958	0.282083	-0.706346
H270	H	-0.331082	0.274288	-0.664657
H271	H	-0.346660	0.320138	-0.718350
C272	C	-0.416120	0.298092	-0.797522
C273	C	-0.402765	0.288516	-0.746319
H274	H	-0.453630	0.302063	-0.822181
H275	H	-0.383761	0.268914	-0.797603
H276	H	-0.420035	0.329804	-0.807518
H277	H	-0.398843	0.256802	-0.736322
H278	H	-0.435125	0.317690	-0.746238
O279	O	-0.312496	0.412208	-0.551731
C280	C	-0.322424	0.455706	-0.580676
H281	H	-0.362079	0.470378	-0.624289
H282	H	-0.334335	0.489359	-0.563375
C283	C	-0.214908	0.419920	-0.523181
C284	C	-0.263609	0.437938	-0.576749
H285	H	-0.178628	0.408962	-0.520758
H286	H	-0.208219	0.390616	-0.503679
H287	H	-0.224843	0.447968	-0.508770
H288	H	-0.253678	0.409889	-0.591157
H289	H	-0.270295	0.467238	-0.596254
H290	H	0.534764	-0.445561	0.161082
O291	O	-0.864241	0.412176	-0.706489
C292	C	-0.926733	0.455673	-0.740065
H293	H	-0.945352	0.470356	-0.715078
H294	H	-0.931166	0.489320	-0.761806
C295	C	-0.940987	0.419865	-0.811817
C296	C	-0.963858	0.437897	-0.781128
H297	H	-0.963888	0.408901	-0.837148
H298	H	-0.898885	0.390561	-0.789196
H299	H	-0.944682	0.447907	-0.829929
H300	H	-0.960155	0.409852	-0.763010
H301	H	-1.005960	0.467195	-0.803746
O302	O	0.159371	-0.108352	0.026939
C303	C	0.164254	-0.108475	0.075117
H304	H	0.168088	-0.144693	0.090994
H305	H	0.206997	-0.110333	0.105658
C306	C	0.101962	-0.012690	0.045542
C307	C	0.106666	-0.057172	0.065040
H308	H	0.066441	0.018957	0.039327
H309	H	0.098674	-0.012607	0.013084
H310	H	0.137584	-0.014247	0.070996
H311	H	0.071048	-0.055618	0.039584
H312	H	0.109947	-0.057253	0.097494
H313	H	0.003491	-0.180045	-0.430315
H314	H	-0.860250	0.234521	-0.699011
O315	O	0.530594	-0.294214	0.156929
C316	C	0.530299	-0.291291	0.110941
H317	H	0.567643	-0.332082	0.115762
H318	H	0.483456	-0.278570	0.074608
C319	C	0.496943	-0.200079	0.097355
C320	C	0.542812	-0.250178	0.103277
H321	H	0.504658	-0.174717	0.092625
H322	H	0.497139	-0.202047	0.128337
H323	H	0.457911	-0.189486	0.067078
H324	H	0.581841	-0.260774	0.133557
H325	H	0.542623	-0.248211	0.072300
H326	H	-0.142958	0.234509	0.019191
O327	O	-0.614223	-0.032539	-0.426117
C328	C	-0.571181	-0.029868	-0.380159
H329	H	-0.522570	-0.062770	-0.366923
H330	H	-0.579638	0.010639	-0.389590
C331	C	-0.638113	0.003185	-0.351353
C332	C	-0.578407	-0.037228	-0.335094
H333	H	-0.642571	-0.001352	-0.323555
H334	H	-0.667112	0.001388	-0.382317
H335	H	-0.645153	0.036937	-0.359212
H336	H	-0.571371	-0.070979	-0.327242
H337	H	-0.549407	-0.035437	-0.304128
H338	H	-0.284379	-0.302510	0.161100
H339	H	-0.141352	-0.445575	0.304170
H340	H	-0.322213	-0.445577	-0.019814
H341	H	0.003516	-0.036957	0.040138
O342	O	-0.081830	0.132650	0.026810
C343	C	-0.066055	0.168044	0.024165
H344	H	-0.108898	0.210854	0.004535
H345	H	-0.030169	0.162551	0.066188
C346	C	0.013200	0.103720	0.015135
C347	C	-0.039423	0.156299	-0.008979
H348	H	0.029630	0.096474	-0.005307
H349	H	0.002573	0.079873	0.016919
H350	H	0.043097	0.099148	0.050154
H351	H	-0.069323	0.160867	-0.043994
H352	H	-0.028801	0.180146	-0.010770
H353	H	0.253649	-0.161523	0.019207
O354	O	-0.237372	-0.108318	0.026848
C355	C	-0.291202	-0.089710	0.024216
H356	H	-0.310932	-0.112836	0.004576
H357	H	-0.279570	-0.095800	0.066244
C358	C	-0.314834	-0.001513	0.015221
C359	C	-0.339069	-0.029914	-0.008906
H360	H	-0.344359	0.035372	-0.005208
H361	H	-0.278566	-0.014050	0.016996
H362	H	-0.305140	-0.006594	0.050243
H363	H	-0.348754	-0.024839	-0.043925
H364	H	-0.375340	-0.017375	-0.010688
H365	H	-0.464345	0.412454	-0.699028
H366	H	-0.141359	-0.445576	0.161102
H367	H	-0.089609	0.136452	-0.509848
O368	O	-0.458593	0.433561	-0.426143
C369	C	-0.441155	0.433795	-0.374098
H370	H	-0.482602	0.450164	-0.372462
H371	H	-0.403003	0.391363	-0.344747
C372	C	-0.366749	0.449151	-0.361115
C373	C	-0.417656	0.469260	-0.359107
H374	H	-0.352251	0.471026	-0.351866
H375	H	-0.378495	0.448992	-0.396178
H376	H	-0.334963	0.413792	-0.336656
H377	H	-0.449444	0.504616	-0.383571
H378	H	-0.405915	0.469426	-0.324048
H379	H	-0.465241	-0.445572	-0.019831
O380	O	0.686069	-0.449691	0.312425
C381	C	0.734665	-0.452337	0.315321
H382	H	0.726368	-0.448874	0.274512
H383	H	0.736905	-0.418225	0.328067
C384	C	0.806121	-0.510238	0.406515
C385	C	0.795933	-0.505989	0.356393
H386	H	0.843915	-0.543331	0.431851
H387	H	0.773382	-0.508453	0.404565
H388	H	0.807985	-0.481808	0.417129
H389	H	0.794062	-0.534414	0.345776
H390	H	0.828674	-0.507779	0.358342
O391	O	-0.614235	-0.032592	-0.581661
C392	C	-0.579889	-0.067202	-0.599340
H393	H	-0.530996	-0.098893	-0.563467
H394	H	-0.602481	-0.087295	-0.622394
C395	C	-0.637953	0.003868	-0.680030
C396	C	-0.577899	-0.035053	-0.635970
H397	H	-0.636727	0.023699	-0.702627
H398	H	-0.661094	0.027185	-0.668121
H399	H	-0.656772	-0.012883	-0.699235
H400	H	-0.559084	-0.018301	-0.616762
H401	H	-0.554755	-0.058366	-0.647877
O402	O	-0.458892	-0.187996	-0.426263
C403	C	-0.441437	-0.205658	-0.460856
H404	H	-0.482891	-0.180600	-0.503958
H405	H	-0.403329	-0.201330	-0.452059
C406	C	-0.366933	-0.295424	-0.399363
C407	C	-0.417850	-0.264650	-0.452302
H408	H	-0.352380	-0.331814	-0.394086
H409	H	-0.378690	-0.283525	-0.376056
H410	H	-0.335183	-0.291811	-0.392039
H411	H	-0.449601	-0.268259	-0.459624
H412	H	-0.406097	-0.276552	-0.475611
H413	H	-0.141375	0.373539	0.161076
O414	O	-0.137145	0.373522	0.312433
C415	C	-0.136893	0.419237	0.315328
H416	H	-0.139413	0.434964	0.279917
H417	H	-0.178335	0.451288	0.314386
C418	C	-0.074139	0.385319	0.411092
C419	C	-0.077228	0.404632	0.367602
H420	H	-0.037336	0.376311	0.443338
H421	H	-0.074310	0.354520	0.409142
H422	H	-0.108677	0.412031	0.410299
H423	H	-0.042695	0.377918	0.368392
H424	H	-0.077050	0.435426	0.369554
O425	O	-0.147759	-0.032796	-0.581687
C426	C	-0.165183	0.019241	-0.599365
H427	H	-0.146526	0.032275	-0.563491
H428	H	-0.145561	0.019698	-0.622425
C429	C	-0.258843	0.041850	-0.680047
C430	C	-0.235932	0.057861	-0.635986
H431	H	-0.302484	0.065672	-0.702639
H432	H	-0.247103	0.006791	-0.668138
H433	H	-0.242485	0.042231	-0.699257
H434	H	-0.252284	0.057473	-0.616774
H435	H	-0.247676	0.092921	-0.647893
O436	O	-0.469443	-0.294171	-0.020010
C437	C	-0.487103	-0.261744	-0.066211
H438	H	-0.458725	-0.287305	-0.081114
H439	H	-0.538061	-0.242031	-0.098513
C440	C	-0.510746	-0.187028	-0.034606
C441	C	-0.475888	-0.218423	-0.052908
H442	H	-0.503831	-0.160304	-0.026402
H443	H	-0.498850	-0.208874	-0.003481
H444	H	-0.553207	-0.170606	-0.061527
H445	H	-0.433427	-0.234849	-0.025984
H446	H	-0.487776	-0.196579	-0.084029
O447	O	-0.081820	-0.264109	0.026830
C448	C	-0.061534	-0.231063	0.030844
H449	H	-0.102051	-0.187541	0.014645
H450	H	-0.024584	-0.241491	0.074447
C451	C	0.015210	-0.293122	0.018106
C452	C	-0.034556	-0.239667	-0.001794
H453	H	0.031854	-0.298431	-0.002025
H454	H	0.001545	-0.315387	0.015404
H455	H	0.045995	-0.301806	0.054441
H456	H	-0.065342	-0.230986	-0.038126
H457	H	-0.020895	-0.217401	0.000901
O458	O	-0.614057	0.433488	-0.581674
C459	C	-0.666327	0.433739	-0.599351
H460	H	-0.662144	0.416521	-0.563477
H461	H	-0.709458	0.476430	-0.622401
C462	C	-0.675952	0.420752	-0.680045
C463	C	-0.670811	0.399600	-0.635984
H464	H	-0.678720	0.399695	-0.702644
H465	H	-0.640738	0.420585	-0.668137
H466	H	-0.711894	0.456327	-0.699247
H467	H	-0.634866	0.364028	-0.616780
H468	H	-0.706020	0.399760	-0.647890
H469	H	-0.233373	0.136470	0.026545
H470	H	0.003515	-0.180026	0.040139
O471	O	-0.294461	-0.157353	0.018975
C472	C	-0.284622	-0.186189	0.062480
H473	H	-0.245073	-0.229846	0.077145
H474	H	-0.272597	-0.168910	0.096136
C475	C	-0.392113	-0.128438	0.026714
C476	C	-0.343543	-0.182058	0.044724
H477	H	-0.428459	-0.125888	0.015763
H478	H	-0.398742	-0.109009	-0.002595
H479	H	-0.382084	-0.114045	0.054765
H480	H	-0.353568	-0.196449	0.016671
H481	H	-0.336917	-0.201490	0.074027
O482	O	0.007632	-0.032807	-0.426301
C483	C	-0.026737	0.019239	-0.460901
H484	H	-0.053451	0.020873	-0.504000
H485	H	-0.060350	0.048581	-0.452090
C486	C	0.050026	0.032239	-0.399446
C487	C	0.017218	0.034245	-0.452381
H488	H	0.077138	0.041497	-0.394190
H489	H	0.073180	-0.002825	-0.376134
H490	H	0.022008	0.056691	-0.392110
H491	H	0.045235	0.009789	-0.459715
H492	H	-0.005930	0.069305	-0.475694
H493	H	0.253633	-0.161529	-0.159166
H494	H	-0.320923	0.412509	-0.158839
O495	O	-0.525186	0.420128	-0.657997
C496	C	-0.541140	0.417464	-0.709204
H497	H	-0.519577	0.431334	-0.721617
H498	H	-0.523379	0.374580	-0.708384
C499	C	-0.638173	0.436712	-0.734230
C500	C	-0.611692	0.453752	-0.749479
H501	H	-0.681693	0.459094	-0.759074
H502	H	-0.627424	0.438505	-0.699731
H503	H	-0.623366	0.400975	-0.733548
H504	H	-0.626493	0.489486	-0.750155
H505	H	-0.622446	0.451966	-0.783979
O506	O	0.159401	-0.108322	-0.261049
C507	C	0.191996	-0.089710	-0.225807
H508	H	0.215217	-0.112838	-0.182946
H509	H	0.228462	-0.095793	-0.231354
C510	C	0.118454	-0.001512	-0.290362
C511	C	0.146969	-0.029916	-0.237718
H512	H	0.090680	0.035372	-0.297710
H513	H	0.096495	-0.014051	-0.314106
H514	H	0.148848	-0.006587	-0.294977
H515	H	0.116576	-0.024846	-0.233105
H516	H	0.168922	-0.017374	-0.213973
O517	O	-0.237394	-0.108357	-0.658011
C518	C	-0.291242	-0.089743	-0.709220
H519	H	-0.289783	-0.125187	-0.721630
H520	H	-0.333296	-0.064623	-0.708406
C521	C	-0.297016	-0.011930	-0.734250
C522	C	-0.295221	-0.055463	-0.749494
H523	H	-0.299473	0.009217	-0.759093
H524	H	-0.260739	-0.024469	-0.699749
H525	H	-0.332061	0.008997	-0.733572
H526	H	-0.260173	-0.076393	-0.750166
H527	H	-0.331493	-0.042927	-0.783996
H528	H	-0.233032	0.136759	-0.653301
H529	H	-0.286080	-0.161551	-0.699038
H530	H	0.253957	-0.304973	0.019196
O531	O	-0.139086	-0.313182	-0.551732
C532	C	-0.124530	-0.346755	-0.580671
H533	H	-0.153458	-0.321768	-0.624285
H534	H	-0.073593	-0.368490	-0.563367
C535	C	-0.102831	-0.418512	-0.523173
C536	C	-0.138365	-0.387823	-0.576742
H537	H	-0.111362	-0.443846	-0.520748
H538	H	-0.112635	-0.395894	-0.503675
H539	H	-0.060386	-0.436619	-0.508759
H540	H	-0.180808	-0.369712	-0.591153
H541	H	-0.128568	-0.410440	-0.596242
O542	O	-0.614086	0.433556	-0.426287
C543	C	-0.666336	0.433773	-0.460885
H544	H	-0.684339	0.450138	-0.503984
H545	H	-0.653246	0.391336	-0.452066
C546	C	-0.694663	0.449125	-0.399436
C547	C	-0.716778	0.469231	-0.452372
H548	H	-0.725777	0.470995	-0.394184
H549	H	-0.659460	0.448977	-0.376126
H550	H	-0.683754	0.413762	-0.392093
H551	H	-0.727678	0.504590	-0.459712
H552	H	-0.751984	0.469386	-0.475683
H553	H	-0.464343	0.412531	-0.159158
H554	H	-0.373227	-0.260000	-0.509819
O555	O	-0.312025	-0.313474	-0.154871
C556	C	-0.263900	-0.313450	-0.111566
H557	H	-0.274768	-0.271758	-0.119264
H558	H	-0.259049	-0.325598	-0.073466
C559	C	-0.189856	-0.404541	-0.095876
C560	C	-0.203201	-0.353334	-0.105333
H561	H	-0.152413	-0.429145	-0.092029
H562	H	-0.222278	-0.404558	-0.125050
H563	H	-0.185817	-0.414657	-0.064127
H564	H	-0.207247	-0.343216	-0.137085
H565	H	-0.170777	-0.353316	-0.076164
H566	H	-0.516703	0.419862	-0.256877
H567	H	-0.769561	0.419809	-0.509821
H568	H	-0.139498	-0.036958	0.040142
H569	H	-0.516304	-0.116847	-0.256543
O570	O	-0.369219	-0.264299	-0.261026
C571	C	-0.315386	-0.315514	-0.225785
H572	H	-0.295659	-0.315610	-0.182923
H573	H	-0.327015	-0.345909	-0.231333
C574	C	-0.291751	-0.330154	-0.290340
C575	C	-0.267519	-0.330270	-0.237696
H576	H	-0.262224	-0.339258	-0.297688
H577	H	-0.328020	-0.295650	-0.314083
H578	H	-0.301441	-0.355483	-0.294956
H579	H	-0.257836	-0.304938	-0.233082
H580	H	-0.231247	-0.364770	-0.213952
O581	O	-0.369247	0.420089	-0.502361
C582	C	-0.315448	0.417450	-0.483937
H583	H	-0.295869	0.397815	-0.507161
H584	H	-0.327072	0.459475	-0.490073
C585	C	-0.291473	0.408441	-0.395627
C586	C	-0.267423	0.384320	-0.424148
H587	H	-0.261849	0.388007	-0.358746
H588	H	-0.327719	0.410221	-0.408040
H589	H	-0.301159	0.443461	-0.400747
H590	H	-0.257744	0.349304	-0.419034
H591	H	-0.231173	0.382534	-0.411734
O592	O	-0.312078	-0.313502	-0.550514
C593	C	-0.296316	-0.331935	-0.499347
H594	H	-0.317979	-0.296393	-0.487082
H595	H	-0.314116	-0.357015	-0.500154
C596	C	-0.199183	-0.409853	-0.473994
C597	C	-0.225786	-0.366200	-0.458929
H598	H	-0.155677	-0.430992	-0.449063
H599	H	-0.209802	-0.397436	-0.508467
H600	H	-0.214023	-0.430747	-0.474667
H601	H	-0.210952	-0.345304	-0.458262
H602	H	-0.215162	-0.378615	-0.424455
H603	H	0.163600	-0.259939	0.026533
H604	H	-0.769861	0.419775	-0.653273
O605	O	-0.467476	-0.157953	-0.706430
C606	C	-0.424056	-0.153221	-0.706305
H607	H	-0.390177	-0.156300	-0.664614
H608	H	-0.398010	-0.186575	-0.718304
C609	C	-0.499184	-0.095056	-0.797482
C610	C	-0.457577	-0.098833	-0.746277
H611	H	-0.519861	-0.061508	-0.822141
H612	H	-0.528437	-0.098245	-0.797568
H613	H	-0.477473	-0.122854	-0.807474
H614	H	-0.479289	-0.071039	-0.736284
H615	H	-0.428328	-0.095637	-0.746191
O616	O	-0.766065	0.132627	-0.657985
C617	C	-0.798648	0.167873	-0.709194
H618	H	-0.846484	0.201860	-0.721601
H619	H	-0.772720	0.184817	-0.708382
C620	C	-0.745895	0.095832	-0.734229
C621	C	-0.804649	0.137572	-0.749470
H622	H	-0.749595	0.077141	-0.759073
H623	H	-0.723941	0.072085	-0.699728
H624	H	-0.724294	0.109958	-0.733552
H625	H	-0.826246	0.123445	-0.750139
H626	H	-0.826607	0.161315	-0.783972
H627	H	-0.516317	-0.116849	-0.653270
H628	H	-0.770198	0.137118	-0.510514
O629	O	-0.864369	0.239051	-0.551548
C630	C	-0.818567	0.238093	-0.504600
H631	H	-0.771155	0.203002	-0.492051
H632	H	-0.822996	0.276895	-0.512344
C633	C	-0.884830	0.275135	-0.475224
C634	C	-0.826598	0.232033	-0.459808
H635	H	-0.889785	0.271399	-0.447594
H636	H	-0.915689	0.275783	-0.506854
H637	H	-0.888514	0.307465	-0.481677
H638	H	-0.822918	0.199704	-0.453362
H639	H	-0.795739	0.231380	-0.428175
O640	O	-0.467453	-0.157966	-0.154508
C641	C	-0.424038	-0.153206	-0.111221
H642	H	-0.375795	-0.185607	-0.099171
H643	H	-0.434375	-0.112321	-0.123453
C644	C	-0.487073	-0.119672	-0.078494
C645	C	-0.427819	-0.159470	-0.063690
H646	H	-0.489406	-0.123533	-0.049175
H647	H	-0.516324	-0.122876	-0.107658
H648	H	-0.495680	-0.085605	-0.088688
H649	H	-0.419217	-0.193536	-0.053504
H650	H	-0.398567	-0.156271	-0.034523
