data_functionalizedCrystal
_audit_creation_method	'MofGen! by Chris Wilmer'
_symmetry_space_group_name_H-M	'P1'
_symmetry_Int_Tables_number	1
_symmetry_cell_setting	triclinic
loop_
_symmetry_equiv_pos_as_xyz
  x,y,z
_cell_length_a	16.109301
_cell_length_b	10.540539
_cell_length_c	15.186229
_cell_angle_alpha	89.998389
_cell_angle_beta	89.999362
_cell_angle_gamma	83.993486
loop_
_atom_site_label
_atom_site_type_symbol
_atom_site_fract_x
_atom_site_fract_y
_atom_site_fract_z
O1	O	1.104128	0.163159	-0.073169
O2	O	0.862191	0.183464	-0.073182
O3	O	0.988679	-0.011474	-0.073174
O4	O	0.977640	0.358096	-0.073177
O5	O	0.988671	-0.011477	0.073283
O6	O	0.862182	0.183461	0.073275
O7	O	1.104120	0.163156	0.073289
Zn8	Zn	0.983150	0.173308	0.096535
Zn9	Zn	0.983161	0.173312	-0.096429
O10	O	0.977631	0.358094	0.073280
C11	C	0.831206	0.182640	0.000045
C12	C	0.738896	0.180174	0.000039
C13	C	0.517296	0.290112	0.000049
C14	C	0.430561	0.287785	0.000054
C15	C	0.449021	0.056499	0.000053
C16	C	0.535754	0.058827	0.000053
C17	C	0.569889	0.175637	0.000047
C18	C	0.396421	0.170982	0.000052
C19	C	0.302380	0.168459	0.000058
C20	C	0.663936	0.178162	0.000042
C21	C	0.987847	-0.058767	0.000053
C22	C	0.985370	-0.199679	0.000048
C23	C	0.890460	-0.381753	-0.000286
C24	C	0.892971	-0.235171	0.000044
C25	C	1.029832	-0.261972	0.083685
C26	C	1.026678	-0.408472	0.083755
C27	C	1.028567	-0.409014	-0.082794
C28	C	1.029418	-0.262044	-0.083900
C29	C	1.135104	0.163980	0.000060
C30	C	1.227414	0.166446	0.000059
C31	C	0.978463	0.405386	0.000052
C32	C	0.980940	0.546299	0.000051
N33	N	0.983148	0.173305	0.228228
N34	N	0.983169	0.173305	-0.228121
C35	C	1.039177	0.087015	0.453954
C36	C	1.039179	0.087012	0.546144
C37	C	0.927134	0.259598	0.546146
C38	C	0.927128	0.259594	0.453958
C39	C	0.983154	0.173304	0.407864
C40	C	0.983163	0.173305	0.592242
C41	C	0.983165	0.173303	0.692198
C42	C	0.983151	0.173305	0.307902
H43	H	0.578578	-0.034398	0.000054
H44	H	0.881504	0.329861	0.416429
H45	H	1.093130	-0.457388	0.087553
O46	O	0.993099	-0.210523	0.157962
C47	C	1.010744	-0.094582	0.292259
C48	C	1.052450	-0.152761	0.208170
H49	H	1.058714	-0.047891	0.332884
H50	H	0.957355	-0.019846	0.273492
H51	H	0.985293	-0.173032	0.332683
H52	H	1.077951	-0.074400	0.167707
H53	H	1.105799	-0.227527	0.226997
H54	H	0.387743	0.381003	0.000058
O55	O	0.872751	0.343595	0.590823
C56	C	0.825372	0.564295	0.619059
C57	C	0.886996	0.469306	0.568396
H58	H	0.836879	0.665953	0.600958
H59	H	0.758669	0.547826	0.600920
H60	H	0.834984	0.549418	0.692861
H61	H	0.877460	0.484126	0.494581
H62	H	0.953677	0.485799	0.586607
H63	H	1.084795	0.016751	0.416427
O64	O	0.550494	0.403546	-0.000107
C65	C	0.637739	0.540385	-0.075954
C66	C	0.600187	0.411887	-0.075899
H67	H	0.677938	0.547159	-0.137216
H68	H	0.585279	0.621852	-0.076007
H69	H	0.677849	0.547236	-0.014635
H70	H	0.560086	0.404911	-0.137208
H71	H	0.652687	0.330481	-0.075800
O72	O	0.987412	-0.441340	0.158356
C73	C	0.919399	-0.368451	0.293177
C74	C	0.963838	-0.331058	0.208718
H75	H	0.900342	-0.279313	0.333927
H76	H	0.861448	-0.416153	0.274889
H77	H	0.963566	-0.437598	0.333272
H78	H	0.919737	-0.261874	0.168584
H79	H	1.021800	-0.283427	0.227066
O80	O	0.415901	-0.056998	0.000204
C81	C	0.405182	-0.255435	0.076040
C82	C	0.442725	-0.126930	0.075993
H83	H	0.426868	-0.312023	0.137299
H84	H	0.334153	-0.237516	0.076093
H85	H	0.426777	-0.311941	0.014718
H86	H	0.421194	-0.070359	0.137305
H87	H	0.513749	-0.144939	0.075895
O88	O	1.110828	-0.236681	0.087365
C89	C	1.255274	-0.323354	0.090481
C90	C	1.163584	-0.352177	0.086292
H91	H	1.297952	-0.416713	0.089633
H92	H	1.269739	-0.262906	0.031276
H93	H	1.266004	-0.269090	0.153706
H94	H	1.152788	-0.406481	0.023104
H95	H	1.149163	-0.412567	0.145541
H96	H	1.084796	0.016747	0.583668
H97	H	0.857986	-0.192068	-0.059910
O98	O	0.846931	-0.415041	-0.071904
C99	C	0.773449	-0.343512	-0.203991
C100	C	0.822747	-0.305633	-0.122929
H101	H	0.753867	-0.255073	-0.245257
H102	H	0.814406	-0.415519	-0.245276
H103	H	0.715523	-0.387986	-0.181412
H104	H	0.880676	-0.261104	-0.145430
H105	H	0.781732	-0.233680	-0.081662
H106	H	0.854106	-0.411444	0.059352
H107	H	0.857734	-0.192914	0.060094
H108	H	0.998666	-0.440139	-0.146185
O109	O	0.990804	-0.212620	-0.157783
C110	C	1.004465	-0.097283	-0.293123
C111	C	1.048304	-0.153235	-0.209503
H112	H	1.050930	-0.049234	-0.334953
H113	H	0.979512	-0.177102	-0.332602
H114	H	0.950471	-0.024009	-0.273683
H115	H	1.102330	-0.226493	-0.228866
H116	H	1.073197	-0.073346	-0.170045
H117	H	1.096785	-0.238783	-0.088946
H118	H	1.095307	-0.457191	-0.083353
