data_functionalizedCrystal
_audit_creation_method	'MofGen! by Chris Wilmer'
_symmetry_space_group_name_H-M	'P1'
_symmetry_Int_Tables_number	1
_symmetry_cell_setting	triclinic
loop_
_symmetry_equiv_pos_as_xyz
  x,y,z
_cell_length_a	14.519709
_cell_length_b	16.956995
_cell_length_c	16.053802
_cell_angle_alpha	87.607939
_cell_angle_beta	92.569364
_cell_angle_gamma	79.867308
loop_
_atom_site_label
_atom_site_type_symbol
_atom_site_fract_x
_atom_site_fract_y
_atom_site_fract_z
O1	O	0.034075	1.061452	-0.069487
O2	O	0.367409	1.394786	0.263846
O3	O	0.700742	1.728119	0.597179
O4	O	0.066448	0.829341	-0.069477
O5	O	0.399782	1.162674	0.263856
O6	O	0.733115	1.496008	0.597190
O7	O	-0.084457	0.951550	-0.069475
O8	O	0.248876	1.284884	0.263858
O9	O	0.582210	1.618217	0.597192
O10	O	0.184981	0.939243	-0.069489
O11	O	0.518314	1.272576	0.263844
O12	O	0.851647	1.605910	0.597177
O13	O	-0.076183	0.944824	0.069384
O14	O	0.257151	1.278157	0.402717
O15	O	0.590484	1.611490	0.736051
O16	O	0.074723	0.822614	0.069382
O17	O	0.408056	1.155947	0.402715
O18	O	0.741389	1.489281	0.736049
O19	O	0.042350	1.054726	0.069372
O20	O	0.375683	1.388059	0.402705
O21	O	0.709016	1.721392	0.736038
Zn22	Zn	0.059850	0.937602	0.091424
Zn23	Zn	0.393183	1.270935	0.424757
Zn24	Zn	0.726516	1.604268	0.758090
Zn25	Zn	0.048948	0.946465	-0.091529
Zn26	Zn	0.382282	1.279798	0.241804
Zn27	Zn	0.715615	1.613131	0.575138
O28	O	0.193255	0.932516	0.069369
O29	O	0.526588	1.265849	0.402703
O30	O	0.859922	1.599183	0.736036
C31	C	0.072243	0.796272	-0.000046
C32	C	0.405576	1.129605	0.333287
C33	C	0.738910	1.462938	0.666621
C34	C	0.077171	0.707758	-0.000042
C35	C	0.410504	1.041091	0.333291
C36	C	0.743838	1.374425	0.666625
C37	C	0.114035	0.208512	-0.000075
C38	C	0.447368	0.541845	0.333258
C39	C	0.780701	0.875179	0.666592
C40	C	0.109397	0.291680	-0.000074
C41	C	0.442730	0.625014	0.333259
C42	C	0.776064	0.958347	0.666593
C43	C	0.022351	0.342644	-0.000063
C44	C	0.355684	0.675977	0.333270
C45	C	0.689018	1.009311	0.666604
C46	C	-0.060063	0.310436	-0.000061
C47	C	0.273270	0.643769	0.333272
C48	C	0.606603	0.977103	0.666605
C49	C	-0.055426	0.227269	-0.000068
C50	C	0.277908	0.560602	0.333265
C51	C	0.611241	0.893936	0.666598
C52	C	-0.000605	0.592383	-0.000047
C53	C	0.332728	0.925716	0.333286
C54	C	0.666061	1.259050	0.666620
C55	C	-0.005237	0.675555	-0.000038
C56	C	0.328096	1.008888	0.333296
C57	C	0.661430	1.342222	0.666629
C58	C	0.164224	0.656794	-0.000052
C59	C	0.497557	0.990127	0.333281
C60	C	0.830891	1.323460	0.666615
C61	C	0.168855	0.573626	-0.000054
C62	C	0.502188	0.906959	0.333280
C63	C	0.835521	1.240293	0.666613
C64	C	0.086440	0.541425	-0.000057
C65	C	0.419773	0.874758	0.333277
C66	C	0.753107	1.208092	0.666610
N67	N	0.017609	0.427656	-0.000059
N68	N	0.350942	0.760989	0.333274
N69	N	0.684276	1.094322	0.666607
N70	N	0.091183	0.456415	-0.000066
N71	N	0.424516	0.789748	0.333267
N72	N	0.757849	1.123082	0.666601
C73	C	-0.114635	0.947613	-0.000045
C74	C	0.218698	1.280947	0.333288
C75	C	0.552032	1.614280	0.666621
C76	C	-0.216882	0.945894	-0.000045
C77	C	0.116452	1.279228	0.333289
C78	C	0.449785	1.612561	0.666622
C79	C	-0.591284	0.939567	-0.000066
C80	C	-0.257951	1.272901	0.333267
C81	C	0.075382	1.606234	0.666601
C82	C	-0.487113	0.941324	-0.000060
C83	C	-0.153780	1.274658	0.333273
C84	C	0.179553	1.607991	0.666607
C85	C	-0.404086	0.942731	-0.000055
C86	C	-0.070753	1.276064	0.333279
C87	C	0.262580	1.609397	0.666612
C88	C	-0.299909	0.944488	-0.000050
C89	C	0.033424	1.277821	0.333283
C90	C	0.366758	1.611155	0.666617
C91	C	0.223433	0.936453	-0.000062
C92	C	0.556766	1.269787	0.333271
C93	C	0.890099	1.603120	0.666605
C94	C	0.325679	0.938172	-0.000068
C95	C	0.659013	1.271506	0.333265
C96	C	0.992346	1.604839	0.666599
C97	C	0.036555	1.087795	-0.000061
C98	C	0.369888	1.421128	0.333272
C99	C	0.703221	1.754461	0.666606
C100	C	0.031626	1.176309	-0.000071
C101	C	0.364960	1.509642	0.333263
C102	C	0.698293	1.842975	0.666596
N103	N	0.067289	0.931559	0.216284
N104	N	0.400622	1.264892	0.549617
N105	N	0.733955	1.598226	0.882950
N106	N	0.041501	0.952514	-0.216389
N107	N	0.374835	1.285847	0.116944
N108	N	0.708168	1.619180	0.450278
C109	C	0.003098	0.983578	0.259979
C110	C	0.336432	1.316912	0.593312
C111	C	0.669765	1.650245	0.926645
C112	C	0.008310	0.979359	0.347385
C113	C	0.341643	1.312692	0.680719
C114	C	0.674977	1.646025	1.014052
C115	C	0.077717	0.923123	0.391096
C116	C	0.411051	1.256456	0.724429
C117	C	0.744384	1.589790	1.057762
C118	C	0.141911	0.871098	0.347395
C119	C	0.475244	1.204431	0.680728
C120	C	0.808578	1.537765	1.014061
C121	C	0.136694	0.875315	0.259990
C122	C	0.470028	1.208648	0.593323
C123	C	0.803361	1.541981	0.926656
C124	C	0.100478	0.904705	0.652505
C125	C	0.433812	1.238039	0.985838
C126	C	0.767145	1.571372	1.319172
C127	C	0.105692	0.900494	0.739916
C128	C	0.439025	1.233828	1.073249
C129	C	0.772359	1.567161	1.406583
C130	C	-0.027911	1.008754	0.739901
C131	C	0.305423	1.342088	1.073234
C132	C	0.638756	1.675421	1.406567
C133	C	-0.033118	1.012969	0.652494
C134	C	0.300216	1.346302	0.985827
C135	C	0.633549	1.679636	1.319161
C136	C	0.031073	0.960941	0.608801
C137	C	0.364406	1.294275	0.942134
C138	C	0.697740	1.627608	1.275467
N139	N	0.083048	0.918810	0.480439
N140	N	0.416381	1.252144	0.813773
N141	N	0.749715	1.585477	1.147106
N142	N	0.025737	0.965251	0.519459
N143	N	0.359071	1.298584	0.852792
N144	N	0.692404	1.631918	1.186125
H145	H	-0.053417	1.029375	0.224395
H146	H	0.279917	1.362708	0.557729
H147	H	0.613250	1.696041	0.891062
N148	N	0.166068	0.851579	0.607885
N149	N	0.499401	1.184913	0.941218
N150	N	0.832735	1.518246	1.274552
N151	N	0.218490	0.879309	0.559101
N152	N	0.551824	1.212642	0.892435
N153	N	0.885157	1.545975	1.225768
H154	H	0.264820	0.841788	0.527587
H155	H	0.598153	1.175121	0.860920
H156	H	0.931487	1.508455	1.194253
H157	H	0.176502	0.317896	-0.000085
H158	H	0.509835	0.651229	0.333248
H159	H	0.843169	0.984563	0.666581
H160	H	0.162216	0.854698	0.775501
H161	H	0.495549	1.188031	1.108834
H162	H	0.828882	1.521365	1.442168
H163	H	0.239737	0.532136	-0.000065
H164	H	0.573070	0.865469	0.333268
H165	H	0.906403	1.198803	0.666601
H166	H	-0.043959	1.021716	0.382961
H167	H	0.289374	1.355050	0.716294
H168	H	0.622707	1.688383	1.049628
N169	N	0.202943	0.156446	-0.000093
N170	N	0.536277	0.489780	0.333240
N171	N	0.869610	0.823113	0.666573
N172	N	0.207076	0.082192	-0.000100
N173	N	0.540410	0.415525	0.333233
N174	N	0.873743	0.748859	0.666566
H175	H	0.269870	0.045421	-0.000116
H176	H	0.603204	0.378754	0.333217
H177	H	0.936537	0.712088	0.666551
H178	H	-0.089634	1.058761	0.616907
H179	H	0.243699	1.392094	0.950240
H180	H	0.577032	1.725427	1.283573
H181	H	0.198421	0.825306	0.382989
H182	H	0.531754	1.158639	0.716322
H183	H	0.865088	1.491972	1.049655
H184	H	0.188964	0.832954	0.224414
H185	H	0.522297	1.166287	0.557747
H186	H	0.855630	1.499621	0.891081
N187	N	0.248394	0.689700	-0.000048
N188	N	0.581728	1.023034	0.333286
N189	N	0.915061	1.356367	0.666619
N190	N	0.244247	0.763956	-0.000040
N191	N	0.577580	1.097290	0.333294
N192	N	0.910913	1.430623	0.666627
H193	H	0.303695	0.787197	-0.000039
H194	H	0.637028	1.120531	0.333295
H195	H	0.970362	1.453864	0.666628
N196	N	-0.094165	0.727603	-0.000015
N197	N	0.239169	1.060936	0.333318
N198	N	0.572502	1.394270	0.666652
N199	N	-0.167741	0.698843	-0.000011
N200	N	0.165592	1.032177	0.333323
N201	N	0.498926	1.365510	0.666656
H202	H	-0.230543	0.735601	0.000010
H203	H	0.102790	1.068935	0.333344
H204	H	0.436123	1.402268	0.666677
H205	H	-0.067713	0.566176	-0.000047
H206	H	0.265620	0.899509	0.333286
H207	H	0.598954	1.232842	0.666620
H208	H	-0.130938	0.351937	-0.000057
H209	H	0.202395	0.685271	0.333276
H210	H	0.535728	1.018604	0.666609
H211	H	-0.122531	0.201051	-0.000067
H212	H	0.210802	0.534385	0.333267
H213	H	0.544136	0.867718	0.666600
N214	N	-0.093468	1.061890	0.784546
N215	N	0.239865	1.395223	1.117879
N216	N	0.573199	1.728557	1.451212
N217	N	-0.088805	1.058122	0.862585
N218	N	0.244529	1.391455	1.195918
N219	N	0.577862	1.724788	1.529252
H220	H	-0.135109	1.095649	0.894117
H221	H	0.198225	1.428982	1.227450
H222	H	0.531558	1.762316	1.560784
