data_functionalizedCrystal
_audit_creation_method	'MofGen! by Chris Wilmer'
_symmetry_space_group_name_H-M	'P1'
_symmetry_Int_Tables_number	1
_symmetry_cell_setting	triclinic
loop_
_symmetry_equiv_pos_as_xyz
  x,y,z
_cell_length_a	12.594517
_cell_length_b	12.594516
_cell_length_c	12.594509
_cell_angle_alpha	89.973801
_cell_angle_beta	90.021327
_cell_angle_gamma	89.984147
loop_
_atom_site_label
_atom_site_type_symbol
_atom_site_fract_x
_atom_site_fract_y
_atom_site_fract_z
Zn1	Zn	1.627267	0.423716	0.601875
Zn2	Zn	1.627158	0.601726	0.423903
Zn3	Zn	1.449271	0.423761	0.423904
Zn4	Zn	1.449253	0.601652	0.601833
O5	O	1.538237	0.512714	0.512879
O6	O	1.776198	0.447341	0.578284
O7	O	1.603522	0.578169	0.274957
O8	O	1.472936	0.274809	0.447530
O9	O	1.776118	0.578124	0.447528
O10	O	1.603709	0.274776	0.578285
O11	O	1.472830	0.447419	0.274958
O12	O	1.300323	0.447347	0.447489
O13	O	1.472905	0.577998	0.750784
O14	O	1.300310	0.578042	0.578213
O15	O	1.603691	0.447269	0.750815
O16	O	1.603505	0.750662	0.447488
O17	O	1.472799	0.750608	0.578212
C18	C	1.538167	0.789255	0.512868
C19	C	1.538235	0.907560	0.512899
C20	C	1.261696	0.512692	0.512847
C21	C	1.143391	0.512709	0.512859
C22	C	1.538308	0.512620	0.790500
C23	C	1.538339	0.512581	0.908805
C24	C	1.074114	0.441526	0.441894
C25	C	1.003303	0.538615	0.415718
C26	C	1.003403	0.415668	0.539054
C27	C	1.074138	0.609849	0.486632
C28	C	1.074244	0.486836	0.610013
C29	C	1.003465	0.583991	0.583874
C30	C	1.815858	0.512736	0.512911
C31	C	1.934163	0.512745	0.512924
C32	C	1.538336	0.235093	0.512912
C33	C	1.538378	0.116787	0.512927
C34	C	1.467137	0.976822	0.583950
C35	C	1.441204	1.047688	0.486827
C36	C	1.564265	1.047494	0.610039
C37	C	1.512250	0.976867	0.415725
C38	C	1.635357	0.976667	0.539002
C39	C	1.609460	1.047500	0.441812
C40	C	1.538227	0.512730	0.236338
C41	C	1.538403	0.512470	0.118033
C42	C	1.467227	0.583644	0.978042
C43	C	1.564347	0.609650	1.048833
C44	C	1.441294	0.486510	1.048813
C45	C	1.635510	0.538638	0.978038
C46	C	1.512391	0.415453	0.978012
C47	C	1.609579	0.441422	1.048772
H48	H	1.105135	0.381389	0.381807
H49	H	1.717406	0.945451	0.561104
N50	N	1.338246	1.086809	0.459122
N51	N	1.264473	1.023220	0.440109
H52	H	1.191756	1.050845	0.420547
N53	N	0.964209	0.566078	0.312680
N54	N	0.906131	0.502681	0.263131
H55	H	0.878525	0.522068	0.190358
N56	N	1.684975	1.086181	0.366373
N57	N	1.738143	1.022284	0.312179
H58	H	1.791472	1.049602	0.258897
H59	H	1.105080	0.691955	0.464413
H60	H	1.586224	1.078518	0.692178
N61	N	1.338314	0.458873	1.087811
N62	N	1.326736	0.378259	1.144561
H63	H	1.254005	0.358745	1.172100
H64	H	1.490382	0.333385	0.946881
N65	N	1.484551	0.938128	0.312657
N66	N	1.396790	0.961690	0.272687
H67	H	1.377221	0.934332	0.199898
N68	N	1.391848	0.659156	0.939089
N69	N	1.401603	0.755261	0.961811
H70	H	1.348371	0.808594	0.934301
H71	H	1.586329	0.691742	1.079941
H72	H	0.972639	0.644273	0.643914
N73	N	1.391567	0.937879	0.659201
N74	N	1.316851	0.879951	0.629039
H75	H	1.263476	0.852445	0.682179
N76	N	1.738528	0.566349	0.939194
N77	N	1.755117	0.570901	0.841453
H78	H	1.827872	0.590471	0.814015
N79	N	1.685134	0.365961	1.087475
N80	N	1.739366	0.312821	1.023593
H81	H	1.792729	0.259529	1.050926
N82	N	1.113376	0.459344	0.713021
N83	N	1.089489	0.514976	0.791634
H84	H	1.117129	0.495552	0.864385
N85	N	0.964423	0.312695	0.566802
N86	N	0.987065	0.234230	0.510440
H87	H	0.959538	0.161503	0.530028
