data_functionalizedCrystal
_audit_creation_method	'MofGen! by Chris Wilmer'
_symmetry_space_group_name_H-M	'P1'
_symmetry_Int_Tables_number	1
_symmetry_cell_setting	triclinic
loop_
_symmetry_equiv_pos_as_xyz
  x,y,z
_cell_length_a	25.639242
_cell_length_b	25.639240
_cell_length_c	19.120904
_cell_angle_alpha	87.596818
_cell_angle_beta	87.585184
_cell_angle_gamma	90.027658
loop_
_atom_site_label
_atom_site_type_symbol
_atom_site_fract_x
_atom_site_fract_y
_atom_site_fract_z
Zn1	Zn	0.786648	-0.220847	0.397218
Zn2	Zn	1.286648	0.279153	0.897218
Zn3	Zn	0.790306	-0.304551	0.279753
Zn4	Zn	1.290306	0.195449	0.779753
Zn5	Zn	0.702949	-0.217124	0.279768
Zn6	Zn	1.202949	0.282876	0.779768
Zn7	Zn	0.699181	-0.308243	0.397143
Zn8	Zn	1.199181	0.191757	0.897143
O9	O	0.744771	-0.262691	0.338470
O10	O	1.244771	0.237309	0.838470
O11	O	0.860297	-0.231963	0.381661
O12	O	1.360297	0.268037	0.881661
O13	O	0.781826	-0.289851	0.181474
O14	O	1.281826	0.210149	0.681474
O15	O	0.714098	-0.144454	0.295386
O16	O	1.214098	0.355546	0.795386
O17	O	0.862985	-0.293460	0.295360
O18	O	1.362985	0.206540	0.795360
O19	O	0.775591	-0.147189	0.381676
O20	O	1.275591	0.352811	0.881676
O21	O	0.717646	-0.225618	0.181485
O22	O	1.217646	0.274382	0.681485
O23	O	0.629285	-0.229198	0.295313
O24	O	1.129285	0.270802	0.795313
O25	O	0.707675	-0.299753	0.495434
O26	O	1.207675	0.200247	0.995434
O27	O	0.626516	-0.296143	0.381548
O28	O	1.126516	0.203857	0.881548
O29	O	0.771937	-0.235543	0.495489
O30	O	1.271937	0.264457	0.995489
O31	O	0.778172	-0.378205	0.295287
O32	O	1.278172	0.121795	0.795287
O33	O	0.711222	-0.380917	0.381533
O34	O	1.211222	0.119083	0.881533
C35	C	0.608930	-0.262668	0.338425
C36	C	1.108930	0.237332	0.838425
C37	C	0.550816	-0.262671	0.338422
C38	C	1.050816	0.237329	0.838422
C39	C	0.301051	-0.227780	0.293646
C40	C	0.801051	0.272220	0.793646
C41	C	0.355656	-0.227775	0.293637
C42	C	0.855656	0.272225	0.793637
O43	O	0.385109	-0.198077	0.255527
O44	O	0.885109	0.301923	0.755527
N45	N	0.381541	-0.262678	0.338457
N46	N	0.881541	0.237322	0.838457
C47	C	0.352818	-0.297586	0.383294
C48	C	0.852818	0.202414	0.883294
O49	O	0.379849	-0.327273	0.421417
O50	O	0.879849	0.172727	0.921417
C51	C	0.298214	-0.297588	0.383306
C52	C	0.798214	0.202412	0.883306
C53	C	0.272333	-0.262686	0.338478
C54	C	0.772333	0.237314	0.838478
C55	C	0.275169	-0.192880	0.248822
C56	C	0.775169	0.307120	0.748822
C57	C	0.220569	-0.192886	0.248830
C58	C	0.720569	0.307114	0.748830
C59	C	0.191850	-0.227792	0.293662
C60	C	0.691850	0.272208	0.793662
C61	C	0.217732	-0.262691	0.338486
C62	C	0.717732	0.237309	0.838486
C63	C	0.269492	-0.332492	0.428146
C64	C	0.769492	0.167508	0.928146
C65	C	0.214885	-0.332491	0.428155
C66	C	0.714885	0.167509	0.928155
C67	C	0.189003	-0.297589	0.383327
C68	C	0.689003	0.202411	0.883327
C69	C	0.134412	-0.297603	0.383326
C70	C	0.634412	0.202397	0.883326
N71	N	0.108527	-0.262700	0.338506
N72	N	0.608527	0.237300	0.838506
C73	C	0.137246	-0.227794	0.293674
C74	C	0.637246	0.272206	0.793674
C75	C	0.467490	-0.297578	0.383267
C76	C	0.967490	0.202422	0.883267
C77	C	0.522092	-0.297579	0.383252
C78	C	1.022092	0.202421	0.883252
C79	C	0.524926	-0.227767	0.293595
C80	C	1.024926	0.272233	0.793595
C81	C	0.470323	-0.227769	0.293607
C82	C	0.970323	0.272231	0.793607
C83	C	0.441605	-0.262674	0.338446
C84	C	0.941605	0.237326	0.838446
C85	C	0.022580	-0.227809	0.293694
C86	C	0.522580	0.272191	0.793694
C87	C	-0.032025	-0.227820	0.293704
C88	C	0.467975	0.272180	0.793704
C89	C	-0.034855	-0.297629	0.383363
C90	C	0.465145	0.202371	0.883363
C91	C	0.019746	-0.297621	0.383351
C92	C	0.519746	0.202379	0.883351
C93	C	0.048462	-0.262707	0.338514
C94	C	0.548462	0.237293	0.838514
O95	O	0.104925	-0.327284	0.421419
O96	O	0.604925	0.172716	0.921419
O97	O	0.110208	-0.198107	0.255564
O98	O	0.610208	0.301893	0.755564
C99	C	0.744699	-0.398532	0.338415
C100	C	1.244699	0.101468	0.838415
C101	C	0.744715	-0.456646	0.338415
C102	C	1.244715	0.043354	0.838415
C103	C	0.776804	-0.818399	0.383482
C104	C	1.276804	-0.318399	0.883482
C105	C	0.776819	-0.873004	0.383497
C106	C	1.276819	-0.373004	0.883497
O107	O	0.804017	-0.902421	0.421758
O108	O	1.304017	-0.402421	0.921758
N109	N	0.744841	-0.898932	0.338538
N110	N	1.244841	-0.398932	0.838538
C111	C	0.712842	-0.870253	0.293568
C112	C	1.212842	-0.370253	0.793568
O113	O	0.685644	-0.897322	0.255329
O114	O	1.185644	-0.397322	0.755329
C115	C	0.712825	-0.815650	0.293557
C116	C	1.212825	-0.315650	0.793557
C117	C	0.744809	-0.789724	0.338514
C118	C	1.244809	-0.289724	0.838514
C119	C	0.808785	-0.792473	0.428436
C120	C	1.308785	-0.292473	0.928436
C121	C	0.808771	-0.737872	0.428420
C122	C	1.308771	-0.237872	0.928420
C123	C	0.776775	-0.709197	0.383452
C124	C	1.276775	-0.209197	0.883452
C125	C	0.744795	-0.735123	0.338498
C126	C	1.244795	-0.235123	0.838498
C127	C	0.680824	-0.786972	0.248591
C128	C	1.180824	-0.286972	0.748591
C129	C	0.680809	-0.732365	0.248585
C130	C	1.180809	-0.232365	0.748585
C131	C	0.712793	-0.706439	0.293541
C132	C	1.212793	-0.206439	0.793541
C133	C	0.712785	-0.651847	0.293514
C134	C	1.212785	-0.151847	0.793514
N135	N	0.744763	-0.625918	0.338473
N136	N	1.244763	-0.125918	0.838473
C137	C	0.776758	-0.654593	0.383441
C138	C	1.276758	-0.154593	0.883441
C139	C	0.712881	-0.984925	0.293593
C140	C	1.212881	-0.484925	0.793593
C141	C	0.712900	-1.039527	0.293600
C142	C	1.212900	-0.539527	0.793600
C143	C	0.776877	-1.042274	0.383530
C144	C	1.276877	-0.542274	0.883530
C145	C	0.776859	-0.987670	0.383519
C146	C	1.276859	-0.487670	0.883519
C147	C	0.744858	-0.958996	0.338552
C148	C	1.244858	-0.458996	0.838552
C149	C	0.776726	-0.539927	0.383405
C150	C	1.276726	-0.039927	0.883405
C151	C	0.776710	-0.485321	0.383384
C152	C	1.276710	0.014679	0.883384
C153	C	0.712732	-0.482579	0.293457
C154	C	1.212732	0.017421	0.793457
C155	C	0.712750	-0.537180	0.293475
C156	C	1.212750	-0.037180	0.793475
C157	C	0.744748	-0.565853	0.338455
C158	C	1.244748	-0.065853	0.838455
O159	O	0.685600	-0.622396	0.255275
O160	O	1.185600	-0.122396	0.755275
O161	O	0.803947	-0.627518	0.421680
O162	O	1.303947	-0.127518	0.921680
C163	C	0.881142	-0.262715	0.338517
C164	C	1.381142	0.237285	0.838517
C165	C	0.939256	-0.262725	0.338536
C166	C	1.439256	0.237275	0.838536
C167	C	0.738977	-0.268475	0.521657
C168	C	1.238977	0.231525	1.021657
C169	C	0.736509	-0.270940	0.599720
C170	C	1.236509	0.229060	1.099720
C171	C	0.744857	-0.126320	0.338541
C172	C	1.244857	0.373680	0.838541
C173	C	0.744894	-0.068207	0.338571
C174	C	1.244894	0.431793	0.838571
C175	C	0.750572	-0.256892	0.155996
C176	C	1.250572	0.243108	0.655996
C177	C	0.753142	-0.254280	0.077933
C178	C	1.253142	0.245720	0.577933
C179	C	0.768805	-0.238669	0.636424
C180	C	1.268805	0.261331	1.136424
C181	C	0.766479	-0.240982	0.709773
C182	C	1.266479	0.259018	1.209773
C183	C	0.731859	-0.275570	0.746417
C184	C	1.231859	0.224430	1.246417
C185	C	0.699559	-0.307843	0.709707
C186	C	1.199559	0.192157	1.209707
C187	C	0.701883	-0.305526	0.636360
C188	C	1.201883	0.194474	1.136360
C189	C	0.723166	-0.284236	0.967877
C190	C	1.223166	0.215764	1.467877
C191	C	0.720846	-0.286551	1.041229
C192	C	1.220846	0.213449	1.541229
C193	C	0.787765	-0.219690	1.041290
C194	C	1.287765	0.280310	1.541290
C195	C	0.790088	-0.217378	0.967941
C196	C	1.290088	0.282622	1.467941
C197	C	0.757786	-0.249649	0.931239
C198	C	1.257786	0.250351	1.431239
C199	C	0.729481	-0.277937	0.821391
C200	C	1.229481	0.222063	1.321391
C201	C	0.760161	-0.247279	0.856266
C202	C	1.260161	0.252721	1.356266
H203	H	0.191505	-0.360914	0.464672
H204	H	0.691505	0.139086	0.964672
C205	C	0.691397	-0.315980	0.861706
C206	C	1.191397	0.184020	1.361706
N207	N	0.662709	-0.344631	0.892073
N208	N	1.162709	0.155369	1.392073
C209	C	0.441858	-0.189370	0.244298
C210	C	0.941858	0.310630	0.744298
N211	N	0.420421	-0.160445	0.207159
N212	N	0.920421	0.339555	0.707159
C213	C	0.677537	-0.451026	0.243996
C214	C	1.177537	0.048974	0.743996
N215	N	0.651024	-0.427259	0.206747
N216	N	1.151024	0.072741	0.706747
C217	C	0.666356	-0.341027	0.595986
C218	C	1.166356	0.158973	1.095986
N219	N	0.639594	-0.367768	0.565577
N220	N	1.139594	0.132232	1.065577
C221	C	0.843958	-0.709361	0.477874
C222	C	1.343958	-0.209361	0.977874
N223	N	0.870463	-0.687890	0.515124
N224	N	1.370463	-0.187890	1.015124
C225	C	-0.060492	-0.189420	0.244391
C226	C	0.439508	0.310580	0.744391
N227	N	-0.081931	-0.160497	0.207252
N228	N	0.418069	0.339503	0.707252
C229	C	0.556527	-0.189366	0.244283
C230	C	1.056527	0.310634	0.744283
N231	N	0.580331	-0.160444	0.207144
N232	N	1.080331	0.339556	0.707144
C233	C	0.812041	-0.959157	0.432977
C234	C	1.312041	-0.459157	0.932977
N235	N	0.838541	-0.937684	0.470232
N236	N	1.338541	-0.437684	0.970232
C237	C	0.806889	-0.200618	0.596124
C238	C	1.306889	0.299382	1.096124
N239	N	0.835574	-0.171956	0.565771
N240	N	1.335574	0.328044	1.065771
H241	H	0.654779	-0.808071	0.211982
H242	H	1.154779	-0.308071	0.711982
C243	C	0.811929	-0.571459	0.432881
C244	C	1.311929	-0.071459	0.932881
N245	N	0.838448	-0.595209	0.470142
N246	N	1.338448	-0.095209	0.970142
H247	H	0.802928	-1.065631	0.420147
H248	H	1.302928	-0.565631	0.920147
H249	H	0.543161	-0.326005	0.419748
H250	H	1.043161	0.173995	0.919748
C251	C	0.843990	-0.824007	0.477903
C252	C	1.343990	-0.324007	0.977903
N253	N	0.870513	-0.847755	0.515160
N254	N	1.370513	-0.347755	1.015160
H255	H	0.686710	-0.558290	0.256863
H256	H	1.186710	-0.058290	0.756863
H257	H	0.444110	-0.326006	0.419779
H258	H	0.944110	0.173994	0.919779
H259	H	0.686862	-1.060631	0.256984
H260	H	1.186862	-0.560631	0.756984
H261	H	0.654748	-0.709021	0.211968
H262	H	1.154748	-0.209021	0.711968
H263	H	0.290556	-0.360914	0.464650
H264	H	0.790556	0.139086	0.964650
C265	C	0.828167	-0.179324	0.927639
C266	C	1.328167	0.320676	1.427639
N267	N	0.856849	-0.150660	0.897284
N268	N	1.356849	0.349340	1.397284
H269	H	0.788347	-0.219115	0.826428
H270	H	1.288347	0.280885	1.326428
C271	C	0.048217	-0.336016	0.432662
C272	C	0.548217	0.163984	0.932662
N273	N	0.069657	-0.364932	0.469810
N274	N	0.569657	0.135068	0.969810
H275	H	0.671369	-0.336003	0.739548
H276	H	1.171369	0.163997	1.239548
H277	H	0.686823	-0.961581	0.256970
H278	H	1.186823	-0.461581	0.756970
C279	C	0.802008	-0.205482	0.750144
C280	C	1.302008	0.294518	1.250144
N281	N	0.828770	-0.178742	0.780552
N282	N	1.328770	0.321258	1.280552
C283	C	0.823288	-0.184189	1.081669
C284	C	1.323288	0.315811	1.581669
N285	N	0.850042	-0.157445	1.112083
N286	N	1.350042	0.342555	1.612083
H287	H	-0.058247	-0.326050	0.419862
H288	H	0.441753	0.173950	0.919862
C289	C	0.811898	-0.456806	0.432839
C290	C	1.311898	0.043194	0.932839
N291	N	0.838401	-0.435330	0.470089
N292	N	1.338401	0.064670	0.970089
H293	H	0.045955	-0.199376	0.257187
H294	H	0.545955	0.300624	0.757187
C295	C	0.682758	-0.324601	1.081536
C296	C	1.182758	0.175399	1.581536
N297	N	0.654072	-0.353258	1.111894
N298	N	1.154072	0.146742	1.611894
H299	H	0.199501	-0.164465	0.212326
H300	H	0.699501	0.335535	0.712326
H301	H	0.298547	-0.164452	0.212314
H302	H	0.798547	0.335548	0.712314
H303	H	0.696872	-0.310520	0.938002
H304	H	1.196872	0.189480	1.438002
