data_functionalizedCrystal
_audit_creation_method	'MofGen! by Chris Wilmer'
_symmetry_space_group_name_H-M	'P1'
_symmetry_Int_Tables_number	1
_symmetry_cell_setting	triclinic
loop_
_symmetry_equiv_pos_as_xyz
  x,y,z
_cell_length_a	29.839131
_cell_length_b	12.827893
_cell_length_c	12.827893
_cell_angle_alpha	90.003786
_cell_angle_beta	90.014305
_cell_angle_gamma	90.041581
loop_
_atom_site_label
_atom_site_type_symbol
_atom_site_fract_x
_atom_site_fract_y
_atom_site_fract_z
Zn1	Zn	-0.178930	1.597321	0.590797
Zn2	Zn	-0.254037	1.597183	0.416036
Zn3	Zn	-0.178922	1.422609	0.416071
Zn4	Zn	-0.254033	1.422468	0.590736
O5	O	-0.216481	1.509895	0.503410
O6	O	-0.188897	1.743538	0.567626
O7	O	-0.244071	1.574027	0.269805
O8	O	-0.116056	1.445902	0.439289
O9	O	-0.244079	1.743437	0.439229
O10	O	-0.116061	1.574262	0.567659
O11	O	-0.188885	1.445768	0.269830
O12	O	-0.188881	1.276355	0.439229
O13	O	-0.244072	1.445661	0.736980
O14	O	-0.244065	1.276251	0.567555
O15	O	-0.188894	1.574125	0.737025
O16	O	-0.316904	1.573890	0.439170
O17	O	-0.316901	1.445527	0.567521
C18	C	-0.216472	1.238385	0.503390
C19	C	-0.216480	1.122232	0.503406
C20	C	-0.189223	1.070497	0.567040
C21	C	-0.189229	0.950447	0.567058
C22	C	-0.333203	1.509707	0.503358
C23	C	-0.383138	1.509721	0.503371
C24	C	-0.692770	1.576855	0.436675
C25	C	-0.880443	1.576984	0.436716
O26	O	-0.904698	1.633913	0.379969
N27	N	-0.903923	1.510112	0.503489
C28	C	-0.880481	1.443208	0.570261
O29	O	-0.904759	1.386340	0.627064
C30	C	-0.692809	1.443085	0.570225
C31	C	-0.669332	1.509954	0.503440
C32	C	-0.669292	1.643719	0.369896
C33	C	-0.622377	1.643682	0.369883
C34	C	-0.598939	1.576781	0.436648
C35	C	-0.622416	1.509917	0.503427
C36	C	-0.669369	1.376187	0.637002
C37	C	-0.622448	1.376164	0.636989
C38	C	-0.598970	1.443033	0.570204
C39	C	-0.552063	1.442979	0.570178
N40	N	-0.528583	1.509851	0.503405
C41	C	-0.552021	1.576752	0.436640
C42	C	-0.979012	1.443276	0.570274
C43	C	-1.025930	1.443305	0.570282
C44	C	-1.025888	1.577083	0.436737
C45	C	-0.978969	1.577047	0.436725
C46	C	-0.955532	1.510148	0.503501
C47	C	-0.453495	1.576669	0.436616
C48	C	-0.406576	1.576623	0.436606
C49	C	-0.406621	1.442849	0.570154
C50	C	-0.453537	1.442891	0.570161
C51	C	-0.476973	1.509809	0.503389
O52	O	-0.527779	1.386087	0.626904
O53	O	-0.527736	1.633628	0.379862
C54	C	-0.739685	1.576892	0.436689
C55	C	-0.763163	1.510028	0.503467
C56	C	-0.739725	1.443126	0.570232
C57	C	-0.810080	1.510057	0.503475
C58	C	-0.833518	1.576958	0.436710
C59	C	-0.810039	1.643830	0.369937
C60	C	-0.763123	1.643793	0.369923
C61	C	-0.763204	1.376254	0.637005
C62	C	-0.810120	1.376296	0.637013
C63	C	-0.833558	1.443197	0.570248
C64	C	-0.099302	1.510113	0.503485
C65	C	-0.049368	1.510206	0.503517
C66	C	-0.216483	1.509893	0.775980
C67	C	-0.216485	1.509892	0.892133
C68	C	-0.216489	1.782465	0.503430
C69	C	-0.216493	1.898618	0.503439
C70	C	-0.189184	1.573452	0.943940
C71	C	-0.189185	1.573453	1.063990
C72	C	-0.216488	1.509890	1.231900
C73	C	-0.216486	1.509891	1.115747
H74	H	-0.165895	0.905956	0.621540
O75	O	-0.599524	1.708697	0.305162
C76	C	-0.572356	1.776145	0.364714
H77	H	-0.565328	1.739215	0.443870
H78	H	-0.590406	1.853585	0.376277
C79	C	-0.536425	1.840459	0.209997
C80	C	-0.527789	1.795097	0.307215
H81	H	-0.508934	1.852154	0.174528
H82	H	-0.554729	1.795022	0.169875
H83	H	-0.551467	1.904987	0.219647
H84	H	-0.512752	1.730565	0.297563
H85	H	-0.509481	1.840524	0.347334
H86	H	-0.239819	1.077648	0.448939
O87	O	-0.161312	1.638274	1.117294
C88	C	-0.167523	1.623855	1.225291
H89	H	-0.182242	1.543169	1.240078
H90	H	-0.191459	1.685771	1.256257
C91	C	-0.104011	1.732557	1.263292
C92	C	-0.122086	1.633454	1.281455
H93	H	-0.075985	1.738484	1.297939
H94	H	-0.099828	1.742276	1.190533
H95	H	-0.123963	1.784143	1.289098
H96	H	-0.102137	1.581872	1.255638
H97	H	-0.126265	1.623728	1.354212
H98	H	-0.239855	1.455468	0.936656
H99	H	-0.165880	1.115082	0.621501
O100	O	-0.956318	1.378178	0.635170
C101	C	-0.987108	1.319185	0.694114
H102	H	-1.020559	1.315640	0.651305
H103	H	-0.992071	1.357384	0.773518
C104	C	-0.927766	1.212286	0.761643
C105	C	-0.968850	1.207925	0.709060
H106	H	-0.916504	1.143656	0.770868
H107	H	-0.907022	1.252032	0.721935
H108	H	-0.931908	1.244123	0.827808
H109	H	-0.964707	1.176100	0.642892
H110	H	-0.989593	1.168170	0.748758
O111	O	-0.244395	1.445114	1.062494
C112	C	-0.273395	1.504619	0.999366
H113	H	-0.257546	1.583858	0.983142
H114	H	-0.306705	1.515999	1.041347
C115	C	-0.300953	1.349885	0.915543
C116	C	-0.281485	1.447205	0.895609
H117	H	-0.305945	1.314468	0.851542
H118	H	-0.281416	1.309794	0.958076
H119	H	-0.328709	1.359382	0.950530
H120	H	-0.253727	1.437706	0.860635
H121	H	-0.301017	1.487293	0.853068
O122	O	-0.691991	1.708884	0.305086
C123	C	-0.680463	1.812991	0.328064
H124	H	-0.646399	1.815043	0.368272
H125	H	-0.706848	1.848191	0.381803
C126	C	-0.720080	1.873868	0.176874
C127	C	-0.678241	1.876389	0.226251
H128	H	-0.718712	1.912978	0.114073
H129	H	-0.727849	1.803730	0.161395
H130	H	-0.742064	1.903199	0.221667
H131	H	-0.656260	1.847047	0.181463
H132	H	-0.670469	1.946524	0.241720
O133	O	-0.244400	0.951634	0.438552
C134	C	-0.289202	0.924960	0.461162
H135	H	-0.291540	0.894901	0.544613
H136	H	-0.300935	0.861659	0.405036
C137	C	-0.316262	1.058858	0.346455
C138	C	-0.319134	1.021946	0.448953
H139	H	-0.334727	1.118681	0.338919
H140	H	-0.286078	1.076826	0.331218
H141	H	-0.326039	1.006098	0.299695
H142	H	-0.309352	1.074701	0.495710
H143	H	-0.349317	1.003989	0.464198
O144	O	-0.383820	1.641533	0.371584
C145	C	-0.395305	1.618773	0.267414
H146	H	-0.429388	1.578625	0.265226
H147	H	-0.368929	1.565058	0.232158
C148	C	-0.355579	1.770013	0.206895
C149	C	-0.397442	1.720711	0.204206
H150	H	-0.356895	1.832892	0.167903
H151	H	-0.347839	1.785346	0.277075
H152	H	-0.333603	1.725240	0.177516
H153	H	-0.419416	1.765478	0.233597
H154	H	-0.405185	1.705388	0.134029
O155	O	-0.956214	1.641956	0.371710
C156	C	-0.967696	1.619189	0.267540
H157	H	-1.001777	1.579032	0.265348
H158	H	-0.941316	1.565480	0.232288
C159	C	-0.927975	1.770437	0.207020
C160	C	-0.969836	1.721124	0.204328
H161	H	-0.929294	1.833314	0.168026
H162	H	-0.920238	1.785774	0.277201
H163	H	-0.905997	1.725669	0.177645
H164	H	-0.991813	1.765887	0.233714
H165	H	-0.977577	1.705797	0.134150
O166	O	-1.048782	1.378487	0.635202
C167	C	-1.075876	1.437944	0.702776
H168	H	-1.082880	1.517170	0.665990
H169	H	-1.057775	1.449357	0.780220
C170	C	-1.111860	1.283146	0.766851
C171	C	-1.120466	1.380450	0.721665
H172	H	-1.139364	1.247681	0.778508
H173	H	-1.093605	1.243088	0.721328
H174	H	-1.096775	1.292671	0.831383
H175	H	-1.135546	1.370924	0.657129
H176	H	-1.138724	1.420506	0.767178
H177	H	-0.472571	1.631162	0.382246
O178	O	-0.599660	1.311324	0.701967
C179	C	-0.572476	1.370746	0.769488
H180	H	-0.586576	1.453057	0.776015
H181	H	-0.536920	1.374341	0.737173
C182	C	-0.554444	1.218512	0.870066
C183	C	-0.571765	1.319606	0.878088
H184	H	-0.554004	1.186965	0.937054
H185	H	-0.572758	1.178477	0.824573
H186	H	-0.524817	1.221522	0.843133
H187	H	-0.601394	1.316593	0.905009
H188	H	-0.553456	1.359639	0.923588
O189	O	-0.692146	1.311345	0.702035
C190	C	-0.680638	1.334092	0.806194
H191	H	-0.667708	1.417568	0.811522
H192	H	-0.653419	1.278038	0.833448
C193	C	-0.738186	1.219373	0.869415
C194	C	-0.722308	1.321902	0.875961
H195	H	-0.763888	1.211849	0.912453
H196	H	-0.745938	1.204044	0.799241
H197	H	-0.715499	1.172672	0.892126
H198	H	-0.744992	1.368600	0.853239
H199	H	-0.714561	1.337239	0.946133
O200	O	-0.383827	1.378020	0.635120
C201	C	-0.356644	1.437461	0.702628
H202	H	-0.370752	1.519766	0.709151
H203	H	-0.321091	1.441073	0.670302
C204	C	-0.338593	1.285247	0.803214
C205	C	-0.355923	1.386332	0.811233
H206	H	-0.338145	1.253706	0.870205
H207	H	-0.356905	1.245198	0.757731
H208	H	-0.308967	1.288270	0.776272
H209	H	-0.385550	1.383306	0.838162
H210	H	-0.337615	1.426379	0.856723
H211	H	-1.044979	1.631556	0.382375
O212	O	-0.832741	1.708854	0.304983
C213	C	-0.801964	1.767896	0.246054
H214	H	-0.768537	1.725079	0.242375
H215	H	-0.796933	1.847226	0.284396
C216	C	-0.861347	1.835655	0.139377
C217	C	-0.820293	1.783063	0.134851
H218	H	-0.872654	1.845016	0.070784
H219	H	-0.882084	1.795881	0.179081
H220	H	-0.857150	1.901758	0.171334
H221	H	-0.824492	1.716957	0.102908
H222	H	-0.799558	1.822827	0.095139
O223	O	-0.832854	1.311300	0.701990
C224	C	-0.802100	1.252232	0.760894
H225	H	-0.768636	1.295010	0.764525
H226	H	-0.797153	1.172889	0.722560
C227	C	-0.861494	1.184562	0.867653
C228	C	-0.820394	1.237107	0.872121
H229	H	-0.872779	1.175227	0.936262
H230	H	-0.882214	1.224354	0.827967
H231	H	-0.857367	1.118449	0.835704
H232	H	-0.824524	1.303224	0.904057
H233	H	-0.799675	1.197326	0.911816
H234	H	-0.472653	1.388444	0.624546
H235	H	-0.744011	1.698244	0.315541
O236	O	-0.740391	1.311209	0.701715
C237	C	-0.713302	1.243722	0.642148
H238	H	-0.706265	1.280643	0.562989
H239	H	-0.731425	1.166309	0.630593
C240	C	-0.677380	1.179353	0.796846
C241	C	-0.668734	1.224705	0.699624
H242	H	-0.649889	1.167618	0.832300
H243	H	-0.695631	1.224817	0.836978
H244	H	-0.692483	1.114848	0.787203
H245	H	-0.653636	1.289214	0.709269
H246	H	-0.650479	1.179251	0.659495
H247	H	-0.165809	1.627865	0.899417
