data_functionalizedCrystal
_audit_creation_method	'MofGen! by Chris Wilmer'
_symmetry_space_group_name_H-M	'P1'
_symmetry_Int_Tables_number	1
_symmetry_cell_setting	triclinic
loop_
_symmetry_equiv_pos_as_xyz
  x,y,z
_cell_length_a	16.992694
_cell_length_b	15.944551
_cell_length_c	15.455313
_cell_angle_alpha	92.664316
_cell_angle_beta	87.142206
_cell_angle_gamma	87.083481
loop_
_atom_site_label
_atom_site_type_symbol
_atom_site_fract_x
_atom_site_fract_y
_atom_site_fract_z
O1	O	1.043832	0.174669	-0.072025
O2	O	0.815548	0.172714	-0.072051
O3	O	0.935924	0.051836	-0.072029
O4	O	0.923457	0.295548	-0.072046
O5	O	0.929040	0.058718	0.072232
O6	O	0.808664	0.179596	0.072210
O7	O	1.036949	0.181551	0.072236
Cu8	Cu	0.922178	0.181202	0.085395
Cu9	Cu	0.930319	0.173063	-0.085210
O10	O	0.916573	0.302430	0.072215
C11	C	0.782894	0.173641	0.000077
C12	C	0.695850	0.166141	0.000067
C13	C	0.645613	0.238506	0.000063
C14	C	0.563826	0.231454	0.000075
C15	C	0.532276	0.152037	0.000086
C16	C	0.582519	0.079667	0.000093
C17	C	0.664305	0.086719	0.000087
C18	C	0.288676	0.122807	0.000111
C19	C	0.206884	0.115760	0.000115
C20	C	0.188196	0.267548	0.000099
C21	C	0.269984	0.274593	0.000087
C22	C	0.320220	0.202223	0.000099
N23	N	0.448677	0.144827	0.000096
N24	N	0.403817	0.209434	0.000095
C25	C	0.931964	0.023948	0.000101
C26	C	0.930413	-0.069402	0.000102
C27	C	0.852089	-0.289513	0.000081
C28	C	0.885066	-0.344697	0.071214
C29	C	0.927606	-0.240317	0.000095
C30	C	0.891871	-0.351465	-0.071016
C31	C	0.924889	-0.405412	0.000084
C32	C	0.960600	-0.294269	0.071287
C33	C	0.967397	-0.301034	-0.071007
C34	C	1.000428	-0.356196	0.000144
C35	C	0.929168	-0.145209	0.000101
C36	C	0.923332	-0.500518	0.000084
C37	C	1.069603	0.180624	0.000107
C38	C	1.156647	0.188124	0.000110
C39	C	0.920532	0.330318	0.000082
C40	C	0.922084	0.423668	0.000076
N41	N	0.916458	0.186926	0.205390
N42	N	0.936045	0.167333	-0.205204
C43	C	0.967616	0.135594	0.250793
C44	C	0.963297	0.139932	0.341600
C45	C	0.907824	0.195606	0.387002
C46	C	0.856661	0.246940	0.341593
C47	C	0.860976	0.242598	0.250787
C48	C	0.889197	0.214325	0.658581
C49	C	0.884887	0.218665	0.749392
C50	C	0.991523	0.111655	0.749393
C51	C	0.995836	0.107321	0.658586
C52	C	0.944671	0.158653	0.613185
N53	N	0.903410	0.200042	0.479822
N54	N	0.949081	0.154211	0.520367
H55	H	0.671294	0.303176	0.000054
H56	H	1.033179	0.069863	0.786368
H57	H	1.004953	0.098132	0.378567
C58	C	0.243293	0.423922	0.000087
C59	C	0.304660	0.361892	0.000084
H60	H	0.264702	0.477816	0.000089
H61	H	0.214177	0.415617	-0.050215
H62	H	0.209387	0.420408	0.050400
H63	H	0.338562	0.365402	-0.050232
H64	H	0.333788	0.370200	0.050391
H65	H	1.002180	-0.281632	-0.131141
C66	C	1.128453	-0.372153	-0.073568
C67	C	1.085126	-0.395255	0.000204
H68	H	1.180745	-0.396255	-0.073523
H69	H	1.104177	-0.391886	-0.124123
H70	H	1.129832	-0.312648	-0.073080
H71	H	1.083743	-0.454760	-0.000287
H72	H	1.109409	-0.375526	0.050772
H73	H	0.147286	0.326467	0.000091
C74	C	0.774948	-0.351466	-0.152063
C75	C	0.852615	-0.385344	-0.152201
H76	H	0.750713	-0.372376	-0.202184
H77	H	0.746230	-0.367126	-0.101565
H78	H	0.775231	-0.291918	-0.152361
H79	H	0.852332	-0.444892	-0.151897
H80	H	0.881340	-0.369689	-0.202713
H81	H	0.789404	-0.260406	0.000145
C82	C	0.201159	-0.019336	-0.074022
C83	C	0.172202	0.028459	0.000129
H84	H	0.179749	-0.073229	-0.074011
H85	H	0.186311	0.008290	-0.124324
H86	H	0.257057	-0.025493	-0.074011
H87	H	0.116304	0.034621	0.000114
H88	H	0.187045	0.000826	0.050443
H89	H	0.811490	0.292268	0.378565
C90	C	1.072579	0.030250	0.259924
C91	C	1.028593	0.074393	0.200891
H92	H	1.110219	-0.007539	0.229117
H93	H	1.099099	0.068818	0.295328
H94	H	1.038248	-0.000478	0.295354
H95	H	1.062923	0.105126	0.165465
H96	H	1.002071	0.035819	0.165472
H97	H	0.329568	0.063878	0.000121
C98	C	1.100800	0.001973	0.667712
C99	C	1.056810	0.046117	0.608683
H100	H	1.138440	-0.035814	0.636901
H101	H	1.127321	0.040541	0.703116
H102	H	1.066471	-0.028757	0.703142
H103	H	1.091138	0.076853	0.573256
H104	H	1.030288	0.007544	0.573264
H105	H	0.556825	0.015004	0.000114
H106	H	0.847537	0.256123	0.621622
C107	C	0.674568	-0.064024	0.000088
C108	C	0.719529	0.007174	0.000083
H109	H	0.708662	-0.113133	0.000083
H110	H	0.639890	-0.061219	0.050395
H111	H	0.644670	-0.066011	-0.050220
H112	H	0.749422	0.009164	0.050395
H113	H	0.754221	0.004368	-0.050228
H114	H	0.522926	0.290381	0.000071
H115	H	0.850256	-0.364079	0.131345
H116	H	0.839712	0.264005	0.786355
C117	C	1.000862	-0.172803	0.151852
C118	C	0.999801	-0.260523	0.152565
H119	H	1.025056	-0.151971	0.202033
H120	H	1.029914	-0.157533	0.101415
H121	H	0.948332	-0.149415	0.151641
H122	H	1.052332	-0.283912	0.152770
H123	H	0.970749	-0.275801	0.203016
H124	H	0.819318	0.284397	0.213821
