data_functionalizedCrystal
_audit_creation_method	'MofGen! by Chris Wilmer'
_symmetry_space_group_name_H-M	'P1'
_symmetry_Int_Tables_number	1
_symmetry_cell_setting	triclinic
loop_
_symmetry_equiv_pos_as_xyz
  x,y,z
_cell_length_a	14.971482
_cell_length_b	9.798715
_cell_length_c	14.971486
_cell_angle_alpha	89.997194
_cell_angle_beta	83.613368
_cell_angle_gamma	89.996318
loop_
_atom_site_label
_atom_site_type_symbol
_atom_site_fract_x
_atom_site_fract_y
_atom_site_fract_z
O1	O	1.186947	-0.113474	0.116544
O2	O	1.686947	0.386526	0.616544
O3	O	0.926546	-0.113481	0.130506
O4	O	1.426546	0.386519	0.630506
O5	O	1.063726	-0.113467	-0.006675
O6	O	1.563726	0.386533	0.493325
O7	O	1.049767	-0.113487	0.253725
O8	O	1.549767	0.386513	0.753725
O9	O	1.063714	0.113515	-0.006674
O10	O	1.563714	0.613515	0.493326
O11	O	0.926534	0.113501	0.130508
O12	O	1.426534	0.613501	0.630508
O13	O	1.186935	0.113508	0.116545
O14	O	1.686935	0.613508	0.616545
Zn15	Zn	1.056733	0.149543	0.123527
Zn16	Zn	1.556733	0.649543	0.623527
Zn17	Zn	1.056748	-0.149516	0.123525
Zn18	Zn	1.556748	0.350484	0.623525
O19	O	1.049755	0.113495	0.253727
O20	O	1.549755	0.613495	0.753727
C21	C	0.893215	0.000010	0.129883
C22	C	1.393215	0.500010	0.629883
C23	C	0.793918	0.000007	0.128014
C24	C	1.293918	0.500007	0.628014
C25	C	0.747267	0.123737	0.127134
C26	C	1.247267	0.623737	0.627134
C27	C	0.653969	0.123738	0.125363
C28	C	1.153969	0.623738	0.625363
C29	C	0.607322	0.000009	0.124479
C30	C	1.107322	0.500009	0.624479
C31	C	0.653980	-0.123730	0.125356
C32	C	1.153980	0.376270	0.625356
C33	C	0.747278	-0.123730	0.127120
C34	C	1.247278	0.376270	0.627120
C35	C	0.459518	-0.123721	0.121680
C36	C	0.959518	0.376279	0.621680
C37	C	0.366214	-0.123721	0.119918
C38	C	0.866214	0.376279	0.619918
C39	C	0.366209	0.123748	0.119924
C40	C	0.866209	0.623748	0.619924
C41	C	0.459507	0.123747	0.121688
C42	C	0.959507	0.623747	0.621688
C43	C	0.506158	0.000008	0.122567
C44	C	1.006158	0.500008	0.622567
N45	N	1.056729	0.353643	0.123527
N46	N	1.556729	0.853643	0.623527
C47	C	1.114328	0.421425	0.065677
C48	C	1.614328	0.921425	0.565677
C49	C	1.114341	0.578588	0.065675
C50	C	1.614341	1.078588	0.565675
C51	C	1.220266	0.000015	0.117168
C52	C	1.720266	0.500015	0.617168
C53	C	1.319563	0.000008	0.119038
C54	C	1.819563	0.500008	0.619038
C55	C	1.063096	0.000023	-0.039999
C56	C	1.563096	0.500023	0.460001
C57	C	1.061225	0.000022	-0.139296
C58	C	1.561225	0.500022	0.360704
N59	N	1.056752	0.646385	0.123524
N60	N	1.556752	1.146385	0.623524
C61	C	1.141814	0.000025	-0.196522
C62	C	1.641814	0.500025	0.303478
C63	C	1.140051	0.000011	-0.289822
C64	C	1.640051	0.500011	0.210178
C65	C	1.057698	0.000004	-0.325893
C66	C	1.557698	0.500004	0.174107
C67	C	0.977102	-0.000003	-0.268659
C68	C	1.477102	0.499997	0.231341
C69	C	0.978866	0.000001	-0.175362
C70	C	1.478866	0.500001	0.324638
C71	C	0.973431	-0.000008	-0.463122
C72	C	1.473431	0.499992	0.036878
C73	C	0.971667	-0.000010	-0.556426
C74	C	1.471667	0.499990	-0.056426
C75	C	1.134616	0.000002	-0.577582
C76	C	1.634616	0.500002	-0.077582
C77	C	1.136380	0.000006	-0.484284
C78	C	1.636380	0.500006	0.015716
C79	C	1.055784	0.000002	-0.427057
C80	C	1.555784	0.500002	0.072943
C81	C	1.050385	0.000001	0.287051
C82	C	1.550385	0.500001	0.787051
C83	C	1.052256	-0.000006	0.386348
C84	C	1.552256	0.499994	0.886348
H85	H	0.615991	0.224491	0.124632
H86	H	1.115991	0.724491	0.624632
H87	H	0.910049	-0.000017	-0.298036
H88	H	1.410049	0.499983	0.201964
H89	H	1.200240	0.000002	-0.624181
H90	H	1.700240	0.500002	-0.124181
H91	H	0.904607	0.000007	-0.585792
H92	H	1.404607	0.500007	-0.085792
H93	H	0.785239	0.224492	0.127862
H94	H	1.285239	0.724492	0.627862
H95	H	0.907801	-0.000015	-0.416529
H96	H	1.407801	0.499985	0.083471
H97	H	1.203439	0.000022	-0.454919
H98	H	1.703439	0.500022	0.045081
Cl99	Cl	0.877550	-0.000008	-0.103419
Cl100	Cl	1.377550	0.499992	0.396581
H101	H	1.007422	0.411962	0.173050
H102	H	1.507422	0.911962	0.673050
H103	H	1.205675	0.000017	-0.336413
H104	H	1.705675	0.500017	0.163587
Cl105	Cl	0.805926	-0.279283	0.128222
Cl106	Cl	1.305926	0.220717	0.628222
Cl107	Cl	1.190250	0.331394	-0.010991
Cl108	Cl	1.690250	0.831394	0.489009
H109	H	1.163658	0.636878	0.016150
H110	H	1.663658	1.136878	0.516150
Cl111	Cl	1.245350	0.000048	-0.151186
Cl112	Cl	1.745350	0.500048	0.348814
Cl113	Cl	0.307563	0.279306	0.118819
Cl114	Cl	0.807563	0.779306	0.618819
Cl115	Cl	0.518146	0.279295	0.122810
Cl116	Cl	1.018146	0.779295	0.622810
H117	H	1.007440	0.588103	0.173058
H118	H	1.507440	1.088103	0.673058
H119	H	0.328237	-0.224473	0.119198
H120	H	0.828237	0.275527	0.619198
H121	H	0.497499	-0.224483	0.122396
H122	H	0.997499	0.275517	0.622396
Cl123	Cl	0.595343	-0.279277	0.124211
Cl124	Cl	1.095343	0.220723	0.624211
