data_functionalizedCrystal
_audit_creation_method	'MofGen! by Chris Wilmer'
_symmetry_space_group_name_H-M	'P1'
_symmetry_Int_Tables_number	1
_symmetry_cell_setting	triclinic
loop_
_symmetry_equiv_pos_as_xyz
  x,y,z
_cell_length_a	14.395555
_cell_length_b	14.809374
_cell_length_c	14.809374
_cell_angle_alpha	60.797835
_cell_angle_beta	90.002017
_cell_angle_gamma	67.425796
loop_
_atom_site_label
_atom_site_type_symbol
_atom_site_fract_x
_atom_site_fract_y
_atom_site_fract_z
Zr1	Zr	1.026088	0.955167	-0.203622
O2	O	0.912293	1.113092	-0.350786
O3	O	1.044862	0.777400	-0.145544
O4	O	1.082861	0.926546	-0.332082
O5	O	0.862646	0.993441	-0.031851
O6	O	1.235734	0.926541	-0.332074
O7	O	0.874294	0.963945	-0.164248
O8	O	1.167760	0.659746	0.001608
O9	O	0.930619	1.260237	-0.365533
O10	O	1.186420	0.857863	-0.136431
O11	O	1.063640	0.879880	-0.037630
O12	O	1.108379	1.055480	-0.257255
O13	O	0.985598	1.077497	-0.158454
Zr14	Zr	1.251324	1.002202	0.007549
Zr15	Zr	1.269902	0.955159	-0.203609
Zr16	Zr	1.007510	1.002210	0.007537
Zr17	Zr	1.055316	1.189847	-0.227141
Zr18	Zr	1.222097	0.767522	0.031069
O19	O	1.232551	1.179969	-0.050528
O20	O	1.258966	1.113080	-0.350769
O21	O	0.885878	1.179981	-0.050546
O22	O	1.365119	0.844277	0.154714
O23	O	1.391534	0.777388	-0.145526
O24	O	1.018447	0.844289	0.154697
O25	O	1.414766	0.963927	-0.164221
O26	O	1.194552	1.030823	0.136009
O27	O	1.041679	1.030828	0.136002
O28	O	1.403118	0.993424	-0.031824
O29	O	1.124419	1.260231	-0.365524
O30	O	1.152993	0.697138	0.169451
O31	O	1.346793	0.697132	0.169461
O32	O	1.361560	0.659739	0.001618
O33	O	0.915853	1.297630	-0.197690
O34	O	1.109652	1.297623	-0.197681
O35	O	1.169034	0.901889	0.061182
O36	O	1.291814	0.879872	-0.037619
O37	O	1.213773	1.077489	-0.158442
O38	O	1.090993	1.099506	-0.059641
C39	C	1.102147	0.685136	-0.068617
C40	C	1.089738	0.585508	-0.058632
C41	C	1.145114	0.530169	-0.103192
C42	C	1.132291	0.427199	-0.092874
C43	C	0.833732	0.978695	-0.098051
C44	C	0.730226	0.978698	-0.098057
C45	C	0.627085	1.086449	-0.163926
C46	C	0.592229	1.017888	-0.196966
C47	C	0.580660	1.047253	-0.065024
C48	C	0.696738	0.910124	-0.131150
C49	C	0.685163	0.939518	0.000841
C50	C	0.650367	0.870874	-0.032166
C51	C	1.443681	0.978674	-0.098021
C52	C	1.547186	0.978671	-0.098015
C53	C	1.161944	0.919841	-0.362163
C54	C	1.169831	0.899870	-0.451806
C55	C	1.175266	1.272233	-0.127456
C56	C	1.187674	1.371861	-0.137440
C57	C	1.134633	0.988998	-0.551708
C58	C	1.142784	0.968359	-0.644359
C59	C	1.115468	1.037528	0.166091
C60	C	1.107582	1.057499	0.255734
C61	C	1.407121	0.685126	-0.068601
C62	C	1.498218	0.585495	-0.058611
C63	C	1.078909	0.743979	0.195511
C64	C	1.058614	0.664323	0.295138
C65	C	1.383883	0.743969	0.195526
C66	C	1.467094	0.664309	0.295158
C67	C	0.893529	1.213400	-0.391598
C68	C	0.810319	1.293060	-0.491231
C69	C	0.870291	1.272243	-0.127471
C70	C	0.779194	1.371874	-0.137461
C71	C	1.198504	1.213390	-0.391583
C72	C	1.218799	1.293046	-0.491210
C73	C	1.485985	0.527216	-0.105508
C74	C	1.571575	0.433611	-0.096142
C75	C	1.669396	0.398280	-0.039873
C76	C	1.681628	0.456568	0.007024
C77	C	1.596041	0.550177	-0.002348
C78	C	1.104097	0.638405	0.393512
C79	C	1.085025	0.563574	0.487129
C80	C	1.020474	0.514655	0.482370
C81	C	0.974986	0.540579	0.383986
C82	C	0.994053	0.615416	0.290370
C83	C	1.570271	0.615407	0.290374
C84	C	1.648468	0.540569	0.383980
C85	C	1.623485	0.514628	0.482370
C86	C	1.520298	0.563538	0.487151
C87	C	1.442104	0.638381	0.393546
C88	C	0.707143	1.341973	-0.486447
C89	C	0.628950	1.416840	-0.580056
C90	C	0.653933	1.442786	-0.678446
C91	C	0.757119	1.393870	-0.683228
C92	C	0.835311	1.319011	-0.589621
C93	C	0.791429	1.430160	-0.090574
C94	C	0.705845	1.523787	-0.099966
C95	C	0.608024	1.559120	-0.156238
C96	C	0.595791	1.500828	-0.203131
C97	C	0.681376	1.407209	-0.193745
C98	C	1.283354	1.341943	-0.486417
C99	C	1.302443	1.416778	-0.580018
C100	C	1.256970	1.442722	-0.678411
C101	C	1.192411	1.393817	-0.683202
C102	C	1.173329	1.318977	-0.589601
H103	H	1.075387	0.398346	-0.047079
H104	H	0.671399	1.359755	-0.231924
H105	H	1.156658	0.678229	0.397406
H106	H	0.659394	0.779679	0.023550
H107	H	1.004957	0.453721	0.558606
C108	C	1.012882	0.546526	0.003248
H109	H	0.979813	0.594588	0.029878
H110	H	0.962387	0.551928	-0.042824
H111	H	1.049045	0.469006	0.060889
H112	H	1.732481	0.500752	0.380067
C113	C	1.264551	0.410825	-0.199302
H114	H	1.263082	0.474925	-0.198129
H115	H	1.332310	0.349334	-0.167111
H116	H	1.245673	0.432275	-0.270841
C117	C	1.709505	0.432291	0.585327
H118	H	1.774528	0.406877	0.568378
H119	H	1.709993	0.471450	0.620366
H120	H	1.697070	0.367730	0.630749
H121	H	0.871071	1.401402	-0.044745
H122	H	0.922428	0.500739	0.380127
H123	H	0.544937	1.456656	-0.576142
H124	H	1.606015	0.597618	0.035848
H125	H	1.155392	1.414952	-0.763326
H126	H	1.120759	1.279173	-0.593519
H127	H	0.618267	1.177547	-0.219699
C128	C	1.221983	0.569142	-0.165053
H129	H	1.220512	0.633243	-0.163880
H130	H	1.289744	0.507654	-0.132866
H131	H	1.203103	0.590593	-0.236592
C132	C	0.784586	1.422408	-0.791459
H133	H	0.723233	1.473986	-0.846514
H134	H	0.830195	1.457279	-0.802525
H135	H	0.817260	1.353556	-0.792116
H136	H	0.725471	0.906445	0.084439
H137	H	0.530558	1.105239	-0.037104
H138	H	1.406344	0.555977	-0.151340
C139	C	0.944028	0.643909	0.182164
H140	H	0.964617	0.695489	0.127082
H141	H	0.965720	0.575049	0.181532
H142	H	0.870873	0.678789	0.171114
H143	H	0.551925	1.051001	-0.280585
C144	C	1.328611	0.692152	0.398824
H145	H	1.324940	0.665967	0.470831
H146	H	1.301884	0.773690	0.359256
H147	H	1.288994	0.669946	0.369660
C148	C	0.948799	1.265198	-0.594894
H149	H	0.952468	1.291368	-0.666900
H150	H	0.988444	1.287363	-0.565718
H151	H	0.975492	1.183657	-0.555334
C152	C	0.488185	1.539698	-0.265017
H153	H	0.438972	1.603792	-0.263874
H154	H	0.490150	1.561105	-0.336537
H155	H	0.469036	1.478171	-0.232798
C156	C	1.789227	0.417683	0.068937
H157	H	1.784266	0.465794	0.095529
H158	H	1.814320	0.340174	0.126590
H159	H	1.835476	0.423105	0.022883
C160	C	1.333383	1.313411	-0.378194
H161	H	1.312775	1.261842	-0.323126
H162	H	1.406533	1.278531	-0.367143
H163	H	1.311694	1.382266	-0.377544
H164	H	1.590632	0.636516	0.210269
H165	H	0.746708	0.852177	-0.159166
H166	H	0.686780	1.320852	-0.406341
C167	C	1.058718	1.181233	-0.767168
H168	H	1.059643	1.178875	-0.701893
H169	H	1.097057	1.220576	-0.806863
H170	H	0.989295	1.220575	-0.806863
H171	H	1.098471	1.080583	-0.568645
H172	H	1.561595	0.386163	-0.134333
C173	C	1.135078	0.535060	0.595338
H174	H	1.176265	0.574900	0.584758
H175	H	1.082519	0.558210	0.628807
H176	H	1.177350	0.454473	0.639201
H177	H	1.178958	0.876768	-0.627415
H178	H	1.206002	0.808285	-0.434869
C179	C	0.567912	1.525114	-0.781403
H180	H	0.502887	1.550512	-0.764452
H181	H	0.580337	1.589671	-0.826840
H182	H	0.567431	1.485930	-0.816423
C183	C	0.719317	1.587881	-0.048368
H184	H	0.789830	1.553410	-0.013496
H185	H	0.698794	1.666341	-0.101733
H186	H	0.677647	1.583409	0.001980
C187	C	1.373443	1.470575	-0.574731
H188	H	1.397771	1.444418	-0.502725
H189	H	1.430602	1.448389	-0.603887
H190	H	1.335741	1.552117	-0.614305
C191	C	1.277959	1.525056	-0.781364
H192	H	1.322912	1.550466	-0.764409
H193	H	1.309377	1.485896	-0.816401
H194	H	1.214532	1.589619	-0.826789
H195	H	1.739078	0.322055	-0.032249
H196	H	1.499971	0.542406	0.567273
H197	H	0.538344	1.635352	-0.163872
