data_functionalizedCrystal
_audit_creation_method	'MofGen! by Chris Wilmer'
_symmetry_space_group_name_H-M	'P1'
_symmetry_Int_Tables_number	1
_symmetry_cell_setting	triclinic
loop_
_symmetry_equiv_pos_as_xyz
  x,y,z
_cell_length_a	16.974810
_cell_length_b	19.188930
_cell_length_c	16.053802
_cell_angle_alpha	92.551696
_cell_angle_beta	88.925582
_cell_angle_gamma	96.731094
loop_
_atom_site_label
_atom_site_type_symbol
_atom_site_fract_x
_atom_site_fract_y
_atom_site_fract_z
O1	O	-1.048768	0.089015	0.001456
O2	O	-0.548768	0.589015	0.501456
O3	O	-0.819271	0.099700	-0.014060
O4	O	-0.319271	0.599700	0.485940
O5	O	-0.940641	-0.007267	-0.005838
O6	O	-0.440641	0.492733	0.494162
O7	O	-0.927397	0.195982	-0.006766
O8	O	-0.427397	0.695982	0.493234
O9	O	-0.933961	-0.001404	0.132568
O10	O	-0.433961	0.498596	0.632568
O11	O	-0.812590	0.105563	0.124346
O12	O	-0.312590	0.605563	0.624346
O13	O	-1.042088	0.094879	0.139863
O14	O	-0.542088	0.594879	0.639863
Zn15	Zn	-0.926278	0.101152	0.154079
Zn16	Zn	-0.426278	0.601152	0.654079
Zn17	Zn	-0.935080	0.093427	-0.028277
Zn18	Zn	-0.435080	0.593427	0.471723
O19	O	-0.920717	0.201846	0.131640
O20	O	-0.420717	0.701846	0.631640
C21	C	-0.786569	0.102117	0.053158
C22	C	-0.286569	0.602117	0.553158
C23	C	-0.699082	0.100576	0.047244
C24	C	-0.199082	0.600576	0.547244
C25	C	-0.654343	0.103047	0.119912
C26	C	-0.154343	0.603047	0.619912
C27	C	-0.572142	0.101588	0.114358
C28	C	-0.072142	0.601588	0.614358
C29	C	-0.534679	0.097664	0.036133
C30	C	-0.034679	0.597664	0.536133
C31	C	-0.579424	0.095191	-0.036541
C32	C	-0.079424	0.595191	0.463459
C33	C	-0.661625	0.096645	-0.030985
C34	C	-0.161625	0.596645	0.469015
C35	C	-0.289225	0.092968	0.011428
C36	C	0.210775	0.592968	0.511428
C37	C	-0.207018	0.091516	0.005878
C38	C	0.292982	0.591516	0.505878
C39	C	-0.199741	0.097913	0.156777
C40	C	0.300259	0.597913	0.656777
C41	C	-0.281944	0.099370	0.162325
C42	C	0.218056	0.599370	0.662325
C43	C	-0.326682	0.096894	0.089651
C44	C	0.173318	0.596894	0.589651
N45	N	-0.450655	0.096175	0.030454
N46	N	0.049345	0.596175	0.530454
N47	N	-0.410705	0.098378	0.095332
N48	N	0.089295	0.598378	0.595332
C49	C	-0.936872	-0.030348	0.063339
C50	C	-0.436872	0.469652	0.563339
C51	C	-0.935584	-0.107858	0.063259
C52	C	-0.435584	0.392142	0.563259
C53	C	-0.074790	0.092458	0.072641
C54	C	0.425210	0.592458	0.572641
C55	C	-0.162279	0.093987	0.078546
C56	C	0.337721	0.593987	0.578546
C57	C	-1.006801	-0.152456	0.068078
C58	C	-0.506801	0.347544	0.568078
C59	C	-1.005592	-0.225286	0.067983
C60	C	-0.505592	0.274714	0.567983
C61	C	-0.933161	-0.253514	0.063085
C62	C	-0.433161	0.246486	0.563085
C63	C	-0.861935	-0.208907	0.058261
C64	C	-0.361935	0.291093	0.558261
C65	C	-0.863147	-0.136079	0.058348
C66	C	-0.363147	0.363921	0.558348
N67	N	-0.875523	-0.359777	0.106444
N68	N	-0.375523	0.140223	0.606444
N69	N	-0.874377	-0.428961	0.106364
N70	N	-0.374377	0.071039	0.606364
C71	C	-0.929507	-0.472940	0.062821
C72	C	-0.429507	0.027060	0.562821
N73	N	-0.985838	-0.445123	0.019373
N74	N	-0.485838	0.054877	0.519373
N75	N	-0.986986	-0.375933	0.019457
N76	N	-0.486986	0.124067	0.519457
C77	C	-0.931840	-0.332483	0.062990
C78	C	-0.431840	0.167517	0.562990
C79	C	-0.999418	-0.596509	0.067536
C80	C	-0.499418	-0.096509	0.567536
C81	C	-0.998206	-0.669340	0.067436
C82	C	-0.498206	-0.169340	0.567436
C83	C	-0.854547	-0.652959	0.057722
C84	C	-0.354547	-0.152959	0.557722
C85	C	-0.855761	-0.580130	0.057814
C86	C	-0.355761	-0.080130	0.557814
C87	C	-0.928198	-0.551909	0.062725
C88	C	-0.428198	-0.051909	0.562725
C89	C	-0.924486	0.224927	0.062462
C90	C	-0.424486	0.724927	0.562462
C91	C	-0.925775	0.302437	0.062536
C92	C	-0.425775	0.802437	0.562536
N93	N	-0.920277	0.106424	0.278533
N94	N	-0.420277	0.606424	0.778533
N95	N	-0.941088	0.088149	-0.152730
N96	N	-0.441088	0.588149	0.347270
C97	C	-0.971939	0.060926	0.325727
C98	C	-0.471939	0.560926	0.825727
C99	C	-0.967749	0.064620	0.412850
C100	C	-0.467749	0.564620	0.912850
C101	C	-0.911899	0.113817	0.452777
C102	C	-0.411899	0.613817	0.952777
C103	C	-0.860231	0.159317	0.405577
C104	C	-0.360231	0.659317	0.905577
C105	C	-0.864419	0.155619	0.318456
C106	C	-0.364419	0.655619	0.818456
C107	C	-0.893607	0.129951	0.712948
C108	C	-0.393607	0.629951	1.212948
C109	C	-0.889425	0.133647	0.800076
C110	C	-0.389425	0.633647	1.300076
C111	C	-0.996942	0.038949	0.807342
C112	C	-0.496942	0.538949	1.307342
C113	C	-1.001128	0.035258	0.720219
C114	C	-0.501128	0.535258	1.220219
C115	C	-0.949458	0.080756	0.673026
C116	C	-0.449458	0.580756	1.173026
N117	N	-0.907616	0.117596	0.541831
N118	N	-0.407616	0.617596	1.041831
N119	N	-0.953738	0.076973	0.583974
N120	N	-0.453738	0.576973	1.083974
H121	H	-0.684838	0.106248	0.183611
H122	H	-0.184838	0.606248	0.683611
F123	F	-1.060570	-0.017101	0.677726
F124	F	-0.560570	0.482899	1.177726
H125	H	-0.325642	0.090949	-0.047749
H126	H	0.174358	0.590949	0.452251
H127	H	-1.065785	-0.129485	0.072074
H128	H	-0.565785	0.370515	0.572074
F129	F	-0.809430	0.204043	0.268229
F130	F	-0.309430	0.704043	0.768229
H131	H	-1.063587	-0.261605	0.071904
H132	H	-0.563587	0.238395	0.571904
F133	F	-1.031387	0.008566	0.283242
F134	F	-0.531387	0.508566	0.783242
F135	F	-0.167149	0.087341	-0.077383
F136	F	0.332851	0.587341	0.422617
H137	H	-0.698050	0.094634	-0.090160
H138	H	-0.198050	0.594634	0.409840
F139	F	-1.051928	-0.009471	0.857573
F140	F	-0.551928	0.490529	1.357573
H141	H	-0.802962	-0.231894	0.054271
H142	H	-0.302962	0.268106	0.554271
H143	H	-1.058401	-0.573531	0.071531
H144	H	-0.558401	-0.073531	0.571531
F145	F	-0.524529	0.104227	0.191702
F146	F	-0.024529	0.604227	0.691702
H147	H	-0.843943	0.173712	0.832580
H148	H	-0.343943	0.673712	1.332580
H149	H	-0.548916	0.091990	-0.100232
H150	H	-0.048916	0.591990	0.399768
F151	F	-0.800787	0.211673	0.448072
F152	F	-0.300787	0.711673	0.948072
F153	F	-0.321808	0.103551	0.245582
F154	F	0.178192	0.603551	0.745582
H155	H	-1.009815	0.027571	0.451275
H156	H	-0.509815	0.527571	0.951275
F157	F	-0.152123	0.100546	0.234116
F158	F	0.347877	0.600546	0.734116
F159	F	-0.787345	-0.088612	0.053218
F160	F	-0.287345	0.411388	0.553218
F161	F	-0.838619	0.178375	0.662729
F162	F	-0.338619	0.678375	1.162729
F163	F	-1.074009	-0.716806	0.072559
F164	F	-0.574009	-0.216806	0.572559
H165	H	-0.795573	-0.675941	0.053730
H166	H	-0.295573	-0.175941	0.553730
H167	H	-0.797768	-0.543817	0.053895
H168	H	-0.297768	-0.043817	0.553895
