data_functionalizedCrystal
_audit_creation_method	'MofGen! by Chris Wilmer'
_symmetry_space_group_name_H-M	'P1'
_symmetry_Int_Tables_number	1
_symmetry_cell_setting	triclinic
loop_
_symmetry_equiv_pos_as_xyz
  x,y,z
_cell_length_a	19.805404
_cell_length_b	19.805407
_cell_length_c	19.805399
_cell_angle_alpha	90.026078
_cell_angle_beta	89.972890
_cell_angle_gamma	89.971791
loop_
_atom_site_label
_atom_site_type_symbol
_atom_site_fract_x
_atom_site_fract_y
_atom_site_fract_z
Zn1	Zn	-0.269504	-1.034721	-0.382839
Zn2	Zn	-0.382692	-1.034629	-0.269652
Zn3	Zn	-0.269520	-0.921535	-0.269651
Zn4	Zn	-0.382653	-0.921493	-0.382786
O5	O	-0.326092	-0.978095	-0.326232
O6	O	-0.284528	-1.129425	-0.367848
O7	O	-0.367702	-1.019607	-0.174935
O8	O	-0.174801	-0.936606	-0.284688
O9	O	-0.367687	-1.129358	-0.284689
O10	O	-0.174789	-1.019763	-0.367847
O11	O	-0.284555	-0.936517	-0.174935
O12	O	-0.284518	-0.826813	-0.284636
O13	O	-0.367621	-0.936533	-0.477510
O14	O	-0.367637	-0.826782	-0.367756
O15	O	-0.284490	-1.019721	-0.477549
O16	O	-0.477404	-1.019565	-0.284637
O17	O	-0.477375	-0.936444	-0.367756
C18	C	-0.326075	-0.802238	-0.326190
C19	C	-0.326084	-0.727006	-0.326188
C20	C	-0.369446	-0.265217	-0.369465
C21	C	-0.369445	-0.335905	-0.369452
C22	C	-0.326102	-0.371245	-0.326239
C23	C	-0.282761	-0.335892	-0.283029
C24	C	-0.282765	-0.265205	-0.283038
C25	C	-0.282743	-0.620965	-0.282991
C26	C	-0.282741	-0.691658	-0.282987
C27	C	-0.369424	-0.691666	-0.369405
C28	C	-0.369428	-0.620979	-0.369414
C29	C	-0.326090	-0.585632	-0.326203
C30	C	-0.326091	-0.508984	-0.326215
C31	C	-0.326096	-0.447892	-0.326229
C32	C	-0.501948	-0.978009	-0.326206
C33	C	-0.577180	-0.978034	-0.326218
C34	C	-1.038964	-1.021542	-0.283047
C35	C	-0.968275	-1.021510	-0.283034
C36	C	-0.932942	-0.978183	-0.326268
C37	C	-0.968301	-0.934880	-0.369513
C38	C	-1.038988	-0.934909	-0.369523
C39	C	-0.683228	-0.934763	-0.369476
C40	C	-0.612536	-0.934739	-0.369465
C41	C	-0.612515	-1.021364	-0.282987
C42	C	-0.683202	-1.021392	-0.282996
C43	C	-0.718555	-0.978087	-0.326239
C44	C	-0.795203	-0.978121	-0.326252
C45	C	-0.856295	-0.978152	-0.326259
C46	C	-0.149550	-0.978199	-0.326273
C47	C	-0.074318	-0.978244	-0.326290
C48	C	-0.326050	-0.978132	-0.502775
C49	C	-0.326032	-0.978149	-0.578007
C50	C	-0.326107	-0.154637	-0.326266
C51	C	-0.326107	-0.229869	-0.326260
C52	C	-0.282743	-1.021466	-0.613373
C53	C	-0.282724	-1.021473	-0.684061
C54	C	-0.325996	-0.978165	-0.719383
C55	C	-0.369286	-0.934844	-0.684012
C56	C	-0.369302	-0.934834	-0.613325
C57	C	-0.369223	-0.934882	-0.969085
C58	C	-0.369206	-0.934896	-1.039777
C59	C	-0.282645	-1.021521	-1.039822
C60	C	-0.282661	-1.021511	-0.969135
C61	C	-0.325948	-0.978187	-0.933770
C62	C	-0.325968	-0.978179	-0.857122
C63	C	-0.325980	-0.978176	-0.796030
C64	C	-0.326086	-0.978096	-0.150376
C65	C	-0.325913	-0.978211	-0.075144
H66	H	-0.404738	-0.236448	-0.404658
H67	H	-0.939529	-0.899599	-0.404713
H68	H	-0.404445	-0.899628	-1.068534
H69	H	-0.583769	-0.899454	-0.404673
O70	O	-0.416184	-0.374033	-0.416057
H71	H	-0.446315	-0.337584	-0.446116
H72	H	-0.711967	-1.056676	-0.247793
O73	O	-0.415898	-0.888158	-0.930930
H74	H	-0.385587	-0.853743	-0.898733
O75	O	-0.415954	-0.888127	-0.722106
H76	H	-0.450393	-0.918401	-0.754308
H77	H	-1.067772	-0.899655	-0.404740
H78	H	-0.583723	-1.056623	-0.247774
H79	H	-0.712003	-0.899496	-0.404682
O80	O	-0.236071	-1.068176	-0.575276
H81	H	-0.205962	-1.098293	-0.611747
O82	O	-0.236039	-1.068197	-0.722208
H83	H	-0.205959	-1.098316	-0.685771
H84	H	-0.247426	-1.056778	-0.940379
O85	O	-0.235934	-1.068233	-1.077963
H86	H	-0.243179	-1.060956	-1.133051
H87	H	-0.939490	-1.056766	-0.247821
O88	O	-0.416254	-0.582860	-0.415945
H89	H	-0.446424	-0.619316	-0.445954
H90	H	-0.404714	-0.720453	-0.404588
H91	H	-0.247443	-0.720429	-0.247795
H92	H	-0.404545	-0.899554	-0.584531
H93	H	-0.247457	-0.592195	-0.247803
O94	O	-0.236008	-0.374003	-0.236419
H95	H	-0.243280	-0.429095	-0.243676
O96	O	-1.077067	-1.068289	-0.236426
H97	H	-1.132160	-1.061046	-0.243705
H98	H	-0.247472	-0.236426	-0.247858
