data_functionalizedCrystal
_audit_creation_method	'MofGen! by Chris Wilmer'
_symmetry_space_group_name_H-M	'P1'
_symmetry_Int_Tables_number	1
_symmetry_cell_setting	triclinic
loop_
_symmetry_equiv_pos_as_xyz
  x,y,z
_cell_length_a	26.210047
_cell_length_b	19.188930
_cell_length_c	27.731996
_cell_angle_alpha	82.883082
_cell_angle_beta	90.017346
_cell_angle_gamma	90.006159
loop_
_atom_site_label
_atom_site_type_symbol
_atom_site_fract_x
_atom_site_fract_y
_atom_site_fract_z
O1	O	-0.042600	-0.925730	-0.060355
O2	O	-0.042565	-0.722365	-0.068478
O3	O	-0.042573	-0.830383	0.005963
O4	O	-0.042592	-0.817712	-0.134796
O5	O	0.042286	-0.830400	0.005977
O6	O	0.042293	-0.722382	-0.068465
O7	O	0.042259	-0.925748	-0.060341
Cu8	Cu	0.050024	-0.824067	-0.064401
Cu9	Cu	-0.050331	-0.824046	-0.064418
O10	O	0.042266	-0.817730	-0.134782
C11	C	-0.000132	-0.696364	-0.068208
C12	C	-0.000118	-0.618865	-0.067419
N13	N	-0.120915	-0.824032	-0.064426
C14	C	-0.000142	-0.830131	0.023978
C15	C	-0.000136	-0.829347	0.077636
C16	C	-0.473432	-0.871992	-0.031516
C17	C	-0.687090	-0.872002	-0.031505
O18	O	-0.714715	-0.912775	-0.003542
N19	N	-0.713809	-0.824082	-0.064399
C20	C	-0.687109	-0.776159	-0.097299
O21	O	-0.714737	-0.735406	-0.125280
C22	C	-0.473451	-0.776153	-0.097312
C23	C	-0.446736	-0.824071	-0.064413
C24	C	-0.446716	-0.919906	0.001380
C25	C	-0.393305	-0.919901	0.001379
C26	C	-0.366609	-0.871980	-0.031518
C27	C	-0.393324	-0.824066	-0.064414
C28	C	-0.446752	-0.728234	-0.130214
C29	C	-0.393334	-0.728238	-0.130215
C30	C	-0.366619	-0.776156	-0.097316
C31	C	-0.313217	-0.776140	-0.097312
N32	N	-0.286499	-0.824059	-0.064418
C33	C	-0.313195	-0.871980	-0.031521
C34	C	-0.799282	-0.776165	-0.097290
C35	C	-0.852696	-0.776166	-0.097287
C36	C	-0.852674	-0.872010	-0.031493
C37	C	-0.799259	-0.872005	-0.031495
C38	C	-0.772564	-0.824085	-0.064397
C39	C	-0.201027	-0.871964	-0.031526
C40	C	-0.147611	-0.871952	-0.031529
C41	C	-0.147637	-0.776111	-0.097324
C42	C	-0.201049	-0.776120	-0.097320
C43	C	-0.227742	-0.824053	-0.064419
O44	O	-0.285559	-0.735393	-0.125264
O45	O	-0.285558	-0.912738	-0.003552
C46	C	-0.526843	-0.871997	-0.031515
C47	C	-0.553559	-0.824082	-0.064410
C48	C	-0.526863	-0.776162	-0.097307
C49	C	-0.606973	-0.824083	-0.064407
C50	C	-0.633669	-0.872003	-0.031510
C51	C	-0.606951	-0.919923	0.001384
C52	C	-0.553539	-0.919918	0.001382
C53	C	-0.553581	-0.728242	-0.130201
C54	C	-0.606992	-0.728251	-0.130197
C55	C	-0.633688	-0.776172	-0.097300
N56	N	0.120608	-0.824086	-0.064390
C57	C	-0.000176	-0.951748	-0.060611
C58	C	-0.000193	-1.029247	-0.061400
C59	C	-0.000133	-0.573651	-0.111098
C60	C	-0.000138	-0.500832	-0.110356
C61	C	-0.000140	-0.473231	-0.065932
C62	C	-0.000123	-0.518455	-0.022247
C63	C	-0.000112	-0.591272	-0.022990
N64	N	-0.029036	-0.365470	-0.031980
N65	N	-0.029047	-0.296296	-0.031277
C66	C	-0.000171	-0.253837	-0.063690
N67	N	0.028712	-0.283163	-0.096841
N68	N	0.028720	-0.352343	-0.097545
C69	C	-0.000151	-0.394274	-0.065122
C70	C	-0.000190	-0.129663	-0.106569
C71	C	-0.000192	-0.056844	-0.105825
C72	C	-0.000182	-0.074468	-0.017714
C73	C	-0.000174	-0.147286	-0.018459
C74	C	-0.000181	-0.174879	-0.062888
C75	C	-0.000166	-0.817982	-0.152797
C76	C	-0.000175	-0.818765	-0.206456
C77	C	-0.046417	-0.824405	0.410360
C78	C	-0.046425	-0.821428	0.612028
O79	O	-0.085764	-0.821005	0.638093
N80	N	-0.000169	-0.821068	0.637253
C81	C	0.046092	-0.821448	0.612059
O82	O	0.085435	-0.821066	0.638142
C83	C	0.046100	-0.824420	0.410392
C84	C	-0.000159	-0.824787	0.385169
C85	C	-0.092672	-0.824772	0.385138
C86	C	-0.092669	-0.825520	0.334724
C87	C	-0.046411	-0.825901	0.309533
C88	C	-0.000156	-0.825535	0.334756
C89	C	0.092360	-0.824794	0.385198
C90	C	0.092358	-0.825535	0.334778
C91	C	0.046099	-0.825903	0.309555
C92	C	0.046104	-0.826664	0.259152
N93	N	-0.000152	-0.827025	0.233926
C94	C	-0.046410	-0.826643	0.259117
C95	C	0.046084	-0.819889	0.717937
C96	C	0.046083	-0.819147	0.768354
C97	C	-0.046435	-0.819126	0.768319
C98	C	-0.046432	-0.819873	0.717902
C99	C	-0.000171	-0.820249	0.692711
C100	C	-0.046401	-0.828215	0.153245
C101	C	-0.046394	-0.828966	0.102827
C102	C	0.046123	-0.828982	0.102866
C103	C	0.046116	-0.828235	0.153280
C104	C	-0.000149	-0.827849	0.178468
O105	O	0.085422	-0.827080	0.233054
O106	O	-0.085747	-0.827009	0.233024
C107	C	-0.046419	-0.823657	0.460774
C108	C	-0.000164	-0.823291	0.485996
C109	C	0.046093	-0.823672	0.460806
C110	C	-0.000166	-0.822549	0.536413
C111	C	-0.046424	-0.822167	0.561604
C112	C	-0.092679	-0.822528	0.536378
C113	C	-0.092677	-0.823276	0.485965
C114	C	0.092349	-0.823312	0.486031
C115	C	0.092343	-0.822565	0.536445
C116	C	0.046085	-0.822183	0.561636
H117	H	-0.125861	-0.910973	-0.004737
C118	C	-0.261119	-0.680977	-0.107851
C119	C	-0.230415	-0.723441	-0.133478
H120	H	-0.279242	-0.648454	-0.130177
H121	H	-0.284664	-0.709517	-0.088267
H122	H	-0.240270	-0.656150	-0.087734
H123	H	-0.251264	-0.748272	-0.153593
H124	H	-0.206868	-0.694897	-0.153071
H125	H	-0.125893	-0.737093	-0.124107
H126	H	-0.468448	-0.958932	0.028169
C127	C	-0.398665	-1.014648	0.066402
C128	C	-0.363944	-0.972587	0.037535
H129	H	-0.380540	-1.047181	0.088720
H130	H	-0.419485	-0.985836	0.083786
H131	H	-0.419512	-1.039463	0.046276
H132	H	-0.343100	-0.947768	0.057660
H133	H	-0.343115	-1.001403	0.020149
H134	H	0.083758	-0.820198	0.697432
H135	H	0.130029	-0.824496	0.405726
C136	C	0.043447	-0.067053	0.057619
C137	C	-0.000182	-0.044135	0.031118
H138	H	0.043449	-0.048319	0.087765
H139	H	0.043450	-0.116885	0.063428
H140	H	0.073031	-0.051484	0.039639
H141	H	-0.029766	-0.059708	0.049096
H142	H	-0.000189	0.005708	0.025310
C143	C	0.124974	-0.769159	0.081795
C144	C	0.096966	-0.829385	0.075165
H145	H	0.156362	-0.769404	0.064693
H146	H	0.105962	-0.728561	0.069759
H147	H	0.131598	-0.768676	0.115432
H148	H	0.090338	-0.829866	0.041529
H149	H	0.115981	-0.869994	0.087199
H150	H	-0.531792	-0.958937	0.028172
C151	C	-0.043782	-0.239415	0.031808
C152	C	-0.000167	-0.196992	0.029555
H153	H	-0.043774	-0.270104	0.061451
H154	H	-0.073372	-0.210652	0.030263
H155	H	-0.043775	-0.266270	0.005242
H156	H	-0.000176	-0.170134	0.056120
H157	H	0.029431	-0.225759	0.031105
H158	H	-0.628695	-0.958940	0.028171
C159	C	-0.601635	-0.633520	-0.195238
C160	C	-0.636354	-0.675575	-0.166364
H161	H	-0.619762	-0.601008	-0.217569
H162	H	-0.580798	-0.608687	-0.175122
H163	H	-0.580805	-0.662345	-0.212612
H164	H	-0.657182	-0.646751	-0.148987
H165	H	-0.657200	-0.700410	-0.186482
C166	C	-0.184115	-0.825413	0.339768
C167	C	-0.143519	-0.825911	0.307003
H168	H	-0.215509	-0.825648	0.322655
H169	H	-0.182198	-0.865854	0.363205
H170	H	-0.182174	-0.784391	0.355661
H171	H	-0.145458	-0.866936	0.291113
H172	H	-0.145437	-0.785466	0.283558
C173	C	-0.171518	-0.762221	0.546315
C174	C	-0.143525	-0.822095	0.564076
H175	H	-0.202907	-0.761952	0.563415
H176	H	-0.152497	-0.721384	0.550803
H177	H	-0.178143	-0.762730	0.512681
H178	H	-0.136898	-0.821584	0.597709
H179	H	-0.162551	-0.862942	0.559591
H180	H	-0.130346	-0.823574	0.465433
H181	H	-0.084065	-0.829266	0.082293
C182	C	0.043504	-0.511031	0.053087
C183	C	-0.000125	-0.488118	0.026585
H184	H	0.043505	-0.492299	0.083233
H185	H	0.043510	-0.560864	0.058895
H186	H	0.073088	-0.495459	0.035107
H187	H	-0.029709	-0.503695	0.044563
H188	H	-0.000136	-0.438275	0.020778
H189	H	-0.777550	-0.737141	-0.124083
H190	H	-0.531849	-0.689220	-0.156990
C191	C	0.099754	-0.878355	0.830634
C192	C	0.096930	-0.818742	0.796078
H193	H	0.131147	-0.878099	0.847746
H194	H	0.072208	-0.878020	0.852851
H195	H	0.097830	-0.919374	0.814737
H196	H	0.098850	-0.777723	0.811975
H197	H	0.124483	-0.819071	0.773857
C198	C	0.099797	-0.767379	0.204439
C199	C	0.096961	-0.827849	0.181014
H200	H	0.131185	-0.767143	0.221562
H201	H	0.097891	-0.726946	0.180995
H202	H	0.072242	-0.767046	0.226654
H203	H	0.124513	-0.828179	0.158797
H204	H	0.098872	-0.868292	0.204461
C205	C	-0.000142	-0.548910	-0.198116
C206	C	-0.000131	-0.603980	-0.159934
H207	H	-0.000137	-0.567637	-0.228265
H208	H	-0.029737	-0.520891	-0.195999
H209	H	0.029447	-0.520861	-0.195984
H210	H	-0.029722	-0.632026	-0.162064
H211	H	0.029467	-0.632011	-0.162052
H212	H	-0.084075	-0.827897	0.173747
H213	H	-0.000148	-0.464011	-0.145927
H214	H	-0.130342	-0.824458	0.405642
H215	H	-0.084100	-0.820171	0.697369
H216	H	-0.000101	-0.628087	0.012580
C217	C	-0.000195	-0.104931	-0.193587
C218	C	-0.000189	-0.160000	-0.155403
H219	H	-0.000191	-0.123660	-0.223734
H220	H	-0.029788	-0.076907	-0.191471
H221	H	0.029396	-0.076886	-0.191454
H222	H	-0.029782	-0.188042	-0.157533
H223	H	0.029407	-0.188035	-0.157520
C224	C	-0.043836	0.035253	-0.156106
C225	C	-0.000209	-0.007140	-0.153841
H226	H	-0.043844	0.065940	-0.185749
H227	H	-0.073418	0.006469	-0.154568
H228	H	-0.043827	0.062108	-0.129540
H229	H	-0.000220	-0.033999	-0.180406
H230	H	0.029381	0.021648	-0.155385
C231	C	0.146037	-0.886418	0.283668
C232	C	0.143212	-0.825948	0.307091
H233	H	0.177430	-0.886670	0.266574
H234	H	0.144108	-0.926851	0.307110
H235	H	0.118490	-0.886737	0.261427
H236	H	0.170757	-0.825632	0.329334
H237	H	0.145145	-0.785505	0.283646
C238	C	0.183794	-0.822647	0.531402
C239	C	0.143196	-0.822159	0.564166
H240	H	0.215187	-0.822388	0.548514
H241	H	0.181866	-0.863670	0.515517
H242	H	0.181867	-0.782207	0.507958
H243	H	0.145121	-0.862602	0.587608
H244	H	0.145125	-0.781132	0.580059
H245	H	-0.084099	-0.818816	0.788838
C246	C	0.146013	-0.884211	0.434925
C247	C	0.143198	-0.823737	0.458344
H248	H	0.177406	-0.884473	0.417831
H249	H	0.144080	-0.924641	0.458369
H250	H	0.118465	-0.884525	0.412685
H251	H	0.170744	-0.823426	0.480587
H252	H	0.145136	-0.783297	0.434897
C253	C	-0.195625	-0.966693	0.033514
C254	C	-0.230363	-0.924646	0.004642
H255	H	-0.213737	-0.999211	0.055845
H256	H	-0.174803	-0.991520	0.013396
H257	H	-0.174783	-0.937864	0.050886
H258	H	-0.251203	-0.953476	-0.012734
H259	H	-0.251194	-0.899818	0.024762
H260	H	-0.874419	-0.911027	-0.004706
C261	C	-0.739169	-0.888069	0.034314
C262	C	-0.769895	-0.924680	0.004667
H263	H	-0.721046	-0.920591	0.056640
H264	H	-0.715624	-0.859540	0.014721
H265	H	-0.760002	-0.859254	0.051692
H266	H	-0.749062	-0.953490	-0.012715
H267	H	-0.793443	-0.953220	0.024261
C268	C	-0.441386	-0.633516	-0.195256
C269	C	-0.476108	-0.675565	-0.166382
H270	H	-0.459510	-0.601002	-0.217588
H271	H	-0.420547	-0.608685	-0.175140
H272	H	-0.420558	-0.662345	-0.212628
H273	H	-0.496934	-0.646736	-0.149007
H274	H	-0.496956	-0.700397	-0.186500
C275	C	-0.847339	-0.681434	-0.162322
C276	C	-0.882058	-0.723489	-0.133447
H277	H	-0.865466	-0.648918	-0.184650
H278	H	-0.826499	-0.656606	-0.142206
H279	H	-0.826513	-0.710259	-0.179699
H280	H	-0.902882	-0.694665	-0.116067
H281	H	-0.902907	-0.748318	-0.153566
H282	H	-0.371602	-0.689216	-0.157009
