data_functionalizedCrystal
_audit_creation_method	'MofGen! by Chris Wilmer'
_symmetry_space_group_name_H-M	'P1'
_symmetry_Int_Tables_number	1
_symmetry_cell_setting	triclinic
loop_
_symmetry_equiv_pos_as_xyz
  x,y,z
_cell_length_a	17.699077
_cell_length_b	16.992695
_cell_length_c	16.176319
_cell_angle_alpha	89.993125
_cell_angle_beta	89.993140
_cell_angle_gamma	86.974400
loop_
_atom_site_label
_atom_site_type_symbol
_atom_site_fract_x
_atom_site_fract_y
_atom_site_fract_z
O1	O	1.010253	0.099123	-0.068736
O2	O	1.510253	0.599123	0.431264
O3	O	0.790678	0.112027	-0.068741
O4	O	1.290678	0.612027	0.431259
O5	O	0.899585	-0.008566	-0.068732
O6	O	1.399585	0.491434	0.431268
O7	O	0.901346	0.219716	-0.068745
O8	O	1.401346	0.719716	0.431255
O9	O	0.899569	-0.008573	0.068761
O10	O	1.399569	0.491427	0.568761
O11	O	0.790661	0.112020	0.068753
O12	O	1.290661	0.612020	0.568753
O13	O	1.010237	0.099116	0.068757
O14	O	1.510237	0.599116	0.568757
Cu15	Cu	0.900447	0.105567	0.081309
Cu16	Cu	1.400447	0.605567	0.581309
Cu17	Cu	0.900467	0.105576	-0.081293
Cu18	Cu	1.400467	0.605576	0.418707
O19	O	0.901329	0.219709	0.068748
O20	O	1.401329	0.719709	0.568748
C21	C	0.762443	0.111562	0.000006
C22	C	1.262443	0.611562	0.500006
C23	C	0.678339	0.110177	0.000004
C24	C	1.178339	0.610177	0.500004
C25	C	0.638822	0.109520	0.074953
C26	C	1.138822	0.609520	0.574953
C27	C	0.559798	0.108207	0.074954
C28	C	1.059798	0.608207	0.574954
C29	C	0.520291	0.107555	0.000005
C30	C	1.020291	0.607555	0.500005
C31	C	0.559814	0.108210	-0.074949
C32	C	1.059814	0.608210	0.425051
C33	C	0.638837	0.109518	-0.074949
C34	C	1.138837	0.609518	0.425051
C35	C	0.241122	0.102934	-0.074950
C36	C	0.741122	0.602934	0.425050
C37	C	0.162093	0.101628	-0.074945
C38	C	0.662093	0.601628	0.425055
C39	C	0.162083	0.101623	0.074952
C40	C	0.662083	0.601623	0.574952
C41	C	0.241106	0.102931	0.074952
C42	C	0.741106	0.602931	0.574952
C43	C	0.280622	0.103581	-0.000001
C44	C	0.780622	0.603581	0.499999
C45	C	0.366309	0.105004	-0.000002
C46	C	0.866309	0.605004	0.499998
C47	C	0.434605	0.106138	0.000004
C48	C	0.934605	0.606138	0.500004
C49	C	0.897312	-0.037778	0.000014
C50	C	1.397312	0.462222	0.500014
C51	C	0.890555	-0.124809	0.000014
C52	C	1.390555	0.375191	0.500014
C53	C	0.955753	-0.175175	0.000016
C54	C	1.455753	0.324825	0.500016
C55	C	0.949399	-0.256949	0.000008
C56	C	1.449399	0.243051	0.500008
C57	C	0.877847	-0.288356	0.000004
C58	C	1.377847	0.211644	0.500004
C59	C	0.812644	-0.237983	-0.000000
C60	C	1.312644	0.262017	0.500000
C61	C	0.818999	-0.156211	0.000002
C62	C	1.318999	0.343789	0.500002
C63	C	0.851511	-0.531903	-0.000008
C64	C	1.351511	-0.031903	0.499992
C65	C	0.845161	-0.613682	-0.000007
C66	C	1.345161	-0.113682	0.499993
C67	C	0.981917	-0.632642	-0.000000
C68	C	1.481917	-0.132642	0.500000
C69	C	0.988265	-0.550867	0.000007
C70	C	1.488265	-0.050867	0.500007
C71	C	0.923062	-0.500502	-0.000002
C72	C	1.423062	-0.000502	0.499998
N73	N	0.871351	-0.371942	-0.000001
N74	N	1.371351	0.128058	0.499999
N75	N	0.929559	-0.416917	-0.000002
N76	N	1.429559	0.083083	0.499998
C77	C	1.038471	0.099581	0.000009
C78	C	1.538471	0.599581	0.500009
C79	C	1.122575	0.100966	0.000005
C80	C	1.622575	0.600966	0.500005
C81	C	0.903602	0.248921	-0.000000
C82	C	1.403602	0.748921	0.500000
C83	C	0.910359	0.335952	-0.000005
C84	C	1.410359	0.835952	0.499995
N85	N	0.900439	0.105560	0.195674
N86	N	1.400439	0.605560	0.695674
N87	N	0.900481	0.105577	-0.195658
N88	N	1.400481	0.605577	0.304342
C89	C	0.948680	0.052183	0.238942
C90	C	1.448680	0.552183	0.738942
C91	C	0.948684	0.052182	0.325489
C92	C	1.448684	0.552182	0.825489
C93	C	0.900450	0.105563	0.368767
C94	C	1.400450	0.605563	0.868767
C95	C	0.852204	0.158942	0.325493
C96	C	1.352204	0.658942	0.825493
C97	C	0.852197	0.158939	0.238947
C98	C	1.352197	0.658939	0.738947
C99	C	0.852230	0.158957	0.674521
C100	C	1.352230	0.658957	1.174521
C101	C	0.852243	0.158958	0.761072
C102	C	1.352243	0.658958	1.261072
C103	C	0.948718	0.052201	0.761063
C104	C	1.448718	0.552201	1.261063
C105	C	0.948711	0.052197	0.674517
C106	C	1.448711	0.552197	1.174517
C107	C	0.900462	0.105573	0.631251
C108	C	1.400462	0.605573	1.131251
C109	C	0.900457	0.105573	0.537407
C110	C	1.400457	0.605573	1.037407
C111	C	0.900458	0.105568	0.462609
C112	C	1.400458	0.605568	0.962609
H113	H	0.670982	0.110057	0.135984
H114	H	1.170982	0.610057	0.635984
H115	H	1.014018	-0.149611	0.000025
H116	H	1.514018	0.350389	0.500025
H117	H	0.987965	0.008719	0.360718
H118	H	1.487965	0.508719	0.860718
O119	O	1.052241	-0.686962	0.000004
O120	O	1.552241	-0.186962	0.500004
H121	H	1.035805	-0.749101	-0.000004
H122	H	1.535805	-0.249101	0.499996
H123	H	0.812946	0.202419	0.639300
H124	H	1.312946	0.702419	1.139300
H125	H	0.812913	0.202402	0.203719
H126	H	1.312913	0.702402	0.703719
H127	H	0.129930	0.101097	-0.135980
H128	H	0.629930	0.601097	0.364020
H129	H	0.273287	0.103461	-0.135982
H130	H	0.773287	0.603461	0.364018
O131	O	0.283708	0.103643	0.155795
O132	O	0.783708	0.603643	0.655795
H133	H	0.323236	0.050829	0.159389
H134	H	0.823236	0.550829	0.659389
O135	O	0.748675	-0.101887	0.000008
O136	O	1.248675	0.398113	0.500008
H137	H	0.748301	-0.064175	-0.056035
H138	H	1.248301	0.435825	0.443965
O139	O	1.000726	-0.005384	0.627836
O140	O	1.500726	0.494616	1.127836
H141	H	1.060328	0.004517	0.644429
H142	H	1.560328	0.504517	1.144429
H143	H	0.527642	0.107674	-0.135973
H144	H	1.027642	0.607674	0.364027
O145	O	0.767984	-0.647561	-0.000021
O146	O	1.267984	-0.147561	0.499979
H147	H	0.723711	-0.598802	-0.000036
H148	H	1.223711	-0.098802	0.499964
O149	O	0.800224	0.216549	0.807746
O150	O	1.300224	0.716549	1.307746
H151	H	0.740621	0.206640	0.791165
H152	H	1.240621	0.706640	1.291165
H153	H	0.812927	0.202403	0.360734
H154	H	1.312927	0.702403	0.860734
O155	O	0.781184	-0.477592	0.000003
O156	O	1.281184	0.022408	0.500003
H157	H	0.747176	-0.488740	-0.056031
H158	H	1.247176	0.011260	0.443969
O159	O	0.517172	0.107507	0.155790
O160	O	1.017172	0.607507	0.655790
H161	H	0.557918	0.108192	0.207906
H162	H	1.057918	0.608192	0.707906
H163	H	1.002490	-0.297955	0.000012
H164	H	1.502490	0.202045	0.500012
O165	O	1.065439	-0.516992	-0.000009
O166	O	1.565439	-0.016992	0.499991
H167	H	1.109709	-0.565754	-0.000021
H168	H	1.609709	-0.065754	0.499979
O169	O	0.681465	0.110231	-0.155785
O170	O	1.181465	0.610231	0.344215
H171	H	0.640719	0.109567	-0.207903
H172	H	1.140719	0.609567	0.292097
H173	H	0.129899	0.101090	0.135983
H174	H	0.629899	0.601090	0.635983
H175	H	0.754385	-0.263561	-0.000009
H176	H	1.254385	0.236439	0.499991
H177	H	0.987961	0.008718	0.203711
H178	H	1.487961	0.508718	0.703711
H179	H	0.988003	0.008736	0.796300
H180	H	1.488003	0.508736	1.296300
