data_functionalizedCrystal
_audit_creation_method	'MofGen! by Chris Wilmer'
_symmetry_space_group_name_H-M	'P1'
_symmetry_Int_Tables_number	1
_symmetry_cell_setting	triclinic
loop_
_symmetry_equiv_pos_as_xyz
  x,y,z
_cell_length_a	10.654551
_cell_length_b	9.130313
_cell_length_c	14.971486
_cell_angle_alpha	89.999428
_cell_angle_beta	84.049700
_cell_angle_gamma	90.000211
loop_
_atom_site_label
_atom_site_type_symbol
_atom_site_fract_x
_atom_site_fract_y
_atom_site_fract_z
O1	O	1.666486	-0.121781	0.125630
O2	O	1.300879	-0.121789	0.137598
O3	O	1.493482	-0.121774	0.001467
O4	O	1.473883	-0.121796	0.261761
O5	O	1.493479	0.121824	0.001473
O6	O	1.300876	0.121810	0.137604
O7	O	1.666483	0.121817	0.125636
Cu8	Cu	1.483679	0.144056	0.131620
Cu9	Cu	1.483683	-0.144027	0.131613
O10	O	1.473880	0.121803	0.261767
C11	C	1.254089	0.000010	0.136722
C12	C	1.114674	0.000008	0.134092
N13	N	1.483686	0.346679	0.131625
C14	C	0.918181	0.132795	0.130380
C15	C	1.049174	0.132795	0.132858
C16	C	1.049172	-0.132789	0.132857
C17	C	0.918179	-0.132788	0.130384
C18	C	0.852689	0.265592	0.129137
C19	C	0.918182	0.398389	0.130374
C20	C	1.049176	0.398390	0.132853
C21	C	1.114677	0.265592	0.134094
C22	C	1.568992	0.423337	0.071368
C23	C	1.568988	0.576674	0.071358
C24	C	1.398368	0.576681	0.191872
C25	C	1.398367	0.423347	0.191876
C26	C	1.654310	0.346669	0.011117
C27	C	1.739624	0.423328	-0.049145
C28	C	1.739620	0.576665	-0.049154
C29	C	1.654303	0.653343	0.011098
C30	C	1.713273	0.000016	0.126512
C31	C	1.852688	0.000008	0.129141
N32	N	1.483683	0.653350	0.131611
C33	C	1.492604	0.000025	-0.031859
C34	C	1.489977	0.000023	-0.131171
C35	C	1.603126	0.000026	-0.187780
C36	C	1.600651	0.000012	-0.281093
C37	C	1.485025	0.000004	-0.317795
C38	C	1.371868	-0.000004	-0.261178
C39	C	1.374344	0.000001	-0.167867
C40	C	1.366713	-0.000009	-0.455669
C41	C	1.364236	-0.000010	-0.548986
C42	C	1.593020	0.000002	-0.568895
C43	C	1.595496	0.000006	-0.475584
C44	C	1.482338	0.000001	-0.418973
C45	C	1.474758	0.000001	0.295093
C46	C	1.477385	-0.000007	0.394404
H47	H	0.746028	0.265606	0.127117
H48	H	1.697282	0.000042	-0.157905
H49	H	0.864841	0.506507	0.129370
O50	O	1.654549	0.197720	0.011118
C51	C	1.773765	0.146506	0.030122
H52	H	1.847722	0.234873	0.012282
H53	H	1.770552	0.119311	0.104644
C54	C	1.717591	-0.100605	-0.003774
C55	C	1.808428	0.007925	-0.025693
H56	H	1.738972	-0.186092	-0.038200
H57	H	1.637271	-0.066103	-0.016574
H58	H	1.714922	-0.123250	0.058329
H59	H	1.811084	0.030580	-0.087791
H60	H	1.888750	-0.026577	-0.012904
O61	O	1.264514	0.000196	-0.112783
C62	C	1.259079	0.126375	-0.058227
H63	H	1.358765	0.168444	-0.052893
H64	H	1.201670	0.214714	-0.089275
C65	C	1.073598	0.036375	0.029549
C66	C	1.196035	0.088038	0.036107
H67	H	1.034704	0.012730	0.087738
H68	H	1.077256	-0.048632	-0.007208
H69	H	1.025774	0.110000	0.003672
H70	H	1.243861	0.014407	0.061973
H71	H	1.192383	0.173032	0.072871
O72	O	1.252001	-0.000224	-0.584749
C73	C	1.243737	-0.126405	-0.638113
H74	H	1.342691	-0.168450	-0.660726
H75	H	1.188244	-0.214758	-0.597244
C76	C	1.054463	-0.036453	-0.693292
C77	C	1.176001	-0.088085	-0.721072
H78	H	1.012675	-0.012819	-0.744463
H79	H	1.060027	0.048556	-0.657337
H80	H	1.008235	-0.110089	-0.659233
H81	H	1.222232	-0.014443	-0.755119
H82	H	1.170443	-0.173081	-0.757034
O83	O	1.112714	-0.261816	0.134215
C84	C	1.066580	-0.342623	0.210927
H85	H	1.020707	-0.264932	0.264299
H86	H	0.993737	-0.425424	0.192008
C87	C	1.232893	-0.519409	0.182634
C88	C	1.176561	-0.423986	0.248188
H89	H	1.300732	-0.569603	0.205617
H90	H	1.263972	-0.464972	0.130949
H91	H	1.172179	-0.588397	0.166873
H92	H	1.237270	-0.354989	0.263939
H93	H	1.145494	-0.478414	0.299877
O94	O	1.822369	0.348943	-0.107812
C95	C	1.801825	0.386467	-0.196484
H96	H	1.701274	0.428594	-0.197571
H97	H	1.871369	0.475498	-0.222289
C98	C	1.944766	0.198542	-0.255683
C99	C	1.821264	0.250271	-0.257019
H100	H	1.956762	0.114533	-0.293025
H101	H	1.958611	0.173264	-0.195943
H102	H	2.002706	0.272747	-0.277185
H103	H	1.763327	0.176074	-0.235507
H104	H	1.807409	0.275533	-0.316757
H105	H	1.809078	0.639078	-0.098227
O106	O	1.710650	-0.000173	-0.335988
C107	C	1.780838	-0.126342	-0.319250
H108	H	1.750105	-0.168401	-0.248669
H109	H	1.763603	-0.214693	-0.370385
C110	C	1.960055	-0.036343	-0.413924
C111	C	1.922315	-0.087993	-0.327232
H112	H	2.047325	-0.012692	-0.418851
H113	H	1.912767	0.048657	-0.425204
H114	H	1.945681	-0.109977	-0.456527
H115	H	1.936674	-0.014353	-0.284632
H116	H	1.969609	-0.172981	-0.315945
O117	O	1.315632	0.348935	0.250535
C118	C	1.336145	0.386427	0.339217
H119	H	1.436683	0.428585	0.340324
H120	H	1.266573	0.475425	0.365028
C121	C	1.193238	0.198432	0.398368
C122	C	1.316725	0.250200	0.399728
H123	H	1.181254	0.114404	0.435696
H124	H	1.179414	0.173176	0.338622
H125	H	1.135276	0.272610	0.419876
H126	H	1.374684	0.176029	0.378211
H127	H	1.330559	0.275441	0.459473
H128	H	1.102495	0.506519	0.133869
O129	O	1.702827	-0.000075	-0.624009
C130	C	1.675854	-0.000057	-0.714238
H131	H	1.577208	-0.046178	-0.718424
H132	H	1.680574	0.116805	-0.741199
C133	C	1.894426	-0.038949	-0.765586
C134	C	1.773272	-0.095608	-0.770727
H135	H	1.954520	-0.097884	-0.800432
H136	H	1.912601	-0.038956	-0.704797
H137	H	1.898342	0.058434	-0.788052
H138	H	1.769353	-0.192982	-0.748251
H139	H	1.755099	-0.095620	-0.831514
H140	H	1.328907	0.639122	0.240928
H141	H	1.689649	0.000023	-0.445704
H142	H	1.221339	0.265603	0.136123
H143	H	1.274568	-0.000017	-0.409578
H144	H	0.864854	-0.240915	0.129378
H145	H	1.654299	0.778200	0.011079
H146	H	1.277723	-0.000019	-0.291068
