data_functionalizedCrystal
_audit_creation_method	'MofGen! by Chris Wilmer'
_symmetry_space_group_name_H-M	'P1'
_symmetry_Int_Tables_number	1
_symmetry_cell_setting	triclinic
loop_
_symmetry_equiv_pos_as_xyz
  x,y,z
_cell_length_a	15.944499
_cell_length_b	15.944551
_cell_length_c	14.472310
_cell_angle_alpha	89.997979
_cell_angle_beta	89.984384
_cell_angle_gamma	83.488174
loop_
_atom_site_label
_atom_site_type_symbol
_atom_site_fract_x
_atom_site_fract_y
_atom_site_fract_z
O1	O	1.114562	0.108119	-0.076898
O2	O	0.870007	0.121521	-0.076888
O3	O	0.998963	-0.007456	-0.076885
O4	O	0.985606	0.237096	-0.076901
O5	O	0.998930	-0.007448	0.076797
O6	O	0.869973	0.121529	0.076794
O7	O	1.114529	0.108127	0.076784
Cu8	Cu	0.992248	0.114828	0.090821
Cu9	Cu	0.992287	0.114820	-0.090926
O10	O	0.985573	0.237104	0.076781
C11	C	0.838695	0.120976	-0.000046
C12	C	0.745447	0.119331	-0.000042
C13	C	0.453911	0.194263	-0.000061
C14	C	0.514957	0.155308	-0.075833
C15	C	0.409810	0.113355	-0.000063
C16	C	0.514910	0.155294	0.075686
C17	C	0.574719	0.116296	-0.000051
C18	C	0.469628	0.074377	-0.075898
C19	C	0.469575	0.074374	0.075689
C20	C	0.530603	0.035360	-0.000102
C21	C	0.314810	0.111663	-0.000070
C22	C	0.669718	0.117981	-0.000050
C23	C	0.998392	-0.038746	-0.000044
C24	C	0.996729	-0.131992	-0.000043
C25	C	0.912823	-0.346833	-0.000053
C26	C	0.951770	-0.407854	0.075720
C27	C	0.993722	-0.302717	-0.000050
C28	C	0.951822	-0.407844	-0.075798
C29	C	0.990811	-0.467629	-0.000061
C30	C	1.032691	-0.362510	0.075785
C31	C	1.032732	-0.362494	-0.075801
C32	C	1.071737	-0.423497	-0.000010
C33	C	0.995397	-0.207715	-0.000043
C34	C	0.989143	-0.562630	-0.000062
C35	C	1.145840	0.108672	-0.000061
C36	C	1.239089	0.110317	-0.000071
N37	N	0.992227	0.114834	0.218652
C38	C	0.986144	0.268394	-0.000063
C39	C	0.987806	0.361640	-0.000069
N40	N	0.992316	0.114807	-0.218757
C41	C	0.992286	0.114816	0.592743
C42	C	0.923053	0.183598	0.553576
C43	C	0.923213	0.183849	0.446488
C44	C	0.992256	0.114825	0.407152
C45	C	1.079902	0.133956	0.445984
C46	C	1.079513	0.134445	0.553106
C47	C	0.974656	0.026700	0.553279
C48	C	0.972646	0.027287	0.446152
C49	C	0.992244	0.114828	0.302264
C50	C	0.992304	0.114815	0.697631
H51	H	0.449663	0.040185	-0.140029
O52	O	1.035116	-0.043685	0.410706
H53	H	1.031939	-0.045729	0.334137
H54	H	0.534971	0.189531	0.139743
O55	O	0.541593	0.200632	-0.160692
H56	H	0.585626	0.156855	-0.202333
H57	H	1.132652	0.085191	0.420502
O58	O	1.160759	-0.467447	-0.000014
H59	H	1.170529	-0.507944	0.062309
O60	O	0.409761	0.283204	-0.000148
H61	H	0.427814	0.316589	-0.063144
O62	O	0.442901	0.029076	0.160542
H63	H	0.397905	0.072506	0.201457
O64	O	1.077959	-0.336036	0.160733
H65	H	1.143712	-0.367537	0.160919
O66	O	0.823881	-0.302684	0.000044
H67	H	0.790487	-0.320723	0.063043
O68	O	1.078037	-0.335827	-0.160658
H69	H	1.044338	-0.353770	-0.223467
O70	O	0.891825	0.002331	0.589110
H71	H	0.849070	-0.005808	0.530072
O72	O	0.887238	0.008058	0.412550
H73	H	0.887182	0.005864	0.335894
O74	O	0.836474	0.168755	0.587740
H75	H	0.788756	0.218048	0.559180
H76	H	0.917608	-0.427918	-0.139863
H77	H	0.858064	0.172452	0.420235
O78	O	1.041522	-0.041109	0.586833
H79	H	1.087097	-0.012247	0.631401
O80	O	0.906438	-0.434479	0.160585
H81	H	0.840495	-0.403478	0.160435
H82	H	0.934157	0.248620	0.580480
H83	H	0.563780	-0.031846	-0.000138
H84	H	0.934472	0.249239	0.420848
O85	O	1.100969	0.218113	0.410440
H86	H	1.160703	0.208797	0.370436
H87	H	1.095048	0.198708	0.578076
H88	H	1.132640	0.086323	0.579012
