data_functionalizedCrystal
_audit_creation_method	'MofGen! by Chris Wilmer'
_symmetry_space_group_name_H-M	'P1'
_symmetry_Int_Tables_number	1
_symmetry_cell_setting	triclinic
loop_
_symmetry_equiv_pos_as_xyz
  x,y,z
_cell_length_a	19.077105
_cell_length_b	12.594516
_cell_length_c	19.076919
_cell_angle_alpha	92.277239
_cell_angle_beta	90.076224
_cell_angle_gamma	87.712633
loop_
_atom_site_label
_atom_site_type_symbol
_atom_site_fract_x
_atom_site_fract_y
_atom_site_fract_z
Zn1	Zn	1.058319	-0.514930	-0.440450
Zn2	Zn	1.062975	-0.686069	-0.322954
Zn3	Zn	0.945535	-0.500672	-0.318243
Zn4	Zn	0.940797	-0.685427	-0.435707
O5	O	1.001907	-0.596775	-0.379338
O6	O	1.157269	-0.543868	-0.428821
O7	O	1.051328	-0.655777	-0.223998
O8	O	0.960531	-0.353620	-0.334467
O9	O	1.160690	-0.669603	-0.342497
O10	O	1.043393	-0.364096	-0.424253
O11	O	0.965046	-0.519567	-0.220536
O12	O	0.846574	-0.518944	-0.329868
O13	O	0.952455	-0.668509	-0.534668
O14	O	0.843093	-0.654683	-0.416168
O15	O	1.038798	-0.543246	-0.538153
O16	O	1.046733	-0.834927	-0.337898
O17	O	0.956969	-0.834455	-0.420737
C18	C	0.819337	-0.585197	-0.371992
C19	C	0.741233	-0.580271	-0.368866
C20	C	0.702747	-0.648728	-0.412259
C21	C	0.629360	-0.644085	-0.409325
C22	C	0.594459	-0.570991	-0.362994
C23	C	0.632949	-0.502527	-0.319600
C24	C	0.706335	-0.507165	-0.322538
C25	C	0.375169	-0.549525	-0.349400
C26	C	0.301778	-0.544895	-0.346464
C27	C	0.298194	-0.686452	-0.436191
C28	C	0.371582	-0.691088	-0.439121
C29	C	0.410065	-0.622620	-0.395730
N30	N	0.519445	-0.566246	-0.359993
N31	N	0.485078	-0.627361	-0.398735
C32	C	1.001861	-0.873312	-0.379330
C33	C	1.001905	-0.991622	-0.379352
C34	C	0.953079	-1.060655	-0.424375
C35	C	0.938538	-1.126689	-0.359570
C36	C	1.016509	-1.136391	-0.444171
C37	C	0.987331	-1.056094	-0.314511
C38	C	1.065330	-1.065794	-0.399157
C39	C	1.050816	-1.131795	-0.334309
C40	C	1.185189	-0.608398	-0.386714
C41	C	1.263293	-0.613351	-0.389857
C42	C	0.994578	-0.607396	-0.562619
C43	C	0.991455	-0.611923	-0.640723
C44	C	1.001971	-0.319159	-0.379363
C45	C	1.001998	-0.200856	-0.379374
C46	C	1.034940	-0.548834	-0.679231
C47	C	1.031997	-0.553083	-0.752617
C48	C	0.985572	-0.620426	-0.787494
C49	C	0.942083	-0.683517	-0.748980
C50	C	0.945023	-0.679262	-0.675595
C51	C	0.971956	-0.640139	-1.006776
C52	C	0.969021	-0.644391	-1.080166
C53	C	1.058935	-0.513955	-1.083799
C54	C	1.061873	-0.509711	-1.010412
C55	C	1.018381	-0.572798	-0.971905
N56	N	0.982565	-0.624772	-0.862506
N57	N	1.021386	-0.568445	-0.896894
C58	C	1.009247	-0.586120	-0.196772
C59	C	1.012506	-0.581302	-0.118675
H60	H	0.399993	-0.750611	-0.476847
O61	O	0.903836	-1.023343	-0.469810
C62	C	0.880734	-0.924542	-0.573520
C63	C	0.936575	-0.966757	-0.522133
H64	H	0.907181	-0.878765	-0.615827
H65	H	0.852403	-0.994140	-0.598983
H66	H	0.841264	-0.869404	-0.543757
H67	H	0.976089	-1.021878	-0.551844
H68	H	0.964852	-0.897107	-0.496670
O69	O	1.129220	-1.033469	-0.419109
C70	C	1.200875	-0.884974	-0.440900
C71	C	1.128493	-0.921435	-0.418268
H72	H	1.200306	-0.794393	-0.440242
H73	H	1.242679	-0.915438	-0.403084
H74	H	1.213211	-0.918113	-0.496182
H75	H	1.116089	-0.888311	-0.363000
H76	H	1.086729	-0.890985	-0.456131
H77	H	0.598028	-0.699830	-0.444659
H78	H	1.094343	-0.462592	-1.115159
O79	O	0.972444	-1.014308	-0.249144
C80	C	0.894269	-0.901152	-0.177452
C81	C	0.911041	-0.948421	-0.251510
H82	H	0.844632	-0.847855	-0.179343
H83	H	0.885904	-0.968261	-0.140340
H84	H	0.939891	-0.852288	-0.157852
H85	H	0.865442	-0.997274	-0.271174
H86	H	0.919432	-0.881263	-0.288576
O87	O	1.100049	-1.168767	-0.288748
C88	C	1.140332	-1.169387	-0.168988
C89	C	1.084523	-1.127457	-0.220507
H90	H	1.127807	-1.135988	-0.113807
H91	H	1.140326	-1.259938	-0.169605
H92	H	1.194213	-1.143219	-0.185425
H93	H	1.030614	-1.153547	-0.204106
H94	H	1.084591	-1.036910	-0.219882
H95	H	0.931215	-0.699232	-1.108560
O96	O	0.874651	-1.158984	-0.339573
C97	C	0.803313	-1.307395	-0.316656
C98	C	0.875705	-1.270971	-0.339288
H99	H	0.804137	-1.397939	-0.316433
H100	H	0.790481	-1.273087	-0.261759
H101	H	0.761709	-1.278113	-0.355075
H102	H	0.917355	-1.300241	-0.300919
H103	H	0.888476	-1.305267	-0.394201
H104	H	1.028824	-1.171502	-0.498979
H105	H	1.067409	-0.501712	-0.783968
O106	O	0.260773	-0.752797	-0.478417
C107	C	0.174113	-0.767587	-0.569927
C108	C	0.216458	-0.692333	-0.522155
H109	H	0.138262	-0.718732	-0.605291
H110	H	0.211627	-0.820608	-0.603598
H111	H	0.141063	-0.819144	-0.536217
H112	H	0.249511	-0.640709	-0.555810
H113	H	0.178905	-0.639384	-0.488480
O114	O	1.079961	-0.483259	-0.645385
C115	C	1.115036	-0.303076	-0.624366
C116	C	1.063995	-0.377222	-0.662721
H117	H	1.102155	-0.217332	-0.638379
H118	H	1.109670	-0.310775	-0.565292
H119	H	1.171110	-0.326249	-0.641070
H120	H	1.007900	-0.354097	-0.646075
H121	H	1.069423	-0.369513	-0.721788
O122	O	0.412622	-0.483174	-0.307213
C123	C	0.499210	-0.468355	-0.215636
C124	C	0.456851	-0.543623	-0.263386
H125	H	0.534969	-0.517198	-0.180179
H126	H	0.532338	-0.416831	-0.249294
H127	H	0.461639	-0.415304	-0.182051
H128	H	0.494372	-0.596741	-0.296980
H129	H	0.423715	-0.595074	-0.229688
H130	H	0.731159	-0.708252	-0.449984
H131	H	1.099679	-0.454876	-0.982021
H132	H	0.273363	-0.485360	-0.308740
O133	O	0.929675	-0.701510	-0.969483
C134	C	0.840128	-0.831246	-0.973629
C135	C	0.887994	-0.761827	-1.015953
H136	H	0.806406	-0.880013	-1.011182
H137	H	0.873699	-0.887033	-0.940573
H138	H	0.804807	-0.778019	-0.937789
H139	H	0.923323	-0.814971	-1.051832
H140	H	0.854381	-0.706032	-1.048963
H141	H	0.904280	-0.738345	-0.777382
O142	O	0.599018	-0.431666	-0.274521
C143	C	0.519901	-0.406379	-0.176379
C144	C	0.558297	-0.486745	-0.227375
H145	H	0.486958	-0.450878	-0.138258
H146	H	0.559984	-0.358256	-0.145817
H147	H	0.484296	-0.350490	-0.207347
H148	H	0.593901	-0.542702	-0.196462
H149	H	0.518177	-0.534791	-0.257938
H150	H	0.737669	-0.451416	-0.287206
H151	H	0.909606	-0.730624	-0.644242
