data_functionalizedCrystal
_audit_creation_method	'MofGen! by Chris Wilmer'
_symmetry_space_group_name_H-M	'P1'
_symmetry_Int_Tables_number	1
_symmetry_cell_setting	triclinic
loop_
_symmetry_equiv_pos_as_xyz
  x,y,z
_cell_length_a	19.188930
_cell_length_b	19.188930
_cell_length_c	17.666332
_cell_angle_alpha	90.011603
_cell_angle_beta	90.023234
_cell_angle_gamma	83.144779
loop_
_atom_site_label
_atom_site_type_symbol
_atom_site_fract_x
_atom_site_fract_y
_atom_site_fract_z
O1	O	-0.926150	-0.087169	-0.063200
O2	O	-0.592816	0.246165	0.270133
O3	O	-0.259483	0.579498	0.603467
O4	O	-0.722838	-0.098903	-0.063149
O5	O	-0.389505	0.234430	0.270184
O6	O	-0.056172	0.567764	0.603517
O7	O	-0.830361	0.008620	-0.063161
O8	O	-0.497028	0.341953	0.270172
O9	O	-0.163694	0.675286	0.603505
O10	O	-0.818627	-0.194692	-0.063188
O11	O	-0.485294	0.138642	0.270145
O12	O	-0.151960	0.471975	0.603479
O13	O	-0.830342	0.008625	0.062735
O14	O	-0.497009	0.341959	0.396069
O15	O	-0.163676	0.675292	0.729402
O16	O	-0.722820	-0.098897	0.062747
O17	O	-0.389486	0.234436	0.396081
O18	O	-0.056153	0.567769	0.729414
O19	O	-0.926131	-0.087163	0.062697
O20	O	-0.592797	0.246170	0.396030
O21	O	-0.259464	0.579504	0.729363
Cu22	Cu	-0.824473	-0.093030	0.074217
Cu23	Cu	-0.491140	0.240304	0.407551
Cu24	Cu	-0.157807	0.573637	0.740884
Cu25	Cu	-0.824496	-0.093036	-0.074670
Cu26	Cu	-0.491162	0.240297	0.258663
Cu27	Cu	-0.157829	0.573630	0.591997
O28	O	-0.818608	-0.194686	0.062709
O29	O	-0.485275	0.138647	0.396042
O30	O	-0.151941	0.471981	0.729375
C31	C	-0.696818	-0.098520	-0.000194
C32	C	-0.363485	0.234813	0.333139
C33	C	-0.030151	0.568146	0.666472
C34	C	-0.619313	-0.097380	-0.000174
C35	C	-0.285980	0.235954	0.333159
C36	C	0.047353	0.569287	0.666492
C37	C	-0.829972	0.034634	-0.000211
C38	C	-0.496638	0.367967	0.333123
C39	C	-0.163305	0.701300	0.666456
C40	C	-0.828831	0.112138	-0.000204
C41	C	-0.495498	0.445471	0.333129
C42	C	-0.162164	0.778805	0.666463
C43	C	-0.952151	-0.087546	-0.000260
C44	C	-0.618818	0.245787	0.333073
C45	C	-0.285485	0.579121	0.666407
C46	C	-1.029656	-0.088687	-0.000285
C47	C	-0.696322	0.244647	0.333048
C48	C	-0.362989	0.577980	0.666382
C49	C	-0.574389	-0.160470	-0.000194
C50	C	-0.241056	0.172863	0.333139
C51	C	0.092277	0.506196	0.666472
C52	C	-0.501566	-0.159399	-0.000203
C53	C	-0.168232	0.173935	0.333131
C54	C	0.165101	0.507268	0.666464
C55	C	-0.473669	-0.095233	-0.000206
C56	C	-0.140336	0.238101	0.333128
C57	C	0.192998	0.571434	0.666461
C58	C	-0.518603	-0.032133	-0.000181
C59	C	-0.185270	0.301200	0.333152
C60	C	0.148064	0.634533	0.666485
C61	C	-0.591425	-0.033207	-0.000166
C62	C	-0.258092	0.300126	0.333168
C63	C	0.075242	0.633460	0.666501
N64	N	-0.365695	-0.046188	-0.043078
N65	N	-0.032362	0.287146	0.290255
N66	N	0.300971	0.620479	0.623589
N67	N	-0.296517	-0.045172	-0.043095
N68	N	0.036817	0.288161	0.290239
N69	N	0.370150	0.621495	0.623572
C70	C	-0.254260	-0.091994	-0.000252
C71	C	0.079073	0.241339	0.333082
C72	C	0.412406	0.574672	0.666415
N73	N	-0.283795	-0.139881	0.042599
N74	N	0.049539	0.193452	0.375932
N75	N	0.382872	0.526785	0.709266
N76	N	-0.352979	-0.140899	0.042612
N77	N	-0.019646	0.192435	0.375946
N78	N	0.313687	0.525768	0.709279
C79	C	-0.394707	-0.094062	-0.000222
C80	C	-0.061373	0.239272	0.333111
C81	C	0.271960	0.572605	0.666444
C82	C	-0.130372	-0.153928	-0.000280
C83	C	0.202961	0.179406	0.333054
C84	C	0.536295	0.512739	0.666387
C85	C	-0.057547	-0.152853	-0.000283
C86	C	0.275786	0.180480	0.333050
C87	C	0.609119	0.513813	0.666384
C88	C	-0.074586	-0.025586	-0.000270
C89	C	0.258747	0.307747	0.333064
C90	C	0.592081	0.641080	0.666397
C91	C	-0.147409	-0.026662	-0.000258
C92	C	0.185924	0.306671	0.333075
C93	C	0.519257	0.640004	0.666408
C94	C	-0.175298	-0.090835	-0.000267
C95	C	0.158036	0.242498	0.333066
C96	C	0.491369	0.575832	0.666400
C97	C	-0.818997	-0.220700	-0.000244
C98	C	-0.485664	0.112634	0.333090
C99	C	-0.152331	0.445967	0.666423
C100	C	-0.820138	-0.298204	-0.000255
C101	C	-0.486805	0.035129	0.333078
C102	C	-0.153471	0.368462	0.666411
N103	N	-0.824463	-0.093025	0.178937
N104	N	-0.491130	0.240309	0.512270
N105	N	-0.157796	0.573642	0.845603
C106	C	-0.891922	0.157062	-0.000216
C107	C	-0.558589	0.490395	0.333117
C108	C	-0.225255	0.823729	0.666451
C109	C	-0.890850	0.229886	-0.000228
C110	C	-0.557517	0.563219	0.333105
C111	C	-0.224184	0.896552	0.666439
C112	C	-0.826684	0.257782	-0.000212
C113	C	-0.493351	0.591116	0.333121
C114	C	-0.160017	0.924449	0.666454
C115	C	-0.763585	0.212849	-0.000205
C116	C	-0.430252	0.546182	0.333129
C117	C	-0.096918	0.879515	0.666462
C118	C	-0.764658	0.140026	-0.000200
C119	C	-0.431325	0.473360	0.333133
C120	C	-0.097992	0.806693	0.666466
N121	N	-0.777630	0.365789	0.042645
N122	N	-0.444297	0.699123	0.375978
N123	N	-0.110964	1.032456	0.709311
N124	N	-0.776615	0.434968	0.042642
N125	N	-0.443282	0.768301	0.375976
N126	N	-0.109948	1.101635	0.709309
C127	C	-0.823446	0.477191	-0.000227
C128	C	-0.490113	0.810524	0.333106
C129	C	-0.156779	1.143858	0.666440
N130	N	-0.871341	0.447624	-0.043084
N131	N	-0.538008	0.780957	0.290249
N132	N	-0.204675	1.114290	0.623582
N133	N	-0.872359	0.378439	-0.043079
N134	N	-0.539026	0.711772	0.290255
N135	N	-0.205692	1.045106	0.623588
C136	C	-0.825513	0.336745	-0.000218
C137	C	-0.492180	0.670078	0.333116
C138	C	-0.158846	1.003412	0.666449
C139	C	-0.885379	0.601079	-0.000253
C140	C	-0.552046	0.934413	0.333080
C141	C	-0.218712	1.267746	0.666414
C142	C	-0.884305	0.673904	-0.000270
C143	C	-0.550971	1.007238	0.333064
C144	C	-0.217638	1.340571	0.666397
C145	C	-0.757038	0.656865	-0.000239
C146	C	-0.423704	0.990199	0.333095
C147	C	-0.090371	1.323532	0.666428
C148	C	-0.758114	0.584042	-0.000230
C149	C	-0.424781	0.917376	0.333104
C150	C	-0.091447	1.250709	0.666437
C151	C	-0.822287	0.556154	-0.000233
C152	C	-0.488953	0.889487	0.333100
C153	C	-0.155620	1.222821	0.666433
N154	N	-0.824512	-0.093036	-0.179390
N155	N	-0.491178	0.240297	0.153944
N156	N	-0.157845	0.573631	0.487277
C157	C	-0.872089	-0.045437	0.218541
C158	C	-0.538756	0.287897	0.551875
C159	C	-0.205423	0.621230	0.885208
C160	C	-0.872093	-0.045433	0.297789
C161	C	-0.538760	0.287900	0.631122
C162	C	-0.205427	0.621233	0.964455
C163	C	-0.824478	-0.093030	0.337429
C164	C	-0.491144	0.240303	0.670762
C165	C	-0.157811	0.573637	1.004096
C166	C	-0.776842	-0.140621	0.297815
C167	C	-0.443509	0.192712	0.631148
C168	C	-0.110176	0.526045	0.964482
C169	C	-0.776835	-0.140619	0.218569
C170	C	-0.443502	0.192715	0.551902
C171	C	-0.110168	0.526048	0.885236
N172	N	-0.815401	-0.154837	0.461841
N173	N	-0.482068	0.178496	0.795174
N174	N	-0.148735	0.511829	1.128508
N175	N	-0.815413	-0.154837	0.537121
N176	N	-0.482079	0.178496	0.870455
N177	N	-0.148746	0.511829	1.203788
C178	C	-0.824496	-0.093040	0.576193
C179	C	-0.491163	0.240294	0.909526
C180	C	-0.157829	0.573627	1.242860
N181	N	-0.833582	-0.031239	0.537140
N182	N	-0.500248	0.302094	0.870474
N183	N	-0.166915	0.635427	1.203807
N184	N	-0.833574	-0.031240	0.461853
N185	N	-0.500241	0.302094	0.795186
N186	N	-0.166907	0.635427	1.128520
C187	C	-0.824480	-0.093038	0.423358
C188	C	-0.491147	0.240296	0.756691
C189	C	-0.157813	0.573629	1.090025
C190	C	-0.872130	-0.045444	0.701727
C191	C	-0.538796	0.287889	1.035060
C192	C	-0.205463	0.621223	1.368393
C193	C	-0.872129	-0.045440	0.780976
C194	C	-0.538795	0.287894	1.114309
C195	C	-0.205462	0.621227	1.447642
C196	C	-0.776881	-0.140634	0.781000
C197	C	-0.443548	0.192699	1.114334
C198	C	-0.110214	0.526033	1.447667
C199	C	-0.776878	-0.140632	0.701753
C200	C	-0.443545	0.192701	1.035086
C201	C	-0.110212	0.526034	1.368420
C202	C	-0.824506	-0.093038	0.662121
C203	C	-0.491173	0.240295	0.995454
C204	C	-0.157840	0.573629	1.328787
H205	H	-0.597091	-0.212725	-0.000203
H206	H	-0.263758	0.120609	0.333130
H207	H	0.069576	0.453942	0.666464
H208	H	-0.738051	-0.179371	0.186322
H209	H	-0.404718	0.153962	0.519656
H210	H	-0.071384	0.487295	0.852989
C211	C	-0.724503	-0.192991	0.658182
C212	C	-0.391170	0.140342	0.991516
C213	C	-0.057836	0.473676	1.324849
H214	H	-0.731317	-0.186172	0.605310
H215	H	-0.397983	0.147162	0.938643
H216	H	-0.064650	0.480495	1.271976
H217	H	-0.731947	-0.239569	0.671157
H218	H	-0.398614	0.093765	1.004490
H219	H	-0.065281	0.427098	1.337824
H220	H	-0.677927	-0.185526	0.671193
H221	H	-0.344594	0.147808	1.004526
H222	H	-0.011260	0.481141	1.337859
H223	H	-0.910878	-0.006680	0.330041
H224	H	-0.577544	0.326653	0.663374
H225	H	-0.244211	0.659987	0.996707
C226	C	-0.924494	0.006896	0.174947
C227	C	-0.591160	0.340229	0.508280
C228	C	-0.257827	0.673563	0.841613
H229	H	-0.917680	0.000074	0.122077
H230	H	-0.584346	0.333407	0.455411
H231	H	-0.251013	0.666740	0.788744
H232	H	-0.917083	0.053485	0.187939
H233	H	-0.583750	0.386818	0.521272
H234	H	-0.250416	0.720152	0.854606
H235	H	-0.971059	-0.000602	0.187919
H236	H	-0.637726	0.332731	0.521252
H237	H	-0.304392	0.666064	0.854586
C238	C	-0.962507	0.126385	-0.000223
C239	C	-0.629173	0.459718	0.333110
C240	C	-0.295840	0.793051	0.666444
H241	H	-0.954112	0.076580	-0.000212
H242	H	-0.620779	0.409913	0.333121
H243	H	-0.287446	0.743246	0.666455
H244	H	-0.988487	0.141810	-0.044129
H245	H	-0.655154	0.475143	0.289204
H246	H	-0.321821	0.808477	0.622537
H247	H	-0.988463	0.141830	0.043682
H248	H	-0.655129	0.475163	0.377015
H249	H	-0.321796	0.808496	0.710349
H250	H	-0.628003	0.018171	-0.000150
H251	H	-0.294670	0.351504	0.333184
H252	H	0.038664	0.684838	0.666517
C253	C	-0.955964	0.570399	-0.000266
C254	C	-0.622631	0.903732	0.333068
C255	C	-0.289298	1.237065	0.666401
H256	H	-0.993387	0.607587	-0.000286
H257	H	-0.660054	0.940920	0.333048
H258	H	-0.326720	1.274254	0.666381
H259	H	-0.959023	0.542357	0.043640
H260	H	-0.625690	0.875690	0.376973
H261	H	-0.292356	1.209023	0.710306
H262	H	-0.959034	0.542334	-0.044172
H263	H	-0.625700	0.875667	0.289162
H264	H	-0.292367	1.209000	0.622495
H265	H	-0.183988	0.024713	-0.000246
H266	H	0.149346	0.358046	0.333087
H267	H	0.482679	0.691380	0.666420
C268	C	-0.924506	0.006914	0.658125
C269	C	-0.591173	0.340247	0.991458
C270	C	-0.257840	0.673580	1.324791
H271	H	-0.917687	0.000094	0.605256
H272	H	-0.584353	0.333428	0.938589
H273	H	-0.251020	0.666761	1.271922
H274	H	-0.917067	0.053492	0.671128
H275	H	-0.583733	0.386826	1.004461
H276	H	-0.250400	0.720159	1.337794
H277	H	-0.971083	-0.000555	0.671085
H278	H	-0.637749	0.332779	1.004418
H279	H	-0.304416	0.666112	1.337752
C280	C	-0.686456	0.687543	-0.000224
C281	C	-0.353123	1.020876	0.333109
C282	C	-0.019790	1.354210	0.666443
H283	H	-0.694852	0.737348	-0.000225
H284	H	-0.361518	1.070681	0.333108
H285	H	-0.028185	1.404014	0.666442
H286	H	-0.660494	0.672097	-0.044120
H287	H	-0.327161	1.005430	0.289214
H288	H	0.006173	1.338764	0.622547
H289	H	-0.660481	0.672120	0.043692
H290	H	-0.327148	1.005453	0.377025
H291	H	0.006185	1.338787	0.710359
C292	C	-0.161053	-0.224513	-0.000281
C293	C	0.172281	0.108820	0.333052
C294	C	0.505614	0.442154	0.666385
H295	H	-0.123865	-0.261936	-0.000284
H296	H	0.209469	0.071398	0.333050
H297	H	0.542802	0.404731	0.666383
H298	H	-0.189128	-0.227580	-0.044180
H299	H	0.144205	0.105753	0.289153
H300	H	0.477538	0.439087	0.622486
H301	H	-0.189084	-0.227574	0.043631
H302	H	0.144249	0.105760	0.376965
H303	H	0.477583	0.439093	0.710298
H304	H	-0.935683	0.710481	-0.000284
H305	H	-0.602350	1.043815	0.333050
H306	H	-0.269017	1.377148	0.666383
C307	C	-0.008130	-0.222257	-0.000305
C308	C	0.325203	0.111076	0.333028
C309	C	0.658536	0.444410	0.666361
H310	H	-0.035172	-0.260626	-0.000315
H311	H	0.298161	0.072707	0.333018
H312	H	0.631494	0.406040	0.666351
H313	H	0.020656	-0.224487	0.043592
H314	H	0.353989	0.108846	0.376925
H315	H	0.687322	0.442180	0.710258
H316	H	0.020607	-0.224480	-0.044220
H317	H	0.353941	0.108853	0.289114
H318	H	0.687274	0.442187	0.622447
H319	H	-0.051874	0.026659	-0.000319
H320	H	0.281460	0.359992	0.333014
H321	H	0.614793	0.693326	0.666348
H322	H	-0.706738	0.547464	-0.000216
H323	H	-0.373405	0.880797	0.333118
H324	H	-0.040072	1.214131	0.666451
C325	C	-0.924522	0.006908	0.824541
C326	C	-0.591189	0.340242	1.157874
C327	C	-0.257855	0.673575	1.491208
H328	H	-0.952889	0.035247	0.789585
H329	H	-0.619555	0.368580	1.122918
H330	H	-0.286222	0.701914	1.456251
H331	H	-0.899505	0.035915	0.855476
H332	H	-0.566172	0.369248	1.188809
H333	H	-0.232839	0.702581	1.522143
H334	H	-0.953507	-0.018146	0.855432
H335	H	-0.620174	0.315187	1.188765
H336	H	-0.286840	0.648520	1.522098
C337	C	-0.960253	0.279311	-0.000236
C338	C	-0.626919	0.612644	0.333097
C339	C	-0.293586	0.945978	0.666431
H340	H	-0.998624	0.252272	-0.000233
H341	H	-0.665291	0.585605	0.333100
H342	H	-0.331957	0.918938	0.666434
H343	H	-0.962490	0.308067	-0.044139
H344	H	-0.629157	0.641400	0.289195
H345	H	-0.295823	0.974734	0.622528
H346	H	-0.962464	0.308078	0.043673
H347	H	-0.629131	0.641412	0.377006
H348	H	-0.295797	0.974745	0.710340
H349	H	-0.711340	0.235567	-0.000194
H350	H	-0.378007	0.568900	0.333140
H351	H	-0.044674	0.902233	0.666473
H352	H	-0.713281	0.103448	-0.000190
H353	H	-0.379947	0.436782	0.333143
H354	H	-0.046614	0.770115	0.666476
C355	C	-0.724452	-0.192965	0.341412
C356	C	-0.391119	0.140369	0.674746
C357	C	-0.057786	0.473702	1.008079
H358	H	-0.696078	-0.221300	0.306472
H359	H	-0.362744	0.112034	0.639805
H360	H	-0.029411	0.445367	0.973139
H361	H	-0.749464	-0.221975	0.372312
H362	H	-0.416131	0.111358	0.705645
H363	H	-0.082798	0.444691	1.038979
H364	H	-0.695475	-0.167902	0.372341
H365	H	-0.362142	0.165432	0.705674
H366	H	-0.028809	0.498765	1.039007
C367	C	-0.452141	-0.228801	-0.000236
C368	C	-0.118807	0.104532	0.333097
C369	C	0.214526	0.437866	0.666430
H370	H	-0.479180	-0.267173	-0.000246
H371	H	-0.145847	0.066161	0.333088
H372	H	0.187487	0.399494	0.666421
H373	H	-0.423348	-0.231033	0.043656
H374	H	-0.090015	0.102300	0.376989
H375	H	0.243319	0.435633	0.710322
H376	H	-0.423410	-0.231018	-0.044156
H377	H	-0.090076	0.102316	0.289178
H378	H	0.243257	0.435649	0.622511
C379	C	-0.487920	0.038447	-0.000189
C380	C	-0.154586	0.371781	0.333144
C381	C	0.178747	0.705114	0.666477
H382	H	-0.438115	0.030051	-0.000210
H383	H	-0.104781	0.363384	0.333123
H384	H	0.228552	0.696718	0.666457
H385	H	-0.503327	0.064420	0.043719
H386	H	-0.169994	0.397754	0.377052
H387	H	0.163339	0.731087	0.710385
H388	H	-0.503380	0.064411	-0.044093
H389	H	-0.170047	0.397745	0.289240
H390	H	0.163286	0.731078	0.622574
H391	H	-0.738109	-0.179385	0.813275
H392	H	-0.404775	0.153948	1.146608
H393	H	-0.071442	0.487281	1.479942
