data_functionalizedCrystal
_audit_creation_method	'MofGen! by Chris Wilmer'
_symmetry_space_group_name_H-M	'P1'
_symmetry_Int_Tables_number	1
_symmetry_cell_setting	triclinic
loop_
_symmetry_equiv_pos_as_xyz
  x,y,z
_cell_length_a	16.959454
_cell_length_b	15.297475
_cell_length_c	15.298159
_cell_angle_alpha	88.366721
_cell_angle_beta	80.334140
_cell_angle_gamma	80.323279
loop_
_atom_site_label
_atom_site_type_symbol
_atom_site_fract_x
_atom_site_fract_y
_atom_site_fract_z
Zn1	Zn	-0.615359	1.253249	0.726604
Zn2	Zn	-0.729142	1.278550	0.580133
Zn3	Zn	-0.570912	1.132166	0.554850
Zn4	Zn	-0.721402	1.106747	0.701256
O5	O	-0.659204	1.192678	0.640711
O6	O	-0.652293	1.379179	0.728364
O7	O	-0.692790	1.280358	0.454209
O8	O	-0.466208	1.148277	0.577661
O9	O	-0.735889	1.397767	0.620752
O10	O	-0.498864	1.237236	0.703848
O11	O	-0.576539	1.172810	0.435633
O12	O	-0.569034	1.006220	0.553081
O13	O	-0.722697	1.104954	0.827189
O14	O	-0.679598	0.987545	0.660645
O15	O	-0.644788	1.212588	0.845812
O16	O	-0.838715	1.255711	0.596173
O17	O	-0.833028	1.129488	0.685161
C18	C	-0.618654	0.965101	0.601370
C19	C	-0.601328	0.867739	0.584560
C20	C	-0.864555	1.192607	0.640683
C21	C	-0.952423	1.192652	0.640714
C22	C	-0.783040	0.554557	0.760853
C23	C	-0.799324	0.646034	0.776644
C24	C	-0.749826	0.701464	0.728625
C25	C	-0.684042	0.665409	0.664811
C26	C	-0.667760	0.573924	0.649014
C27	C	-0.634546	0.720832	0.616785
C28	C	-0.568762	0.684776	0.552972
C29	C	-0.552483	0.593300	0.537178
C30	C	-0.601980	0.537869	0.585197
C31	C	-0.650828	0.812317	0.632583
C32	C	-0.535548	0.831684	0.520743
C33	C	-0.519264	0.740207	0.504952
C34	C	-1.320985	1.127036	0.687055
C35	C	-1.326874	1.258548	0.594498
C36	C	-1.244322	1.258519	0.594484
C37	C	-1.200097	1.192747	0.640756
C38	C	-1.238424	1.127003	0.687041
C39	C	-1.205986	1.324256	0.548193
C40	C	-1.123429	1.324229	0.548177
C41	C	-1.079204	1.258459	0.594454
C42	C	-1.117536	1.192714	0.640742
C43	C	-1.073311	1.126941	0.687014
C44	C	-1.111643	1.061199	0.733307
C45	C	-1.194199	1.061233	0.733318
C46	C	-0.996648	1.258424	0.594443
C47	C	-0.990750	1.126908	0.686999
C48	C	-0.453057	1.192769	0.640762
C49	C	-0.365210	1.192808	0.640783
C50	C	-0.687837	1.153114	0.869170
C51	C	-0.700039	1.136254	0.966526
C52	C	-0.699913	1.421144	0.680206
C53	C	-0.717260	1.518502	0.697037
C54	C	-0.572189	1.312893	1.279742
C55	C	-0.560727	1.328739	1.188273
C56	C	-0.595554	1.280619	1.132832
C57	C	-0.641845	1.216650	1.168869
C58	C	-0.653313	1.200807	1.260349
C59	C	-0.676678	1.168533	1.113438
C60	C	-0.722969	1.104565	1.149475
C61	C	-0.734435	1.088724	1.240946
C62	C	-0.699608	1.136844	1.296387
C63	C	-0.665210	1.184376	1.021958
C64	C	-0.746334	1.072291	1.002565
C65	C	-0.757796	1.056445	1.094034
C66	C	-0.630695	1.232079	1.413138
C67	C	-0.618484	1.248930	1.315781
H68	H	-0.763088	0.775948	0.741486
H69	H	-0.498924	0.563949	0.485207
O70	O	-0.487520	0.885641	0.474199
C71	C	-0.461545	1.035164	0.448932
C72	C	-0.515981	0.974151	0.501719
H73	H	-0.484545	1.106739	0.471149
H74	H	-0.396569	1.014578	0.461343
H75	H	-0.463250	1.029344	0.375170
H76	H	-0.514345	0.979941	0.575496
H77	H	-0.580931	0.994754	0.489233
H78	H	-0.965440	1.311948	0.556747
H79	H	-1.225416	1.007709	0.771007
H80	H	-1.075625	1.007643	0.770977
O81	O	-0.620362	1.246603	0.986930
C82	C	-0.617828	1.382720	0.904049
C83	C	-0.668723	1.312324	0.943692
H84	H	-0.656902	1.435864	0.869066
H85	H	-0.594924	1.414460	0.959356
H86	H	-0.563954	1.349910	0.854321
H87	H	-0.722633	1.345067	0.993409
H88	H	-0.691565	1.280590	0.888338
H89	H	-0.852887	0.675383	0.828600
O90	O	-0.584416	1.295854	1.043951
C91	C	-0.532709	1.234659	0.898152
C92	C	-0.545273	1.217274	0.998789
H93	H	-0.501046	1.171145	0.861610
H94	H	-0.594044	1.257049	0.876423
H95	H	-0.493683	1.288681	0.881923
H96	H	-0.584270	1.163238	1.015093
H97	H	-0.483910	1.194933	1.020465
H98	H	-1.352199	1.073512	0.724749
H99	H	-0.772136	1.036644	1.270286
O100	O	-0.780216	1.025679	0.948643
C101	C	-0.871908	1.031733	0.843334
C102	C	-0.833585	1.084622	0.904353
H103	H	-0.915078	1.079364	0.807524
H104	H	-0.822130	0.993391	0.792544
H105	H	-0.906931	0.983275	0.884816
H106	H	-0.798568	1.133126	0.862944
H107	H	-0.883400	1.122904	0.955146
O108	O	-0.515627	1.390767	1.153303
C109	C	-0.385263	1.438204	1.132787
C110	C	-0.436251	1.367882	1.172409
H111	H	-0.321082	1.419736	1.148235
H112	H	-0.382967	1.441274	1.057873
H113	H	-0.414019	1.505706	1.162974
H114	H	-0.407534	1.300344	1.142291
H115	H	-0.438548	1.364890	1.247324
H116	H	-0.543843	1.352071	1.324891
O117	O	-0.710889	1.121458	1.385245
C118	C	-0.807112	1.121247	1.520401
C119	C	-0.794456	1.138681	1.419772
H120	H	-0.874671	1.135182	1.548349
H121	H	-0.781794	1.049110	1.533561
H122	H	-0.774223	1.166604	1.553801
H123	H	-0.827344	1.093379	1.386305
H124	H	-0.819751	1.210838	1.406676
H125	H	-0.588724	0.463380	0.572345
H126	H	-0.795487	1.004360	1.123389
O127	O	-1.369948	1.322366	0.549590
C128	C	-1.499708	1.380602	0.508456
C129	C	-1.451030	1.308302	0.559393
H130	H	-1.565268	1.369246	0.516349
H131	H	-1.498026	1.448582	0.536065
H132	H	-1.471844	1.377468	0.435185
H133	H	-1.478858	1.311353	0.632672
H134	H	-1.452709	1.240354	0.531712
H135	H	-0.704390	0.841663	0.684541
H136	H	-0.823338	0.509419	0.799939
H137	H	-0.465702	0.710838	0.452994
H138	H	-1.241998	1.377799	0.510513
H139	H	-0.954748	1.073351	0.724684
H140	H	-1.092224	1.377760	0.510484
