data_functionalizedCrystal
_audit_creation_method	'MofGen! by Chris Wilmer'
_symmetry_space_group_name_H-M	'P1'
_symmetry_Int_Tables_number	1
_symmetry_cell_setting	triclinic
loop_
_symmetry_equiv_pos_as_xyz
  x,y,z
_cell_length_a	16.959455
_cell_length_b	12.594516
_cell_length_c	16.959447
_cell_angle_alpha	90.025146
_cell_angle_beta	90.014322
_cell_angle_gamma	90.013000
loop_
_atom_site_label
_atom_site_type_symbol
_atom_site_fract_x
_atom_site_fract_y
_atom_site_fract_z
Zn1	Zn	1.208406	-0.423808	0.446937
Zn2	Zn	1.708406	0.076192	0.946937
Zn3	Zn	1.208338	-0.601815	0.314770
Zn4	Zn	1.708338	-0.101815	0.814770
Zn5	Zn	1.076234	-0.423841	0.314775
Zn6	Zn	1.576234	0.076159	0.814775
Zn7	Zn	1.076208	-0.601735	0.446909
Zn8	Zn	1.576208	-0.101735	0.946909
O9	O	1.142297	-0.512800	0.380848
O10	O	1.642297	-0.012800	0.880848
O11	O	1.319008	-0.447440	0.429415
O12	O	1.819008	0.052560	0.929415
O13	O	1.190796	-0.578253	0.204160
O14	O	1.690796	-0.078253	0.704160
O15	O	1.093807	-0.274891	0.332320
O16	O	1.593807	0.225109	0.832320
O17	O	1.318958	-0.578221	0.332313
O18	O	1.818958	-0.078221	0.832313
O19	O	1.190912	-0.274866	0.429419
O20	O	1.690912	0.225134	0.929419
O21	O	1.093740	-0.447497	0.204163
O22	O	1.593740	0.052503	0.704163
O23	O	0.965620	-0.447420	0.332293
O24	O	1.465620	0.052580	0.832293
O25	O	1.093762	-0.578085	0.557524
O26	O	1.593762	-0.078085	1.057524
O27	O	0.965601	-0.578118	0.429371
O28	O	1.465601	-0.078118	0.929371
O29	O	1.190887	-0.447363	0.557544
O30	O	1.690887	0.052637	1.057544
O31	O	1.190771	-0.750750	0.332286
O32	O	1.690771	-0.250750	0.832286
O33	O	1.093696	-0.750692	0.429367
O34	O	1.593696	-0.250692	0.929367
C35	C	0.936930	-0.512765	0.380830
C36	C	1.436930	-0.012765	0.880830
C37	C	0.849074	-0.512775	0.380841
C38	C	1.349074	-0.012775	0.880841
C39	C	0.477584	-0.444690	0.330405
C40	C	0.977584	0.055310	0.830405
C41	C	0.477613	-0.580998	0.431336
C42	C	0.977613	-0.080998	0.931336
C43	C	0.560158	-0.580982	0.431332
C44	C	1.060158	-0.080982	0.931332
C45	C	0.601421	-0.512821	0.380862
C46	C	1.101421	-0.012821	0.880862
C47	C	0.560137	-0.444674	0.330396
C48	C	1.060137	0.055326	0.830396
C49	C	0.601448	-0.649135	0.481790
C50	C	1.101448	-0.149135	0.981790
C51	C	0.683999	-0.649123	0.481787
C52	C	1.183999	-0.149123	0.981787
C53	C	0.725263	-0.580955	0.431320
C54	C	1.225263	-0.080955	0.931320
C55	C	0.683974	-0.512806	0.380854
C56	C	1.183974	-0.012806	0.880854
C57	C	0.725237	-0.444644	0.330384
C58	C	1.225237	0.055356	0.830384
C59	C	0.683949	-0.376488	0.279920
C60	C	1.183949	0.123512	0.779920
C61	C	0.601401	-0.376507	0.279930
C62	C	1.101401	0.123493	0.779930
C63	C	0.807811	-0.580937	0.431311
C64	C	1.307811	-0.080937	0.931311
C65	C	0.807790	-0.444629	0.330376
C66	C	1.307790	0.055371	0.830376
C67	C	1.142245	-0.789341	0.380840
C68	C	1.642245	-0.289341	0.880840
C69	C	1.142295	-0.907646	0.380863
C70	C	1.642295	-0.407646	0.880863
C71	C	1.089491	-0.976906	0.433629
C72	C	1.589491	-0.476906	0.933629
C73	C	1.070239	-1.047768	0.361503
C74	C	1.570239	-0.547768	0.861503
C75	C	1.161619	-1.047583	0.453001
C76	C	1.661619	-0.547583	0.953001
C77	C	1.123005	-0.976950	0.308699
C78	C	1.623005	-0.476950	0.808699
C79	C	1.214418	-0.976758	0.400246
C80	C	1.714418	-0.476758	0.900246
C81	C	1.195194	-1.047589	0.328071
C82	C	1.695194	-0.547589	0.828071
C83	C	1.348465	-0.512836	0.380866
C84	C	1.848465	-0.012836	0.880866
C85	C	1.436321	-0.512851	0.380874
C86	C	1.936321	-0.012851	0.880874
C87	C	1.142329	-0.512712	0.587016
C88	C	1.642329	-0.012712	1.087016
C89	C	1.142343	-0.512674	0.674873
C90	C	1.642343	-0.012674	1.174873
C91	C	1.142370	-0.235179	0.380873
C92	C	1.642370	0.264821	0.880873
C93	C	1.142401	-0.116873	0.380884
C94	C	1.642401	0.383127	0.880884
C95	C	1.142309	-0.512811	0.175482
C96	C	1.642309	-0.012811	0.675482
C97	C	1.142448	-0.512548	0.087625
C98	C	1.642448	-0.012548	0.587625
C99	C	1.091869	-0.580623	1.046340
C100	C	1.591869	-0.080623	1.546340
C101	C	1.193006	-0.444501	1.046357
C102	C	1.693006	0.055499	1.546357
C103	C	1.192985	-0.444523	0.963811
C104	C	1.692985	0.055477	1.463811
C105	C	1.142406	-0.512598	0.922526
C106	C	1.642406	-0.012598	1.422526
C107	C	1.091848	-0.580650	0.963787
C108	C	1.591848	-0.080650	1.463787
C109	C	1.243548	-0.376480	0.922544
C110	C	1.743548	0.123520	1.422544
C111	C	1.243530	-0.376501	0.839993
C112	C	1.743530	0.123499	1.339993
C113	C	1.192946	-0.444571	0.798706
C114	C	1.692946	0.055429	1.298706
C115	C	1.142385	-0.512625	0.839972
C116	C	1.642385	-0.012625	1.339972
C117	C	1.091806	-0.580699	0.798687
C118	C	1.591806	-0.080699	1.298687
C119	C	1.041241	-0.648749	0.839952
C120	C	1.541241	-0.148749	1.339952
C121	C	1.041265	-0.648720	0.922500
C122	C	1.541265	-0.148720	1.422500
C123	C	1.192922	-0.444600	0.716158
C124	C	1.692922	0.055400	1.216158
C125	C	1.091785	-0.580726	0.716134
C126	C	1.591785	-0.080726	1.216134
H127	H	0.841380	-0.389116	0.289281
H128	H	1.341380	0.110884	0.789281
H129	H	0.567778	-0.321019	0.238845
H130	H	1.067778	0.178981	0.738845
Br131	Br	0.740025	-0.741617	0.550271
Br132	Br	1.240025	-0.241617	1.050271
H133	H	0.717556	-0.320996	0.238824
H134	H	1.217556	0.179004	0.738824
H135	H	0.841424	-0.636432	0.472394
H136	H	1.341424	-0.136432	0.972394
Br137	Br	0.972650	-0.741068	0.978506
Br138	Br	1.472650	-0.241068	1.478506
Br139	Br	1.269702	-1.098992	0.253631
Br140	Br	1.769702	-0.598992	0.753631
H141	H	1.050698	-0.636024	1.079942
H142	H	1.550698	-0.136024	1.579942
Br143	Br	0.421614	-0.673525	0.499808
Br144	Br	0.921614	-0.173525	0.999808
H145	H	1.275348	-0.945547	0.416658
H146	H	1.775348	-0.445547	0.916658
H147	H	0.443964	-0.389196	0.289321
H148	H	0.943964	0.110804	0.789321
H149	H	1.284732	-0.321064	0.956164
H150	H	1.784732	0.178936	1.456164
Br151	Br	1.188787	-1.099305	0.554666
Br152	Br	1.688787	-0.599305	1.054666
Br153	Br	0.545447	-0.741674	0.550251
Br154	Br	1.045447	-0.241674	1.050251
Br155	Br	1.261654	-0.352129	1.102387
Br156	Br	1.761654	0.147871	1.602387
Br157	Br	1.014936	-0.925174	0.507897
Br158	Br	1.514936	-0.425174	1.007897
H159	H	1.050590	-0.636152	0.682525
H160	H	1.550590	-0.136152	1.182525
Br161	Br	1.312151	-0.284149	0.783998
Br162	Br	1.812151	0.215851	1.283998
H163	H	1.234094	-0.389198	0.682564
H164	H	1.734094	0.110802	1.182564
H165	H	1.009295	-1.078983	0.345126
H166	H	1.509295	-0.578983	0.845126
Br167	Br	1.095722	-0.925460	0.207001
Br168	Br	1.595722	-0.425460	0.707001
Br169	Br	0.972607	-0.741141	0.783912
Br170	Br	1.472607	-0.241141	1.283912
