data_functionalizedCrystal
_audit_creation_method	'MofGen! by Chris Wilmer'
_symmetry_space_group_name_H-M	'P1'
_symmetry_Int_Tables_number	1
_symmetry_cell_setting	triclinic
loop_
_symmetry_equiv_pos_as_xyz
  x,y,z
_cell_length_a	12.837943
_cell_length_b	14.044220
_cell_length_c	11.892095
_cell_angle_alpha	94.243827
_cell_angle_beta	85.689438
_cell_angle_gamma	94.008909
loop_
_atom_site_label
_atom_site_type_symbol
_atom_site_fract_x
_atom_site_fract_y
_atom_site_fract_z
O1	O	1.404549	0.242985	-0.093990
O2	O	1.101609	0.230709	-0.093996
O3	O	1.248531	0.098452	-0.093982
O4	O	1.257627	0.375241	-0.094004
O5	O	1.236280	0.109461	0.094025
O6	O	1.089357	0.241718	0.094010
O7	O	1.392297	0.253993	0.094017
Zn8	Zn	1.238882	0.249603	0.123864
Zn9	Zn	1.255024	0.235099	-0.123843
O10	O	1.245375	0.386250	0.094002
C11	C	1.056479	0.232067	0.000007
C12	C	0.940259	0.219699	0.000005
C13	C	0.713048	0.368378	0.000009
C14	C	0.603848	0.356763	0.000008
C15	C	0.612657	0.184853	0.000009
C16	C	0.721856	0.196469	0.000011
C17	C	0.772048	0.288234	0.000008
C18	C	0.881251	0.299849	0.000001
C19	C	0.890056	0.127940	0.000011
C20	C	0.780857	0.116324	0.000010
C21	C	1.238425	0.068282	0.000022
C22	C	1.226550	-0.038016	0.000023
C23	C	1.204843	-0.232639	0.000006
C24	C	1.289060	-0.282665	0.000005
C25	C	1.276982	-0.390960	-0.000005
C26	C	1.216919	-0.124334	0.000016
C27	C	1.437428	0.252635	0.000012
C28	C	1.553649	0.265002	0.000006
C29	C	1.255482	0.416420	-0.000004
C30	C	1.267357	0.522717	-0.000012
N31	N	1.227873	0.259502	0.292917
N32	N	1.266041	0.225193	-0.292896
C33	C	1.342643	0.156258	0.529576
C34	C	1.334956	0.163185	0.647917
C35	C	1.204807	0.280277	0.647942
C36	C	1.212494	0.273350	0.529601
C37	C	1.281415	0.211340	0.470422
C38	C	1.289107	0.204418	0.352079
C39	C	1.158954	0.321505	0.352106
C40	C	1.151267	0.328432	0.470447
H41	H	0.922115	0.374569	0.000002
H42	H	0.753915	0.443098	0.000005
H43	H	1.095149	0.378917	0.518645
C44	C	1.096698	-0.284142	0.000068
C45	C	1.106067	-0.382869	0.000092
C46	C	1.006467	-0.430354	0.000169
H47	H	1.063968	-0.270630	-0.065471
H48	H	1.055513	-0.262904	0.065661
H49	H	1.147236	-0.404099	-0.065495
H50	H	1.138779	-0.396409	0.065626
H51	H	0.965282	-0.409116	0.065763
H52	H	0.973745	-0.416835	-0.065371
H53	H	1.012810	-0.497344	0.000196
H54	H	1.370237	-0.244167	-0.000070
H55	H	1.148686	0.330757	0.696141
H56	H	0.571765	0.110147	0.000104
H57	H	0.938107	0.062681	0.000003
H58	H	1.345229	0.153929	0.303896
C59	C	0.539977	0.443892	-0.000055
C60	C	0.607313	0.526736	-0.000085
C61	C	0.548514	0.607021	-0.000156
H62	H	0.492912	0.446905	0.065487
H63	H	0.501491	0.439150	-0.065645
H64	H	0.645782	0.531478	0.065499
H65	H	0.654379	0.523756	-0.065622
H66	H	0.510027	0.602279	-0.065747
H67	H	0.501451	0.610023	0.065387
H68	H	0.594193	0.663239	-0.000187
C69	C	0.726168	0.016773	-0.000047
C70	C	0.617908	0.023749	-0.000074
C71	C	0.567499	-0.067940	-0.000145
H72	H	0.741482	-0.012893	0.065494
H73	H	0.750086	-0.020489	-0.065638
H74	H	0.593998	0.060996	0.065510
H75	H	0.602563	0.053398	-0.065611
H76	H	0.591418	-0.105201	-0.065736
H77	H	0.582822	-0.097599	0.065397
H78	H	0.494041	-0.063219	-0.000174
H79	H	1.398769	0.105774	0.481391
C80	C	1.401557	0.103337	0.711938
C81	C	1.463574	0.047567	0.634776
C82	C	1.524950	-0.007572	0.693711
H83	H	1.357386	0.062756	0.758116
H84	H	1.445313	0.144352	0.758067
H85	H	1.419822	0.006556	0.588666
H86	H	1.507766	0.088124	0.588595
H87	H	1.568706	0.033443	0.739840
H88	H	1.480770	-0.048147	0.739887
H89	H	1.567042	-0.045412	0.641366
H90	H	1.109101	0.366359	0.303930
