data_functionalizedCrystal
_audit_creation_method	'MofGen! by Chris Wilmer'
_symmetry_space_group_name_H-M	'P1'
_symmetry_Int_Tables_number	1
_symmetry_cell_setting	triclinic
loop_
_symmetry_equiv_pos_as_xyz
  x,y,z
_cell_length_a	18.215407
_cell_length_b	13.897441
_cell_length_c	13.897447
_cell_angle_alpha	90.028354
_cell_angle_beta	89.983027
_cell_angle_gamma	89.982568
loop_
_atom_site_label
_atom_site_type_symbol
_atom_site_fract_x
_atom_site_fract_y
_atom_site_fract_z
Zn1	Zn	1.125100	-0.545360	0.384059
Zn2	Zn	1.625100	-0.045360	0.884059
Zn3	Zn	1.125020	-0.384065	0.545378
Zn4	Zn	1.625020	0.115935	1.045378
Zn5	Zn	1.002032	-0.384081	0.384092
Zn6	Zn	1.502032	0.115919	0.884092
Zn7	Zn	1.002010	-0.545321	0.545307
Zn8	Zn	1.502010	-0.045321	1.045307
O9	O	1.063540	-0.464707	0.464709
O10	O	1.563540	0.035293	0.964709
O11	O	1.228073	-0.523973	0.405475
O12	O	1.728073	-0.023973	0.905475
O13	O	1.108681	-0.249085	0.524027
O14	O	1.608681	0.250915	1.024027
O15	O	1.018400	-0.405499	0.249106
O16	O	1.518400	0.094501	0.749106
O17	O	1.228014	-0.405470	0.523995
O18	O	1.728014	0.094530	1.023995
O19	O	1.108818	-0.523989	0.249082
O20	O	1.608818	-0.023989	0.749082
O21	O	1.018323	-0.249097	0.405530
O22	O	1.518323	0.250903	0.905530
O23	O	0.899045	-0.405461	0.405461
O24	O	1.399045	0.094539	0.905461
O25	O	1.018362	-0.680307	0.523873
O26	O	1.518362	-0.180307	1.023873
O27	O	0.899028	-0.523922	0.523905
O28	O	1.399028	-0.023922	1.023905
O29	O	1.108796	-0.680336	0.405406
O30	O	1.608796	-0.180336	0.905406
O31	O	1.108659	-0.405432	0.680350
O32	O	1.608659	0.094568	1.180350
O33	O	1.018284	-0.523906	0.680298
O34	O	1.518284	-0.023906	1.180298
C35	C	0.872334	-0.464690	0.464679
C36	C	1.372334	0.035310	0.964679
C37	C	0.790535	-0.464705	0.464690
C38	C	1.290535	0.035295	0.964690
C39	C	0.602371	-0.526507	0.403103
C40	C	1.102371	-0.026507	0.903103
C41	C	0.525512	-0.526510	0.403112
C42	C	1.025512	-0.026510	0.903112
C43	C	0.525462	-0.402923	0.526342
C44	C	1.025462	0.097077	1.026342
C45	C	0.602319	-0.402916	0.526328
C46	C	1.102319	0.097084	1.026328
C47	C	0.640772	-0.464713	0.464710
C48	C	1.140772	0.035287	0.964710
C49	C	0.487056	-0.464724	0.464732
C50	C	0.987056	0.035276	0.964732
C51	C	0.403722	-0.464727	0.464742
C52	C	0.903722	0.035273	0.964742
C53	C	0.724111	-0.464709	0.464699
C54	C	1.224111	0.035291	0.964699
C55	C	1.063585	-0.716300	0.464628
C56	C	1.563585	-0.216300	0.964628
C57	C	1.063605	-0.823514	0.464593
C58	C	1.563605	-0.323514	0.964593
C59	C	1.063620	-0.910584	0.464566
C60	C	1.563620	-0.410584	0.964566
C61	C	1.063641	-1.019816	0.464523
C62	C	1.563641	-0.519816	0.964523
C63	C	1.255493	-0.464724	0.464739
C64	C	1.755493	0.035276	0.964739
C65	C	1.337292	-0.464732	0.464752
C66	C	1.837292	0.035268	0.964752
C67	C	1.063480	-0.464684	0.715323
C68	C	1.563480	0.035316	1.215323
C69	C	1.063522	-0.464707	0.822537
C70	C	1.563522	0.035293	1.322537
C71	C	1.063538	-0.214092	0.464720
C72	C	1.563538	0.285908	0.964720
C73	C	1.063661	-0.106879	0.464483
C74	C	1.563661	0.393121	0.964483
C75	C	1.063620	-0.464750	0.213116
C76	C	1.563620	0.035250	0.713116
C77	C	1.063655	-0.464769	0.105902
C78	C	1.563655	0.035231	0.605902
C79	C	1.063558	-0.464729	0.909607
C80	C	1.563558	0.035271	1.409607
C81	C	1.063609	-0.464754	1.018839
C82	C	1.563609	0.035246	1.518839
H83	H	0.633586	-0.352590	0.576496
H84	H	1.133586	0.147410	1.076496
C85	C	0.643988	-0.593632	0.336096
C86	C	1.143988	-0.093632	0.836096
C87	C	0.593903	-0.647730	0.282128
C88	C	1.093903	-0.147730	0.782128
C89	C	0.632211	-0.709566	0.220379
C90	C	1.132211	-0.209566	0.720379
H91	H	0.673979	-0.635682	0.372932
H92	H	1.173979	-0.135682	0.872932
H93	H	0.673949	-0.556823	0.293967
H94	H	1.173949	-0.056823	0.793967
H95	H	0.563954	-0.684536	0.324252
H96	H	1.063954	-0.184536	0.824252
H97	H	0.563910	-0.605705	0.245273
H98	H	1.063910	-0.105705	0.745273
H99	H	0.662173	-0.672758	0.178250
H100	H	1.162173	-0.172758	0.678250
H101	H	0.662201	-0.751610	0.257223
H102	H	1.162201	-0.251610	0.757223
H103	H	0.598235	-0.746273	0.183749
H104	H	1.098235	-0.246273	0.683749
C105	C	0.483727	-0.593662	0.336383
C106	C	0.983727	-0.093662	0.836383
C107	C	0.439598	-0.655380	0.391081
C108	C	0.939598	-0.155380	0.891081
C109	C	0.401088	-0.717247	0.329640
C110	C	0.901088	-0.217247	0.829640
H111	H	0.517553	-0.630555	0.299665
H112	H	1.017553	-0.130555	0.799665
H113	H	0.453698	-0.556867	0.294327
H114	H	0.953698	-0.056867	0.794327
H115	H	0.469624	-0.692172	0.433120
H116	H	0.969624	-0.192172	0.933120
H117	H	0.405757	-0.618514	0.427797
H118	H	0.905757	-0.118514	0.927797
H119	H	0.371060	-0.680451	0.287584
H120	H	0.871060	-0.180451	0.787584
H121	H	0.434920	-0.754132	0.292926
H122	H	0.934920	-0.254132	0.792926
H123	H	0.371137	-0.759123	0.366743
H124	H	0.871137	-0.259123	0.866743
C125	C	0.483579	-0.335943	0.593208
C126	C	0.983579	0.164057	1.093208
C127	C	0.408051	-0.349194	0.580056
C128	C	0.908051	0.150806	1.080056
C129	C	0.369447	-0.287519	0.641650
C130	C	0.869447	0.212481	1.141650
H131	H	0.496067	-0.271116	0.579075
H132	H	0.996067	0.228884	1.079075
H133	H	0.496130	-0.349960	0.658053
H134	H	0.996130	0.150040	1.158053
H135	H	0.395505	-0.335170	0.515226
H136	H	0.895505	0.164830	1.015226
H137	H	0.395540	-0.414008	0.594197
H138	H	0.895540	0.085992	1.094197
H139	H	0.381998	-0.301536	0.706495
H140	H	0.881998	0.198464	1.206495
H141	H	0.381942	-0.222695	0.627511
H142	H	0.881942	0.277305	1.127511
H143	H	0.318198	-0.296507	0.632741
H144	H	0.818198	0.203493	1.132741
