data_functionalizedCrystal
_audit_creation_method	'MofGen! by Chris Wilmer'
_symmetry_space_group_name_H-M	'P1'
_symmetry_Int_Tables_number	1
_symmetry_cell_setting	triclinic
loop_
_symmetry_equiv_pos_as_xyz
  x,y,z
_cell_length_a	14.909383
_cell_length_b	18.215407
_cell_length_c	18.215399
_cell_angle_alpha	89.982632
_cell_angle_beta	93.273811
_cell_angle_gamma	86.723416
loop_
_atom_site_label
_atom_site_type_symbol
_atom_site_fract_x
_atom_site_fract_y
_atom_site_fract_z
Zn1	Zn	-0.359196	1.141995	-0.433005
Zn2	Zn	0.140804	1.641995	0.066995
Zn3	Zn	-0.510051	1.149011	-0.317053
Zn4	Zn	-0.010051	1.649011	0.182947
Zn5	Zn	-0.359218	1.018929	-0.309959
Zn6	Zn	0.140782	1.518929	0.190041
Zn7	Zn	-0.509993	1.025998	-0.440080
Zn8	Zn	-0.009993	1.525998	0.059920
O9	O	-0.434614	1.083983	-0.375024
O10	O	0.065386	1.583983	0.124976
O11	O	-0.379223	1.245911	-0.417632
O12	O	0.120777	1.745911	0.082368
O13	O	-0.490076	1.131733	-0.213129
O14	O	0.009924	1.631733	0.286871
O15	O	-0.232982	1.029359	-0.320352
O16	O	0.267018	1.529359	0.179648
O17	O	-0.490055	1.251065	-0.332442
O18	O	0.009945	1.751065	0.167558
O19	O	-0.232966	1.119775	-0.410754
O20	O	0.267034	1.619775	0.089246
O21	O	-0.379259	1.036162	-0.207917
O22	O	0.120741	1.536162	0.292083
O23	O	-0.379203	0.916882	-0.327212
O24	O	0.120797	1.416882	0.172788
O25	O	-0.489956	1.041408	-0.542124
O26	O	0.010044	1.541408	-0.042124
O27	O	-0.489977	0.922076	-0.422811
O28	O	0.010023	1.422076	0.077189
O29	O	-0.379166	1.126631	-0.536927
O30	O	0.120834	1.626631	-0.036927
O31	O	-0.636276	1.138588	-0.339302
O32	O	-0.136276	1.638588	0.160698
O33	O	-0.636233	1.048211	-0.429690
O34	O	-0.136233	1.548211	0.070310
C35	C	-0.434587	0.892776	-0.375010
C36	C	0.065413	1.392776	0.124990
C37	C	-0.434596	0.810977	-0.375023
C38	C	0.065404	1.310977	0.124977
C39	C	-0.377005	0.620104	-0.419461
C40	C	0.122995	1.120104	0.080539
C41	C	-0.377013	0.543246	-0.419464
C42	C	0.122987	1.043246	0.080536
C43	C	-0.492249	0.548616	-0.330602
C44	C	0.007751	1.048616	0.169398
C45	C	-0.492236	0.625473	-0.330596
C46	C	0.007764	1.125473	0.169404
C47	C	-0.434615	0.661215	-0.375029
C48	C	0.065385	1.161215	0.124971
C49	C	-0.434636	0.507500	-0.375038
C50	C	0.065364	1.007500	0.124962
C51	C	-0.434645	0.424167	-0.375041
C52	C	0.065355	0.924167	0.124959
C53	C	-0.434605	0.744553	-0.375026
C54	C	0.065395	1.244553	0.124974
C55	C	-0.668985	1.094948	-0.386049
C56	C	-0.168985	1.594948	0.113951
C57	C	-0.769250	1.099706	-0.390791
C58	C	-0.269250	1.599706	0.109209
C59	C	-0.957829	1.014582	-0.305478
C60	C	-0.457829	1.514582	0.194522
C61	C	-1.052036	1.019051	-0.309931
C62	C	-0.552036	1.519051	0.190069
C63	C	-1.051875	1.113114	-0.404144
C64	C	-0.551875	1.613114	0.095856
C65	C	-0.957668	1.108646	-0.399691
C66	C	-0.457668	1.608646	0.100309
C67	C	-0.910647	1.059378	-0.350358
C68	C	-0.410647	1.559378	0.149642
C69	C	-0.816438	1.054906	-0.345909
C70	C	-0.316438	1.554906	0.154091
C71	C	-0.816279	1.148973	-0.440118
C72	C	-0.316279	1.648973	0.059882
C73	C	-0.910486	1.153441	-0.444571
C74	C	-0.410486	1.653441	0.055429
C75	C	-0.199328	1.072996	-0.363972
C76	C	0.300672	1.572996	0.136028
C77	C	-0.099063	1.068314	-0.359263
C78	C	0.400937	1.568314	0.140737
C79	C	-0.434552	1.084025	-0.566974
C80	C	0.065448	1.584025	-0.066974
C81	C	-0.434526	1.084043	-0.648772
C82	C	0.065474	1.584043	-0.148772
C83	C	-0.434643	1.275938	-0.375039
C84	C	0.065357	1.775938	0.124961
C85	C	-0.434655	1.357737	-0.375045
C86	C	0.065345	1.857737	0.124955
C87	C	-0.376784	1.128433	-0.834258
C88	C	0.123216	1.628433	-0.334258
C89	C	-0.376757	1.128440	-0.911116
C90	C	0.123243	1.628440	-0.411116
C91	C	-0.492128	1.039699	-0.916517
C92	C	0.007872	1.539699	-0.416517
C93	C	-0.492149	1.039688	-0.839661
C94	C	0.007851	1.539688	-0.339661
C95	C	-0.434478	1.084059	-0.798533
C96	C	0.065522	1.584059	-0.298533
C97	C	-0.434431	1.084078	-0.952247
C98	C	0.065569	1.584078	-0.452247
C99	C	-0.434403	1.084086	-1.035580
C100	C	0.065597	1.584086	-0.535580
C101	C	-0.434505	1.084051	-0.715196
C102	C	0.065495	1.584051	-0.215196
C103	C	-0.434611	1.083981	-0.183818
C104	C	0.065389	1.583981	0.316182
C105	C	-0.434384	1.084094	-0.102009
C106	C	0.065616	1.584094	0.397991
H107	H	-0.330099	0.509776	-0.455643
H108	H	0.169901	1.009776	0.044357
H109	H	-0.539150	0.658946	-0.294410
H110	H	-0.039150	1.158946	0.205590
C111	C	-0.364274	1.226831	-0.747254
C112	C	0.135726	1.726831	-0.247254
C113	C	-0.313384	1.177197	-0.789049
C114	C	0.186616	1.677197	-0.289049
H115	H	-0.325129	1.256936	-0.719349
H116	H	0.174871	1.756936	-0.219349
H117	H	-0.398631	1.200403	-0.714979
H118	H	0.101369	1.700403	-0.214979
H119	H	-0.403566	1.256822	-0.779092
H120	H	0.096434	1.756822	-0.279092
H121	H	-0.274097	1.147201	-0.757210
H122	H	0.225903	1.647201	-0.257210
H123	H	-0.279012	1.203627	-0.821327
H124	H	0.220988	1.703627	-0.321327
C125	C	-0.787127	1.272187	-0.474713
C126	C	-0.287127	1.772187	0.025287
C127	C	-0.764416	1.198217	-0.489454
C128	C	-0.264416	1.698217	0.010546
H129	H	-0.755112	1.302584	-0.505175
H130	H	-0.255112	1.802584	-0.005175
H131	H	-0.771708	1.282253	-0.424555
H132	H	-0.271708	1.782253	0.075445
H133	H	-0.849965	1.281891	-0.484426
H134	H	-0.349965	1.781891	0.015574
H135	H	-0.701578	1.188512	-0.479736
H136	H	-0.201578	1.688512	0.020264
H137	H	-0.779829	1.188147	-0.539624
H138	H	-0.279829	1.688147	-0.039624
C139	C	-0.967446	0.922043	-0.212810
C140	C	-0.467446	1.422043	0.287190
C141	C	-0.906138	0.960423	-0.251259
C142	C	-0.406138	1.460423	0.248741
H143	H	-0.935533	0.888609	-0.179335
H144	H	-0.435533	1.388609	0.320665
H145	H	-1.004193	0.895622	-0.246587
H146	H	-0.504193	1.395622	0.253413
H147	H	-1.004181	0.955871	-0.186421
H148	H	-0.504181	1.455871	0.313579
H149	H	-0.869407	0.926595	-0.277652
H150	H	-0.369407	1.426595	0.222348
H151	H	-0.869376	0.986846	-0.217477
H152	H	-0.369376	1.486846	0.282523
H153	H	-0.948783	1.193556	-0.484735
H154	H	-0.448783	1.693556	0.015265
H155	H	-0.329775	1.164573	-0.940199
H156	H	0.170225	1.664573	-0.440199
H157	H	-0.539130	1.003548	-0.810573
H158	H	-0.039130	1.503548	-0.310573
C159	C	-0.543328	1.000316	-1.036732
C160	C	-0.043328	1.500316	-0.536732
C161	C	-0.555525	0.990934	-0.961728
C162	C	-0.055525	1.490934	-0.461728
H163	H	-0.582473	0.970214	-1.064640
H164	H	-0.082473	1.470214	-0.564640
H165	H	-0.482722	0.986714	-1.046478
H166	H	0.017278	1.486714	-0.546478
H167	H	-0.556533	1.050385	-1.049946
H168	H	-0.056533	1.550385	-0.549946
H169	H	-0.542314	0.940866	-0.948512
H170	H	-0.042314	1.440866	-0.448512
H171	H	-0.616145	1.004532	-0.951977
H172	H	-0.116145	1.504532	-0.451977
C173	C	-0.606153	0.561644	-0.242765
C174	C	-0.106153	1.061644	0.257235
C175	C	-0.555591	0.509327	-0.281768
C176	C	-0.055591	1.009327	0.218232
H177	H	-0.645256	0.537388	-0.212616
H178	H	-0.145256	1.037388	0.287384
H179	H	-0.640698	0.593254	-0.276408
H180	H	-0.140698	1.093254	0.223592
H181	H	-0.566793	0.589764	-0.212812
H182	H	-0.066793	1.089764	0.287188
H183	H	-0.594952	0.481210	-0.311726
H184	H	-0.094952	0.981210	0.188274
H185	H	-0.521044	0.477704	-0.248122
H186	H	-0.021044	0.977704	0.251878
C187	C	-0.263096	0.607073	-0.507293
C188	C	0.236904	1.107073	-0.007293
C189	C	-0.313663	0.659392	-0.468296
C190	C	0.186337	1.159392	0.031704
H191	H	-0.223986	0.631328	-0.537438
H192	H	0.276014	1.131328	-0.037438
H193	H	-0.302446	0.578954	-0.537244
H194	H	0.197554	1.078954	-0.037244
H195	H	-0.228550	0.575463	-0.473641
H196	H	0.271450	1.075463	0.026359
H197	H	-0.348214	0.691000	-0.501948
H198	H	0.151786	1.191000	-0.001948
H199	H	-0.274308	0.687524	-0.438343
H200	H	0.225692	1.187524	0.061657
H201	H	-0.778155	1.014788	-0.305742
H202	H	-0.278155	1.514788	0.194258
H203	H	-1.090448	0.982574	-0.273385
H204	H	-0.590448	1.482574	0.226615
C205	C	-1.196223	1.161729	-0.452790
C206	C	-0.696223	1.661729	0.047210
C207	C	-1.103571	1.167268	-0.458365
C208	C	-0.603571	1.667268	0.041635
H209	H	-1.228135	1.195160	-0.486268
H210	H	-0.728135	1.695160	0.013732
H211	H	-1.211676	1.173265	-0.404088
H212	H	-0.711676	1.673265	0.095912
H213	H	-1.211693	1.113007	-0.464246
H214	H	-0.711693	1.613007	0.035754
H215	H	-1.088100	1.215989	-0.446904
H216	H	-0.588100	1.715989	0.053096
H217	H	-1.088111	1.155738	-0.507078
H218	H	-0.588111	1.655738	-0.007078
