data_functionalizedCrystal
_audit_creation_method	'MofGen! by Chris Wilmer'
_symmetry_space_group_name_H-M	'P1'
_symmetry_Int_Tables_number	1
_symmetry_cell_setting	triclinic
loop_
_symmetry_equiv_pos_as_xyz
  x,y,z
_cell_length_a	8.559649
_cell_length_b	12.996460
_cell_length_c	8.559649
_cell_angle_alpha	89.995421
_cell_angle_beta	110.221336
_cell_angle_gamma	90.005498
loop_
_atom_site_label
_atom_site_type_symbol
_atom_site_fract_x
_atom_site_fract_y
_atom_site_fract_z
O1	O	2.126883	0.085551	0.055032
O2	O	2.626883	0.585551	0.555032
O3	O	1.651398	0.085555	-0.028749
O4	O	2.151398	0.585555	0.471251
O5	O	1.931031	0.085551	0.250884
O6	O	2.431031	0.585551	0.750884
O7	O	1.847250	0.085554	-0.224601
O8	O	2.347250	0.585554	0.275399
O9	O	1.931007	-0.085583	0.250895
O10	O	2.431007	0.414417	0.750895
O11	O	1.651374	-0.085579	-0.028738
O12	O	2.151374	0.414421	0.471262
O13	O	2.126859	-0.085583	0.055043
O14	O	2.626859	0.414417	0.555043
Cu15	Cu	1.889114	-0.101207	0.013153
Cu16	Cu	2.389114	0.398793	0.513153
Cu17	Cu	1.889143	0.101179	0.013141
Cu18	Cu	2.389143	0.601179	0.513141
O19	O	1.847226	-0.085580	-0.224590
O20	O	2.347226	0.414420	0.275410
C21	C	1.591077	-0.000012	-0.035093
C22	C	2.091077	0.499988	0.464907
C23	C	1.411378	-0.000010	-0.053992
C24	C	1.911378	0.499990	0.446008
N25	N	1.889106	-0.243554	0.013164
N26	N	2.389106	0.256446	0.513164
C27	C	1.889141	-0.663368	0.013139
C28	C	2.389141	-0.163368	0.513139
C29	C	1.889126	-0.546563	0.013140
C30	C	2.389126	-0.046563	0.513140
C31	C	1.889124	-0.453465	0.013150
C32	C	2.389124	0.046535	0.513150
C33	C	1.889108	-0.336652	0.013154
C34	C	2.389108	0.163348	0.513154
C35	C	2.187180	-0.000014	0.061387
C36	C	2.687180	0.499986	0.561387
C37	C	2.366879	-0.000009	0.080286
C38	C	2.866879	0.499991	0.580286
C39	C	1.937369	-0.000014	0.311198
C40	C	2.437369	0.499986	0.811198
C41	C	1.956268	-0.000008	0.490898
C42	C	2.456268	0.499992	0.990898
N43	N	1.889166	0.243526	0.013144
N44	N	2.389166	0.743526	0.513144
C45	C	1.840889	-0.000012	-0.284904
C46	C	2.340889	0.499988	0.215096
C47	C	1.821990	-0.000011	-0.464604
C48	C	2.321990	0.499989	0.035396
H49	H	1.466258	-0.000005	0.209705
H50	H	1.966258	0.499995	0.709705
H51	H	1.311990	-0.000004	-0.183420
H52	H	1.811990	0.499996	0.316580
H53	H	1.692570	-0.000013	0.436018
H54	H	2.192570	0.499987	0.936018
F55	F	2.125442	-0.000022	0.620799
F56	F	2.625442	0.499978	1.120799
