data_functionalizedCrystal
_audit_creation_method	'MofGen! by Chris Wilmer'
_symmetry_space_group_name_H-M	'P1'
_symmetry_Int_Tables_number	1
_symmetry_cell_setting	triclinic
loop_
_symmetry_equiv_pos_as_xyz
  x,y,z
_cell_length_a	10.686285
_cell_length_b	10.685980
_cell_length_c	11.169409
_cell_angle_alpha	94.396777
_cell_angle_beta	94.400340
_cell_angle_gamma	89.665709
loop_
_atom_site_label
_atom_site_type_symbol
_atom_site_fract_x
_atom_site_fract_y
_atom_site_fract_z
Zn1	Zn	-0.352328	1.956353	0.795803
Zn2	Zn	-0.018995	2.289687	1.129136
Zn3	Zn	0.314338	2.623020	1.462469
Zn4	Zn	-0.562155	1.972346	0.581003
Zn5	Zn	-0.228822	2.305679	0.914337
Zn6	Zn	0.104511	2.639012	1.247670
Zn7	Zn	-0.368479	1.746560	0.578634
Zn8	Zn	-0.035146	2.079893	0.911967
Zn9	Zn	0.298187	2.413226	1.245300
Zn10	Zn	-0.578118	1.762662	0.765167
Zn11	Zn	-0.244785	2.095995	1.098500
Zn12	Zn	0.088548	2.429328	1.431833
O13	O	-0.465270	1.859480	0.680152
O14	O	-0.131937	2.192813	1.013485
O15	O	0.201396	2.526147	1.346818
O16	O	-0.366723	2.134028	0.781122
O17	O	-0.033389	2.467361	1.114456
O18	O	0.299944	2.800694	1.447789
O19	O	-0.536543	1.942349	0.412730
O20	O	-0.203209	2.275682	0.746063
O21	O	0.130124	2.609015	1.079397
O22	O	-0.190789	1.760958	0.619271
O23	O	0.142545	2.094291	0.952605
O24	O	0.475878	2.427624	1.285938
O25	O	-0.520882	2.145777	0.623310
O26	O	-0.187548	2.479110	0.956643
O27	O	0.145785	2.812444	1.289977
O28	O	-0.178923	1.915092	0.778825
O29	O	0.154411	2.248425	1.112158
O30	O	0.487744	2.581759	1.445491
O31	O	-0.394249	1.776465	0.410989
O32	O	-0.060916	2.109798	0.744323
O33	O	0.272417	2.443131	1.077656
O34	O	-0.409728	1.573143	0.589565
O35	O	-0.076395	1.906476	0.922898
O36	O	0.256939	2.239809	1.256231
O37	O	-0.548088	1.788401	0.937189
O38	O	-0.214755	2.121735	1.270523
O39	O	0.118579	2.455068	1.603856
O40	O	-0.563749	1.584973	0.726610
O41	O	-0.230416	1.918306	1.059943
O42	O	0.102918	2.251640	1.393276
O43	O	-0.382201	1.930706	0.959698
O44	O	-0.048868	2.264039	1.293031
O45	O	0.284465	2.597372	1.626364
O46	O	-0.739821	1.957962	0.593603
O47	O	-0.406488	2.291296	0.926937
O48	O	-0.073154	2.624629	1.260270
O49	O	-0.751549	1.803908	0.728907
O50	O	-0.418215	2.137242	1.062241
O51	O	-0.084882	2.470575	1.395574
C52	C	-0.490224	1.533539	0.654506
C53	C	-0.156891	1.866872	0.987840
C54	C	0.176443	2.200206	1.321173
C55	C	-0.500930	1.394102	0.643561
C56	C	-0.167596	1.727436	0.976895
C57	C	0.165737	2.060769	1.310228
C58	C	-0.791200	1.884452	0.658217
C59	C	-0.457867	2.217785	0.991550
C60	C	-0.124533	2.551119	1.324883
C61	C	-0.930625	1.895250	0.648882
C62	C	-0.597292	2.228583	0.982216
C63	C	-0.263958	2.561917	1.315549
C64	C	-0.138065	1.834445	0.702201
C65	C	0.195268	2.167778	1.035534
C66	C	0.528601	2.501111	1.368868
C67	C	0.001370	1.823776	0.711597
C68	C	0.334703	2.157110	1.044930
C69	C	0.668036	2.490443	1.378264
C70	C	-0.465124	1.859566	0.993211
C71	C	-0.131790	2.192899	1.326544
C72	C	0.201543	2.526232	1.659878
C73	C	-0.465061	1.859602	1.126618
C74	C	-0.131728	2.192936	1.459952
C75	C	0.201606	2.526269	1.793285
C76	C	-0.440220	2.186694	0.705898
C77	C	-0.106887	2.520027	1.039231
C78	C	0.226447	2.853361	1.372564
C79	C	-0.429545	2.326133	0.716869
C80	C	-0.096212	2.659466	1.050203
C81	C	0.237122	2.992800	1.383536
C82	C	-0.465320	1.859460	0.368322
C83	C	-0.131987	2.192793	0.701655
C84	C	0.201346	2.526127	1.034988
C85	C	-0.465011	1.859639	0.234958
C86	C	-0.131678	2.192973	0.568291
C87	C	0.201656	2.526306	0.901625
H88	H	-0.360232	1.374614	0.788003
H89	H	-0.026899	1.707948	1.121336
H90	H	0.306434	2.041281	1.454670
C91	C	-0.594568	1.328603	0.547448
C92	C	-0.261235	1.661936	0.880781
C93	C	0.072099	1.995269	1.214115
N94	N	-0.665096	1.279267	0.475058
N95	N	-0.331763	1.612600	0.808391
N96	N	0.001570	1.945934	1.141725
C97	C	-0.996073	1.989073	0.566679
C98	C	-0.662739	2.322407	0.900012
C99	C	-0.329406	2.655740	1.233346
N100	N	-1.045369	2.059740	0.504765
N101	N	-0.712035	2.393074	0.838099
N102	N	-0.378702	2.726407	1.171432
H103	H	-0.950189	1.754325	0.772433
H104	H	-0.616856	2.087658	1.105767
H105	H	-0.283522	2.420992	1.439100
