data_functionalizedCrystal
_audit_creation_method	'MofGen! by Chris Wilmer'
_symmetry_space_group_name_H-M	'P1'
_symmetry_Int_Tables_number	1
_symmetry_cell_setting	triclinic
loop_
_symmetry_equiv_pos_as_xyz
  x,y,z
_cell_length_a	15.995350
_cell_length_b	15.995350
_cell_length_c	15.072220
_cell_angle_alpha	89.996525
_cell_angle_beta	89.989989
_cell_angle_gamma	96.507625
loop_
_atom_site_label
_atom_site_type_symbol
_atom_site_fract_x
_atom_site_fract_y
_atom_site_fract_z
O1	O	1.110997	-0.107920	-0.073699
O2	O	1.610997	0.392080	0.426301
O3	O	0.867222	-0.121248	-0.073716
O4	O	1.367222	0.378752	0.426284
O5	O	0.995773	0.007304	-0.073711
O6	O	1.495773	0.507304	0.426289
O7	O	0.982446	-0.236472	-0.073705
O8	O	1.482446	0.263528	0.426295
O9	O	0.995739	0.007295	0.073854
O10	O	1.495739	0.507295	0.573854
O11	O	0.867187	-0.121256	0.073849
O12	O	1.367187	0.378744	0.573849
O13	O	1.110963	-0.107929	0.073866
O14	O	1.610963	0.392071	0.573866
Zn15	Zn	0.989069	-0.114594	0.097287
Zn16	Zn	1.489069	0.385406	0.597287
Zn17	Zn	0.989115	-0.114583	-0.097137
Zn18	Zn	1.489115	0.385417	0.402863
O19	O	0.982411	-0.236480	0.073860
O20	O	1.482411	0.263520	0.573860
C21	C	0.836010	-0.120701	0.000064
C22	C	1.336010	0.379299	0.500064
C23	C	0.743060	-0.119049	0.000057
C24	C	1.243060	0.380951	0.500057
C25	C	0.405312	-0.113117	0.000075
C26	C	0.905312	0.386883	0.500075
C27	C	0.452746	-0.021565	0.000402
C28	C	0.952746	0.478435	0.500402
C29	C	0.549436	-0.023217	0.000063
C30	C	1.049436	0.476783	0.500063
C31	C	0.572873	-0.116060	0.000067
C32	C	1.072873	0.383940	0.500067
C33	C	0.531805	-0.161211	-0.084196
C34	C	1.031805	0.338789	0.415804
C35	C	0.435170	-0.158911	-0.084260
C36	C	0.935170	0.341089	0.415740
C37	C	0.434791	-0.160813	0.083549
C38	C	0.934791	0.339187	0.583549
C39	C	0.531736	-0.160791	0.084657
C40	C	1.031736	0.339209	0.584657
C41	C	0.667570	-0.117727	0.000059
C42	C	1.167570	0.382273	0.500059
C43	C	0.310614	-0.111452	0.000077
C44	C	0.810614	0.388548	0.500077
C45	C	0.982980	-0.267671	0.000079
C46	C	1.482980	0.232329	0.500079
C47	C	0.984631	-0.360621	0.000081
C48	C	1.484631	0.139379	0.500081
C49	C	0.990564	-0.698369	0.000068
C50	C	1.490564	-0.198369	0.500068
C51	C	1.082116	-0.650935	-0.000255
C52	C	1.582116	-0.150935	0.499745
C53	C	1.080463	-0.554244	0.000082
C54	C	1.580463	-0.054244	0.500082
C55	C	0.987621	-0.530808	0.000074
C56	C	1.487621	-0.030808	0.500074
C57	C	0.942445	-0.571896	0.084334
C58	C	1.442445	-0.071896	0.584334
C59	C	0.944745	-0.668532	0.084400
C60	C	1.444745	-0.168532	0.584400
C61	C	0.942893	-0.668869	-0.083409
C62	C	1.442893	-0.168869	0.416591
C63	C	0.942915	-0.571924	-0.084518
C64	C	1.442915	-0.071924	0.415482
C65	C	0.985953	-0.436111	0.000080
C66	C	1.485953	0.063889	0.500080
C67	C	0.992229	-0.793066	0.000067
C68	C	1.492229	-0.293066	0.500067
C69	C	1.142175	-0.108476	0.000084
C70	C	1.642175	0.391524	0.500084
C71	C	1.235125	-0.110127	0.000085
C72	C	1.735125	0.389873	0.500085
C73	C	0.995205	0.038494	0.000069
C74	C	1.495205	0.538494	0.500069
C75	C	0.993553	0.131444	0.000061
C76	C	1.493553	0.631444	0.500061
N77	N	0.989044	-0.114601	0.229975
N78	N	1.489044	0.385399	0.729975
C79	C	0.989100	-0.114586	0.589177
C80	C	1.489100	0.385414	1.089177
C81	C	0.920084	-0.183141	0.551567
C82	C	1.420084	0.316859	1.051567
C83	C	0.920244	-0.183390	0.448741
C84	C	1.420244	0.316610	0.948741
C85	C	0.989071	-0.114594	0.410973
C86	C	1.489071	0.385406	0.910973
C87	C	1.076436	-0.133676	0.448271
C88	C	1.576436	0.366324	0.948271
C89	C	1.076047	-0.134164	0.551129
C90	C	1.576047	0.365836	1.051129
C91	C	0.971531	-0.026747	0.551273
C92	C	1.471531	0.473253	1.051273
C93	C	0.969528	-0.027331	0.448410
C94	C	1.469528	0.472669	0.948410
C95	C	0.989061	-0.114596	0.310259
C96	C	1.489061	0.385404	0.810259
C97	C	0.989116	-0.114586	0.689890
C98	C	1.489116	0.385414	1.189890
N99	N	0.989127	-0.114579	0.770174
N100	N	1.489127	0.385421	1.270174
H101	H	0.433166	0.014865	-0.059694
H102	H	0.933166	0.514865	0.440306
Cl103	Cl	0.989123	-0.700577	-0.182016
Cl104	Cl	1.489123	-0.200577	0.317984
Cl105	Cl	0.993839	-0.529763	-0.180762
Cl106	Cl	1.493839	-0.029763	0.319238
H107	H	0.577851	0.012275	0.060466
H108	H	1.077851	0.512275	0.560466
Cl109	Cl	0.592443	0.031719	-0.093519
Cl110	Cl	1.092443	0.531719	0.406481
Cl111	Cl	0.406922	-0.108063	-0.181511
Cl112	Cl	0.906922	0.391937	0.318489
H113	H	1.116181	-0.526387	0.060595
H114	H	1.616181	-0.026387	0.560595
H115	H	0.877528	-0.700780	0.088225
H116	H	1.377528	-0.200780	0.588225
Cl117	Cl	0.573784	-0.109819	0.180900
Cl118	Cl	1.073784	0.390181	0.680900
Cl119	Cl	0.837133	-0.550091	0.089168
Cl120	Cl	1.337133	-0.050091	0.589168
Cl121	Cl	0.424122	0.034932	0.093698
Cl122	Cl	0.924122	0.534932	0.593698
Cl123	Cl	1.049234	0.052019	0.588823
Cl124	Cl	1.549234	0.552019	1.088823
H125	H	0.560194	-0.129844	-0.146908
H126	H	1.060194	0.370156	0.353092
Cl127	Cl	0.555449	-0.265325	0.092517
Cl128	Cl	1.055449	0.234675	0.592517
H129	H	0.905262	-0.012850	0.424033
H130	H	1.405262	0.487150	0.924033
Cl131	Cl	1.100914	-0.231453	0.408493
Cl132	Cl	1.600914	0.268547	0.908493
Cl133	Cl	0.838417	-0.548119	-0.092446
Cl134	Cl	1.338417	-0.048119	0.407554
H135	H	0.402922	-0.226127	-0.088082
H136	H	0.902922	0.273873	0.411918
H137	H	0.403030	-0.228313	0.084121
H138	H	0.903030	0.271687	0.584121
H139	H	0.931148	-0.247958	0.577408
H140	H	1.431148	0.252042	1.077408
H141	H	0.545931	-0.229420	-0.087327
H142	H	1.045931	0.270580	0.412673
H143	H	0.414241	-0.130886	0.147418
H144	H	0.914241	0.369114	0.647418
H145	H	1.091529	-0.198225	0.575113
H146	H	1.591529	0.301775	1.075113
H147	H	0.973801	-0.543530	0.147048
H148	H	1.473801	-0.043530	0.647048
H149	H	0.875387	-0.700617	-0.083974
H150	H	1.375387	-0.200617	0.416026
Cl151	Cl	0.875291	0.001566	0.591361
Cl152	Cl	1.375291	0.501566	1.091361
Cl153	Cl	1.135567	-0.510312	-0.092988
Cl154	Cl	1.635567	-0.010312	0.407012
H155	H	0.855305	-0.172021	0.423525
H156	H	1.355305	0.327979	0.923525
Cl157	Cl	1.042106	0.055125	0.408735
Cl158	Cl	1.542106	0.555125	0.908735
Cl159	Cl	0.937533	-0.284039	0.410737
Cl160	Cl	1.437533	0.215961	0.910737
Cl161	Cl	1.138638	-0.679531	-0.093551
Cl162	Cl	1.638638	-0.179531	0.406449
Cl163	Cl	1.157643	-0.059925	0.589542
Cl164	Cl	1.657643	0.440075	1.089542
Cl165	Cl	1.138343	-0.681193	0.092524
Cl166	Cl	1.638343	-0.181193	0.592524
Cl167	Cl	1.157626	-0.058636	0.410502
Cl168	Cl	1.657626	0.441364	0.910502
Cl169	Cl	0.819490	-0.165867	0.589767
Cl170	Cl	1.319490	0.334133	1.089767
H171	H	0.977660	-0.686840	0.147393
H172	H	1.477660	-0.186840	0.647393
