data_functionalizedCrystal
_audit_creation_method	'MofGen! by Chris Wilmer'
_symmetry_space_group_name_H-M	'P1'
_symmetry_Int_Tables_number	1
_symmetry_cell_setting	triclinic
loop_
_symmetry_equiv_pos_as_xyz
  x,y,z
_cell_length_a	23.532361
_cell_length_b	23.532407
_cell_length_c	14.048226
_cell_angle_alpha	89.988910
_cell_angle_beta	89.997812
_cell_angle_gamma	82.839173
loop_
_atom_site_label
_atom_site_type_symbol
_atom_site_fract_x
_atom_site_fract_y
_atom_site_fract_z
O1	O	0.755278	0.069010	-0.079075
O2	O	0.589411	0.079041	-0.079099
O3	O	0.677346	-0.008907	-0.079069
O4	O	0.667343	0.156958	-0.079105
O5	O	0.677336	-0.008912	0.079253
O6	O	0.589401	0.079036	0.079222
O7	O	0.755268	0.069005	0.079247
Zn8	Zn	0.672332	0.074019	0.104371
Zn9	Zn	0.672346	0.074026	-0.104224
O10	O	0.667332	0.156953	0.079216
C11	C	0.568189	0.078787	0.000059
C12	C	0.504971	0.078032	0.000050
C13	C	0.231733	0.074731	-0.086244
C14	C	0.291133	0.075446	-0.086247
O15	O	0.321863	0.075798	-0.159641
N16	N	0.320832	0.075804	0.000055
C17	C	0.291130	0.075442	0.086364
O18	O	0.321847	0.075812	0.159770
C19	C	0.231732	0.074723	0.086366
C20	C	0.202035	0.074370	0.000059
C21	C	0.202035	0.074378	-0.172544
C22	C	0.142639	0.073664	-0.172541
C23	C	0.112941	0.073303	-0.086238
C24	C	0.142639	0.073657	0.000061
C25	C	0.202032	0.074356	0.172674
C26	C	0.142630	0.073637	0.172668
C27	C	0.112932	0.073284	0.086361
C28	C	0.053545	0.072582	0.086367
N29	N	0.023845	0.072224	0.000066
C30	C	0.053543	0.072584	-0.086237
C31	C	0.415871	0.076951	0.086354
C32	C	0.475267	0.077674	0.086354
C33	C	0.475265	0.077677	-0.086257
C34	C	0.415867	0.076958	-0.086256
C35	C	0.386171	0.076593	0.000053
C36	C	-0.071192	0.071086	-0.086224
C37	C	-0.130594	0.070374	-0.086214
C38	C	-0.130586	0.070368	0.086396
C39	C	-0.071191	0.071083	0.086387
C40	C	-0.041495	0.071440	0.000068
O41	O	0.022777	0.072227	0.159724
O42	O	0.022820	0.072207	-0.159630
C43	C	0.677086	-0.030126	0.000094
C44	C	0.676320	-0.093343	0.000102
C45	C	0.723555	-0.492454	0.000056
C46	C	0.722844	-0.551854	0.000049
O47	O	0.766630	-0.588606	0.000020
N48	N	0.670566	-0.574471	0.000042
C49	C	0.618997	-0.537685	0.000033
O50	O	0.574465	-0.562377	0.000025
C51	C	0.619709	-0.478286	0.000033
C52	C	0.671990	-0.455672	0.000050
C53	C	0.775832	-0.469839	0.000072
C54	C	0.776543	-0.410443	0.000081
C55	C	0.724977	-0.373662	0.000075
C56	C	0.672701	-0.396276	0.000059
C57	C	0.568140	-0.441501	0.000017
C58	C	0.568857	-0.382099	0.000017
C59	C	0.621137	-0.359485	0.000034
C60	C	0.621847	-0.300099	0.000062
N61	N	0.674124	-0.277481	0.000069
C62	C	0.725690	-0.314263	0.000075
C63	C	0.617505	-0.662427	0.000030
C64	C	0.616793	-0.721825	0.000036
C65	C	0.720640	-0.735990	0.000051
C66	C	0.721352	-0.676591	0.000051
C67	C	0.669783	-0.639810	0.000037
C68	C	0.727179	-0.189526	0.000095
C69	C	0.727886	-0.130124	0.000108
C70	C	0.624039	-0.115965	0.000089
C71	C	0.623332	-0.175361	0.000081
C72	C	0.674907	-0.212141	0.000081
O73	O	0.578083	-0.263312	0.000087
O74	O	0.770214	-0.289562	0.000070
C75	C	0.776489	0.069258	0.000087
C76	C	0.839708	0.070014	0.000089
C77	C	0.667592	0.178171	0.000051
C78	C	0.668358	0.241388	0.000038
N79	N	0.672327	0.074014	0.246732
N80	N	0.672356	0.074026	-0.246584
C81	C	0.711277	0.035087	0.296564
C82	C	0.711281	0.035087	0.396221
C83	C	0.672337	0.074017	0.446046
C84	C	0.633383	0.112946	0.396207
C85	C	0.633377	0.112943	0.296551
C86	C	0.633400	0.112950	0.603921
C87	C	0.633406	0.112954	0.703584
C88	C	0.711303	0.035093	0.703591
C89	C	0.711297	0.035091	0.603935
C90	C	0.672344	0.074021	0.554104
H91	H	-0.047011	0.071381	0.156665
H92	H	0.762627	-0.765949	0.000052
H93	H	0.819115	-0.392037	0.000091
Cl94	Cl	0.378543	0.076500	0.194868
H95	H	0.763923	-0.658183	0.000064
Cl96	Cl	0.239351	0.074799	0.281181
Cl97	Cl	0.512592	0.078129	0.194859
H98	H	0.226209	0.074670	-0.242826
H99	H	0.817825	-0.499782	0.000074
H100	H	0.575509	-0.632483	0.000027
H101	H	0.601678	0.144650	0.563352
H102	H	0.525567	-0.459902	-0.000002
H103	H	0.601672	0.144642	0.436780
Cl104	Cl	0.551065	-0.750246	0.000034
Cl105	Cl	0.584445	0.161896	0.766213
Cl106	Cl	0.760241	-0.013855	0.233938
H107	H	0.742996	0.003389	0.436794
H108	H	0.743011	0.003393	0.563369
Cl109	Cl	0.584407	0.161881	0.233907
H110	H	0.526862	-0.352154	0.000004
Cl111	Cl	0.378539	0.076513	-0.194759
H112	H	0.580761	-0.193774	0.000094
Cl113	Cl	0.760273	-0.013846	0.766240
Cl114	Cl	-0.167925	0.069932	-0.194722
Cl115	Cl	-0.033870	0.071536	-0.194740
H116	H	0.582056	-0.086007	0.000087
Cl117	Cl	-0.167933	0.069916	0.194886
Cl118	Cl	0.105315	0.073215	-0.281047
Cl119	Cl	0.105301	0.073174	0.281178
H120	H	0.499456	0.077970	-0.156530
H121	H	0.770461	-0.111716	0.000124
H122	H	0.769176	-0.219466	0.000091
