data_functionalizedCrystal
_audit_creation_method	'MofGen! by Chris Wilmer'
_symmetry_space_group_name_H-M	'P1'
_symmetry_Int_Tables_number	1
_symmetry_cell_setting	triclinic
loop_
_symmetry_equiv_pos_as_xyz
  x,y,z
_cell_length_a	15.944551
_cell_length_b	23.532357
_cell_length_c	15.021413
_cell_angle_alpha	89.998468
_cell_angle_beta	89.997174
_cell_angle_gamma	83.163515
loop_
_atom_site_label
_atom_site_type_symbol
_atom_site_fract_x
_atom_site_fract_y
_atom_site_fract_z
O1	O	1.113891	0.073444	-0.073950
O2	O	1.363891	0.323444	0.176050
O3	O	1.613891	0.573444	0.426050
O4	O	1.863891	0.823444	0.676050
O5	O	0.869262	0.082500	-0.073974
O6	O	1.119262	0.332500	0.176026
O7	O	1.369262	0.582500	0.426026
O8	O	1.619262	0.832500	0.676026
O9	O	0.998975	-0.004933	-0.073943
O10	O	1.248975	0.245067	0.176057
O11	O	1.498975	0.495067	0.426057
O12	O	1.748975	0.745067	0.676057
O13	O	0.984178	0.160877	-0.073981
O14	O	1.234178	0.410877	0.176019
O15	O	1.484178	0.660877	0.426019
O16	O	1.734178	0.910877	0.676019
O17	O	0.998954	-0.004921	0.074121
O18	O	1.248954	0.245079	0.324121
O19	O	1.498954	0.495079	0.574121
O20	O	1.748954	0.745079	0.824121
O21	O	0.869242	0.082512	0.074090
O22	O	1.119242	0.332512	0.324090
O23	O	1.369242	0.582512	0.574090
O24	O	1.619242	0.832512	0.824090
O25	O	1.113870	0.073456	0.074114
O26	O	1.363870	0.323456	0.324114
O27	O	1.613870	0.573456	0.574114
O28	O	1.863870	0.823456	0.824114
Zn29	Zn	0.991552	0.077986	0.097611
Zn30	Zn	1.241552	0.327986	0.347611
Zn31	Zn	1.491552	0.577986	0.597611
Zn32	Zn	1.741552	0.827986	0.847611
Zn33	Zn	0.991580	0.077970	-0.097470
Zn34	Zn	1.241580	0.327970	0.152530
Zn35	Zn	1.491580	0.577970	0.402530
Zn36	Zn	1.741580	0.827970	0.652530
O37	O	0.984157	0.160889	0.074083
O38	O	1.234157	0.410889	0.324083
O39	O	1.484157	0.660889	0.574083
O40	O	1.734157	0.910889	0.824083
C41	C	0.837961	0.082130	0.000056
C42	C	1.087961	0.332130	0.250056
C43	C	1.337961	0.582130	0.500056
C44	C	1.587961	0.832130	0.750056
C45	C	0.744725	0.081003	0.000047
C46	C	0.994725	0.331003	0.250047
C47	C	1.244725	0.581003	0.500047
C48	C	1.494725	0.831003	0.750047
C49	C	0.998595	-0.026145	0.000092
C50	C	1.248595	0.223855	0.250092
C51	C	1.498595	0.473855	0.500092
C52	C	1.748595	0.723855	0.750092
C53	C	0.997482	-0.089368	0.000100
C54	C	1.247482	0.160632	0.250100
C55	C	1.497482	0.410632	0.500100
C56	C	1.747482	0.660632	0.750100
C57	C	0.530363	0.024114	0.000078
C58	C	0.780363	0.274114	0.250078
C59	C	1.030363	0.524114	0.500078
C60	C	1.280363	0.774114	0.750078
C61	C	0.469123	0.050525	-0.072932
C62	C	0.719123	0.300525	0.177068
C63	C	0.969123	0.550525	0.427068
C64	C	1.219123	0.800525	0.677068
C65	C	0.574017	0.078964	0.000058
C66	C	0.824017	0.328964	0.250058
C67	C	1.074017	0.578964	0.500058
C68	C	1.324017	0.828964	0.750058
C69	C	0.469125	0.050550	0.073048
C70	C	0.719125	0.300550	0.323048
C71	C	0.969125	0.550550	0.573048
C72	C	1.219125	0.800550	0.823048
C73	C	0.409121	0.076990	0.000073
C74	C	0.659121	0.326990	0.250073
C75	C	0.909121	0.576990	0.500073
C76	C	1.159121	0.826990	0.750073
C77	C	0.514005	0.105390	-0.073011
C78	C	0.764005	0.355390	0.176989
C79	C	1.014005	0.605390	0.426989
C80	C	1.264005	0.855390	0.676989
C81	C	0.514014	0.105408	0.073034
C82	C	0.764014	0.355408	0.323034
C83	C	1.014014	0.605408	0.573034
C84	C	1.264014	0.855408	0.823034
C85	C	0.452791	0.131859	0.000006
C86	C	0.702791	0.381859	0.250006
C87	C	0.952791	0.631859	0.500006
C88	C	1.202791	0.881859	0.750006
C89	C	0.669009	0.080099	0.000049
C90	C	0.919009	0.330099	0.250049
C91	C	1.169009	0.580099	0.500049
C92	C	1.419009	0.830099	0.750049
C93	C	0.314130	0.075859	0.000076
C94	C	0.564130	0.325859	0.250076
C95	C	0.814130	0.575859	0.500076
C96	C	1.064130	0.825859	0.750076
C97	C	0.990507	-0.481413	-0.080659
C98	C	1.240507	-0.231413	0.169341
C99	C	1.490507	0.018587	0.419341
C100	C	1.740507	0.268587	0.669341
C101	C	0.989449	-0.540817	-0.080664
C102	C	1.239449	-0.290817	0.169336
C103	C	1.489449	-0.040817	0.419336
C104	C	1.739449	0.209183	0.669336
O105	O	0.988883	-0.571541	-0.149304
O106	O	1.238883	-0.321541	0.100696
O107	O	1.488883	-0.071541	0.350696
O108	O	1.738883	0.178459	0.600696
N109	N	0.988913	-0.570523	0.000045
N110	N	1.238913	-0.320523	0.250045
N111	N	1.488913	-0.070523	0.500045
N112	N	1.738913	0.179477	0.750045
C113	C	0.989427	-0.540822	0.080764
C114	C	1.239427	-0.290822	0.330764
C115	C	1.489427	-0.040822	0.580764
C116	C	1.739427	0.209178	0.830764
O117	O	0.988873	-0.571544	0.149413
O118	O	1.238873	-0.321544	0.399413
O119	O	1.488873	-0.071544	0.649413
O120	O	1.738873	0.178456	0.899413
C121	C	0.990479	-0.481419	0.080768
C122	C	1.240479	-0.231419	0.330768
C123	C	1.490479	0.018581	0.580768
C124	C	1.740479	0.268581	0.830768
C125	C	0.991023	-0.451716	0.000054
C126	C	1.241023	-0.201716	0.250054
C127	C	1.491023	0.048284	0.500054
C128	C	1.741023	0.298284	0.750054
C129	C	0.991050	-0.451710	-0.161366
C130	C	1.241050	-0.201710	0.088634
C131	C	1.491050	0.048290	0.338634
C132	C	1.741050	0.298290	0.588634
C133	C	0.992110	-0.392311	-0.161360
C134	C	1.242110	-0.142311	0.088640
C135	C	1.492110	0.107689	0.338640
C136	C	1.742110	0.357689	0.588640
C137	C	0.992626	-0.362614	-0.080647
C138	C	1.242626	-0.112614	0.169353
C139	C	1.492626	0.137386	0.419353
C140	C	1.742626	0.387386	0.669353
C141	C	0.992082	-0.392317	0.000060
C142	C	1.242082	-0.142317	0.250060
C143	C	1.492082	0.107683	0.500060
C144	C	1.742082	0.357683	0.750060
C145	C	0.990986	-0.451719	0.161486
C146	C	1.240986	-0.201719	0.411486
C147	C	1.490986	0.048281	0.661486
C148	C	1.740986	0.298281	0.911486
C149	C	0.992037	-0.392312	0.161484
C150	C	1.242037	-0.142312	0.411484
C151	C	1.492037	0.107688	0.661484
C152	C	1.742037	0.357688	0.911484
C153	C	0.992582	-0.362609	0.080770
C154	C	1.242582	-0.112609	0.330770
C155	C	1.492582	0.137391	0.580770
C156	C	1.742582	0.387391	0.830770
C157	C	0.993658	-0.303221	0.080778
C158	C	1.243658	-0.053221	0.330778
C159	C	1.493658	0.196779	0.580778
C160	C	1.743658	0.446779	0.830778
N161	N	0.994193	-0.273515	0.000070
N162	N	1.244193	-0.023515	0.250070
N163	N	1.494193	0.226485	0.500070
N164	N	1.744193	0.476485	0.750070
C165	C	0.993677	-0.303211	-0.080643
C166	C	1.243677	-0.053211	0.169357
C167	C	1.493677	0.196789	0.419357
C168	C	1.743677	0.446789	0.669357
C169	C	0.987217	-0.665572	0.080749
C170	C	1.237217	-0.415572	0.330749
C171	C	1.487217	-0.165572	0.580749
C172	C	1.737217	0.084428	0.830749
C173	C	0.986171	-0.724975	0.080746
C174	C	1.236171	-0.474975	0.330746
C175	C	1.486171	-0.224975	0.580746
C176	C	1.736171	0.025025	0.830746
C177	C	0.986192	-0.724965	-0.080682
C178	C	1.236192	-0.474965	0.169318
C179	C	1.486192	-0.224965	0.419318
C180	C	1.736192	0.025035	0.669318
C181	C	0.987243	-0.665562	-0.080678
C182	C	1.237243	-0.415562	0.169322
C183	C	1.487243	-0.165562	0.419322
C184	C	1.737243	0.084438	0.669322
C185	C	0.987752	-0.635866	0.000040
C186	C	1.237752	-0.385866	0.250040
C187	C	1.487752	-0.135866	0.500040
C188	C	1.737752	0.114134	0.750040
C189	C	0.995903	-0.178469	-0.080626
C190	C	1.245903	0.071531	0.169374
C191	C	1.495903	0.321531	0.419374
C192	C	1.745903	0.571531	0.669374
C193	C	0.996966	-0.119064	-0.080613
C194	C	1.246966	0.130936	0.169387
C195	C	1.496966	0.380936	0.419387
C196	C	1.746966	0.630936	0.669387
C197	C	0.996940	-0.119079	0.080815
C198	C	1.246940	0.130921	0.330815
C199	C	1.496940	0.380921	0.580815
C200	C	1.746940	0.630921	0.830815
C201	C	0.995882	-0.178478	0.080803
C202	C	1.245882	0.071522	0.330803
C203	C	1.495882	0.321522	0.580803
C204	C	1.745882	0.571522	0.830803
C205	C	0.995360	-0.208172	0.000075
C206	C	1.245360	0.041828	0.250075
C207	C	1.495360	0.291828	0.500075
C208	C	1.745360	0.541828	0.750075
O209	O	0.994221	-0.272459	0.149384
O210	O	1.244221	-0.022459	0.399384
O211	O	1.494221	0.227541	0.649384
O212	O	1.744221	0.477541	0.899384
O213	O	0.994220	-0.272481	-0.149280
O214	O	1.244220	-0.022481	0.100720
O215	O	1.494220	0.227519	0.350720
O216	O	1.744220	0.477519	0.600720
C217	C	1.145171	0.073826	0.000083
C218	C	1.395171	0.323826	0.250083
C219	C	1.645171	0.573826	0.500083
C220	C	1.895171	0.823826	0.750083
C221	C	1.238407	0.074953	0.000085
C222	C	1.488407	0.324953	0.250085
C223	C	1.738407	0.574953	0.500085
C224	C	1.988407	0.824953	0.750085
C225	C	0.984538	0.182101	0.000046
C226	C	1.234538	0.432101	0.250046
C227	C	1.484538	0.682101	0.500046
C228	C	1.734538	0.932101	0.750046
C229	C	0.985650	0.245324	0.000032
C230	C	1.235650	0.495324	0.250032
C231	C	1.485650	0.745324	0.500032
C232	C	1.735650	0.995324	0.750032
N233	N	0.991540	0.077997	0.230748
N234	N	1.241540	0.327997	0.480748
N235	N	1.491540	0.577997	0.730748
N236	N	1.741540	0.827997	0.980748
N237	N	0.991599	0.077954	-0.230608
N238	N	1.241599	0.327954	0.019392
N239	N	1.491599	0.577954	0.269392
N240	N	1.741599	0.827954	0.519392
C241	C	0.931552	0.118407	0.470417
C242	C	1.181552	0.368407	0.720417
C243	C	1.431552	0.618407	0.970417
C244	C	1.681552	0.868407	1.220417
C245	C	1.007356	0.129464	0.529756
C246	C	1.257356	0.379464	0.779756
C247	C	1.507356	0.629464	1.029756
C248	C	1.757356	0.879464	1.279756
C249	C	0.991562	0.077983	0.412355
C250	C	1.241562	0.327983	0.662355
C251	C	1.491562	0.577983	0.912355
C252	C	1.741562	0.827983	1.162355
C253	C	0.915778	0.066939	0.529758
C254	C	1.165778	0.316939	0.779758
C255	C	1.415778	0.566939	1.029758
C256	C	1.665778	0.816939	1.279758
C257	C	0.991576	0.077971	0.587779
C258	C	1.241576	0.327971	0.837779
C259	C	1.491576	0.577971	1.087779
C260	C	1.741576	0.827971	1.337779
C261	C	1.067404	0.089065	0.470387
C262	C	1.317404	0.339065	0.720387
C263	C	1.567404	0.589065	0.970387
C264	C	1.817404	0.839065	1.220387
C265	C	0.975776	0.026518	0.470384
C266	C	1.225776	0.276518	0.720384
C267	C	1.475776	0.526518	0.970384
C268	C	1.725776	0.776518	1.220384
C269	C	1.051635	0.037553	0.529696
C270	C	1.301635	0.287553	0.779696
C271	C	1.551635	0.537553	1.029696
C272	C	1.801635	0.787553	1.279696
C273	C	0.991552	0.077992	0.311298
C274	C	1.241552	0.327992	0.561298
C275	C	1.491552	0.577992	0.811298
C276	C	1.741552	0.827992	1.061298
C277	C	0.991594	0.077961	0.688834
C278	C	1.241594	0.327961	0.938834
C279	C	1.491594	0.577961	1.188834
C280	C	1.741594	0.827961	1.438834
H281	H	0.564091	-0.021407	-0.000002
H282	H	0.814091	0.228593	0.249998
H283	H	1.064091	0.478593	0.499998
H284	H	1.314091	0.728593	0.749998
H285	H	0.992439	-0.368135	0.227216
H286	H	1.242439	-0.118135	0.477216
H287	H	1.492439	0.131865	0.727216
H288	H	1.742439	0.381865	0.977216
H289	H	0.990544	-0.475892	0.227213
H290	H	1.240544	-0.225892	0.477213
H291	H	1.490544	0.024108	0.727213
H292	H	1.740544	0.274108	0.977213
H293	H	1.020721	0.172981	0.555835
H294	H	1.270721	0.422981	0.805835
H295	H	1.520721	0.672981	1.055835
H296	H	1.770721	0.922981	1.305835
H297	H	0.992550	-0.368132	-0.227086
H298	H	1.242550	-0.118132	0.022914
H299	H	1.492550	0.131868	0.272914
H300	H	1.742550	0.381868	0.522914
F301	F	0.990501	-0.483307	-0.247279
F302	F	1.240501	-0.233307	0.002721
F303	F	1.490501	0.016693	0.252721
F304	F	1.740501	0.266693	0.502721
H305	H	0.419237	0.177427	-0.000045
H306	H	0.669237	0.427427	0.249955
H307	H	0.919237	0.677427	0.499955
H308	H	1.169237	0.927427	0.749955
F309	F	0.540055	0.135713	0.153702
F310	F	0.790055	0.385713	0.403702
F311	F	1.040055	0.635713	0.653702
F312	F	1.290055	0.885713	0.903702
H313	H	0.997411	-0.094883	-0.146343
H314	H	1.247411	0.155117	0.103657
H315	H	1.497411	0.405117	0.353657
H316	H	1.747411	0.655117	0.603657
H317	H	0.995447	-0.202664	0.146526
H318	H	1.245447	0.047336	0.396526
H319	H	1.495447	0.297336	0.646526
H320	H	1.745447	0.547336	0.896526
H321	H	0.880854	0.152620	0.444390
H322	H	1.130854	0.402620	0.694390
H323	H	1.380854	0.652620	0.944390
H324	H	1.630854	0.902620	1.194390
H325	H	0.962388	-0.016985	0.444285
H326	H	1.212388	0.233015	0.694285
H327	H	1.462388	0.483015	0.944285
H328	H	1.712388	0.733015	1.194285
F329	F	0.985607	-0.756581	0.166652
F330	F	1.235607	-0.506581	0.416652
F331	F	1.485607	-0.256581	0.666652
F332	F	1.735607	-0.006581	0.916652
F333	F	0.987821	-0.633955	-0.166584
F334	F	1.237821	-0.383955	0.083416
F335	F	1.487821	-0.133955	0.333416
F336	F	1.737821	0.116045	0.583416
F337	F	0.443124	0.020222	0.153724
F338	F	0.693124	0.270222	0.403724
F339	F	0.943124	0.520222	0.653724
F340	F	1.193124	0.770222	0.903724
F341	F	1.151200	0.101333	0.436447
F342	F	1.401200	0.351333	0.686447
F343	F	1.651200	0.601333	0.936447
F344	F	1.901200	0.851333	1.186447
F345	F	0.997491	-0.087463	0.166711
F346	F	1.247491	0.162537	0.416711
F347	F	1.497491	0.412537	0.666711
F348	F	1.747491	0.662537	0.916711
F349	F	0.995348	-0.210062	-0.166545
F350	F	1.245348	0.039938	0.083455
F351	F	1.495348	0.289938	0.333455
F352	F	1.745348	0.539938	0.583455
F353	F	1.118045	-0.007139	0.563508
F354	F	1.368045	0.242861	0.813508
F355	F	1.618045	0.492861	1.063508
F356	F	1.868045	0.742861	1.313508
F357	F	0.832002	0.054736	0.563847
F358	F	1.082002	0.304736	0.813847
F359	F	1.332002	0.554736	1.063847
F360	F	1.582002	0.804736	1.313847
F361	F	0.985637	-0.756580	-0.166585
F362	F	1.235637	-0.506580	0.083415
F363	F	1.485637	-0.256580	0.333415
F364	F	1.735637	-0.006580	0.583415
H365	H	0.449223	0.027321	-0.134646
H366	H	0.699223	0.277321	0.115354
H367	H	0.949223	0.527321	0.365354
H368	H	1.199223	0.777321	0.615354
F369	F	0.539875	0.135684	-0.153778
F370	F	0.789875	0.385684	0.096222
F371	F	1.039875	0.635684	0.346222
F372	F	1.289875	0.885684	0.596222
H373	H	0.987634	-0.641397	0.146484
H374	H	1.237634	-0.391397	0.396484
H375	H	1.487634	-0.141397	0.646484
H376	H	1.737634	0.108603	0.896484
