data_functionalizedCrystal
_audit_creation_method	'MofGen! by Chris Wilmer'
_symmetry_space_group_name_H-M	'P1'
_symmetry_Int_Tables_number	1
_symmetry_cell_setting	triclinic
loop_
_symmetry_equiv_pos_as_xyz
  x,y,z
_cell_length_a	16.625547
_cell_length_b	16.625546
_cell_length_c	18.101389
_cell_angle_alpha	90.019589
_cell_angle_beta	90.025473
_cell_angle_gamma	90.021654
loop_
_atom_site_label
_atom_site_type_symbol
_atom_site_fract_x
_atom_site_fract_y
_atom_site_fract_z
Zn1	Zn	-1.232668	0.321104	-0.418855
Zn2	Zn	-1.232575	0.455921	-0.295011
Zn3	Zn	-1.097833	0.321105	-0.295014
Zn4	Zn	-1.097800	0.455896	-0.418797
O5	O	-1.165219	0.388506	-0.356920
O6	O	-1.345488	0.338998	-0.402450
O7	O	-1.214676	0.438049	-0.191379
O8	O	-1.115772	0.208272	-0.311467
O9	O	-1.345420	0.438048	-0.311463
O10	O	-1.214835	0.208271	-0.402453
O11	O	-1.115682	0.338999	-0.191381
O12	O	-0.984997	0.338975	-0.311411
O13	O	-1.115716	0.438005	-0.522438
O14	O	-0.984972	0.438005	-0.402354
O15	O	-1.214802	0.338973	-0.522481
O16	O	-1.214644	0.568750	-0.311406
O17	O	-1.115625	0.568732	-0.402352
C18	C	-0.955728	0.388488	-0.356877
C19	C	-0.866107	0.388500	-0.356876
C20	C	-0.793325	0.388500	-0.356883
C21	C	-0.702016	0.388503	-0.356898
C22	C	-0.629240	0.388510	-0.356914
C23	C	-0.537925	0.388514	-0.356929
C24	C	-1.165143	0.597997	-0.356889
C25	C	-1.165184	0.687618	-0.356900
C26	C	-0.375528	0.388522	-0.356954
C27	C	-0.465149	0.388520	-0.356945
C28	C	-1.165266	0.388486	-0.550082
C29	C	-1.165285	0.388477	-0.632396
C30	C	-1.165318	0.178197	-0.356967
C31	C	-1.165360	0.088576	-0.356987
C32	C	-1.165325	1.015794	-0.356977
C33	C	-1.165283	0.924485	-0.356958
C34	C	-1.165254	0.851709	-0.356938
C35	C	-1.165213	0.760395	-0.356920
C36	C	-1.165332	0.388326	-0.931487
C37	C	-1.102775	0.450436	-0.900135
C38	C	-1.102944	0.450724	-0.814516
C39	C	-1.165308	0.388401	-0.783104
C40	C	-1.250264	0.411467	-0.814211
C41	C	-1.249915	0.411875	-0.899856
C42	C	-1.143673	0.303012	-0.899912
C43	C	-1.141783	0.303505	-0.814261
C44	C	-1.165300	0.388442	-0.699245
C45	C	-1.165346	0.388287	-1.015346
C46	C	-1.165219	0.388469	-0.164509
C47	C	-1.165355	0.388250	-0.082195
H48	H	-1.039947	0.436290	-0.793483
N49	N	-1.058974	0.280455	-0.787323
H50	H	-1.044177	0.225801	-0.807539
H51	H	-1.018574	0.321623	-0.804829
N52	N	-1.019069	0.431505	-0.927379
H53	H	-1.020883	0.382487	-0.960314
H54	H	-0.997567	0.478833	-0.956237
H55	H	-1.184021	0.254774	-0.792879
N56	N	-1.121541	0.533690	-0.928635
H57	H	-1.074100	0.554759	-0.957607
H58	H	-1.170403	0.531275	-0.961734
H59	H	-1.117245	0.513961	-0.794033
N60	N	-1.275003	0.493200	-0.785813
H61	H	-1.283681	0.530833	-0.828872
H62	H	-1.326572	0.488058	-0.756724
N63	N	-1.274228	0.494481	-0.926339
H64	H	-1.329916	0.507517	-0.907559
H65	H	-1.234763	0.535650	-0.907064
N66	N	-1.313757	0.354570	-0.927339
H67	H	-1.342003	0.329158	-0.883817
H68	H	-1.354094	0.385029	-0.958282
N69	N	-1.313667	0.353425	-0.787278
H70	H	-1.287868	0.311521	-0.754573
H71	H	-1.355750	0.383743	-0.758255
H72	H	-1.189237	0.256738	-0.920190
H73	H	-1.082800	0.281998	-0.921497
