data_functionalizedCrystal
_audit_creation_method	'MofGen! by Chris Wilmer'
_symmetry_space_group_name_H-M	'P1'
_symmetry_Int_Tables_number	1
_symmetry_cell_setting	triclinic
loop_
_symmetry_equiv_pos_as_xyz
  x,y,z
_cell_length_a	14.044220
_cell_length_b	14.044220
_cell_length_c	13.101039
_cell_angle_alpha	86.332523
_cell_angle_beta	93.659868
_cell_angle_gamma	93.188878
loop_
_atom_site_label
_atom_site_type_symbol
_atom_site_fract_x
_atom_site_fract_y
_atom_site_fract_z
O1	O	-1.281968	-0.225348	-0.085109
O2	O	-1.005298	-0.217041	-0.085135
O3	O	-1.139480	-0.082860	-0.085112
O4	O	-1.147787	-0.359530	-0.085132
O5	O	-1.129854	-0.092504	0.085316
O6	O	-0.995673	-0.226686	0.085293
O7	O	-1.272343	-0.234993	0.085319
Zn8	Zn	-1.132479	-0.232371	0.112365
Zn9	Zn	-1.145162	-0.219663	-0.112181
O10	O	-1.138161	-0.369175	0.085296
C11	C	-0.964864	-0.218228	0.000076
C12	C	-0.858722	-0.207383	0.000066
C13	C	-1.131031	-0.052060	0.000102
C14	C	-1.120187	0.054083	0.000102
C15	C	-1.312777	-0.233806	0.000106
C16	C	-1.418920	-0.244651	0.000109
C17	C	-0.664383	-0.187558	0.000088
C18	C	-0.613253	-0.264472	0.000087
C19	C	-0.505116	-0.253441	0.000099
C20	C	-0.772529	-0.198587	0.000076
C21	C	-1.146610	-0.399974	0.000080
C22	C	-1.157455	-0.506116	0.000073
N23	N	-1.123831	-0.241043	0.265612
C24	C	-1.100362	0.248421	0.000086
C25	C	-1.177276	0.299551	0.000090
C26	C	-1.166245	0.407688	0.000080
C27	C	-1.111391	0.140275	0.000095
N28	N	-1.153817	-0.210984	-0.265428
C29	C	-1.112065	-0.252851	0.474653
C30	C	-1.165580	-0.199179	0.525538
C31	C	-1.159034	-0.205749	0.641855
C32	C	-1.118610	-0.246282	0.358325
H33	H	-0.626945	-0.113431	0.000099
H34	H	-1.251413	0.262115	0.000028
H35	H	-0.650693	-0.338605	0.000077
C36	C	-1.008595	0.397850	0.000086
C37	C	-1.000288	0.298955	0.000085
H38	H	-0.946813	0.429053	0.000095
H39	H	-1.045641	0.419143	-0.059345
H40	H	-1.038951	0.412422	0.059519
H41	H	-0.969938	0.284383	-0.059353
H42	H	-0.963228	0.277654	0.059522
C43	C	-1.050286	-0.314846	0.639219
C44	C	-1.043589	-0.321550	0.533764
H45	H	-1.008018	-0.357264	0.675719
H46	H	-1.033444	-0.251249	0.656738
H47	H	-1.113937	-0.331494	0.656720
H48	H	-0.979939	-0.304895	0.516262
H49	H	-1.060425	-0.385161	0.516238
C50	C	-1.181509	-0.064071	0.405011
C51	C	-1.233944	-0.130280	0.466553
H52	H	-1.223677	-0.021481	0.368628
H53	H	-1.136395	-0.028950	0.446957
H54	H	-1.148908	-0.096881	0.357701
H55	H	-1.266540	-0.097469	0.513869
H56	H	-1.279075	-0.165404	0.424604
