data_functionalizedCrystal
_audit_creation_method	'MofGen! by Chris Wilmer'
_symmetry_space_group_name_H-M	'P1'
_symmetry_Int_Tables_number	1
_symmetry_cell_setting	triclinic
loop_
_symmetry_equiv_pos_as_xyz
  x,y,z
_cell_length_a	27.732048
_cell_length_b	17.699083
_cell_length_c	16.176319
_cell_angle_alpha	90.007696
_cell_angle_beta	90.001929
_cell_angle_gamma	82.962835
loop_
_atom_site_label
_atom_site_type_symbol
_atom_site_fract_x
_atom_site_fract_y
_atom_site_fract_z
O1	O	-0.641253	-0.090060	-0.068642
O2	O	-0.500509	-0.103753	-0.068667
O3	O	-0.574857	0.013318	-0.068646
O4	O	-0.566904	-0.207130	-0.068662
O5	O	-0.574847	0.013325	0.068847
O6	O	-0.500498	-0.103746	0.068826
O7	O	-0.641243	-0.090052	0.068851
Cu8	Cu	-0.570870	-0.096898	0.081393
Cu9	Cu	-0.570882	-0.096907	-0.081209
O10	O	-0.566894	-0.207123	0.068831
C11	C	-0.574567	0.041516	0.000100
C12	C	-0.573712	0.125527	0.000100
C13	C	-0.482496	-0.103462	0.000076
C14	C	-0.428838	-0.102596	0.000067
C15	C	-0.659256	-0.090343	0.000106
C16	C	-0.712914	-0.091209	0.000110
C17	C	-0.090252	-0.166329	0.000098
C18	C	0.111419	-0.163117	0.000106
O19	O	0.142466	-0.221396	0.000137
N20	N	0.130793	-0.093699	0.000109
C21	C	0.099745	-0.025079	0.000116
O22	O	0.120851	0.034039	0.000128
C23	C	-0.101925	-0.028291	0.000115
C24	C	-0.121296	-0.097714	0.000103
C25	C	-0.109623	-0.235746	0.000087
C26	C	-0.160037	-0.236548	0.000081
C27	C	-0.191081	-0.167933	0.000085
C28	C	-0.171710	-0.098516	0.000096
C29	C	-0.132972	0.040329	0.000128
C30	C	-0.183392	0.039519	0.000129
C31	C	-0.202763	-0.029903	0.000117
C32	C	-0.253169	-0.030703	0.000095
N33	N	-0.272543	-0.100121	0.000091
C34	C	-0.241499	-0.168736	0.000086
C35	C	0.205625	-0.023397	0.000116
C36	C	0.256042	-0.022594	0.000115
C37	C	0.267713	-0.160633	0.000106
C38	C	0.217295	-0.161435	0.000101
C39	C	0.186252	-0.092815	0.000112
C40	C	-0.347374	-0.170415	0.000072
C41	C	-0.397794	-0.171211	0.000062
C42	C	-0.409460	-0.033173	0.000076
C43	C	-0.359045	-0.032376	0.000081
C44	C	-0.328002	-0.101004	0.000082
O45	O	-0.284244	0.027545	0.000072
O46	O	-0.262614	-0.227845	0.000093
C47	C	-0.039837	-0.165526	0.000105
C48	C	-0.020466	-0.096109	0.000116
C49	C	-0.051510	-0.027494	0.000120
C50	C	0.029951	-0.095306	0.000115
C51	C	0.060995	-0.163921	0.000110
C52	C	0.041622	-0.233339	0.000106
C53	C	-0.008793	-0.234141	0.000100
C54	C	-0.032137	0.041924	0.000124
C55	C	0.018279	0.042720	0.000129
C56	C	0.049323	-0.025895	0.000125
C57	C	-0.567184	-0.235321	0.000082
C58	C	-0.568039	-0.319332	0.000077
N59	N	-0.570865	-0.096892	0.195758
C60	C	-0.617353	0.174532	0.000109
C61	C	-0.616547	0.253469	0.000102
C62	C	-0.572099	0.283398	0.000091
C63	C	-0.528455	0.234386	0.000080
C64	C	-0.529262	0.155451	0.000081
C65	C	-0.525201	0.552720	0.000073
C66	C	-0.524398	0.631661	0.000074
C67	C	-0.612486	0.650738	0.000093
C68	C	-0.613293	0.571803	0.000095
C69	C	-0.569649	0.522798	0.000079
C70	C	-0.570524	0.437207	0.000085
C71	C	-0.571224	0.368987	0.000091
N72	N	-0.570891	-0.096907	-0.195574
C73	C	-0.603796	-0.045074	0.239031
C74	C	-0.603799	-0.045073	0.325579
C75	C	-0.570872	-0.096894	0.368851
C76	C	-0.537937	-0.148715	0.325571
C77	C	-0.537932	-0.148711	0.239026
C78	C	-0.537953	-0.148729	0.674600
C79	C	-0.537961	-0.148730	0.761151
C80	C	-0.603819	-0.045090	0.761152
C81	C	-0.603815	-0.045087	0.674607
C82	C	-0.570879	-0.096904	0.631335
C83	C	-0.570876	-0.096904	0.537491
C84	C	-0.570876	-0.096899	0.462693
H85	H	-0.413562	-0.227746	0.000052
H86	H	-0.489663	0.512829	0.000060
H87	H	-0.511136	-0.190922	0.639375
H88	H	-0.652084	0.293367	0.000111
H89	H	-0.511124	-0.190906	0.360809
H90	H	-0.057408	0.097800	0.000130
H91	H	-0.648023	0.690647	0.000102
H92	H	-0.492265	0.258760	0.000066
H93	H	-0.653548	0.150171	0.000123
H94	H	-0.493725	0.115551	0.000074
H95	H	0.201528	-0.217965	0.000096
H96	H	-0.511116	-0.190906	0.203794
H97	H	-0.630637	-0.002895	0.796393
H98	H	0.034045	0.099257	0.000132
H99	H	-0.630611	-0.002878	0.203805
H100	H	-0.511146	-0.190930	0.796382
H101	H	-0.208666	0.095399	0.000139
H102	H	-0.488201	0.656025	0.000067
H103	H	-0.322104	-0.226298	0.000076
H104	H	-0.649487	0.547440	0.000107
H105	H	-0.630629	-0.002892	0.639377
H106	H	-0.630613	-0.002878	0.360811
H107	H	-0.343273	0.024153	0.000079
H108	H	-0.175804	-0.293079	0.000071
H109	H	0.292998	-0.216502	0.000102
H110	H	-0.084351	-0.291623	0.000086
H111	H	0.180353	0.032485	0.000125
H112	H	-0.117210	0.096860	0.000138
H113	H	0.271809	0.033937	0.000111
H114	H	-0.024559	-0.290672	0.000091
H115	H	0.066907	-0.289208	0.000099
H116	H	-0.434745	0.022692	0.000076
