data_functionalizedCrystal
_audit_creation_method	'MofGen! by Chris Wilmer'
_symmetry_space_group_name_H-M	'P1'
_symmetry_Int_Tables_number	1
_symmetry_cell_setting	triclinic
loop_
_symmetry_equiv_pos_as_xyz
  x,y,z
_cell_length_a	13.635800
_cell_length_b	10.992410
_cell_length_c	10.912902
_cell_angle_alpha	76.516993
_cell_angle_beta	72.504697
_cell_angle_gamma	71.235349
loop_
_atom_site_label
_atom_site_type_symbol
_atom_site_fract_x
_atom_site_fract_y
_atom_site_fract_z
V1	V	1.968259	-0.400582	0.177763
O2	O	2.040458	-0.392968	-0.008542
O3	O	1.869710	-0.397831	0.352473
O4	O	1.958422	-0.575295	0.175028
O5	O	1.951131	-0.214276	0.170131
V6	V	2.217846	-0.378300	0.155478
O7	O	2.081723	-0.449460	0.226645
O8	O	2.329481	-0.329421	0.106596
O9	O	2.204793	-0.381050	-0.019232
O10	O	2.204346	-0.385913	0.341783
O11	O	2.293672	-0.564605	0.163110
O12	O	2.116080	-0.203587	0.158213
V13	V	2.468259	-0.400582	0.177763
O14	O	2.540458	-0.392968	-0.008542
O15	O	2.369710	-0.397831	0.352473
O16	O	2.458422	-0.575295	0.175028
O17	O	2.451131	-0.214276	0.170131
V18	V	2.717846	-0.378300	0.155478
O19	O	2.581723	-0.449460	0.226645
O20	O	2.829481	-0.329421	0.106596
O21	O	2.704793	-0.381050	-0.019232
O22	O	2.704346	-0.385913	0.341783
O23	O	2.793672	-0.564605	0.163110
O24	O	2.616080	-0.203587	0.158213
C25	C	1.886820	-0.617879	0.168714
C26	C	1.918927	-0.760708	0.167634
C27	C	1.857406	-0.955832	0.157797
C28	C	1.823803	-0.807348	0.159452
C29	C	1.954606	-0.837804	0.294316
C30	C	1.987323	-0.986371	0.293195
C31	C	2.048834	-0.948354	0.047894
C32	C	2.013779	-0.799341	0.047293
C33	C	1.773658	-0.391509	0.395064
C34	C	1.733821	-0.390424	0.537892
C35	C	2.132512	-0.387369	-0.061816
C36	C	2.161968	-0.388462	-0.204643
C37	C	2.019351	-0.160995	0.164532
C38	C	1.976866	-0.018165	0.165605
C39	C	2.273658	-0.391509	0.395064
C40	C	2.233821	-0.390424	0.537892
C41	C	2.386820	-0.617879	0.168714
C42	C	2.418927	-0.760708	0.167634
C43	C	2.284316	-0.396136	0.748833
C44	C	2.325918	-0.397761	0.600354
C45	C	2.187752	-0.509425	0.607105
C46	C	2.146997	-0.508444	0.755778
C47	C	2.100446	-0.262824	0.717504
C48	C	2.143630	-0.262474	0.568782
C49	C	2.632512	-0.387369	-0.061816
C50	C	2.661968	-0.388462	-0.204643
C51	C	2.519351	-0.160995	0.164532
C52	C	2.476866	-0.018165	0.165605
C53	C	1.570027	-0.381645	0.733182
C54	C	1.611295	-0.382264	0.584536
C55	C	1.749811	-0.270610	0.576528
C56	C	1.707671	-0.269346	0.725073
C57	C	1.754136	-0.514964	0.763655
C58	C	1.793853	-0.517558	0.615140
C59	C	2.357406	-0.955832	0.157797
C60	C	2.323803	-0.807348	0.159452
C61	C	2.454606	-0.837804	0.294316
C62	C	2.487323	-0.986371	0.293195
C63	C	2.548834	-0.948354	0.047894
C64	C	2.513779	-0.799341	0.047293
H65	H	1.795112	-0.754014	0.068363
F66	F	1.623815	-0.145004	0.747970
H67	H	2.344654	-0.974667	0.066081
H68	H	2.387060	-0.812193	0.383663
H69	H	1.706631	-0.176489	0.522290
F70	F	1.840770	-0.980278	0.037818
H71	H	2.085579	-0.766830	0.045806
F72	F	1.590790	-0.494159	0.550854
F73	F	2.162798	-1.001738	0.053907
F74	F	2.286273	-0.737633	0.040410
H75	H	2.636024	-0.989195	0.052498
F76	F	1.785841	-1.018547	0.268346
F77	F	1.717642	-0.633468	0.828384
F78	F	2.271318	-0.633184	0.580721
F79	F	1.918916	-1.046846	0.409692
F80	F	2.346197	-0.514605	0.819598
H81	H	1.781299	-0.606202	0.591244
F82	F	1.984141	-0.253930	0.755662
H83	H	1.883845	-0.530938	0.584932
H84	H	1.752346	-0.782528	0.245203
F85	F	1.480915	-0.262438	0.760053
F86	F	1.844813	-0.523168	0.817384
H87	H	2.072817	-1.029001	0.304211
H88	H	2.361944	-0.312705	0.553204
H89	H	2.024514	-0.809000	0.304877
H90	H	2.252346	-0.782528	0.245203
F91	F	1.866321	-0.804330	0.411102
F92	F	2.185740	-0.147303	0.507888
F93	F	1.864743	-0.272408	0.537008
F94	F	2.305471	-0.284232	0.781616
F95	F	1.548395	-0.262954	0.515983
H96	H	2.572817	-1.029001	0.304211
F97	F	2.044437	-0.974975	-0.077846
F98	F	2.607627	-0.756837	0.045339
H99	H	2.302657	-1.003819	0.242373
H100	H	1.533909	-0.466729	0.779603
F101	F	2.109607	-0.143580	0.750773
H102	H	2.434986	-1.032635	0.382324
H103	H	2.524514	-0.809000	0.304877
H104	H	2.545467	-0.968719	-0.048305
H105	H	2.489000	-0.746989	-0.046420
H106	H	1.989000	-0.746989	-0.046420
H107	H	2.393865	-0.489581	0.581708
F108	F	2.032341	-0.508000	0.796341
F109	F	2.205565	-0.632110	0.823517
F110	F	2.098582	-0.508321	0.554254
F111	F	2.053058	-0.245744	0.511230
F112	F	1.796114	-0.269103	0.778515
