data_functionalizedCrystal
_audit_creation_method	'MofGen! by Chris Wilmer'
_symmetry_space_group_name_H-M	'P1'
_symmetry_Int_Tables_number	1
_symmetry_cell_setting	triclinic
loop_
_symmetry_equiv_pos_as_xyz
  x,y,z
_cell_length_a	10.967926
_cell_length_b	17.000383
_cell_length_c	10.065908
_cell_angle_alpha	98.090266
_cell_angle_beta	93.119940
_cell_angle_gamma	80.258927
loop_
_atom_site_label
_atom_site_type_symbol
_atom_site_fract_x
_atom_site_fract_y
_atom_site_fract_z
O1	O	1.598261	0.138365	0.262412
O2	O	1.247978	0.140630	0.180025
O3	O	1.444867	0.024278	0.226339
O4	O	1.401372	0.254717	0.216098
O5	O	1.407311	0.046559	0.444493
O6	O	1.210422	0.162911	0.398179
O7	O	1.560705	0.160646	0.480566
Zn8	Zn	1.379601	0.165316	0.474010
Zn9	Zn	1.429082	0.135960	0.186582
O10	O	1.363816	0.276998	0.434253
C11	C	1.184602	0.149922	0.278613
C12	C	1.051715	0.144405	0.247358
C13	C	0.973015	0.153488	0.346433
C14	C	0.835669	0.147786	0.314132
C15	C	1.428425	0.005834	0.335964
C16	C	1.435372	-0.082319	0.337593
C17	C	1.480227	-0.581204	0.348138
C18	C	1.473689	-0.498374	0.346608
C19	C	1.360238	-0.450750	0.319918
C20	C	1.253315	-0.485958	0.294769
C21	C	1.259853	-0.568785	0.296308
C22	C	1.334986	-0.200354	0.313983
C23	C	1.328458	-0.117521	0.312442
C24	C	1.548832	-0.129944	0.364284
C25	C	1.555361	-0.212773	0.365813
C26	C	1.448437	-0.247973	0.340671
C27	C	1.353554	-0.366085	0.318350
C28	C	1.455121	-0.332635	0.342248
C29	C	1.624081	0.151353	0.381976
C30	C	1.756969	0.156870	0.413222
C31	C	1.380258	0.295442	0.324625
C32	C	1.373313	0.383593	0.322987
N33	N	1.345839	0.185351	0.670174
C34	C	1.417324	0.142928	0.754768
C35	C	1.391349	0.158354	0.905825
N36	N	1.462844	0.115925	0.990418
H37	H	0.801373	0.135785	0.205389
H38	H	1.007319	0.165480	0.455170
H39	H	0.791265	0.168865	0.521966
H40	H	1.497751	0.095185	0.715362
Br41	Br	0.994559	0.124398	0.066117
Br42	Br	1.257273	0.237923	0.971483
H43	H	1.572613	-0.619976	0.369861
H44	H	1.560750	-0.469716	0.367091
H45	H	1.236067	-0.078747	0.290710
Br46	Br	1.709336	-0.277401	0.402037
H47	H	1.635885	-0.101276	0.384743
Br48	Br	1.189877	-0.248116	0.279851
H49	H	1.543276	0.068178	0.951017
H50	H	1.160940	-0.447174	0.273045
Br51	Br	1.114747	-0.616560	0.262187
H52	H	1.547491	-0.371414	0.363986
H53	H	1.265405	0.233088	0.709579
H54	H	1.261182	-0.327301	0.296614
