data_functionalizedCrystal
_audit_creation_method	'MofGen! by Chris Wilmer'
_symmetry_space_group_name_H-M	'P1'
_symmetry_Int_Tables_number	1
_symmetry_cell_setting	triclinic
loop_
_symmetry_equiv_pos_as_xyz
  x,y,z
_cell_length_a	19.805407
_cell_length_b	19.805405
_cell_length_c	19.805399
_cell_angle_alpha	90.030709
_cell_angle_beta	90.016510
_cell_angle_gamma	90.022560
loop_
_atom_site_label
_atom_site_type_symbol
_atom_site_fract_x
_atom_site_fract_y
_atom_site_fract_z
Zn1	Zn	-1.034718	0.269539	-0.382705
Zn2	Zn	-0.701384	0.602872	-0.049371
Zn3	Zn	-0.368051	0.936206	0.283962
Zn4	Zn	-1.034638	0.382730	-0.269513
Zn5	Zn	-0.701305	0.716063	0.063820
Zn6	Zn	-0.367971	1.049397	0.397154
Zn7	Zn	-0.921538	0.269553	-0.269530
Zn8	Zn	-0.588204	0.602886	0.063803
Zn9	Zn	-0.254871	0.936220	0.397137
Zn10	Zn	-0.921496	0.382684	-0.382661
Zn11	Zn	-0.588163	0.716017	-0.049327
Zn12	Zn	-0.254829	1.049350	0.284006
O13	O	-0.978097	0.326126	-0.326102
O14	O	-0.644764	0.659460	0.007231
O15	O	-0.311431	0.992793	0.340565
O16	O	-1.129424	0.284568	-0.367701
O17	O	-0.796090	0.617901	-0.034368
O18	O	-0.462757	0.951234	0.298966
O19	O	-1.019619	0.367742	-0.174799
O20	O	-0.686286	0.701075	0.158535
O21	O	-0.352952	1.034409	0.491868
O22	O	-0.936602	0.174834	-0.284569
O23	O	-0.603269	0.508168	0.048765
O24	O	-0.269935	0.841501	0.382098
O25	O	-1.129365	0.367729	-0.284540
O26	O	-0.796032	0.701062	0.048794
O27	O	-0.462698	1.034395	0.382127
O28	O	-1.019755	0.174824	-0.367717
O29	O	-0.686422	0.508158	-0.034384
O30	O	-0.353088	0.841491	0.298949
O31	O	-0.936525	0.284591	-0.174811
O32	O	-0.603191	0.617925	0.158522
O33	O	-0.269858	0.951258	0.491855
O34	O	-0.826816	0.284546	-0.284526
O35	O	-0.493482	0.617880	0.048808
O36	O	-0.160149	0.951213	0.382141
O37	O	-0.936531	0.367650	-0.477383
O38	O	-0.603198	0.700983	-0.144050
O39	O	-0.269864	1.034316	0.189284
O40	O	-0.826785	0.367663	-0.367642
O41	O	-0.493452	0.700996	-0.034309
O42	O	-0.160118	1.034330	0.299024
O43	O	-1.019715	0.284523	-0.477415
O44	O	-0.686381	0.617856	-0.144082
O45	O	-0.353048	0.951189	0.189251
O46	O	-1.019578	0.477441	-0.284497
O47	O	-0.686245	0.810774	0.048837
O48	O	-0.352912	1.144107	0.382170
O49	O	-0.936453	0.477407	-0.367626
O50	O	-0.603120	0.810740	-0.034292
O51	O	-0.269787	1.144073	0.299041
C52	C	-0.802241	0.326102	-0.326081
C53	C	-0.468908	0.659435	0.007252
C54	C	-0.135575	0.992768	0.340585
C55	C	-0.727009	0.326107	-0.326089
C56	C	-0.393676	0.659441	0.007245
C57	C	-0.060343	0.992774	0.340578
C58	C	-0.691696	0.282881	-0.369456
C59	C	-0.358363	0.616215	-0.036122
C60	C	-0.025030	0.949548	0.297211
C61	C	-0.621008	0.282883	-0.369457
C62	C	-0.287675	0.616217	-0.036123
C63	C	0.045659	0.949550	0.297210
C64	C	-0.585634	0.326116	-0.326093
C65	C	-0.252300	0.659449	0.007240
C66	C	0.081033	0.992782	0.340573
C67	C	-0.620952	0.369344	-0.282721
C68	C	-0.287618	0.702677	0.050612
C69	C	0.045715	1.036010	0.383945
C70	C	-0.691639	0.369337	-0.282718
C71	C	-0.358305	0.702671	0.050616
C72	C	-0.024972	1.036004	0.383949
C73	C	-0.335878	0.369368	-0.282735
C74	C	-0.002545	0.702701	0.050598
C75	C	0.330788	1.036035	0.383931
C76	C	-0.265186	0.369372	-0.282744
C77	C	0.068147	0.702706	0.050590
C78	C	0.401480	1.036039	0.383923
C79	C	-0.265247	0.282914	-0.369474
C80	C	0.068086	0.616247	-0.036141
C81	C	0.401419	0.949581	0.297192
C82	C	-0.335935	0.282908	-0.369470
C83	C	-0.002601	0.616241	-0.036137
C84	C	0.330732	0.949575	0.297196
C85	C	-0.371246	0.326133	-0.326096
C86	C	-0.037913	0.659467	0.007237
C87	C	0.295420	0.992800	0.340570
C88	C	-0.447895	0.326129	-0.326095
C89	C	-0.114561	0.659463	0.007238
C90	C	0.218772	0.992796	0.340572
C91	C	-0.508987	0.326123	-0.326098
C92	C	-0.175653	0.659456	0.007236
C93	C	0.157680	0.992790	0.340569
C94	C	-0.978021	0.501983	-0.326069
C95	C	-0.644688	0.835316	0.007264
C96	C	-0.311354	1.168649	0.340597
C97	C	-0.978050	0.577214	-0.326078
C98	C	-0.644717	0.910548	0.007255
C99	C	-0.311384	1.243881	0.340589
C100	C	-0.154640	0.326147	-0.326117
C101	C	0.178693	0.659480	0.007216
C102	C	0.512027	0.992813	0.340549
C103	C	-0.229872	0.326142	-0.326108
C104	C	0.103461	0.659476	0.007225
C105	C	0.436795	0.992809	0.340559
C106	C	-0.978127	0.326079	-0.502645
C107	C	-0.644794	0.659413	-0.169312
C108	C	-0.311460	0.992746	0.164022
C109	C	-0.978140	0.326059	-0.577877
C110	C	-0.644806	0.659393	-0.244544
C111	C	-0.311473	0.992726	0.088790
C112	C	-0.978192	0.149584	-0.326150
C113	C	-0.644859	0.482917	0.007184
C114	C	-0.311525	0.816250	0.340517
C115	C	-0.978233	0.074352	-0.326170
C116	C	-0.644899	0.407685	0.007163
C117	C	-0.311566	0.741018	0.340497
C118	C	-1.021376	0.612554	-0.282838
C119	C	-0.688042	0.945887	0.050495
C120	C	-0.354709	1.279221	0.383829
C121	C	-1.021404	0.683242	-0.282853
C122	C	-0.688071	1.016576	0.050480
C123	C	-0.354738	1.349909	0.383814
C124	C	-0.978104	0.718590	-0.326105
C125	C	-0.644771	1.051923	0.007228
C126	C	-0.311437	1.385257	0.340562
C127	C	-0.934777	0.683246	-0.369350
C128	C	-0.601444	1.016579	-0.036016
C129	C	-0.268110	1.349912	0.297317
C130	C	-0.934752	0.612559	-0.369338
C131	C	-0.601419	0.945892	-0.036004
C132	C	-0.268085	1.279225	0.297329
C133	C	-0.934877	0.968319	-0.369400
C134	C	-0.601543	1.301652	-0.036067
C135	C	-0.268210	1.634986	0.297267
C136	C	-0.934903	1.039011	-0.369407
C137	C	-0.601570	1.372344	-0.036074
C138	C	-0.268237	1.705678	0.297260
C139	C	-1.021529	1.039003	-0.282915
C140	C	-0.688196	1.372336	0.050418
C141	C	-0.354862	1.705669	0.383751
C142	C	-1.021504	0.968316	-0.282903
C143	C	-0.688171	1.301649	0.050430
C144	C	-0.354838	1.634982	0.383763
C145	C	-0.978180	0.932977	-0.326150
C146	C	-0.644847	1.266311	0.007183
C147	C	-0.311513	1.599644	0.340517
C148	C	-0.978150	0.856329	-0.326134
C149	C	-0.644817	1.189662	0.007199
C150	C	-0.311484	1.522996	0.340532
C151	C	-0.978130	0.795237	-0.326118
C152	C	-0.644797	1.128570	0.007215
C153	C	-0.311463	1.461904	0.340549
C154	C	-0.934885	0.282759	-0.613227
C155	C	-0.601551	0.616092	-0.279894
C156	C	-0.268218	0.949425	0.053440
C157	C	-0.934894	0.282746	-0.683916
C158	C	-0.601561	0.616079	-0.350582
C159	C	-0.268227	0.949412	-0.017249
C160	C	-0.978162	0.326030	-0.719253
C161	C	-0.644829	0.659364	-0.385919
C162	C	-0.311495	0.992697	-0.052586
C163	C	-1.021419	0.369336	-0.683898
C164	C	-0.688086	0.702669	-0.350564
C165	C	-0.354752	1.036002	-0.017231
C166	C	-1.021406	0.369352	-0.613210
C167	C	-0.688072	0.702685	-0.279877
C168	C	-0.354739	1.036018	0.053456
C169	C	-1.021473	0.369272	-0.968971
C170	C	-0.688139	0.702606	-0.635638
C171	C	-0.354806	1.035939	-0.302304
C172	C	-1.021484	0.369252	-1.039663
C173	C	-0.688151	0.702585	-0.706330
C174	C	-0.354817	1.035918	-0.372996
C175	C	-0.934961	0.282666	-1.039676
C176	C	-0.601628	0.616000	-0.706343
C177	C	-0.268294	0.949333	-0.373010
C178	C	-0.934948	0.282682	-0.968989
C179	C	-0.601614	0.616016	-0.635656
C180	C	-0.268281	0.949349	-0.302322
C181	C	-0.978202	0.325990	-0.933640
C182	C	-0.644868	0.659323	-0.600307
C183	C	-0.311535	0.992657	-0.266973
C184	C	-0.978190	0.326005	-0.856992
C185	C	-0.644857	0.659338	-0.523658
C186	C	-0.311523	0.992671	-0.190325
C187	C	-0.978178	0.326013	-0.795900
C188	C	-0.644844	0.659346	-0.462566
C189	C	-0.311511	0.992679	-0.129233
C190	C	-0.978107	0.326124	-0.150246
C191	C	-0.644773	0.659458	0.183087
C192	C	-0.311440	0.992791	0.516421
C193	C	-0.978225	0.325954	-0.075015
C194	C	-0.644892	0.659287	0.258319
C195	C	-0.311558	0.992620	0.591652
H196	H	-0.364621	0.404565	-0.247418
H197	H	-0.031287	0.737899	0.085915
H198	H	0.302046	1.071232	0.419249
C199	C	-1.069061	0.722112	-0.235281
C200	C	-0.735728	1.055446	0.098052
C201	C	-0.402395	1.388779	0.431385
N202	N	-1.104958	0.751389	-0.199447
N203	N	-0.771624	1.084722	0.133886
N204	N	-0.438291	1.418056	0.467220
C205	C	-0.374842	0.235347	-0.417171
C206	C	-0.041509	0.568680	-0.083838
C207	C	0.291824	0.902014	0.249496
N208	N	-0.404146	0.199520	-0.453097
N209	N	-0.070813	0.532853	-0.119764
N210	N	0.262520	0.866187	0.213570
C211	C	-1.069190	1.077881	-0.235345
C212	C	-0.735857	1.411214	0.097988
C213	C	-0.402524	1.744548	0.431321
N214	N	-1.105086	1.107163	-0.199515
N215	N	-0.771753	1.440496	0.133818
N216	N	-0.438420	1.773830	0.467151
H217	H	-1.056720	0.404502	-1.068433
H218	H	-0.723386	0.737835	-0.735099
H219	H	-0.390053	1.071168	-0.401766
H220	H	-0.899644	1.067789	-0.404633
H221	H	-0.566311	1.401123	-0.071300
H222	H	-0.232977	1.734456	0.262033
H223	H	-0.899669	0.247488	-0.712695
H224	H	-0.566336	0.580822	-0.379361
H225	H	-0.233002	0.914155	-0.046028
C226	C	-0.887349	0.235067	-0.930122
C227	C	-0.554016	0.568400	-0.596789
C228	C	-0.220682	0.901733	-0.263456
N229	N	-0.851494	0.199204	-0.900849
N230	N	-0.518161	0.532537	-0.567515
N231	N	-0.184827	0.865870	-0.234182
H232	H	-0.236386	0.404579	-0.247430
H233	H	0.096947	0.737912	0.085904
H234	H	0.430280	1.071245	0.419237
H235	H	-0.899740	0.247405	-1.068466
H236	H	-0.566406	0.580738	-0.735132
H237	H	-0.233073	0.914072	-0.401799
C238	C	-0.887253	0.929456	-0.417007
C239	C	-0.553920	1.262789	-0.083674
C240	C	-0.220587	1.596123	0.249659
N241	N	-0.851394	0.900182	-0.452881
N242	N	-0.518060	1.233515	-0.119547
N243	N	-0.184727	1.566849	0.213786
H244	H	-0.899655	0.247507	-0.584461
H245	H	-0.566321	0.580841	-0.251127
H246	H	-0.232988	0.914174	0.082206
C247	C	-1.068861	0.417103	-0.722771
C248	C	-0.735527	0.750436	-0.389437
C249	C	-0.402194	1.083769	-0.056104
N250	N	-1.104541	0.453135	-0.752049
N251	N	-0.771208	0.786468	-0.418716
N252	N	-0.437874	1.119802	-0.085382
C253	C	-1.068992	0.416983	-0.574326
C254	C	-0.735659	0.750316	-0.240992
C255	C	-0.402326	1.083650	0.092341
N256	N	-1.104836	0.452861	-0.545038
N257	N	-0.771502	0.786194	-0.211705
N258	N	-0.438169	1.119528	0.121628
H259	H	-0.720493	0.247678	-0.404769
H260	H	-0.387160	0.581012	-0.071436
H261	H	-0.053826	0.914345	0.261898
C262	C	-0.582037	0.416898	-0.235020
C263	C	-0.248704	0.750232	0.098313
C264	C	0.084629	1.083565	0.431646
N265	N	-0.552728	0.452720	-0.199092
N266	N	-0.219395	0.786053	0.134241
N267	N	0.113939	1.119386	0.467574
C268	C	-0.730483	0.416891	-0.235012
C269	C	-0.397149	0.750224	0.098322
C270	C	-0.063816	1.083558	0.431655
N271	N	-0.759739	0.452709	-0.199077
N272	N	-0.426406	0.786042	0.134256
N273	N	-0.093072	1.119375	0.467590
H274	H	-0.592259	0.247686	-0.404772
H275	H	-0.258926	0.581019	-0.071438
H276	H	0.074408	0.914352	0.261895
C277	C	-1.069091	0.416874	-0.930096
C278	C	-0.735758	0.750208	-0.596763
C279	C	-0.402424	1.083541	-0.263430
N280	N	-1.104973	0.452717	-0.900814
N281	N	-0.771640	0.786051	-0.567480
N282	N	-0.438306	1.119384	-0.234147
H283	H	-0.236488	0.247716	-0.404789
H284	H	0.096845	0.581049	-0.071456
H285	H	0.430179	0.914382	0.261877
C286	C	-1.069009	0.573678	-0.235255
C287	C	-0.735675	0.907011	0.098078
C288	C	-0.402342	1.240345	0.431412
N289	N	-1.104889	0.544398	-0.199416
N290	N	-0.771556	0.877732	0.133918
N291	N	-0.438222	1.211065	0.467251
H292	H	-0.899524	0.712031	-0.404569
H293	H	-0.566191	1.045365	-0.071236
H294	H	-0.232857	1.378698	0.262098
H295	H	-0.899473	0.583786	-0.404549
H296	H	-0.566140	0.917119	-0.071216
H297	H	-0.232807	1.250452	0.262118
C298	C	-1.069132	0.929437	-0.235317
C299	C	-0.735798	1.262770	0.098017
C300	C	-0.402465	1.596104	0.431350
N301	N	-1.105006	0.900155	-0.199473
N302	N	-0.771673	1.233488	0.133860
N303	N	-0.438339	1.566821	0.467193
