data_functionalizedCrystal
_audit_creation_method	'MofGen! by Chris Wilmer'
_symmetry_space_group_name_H-M	'P1'
_symmetry_Int_Tables_number	1
_symmetry_cell_setting	triclinic
loop_
_symmetry_equiv_pos_as_xyz
  x,y,z
_cell_length_a	17.699083
_cell_length_b	19.188930
_cell_length_c	16.176319
_cell_angle_alpha	89.988074
_cell_angle_beta	89.998611
_cell_angle_gamma	83.213899
loop_
_atom_site_label
_atom_site_type_symbol
_atom_site_fract_x
_atom_site_fract_y
_atom_site_fract_z
O1	O	1.003963	0.088294	-0.068640
O2	O	1.503963	0.588294	0.431360
O3	O	0.783569	0.099782	-0.068668
O4	O	1.283569	0.599782	0.431332
O5	O	0.900126	-0.007610	-0.068637
O6	O	1.400126	0.492390	0.431363
O7	O	0.887406	0.195687	-0.068671
O8	O	1.387406	0.695687	0.431329
O9	O	0.900110	-0.007617	0.068856
O10	O	1.400110	0.492383	0.568856
O11	O	0.783553	0.099775	0.068825
O12	O	1.283553	0.599775	0.568825
O13	O	1.003947	0.088288	0.068853
O14	O	1.503947	0.588288	0.568853
Cu15	Cu	0.893748	0.094031	0.081393
Cu16	Cu	1.393748	0.594031	0.581393
Cu17	Cu	0.893767	0.094039	-0.081208
Cu18	Cu	1.393767	0.594039	0.418792
O19	O	0.887390	0.195680	0.068822
O20	O	1.387390	0.695680	0.568822
C21	C	0.755365	0.099367	0.000075
C22	C	1.255365	0.599367	0.500075
C23	C	0.671348	0.098132	0.000065
C24	C	1.171348	0.598132	0.500065
C25	C	0.622644	0.161169	0.000055
C26	C	1.122644	0.661169	0.500055
C27	C	0.543702	0.160004	0.000065
C28	C	1.043702	0.660004	0.500065
C29	C	0.513466	0.095802	0.000081
C30	C	1.013466	0.595802	0.500081
C31	C	0.562176	0.032761	0.000093
C32	C	1.062176	0.532761	0.500093
C33	C	0.641117	0.033926	0.000088
C34	C	1.141117	0.533926	0.500088
C35	C	0.243819	0.028060	0.000115
C36	C	0.743819	0.528060	0.500115
C37	C	0.164873	0.026900	0.000117
C38	C	0.664873	0.526900	0.500117
C39	C	0.146405	0.154139	0.000092
C40	C	0.646405	0.654139	0.500092
C41	C	0.225345	0.155304	0.000087
C42	C	0.725345	0.655304	0.500087
C43	C	0.274049	0.092263	0.000104
C44	C	0.774049	0.592263	0.500104
C45	C	0.359646	0.093526	0.000094
C46	C	0.859646	0.593526	0.500094
C47	C	0.427870	0.094538	0.000085
C48	C	0.927870	0.594538	0.500085
C49	C	0.899706	-0.033625	0.000112
C50	C	1.399706	0.466375	0.500112
C51	C	0.898469	-0.111131	0.000119
C52	C	1.398469	0.388869	0.500119
C53	C	0.966861	-0.155978	0.000131
C54	C	1.466861	0.344022	0.500131
C55	C	0.965699	-0.228804	0.000118
C56	C	1.465699	0.271196	0.500118
C57	C	0.896142	-0.256778	0.000108
C58	C	1.396142	0.243222	0.500108
C59	C	0.827741	-0.211921	0.000091
C60	C	1.327741	0.288079	0.500091
C61	C	0.828905	-0.139098	0.000096
C62	C	1.328905	0.360902	0.500096
N63	N	0.842968	-0.364845	0.046893
N64	N	1.342968	0.135155	0.546893
N65	N	0.841868	-0.434025	0.046890
N66	N	1.341868	0.065975	0.546890
C67	C	0.892632	-0.476191	0.000091
C68	C	1.392632	0.023809	0.500091
N69	N	0.944550	-0.446565	-0.046694
N70	N	1.444550	0.053435	0.453306
N71	N	0.945653	-0.377379	-0.046687
N72	N	1.445653	0.122621	0.453313
C73	C	0.894873	-0.335742	0.000102
C74	C	1.394873	0.164258	0.500102
C75	C	0.959769	-0.600004	0.000088
C76	C	1.459769	-0.100004	0.500088
C77	C	0.958604	-0.672830	0.000070
C78	C	1.458604	-0.172830	0.500070
C79	C	0.820644	-0.655946	0.000051
C80	C	1.320644	-0.155946	0.500051
C81	C	0.821811	-0.583121	0.000061
C82	C	1.321811	-0.083121	0.500061
C83	C	0.891375	-0.555155	0.000084
C84	C	1.391375	-0.055155	0.500084
C85	C	1.032151	0.088703	0.000108
C86	C	1.532151	0.588703	0.500108
C87	C	1.116167	0.089938	0.000113
C88	C	1.616167	0.589938	0.500113
C89	C	0.887810	0.221695	0.000071
C90	C	1.387810	0.721695	0.500071
C91	C	0.889046	0.299201	0.000059
C92	C	1.389046	0.799201	0.500059
N93	N	0.893741	0.094025	0.195758
N94	N	1.393741	0.594025	0.695758
N95	N	0.893781	0.094039	-0.195574
N96	N	1.393781	0.594039	0.304426
C97	C	0.945367	0.046491	0.239036
C98	C	1.445367	0.546491	0.739036
C99	C	0.945371	0.046490	0.325584
C100	C	1.445371	0.546490	0.825584
C101	C	0.893751	0.094027	0.368851
C102	C	1.393751	0.594027	0.868851
C103	C	0.842119	0.141563	0.325567
C104	C	1.342119	0.641563	0.825567
C105	C	0.842112	0.141560	0.239022
C106	C	1.342112	0.641560	0.739022
C107	C	0.842145	0.141576	0.674595
C108	C	1.342145	0.641576	1.174595
C109	C	0.842157	0.141577	0.761147
C110	C	1.342157	0.641577	1.261147
C111	C	0.945404	0.046506	0.761157
C112	C	1.445404	0.546506	1.261157
C113	C	0.945397	0.046503	0.674612
C114	C	1.445397	0.546503	1.174612
C115	C	0.893763	0.094036	0.631335
C116	C	1.393763	0.594036	1.131335
C117	C	0.893758	0.094036	0.537491
C118	C	1.393758	0.594036	1.037491
C119	C	0.893759	0.094031	0.462694
C120	C	1.393759	0.594031	0.962694
H121	H	0.504050	0.211335	0.000056
H122	H	1.004050	0.711335	0.500056
H123	H	0.987446	0.007800	0.796402
H124	H	1.487446	0.507800	1.296402
O125	O	0.257960	0.224550	0.000069
O126	O	0.757960	0.724550	0.500069
H127	H	0.293490	0.228114	0.056104
H128	H	0.793490	0.728114	0.556104
O129	O	0.755136	-0.090720	0.000087
O130	O	1.255136	0.409280	0.500087
H131	H	0.752365	-0.057150	0.056128
H132	H	1.252365	0.442850	0.556128
H133	H	0.106741	0.205470	0.000082
H134	H	0.606741	0.705470	0.500082
H135	H	0.764009	-0.678722	0.000039
H136	H	1.264009	-0.178722	0.500039
O137	O	0.786480	0.192850	0.807822
O138	O	1.286480	0.692850	1.307822
H139	H	0.818237	0.226749	0.847227
H140	H	1.318237	0.726749	1.347227
H141	H	1.016412	-0.577233	0.000103
H142	H	1.516412	-0.077233	0.500103
O143	O	1.032374	-0.721206	0.000080
O144	O	1.532374	-0.221206	0.500080
H145	H	1.035127	-0.754806	0.056112
H146	H	1.535127	-0.254806	0.556112
H147	H	0.800085	0.180266	0.360800
H148	H	1.300085	0.680266	0.860800
O149	O	0.655249	0.230419	0.000037
O150	O	1.155249	0.730419	0.500037
H151	H	0.718324	0.220642	0.000028
H152	H	1.218324	0.720642	0.500028
O153	O	0.752717	-0.242089	0.000081
O154	O	1.252717	0.257911	0.500081
H155	H	0.719856	-0.224068	0.056113
H156	H	1.219856	0.275932	0.556113
H157	H	0.766119	-0.546605	0.000056
H158	H	1.266119	-0.046605	0.500056
O159	O	0.529570	-0.036489	0.000117
O160	O	1.029570	0.463511	0.500117
H161	H	0.494050	-0.040067	-0.055923
H162	H	0.994050	0.459933	0.444077
H163	H	0.987405	0.007784	0.203814
H164	H	1.487405	0.507784	0.703814
H165	H	0.987409	0.007784	0.360820
H166	H	1.487409	0.507784	0.860820
O167	O	1.039470	-0.277183	0.000143
O168	O	1.539470	0.222817	0.500143
H169	H	1.026972	-0.332520	0.000135
H170	H	1.526972	0.167480	0.500135
H171	H	0.140258	-0.025384	0.000131
H172	H	0.640258	0.474616	0.500131
H173	H	0.987433	0.007796	0.639386
H174	H	1.487433	0.507796	1.139386
O175	O	0.786463	0.192848	0.627922
O176	O	1.286463	0.692848	1.127922
H177	H	0.750579	0.225908	0.672552
H178	H	1.250579	0.725908	1.172552
O179	O	0.786430	0.192823	0.192329
O180	O	1.286430	0.692823	0.692329
H181	H	0.795889	0.247246	0.208907
H182	H	1.295889	0.747246	0.708907
O183	O	0.296342	-0.039933	0.000135
O184	O	0.796342	0.460067	0.500135
H185	H	0.285623	-0.070660	-0.055901
H186	H	0.785623	0.429340	0.444099
O187	O	0.693653	-0.034063	0.000097
O188	O	1.193653	0.465937	0.500097
H189	H	0.659368	-0.078903	0.000101
H190	H	1.159368	0.421097	0.500101
H191	H	1.023506	-0.133213	0.000147
H192	H	1.523506	0.366787	0.500147
