data_functionalizedCrystal
_audit_creation_method	'MofGen! by Chris Wilmer'
_symmetry_space_group_name_H-M	'P1'
_symmetry_Int_Tables_number	1
_symmetry_cell_setting	triclinic
loop_
_symmetry_equiv_pos_as_xyz
  x,y,z
_cell_length_a	12.827893
_cell_length_b	12.827892
_cell_length_c	12.827885
_cell_angle_alpha	90.029976
_cell_angle_beta	90.019272
_cell_angle_gamma	90.015362
loop_
_atom_site_label
_atom_site_type_symbol
_atom_site_fract_x
_atom_site_fract_y
_atom_site_fract_z
Zn1	Zn	1.597670	-0.415983	0.590847
Zn2	Zn	1.597564	-0.590761	0.416107
Zn3	Zn	1.422911	-0.416034	0.416121
Zn4	Zn	1.422896	-0.590683	0.590807
O5	O	1.510260	-0.503365	0.503471
O6	O	1.743892	-0.439179	0.567679
O7	O	1.574357	-0.567637	0.269873
O8	O	1.446144	-0.269791	0.439321
O9	O	1.743814	-0.567587	0.439298
O10	O	1.574538	-0.269754	0.567692
O11	O	1.446041	-0.439266	0.269883
O12	O	1.276673	-0.439190	0.439282
O13	O	1.446118	-0.567455	0.737048
O14	O	1.276662	-0.567504	0.567623
O15	O	1.574524	-0.439104	0.737078
O16	O	1.574343	-0.736986	0.439259
O17	O	1.446016	-0.736929	0.567610
C18	C	1.238750	-0.503345	0.503451
C19	C	1.122597	-0.503362	0.503467
C20	C	1.510195	-0.774875	0.503451
C21	C	1.510262	-0.891028	0.503478
C22	C	1.070835	-0.566954	0.566876
C23	C	0.950784	-0.566973	0.566895
C24	C	1.573768	-0.942711	0.567057
C25	C	1.573839	-1.062761	0.567086
C26	C	1.782830	-0.503386	0.503491
C27	C	1.898983	-0.503395	0.503500
C28	C	1.510331	-0.503265	0.776041
C29	C	1.510362	-0.503222	0.892194
C30	C	1.510354	-0.230795	0.503513
C31	C	1.510394	-0.114642	0.503531
C32	C	1.510249	-0.503390	0.231961
C33	C	1.510422	-0.503138	0.115808
C34	C	1.573907	-0.439697	0.943993
C35	C	1.573940	-0.439652	1.064044
H36	H	1.115396	-0.621381	0.621153
O37	O	0.951912	-0.438405	0.438628
C38	C	0.880430	-0.379276	0.379708
H39	H	0.802590	-0.422014	0.375961
H40	H	0.868891	-0.299945	0.418101
C41	C	1.018686	-0.311628	0.273145
C42	C	0.923084	-0.364124	0.268536
H43	H	1.044998	-0.302276	0.204570
H44	H	1.066846	-0.351460	0.312843
H45	H	1.009058	-0.245524	0.305144
H46	H	0.932716	-0.430231	0.236550
H47	H	0.874927	-0.324301	0.228830
O48	O	1.445490	-1.061795	0.438491
C49	C	1.386492	-1.133351	0.379425
H50	H	1.429273	-1.211148	0.375791
H51	H	1.307103	-1.144960	0.417620
C52	C	1.318954	-0.995189	0.272685
C53	C	1.371503	-1.090739	0.268213
H54	H	1.309704	-0.968903	0.204085
H55	H	1.358699	-0.946979	0.312480
H56	H	1.252802	-1.004876	0.304518
H57	H	1.437659	-1.081048	0.236393
H58	H	1.331770	-1.138946	0.228410
O59	O	1.638537	-0.889318	0.631874
C60	C	1.624033	-0.781340	0.617428
H61	H	1.589830	-0.766629	0.536734
H62	H	1.568303	-0.750366	0.679329
C63	C	1.771687	-0.743172	0.726143
C64	C	1.729686	-0.725103	0.627030
H65	H	1.836857	-0.708480	0.732070
H66	H	1.781457	-0.815918	0.735879
H67	H	1.725235	-0.717360	0.777716
H68	H	1.776131	-0.750926	0.575459
H69	H	1.719926	-0.652359	0.617285
O70	O	1.638553	-1.115826	0.632139
C71	C	1.578997	-1.178982	0.699517
H72	H	1.496700	-1.146089	0.705919
H73	H	1.575389	-1.261689	0.667145
C74	C	1.731066	-1.221083	0.800335
C75	C	1.629989	-1.180677	0.808206
H76	H	1.762521	-1.222133	0.867379
H77	H	1.771191	-1.178536	0.754939
H78	H	1.728045	-1.290001	0.773355
H79	H	1.633012	-1.111756	0.835173
H80	H	1.589865	-1.223212	0.853609
O81	O	1.638746	-0.374797	1.117339
C82	C	1.624363	-0.389200	1.225338
H83	H	1.543697	-0.423432	1.240130
H84	H	1.686313	-0.444867	1.256311
C85	C	1.733009	-0.241451	1.263322
C86	C	1.633930	-0.283487	1.281490
H87	H	1.738915	-0.176244	1.297961
H88	H	1.742703	-0.231749	1.190562
H89	H	1.784623	-0.287850	1.289133
H90	H	1.582319	-0.237094	1.255668
H91	H	1.624227	-0.293179	1.354248
O92	O	1.445659	-0.568078	1.062562
C93	C	1.505178	-0.635560	0.999443
H94	H	1.584396	-0.598700	0.983215
H95	H	1.516605	-0.713026	1.041433
C96	C	1.350451	-0.699695	0.915628
C97	C	1.447745	-0.654418	0.895688
H98	H	1.315022	-0.711332	0.851628
H99	H	1.310351	-0.654234	0.958155
H100	H	1.359987	-0.764245	0.950622
H101	H	1.438207	-0.589864	0.860706
H102	H	1.487842	-0.699869	0.853152
H103	H	1.455975	-0.557567	0.936724
H104	H	0.906270	-0.621420	0.621179
H105	H	1.078036	-0.448927	0.449198
H106	H	1.455941	-0.935657	0.449072
H107	H	1.628283	-0.385342	0.899464
