data_functionalizedCrystal
_audit_creation_method	'MofGen! by Chris Wilmer'
_symmetry_space_group_name_H-M	'P1'
_symmetry_Int_Tables_number	1
_symmetry_cell_setting	triclinic
loop_
_symmetry_equiv_pos_as_xyz
  x,y,z
_cell_length_a	14.044220
_cell_length_b	15.186229
_cell_length_c	16.109301
_cell_angle_alpha	90.005167
_cell_angle_beta	91.674821
_cell_angle_gamma	90.001537
loop_
_atom_site_label
_atom_site_type_symbol
_atom_site_fract_x
_atom_site_fract_y
_atom_site_fract_z
O1	O	1.257643	-0.073140	-0.200436
O2	O	0.981676	-0.073163	-0.193203
O3	O	1.127241	-0.073142	-0.076352
O4	O	1.112079	-0.073161	-0.317286
O5	O	1.127231	0.073315	-0.076350
O6	O	0.981667	0.073295	-0.193200
O7	O	1.257634	0.073317	-0.200433
Zn8	Zn	1.119649	0.096559	-0.196816
Zn9	Zn	1.119661	-0.096405	-0.196820
O10	O	1.112069	0.073296	-0.317284
C11	C	0.946358	0.000063	-0.190036
C12	C	0.841135	0.000055	-0.180592
N13	N	1.119647	0.228252	-0.196814
N14	N	1.119671	-0.228097	-0.196816
C15	C	0.648479	0.000074	-0.163326
C16	C	0.590825	0.000072	-0.230306
C17	C	0.483625	0.000083	-0.220699
C18	C	0.755690	0.000064	-0.172932
C19	C	1.292952	0.000089	-0.203600
C20	C	1.398175	0.000091	-0.213044
C21	C	1.126622	0.000087	-0.045330
C22	C	1.124781	0.000088	0.047102
C23	C	1.184125	0.453984	-0.145093
C24	C	1.184128	0.546173	-0.145092
C25	C	1.055186	0.546164	-0.248539
C26	C	1.055179	0.453976	-0.248536
C27	C	1.119654	0.407888	-0.196814
C28	C	1.119664	0.592266	-0.196816
C29	C	1.119666	0.692222	-0.196814
C30	C	1.119650	0.307926	-0.196814
C31	C	1.112688	0.000065	-0.348306
C32	C	1.114529	0.000058	-0.440738
C33	C	1.206874	0.000081	0.263266
C34	C	1.205137	0.000073	0.350116
C35	C	1.032429	0.000063	0.343091
C36	C	1.034168	0.000064	0.256243
C37	C	1.121393	0.000078	0.216333
C38	C	1.117917	0.000069	0.390031
C39	C	1.116032	0.000061	0.484197
C40	C	1.123278	0.000084	0.122161
H41	H	0.621976	0.000063	-0.294863
O42	O	0.947680	-0.000099	0.381825
C43	C	0.895564	-0.075943	0.358445
H44	H	0.946568	-0.128956	0.336621
H45	H	0.842728	-0.058797	0.305846
C46	C	0.778465	-0.045227	0.460247
C47	C	0.841110	-0.110342	0.433448
H48	H	0.744871	-0.066444	0.506510
H49	H	0.813574	0.005872	0.475996
H50	H	0.734444	-0.030945	0.416407
H51	H	0.885137	-0.124615	0.477284
H52	H	0.806007	-0.161444	0.417707
O53	O	0.992680	0.409098	-0.298828
C54	C	1.043422	0.355780	-0.353919
H55	H	1.117599	0.341972	-0.326340
H56	H	1.049845	0.391299	-0.415847
C57	C	0.898870	0.285168	-0.401569
C58	C	0.989972	0.268203	-0.367692
H59	H	0.865898	0.231148	-0.410068
H60	H	0.864683	0.321091	-0.364456
H61	H	0.904234	0.314769	-0.453172
H62	H	0.984606	0.238613	-0.316085
H63	H	1.024157	0.232272	-0.404797
O64	O	0.611167	0.000039	-0.086374
C65	C	0.510887	0.000068	-0.093795
H66	H	0.487770	-0.027656	-0.156987
H67	H	0.483362	0.070333	-0.087758
C68	C	0.498148	-0.023315	0.052923
C69	C	0.469755	-0.057374	-0.024689
H70	H	0.472775	-0.058744	0.095552
H71	H	0.565709	-0.023331	0.057923
H72	H	0.475209	0.035238	0.057941
H73	H	0.492705	-0.115921	-0.029710
H74	H	0.402197	-0.057369	-0.029689
H75	H	1.236623	0.416461	-0.102977
H76	H	0.964554	0.000059	0.218029
O77	O	1.246796	0.591047	-0.094968
C78	C	1.305272	0.644350	-0.143860
H79	H	1.267499	0.658157	-0.206098
H80	H	1.375317	0.608819	-0.154740
C81	C	1.371944	0.714965	-0.022054
C82	C	1.325548	0.731929	-0.098494
H83	H	1.384455	0.768986	0.005931
H84	H	1.332551	0.679051	0.010886
H85	H	1.430310	0.685353	-0.031132
H86	H	1.267178	0.761530	-0.089415
H87	H	1.364932	0.767850	-0.131431
H88	H	1.002693	0.583698	-0.290651
H89	H	1.277898	0.000090	0.230774
H90	H	1.274744	0.000074	0.388326
