data_functionalizedCrystal
_audit_creation_method	'MofGen! by Chris Wilmer'
_symmetry_space_group_name_H-M	'P1'
_symmetry_Int_Tables_number	1
_symmetry_cell_setting	triclinic
loop_
_symmetry_equiv_pos_as_xyz
  x,y,z
_cell_length_a	26.455835
_cell_length_b	26.455273
_cell_length_c	26.451828
_cell_angle_alpha	60.005170
_cell_angle_beta	60.010757
_cell_angle_gamma	59.993435
loop_
_atom_site_label
_atom_site_type_symbol
_atom_site_fract_x
_atom_site_fract_y
_atom_site_fract_z
O1	O	0.069940	-0.738516	0.617604
O2	O	0.026299	-0.574986	0.497618
O3	O	0.129847	-0.678463	0.497546
O4	O	-0.033607	-0.635040	0.617676
O5	O	0.164197	-0.644116	0.531822
O6	O	0.060649	-0.540639	0.531894
O7	O	0.104290	-0.704170	0.651880
Cu8	Cu	0.085606	-0.619268	0.595016
Cu9	Cu	0.044984	-0.659887	0.554481
O10	O	0.000742	-0.600693	0.651952
N11	N	0.114179	-0.590703	0.623530
N12	N	0.016416	-0.688458	0.525968
C13	C	0.157553	-0.547535	0.933368
C14	C	0.424104	-0.547506	0.666656
C15	C	0.157413	-0.547503	0.666729
C16	C	0.157397	-0.280846	0.666749
C17	C	0.200330	-0.409550	0.709625
C18	C	0.200339	-0.504608	0.709615
C19	C	0.224118	-0.480848	0.733375
C20	C	0.327800	-0.462984	0.678792
C21	C	0.392611	-0.484588	0.657175
C22	C	0.392630	-0.589450	0.697162
C23	C	0.327821	-0.567844	0.718781
C24	C	0.215955	-0.377135	0.645910
C25	C	0.194327	-0.312320	0.624323
C26	C	0.141457	-0.312339	0.730169
C27	C	0.163084	-0.377154	0.751756
C28	C	0.136618	-0.488954	0.725292
C29	C	0.115007	-0.510553	0.703686
C30	C	0.220833	-0.563461	0.650740
C31	C	0.242447	-0.541861	0.672339
C32	C	0.136680	-0.488971	0.837094
C33	C	0.115112	-0.510589	0.901907
C34	C	0.220969	-0.563508	0.901868
C35	C	0.242535	-0.541892	0.837053
C36	C	0.200389	-0.504622	0.804668
C37	C	0.295409	-0.504610	0.709593
C38	C	0.132990	-0.570876	1.004655
C39	C	0.495389	-0.570440	0.642547
C40	C	0.132802	-0.570856	0.643399
C41	C	0.133212	-0.209553	0.643833
C42	C	-0.097217	-0.706972	0.506986
C43	C	-0.002040	-0.707108	0.412067
C44	C	-0.002230	-0.802124	0.507163
C45	C	-0.002214	-0.707101	0.507221
C46	C	-0.025925	-0.730827	0.483360
N47	N	0.553723	-0.590712	0.623415
O48	O	0.751638	-0.596429	0.475603
O49	O	0.751819	-0.716773	0.638980
O50	O	0.751753	-0.716500	0.535361
O51	O	0.751705	-0.596703	0.579222
O52	O	0.648791	-0.682239	0.569747
O53	O	0.648858	-0.682512	0.673366
O54	O	0.648676	-0.562169	0.509989
Cu55	Cu	0.639366	-0.619212	0.594817
Cu56	Cu	0.761130	-0.659729	0.554152
O57	O	0.648743	-0.562442	0.613609
N58	N	0.846773	-0.688230	0.525548
N59	N	0.114157	-0.151217	0.623565
O60	O	-0.033591	0.046803	0.617717
O61	O	0.129795	0.046806	0.497390
O62	O	0.026157	0.046789	0.497680
O63	O	0.070046	0.046819	0.617427
O64	O	0.060509	-0.056181	0.532004
O65	O	0.164146	-0.056164	0.531714
O66	O	0.000760	-0.056167	0.652041
Cu67	Cu	0.085590	-0.065568	0.595012
Cu68	Cu	0.044965	0.056206	0.554419
O69	O	0.104397	-0.056151	0.651751
N70	N	0.016390	0.141855	0.525867
N71	N	0.114410	-0.590756	1.062992
O72	O	0.108565	-0.738494	1.260998
O73	O	-0.011747	-0.575059	1.261012
O74	O	-0.011470	-0.678679	1.260970
O75	O	0.108287	-0.634874	1.261040
O76	O	0.022849	-0.644347	1.158004
O77	O	0.022572	-0.540726	1.158046
O78	O	0.142884	-0.704162	1.158033
Cu79	Cu	0.085861	-0.619309	1.148638
Cu80	Cu	0.045275	-0.659911	1.270406
O81	O	0.142606	-0.600541	1.158074
N82	N	0.016726	-0.688471	1.356052
C83	C	0.039385	-0.537207	0.498225
C84	C	0.167616	-0.665350	0.498136
C85	C	0.091204	-0.741950	0.651272
C86	C	-0.037027	-0.613806	0.651361
C87	C	0.700360	-0.716215	0.676756
C88	C	0.700279	-0.715877	0.548436
C89	C	0.700133	-0.562725	0.472214
C90	C	0.700218	-0.563065	0.600533
C91	C	0.167511	-0.004552	0.497940
C92	C	0.039211	-0.004699	0.498341
C93	C	-0.036999	-0.004682	0.651449
C94	C	0.091344	-0.004663	0.651090
C95	C	-0.011156	-0.537302	1.209530
C96	C	-0.010806	-0.665617	1.209458
C97	C	0.142293	-0.741918	1.209514
C98	C	0.141950	-0.613596	1.209563
H99	H	0.102355	-0.458618	0.810728
H100	H	-0.083922	-0.004684	0.689225
C101	C	-0.099656	-0.601546	0.701645
C102	C	-0.126874	-0.643777	0.718139
C103	C	-0.184572	-0.632496	0.764452
H104	H	-0.094334	-0.606212	0.736875
H105	H	-0.125659	-0.560578	0.686635
H106	H	-0.100877	-0.684735	0.733151
H107	H	-0.132212	-0.639118	0.682922
H108	H	-0.210575	-0.591528	0.749442
H109	H	-0.179244	-0.637162	0.799678
H110	H	-0.203049	-0.661144	0.775645
H111	H	0.700208	-0.525435	0.609919
C112	C	0.700026	-0.512253	0.409704
C113	C	0.699977	-0.459349	0.409794
C114	C	0.699870	-0.412839	0.352224
H115	H	0.735909	-0.526340	0.378133
H116	H	0.664094	-0.502493	0.402166
H117	H	0.735905	-0.469108	0.417325
H118	H	0.664097	-0.445243	0.441353
H119	H	0.663938	-0.403079	0.344686
H120	H	0.735754	-0.426932	0.320658
H121	H	0.699831	-0.376937	0.352280
C122	C	0.026675	-0.004587	0.448119
C123	C	0.033479	0.048391	0.396303
C124	C	0.021924	0.048516	0.350034
H125	H	0.055217	-0.040457	0.436771
H126	H	-0.014330	-0.004559	0.463228
H127	H	0.074477	0.048357	0.381197
H128	H	0.004938	0.084269	0.407631
H129	H	-0.019081	0.048545	0.365142
H130	H	0.050467	0.012644	0.338691
H131	H	0.026533	0.084464	0.314874
C132	C	0.229976	-0.004135	0.447507
C133	C	0.268157	-0.003992	0.469640
C134	C	0.325701	-0.003599	0.423196
H135	H	0.248724	-0.039954	0.436061
H136	H	0.224362	0.031865	0.412435
H137	H	0.273773	-0.039988	0.504701
H138	H	0.249429	0.031825	0.481081
H139	H	0.320087	0.032401	0.388124
H140	H	0.344443	-0.039419	0.411753
H141	H	0.351612	-0.003496	0.438205
H142	H	0.179573	-0.604224	1.209577
C143	C	0.192685	-0.804508	1.209606
C144	C	0.209156	-0.831674	1.262582
C145	C	0.255581	-0.889327	1.262682
H146	H	0.177803	-0.830587	1.209619
H147	H	0.227894	-0.799109	1.173725
H148	H	0.173954	-0.837076	1.298453
H149	H	0.224049	-0.805613	1.262579
H150	H	0.290790	-0.883928	1.226802
H151	H	0.240694	-0.915400	1.262695
H152	H	0.266766	-0.907764	1.298623
H153	H	0.700298	-0.753510	0.539047
H154	H	0.100739	-0.004653	0.688708
H155	H	0.100526	-0.788925	0.688956
C156	C	0.700525	-0.766683	0.739259
C157	C	0.753517	-0.818442	0.731059
C158	C	0.753687	-0.864948	0.788621
H159	H	0.700564	-0.751815	0.765323
H160	H	0.664658	-0.777997	0.757801
H161	H	0.789375	-0.807129	0.712527
H162	H	0.753489	-0.833328	0.705006
H163	H	0.717820	-0.876261	0.807163
H164	H	0.753724	-0.850073	0.814681
H165	H	0.789638	-0.900073	0.783065
C166	C	0.026832	-0.474543	0.448042
C167	C	-0.033601	-0.436455	0.470390
C168	C	-0.045190	-0.378729	0.424176
H169	H	0.055362	-0.455877	0.436725
H170	H	0.031424	-0.479888	0.412852
H171	H	-0.038188	-0.431109	0.505570
H172	H	-0.062144	-0.455102	0.481703
H173	H	-0.040597	-0.384074	0.388986
H174	H	-0.016657	-0.360068	0.412862
H175	H	-0.086196	-0.352881	0.439331
H176	H	-0.048413	-0.674973	1.209396
H177	H	-0.048928	-0.490363	1.209534
C178	C	0.045913	-0.493491	0.936994
C179	C	0.013625	-0.456211	0.894756
C180	C	-0.050120	-0.440443	0.927057
H181	H	0.035210	-0.530087	0.962279
H182	H	0.035274	-0.471474	0.962265
H183	H	0.024259	-0.478228	0.869495
H184	H	0.024309	-0.419607	0.869470
H185	H	-0.060759	-0.418426	0.952328
H186	H	-0.060817	-0.477042	0.952340
H187	H	-0.072036	-0.415142	0.898403
C188	C	0.230209	-0.677805	0.447855
C189	C	0.241154	-0.727575	0.433712
C190	C	0.298812	-0.739071	0.387402
H191	H	0.230388	-0.642021	0.411830
H192	H	0.261720	-0.687638	0.462068
H193	H	0.209651	-0.717738	0.419497
H194	H	0.240987	-0.763368	0.469723
H195	H	0.330323	-0.748904	0.401614
H196	H	0.298986	-0.703283	0.351381
H197	H	0.306248	-0.772844	0.377803
C198	C	0.266758	-0.604062	0.936991
C199	C	0.303934	-0.658025	0.921219
C200	C	0.346119	-0.695402	0.953568
H201	H	0.292094	-0.582146	0.926388
H202	H	0.244816	-0.614738	0.980241
H203	H	0.325875	-0.647349	0.877979
H204	H	0.278615	-0.679957	0.931824
H205	H	0.324177	-0.706078	0.996818
H206	H	0.371451	-0.673481	0.942962
H207	H	0.371344	-0.732022	0.942876
C208	C	0.045818	-0.493652	0.720828
C209	C	0.019185	-0.515718	0.785299
C210	C	-0.044548	-0.500170	0.801114
H211	H	0.027515	-0.449930	0.705998
H212	H	0.038956	-0.511871	0.702659
H213	H	0.026042	-0.497497	0.803461
H214	H	0.037470	-0.559439	0.800144
H215	H	-0.051411	-0.518389	0.782944
H216	H	-0.062845	-0.456448	0.786280
H217	H	-0.062626	-0.515145	0.844858
C218	C	0.266650	-0.603878	0.610255
C219	C	0.327078	-0.612950	0.601145
C220	C	0.369302	-0.650172	0.563845
H221	H	0.260518	-0.642760	0.629989
H222	H	0.260440	-0.584082	0.571390
H223	H	0.333286	-0.632747	0.640002
H224	H	0.333230	-0.574079	0.581404
H225	H	0.363092	-0.630376	0.524980
H226	H	0.363165	-0.689051	0.583583
H227	H	0.410307	-0.656328	0.557654
H228	H	0.294416	-0.554643	0.810656
H229	H	0.102328	-0.458621	0.755642
H230	H	0.301449	-0.601745	0.743862
C231	C	0.427750	-0.658108	0.707086
C232	C	0.411958	-0.677706	0.678180
C233	C	0.444291	-0.740950	0.687315
H234	H	0.470996	-0.665091	0.689798
H235	H	0.417138	-0.680735	0.750184
H236	H	0.422574	-0.655086	0.635090
H237	H	0.368717	-0.670739	0.695462
H238	H	0.433680	-0.763576	0.730413
H239	H	0.487536	-0.747927	0.670026
H240	H	0.433577	-0.754256	0.667709
C241	C	0.427669	-0.439291	0.623718
C242	C	0.385411	-0.379287	0.620284
C243	C	0.417686	-0.337542	0.589460
H244	H	0.452969	-0.450053	0.645754
H245	H	0.452923	-0.440909	0.583094
H246	H	0.360168	-0.377671	0.660901
H247	H	0.360111	-0.368506	0.598244
H248	H	0.442940	-0.339160	0.548836
H249	H	0.442984	-0.348309	0.611499
H250	H	0.389019	-0.296824	0.587121
H251	H	0.301415	-0.411495	0.671309
C252	C	0.256356	-0.412198	0.600073
C253	C	0.265389	-0.369935	0.539652
C254	C	0.302596	-0.402212	0.497409
H255	H	0.295248	-0.437483	0.606201
H256	H	0.236567	-0.437469	0.606271
H257	H	0.285179	-0.344675	0.533457
H258	H	0.226509	-0.344649	0.533505
H259	H	0.282807	-0.427483	0.503607
H260	H	0.341485	-0.427496	0.503542
H261	H	0.308725	-0.373542	0.456408
H262	H	0.294333	-0.554601	0.659567
H263	H	0.111138	-0.285961	0.764475
C264	C	0.211164	-0.277089	0.555149
C265	C	0.157037	-0.239889	0.539672
C266	C	0.172524	-0.207432	0.475955
H267	H	0.233124	-0.251753	0.544449
H268	H	0.236419	-0.305645	0.533126
H269	H	0.131792	-0.211336	0.561688
H270	H	0.135070	-0.265209	0.550357
H271	H	0.197779	-0.235989	0.453932
H272	H	0.194485	-0.182100	0.465261
H273	H	0.135802	-0.182193	0.465445
H274	H	0.150353	-0.403547	0.803641
