data_functionalizedCrystal
_audit_creation_method	'MofGen! by Chris Wilmer'
_symmetry_space_group_name_H-M	'P1'
_symmetry_Int_Tables_number	1
_symmetry_cell_setting	triclinic
loop_
_symmetry_equiv_pos_as_xyz
  x,y,z
_cell_length_a	18.101398
_cell_length_b	29.839125
_cell_length_c	18.101395
_cell_angle_alpha	90.013262
_cell_angle_beta	89.973339
_cell_angle_gamma	89.997005
loop_
_atom_site_label
_atom_site_type_symbol
_atom_site_fract_x
_atom_site_fract_y
_atom_site_fract_z
Zn1	Zn	1.132072	-0.253911	0.295021
Zn2	Zn	1.131982	-0.178787	0.418839
Zn3	Zn	1.008245	-0.178806	0.295006
Zn4	Zn	1.008181	-0.253900	0.418816
O5	O	1.070120	-0.216351	0.356921
O6	O	1.235693	-0.243943	0.311462
O7	O	1.115557	-0.115923	0.402416
O8	O	1.024735	-0.188781	0.191376
O9	O	1.235627	-0.188749	0.402430
O10	O	1.115710	-0.243961	0.191386
O11	O	1.024648	-0.115936	0.311437
O12	O	0.904604	-0.188771	0.311414
O13	O	1.024626	-0.316769	0.402391
O14	O	0.904557	-0.243942	0.402376
O15	O	1.115648	-0.316777	0.311439
O16	O	1.115495	-0.188739	0.522469
O17	O	1.024540	-0.243924	0.522452
C18	C	0.877709	-0.216357	0.356892
C19	C	0.795395	-0.216371	0.356897
C20	C	0.496304	-0.216352	0.356941
C21	C	0.527625	-0.250893	0.414448
C22	C	0.613243	-0.251035	0.414268
C23	C	0.644687	-0.216361	0.356920
C24	C	0.613630	-0.229298	0.278922
C25	C	0.527985	-0.229544	0.279268
C26	C	0.527861	-0.168791	0.376743
C27	C	0.613511	-0.169045	0.378454
C28	C	0.728546	-0.216366	0.356903
C29	C	0.412445	-0.216349	0.356952
C30	C	1.070140	-0.333530	0.356914
C31	C	1.070149	-0.383464	0.356911
C32	C	1.117593	-0.693115	0.309429
C33	C	1.117630	-0.880788	0.309366
O34	O	1.157914	-0.905059	0.269065
N35	N	1.070247	-0.904249	0.356713
C36	C	1.022847	-0.880790	0.404076
O37	O	0.982540	-0.905051	0.444341
C38	C	1.022807	-0.693117	0.404135
C39	C	1.070199	-0.669658	0.356790
C40	C	1.164981	-0.669656	0.262087
C41	C	1.164974	-0.622740	0.262106
C42	C	1.117580	-0.599284	0.309467
C43	C	1.070192	-0.622743	0.356809
C44	C	0.975405	-0.669659	0.451493
C45	C	0.975398	-0.622737	0.451503
C46	C	1.022790	-0.599278	0.404158
C47	C	1.022791	-0.552371	0.404189
N48	N	1.070175	-0.528910	0.356842
C49	C	1.117569	-0.552366	0.309481
C50	C	1.022873	-0.979320	0.404043
C51	C	1.022884	-1.026238	0.404029
C52	C	1.117665	-1.026233	0.309318
C53	C	1.117658	-0.979314	0.309336
C54	C	1.070256	-0.955859	0.356695
C55	C	1.117552	-0.453840	0.309525
C56	C	1.117543	-0.406920	0.309550
C57	C	1.022758	-0.406930	0.404259
C58	C	1.022770	-0.453845	0.404236
C59	C	1.070169	-0.477299	0.356863
O60	O	0.982523	-0.528071	0.444463
O61	O	1.157858	-0.528096	0.269210
C62	C	1.117600	-0.740030	0.309410
C63	C	1.070213	-0.763489	0.356751
C64	C	1.022819	-0.740033	0.404112
C65	C	1.070224	-0.810407	0.356738
C66	C	1.117618	-0.833864	0.309377
C67	C	1.165001	-0.810402	0.262030
C68	C	1.164994	-0.763487	0.262049
C69	C	0.975435	-0.763494	0.451460
C70	C	0.975447	-0.810410	0.451437
C71	C	1.022841	-0.833866	0.404076
C72	C	1.263282	-0.216345	0.356950
C73	C	1.345596	-0.216343	0.356963
C74	C	1.070021	-0.216338	0.549331
C75	C	1.070046	-0.216347	0.631645
C76	C	1.070143	-0.099629	0.356874
C77	C	1.070278	-0.049695	0.356668
C78	C	1.070240	-0.216374	0.163759
C79	C	1.070291	-0.216384	0.081445
C80	C	1.070209	-0.216372	0.930736
C81	C	1.013114	-0.251179	0.899431
C82	C	1.012843	-0.251070	0.813813
C83	C	1.070128	-0.216360	0.782354
C84	C	1.049008	-0.169015	0.813484
C85	C	1.048640	-0.169223	0.899130
C86	C	1.148548	-0.228493	0.899091
C87	C	1.148087	-0.229531	0.813440
C88	C	1.070084	-0.216350	0.698494
C89	C	1.070251	-0.216378	1.014596
H90	H	1.156137	-0.387822	0.270996
F91	F	0.500677	-0.240417	0.490297
F92	F	0.925007	-0.835372	0.501837
F93	F	0.936944	-0.240578	0.787105
H94	H	0.955400	-0.243252	0.921010
H95	H	0.936841	-0.744401	0.490028
H96	H	0.506250	-0.157034	0.432644
F97	F	0.972453	-1.051200	0.454430
F98	F	1.167996	-0.478795	0.259102
H99	H	0.633999	-0.204925	0.234914
H100	H	0.507268	-0.205539	0.234886
F101	F	0.973791	-0.155801	0.925318
F102	F	1.215435	-0.738526	0.211657
H103	H	0.635088	-0.263690	0.261821
F104	F	1.173719	-0.272849	0.927275
H105	H	0.992349	-0.158562	0.792091
F106	F	1.215411	-0.597779	0.211711
F107	F	1.100631	-0.134167	0.926201
F108	F	1.204150	-0.195362	0.925561
H109	H	0.633817	-0.159288	0.435849
H110	H	1.026056	-0.286176	0.792764
F111	F	0.641484	-0.133599	0.327677
H112	H	1.089285	-0.142374	0.793106
F113	F	0.501387	-0.135151	0.321994
H114	H	0.984273	-0.960227	0.442614
F115	F	1.215435	-0.694613	0.211681
F116	F	1.168097	-0.954352	0.258944
F117	F	1.168106	-1.051205	0.258912
F118	F	0.924944	-0.597777	0.501910
H119	H	0.936813	-0.688751	0.490047
F120	F	1.206631	-0.198812	0.785440
F121	F	1.030209	-0.297215	0.926310
F122	F	1.168907	-0.275074	0.786845
F123	F	0.972320	-0.381957	0.454660
F124	F	0.640690	-0.240452	0.489875
H125	H	0.506108	-0.285929	0.401514
H126	H	0.508017	-0.264313	0.262470
F127	F	0.640036	-0.297096	0.397144
H128	H	0.984186	-0.472946	0.442795
F129	F	1.215444	-0.835374	0.211627
