data_functionalizedCrystal
_audit_creation_method	'MofGen! by Chris Wilmer'
_symmetry_space_group_name_H-M	'P1'
_symmetry_Int_Tables_number	1
_symmetry_cell_setting	triclinic
loop_
_symmetry_equiv_pos_as_xyz
  x,y,z
_cell_length_a	10.654549
_cell_length_b	9.065215
_cell_length_c	9.130313
_cell_angle_alpha	89.996437
_cell_angle_beta	89.997498
_cell_angle_gamma	84.749737
loop_
_atom_site_label
_atom_site_type_symbol
_atom_site_fract_x
_atom_site_fract_y
_atom_site_fract_z
O1	O	1.668659	0.207233	-0.121762
O2	O	1.303258	0.226977	-0.121772
O3	O	1.493513	0.002421	-0.121761
O4	O	1.478404	0.431789	-0.121774
O5	O	1.493500	0.002414	0.121838
O6	O	1.303245	0.226970	0.121826
O7	O	1.668645	0.207226	0.121836
Cu8	Cu	1.485944	0.217098	0.144074
Cu9	Cu	1.485960	0.217105	-0.144010
O10	O	1.478391	0.431782	0.121825
C11	C	1.256448	0.225524	0.000026
C12	C	1.116987	0.221187	0.000022
C13	C	0.906979	0.349316	0.000024
C14	C	1.038016	0.353402	0.000015
C15	C	1.064916	0.084876	0.000023
C16	C	0.933882	0.080792	0.000021
C17	C	1.492055	-0.052561	0.000037
C18	C	1.487716	-0.216381	0.000032
C19	C	1.715456	0.208679	0.000035
C20	C	1.854916	0.213016	0.000029
C21	C	1.479848	0.486764	0.000024
C22	C	1.484188	0.650584	0.000019
N23	N	1.485942	0.217091	0.346697
N24	N	1.485971	0.217100	-0.346633
C25	C	1.570216	0.117700	0.423354
C26	C	1.570228	0.117700	0.576690
C27	C	1.401688	0.316496	0.576700
C28	C	1.401671	0.316488	0.423366
H29	H	0.891493	-0.030207	0.000021
Cl30	Cl	1.676174	-0.007257	0.673055
Cl31	Cl	1.676152	-0.007261	0.326976
H32	H	1.333039	0.397424	0.360948
Cl33	Cl	1.164196	-0.081338	0.000028
H34	H	1.333078	0.397425	0.639139
H35	H	0.842688	0.456982	0.000030
H36	H	1.080398	0.464391	0.000010
