data_functionalizedCrystal
_audit_creation_method	'MofGen! by Chris Wilmer'
_symmetry_space_group_name_H-M	'P1'
_symmetry_Int_Tables_number	1
_symmetry_cell_setting	triclinic
loop_
_symmetry_equiv_pos_as_xyz
  x,y,z
_cell_length_a	12.837943
_cell_length_b	15.944551
_cell_length_c	11.892095
_cell_angle_alpha	93.888509
_cell_angle_beta	85.689438
_cell_angle_gamma	89.163839
loop_
_atom_site_label
_atom_site_type_symbol
_atom_site_fract_x
_atom_site_fract_y
_atom_site_fract_z
O1	O	1.382096	0.213524	-0.093988
O2	O	1.080290	0.202737	-0.093995
O3	O	1.239434	0.086515	-0.093981
O4	O	1.222952	0.329745	-0.094002
O5	O	1.226164	0.096189	0.094025
O6	O	1.067021	0.212411	0.094012
O7	O	1.368826	0.223198	0.094018
Zn8	Zn	1.215817	0.219340	0.123865
Zn9	Zn	1.233299	0.206594	-0.123842
O10	O	1.209683	0.339419	0.094005
C11	C	1.035034	0.203930	0.000008
C12	C	0.919957	0.193062	0.000006
C13	C	1.232115	0.060004	0.000022
C14	C	1.230063	-0.033407	0.000023
C15	C	0.679007	0.323714	0.000011
C16	C	0.570881	0.313507	0.000010
C17	C	0.595575	0.162440	0.000010
C18	C	0.703701	0.172648	0.000012
C19	C	0.745413	0.253287	0.000010
C20	C	0.853542	0.263494	0.000003
C21	C	0.878234	0.112428	0.000012
C22	C	0.770107	0.102221	0.000011
C23	C	1.126515	-0.256548	0.000005
C24	C	1.168058	-0.308949	0.092705
C25	C	1.226352	-0.204430	0.000014
C26	C	1.181163	-0.318468	-0.092655
C27	C	1.222761	-0.369631	0.000001
C28	C	1.267917	-0.255596	0.092790
C29	C	1.281014	-0.265115	-0.092653
C30	C	1.322628	-0.317491	0.000069
C31	C	1.228418	-0.109262	0.000023
C32	C	1.220702	-0.464796	0.000000
C33	C	1.414082	0.222005	0.000013
C34	C	1.529160	0.232872	0.000008
C35	C	1.217002	0.365931	-0.000001
C36	C	1.219054	0.459340	-0.000009
N37	N	1.203893	0.228039	0.292918
N38	N	1.245231	0.197890	-0.292895
C39	C	1.328203	0.137313	0.529576
C40	C	1.319876	0.143400	0.647918
C41	C	1.178907	0.246295	0.647944
C42	C	1.187234	0.240208	0.529603
C43	C	1.261886	0.185716	0.470423
C44	C	1.270217	0.179634	0.352080
C45	C	1.129244	0.282524	0.352108
C46	C	1.120917	0.288611	0.470449
H47	H	0.887502	0.329155	0.000004
C48	C	0.943666	-0.286370	0.001196
C49	C	1.014639	-0.220522	0.000126
H50	H	0.874600	-0.264126	0.001282
H51	H	0.958493	-0.323583	-0.064036
H52	H	0.949761	-0.316049	0.067083
H53	H	1.008549	-0.190847	-0.065765
H54	H	0.999807	-0.183295	0.065365
H55	H	1.120299	-0.328402	0.171073
C56	C	0.925756	-0.008231	0.096655
C57	C	0.951230	0.035007	0.000011
H58	H	0.970818	-0.056028	0.096645
H59	H	0.933787	0.027845	0.162205
H60	H	0.855387	-0.025845	0.096646
H61	H	1.021597	0.052626	0.000024
H62	H	0.943208	-0.001076	-0.065556
H63	H	0.712969	0.389374	0.000008
H64	H	0.516815	0.370856	0.000013
H65	H	1.304571	-0.228194	0.171246
H66	H	1.118121	0.290655	0.696143
C67	C	1.332997	0.037738	0.780997
C68	C	1.392774	0.090194	0.712941
H69	H	1.378004	0.004886	0.821133
H70	H	1.287360	0.071062	0.833176
H71	H	1.293098	0.001680	0.734829
H72	H	1.432667	0.126256	0.759110
H73	H	1.438428	0.056867	0.660756
H74	H	0.561587	0.096792	0.000105
C75	C	1.430087	-0.191062	-0.165626
C76	C	1.345440	-0.238817	-0.198448
H77	H	1.469857	-0.174831	-0.230948
H78	H	1.404932	-0.142291	-0.120946
H79	H	1.472890	-0.223684	-0.122739
H80	H	1.302632	-0.206192	-0.241328
H81	H	1.370595	-0.287595	-0.243147
H82	H	1.388994	0.092949	0.481392
C83	C	1.045562	0.343634	0.651871
C84	C	1.038868	0.348510	0.535506
H85	H	0.994913	0.380620	0.692029
H86	H	1.032926	0.287673	0.671263
H87	H	1.113386	0.359316	0.671237
H88	H	0.971046	0.332822	0.516138
H89	H	1.051496	0.404483	0.516105
C90	C	1.116129	0.388193	0.219035
C91	C	1.056345	0.335739	0.287086
H92	H	1.071127	0.421044	0.178891
H93	H	1.156024	0.424244	0.265197
H94	H	1.161771	0.354861	0.166852
H95	H	1.010709	0.369071	0.339275
H96	H	1.016432	0.299684	0.240920
H97	H	1.405566	-0.344012	0.000124
H98	H	0.736129	0.036567	0.000025
C99	C	1.131067	-0.443371	-0.197851
C100	C	1.131606	-0.355590	-0.198449
H101	H	1.100461	-0.466284	-0.263157
H102	H	1.200727	-0.464303	-0.197975
H103	H	1.091632	-0.459056	-0.132021
H104	H	1.171048	-0.339905	-0.264276
H105	H	1.061935	-0.334650	-0.198336
H106	H	1.331005	0.135266	0.303897
