data_functionalizedCrystal
_audit_creation_method	'MofGen! by Chris Wilmer'
_symmetry_space_group_name_H-M	'P1'
_symmetry_Int_Tables_number	1
_symmetry_cell_setting	triclinic
loop_
_symmetry_equiv_pos_as_xyz
  x,y,z
_cell_length_a	14.908783
_cell_length_b	16.120444
_cell_length_c	14.908308
_cell_angle_alpha	95.986749
_cell_angle_beta	89.788727
_cell_angle_gamma	96.376156
loop_
_atom_site_label
_atom_site_type_symbol
_atom_site_fract_x
_atom_site_fract_y
_atom_site_fract_z
Zn1	Zn	1.328315	-0.293307	-0.602926
Zn2	Zn	1.329261	-0.425029	-0.459346
Zn3	Zn	1.186681	-0.292400	-0.443851
Zn4	Zn	1.169356	-0.441087	-0.601794
O5	O	1.253403	-0.362956	-0.526979
O6	O	1.454636	-0.304440	-0.590838
O7	O	1.317994	-0.400335	-0.331102
O8	O	1.212323	-0.175169	-0.458941
O9	O	1.455331	-0.401215	-0.485350
O10	O	1.316381	-0.175835	-0.575813
O11	O	1.213241	-0.302893	-0.319717
O12	O	1.058187	-0.318464	-0.457844
O13	O	1.182796	-0.428584	-0.728133
O14	O	1.045459	-0.427704	-0.573884
O15	O	1.299582	-0.320011	-0.728964
O16	O	1.301195	-0.544511	-0.484253
O17	O	1.183713	-0.556308	-0.588909
C18	C	1.019102	-0.374729	-0.514060
C19	C	0.918864	-0.379786	-0.508555
C20	C	0.729762	-0.288675	-0.608240
C21	C	0.635580	-0.293425	-0.603071
C22	C	0.636317	-0.394030	-0.493044
C23	C	0.730499	-0.389280	-0.498213
C24	C	0.777218	-0.336602	-0.555814
C25	C	0.871402	-0.331858	-0.560988
C26	C	0.872137	-0.432458	-0.450956
C27	C	0.777955	-0.437207	-0.445787
C28	C	1.240700	-0.580837	-0.538160
C29	C	1.235346	-0.674045	-0.542978
C30	C	1.281385	-0.880361	-0.502191
C31	C	1.225587	-0.844692	-0.551785
C32	C	1.231019	-0.749735	-0.546884
C33	C	1.275955	-0.975326	-0.507092
C34	C	1.488619	-0.351138	-0.539949
C35	C	1.588854	-0.346101	-0.545476
C36	C	1.239151	-0.376190	-0.762183
C37	C	1.233077	-0.381829	-0.862413
C38	C	1.266179	-0.144223	-0.515775
C39	C	1.271624	-0.051013	-0.511001
C40	C	1.343273	-0.279350	-1.051622
C41	C	1.337569	-0.284646	-1.145797
C42	C	1.215963	-0.397712	-1.144938
C43	C	1.221666	-0.392416	-1.050763
C44	C	1.285324	-0.333234	-1.004109
C45	C	1.291032	-0.327943	-0.909932
C46	C	1.169422	-0.441004	-0.909075
C47	C	1.163718	-0.446300	-1.003250
C48	C	1.267655	-0.349710	-0.292690
C49	C	1.273917	-0.343826	-0.192458
H50	H	0.739904	-0.480093	-0.398887
C51	C	1.410652	-0.216707	-0.920243
C52	C	1.360999	-0.262888	-0.858646
H53	H	1.453842	-0.176540	-0.888580
H54	H	1.440792	-0.253573	-0.960745
H55	H	1.370995	-0.188678	-0.953167
H56	H	1.400656	-0.290922	-0.825727
H57	H	1.330858	-0.226017	-0.818128
H58	H	1.333231	-0.839588	-0.456053
H59	H	1.395110	-0.231166	-1.013635
C60	C	1.044091	-0.557530	-0.992942
C61	C	1.093749	-0.511352	-1.054538
H62	H	1.000892	-0.597689	-1.024605
H63	H	1.083737	-0.585563	-0.960024
H64	H	1.013953	-0.520655	-0.952433
H65	H	1.123892	-0.548226	-1.095043
H66	H	1.054096	-0.483318	-1.087471
H67	H	1.384755	-0.240766	-1.184478
C68	C	1.124165	-0.483096	-0.764333
C69	C	1.105718	-0.500238	-0.856847
H70	H	1.084836	-0.519663	-0.732091
H71	H	1.184968	-0.491455	-0.752875
H72	H	1.115186	-0.426546	-0.745290
H73	H	1.114703	-0.556787	-0.875892
H74	H	1.044900	-0.491886	-0.868310
C75	C	0.907989	-0.463049	-0.301864
C76	C	0.924302	-0.485144	-0.393323
H77	H	0.940190	-0.495581	-0.266289
H78	H	0.927503	-0.405179	-0.286722
H79	H	0.845208	-0.473417	-0.290551
H80	H	0.987082	-0.474770	-0.404637
H81	H	0.904793	-0.543028	-0.408470
C82	C	0.861211	-0.232887	-0.669219
C83	C	0.922759	-0.273954	-0.624300
H84	H	0.892917	-0.197135	-0.708301
H85	H	0.820270	-0.273261	-0.703511
H86	H	0.828714	-0.200403	-0.626307
H87	H	0.955251	-0.306443	-0.667212
H88	H	0.963715	-0.233575	-0.590006
C89	C	0.644316	-0.193513	-0.712354
C90	C	0.583415	-0.240748	-0.660705
H91	H	0.612109	-0.160995	-0.747939
H92	H	0.685284	-0.157321	-0.673486
H93	H	0.676846	-0.230191	-0.750676
H94	H	0.550890	-0.204069	-0.622379
H95	H	0.542431	-0.276943	-0.699578
C96	C	0.524589	-0.511429	-0.480293
C97	C	0.584951	-0.451924	-0.429729
H98	H	0.492882	-0.547171	-0.441203
H99	H	0.482857	-0.483559	-0.510771
H100	H	0.557097	-0.543919	-0.523187
H101	H	0.552441	-0.419429	-0.386839
H102	H	0.626689	-0.479796	-0.399236
C103	C	1.163682	-0.984509	-0.606927
C104	C	1.155586	-0.899733	-0.614069
H105	H	1.120462	-1.018490	-0.645372
H106	H	1.222652	-0.996446	-0.624242
H107	H	1.153406	-0.996087	-0.546325
H108	H	1.165868	-0.888153	-0.674671
H109	H	1.096601	-0.887791	-0.596760
C110	C	1.153210	-0.456006	-1.288923
C111	C	1.145981	-0.462748	-1.196231
H112	H	1.110005	-0.496157	-1.320587
H113	H	1.142376	-0.401192	-1.300723
H114	H	1.212148	-0.466110	-1.308324
H115	H	1.087044	-0.452637	-1.176829
H116	H	1.156808	-0.517574	-1.184425
H117	H	0.767802	-0.245787	-0.655146
