data_functionalizedCrystal
_audit_creation_method	'MofGen! by Chris Wilmer'
_symmetry_space_group_name_H-M	'P1'
_symmetry_Int_Tables_number	1
_symmetry_cell_setting	triclinic
loop_
_symmetry_equiv_pos_as_xyz
  x,y,z
_cell_length_a	9.065215
_cell_length_b	12.811415
_cell_length_c	8.140239
_cell_angle_alpha	84.565620
_cell_angle_beta	89.997810
_cell_angle_gamma	84.526874
loop_
_atom_site_label
_atom_site_type_symbol
_atom_site_fract_x
_atom_site_fract_y
_atom_site_fract_z
O1	O	1.958454	0.153893	-0.159518
O2	O	1.529009	0.166521	-0.161406
O3	O	1.754536	0.007517	-0.137707
O4	O	1.732928	0.312897	-0.183217
O5	O	1.754523	0.007515	0.135520
O6	O	1.528997	0.166519	0.111821
O7	O	1.958442	0.153891	0.113710
Zn8	Zn	1.743718	0.160205	0.156146
Zn9	Zn	1.743734	0.160207	-0.203843
O10	O	1.732916	0.312895	0.090010
C11	C	1.474032	0.165307	-0.024613
C12	C	1.310235	0.161680	-0.024075
C13	C	1.753319	-0.031600	0.004732
C14	C	1.749693	-0.148152	0.022091
C15	C	1.742866	-0.367153	-0.243196
C16	C	1.739459	-0.476665	-0.226894
C17	C	1.739461	-0.476688	0.070997
C18	C	1.742868	-0.367176	0.054694
C19	C	1.744573	-0.312413	-0.102407
C20	C	1.747990	-0.202900	-0.118708
C21	C	1.747982	-0.202924	0.179181
C22	C	1.744575	-0.312436	0.195483
C23	C	2.013420	0.155105	-0.023088
C24	C	2.177217	0.158732	-0.023636
C25	C	1.734133	0.352011	-0.052433
C26	C	1.737759	0.468564	-0.069802
N27	N	1.743717	0.160202	0.401829
N28	N	1.743746	0.160201	-0.449524
H29	H	1.749383	-0.158314	-0.246628
H30	H	1.738061	-0.521294	0.198901
H31	H	1.749377	-0.158344	0.293822
F32	F	1.744700	-0.308870	-0.410392
H33	H	1.743181	-0.357039	0.323391
F34	F	1.737639	-0.534920	-0.376741
