data_functionalizedCrystal
_audit_creation_method	'MofGen! by Chris Wilmer'
_symmetry_space_group_name_H-M	'P1'
_symmetry_Int_Tables_number	1
_symmetry_cell_setting	triclinic
loop_
_symmetry_equiv_pos_as_xyz
  x,y,z
_cell_length_a	18.050589
_cell_length_b	18.101398
_cell_length_c	18.101389
_cell_angle_alpha	89.975673
_cell_angle_beta	90.019529
_cell_angle_gamma	89.984199
loop_
_atom_site_label
_atom_site_type_symbol
_atom_site_fract_x
_atom_site_fract_y
_atom_site_fract_z
Zn1	Zn	-0.295831	-1.132175	0.418833
Zn2	Zn	0.037502	-0.798842	0.752166
Zn3	Zn	0.370836	-0.465509	1.085500
Zn4	Zn	-0.420005	-1.132094	0.294989
Zn5	Zn	-0.086672	-0.798761	0.628322
Zn6	Zn	0.246661	-0.465427	0.961656
Zn7	Zn	-0.295823	-1.008334	0.294994
Zn8	Zn	0.037510	-0.675001	0.628328
Zn9	Zn	0.370843	-0.341668	0.961661
Zn10	Zn	-0.419973	-1.008308	0.418778
Zn11	Zn	-0.086640	-0.674975	0.752111
Zn12	Zn	0.246693	-0.341641	1.085444
O13	O	-0.357908	-1.070228	0.356898
O14	O	-0.024575	-0.736895	0.690232
O15	O	0.308758	-0.403561	1.023565
O16	O	-0.312320	-1.235798	0.402426
O17	O	0.021014	-0.902464	0.735759
O18	O	0.354347	-0.569131	1.069093
O19	O	-0.403542	-1.115654	0.191357
O20	O	-0.070209	-0.782321	0.524690
O21	O	0.263124	-0.448988	0.858023
O22	O	-0.191900	-1.024807	0.311447
O23	O	0.141434	-0.691474	0.644780
O24	O	0.474767	-0.358141	0.978114
O25	O	-0.403550	-1.235738	0.311438
O26	O	-0.070216	-0.902404	0.644772
O27	O	0.263117	-0.569071	0.978105
O28	O	-0.191905	-1.115793	0.402431
O29	O	0.141428	-0.782459	0.735764
O30	O	0.474761	-0.449126	1.069097
O31	O	-0.312306	-1.024728	0.191361
O32	O	0.021027	-0.691395	0.524694
O33	O	0.354360	-0.358062	0.858027
O34	O	-0.312276	-0.904698	0.311393
O35	O	0.021058	-0.571365	0.644727
O36	O	0.354391	-0.238031	0.978060
O37	O	-0.403496	-1.024762	0.522418
O38	O	-0.070162	-0.691429	0.855751
O39	O	0.263171	-0.358095	1.189085
O40	O	-0.403488	-0.904679	0.402336
O41	O	-0.070155	-0.571345	0.735670
O42	O	0.263178	-0.238012	1.069003
O43	O	-0.312289	-1.115767	0.522459
O44	O	0.021045	-0.782434	0.855792
O45	O	0.354378	-0.449100	1.189125
O46	O	-0.523926	-1.115629	0.311385
O47	O	-0.190592	-0.782295	0.644718
O48	O	0.142741	-0.448962	0.978051
O49	O	-0.523902	-1.024683	0.402332
O50	O	-0.190569	-0.691350	0.735665
O51	O	0.142764	-0.358017	1.068998
C52	C	-0.357878	-0.877817	0.356860
C53	C	-0.024545	-0.544484	0.690193
C54	C	0.308789	-0.211151	1.023527
C55	C	-0.357883	-0.795503	0.356861
C56	C	-0.024550	-0.462170	0.690194
C57	C	0.308784	-0.128837	1.023528
C58	C	-0.550860	-1.070164	0.356868
C59	C	-0.217527	-0.736831	0.690201
C60	C	0.115806	-0.403498	1.023534
C61	C	-0.633406	-1.070205	0.356879
C62	C	-0.300073	-0.736872	0.690213
C63	C	0.033260	-0.403538	1.023546
C64	C	-0.882217	-1.119790	0.307504
C65	C	-0.548884	-0.786456	0.640838
C66	C	-0.215551	-0.453123	0.974171
C67	C	-0.832878	-1.052221	0.289309
C68	C	-0.499545	-0.718888	0.622642
C69	C	-0.166211	-0.385554	0.955975
C70	C	-0.930527	-1.070298	0.356936
C71	C	-0.597193	-0.736965	0.690270
C72	C	-0.263860	-0.403631	1.023603
C73	C	-0.832785	-1.137817	0.375069
C74	C	-0.499451	-0.804483	0.708402
C75	C	-0.166118	-0.471150	1.041735
C76	C	-0.784541	-1.070256	0.356906
C77	C	-0.451208	-0.736922	0.690240
C78	C	-0.117875	-0.403589	1.023573
C79	C	-0.882274	-1.002694	0.338706
C80	C	-0.548941	-0.669361	0.672039
C81	C	-0.215608	-0.336027	1.005372
C82	C	-0.882185	-1.088335	0.424497
C83	C	-0.548852	-0.755002	0.757831
C84	C	-0.215518	-0.421668	1.091164
C85	C	-0.832868	-1.020720	0.406327
C86	C	-0.499535	-0.687386	0.739661
C87	C	-0.166201	-0.354053	1.072994
C88	C	-1.014625	-1.070323	0.356952
C89	C	-0.681292	-0.736990	0.690285
C90	C	-0.347958	-0.403657	1.023618
C91	C	-0.700445	-1.070223	0.356891
C92	C	-0.367112	-0.736890	0.690225
C93	C	-0.033778	-0.403556	1.023558
C94	C	-0.357890	-1.070271	0.550060
C95	C	-0.024556	-0.736937	0.883394
C96	C	0.308777	-0.403604	1.216727
C97	C	-0.357882	-1.070289	0.632375
C98	C	-0.024548	-0.736956	0.965708
C99	C	0.308785	-0.403622	1.299041
C100	C	-0.164203	-1.070312	0.356946
C101	C	0.169131	-0.736979	0.690279
C102	C	0.502464	-0.403645	1.023612
C103	C	-0.081657	-1.070348	0.356966
C104	C	0.251676	-0.737014	0.690299
C105	C	0.585010	-0.403681	1.023632
C106	C	-0.357939	-1.263390	0.356938
C107	C	-0.024606	-0.930056	0.690271
C108	C	0.308728	-0.596723	1.023604
C109	C	-0.357952	-1.345704	0.356954
C110	C	-0.024619	-1.012371	0.690288
C111	C	0.308714	-0.679037	1.023621
C112	C	-0.357930	-0.496412	0.356923
C113	C	-0.024596	-0.163079	0.690256
C114	C	0.308737	0.170254	1.023590
C115	C	-0.300254	-0.527725	0.299983
C116	C	0.033079	-0.194392	0.633317
C117	C	0.366412	0.138942	0.966650
C118	C	-0.300409	-0.613343	0.299740
C119	C	0.032924	-0.280010	0.633074
C120	C	0.366258	0.053323	0.966407
C121	C	-0.357906	-0.644795	0.356892
C122	C	-0.024573	-0.311462	0.690226
C123	C	0.308761	0.021872	1.023559
C124	C	-0.436133	-0.613691	0.335566
C125	C	-0.102800	-0.280358	0.668900
C126	C	0.230533	0.052976	1.002233
C127	C	-0.435813	-0.528046	0.335170
C128	C	-0.102480	-0.194713	0.668504
C129	C	0.230854	0.138621	1.001837
C130	C	-0.338057	-0.528023	0.435323
C131	C	-0.004724	-0.194690	0.768656
C132	C	0.328609	0.138643	1.101990
C133	C	-0.336315	-0.613674	0.434895
C134	C	-0.002982	-0.280340	0.768228
C135	C	0.330351	0.052993	1.101562
C136	C	-0.357897	-0.728654	0.356876
C137	C	-0.024564	-0.395321	0.690209
C138	C	0.308769	-0.061988	1.023543
C139	C	-0.357943	-0.412553	0.356937
C140	C	-0.024610	-0.079220	0.690271
C141	C	0.308723	0.254114	1.023604
C142	C	-0.357873	-1.070228	0.164488
C143	C	-0.024540	-0.736895	0.497821
C144	C	0.308793	-0.403561	0.831155
C145	C	-0.357672	-1.070353	0.082174
C146	C	-0.024339	-0.737020	0.415508
C147	C	0.308994	-0.403687	0.748841
C148	C	-0.357742	-1.070332	0.931466
C149	C	-0.024409	-0.736999	1.264799
C150	C	0.308924	-0.403665	1.598132
C151	C	-0.414945	-1.012877	0.900115
C152	C	-0.081611	-0.679544	1.233448
C153	C	0.251722	-0.346210	1.566782
C154	C	-0.415210	-1.013032	0.814497
C155	C	-0.081877	-0.679699	1.147830
C156	C	0.251457	-0.346366	1.481163
C157	C	-0.357811	-1.070310	0.783083
C158	C	-0.024478	-0.736977	1.116416
C159	C	0.308855	-0.403643	1.449750
C160	C	-0.379062	-1.148339	0.814188
C161	C	-0.045728	-0.815006	1.147522
C162	C	0.287605	-0.481673	1.480855
C163	C	-0.379437	-1.148019	0.899833
C164	C	-0.046104	-0.814686	1.233167
C165	C	0.287230	-0.481353	1.566500
C166	C	-0.279163	-1.050436	0.899892
C167	C	0.054171	-0.717103	1.233225
C168	C	0.387504	-0.383770	1.566558
C169	C	-0.279616	-1.048700	0.814241
C170	C	0.053717	-0.715367	1.147574
C171	C	0.387050	-0.382034	1.480907
C172	C	-0.357849	-1.070302	0.699224
C173	C	-0.024516	-0.736969	1.032557
C174	C	0.308817	-0.403636	1.365890
C175	C	-0.357706	-1.070345	1.015325
C176	C	-0.024373	-0.737012	1.348659
C177	C	0.308960	-0.403678	1.681992
H178	H	-0.903886	-1.161609	0.265682
H179	H	-0.570553	-0.828276	0.599015
H180	H	-0.237219	-0.494942	0.932349
H181	H	-0.259803	-0.994526	0.921478
H182	H	0.073530	-0.661192	1.254811
H183	H	0.406863	-0.327859	1.588145
H184	H	-0.435894	-1.165496	0.792745
H185	H	-0.102561	-0.832162	1.126078
H186	H	0.230773	-0.498829	1.459412
H187	H	-0.453280	-0.635109	0.278871
H188	H	-0.119947	-0.301776	0.612204
H189	H	0.213386	0.031558	0.945538
H190	H	-0.811218	-1.036942	0.232161
H191	H	-0.477885	-0.703609	0.565494
H192	H	-0.144551	-0.370276	0.898827
Br193	Br	-0.311803	-1.221611	0.780284
Br194	Br	0.021531	-0.888277	1.113618
Br195	Br	0.354864	-0.554944	1.446951
Br196	Br	-0.321882	-0.491796	0.203722
Br197	Br	0.011451	-0.158462	0.537055
Br198	Br	0.344785	0.174871	0.870389
H199	H	-0.903861	-1.103634	0.481629
H200	H	-0.570528	-0.770300	0.814963
H201	H	-0.237194	-0.436967	1.148296
H202	H	-0.313545	-0.633799	0.241647
H203	H	0.019788	-0.300466	0.574980
H204	H	0.353122	0.032868	0.908313
Br205	Br	-0.312963	-1.221743	0.934408
Br206	Br	0.020370	-0.888409	1.267741
Br207	Br	0.353704	-0.555076	1.601075
Br208	Br	-0.509677	-0.647632	0.402531
Br209	Br	-0.176344	-0.314299	0.735865
Br210	Br	0.156989	0.019034	1.069198
H211	H	-0.263592	-0.991278	0.793909
H212	H	0.069742	-0.657944	1.127242
H213	H	0.403075	-0.324611	1.460576
H214	H	-0.234735	-1.087493	0.792857
H215	H	0.098599	-0.754160	1.126191
H216	H	0.431932	-0.420826	1.459524
H217	H	-0.472835	-1.025883	0.921639
H218	H	-0.139502	-0.692550	1.254973
H219	H	0.193832	-0.359216	1.588306
H220	H	-0.242399	-0.634373	0.313108
H221	H	0.090934	-0.301040	0.646441
H222	H	0.424267	0.032294	0.979775
H223	H	-0.282008	-0.506441	0.454712
H224	H	0.051326	-0.173108	0.788045
H225	H	0.384659	0.160226	1.121379
Br226	Br	-0.203268	-0.493425	0.322015
Br227	Br	0.130066	-0.160091	0.655349
Br228	Br	0.463399	0.173242	0.988682
Br229	Br	-0.393040	-0.916594	0.779437
Br230	Br	-0.059706	-0.583261	1.112770
Br231	Br	0.273627	-0.249927	1.446104
H232	H	-0.811046	-1.194934	0.390417
H233	H	-0.477713	-0.861600	0.723751
H234	H	-0.144379	-0.528267	1.057084
H235	H	-0.401782	-0.954842	0.920701
H236	H	-0.068449	-0.621508	1.254034
H237	H	0.264884	-0.288175	1.587368
H238	H	-0.278749	-0.634007	0.450976
H239	H	0.054585	-0.300674	0.784309
H240	H	0.387918	0.032659	1.117642
H241	H	-0.473456	-1.026169	0.794013
H242	H	-0.140122	-0.692836	1.127346
H243	H	0.193211	-0.359502	1.460680
Br244	Br	-0.401233	-0.649356	0.509398
Br245	Br	-0.067899	-0.316023	0.842732
Br246	Br	0.265434	0.017310	1.176065
H247	H	-0.903921	-0.945560	0.323292
H248	H	-0.570587	-0.612227	0.656626
H249	H	-0.237254	-0.278893	0.989959
Br250	Br	-0.475178	-1.176128	0.933143
Br251	Br	-0.141845	-0.842795	1.266476
Br252	Br	0.191489	-0.509462	1.599810
Br253	Br	-0.208128	-1.120185	0.933684
Br254	Br	0.125205	-0.786851	1.267017
Br255	Br	0.458538	-0.453518	1.600351
H256	H	-0.452667	-0.508037	0.277856
H257	H	-0.119334	-0.174704	0.611190
H258	H	0.214000	0.158629	0.944523
H259	H	-0.480240	-0.507332	0.374834
H260	H	-0.146906	-0.173999	0.708167
H261	H	0.186427	0.159335	1.041501
Br262	Br	-0.796980	-0.950855	0.475985
Br263	Br	-0.463646	-0.617522	0.809318
Br264	Br	-0.130313	-0.284189	1.142652
H265	H	-0.380066	-0.507774	0.477748
H266	H	-0.046733	-0.174441	0.811082
H267	H	0.286601	0.158892	1.144415
