data_functionalizedCrystal
_audit_creation_method	'MofGen! by Chris Wilmer'
_symmetry_space_group_name_H-M	'P1'
_symmetry_Int_Tables_number	1
_symmetry_cell_setting	triclinic
loop_
_symmetry_equiv_pos_as_xyz
  x,y,z
_cell_length_a	14.044202
_cell_length_b	11.892113
_cell_length_c	12.837943
_cell_angle_alpha	86.042374
_cell_angle_beta	94.010821
_cell_angle_gamma	85.980357
loop_
_atom_site_label
_atom_site_type_symbol
_atom_site_fract_x
_atom_site_fract_y
_atom_site_fract_z
O1	O	-1.286461	0.093931	-0.258529
O2	O	-1.009670	0.093946	-0.249426
O3	O	-1.141928	0.093940	-0.102507
O4	O	-1.154203	0.093937	-0.405448
O5	O	-1.129934	-0.094067	-0.089569
O6	O	-0.997676	-0.094060	-0.236487
O7	O	-1.274467	-0.094076	-0.245591
Zn8	Zn	-1.134167	-0.123918	-0.238985
Zn9	Zn	-1.149970	0.123789	-0.256032
O10	O	-1.142209	-0.094069	-0.392509
C11	C	-0.967999	-0.000055	-0.238975
C12	C	-0.861701	-0.000049	-0.227097
N13	N	-1.123389	-0.292971	-0.227350
C14	C	-0.617061	-0.000060	-0.289616
C15	C	-0.667083	-0.000058	-0.205397
C16	C	-0.775378	-0.000053	-0.217474
C17	C	-0.508756	-0.000065	-0.277541
C18	C	-1.235748	-0.529627	-0.348667
C19	C	-1.228221	-0.647969	-0.340527
C20	C	-1.100813	-0.647998	-0.202924
C21	C	-1.108340	-0.529656	-0.211065
C22	C	-1.175809	-0.470475	-0.283940
C23	C	-1.183330	-0.352132	-0.292085
C24	C	-1.055928	-0.352163	-0.154478
C25	C	-1.048401	-0.470504	-0.146337
C26	C	-0.316138	-0.000072	-0.256040
C27	C	-0.422437	-0.000069	-0.267912
C28	C	-1.152352	-0.000066	-0.437983
C29	C	-1.164720	-0.000068	-0.554204
N30	N	-1.160755	0.292842	-0.267659
C31	C	-1.016042	-0.000039	-0.781411
C32	C	-1.027658	-0.000039	-0.890611
C33	C	-1.199567	-0.000061	-0.881808
C34	C	-1.187951	-0.000060	-0.772607
C35	C	-1.096186	-0.000051	-0.722413
C36	C	-1.084570	-0.000059	-0.613210
C37	C	-1.256479	-0.000072	-0.604409
C38	C	-1.268095	-0.000073	-0.713609
C39	C	-1.131784	-0.000061	-0.057034
C40	C	-1.119417	-0.000052	0.059187
H41	H	-0.628581	0.000023	-0.124231
O42	O	-0.663144	-0.000001	-0.386376
C43	C	-0.762578	-0.000023	-0.377042
H44	H	-0.780759	0.035563	-0.300035
H45	H	-0.785052	-0.090217	-0.378423
C46	C	-0.793945	0.030011	-0.563586
C47	C	-0.816276	0.073728	-0.469008
H48	H	-0.827070	0.075499	-0.620316
H49	H	-0.726955	0.030022	-0.569876
H50	H	-0.812674	-0.045150	-0.564722
H51	H	-0.797537	0.148881	-0.467867
H52	H	-0.883265	0.073731	-0.462720
H53	H	-0.941322	-0.000052	-0.740540
H54	H	-1.238263	-0.303948	-0.351427
H55	H	-1.290675	-0.481441	-0.408014
O56	O	-1.286489	-0.705254	-0.403516
C57	C	-1.347666	-0.627638	-0.469559
H58	H	-1.314012	-0.543288	-0.477779
H59	H	-1.419607	-0.615037	-0.434343
C60	C	-1.404109	-0.777416	-0.568074
C61	C	-1.362770	-0.673820	-0.578176
H62	H	-1.413430	-0.805904	-0.635072
H63	H	-1.362895	-0.829710	-0.523577
H64	H	-1.464055	-0.766902	-0.538723
H65	H	-1.302820	-0.684338	-0.607514
H66	H	-1.403974	-0.621529	-0.622680
H67	H	-1.045893	-0.696203	-0.143583
H68	H	-0.993473	-0.518706	-0.087002
H69	H	-1.007117	-0.303989	-0.101777
H70	H	-1.009849	-0.000061	-0.572343
O71	O	-0.949701	-0.000079	-0.947761
C72	C	-0.866223	-0.000039	-0.880039
H73	H	-0.880869	-0.035637	-0.798458
H74	H	-0.844320	0.090161	-0.875985
C75	C	-0.766853	-0.030036	-1.021941
C76	C	-0.784838	-0.073766	-0.921744
H77	H	-0.716649	-0.075508	-1.047668
H78	H	-0.823093	-0.030058	-1.067569
H79	H	-0.748605	0.045131	-1.018550
H80	H	-0.803097	-0.148925	-0.925139
H81	H	-0.728599	-0.073757	-0.876118
O82	O	-1.288630	-0.000116	-0.930739
C83	C	-1.281693	-0.000077	-1.039775
H84	H	-1.207136	-0.035662	-1.056019
H85	H	-1.294818	0.090121	-1.076756
C86	C	-1.448671	-0.030105	-1.067031
C87	C	-1.357101	-0.073820	-1.086982
H88	H	-1.495189	-0.075588	-1.096153
H89	H	-1.453346	-0.030127	-0.993572
H90	H	-1.459595	0.045059	-1.097850
H91	H	-1.346174	-0.148977	-1.056152
H92	H	-1.352426	-0.073812	-1.160437
O93	O	-1.357191	0.000067	-0.762503
C94	C	-1.375283	0.097452	-0.832084
H95	H	-1.304469	0.129929	-0.854496
H96	H	-1.417580	0.165625	-0.792518
C97	C	-1.520540	0.027977	-0.903739
C98	C	-1.433565	0.067861	-0.931272
H99	H	-1.556495	0.009728	-0.964920
H100	H	-1.508354	-0.037631	-0.856858
H101	H	-1.555776	0.084795	-0.870766
H102	H	-1.398326	0.011039	-0.964232
H103	H	-1.445746	0.133460	-0.978160
H104	H	-1.321738	-0.000084	-0.556361
