data_functionalizedCrystal
_audit_creation_method	'MofGen! by Chris Wilmer'
_symmetry_space_group_name_H-M	'P1'
_symmetry_Int_Tables_number	1
_symmetry_cell_setting	triclinic
loop_
_symmetry_equiv_pos_as_xyz
  x,y,z
_cell_length_a	15.944551
_cell_length_b	26.210047
_cell_length_c	15.944551
_cell_angle_alpha	90.003550
_cell_angle_beta	96.501262
_cell_angle_gamma	90.004547
loop_
_atom_site_label
_atom_site_type_symbol
_atom_site_fract_x
_atom_site_fract_y
_atom_site_fract_z
O1	O	1.114531	0.042377	-0.108320
O2	O	0.869981	0.042390	-0.121676
O3	O	0.998934	0.042378	0.007277
O4	O	0.985578	0.042388	-0.237273
O5	O	0.998909	-0.042480	0.007257
O6	O	0.869956	-0.042468	-0.121696
O7	O	1.114506	-0.042481	-0.108340
Cu8	Cu	0.992229	-0.050223	-0.115020
Cu9	Cu	0.992258	0.050132	-0.114996
O10	O	0.985553	-0.042470	-0.237293
C11	C	0.838675	-0.000038	-0.121132
C12	C	0.745429	-0.000033	-0.119470
C13	C	0.530572	-0.000046	-0.035565
C14	C	0.469564	0.041795	-0.074518
C15	C	0.574703	-0.000039	-0.116462
C16	C	0.469562	-0.041869	-0.074557
C17	C	0.409790	-0.000047	-0.113551
C18	C	0.514923	0.041837	-0.155437
C19	C	0.514927	-0.041864	-0.155465
C20	C	0.453937	-0.000013	-0.194476
C21	C	0.669705	-0.000034	-0.118137
C22	C	0.314789	-0.000049	-0.111883
N23	N	0.992214	-0.120807	-0.115036
C24	C	1.049353	-0.473326	-0.057909
C25	C	1.049372	-0.686985	-0.057897
O26	O	1.097920	-0.714611	-0.009329
N27	N	0.992263	-0.713701	-0.114978
C28	C	0.935142	-0.686999	-0.172062
O29	O	0.886562	-0.714625	-0.220606
C30	C	0.935120	-0.473342	-0.172069
C31	C	0.992238	-0.446628	-0.114990
C32	C	1.106466	-0.446612	-0.000834
C33	C	1.106464	-0.393201	-0.000841
C34	C	1.049349	-0.366503	-0.057922
C35	C	0.992236	-0.393217	-0.114997
C36	C	0.877996	-0.446641	-0.229148
C37	C	0.877994	-0.393223	-0.229143
C38	C	0.935112	-0.366510	-0.172065
C39	C	0.935119	-0.313107	-0.172084
N40	N	0.992228	-0.286391	-0.115004
C41	C	1.049342	-0.313089	-0.057923
C42	C	0.935159	-0.799172	-0.172055
C43	C	0.935165	-0.852587	-0.172055
C44	C	1.049394	-0.852568	-0.057889
C45	C	1.049391	-0.799153	-0.057894
C46	C	0.992267	-0.772456	-0.114975
C47	C	1.049334	-0.200921	-0.057941
C48	C	1.049329	-0.147505	-0.057955
C49	C	0.935098	-0.147528	-0.172118
C50	C	0.935105	-0.200939	-0.172107
C51	C	0.992227	-0.227635	-0.115012
O52	O	0.886589	-0.285448	-0.220621
O53	O	1.097902	-0.285453	-0.009373
C54	C	1.049355	-0.526737	-0.057902
C55	C	0.992242	-0.553451	-0.114977
C56	C	0.935128	-0.526753	-0.172058
C57	C	0.992249	-0.606865	-0.114976
C58	C	1.049364	-0.633563	-0.057895
C59	C	1.106472	-0.606847	-0.000814
C60	C	1.106470	-0.553435	-0.000821
C61	C	0.878019	-0.553469	-0.229139
C62	C	0.878026	-0.606881	-0.229128
C63	C	0.935141	-0.633579	-0.172047
C64	C	1.145813	-0.000053	-0.108885
C65	C	1.239059	-0.000054	-0.110547
C66	C	0.998367	-0.000051	0.038561
C67	C	0.996705	-0.000051	0.131807
N68	N	0.992280	0.120715	-0.114973
C69	C	0.986120	-0.000040	-0.268577
C70	C	0.987782	-0.000036	-0.361823
C71	C	0.912801	-0.000039	0.346663
C72	C	0.951751	-0.041882	0.407671
C73	C	0.993698	-0.000047	0.302533
C74	C	0.951794	0.041782	0.407674
C75	C	0.990787	-0.000041	0.467445
C76	C	1.032670	-0.041924	0.362312
C77	C	1.032702	0.041777	0.362309
C78	C	1.071711	-0.000075	0.423298
C79	C	0.995372	-0.000051	0.207530
C80	C	0.989119	-0.000040	0.562446
H81	H	0.420779	0.000013	-0.261683
H82	H	0.888641	-0.777439	-0.218539
H83	H	0.917524	-0.077252	0.427771
H84	H	0.449465	0.077166	-0.040293
H85	H	1.066847	-0.077337	0.342313
H86	H	0.831485	-0.468384	-0.275626
H87	H	0.535048	-0.077237	-0.189661
H88	H	1.152980	-0.628593	0.045661
H89	H	0.534922	0.077248	-0.189619
H90	H	1.095847	-0.222650	-0.011448
H91	H	1.138919	-0.000102	0.456457
H92	H	1.066900	0.077150	0.342187
H93	H	0.888663	-0.874333	-0.218542
C94	C	0.815913	-0.635788	-0.291142
C95	C	0.765882	-0.600968	-0.341112
C96	C	0.708643	-0.627577	-0.398233
H97	H	0.846020	-0.656630	-0.326211
H98	H	0.780903	-0.656611	-0.260919
H99	H	0.800888	-0.580154	-0.371333
H100	H	0.735757	-0.580125	-0.306066
H101	H	0.673633	-0.648400	-0.368009
H102	H	0.738757	-0.648417	-0.433296
H103	H	0.674686	-0.603955	-0.432139
C104	C	1.111444	-0.770108	0.003974
C105	C	1.162879	-0.739426	-0.040757
C106	C	1.220037	-0.712663	0.016223
H107	H	1.081274	-0.749245	0.038956
H108	H	1.145510	-0.793632	0.037981
H109	H	1.128817	-0.715905	-0.074750
H110	H	1.193068	-0.760277	-0.075735
H111	H	1.254103	-0.736187	0.050230
H112	H	1.189860	-0.691803	0.051202
H113	H	1.254947	-0.691846	-0.014118
C114	C	0.906039	0.088932	0.434336
C115	C	0.822897	0.088739	0.395143
C116	C	0.780720	0.132167	0.419670
H117	H	0.905668	0.088802	0.493867
H118	H	0.934195	0.118655	0.418012
H119	H	0.794748	0.059024	0.411472
H120	H	0.823243	0.088877	0.335613
H121	H	0.808876	0.161889	0.403346
H122	H	0.780354	0.132033	0.479201
H123	H	0.724306	0.132044	0.393076
H124	H	0.888603	-0.222690	-0.218594
C125	C	0.574954	0.000111	0.053981
C126	C	0.552113	0.044022	0.095958
C127	C	0.592994	0.044191	0.178441
H128	H	0.558813	-0.029276	0.083109
H129	H	0.634328	-0.000164	0.052327
H130	H	0.492753	0.044292	0.097616
H131	H	0.568256	0.073416	0.066856
H132	H	0.652367	0.043916	0.176787
H133	H	0.576850	0.014802	0.207561
H134	H	0.577508	0.073986	0.206930
C135	C	0.823252	-0.000193	0.302288
C136	C	0.781271	-0.044102	0.325132
C137	C	0.698784	-0.044266	0.284261
H138	H	0.794131	0.029196	0.318435
H139	H	0.824898	0.000084	0.242914
H140	H	0.779620	-0.044373	0.384494
H141	H	0.810366	-0.073497	0.308984
H142	H	0.700430	-0.043989	0.224887
H143	H	0.669671	-0.014876	0.300411
H144	H	0.670292	-0.074060	0.299749
H145	H	1.152972	-0.371454	0.045640
H146	H	0.831475	-0.371489	-0.275624
H147	H	0.449466	-0.077241	-0.040334
H148	H	1.095845	-0.125756	-0.011475
C149	C	0.816144	-0.524424	-0.291167
C150	C	0.860888	-0.493755	-0.342607
C151	C	0.803918	-0.466989	-0.399760
H152	H	0.782116	-0.547932	-0.325238
H153	H	0.781183	-0.503555	-0.260966
H154	H	0.895835	-0.514622	-0.372806
H155	H	0.894913	-0.470237	-0.308559
H156	H	0.768957	-0.446121	-0.369558
H157	H	0.769893	-0.490501	-0.433825
H158	H	0.834269	-0.446174	-0.434663
H159	H	1.152975	-0.468345	0.045652
H160	H	0.888598	-0.125782	-0.218595
C161	C	1.168518	-0.524529	0.061250
C162	C	1.218515	-0.559351	0.111249
C163	C	1.275677	-0.532745	0.168450
H164	H	1.203565	-0.503689	0.031115
H165	H	1.138326	-0.503704	0.096285
H166	H	1.248705	-0.580167	0.076219
H167	H	1.183491	-0.580192	0.141403
H168	H	1.245485	-0.511921	0.203485
H169	H	1.310719	-0.511906	0.138307
H170	H	1.309602	-0.556368	0.202386
C171	C	1.111536	-0.881534	0.003995
C172	C	1.194077	-0.868551	-0.009680
C173	C	1.251336	-0.895231	0.047305
H174	H	1.102519	-0.872802	0.060096
H175	H	1.103410	-0.917175	-0.004188
H176	H	1.202200	-0.832917	-0.001490
H177	H	1.203121	-0.877284	-0.065769
H178	H	1.243210	-0.930872	0.039122
H179	H	1.242312	-0.886497	0.103402
H180	H	1.307347	-0.886429	0.038030
