data_functionalizedCrystal
_audit_creation_method	'MofGen! by Chris Wilmer'
_symmetry_space_group_name_H-M	'P1'
_symmetry_Int_Tables_number	1
_symmetry_cell_setting	triclinic
loop_
_symmetry_equiv_pos_as_xyz
  x,y,z
_cell_length_a	21.295418
_cell_length_b	21.295416
_cell_length_c	21.295411
_cell_angle_alpha	90.019171
_cell_angle_beta	89.956262
_cell_angle_gamma	89.953856
loop_
_atom_site_label
_atom_site_type_symbol
_atom_site_fract_x
_atom_site_fract_y
_atom_site_fract_z
Zn1	Zn	0.962357	0.250415	-0.356244
Zn2	Zn	1.295690	0.583749	-0.022911
Zn3	Zn	1.629023	0.917082	0.310422
Zn4	Zn	0.962259	0.355667	-0.250974
Zn5	Zn	1.295593	0.689000	0.082359
Zn6	Zn	1.628926	1.022334	0.415692
Zn7	Zn	0.857080	0.250445	-0.250954
Zn8	Zn	1.190413	0.583778	0.082379
Zn9	Zn	1.523746	0.917111	0.415712
Zn10	Zn	0.857049	0.355680	-0.356171
Zn11	Zn	1.190383	0.689013	-0.022837
Zn12	Zn	1.523716	1.022346	0.310496
O13	O	0.909686	0.303052	-0.303586
O14	O	1.243020	0.636385	0.029747
O15	O	1.576353	0.969718	0.363081
O16	O	1.050433	0.264360	-0.342319
O17	O	1.383766	0.597693	-0.008986
O18	O	1.717100	0.931026	0.324347
O19	O	0.948279	0.341716	-0.162882
O20	O	1.281612	0.675050	0.170451
O21	O	1.614946	1.008383	0.503784
O22	O	0.871098	0.162351	-0.264944
O23	O	1.204432	0.495685	0.068390
O24	O	1.537765	0.829018	0.401723
O25	O	1.050362	0.341688	-0.264978
O26	O	1.383695	0.675021	0.068355
O27	O	1.717028	1.008354	0.401689
O28	O	0.948445	0.162330	-0.342300
O29	O	1.281778	0.495663	-0.008967
O30	O	1.615111	0.828996	0.324367
O31	O	0.871004	0.264410	-0.162867
O32	O	1.204337	0.597743	0.170466
O33	O	1.537671	0.931077	0.503799
O34	O	0.768986	0.264422	-0.264872
O35	O	1.102320	0.597755	0.068461
O36	O	1.435653	0.931089	0.401794
O37	O	0.871047	0.341709	-0.444270
O38	O	1.204380	0.675042	-0.110937
O39	O	1.537713	1.008376	0.222397
O40	O	0.768964	0.341738	-0.342174
O41	O	1.102297	0.675071	-0.008841
O42	O	1.435631	1.008404	0.324492
O43	O	0.948415	0.264372	-0.444324
O44	O	1.281749	0.597705	-0.110991
O45	O	1.615082	0.931038	0.222343
O46	O	0.948250	0.443758	-0.264906
O47	O	1.281583	0.777091	0.068427
O48	O	1.614916	1.110425	0.401760
O49	O	0.870952	0.443767	-0.342194
O50	O	1.204286	0.777101	-0.008861
O51	O	1.537619	1.110434	0.324473
C52	C	0.746135	0.303085	-0.303513
C53	C	1.079468	0.636418	0.029820
C54	C	1.412801	0.969751	0.363153
C55	C	0.676166	0.303114	-0.303497
C56	C	1.009500	0.636447	0.029836
C57	C	1.342833	0.969781	0.363169
C58	C	0.909604	0.466603	-0.303558
C59	C	1.242938	0.799937	0.029775
C60	C	1.576271	1.133270	0.363109
C61	C	0.909627	0.536571	-0.303567
C62	C	1.242960	0.869905	0.029766
C63	C	1.576293	1.203238	0.363099
C64	C	0.909739	0.303038	-0.467776
C65	C	1.243072	0.636372	-0.134443
C66	C	1.576405	0.969705	0.198890
C67	C	0.909761	0.303033	-0.537744
C68	C	1.243094	0.636366	-0.204411
C69	C	1.576427	0.969699	0.128922
C70	C	0.643305	0.343426	-0.343689
C71	C	0.976638	0.676759	-0.010355
C72	C	1.309971	1.010092	0.322978
C73	C	0.577562	0.343410	-0.343717
C74	C	0.910896	0.676743	-0.010383
C75	C	1.244229	1.010077	0.322950
C76	C	0.544684	0.303090	-0.303543
C77	C	0.878017	0.636423	0.029791
C78	C	1.211351	0.969756	0.363124
C79	C	0.577554	0.262770	-0.263349
C80	C	0.910887	0.596104	0.069985
C81	C	1.244220	0.929437	0.403318
C82	C	0.643295	0.262783	-0.263326
C83	C	0.976628	0.596116	0.070007
C84	C	1.309962	0.929449	0.403340
N85	N	0.441408	0.298163	-0.248485
N86	N	0.774741	0.631496	0.084848
N87	N	1.108075	0.964829	0.418182
N88	N	0.378957	0.298155	-0.248508
N89	N	0.712290	0.631488	0.084825
N90	N	1.045623	0.964821	0.418158
C91	C	0.346609	0.303050	-0.303609
C92	C	0.679943	0.636383	0.029724
C93	C	1.013276	0.969716	0.363057
N94	N	0.379073	0.307965	-0.358688
N95	N	0.712406	0.641298	-0.025354
N96	N	1.045739	0.974632	0.307979
N97	N	0.441530	0.307976	-0.358664
N98	N	0.774863	0.641309	-0.025330
N99	N	1.108197	0.974643	0.308003
C100	C	0.473399	0.303072	-0.303563
C101	C	0.806732	0.636405	0.029770
C102	C	1.140065	0.969738	0.363104
C103	C	0.242462	0.343346	-0.343835
C104	C	0.575795	0.676680	-0.010501
C105	C	0.909129	1.010013	0.322832
C106	C	0.176718	0.343326	-0.343864
C107	C	0.510052	0.676660	-0.010531
C108	C	0.843385	1.009993	0.322803
C109	C	0.176711	0.262690	-0.263490
C110	C	0.510044	0.596023	0.069843
C111	C	0.843378	0.929357	0.403176
C112	C	0.242454	0.262707	-0.263467
C113	C	0.575787	0.596040	0.069867
C114	C	0.909120	0.929373	0.403200
C115	C	0.275325	0.303038	-0.303638
C116	C	0.608658	0.636372	0.029695
C117	C	0.941992	0.969705	0.363029
C118	C	1.073877	0.303019	-0.303659
C119	C	1.407210	0.636352	0.029674
C120	C	1.740543	0.969686	0.363008
C121	C	1.143845	0.303005	-0.303690
C122	C	1.477178	0.636338	0.029643
C123	C	1.810511	0.969672	0.362976
C124	C	0.949911	0.569412	-0.263366
C125	C	1.283245	0.902746	0.069967
C126	C	1.616578	1.236079	0.403300
C127	C	0.949941	0.635155	-0.263383
C128	C	1.283274	0.968488	0.069950
C129	C	1.616608	1.301822	0.403283
C130	C	0.909675	0.668054	-0.303595
C131	C	1.243008	1.001387	0.029739
C132	C	1.576342	1.334721	0.363072
C133	C	0.869388	0.635205	-0.343803
C134	C	1.202721	0.968538	-0.010470
C135	C	1.536054	1.301872	0.322863
C136	C	0.869363	0.569464	-0.343790
C137	C	1.202697	0.902797	-0.010456
C138	C	1.536030	1.236130	0.322877
N139	N	0.854608	0.771336	-0.308374
N140	N	1.187942	1.104669	0.024960
N141	N	1.521275	1.438002	0.358293
N142	N	0.854633	0.833787	-0.308383
N143	N	1.187966	1.167120	0.024950
N144	N	1.521300	1.500454	0.358284
C145	C	0.909746	0.866129	-0.303639
C146	C	1.243079	1.199462	0.029694
C147	C	1.576413	1.532795	0.363027
N148	N	0.964835	0.833659	-0.298874
N149	N	1.298168	1.166993	0.034460
N150	N	1.631502	1.500326	0.367793
N151	N	0.964809	0.771202	-0.298861
N152	N	1.298143	1.104535	0.034472
N153	N	1.631476	1.437869	0.367806
C154	C	0.909697	0.739339	-0.303614
C155	C	1.243030	1.072673	0.029719
C156	C	1.576364	1.406006	0.363052
C157	C	0.950066	0.970255	-0.263455
C158	C	1.283400	1.303588	0.069879
C159	C	1.616733	1.636922	0.403212
C160	C	0.950097	1.035999	-0.263476
C161	C	1.283430	1.369332	0.069857
C162	C	1.616764	1.702665	0.403190
C163	C	0.869538	1.036048	-0.343893
C164	C	1.202871	1.369381	-0.010560
C165	C	1.536205	1.702714	0.322774
C166	C	0.869513	0.970305	-0.343875
C167	C	1.202846	1.303638	-0.010541
C168	C	1.536179	1.636972	0.322792
C169	C	0.909776	0.937413	-0.303652
C170	C	1.243109	1.270746	0.029681
C171	C	1.576443	1.604079	0.363014
C172	C	0.909787	1.138861	-0.303639
C173	C	1.243120	1.472195	0.029695
C174	C	1.576453	1.805528	0.363028
C175	C	0.909831	1.068893	-0.303689
C176	C	1.243165	1.402227	0.029645
C177	C	1.576498	1.735560	0.362978
C178	C	0.950045	0.262761	-0.570640
C179	C	1.283378	0.596095	-0.237307
C180	C	1.616712	0.929428	0.096026
C181	C	0.950044	0.262734	-0.636383
C182	C	1.283377	0.596067	-0.303049
C183	C	1.616711	0.929401	0.030284
C184	C	0.909766	0.302989	-0.669227
C185	C	1.243099	0.636323	-0.335894
C186	C	1.576432	0.969656	-0.002560
C187	C	0.869474	0.343263	-0.636323
C188	C	1.202807	0.676597	-0.302990
C189	C	1.536140	1.009930	0.030343
C190	C	0.869471	0.343285	-0.570582
C191	C	1.202805	0.676618	-0.237249
C192	C	1.536138	1.009952	0.096085
N193	N	0.904909	0.358058	-0.772443
N194	N	1.238242	0.691392	-0.439110
N195	N	1.571576	1.024725	-0.105776
N196	N	0.904915	0.358036	-0.834895
N197	N	1.238248	0.691369	-0.501561
N198	N	1.571582	1.024703	-0.168228
C199	C	0.909770	0.302926	-0.867302
C200	C	1.243103	0.636259	-0.533969
C201	C	1.576436	0.969592	-0.200635
N202	N	0.914630	0.247837	-0.834898
N203	N	1.247964	0.581170	-0.501565
N204	N	1.581297	0.914504	-0.168232
N205	N	0.914627	0.247860	-0.772441
N206	N	1.247961	0.581193	-0.439108
N207	N	1.581294	0.914527	-0.105774
C208	C	0.909764	0.302970	-0.740512
C209	C	1.243097	0.636303	-0.407179
C210	C	1.576430	0.969637	-0.073846
C211	C	0.950055	0.262621	-0.971483
C212	C	1.283388	0.595955	-0.638150
C213	C	1.616722	0.929288	-0.304817
C214	C	0.950050	0.262593	-1.037227
C215	C	1.283383	0.595926	-0.703894
C216	C	1.616716	0.929260	-0.370560
C217	C	0.869483	0.343128	-1.037166
C218	C	1.202816	0.676461	-0.703833
C219	C	1.536149	1.009795	-0.370500
C220	C	0.869485	0.343151	-0.971424
C221	C	1.202818	0.676484	-0.638090
C222	C	1.536151	1.009817	-0.304757
C223	C	0.909774	0.302898	-0.938586
C224	C	1.243107	0.636231	-0.605253
C225	C	1.576441	0.969565	-0.271920
C226	C	0.909670	0.303019	-0.140034
C227	C	1.243004	0.636353	0.193299
C228	C	1.576337	0.969686	0.526632
C229	C	0.909770	0.302848	-0.070067
C230	C	1.243104	0.636181	0.263267
C231	C	1.576437	0.969514	0.596600
H232	H	0.670065	0.376266	-0.376400
H233	H	1.003398	0.709599	-0.043067
H234	H	1.336731	1.042933	0.290267
H235	H	0.836707	0.943564	-0.376607
H236	H	1.170040	1.276898	-0.043274
H237	H	1.503373	1.610231	0.290059
H238	H	0.982851	0.229984	-0.543908
H239	H	1.316184	0.563317	-0.210575
H240	H	1.649518	0.896651	0.122759
F241	F	0.277449	0.386267	-0.386591
F242	F	0.610782	0.719600	-0.053257
F243	F	0.944115	1.052934	0.280076
F244	F	0.826610	0.385966	-1.072117
F245	F	1.159944	0.719300	-0.738784
F246	F	1.493277	1.052633	-0.405450
H247	H	0.836604	0.661996	-0.376545
H248	H	1.169937	0.995329	-0.043211
H249	H	1.503270	1.328662	0.290122
F250	F	0.542581	0.386317	-0.386496
F251	F	0.875914	0.719650	-0.053162
F252	F	1.209248	1.052983	0.280171
F253	F	0.542562	0.219856	-0.220595
F254	F	0.875895	0.553189	0.112738
F255	F	1.209228	0.886523	0.446071
H256	H	0.982858	0.229842	-0.944745
H257	H	1.316191	0.563175	-0.611412
H258	H	1.649524	0.896508	-0.278079
F259	F	0.992911	0.219860	-0.671400
F260	F	1.326245	0.553193	-0.338067
F261	F	1.659578	0.886526	-0.004733
F262	F	0.992935	0.219735	-1.072237
F263	F	1.326269	0.553069	-0.738904
F264	F	1.659602	0.886402	-0.405570
F265	F	0.678270	0.219875	-0.220548
F266	F	1.011603	0.553209	0.112786
F267	F	1.344937	0.886542	0.446119
H268	H	0.836677	0.376038	-0.663069
H269	H	1.170010	0.709371	-0.329736
H270	H	1.503343	1.042704	0.003597
H271	H	0.982905	1.062737	-0.230741
H272	H	1.316239	1.396070	0.102592
H273	H	1.649572	1.729403	0.435926
H274	H	0.836755	1.062833	-0.376636
H275	H	1.170089	1.396167	-0.043303
H276	H	1.503422	1.729500	0.290030
H277	H	0.982748	0.661899	-0.230647
H278	H	1.316081	0.995233	0.102686
H279	H	1.649414	1.328566	0.436019
H280	H	0.836685	0.375948	-0.944640
H281	H	1.170018	0.709281	-0.611306
H282	H	1.503351	1.042614	-0.277973
F283	F	0.826593	0.386149	-0.535571
F284	F	1.159927	0.719483	-0.202237
F285	F	1.493260	1.052816	0.131096
F286	F	0.141745	0.386231	-0.386647
F287	F	0.475078	0.719564	-0.053313
F288	F	0.808411	1.052897	0.280020
H289	H	0.149942	0.229857	-0.230783
H290	H	0.483276	0.563191	0.102551
H291	H	0.816609	0.896524	0.435884
H292	H	0.269210	0.229884	-0.230736
H293	H	0.602543	0.563217	0.102598
H294	H	0.935877	0.896550	0.435931
F295	F	0.826485	0.534511	-0.386579
F296	F	1.159818	0.867844	-0.053246
F297	F	1.493152	1.201178	0.280088
F298	F	0.992770	0.534410	-0.220565
F299	F	1.326104	0.867743	0.112768
F300	F	1.659437	1.201076	0.446102
H301	H	0.982853	0.943473	-0.230705
H302	H	1.316186	1.276806	0.102628
H303	H	1.649520	1.610140	0.435962
