data_functionalizedCrystal
_audit_creation_method	'MofGen! by Chris Wilmer'
_symmetry_space_group_name_H-M	'P1'
_symmetry_Int_Tables_number	1
_symmetry_cell_setting	triclinic
loop_
_symmetry_equiv_pos_as_xyz
  x,y,z
_cell_length_a	14.044191
_cell_length_b	14.044190
_cell_length_c	10.868271
_cell_angle_alpha	89.990065
_cell_angle_beta	89.998192
_cell_angle_gamma	93.191777
loop_
_atom_site_label
_atom_site_type_symbol
_atom_site_fract_x
_atom_site_fract_y
_atom_site_fract_z
O1	O	1.277178	0.230201	-0.102288
O2	O	1.777178	0.730201	0.397712
O3	O	1.000505	0.221889	-0.102303
O4	O	1.500505	0.721889	0.397697
O5	O	1.134685	0.087709	-0.102272
O6	O	1.634685	0.587709	0.397728
O7	O	1.142998	0.364381	-0.102320
O8	O	1.642998	0.864381	0.397680
O9	O	1.134673	0.087702	0.102373
O10	O	1.634673	0.587702	0.602373
O11	O	1.000493	0.221882	0.102342
O12	O	1.500493	0.721882	0.602342
O13	O	1.277166	0.230195	0.102356
O14	O	1.777166	0.730195	0.602356
Zn15	Zn	1.138827	0.226037	0.134841
Zn16	Zn	1.638827	0.726037	0.634841
Zn17	Zn	1.138844	0.226046	-0.134787
Zn18	Zn	1.638844	0.726046	0.365213
O19	O	1.142986	0.364375	0.102325
O20	O	1.642986	0.864375	0.602325
C21	C	0.964877	0.218249	0.000018
C22	C	1.464877	0.718249	0.500018
C23	C	0.858734	0.207401	0.000013
C24	C	1.358734	0.707401	0.500013
C25	C	0.613277	0.264502	0.000016
C26	C	1.113277	0.764502	0.500016
C27	C	0.664400	0.187585	0.000027
C28	C	1.164400	0.687585	0.500027
C29	C	0.772537	0.198614	0.000019
C30	C	1.272537	0.698614	0.500019
C31	C	0.505130	0.253475	0.000023
C32	C	1.005130	0.753475	0.500023
C33	C	1.131043	0.052083	0.000054
C34	C	1.631043	0.552083	0.500054
C35	C	1.120195	-0.054060	0.000064
C36	C	1.620195	0.445940	0.500064
C37	C	1.177296	-0.299517	0.000019
C38	C	1.677296	0.200483	0.500019
C39	C	1.100379	-0.248394	0.000024
C40	C	1.600379	0.251606	0.500024
C41	C	1.111408	-0.140257	0.000046
C42	C	1.611408	0.359743	0.500046
C43	C	1.166269	-0.407664	-0.000004
C44	C	1.666269	0.092336	0.499996
C45	C	1.312794	0.233834	0.000033
C46	C	1.812794	0.733834	0.500033
C47	C	1.418937	0.244682	0.000029
C48	C	1.918937	0.744682	0.500029
C49	C	1.146628	0.400000	-0.000003
C50	C	1.646628	0.900000	0.499997
C51	C	1.157476	0.506143	-0.000022
C52	C	1.657476	1.006143	0.499978
N53	N	1.138823	0.226031	0.318855
N54	N	1.638823	0.726031	0.818855
N55	N	1.138855	0.226045	-0.318801
N56	N	1.638855	0.726045	0.181199
C57	C	1.138839	0.226044	0.569861
C58	C	1.638839	0.726044	1.069861
C59	C	1.138827	0.226039	0.430183
C60	C	1.638827	0.726039	0.930183
H61	H	0.650720	0.338629	-0.000001
H62	H	1.150720	0.838629	0.499999
N63	N	1.007371	-0.295345	0.000030
N64	N	1.507371	0.204655	0.500030
N65	N	0.935049	-0.247340	0.000047
N66	N	1.435049	0.252660	0.500047
H67	H	0.869363	-0.280502	0.000056
H68	H	1.369363	0.219498	0.500056
N69	N	0.617418	0.094591	0.000055
N70	N	1.117418	0.594591	0.500055
N71	N	0.528367	0.085645	0.000064
N72	N	1.028367	0.585645	0.500064
H73	H	0.495181	0.019971	0.000084
H74	H	0.995181	0.519971	0.500084
N75	N	1.270284	-0.252536	0.000032
N76	N	1.770284	0.247464	0.500032
N77	N	1.279221	-0.163484	0.000052
N78	N	1.779221	0.336516	0.500052
H79	H	1.344893	-0.130292	0.000064
H80	H	1.844893	0.369708	0.500064
