data_functionalizedCrystal
_audit_creation_method	'MofGen! by Chris Wilmer'
_symmetry_space_group_name_H-M	'P1'
_symmetry_Int_Tables_number	1
_symmetry_cell_setting	triclinic
loop_
_symmetry_equiv_pos_as_xyz
  x,y,z
_cell_length_a	12.759395
_cell_length_b	16.959453
_cell_length_c	12.759387
_cell_angle_alpha	89.965592
_cell_angle_beta	89.979491
_cell_angle_gamma	90.021525
loop_
_atom_site_label
_atom_site_type_symbol
_atom_site_fract_x
_atom_site_fract_y
_atom_site_fract_z
Zn1	Zn	1.606230	-0.314607	-0.593979
Zn2	Zn	1.606104	-0.446808	-0.418288
Zn3	Zn	1.430528	-0.314651	-0.418316
Zn4	Zn	1.430504	-0.446751	-0.593927
O5	O	1.518342	-0.380704	-0.506127
O6	O	1.753235	-0.332150	-0.570683
O7	O	1.582771	-0.429318	-0.271271
O8	O	1.453898	-0.204034	-0.441651
O9	O	1.753142	-0.429276	-0.441604
O10	O	1.582985	-0.204002	-0.570710
O11	O	1.453776	-0.332223	-0.271291
O12	O	1.283504	-0.332169	-0.441601
O13	O	1.453857	-0.429181	-0.740955
O14	O	1.283486	-0.429222	-0.570622
O15	O	1.582962	-0.332095	-0.740993
O16	O	1.582748	-0.557411	-0.441554
O17	O	1.453736	-0.557370	-0.570595
C18	C	1.245374	-0.380695	-0.506109
C19	C	1.128598	-0.380710	-0.506127
C20	C	1.128618	-0.481935	-0.640259
C21	C	1.073767	-0.532554	-0.707328
C22	C	0.964046	-0.532564	-0.707341
C23	C	0.909172	-0.481947	-0.640280
C24	C	0.964023	-0.431328	-0.573210
C25	C	1.073747	-0.431326	-0.573203
C26	C	0.964003	-0.330100	-0.439085
C27	C	1.073724	-0.330093	-0.439065
C28	C	0.909129	-0.279483	-0.372024
C29	C	0.963980	-0.228867	-0.304948
C30	C	1.073708	-0.228860	-0.304937
C31	C	1.128575	-0.279474	-0.371996
C32	C	1.518254	-0.586071	-0.506089
C33	C	1.518313	-0.673927	-0.506108
C34	C	1.585644	-1.045328	-0.573455
C35	C	1.451333	-1.045478	-0.438956
C36	C	1.451294	-0.962932	-0.438931
C37	C	1.518430	-0.921580	-0.506171
C38	C	1.585605	-0.962774	-0.573435
C39	C	1.384114	-0.921731	-0.371676
C40	C	1.384071	-0.839181	-0.371650
C41	C	1.451213	-0.797827	-0.438886
C42	C	1.518391	-0.839027	-0.506152
C43	C	1.585526	-0.797675	-0.573391
C44	C	1.652711	-0.838872	-0.640653
C45	C	1.652746	-0.921421	-0.640671
C46	C	1.451177	-0.715279	-0.438868
C47	C	1.585487	-0.715121	-0.573372
C48	C	1.792375	-0.380714	-0.506146
C49	C	1.909152	-0.380719	-0.506154
C50	C	1.518421	-0.380627	-0.780161
C51	C	1.518455	-0.380594	-0.896938
C52	C	1.518458	-0.174536	-0.506189
C53	C	1.518508	-0.086679	-0.506215
C54	C	1.652901	-0.279505	-0.896997
C55	C	1.720139	-0.228949	-0.951887
C56	C	1.720164	-0.228920	-1.061609
C57	C	1.652943	-0.279451	-1.116443
C58	C	1.585705	-0.330007	-1.061552
C59	C	1.585689	-0.330032	-0.951828
C60	C	1.451255	-0.431091	-1.061493
C61	C	1.451233	-0.431125	-0.951772
C62	C	1.384034	-0.481622	-1.116327
C63	C	1.316800	-0.532183	-1.061437
C64	C	1.316778	-0.532211	-0.951708
C65	C	1.383996	-0.481681	-0.896881
C66	C	1.518323	-0.380724	-0.233160
C67	C	1.518493	-0.380535	-0.116384
H68	H	0.819831	-0.481953	-0.640305
C69	C	1.310159	-0.793871	-0.297671
N70	N	1.254485	-0.759743	-0.241951
C71	C	0.788432	-0.279488	-0.372050
N72	N	0.697522	-0.279490	-0.372069
C73	C	1.794129	-0.173307	-1.121990
N74	N	1.849840	-0.131419	-1.167469
H75	H	1.652961	-0.279417	-1.205784
H76	H	1.118361	-0.187634	-0.250328
C77	C	1.726636	-0.966744	-0.714658
N78	N	1.782286	-1.000885	-0.770387
H79	H	1.262068	-0.573317	-1.106091
C80	C	1.249272	-0.279476	-0.371984
N81	N	1.340182	-0.279480	-0.371978
H82	H	0.919293	-0.187655	-0.250357
H83	H	1.329453	-0.955406	-0.316936
C84	C	1.384073	-0.481595	-1.237024
N85	N	1.384107	-0.481581	-1.327934
H86	H	0.919386	-0.573778	-0.761960
H87	H	1.262013	-0.573371	-0.907023
C88	C	1.659347	-0.669641	-0.647339
N89	N	1.714979	-0.635386	-0.703051
H90	H	1.652897	-0.279531	-0.807656
H91	H	1.396472	-0.681740	-0.384109
C92	C	1.794078	-0.173367	-0.891562
N93	N	1.849767	-0.131501	-0.846128
H94	H	1.707368	-0.805194	-0.695405
C95	C	1.134136	-0.588233	-0.781088
N96	N	1.179603	-0.630171	-0.836642
H97	H	1.640346	-1.078874	-0.628215
H98	H	1.396670	-1.079151	-0.384216
H99	H	1.217959	-0.481938	-0.640247
C100	C	1.383976	-0.481705	-0.776184
N101	N	1.383961	-0.481718	-0.685274
