data_functionalizedCrystal
_audit_creation_method	'MofGen! by Chris Wilmer'
_symmetry_space_group_name_H-M	'P1'
_symmetry_Int_Tables_number	1
_symmetry_cell_setting	triclinic
loop_
_symmetry_equiv_pos_as_xyz
  x,y,z
_cell_length_a	17.038272
_cell_length_b	10.654550
_cell_length_c	9.730223
_cell_angle_alpha	90.000193
_cell_angle_beta	90.001594
_cell_angle_gamma	92.201771
loop_
_atom_site_label
_atom_site_type_symbol
_atom_site_fract_x
_atom_site_fract_y
_atom_site_fract_z
O1	O	1.038886	-0.272859	-0.114229
O2	O	0.811231	-0.268526	-0.114244
O3	O	0.930293	-0.088439	-0.114231
O4	O	0.919825	-0.452946	-0.114242
O5	O	0.930292	-0.088444	0.114349
O6	O	0.811230	-0.268531	0.114336
O7	O	1.038885	-0.272864	0.114350
Zn8	Zn	0.925057	-0.270698	0.150635
Zn9	Zn	0.925059	-0.270692	-0.150529
O10	O	0.919823	-0.452950	0.114338
C11	C	0.782081	-0.264588	0.000044
C12	C	0.695222	-0.252831	0.000038
C13	C	0.929524	-0.041572	0.000057
C14	C	0.927224	0.098084	0.000052
C15	C	1.068036	-0.276802	0.000059
C16	C	1.154895	-0.288559	0.000056
C17	C	1.204406	-0.180615	0.000055
C18	C	1.286018	-0.191669	0.000059
C19	C	1.318118	-0.310669	0.000056
C20	C	1.268600	-0.418622	0.000061
C21	C	1.186989	-0.407566	0.000066
C22	C	1.564094	-0.349727	0.000049
C23	C	1.645711	-0.360775	0.000039
C24	C	1.663123	-0.133822	0.000040
C25	C	1.581510	-0.122776	0.000037
C26	C	1.532000	-0.230729	0.000050
C27	C	1.401538	-0.321972	0.000056
C28	C	1.448581	-0.219425	0.000059
C29	C	0.920593	-0.499817	0.000046
C30	C	0.922892	-0.639474	0.000042
N31	N	0.925062	-0.270702	0.356171
C32	C	0.997326	0.171061	0.000061
C33	C	0.995160	0.302283	0.000051
C34	C	0.852785	0.287540	0.000029
C35	C	0.854952	0.156320	0.000029
C36	C	1.079525	0.179574	0.000079
C37	C	1.077359	0.310796	0.000069
N38	N	0.925061	-0.270678	-0.356065
C39	C	0.977796	-0.190990	0.428103
C40	C	0.977794	-0.190974	0.571986
C41	C	0.872321	-0.350394	0.571993
C42	C	0.872320	-0.350402	0.428113
C43	C	1.038692	-0.098954	0.428100
C44	C	1.038690	-0.098938	0.571983
H45	H	1.178277	-0.083713	0.000049
H46	H	1.095490	-0.134816	0.383477
H47	H	1.523791	-0.437630	0.000052
Br48	Br	1.445109	-0.483468	0.000038
Br49	Br	1.123133	0.116124	0.164591
H50	H	1.326327	-0.103769	0.000064
Br51	Br	1.119794	-0.554067	0.000084
H52	H	1.108330	0.349678	0.095730
Br53	Br	0.759810	0.057283	-0.000025
H54	H	1.422442	-0.122536	0.000047
H55	H	1.102202	0.354134	-0.098624
Br56	Br	0.754706	0.366582	-0.000009
H57	H	1.019684	-0.005951	0.616600
H58	H	1.671842	-0.457684	0.000056
Br59	Br	0.800737	-0.458562	0.330487
H60	H	0.829379	-0.415283	0.630583
Br61	Br	1.537953	0.038729	-0.000018
Br62	Br	1.312162	-0.580124	0.000063
Br63	Br	1.133113	0.125656	-0.159339
H64	H	1.025336	-0.001181	0.389048
H65	H	1.703443	-0.045933	0.000032
Br66	Br	1.138887	-0.144090	0.637090
