data_functionalizedCrystal
_audit_creation_method	'MofGen! by Chris Wilmer'
_symmetry_space_group_name_H-M	'P1'
_symmetry_Int_Tables_number	1
_symmetry_cell_setting	triclinic
loop_
_symmetry_equiv_pos_as_xyz
  x,y,z
_cell_length_a	17.077404
_cell_length_b	17.077403
_cell_length_c	17.077396
_cell_angle_alpha	89.982408
_cell_angle_beta	90.019501
_cell_angle_gamma	89.999063
loop_
_atom_site_label
_atom_site_type_symbol
_atom_site_fract_x
_atom_site_fract_y
_atom_site_fract_z
Zn1	Zn	-1.200176	-0.312503	-0.443902
Zn2	Zn	-1.200133	-0.443778	-0.312661
Zn3	Zn	-1.068907	-0.312531	-0.312650
Zn4	Zn	-1.068926	-0.443732	-0.443885
O5	O	-1.134536	-0.378136	-0.378275
O6	O	-1.310017	-0.329925	-0.426505
O7	O	-1.182701	-0.426399	-0.202813
O8	O	-1.086330	-0.202680	-0.330064
O9	O	-1.309986	-0.426372	-0.330082
O10	O	-1.182772	-0.202660	-0.426494
O11	O	-1.086289	-0.329972	-0.202805
O12	O	-0.959063	-0.329927	-0.330047
O13	O	-1.086362	-0.426293	-0.553734
O14	O	-0.959077	-0.426320	-0.426464
O15	O	-1.182791	-0.329880	-0.553747
O16	O	-1.182719	-0.553619	-0.330065
O17	O	-1.086321	-0.553585	-0.426475
C18	C	-0.930588	-0.378122	-0.378253
C19	C	-0.843338	-0.378135	-0.378262
C20	C	-1.134539	-0.582084	-0.378287
C21	C	-1.134612	-0.669334	-0.378318
C22	C	-1.134583	-0.378078	-0.583019
C23	C	-1.134603	-0.378054	-0.670269
C24	C	-1.339280	-0.378151	-0.378297
C25	C	-1.426530	-0.378157	-0.378306
C26	C	-0.802376	-0.428402	-0.428386
C27	C	-0.720395	-0.428404	-0.428399
C28	C	-0.679379	-0.378141	-0.378283
C29	C	-0.720347	-0.327868	-0.328156
C30	C	-0.802326	-0.327863	-0.328148
C31	C	-0.549477	-0.327884	-0.328175
C32	C	-0.467492	-0.327890	-0.328182
C33	C	-0.467546	-0.428424	-0.428426
C34	C	-0.549525	-0.428419	-0.428418
C35	C	-0.590488	-0.378147	-0.378290
C36	C	-1.134554	-0.173392	-0.378280
C37	C	-1.134562	-0.086142	-0.378282
C38	C	-1.084356	-0.045161	-0.328078
C39	C	-1.084362	0.036819	-0.328088
C40	C	-1.134578	0.077817	-0.378298
C41	C	-1.184786	0.036831	-0.428507
C42	C	-1.184775	-0.045148	-0.428501
C43	C	-1.184806	0.207701	-0.428516
C44	C	-1.184818	0.289686	-0.428521
C45	C	-1.084392	0.289668	-0.328103
C46	C	-1.084382	0.207689	-0.328097
C47	C	-1.134591	0.166708	-0.378305
C48	C	-1.184815	-0.327847	-0.711267
C49	C	-1.184825	-0.327821	-0.793247
C50	C	-1.134626	-0.378006	-0.834228
C51	C	-1.084408	-0.428214	-0.793224
C52	C	-1.084395	-0.428236	-0.711245
C53	C	-1.084440	-0.428167	-0.964094
C54	C	-1.084453	-0.428147	-1.046079
C55	C	-1.184869	-0.327752	-1.046096
C56	C	-1.184856	-0.327774	-0.964117
C57	C	-1.134640	-0.377984	-0.923119
C58	C	-1.134534	-0.378137	-0.174327
C59	C	-1.134665	-0.377940	-0.087077
H60	H	-0.687047	-0.469337	-0.469214
H61	H	-0.582919	-0.469351	-0.469222
C62	C	-1.029749	0.334055	-0.273636
C63	C	-0.952085	0.314107	-0.290698
C64	C	-0.901732	0.354975	-0.240530
H65	H	-1.036835	0.388763	-0.280780
H66	H	-1.041183	0.320589	-0.220883
H67	H	-0.940655	0.327578	-0.343439
H68	H	-0.944974	0.259406	-0.283550
H69	H	-0.913166	0.341508	-0.187777
H70	H	-0.908825	0.409680	-0.247678
H71	H	-0.849032	0.341440	-0.252095
C72	C	-1.239516	-0.273332	-1.090568
C73	C	-1.317180	-0.290450	-1.070664
C74	C	-1.367541	-0.240347	-1.111629
H75	H	-1.228137	-0.220564	-1.077166
H76	H	-1.232382	-0.280511	-1.145268
H77	H	-1.324310	-0.283264	-1.015976
H78	H	-1.328583	-0.343209	-1.084068
H79	H	-1.360407	-0.247526	-1.166328
H80	H	-1.356155	-0.187582	-1.098223
H81	H	-1.420241	-0.251959	-1.098135
C82	C	-1.239222	-0.273226	-0.919531
C83	C	-1.194759	-0.222939	-0.872457
C84	C	-1.244808	-0.172677	-0.831369
H85	H	-1.269139	-0.243245	-0.955605
H86	H	-1.273411	-0.303229	-0.887504
H87	H	-1.160584	-0.192940	-0.904482
H88	H	-1.164843	-0.252900	-0.836368
H89	H	-1.278997	-0.202680	-0.799342
H90	H	-1.274723	-0.142701	-0.867449
H91	H	-1.214647	-0.138557	-0.799420
C92	C	-1.239332	-0.089741	-0.482883
C93	C	-1.289619	-0.136839	-0.438448
C94	C	-1.339878	-0.177934	-0.488524
H95	H	-1.269313	-0.053671	-0.512804
H96	H	-1.209327	-0.121752	-0.517068
H97	H	-1.319621	-0.104831	-0.404277
H98	H	-1.259658	-0.172924	-0.408529
H99	H	-1.309873	-0.209945	-0.522709
H100	H	-1.369854	-0.141858	-0.518442
H101	H	-1.373998	-0.209900	-0.458383
H102	H	-1.225708	0.323062	-0.469408
C103	C	-0.422873	-0.273242	-0.273919
C104	C	-0.375827	-0.223013	-0.318478
C105	C	-0.334713	-0.172654	-0.268524
H106	H	-0.458931	-0.243222	-0.244064
H107	H	-0.390824	-0.303177	-0.239668
H108	H	-0.407873	-0.193080	-0.352715
H109	H	-0.339755	-0.253010	-0.348331
H110	H	-0.302664	-0.202589	-0.234273
H111	H	-0.370776	-0.142640	-0.238672
H112	H	-0.302782	-0.138573	-0.298749
H113	H	-1.043499	-0.469111	-0.677866
C114	C	-1.029820	-0.482733	-0.837574
C115	C	-0.985828	-0.526691	-0.784120
C116	C	-0.935527	-0.576917	-0.824943
H117	H	-1.059763	-0.516999	-0.869559
H118	H	-0.995583	-0.452712	-0.869534
H119	H	-1.020060	-0.556709	-0.752173
H120	H	-0.955869	-0.492446	-0.752133
H121	H	-0.901291	-0.546897	-0.856903
H122	H	-0.965477	-0.611178	-0.856927
H123	H	-0.905668	-0.606744	-0.788681
H124	H	-1.043496	0.174311	-0.287207
H125	H	-0.686945	-0.286941	-0.287354
C126	C	-1.029862	-0.482658	-1.090433
C127	C	-0.985862	-0.526615	-1.036985
C128	C	-0.935557	-0.576832	-1.077815
H129	H	-1.059803	-0.516926	-1.122419
H130	H	-0.995631	-0.452631	-1.122393
H131	H	-1.020088	-0.556640	-1.005039
H132	H	-0.955905	-0.492368	-1.004997
H133	H	-0.901326	-0.546805	-1.109775
H134	H	-0.965504	-0.611095	-1.109800
H135	H	-0.905691	-0.606658	-1.041557
H136	H	-0.835765	-0.469334	-0.469194
C137	C	-0.594055	-0.273434	-0.273704
C138	C	-0.641113	-0.317819	-0.223335
C139	C	-0.682199	-0.267693	-0.173151
H140	H	-0.557980	-0.243483	-0.243779
H141	H	-0.626094	-0.239280	-0.303760
H142	H	-0.609077	-0.351959	-0.193282
H143	H	-0.677202	-0.347769	-0.253239
H144	H	-0.714238	-0.233539	-0.203207
H145	H	-0.646119	-0.237744	-0.143231
H146	H	-0.714138	-0.297800	-0.138975
H147	H	-1.225696	-0.286983	-0.677906
H148	H	-0.434191	-0.469355	-0.469244
H149	H	-0.835676	-0.286926	-0.287336
C150	C	-1.029748	-0.089528	-0.273533
C151	C	-0.985766	-0.036088	-0.229586
C152	C	-0.935442	-0.076927	-0.179340
H153	H	-1.059674	-0.121522	-0.239261
H154	H	-0.995506	-0.121480	-0.303539
H155	H	-1.020003	-0.004149	-0.199583
H156	H	-0.955824	-0.004091	-0.263838
H157	H	-0.901200	-0.108879	-0.209345
H158	H	-0.965374	-0.108920	-0.145072
H159	H	-0.905589	-0.040674	-0.149521
H160	H	-1.225714	-0.286940	-0.826624
H161	H	-1.043535	-0.469041	-0.930716
H162	H	-1.043480	0.070186	-0.287209
C163	C	-1.239394	0.163347	-0.483067
C164	C	-1.283385	0.216796	-0.527030
C165	C	-1.333683	0.175966	-0.577283
H166	H	-1.209448	0.131380	-0.517330
H167	H	-1.273630	0.131368	-0.453067
H168	H	-1.249153	0.248761	-0.557028
H169	H	-1.313347	0.248764	-0.492788
H170	H	-1.367920	0.143987	-0.547283
H171	H	-1.303731	0.144000	-0.611541
H172	H	-1.363543	0.212224	-0.607113
H173	H	-1.225670	0.070216	-0.469393
