data_functionalizedCrystal
_audit_creation_method	'MofGen! by Chris Wilmer'
_symmetry_space_group_name_H-M	'P1'
_symmetry_Int_Tables_number	1
_symmetry_cell_setting	triclinic
loop_
_symmetry_equiv_pos_as_xyz
  x,y,z
_cell_length_a	12.827893
_cell_length_b	19.121063
_cell_length_c	12.827885
_cell_angle_alpha	92.403967
_cell_angle_beta	89.980728
_cell_angle_gamma	92.468878
loop_
_atom_site_label
_atom_site_type_symbol
_atom_site_fract_x
_atom_site_fract_y
_atom_site_fract_z
Zn1	Zn	1.579835	-0.279579	-0.608539
Zn2	Zn	2.079835	0.220421	-0.108539
Zn3	Zn	1.572236	-0.397046	-0.441232
Zn4	Zn	2.072236	0.102954	0.058768
Zn5	Zn	1.405075	-0.279614	-0.433815
Zn6	Zn	1.905075	0.220386	0.066185
Zn7	Zn	1.397572	-0.396994	-0.615928
Zn8	Zn	1.897572	0.103006	-0.115928
O9	O	1.488680	-0.338308	-0.524878
O10	O	1.988680	0.161692	-0.024878
O11	O	1.725063	-0.295169	-0.586357
O12	O	2.225063	0.204831	-0.086357
O13	O	1.550022	-0.381505	-0.294014
O14	O	2.050022	0.118495	0.205986
O15	O	1.434577	-0.181325	-0.450796
O16	O	1.934577	0.318675	0.049204
O17	O	1.719480	-0.381471	-0.463437
O18	O	2.219480	0.118529	0.036563
O19	O	1.562973	-0.181300	-0.579165
O20	O	2.062973	0.318700	-0.079165
O21	O	1.427209	-0.295227	-0.288565
O22	O	1.927209	0.204773	0.211435
O23	O	1.257844	-0.295177	-0.457961
O24	O	1.757844	0.204823	0.042039
O25	O	1.421790	-0.381382	-0.761182
O26	O	1.921790	0.118618	-0.261182
O27	O	1.252332	-0.381415	-0.591759
O28	O	1.752332	0.118585	-0.091759
O29	O	1.555698	-0.295118	-0.755753
O30	O	2.055698	0.204882	-0.255753
O31	O	1.542747	-0.495323	-0.470602
O32	O	2.042747	0.004677	0.029398
O33	O	1.414422	-0.495285	-0.598951
O34	O	1.914422	0.004715	-0.098951
C35	C	1.217171	-0.338295	-0.524858
C36	C	1.717171	0.161705	-0.024858
C37	C	1.101017	-0.338306	-0.524875
C38	C	1.601017	0.161694	-0.024875
C39	C	1.046528	-0.381046	-0.590989
C40	C	1.546528	0.118954	-0.090989
C41	C	0.926477	-0.381059	-0.591008
C42	C	1.426477	0.118941	-0.091008
C43	C	1.476974	-0.520788	-0.536406
C44	C	1.976974	-0.020788	-0.036406
C45	C	1.472062	-0.598854	-0.541373
C46	C	1.972062	-0.098854	-0.041373
C47	C	1.536618	-0.635526	-0.476937
C48	C	2.036618	-0.135526	0.023063
C49	C	1.532005	-0.708877	-0.481615
C50	C	2.032005	-0.208877	0.018385
C51	C	1.462829	-0.745554	-0.550723
C52	C	1.962829	-0.245554	-0.050723
C53	C	1.398270	-0.708877	-0.615166
C54	C	1.898270	-0.208877	-0.115166
C55	C	1.402890	-0.635528	-0.610493
C56	C	1.902890	-0.135528	-0.110493
C57	C	1.445540	-0.967023	-0.568177
C58	C	1.945540	-0.467023	-0.068177
C59	C	1.440923	-1.040378	-0.572842
C60	C	1.940923	-0.540378	-0.072842
C61	C	1.574660	-1.040373	-0.439292
C62	C	2.074660	-0.540373	0.060708
C63	C	1.579269	-0.967021	-0.434621
C64	C	2.079269	-0.467021	0.065379
C65	C	1.514714	-0.930351	-0.499067
C66	C	2.014714	-0.430351	0.000933
C67	C	1.458109	-0.820531	-0.555503
C68	C	1.958109	-0.320531	-0.055503
C69	C	1.519440	-0.855375	-0.494292
C70	C	2.019440	-0.355375	0.005708
C71	C	1.761249	-0.338322	-0.524900
C72	C	2.261249	0.161678	-0.024900
C73	C	1.877402	-0.338328	-0.524909
C74	C	2.377402	0.161672	-0.024909
C75	C	1.488755	-0.338241	-0.797445
C76	C	1.988755	0.161759	-0.297445
C77	C	1.488787	-0.338212	-0.913596
C78	C	1.988787	0.161788	-0.413596
C79	C	1.500460	-0.155116	-0.513328
C80	C	2.000460	0.344884	-0.013328
C81	C	1.505479	-0.077050	-0.508407
C82	C	2.005479	0.422950	-0.008407
C83	C	1.422582	-0.380850	-1.088109
C84	C	1.922582	0.119150	-0.588109
C85	C	1.422547	-0.380881	-0.968060
C86	C	1.922547	0.119119	-0.468060
C87	C	1.488668	-0.338325	-0.253370
C88	C	1.988668	0.161675	0.246630
C89	C	1.488851	-0.338156	-0.137206
C90	C	1.988851	0.161844	0.362794
H91	H	1.088756	-0.417626	-0.647580
H92	H	1.588756	0.082374	-0.147580
H93	H	1.058790	-0.301721	-0.468290
H94	H	1.558790	0.198279	0.031710
N95	N	1.323651	-0.748431	-0.689701
N96	N	1.823651	-0.248431	-0.189701
H97	H	1.340646	-0.735619	-0.763566
H98	H	1.840646	-0.235619	-0.263566
H99	H	1.330548	-0.800450	-0.682793
H100	H	1.830548	-0.300450	-0.182793
H101	H	1.592944	-0.605668	-0.420657
H102	H	2.092944	-0.105668	0.079343
H103	H	1.350322	-0.605670	-0.662965
H104	H	1.850322	-0.105670	-0.162965
N105	N	0.939431	-0.289851	-0.449920
N106	N	1.439431	0.210149	0.050080
H107	H	0.982869	-0.318376	-0.403257
H108	H	1.482869	0.181624	0.096743
H109	H	0.986755	-0.257368	-0.490522
H110	H	1.486755	0.242632	0.009478
H111	H	1.545529	-0.301660	-0.955822
H112	H	2.045529	0.198340	-0.455822
N113	N	1.601632	-0.748431	-0.412116
N114	N	2.101632	-0.248431	0.087884
H115	H	1.646150	-0.714066	-0.367623
H116	H	2.146150	-0.214066	0.132377
H117	H	1.557198	-0.778915	-0.365664
H118	H	2.057198	-0.278915	0.134336
H119	H	1.635597	-0.937160	-0.378347
H120	H	2.135597	-0.437160	0.121653
N121	N	1.347374	-0.429290	-0.912125
N122	N	1.847374	0.070710	-0.412125
H123	H	1.303170	-0.457757	-0.964971
H124	H	1.803170	0.042243	-0.464971
H125	H	1.387839	-0.461782	-0.868884
H126	H	1.887839	0.038218	-0.368884
N127	N	1.366313	-1.079937	-0.647391
N128	N	1.866313	-0.579937	-0.147391
H129	H	1.373180	-1.131968	-0.640564
H130	H	1.873180	-0.631968	-0.140564
H131	H	1.292492	-1.067164	-0.630250
H132	H	1.792492	-0.567164	-0.130250
H133	H	0.879628	-0.417652	-0.647607
H134	H	1.379628	0.082348	-0.147607
H135	H	1.545556	-0.301623	-1.090365
H136	H	2.045556	0.198377	-0.590365
N137	N	1.644279	-1.079924	-0.369781
N138	N	2.144279	-0.579924	0.130219
H139	H	1.630857	-1.131956	-0.383222
H140	H	2.130857	-0.631956	0.116778
H141	H	1.719715	-1.067054	-0.385288
H142	H	2.219715	-0.567054	0.114712
H143	H	1.575767	-0.825511	-0.438028
H144	H	2.075767	-0.325511	0.061972
H145	H	1.365869	-0.417378	-1.134949
H146	H	1.865869	0.082622	-0.634949
H147	H	1.392975	-0.937171	-0.620650
H148	H	1.892975	-0.437171	-0.120650
H149	H	1.401784	-0.850402	-0.611769
H150	H	1.901784	-0.350402	-0.111769
