data_functionalizedCrystal
_audit_creation_method	'MofGen! by Chris Wilmer'
_symmetry_space_group_name_H-M	'P1'
_symmetry_Int_Tables_number	1
_symmetry_cell_setting	triclinic
loop_
_symmetry_equiv_pos_as_xyz
  x,y,z
_cell_length_a	12.811422
_cell_length_b	26.210047
_cell_length_c	12.837942
_cell_angle_alpha	90.002783
_cell_angle_beta	89.413386
_cell_angle_gamma	84.583230
loop_
_atom_site_label
_atom_site_type_symbol
_atom_site_fract_x
_atom_site_fract_y
_atom_site_fract_z
O1	O	1.406624	-0.022673	0.139710
O2	O	1.102568	-0.008599	0.154893
O3	O	1.247854	-0.015327	-0.003630
O4	O	1.261338	-0.015945	0.298234
O5	O	1.247803	-0.100183	-0.003631
O6	O	1.102517	-0.093455	0.154892
O7	O	1.406574	-0.107528	0.139710
Cu8	Cu	1.254541	-0.108240	0.147301
Cu9	Cu	1.254601	-0.007888	0.147302
O10	O	1.261287	-0.100801	0.298233
C11	C	1.063354	-0.049213	0.154041
C12	C	0.946585	-0.043809	0.151490
C13	C	1.445787	-0.066913	0.140562
C14	C	1.562557	-0.072314	0.143113
C15	C	1.243273	-0.057544	-0.042271
C16	C	1.229688	-0.056914	-0.157407
N17	N	1.254506	-0.178822	0.147300
C18	C	1.782026	0.010056	0.147887
C19	C	1.891741	0.004984	0.150284
C20	C	1.891705	-0.087532	0.150295
C21	C	1.781990	-0.082459	0.147899
C22	C	1.727154	-0.033664	0.146696
C23	C	1.617436	-0.028591	0.144307
C24	C	1.617402	-0.121106	0.144311
C25	C	1.727118	-0.126179	0.146708
C26	C	1.324564	-0.534577	0.210502
C27	C	1.324595	-0.748237	0.210501
O28	O	1.384135	-0.778614	0.264226
N29	N	1.254625	-0.771721	0.147291
C30	C	1.184647	-0.741787	0.084072
O31	O	1.125141	-0.766664	0.030300
C32	C	1.184621	-0.528128	0.084068
C33	C	1.254589	-0.504647	0.147290
C34	C	1.394526	-0.511096	0.273718
C35	C	1.394514	-0.457684	0.273721
C36	C	1.324539	-0.427753	0.210509
C37	C	1.254576	-0.451235	0.147293
C38	C	1.114649	-0.498195	0.020844
C39	C	1.114651	-0.444777	0.020846
C40	C	1.184618	-0.421296	0.084068
C41	C	1.184589	-0.367892	0.084085
N42	N	1.254559	-0.344408	0.147295
C43	C	1.324534	-0.374339	0.210507
C44	C	1.184663	-0.853961	0.084080
C45	C	1.184668	-0.907376	0.084082
C46	C	1.324618	-0.913822	0.210510
C47	C	1.324607	-0.860407	0.210513
C48	C	1.254633	-0.830477	0.147290
C49	C	1.324502	-0.262169	0.210511
C50	C	1.324481	-0.208752	0.210512
C51	C	1.184535	-0.202311	0.084080
C52	C	1.184553	-0.255723	0.084083
C53	C	1.254545	-0.285651	0.147301
O54	O	1.125088	-0.337485	0.030380
O55	O	1.384047	-0.349452	0.264254
C56	C	1.324576	-0.587989	0.210498
C57	C	1.254613	-0.611471	0.147282
C58	C	1.184639	-0.581541	0.084070
C59	C	1.254618	-0.664885	0.147284
C60	C	1.324593	-0.694816	0.210496
C61	C	1.394563	-0.671332	0.273706
C62	C	1.394551	-0.617920	0.273710
C63	C	1.114669	-0.605025	0.020860
C64	C	1.114686	-0.658437	0.020862
C65	C	1.184661	-0.688367	0.084075
N66	N	1.254643	0.062694	0.147294
C67	C	1.393013	-0.064463	-0.397658
C68	C	1.380253	-0.063871	-0.505839
C69	C	1.191408	-0.055136	-0.481952
C70	C	1.204168	-0.055728	-0.373771
C71	C	1.304974	-0.060392	-0.331628
C72	C	1.317733	-0.060987	-0.223445
C73	C	1.128890	-0.052248	-0.199561
C74	C	1.116129	-0.051656	-0.307742
C75	C	1.265868	-0.058583	0.336874
C76	C	1.279454	-0.059209	0.452010
H77	H	1.572791	0.011140	0.143333
H78	H	1.127561	-0.177932	0.032618
F79	F	1.035186	-0.047920	-0.129279
H80	H	1.572714	-0.156706	0.143346
H81	H	1.771780	-0.165907	0.147683
F82	F	1.723663	0.061987	0.146622
F83	F	1.084132	-0.050160	-0.526823
H84	H	1.381457	-0.189637	0.262000
H85	H	1.936414	0.040585	0.151254
F86	F	1.950083	-0.139459	0.151573
H87	H	1.057687	-0.580660	-0.030618
H88	H	1.034056	-0.047857	-0.342070
F89	F	1.398996	-0.294014	0.277794
H90	H	1.451493	-0.438570	0.325199
H91	H	1.451944	-0.067185	-0.559597
H92	H	1.451514	-0.535460	0.325193
H93	H	1.399814	-0.064787	-0.189134
H94	H	1.381580	-0.841292	0.261994
H95	H	1.475093	-0.068266	-0.363344
H96	H	1.381590	-0.938201	0.261984
F97	F	1.110186	-0.932360	0.016808
H98	H	1.127679	-0.829597	0.032593
H99	H	1.057675	-0.517304	-0.030640
H100	H	1.057669	-0.420411	-0.030640
H101	H	1.127567	-0.274842	0.032615
F102	F	1.469015	-0.592936	0.341006
F103	F	1.469032	-0.703195	0.340986
H104	H	1.057700	-0.677550	-0.030618
