data_functionalizedCrystal
_audit_creation_method	'MofGen! by Chris Wilmer'
_symmetry_space_group_name_H-M	'P1'
_symmetry_Int_Tables_number	1
_symmetry_cell_setting	triclinic
loop_
_symmetry_equiv_pos_as_xyz
  x,y,z
_cell_length_a	12.594516
_cell_length_b	11.169417
_cell_length_c	12.594509
_cell_angle_alpha	90.019491
_cell_angle_beta	89.973801
_cell_angle_gamma	89.985725
loop_
_atom_site_label
_atom_site_type_symbol
_atom_site_fract_x
_atom_site_fract_y
_atom_site_fract_z
Zn1	Zn	-0.423761	-1.834889	-0.601823
Zn2	Zn	-0.601771	-1.834766	-0.423851
Zn3	Zn	-0.423801	-1.634183	-0.423857
Zn4	Zn	-0.601692	-1.634162	-0.601786
O5	O	-0.512756	-1.734500	-0.512829
O6	O	-0.447390	-2.002822	-0.578227
O7	O	-0.578213	-1.808115	-0.274906
O8	O	-0.274850	-1.660867	-0.447483
O9	O	-0.578173	-2.002732	-0.447472
O10	O	-0.274820	-1.808325	-0.578234
O11	O	-0.447459	-1.660747	-0.274911
O12	O	-0.447383	-1.466230	-0.447448
O13	O	-0.578039	-1.660832	-0.750737
O14	O	-0.578078	-1.466215	-0.578171
O15	O	-0.447314	-1.808305	-0.750764
O16	O	-0.750706	-1.808096	-0.447436
O17	O	-0.750648	-1.660713	-0.578165
C18	C	-0.512727	-1.422675	-0.512807
C19	C	-0.512740	-1.289275	-0.512823
C20	C	-0.789297	-1.734421	-0.512819
C21	C	-0.907602	-1.734498	-0.512850
C22	C	-0.976863	-1.654328	-0.583903
C23	C	-1.047727	-1.625086	-0.486781
C24	C	-1.047537	-1.763849	-0.609989
C25	C	-0.976909	-1.705197	-0.415676
C26	C	-0.976712	-1.844011	-0.538950
C27	C	-1.047545	-1.814811	-0.441761
C28	C	-0.235135	-1.734612	-0.512863
C29	C	-0.116830	-1.734659	-0.512878
C30	C	-0.512663	-1.734580	-0.790450
C31	C	-0.512623	-1.734615	-0.908756
C32	C	-0.512776	-1.047542	-0.512845
C33	C	-0.512758	-1.180942	-0.512834
C34	C	-0.583684	-1.654429	-0.977995
C35	C	-0.609693	-1.763942	-1.048783
C36	C	-0.486550	-1.625188	-1.048767
C37	C	-0.538683	-1.844184	-0.977986
C38	C	-0.415494	-1.705357	-0.977964
C39	C	-0.441467	-1.814944	-1.048720
C40	C	-0.512772	-1.734489	-0.236288
C41	C	-0.512512	-1.734687	-0.117983
H42	H	-0.945826	-1.586411	-0.643903
C43	C	-1.089266	-1.501607	-0.457554
C44	C	-1.053483	-1.417947	-0.532193
C45	C	-1.091733	-1.304188	-0.505319
H46	H	-1.064068	-1.480099	-0.389081
H47	H	-1.164693	-1.502693	-0.457187
H48	H	-0.978072	-1.416857	-0.532549
H49	H	-1.078678	-1.439416	-0.600672
H50	H	-1.167160	-1.305274	-0.504951
H51	H	-1.066533	-1.282692	-0.436844
H52	H	-1.067468	-1.247413	-0.555961
H53	H	-0.560783	-1.936782	-0.947025
C54	C	-0.663838	-1.564100	-0.936368
C55	C	-0.662181	-1.564456	-0.825213
C56	C	-0.735996	-1.481257	-0.786829
H57	H	-0.732832	-1.585007	-0.960505
H58	H	-0.646026	-1.486503	-0.961584
H59	H	-0.680000	-1.642037	-0.800007
H60	H	-0.593205	-1.543536	-0.801047
H61	H	-0.718183	-1.403659	-0.812045
H62	H	-0.804984	-1.502171	-0.810973
H63	H	-0.734874	-1.481479	-0.711407
H64	H	-0.945498	-1.936529	-0.561049
H65	H	-0.946013	-1.680330	-0.333516
C66	C	-0.457413	-1.501721	-1.090288
C67	C	-0.540483	-1.457666	-1.152952
C68	C	-0.513696	-1.343924	-1.191205
H69	H	-0.394630	-1.507031	-1.131846
H70	H	-0.445694	-1.449128	-1.032163
H71	H	-0.552188	-1.510245	-1.211069
H72	H	-0.603274	-1.452326	-1.111417
H73	H	-0.501977	-1.291332	-1.133080
H74	H	-0.450911	-1.349246	-1.232758
H75	H	-0.570057	-1.314014	-1.233719
C76	C	-1.088697	-1.796952	-0.719568
C77	C	-1.002752	-1.816399	-0.787990
C78	C	-1.040623	-1.846901	-0.888940
H79	H	-1.131272	-1.733581	-0.746332
H80	H	-1.130101	-1.867844	-0.714870
H81	H	-0.961366	-1.745515	-0.792692
H82	H	-0.960169	-1.879775	-0.761261
H83	H	-1.082027	-1.917793	-0.884241
H84	H	-1.083198	-1.783525	-0.915693
H85	H	-0.982317	-1.860110	-0.935374
H86	H	-1.078384	-1.882676	-0.381615
H87	H	-0.691786	-1.788728	-1.079890
C88	C	-0.361415	-1.905691	-1.089820
C89	C	-0.389147	-2.020062	-1.053782
C90	C	-0.315442	-2.103691	-1.091636
H91	H	-0.292623	-1.885705	-1.064523
H92	H	-0.361412	-1.904838	-1.165250
H93	H	-0.389138	-2.020911	-0.978368
H94	H	-0.457926	-2.040085	-1.079077
H95	H	-0.315439	-2.102838	-1.167066
H96	H	-0.246654	-2.083694	-1.066336
H97	H	-0.334253	-2.181302	-1.067199
C98	C	-0.306105	-1.672022	-0.936498
C99	C	-0.279274	-1.557274	-0.972275
C100	C	-0.178519	-1.526505	-0.934083
H101	H	-0.255297	-1.728096	-0.961740
H102	H	-0.306774	-1.672892	-0.861071
H103	H	-0.278596	-1.556413	-1.047686
H104	H	-0.330054	-1.501174	-0.947035
H105	H	-0.179189	-1.527375	-0.858655
H106	H	-0.127721	-1.582586	-0.959328
H107	H	-0.160306	-1.448642	-0.958343
