data_functionalizedCrystal
_audit_creation_method	'MofGen! by Chris Wilmer'
_symmetry_space_group_name_H-M	'P1'
_symmetry_Int_Tables_number	1
_symmetry_cell_setting	triclinic
loop_
_symmetry_equiv_pos_as_xyz
  x,y,z
_cell_length_a	21.295419
_cell_length_b	21.295417
_cell_length_c	16.120297
_cell_angle_alpha	92.868089
_cell_angle_beta	92.877517
_cell_angle_gamma	90.044503
loop_
_atom_site_label
_atom_site_type_symbol
_atom_site_fract_x
_atom_site_fract_y
_atom_site_fract_z
Zn1	Zn	0.944280	-0.268428	-0.471362
Zn2	Zn	1.444280	0.231572	0.028638
Zn3	Zn	0.949531	-0.368357	-0.331943
Zn4	Zn	1.449531	0.131643	0.168057
Zn5	Zn	0.844350	-0.263134	-0.331966
Zn6	Zn	1.344350	0.236866	0.168034
Zn7	Zn	0.838976	-0.373688	-0.471308
Zn8	Zn	1.338976	0.126312	0.028692
O9	O	0.894284	-0.318402	-0.401645
O10	O	1.394284	0.181598	0.098355
O11	O	1.033066	-0.281668	-0.452881
O12	O	1.533066	0.218332	0.047119
O13	O	0.940025	-0.349952	-0.215283
O14	O	1.440025	0.150048	0.284717
O15	O	0.857657	-0.175748	-0.350490
O16	O	1.357657	0.324252	0.149510
O17	O	1.036924	-0.355086	-0.350450
O18	O	1.536924	0.144914	0.149550
O19	O	0.931075	-0.179638	-0.452903
O20	O	1.431075	0.320362	0.047097
O21	O	0.862749	-0.272645	-0.215301
O22	O	1.362749	0.227355	0.284699
O23	O	0.755548	-0.277815	-0.350437
O24	O	1.255548	0.222185	0.149563
O25	O	0.848499	-0.364172	-0.587977
O26	O	1.348499	0.135828	-0.087977
O27	O	0.751600	-0.359039	-0.452811
O28	O	1.251600	0.140961	0.047189
O29	O	0.925865	-0.286838	-0.588017
O30	O	1.425865	0.213162	-0.088017
O31	O	0.934815	-0.457153	-0.350397
O32	O	1.434815	0.042847	0.149603
O33	O	0.853591	-0.461069	-0.452788
O34	O	1.353591	0.038931	0.047212
C35	C	0.730734	-0.318431	-0.401621
C36	C	1.230734	0.181569	0.098379
C37	C	0.660765	-0.318460	-0.401631
C38	C	1.160765	0.181540	0.098369
C39	C	0.625909	-0.280300	-0.455049
C40	C	1.125909	0.219700	0.044951
C41	C	0.560166	-0.280283	-0.455052
C42	C	1.060166	0.219717	0.044948
C43	C	0.529282	-0.318438	-0.401646
C44	C	1.029282	0.181562	0.098354
C45	C	0.564147	-0.356600	-0.348218
C46	C	1.064147	0.143400	0.151782
C47	C	0.629888	-0.356611	-0.348210
C48	C	1.129888	0.143389	0.151790
N49	N	0.426257	-0.373266	-0.395132
N50	N	0.926257	0.126734	0.104868
N51	N	0.363805	-0.373254	-0.395144
N52	N	0.863805	0.126746	0.104856
C53	C	0.331207	-0.318406	-0.401665
C54	C	0.831207	0.181594	0.098335
N55	N	0.363419	-0.263569	-0.408189
N56	N	0.863419	0.236431	0.091811
N57	N	0.425876	-0.263582	-0.408181
N58	N	0.925876	0.236418	0.091819
C59	C	0.457997	-0.318430	-0.401648
C60	C	0.957997	0.181570	0.098352
C61	C	0.225065	-0.280225	-0.455089
C62	C	0.725065	0.219775	0.044911
C63	C	0.159321	-0.280207	-0.455087
C64	C	0.659321	0.219793	0.044913
C65	C	0.163303	-0.356529	-0.348256
C66	C	0.663303	0.143471	0.151744
C67	C	0.229045	-0.356541	-0.348254
C68	C	0.729045	0.143459	0.151746
C69	C	0.259922	-0.318390	-0.401675
C70	C	0.759922	0.181610	0.098325
C71	C	0.894206	-0.481952	-0.401602
C72	C	1.394206	0.018048	0.098398
C73	C	0.894229	-0.551920	-0.401612
C74	C	1.394229	-0.051920	0.098388
C75	C	0.932433	-0.586757	-0.454977
C76	C	1.432433	-0.086757	0.045023
C77	C	0.932455	-0.652500	-0.454998
C78	C	1.432455	-0.152500	0.045002
C79	C	0.894279	-0.683404	-0.401639
C80	C	1.394279	-0.183404	0.098361
C81	C	0.856067	-0.648560	-0.348270
C82	C	1.356067	-0.148560	0.151730
C83	C	0.856042	-0.582818	-0.348257
C84	C	1.356042	-0.082818	0.151743
N85	N	0.892318	-0.783872	-0.328678
N86	N	1.392318	-0.283872	0.171322
N87	N	0.892345	-0.846324	-0.328693
N88	N	1.392345	-0.346324	0.171307
C89	C	0.894351	-0.881480	-0.401676
C90	C	1.394351	-0.381480	0.098324
N91	N	0.896341	-0.851825	-0.474646
N92	N	1.396341	-0.351825	0.025354
N93	N	0.896316	-0.789367	-0.474630
N94	N	1.396316	-0.289367	0.025370
C95	C	0.894301	-0.754690	-0.401647
C96	C	1.394301	-0.254690	0.098353
C97	C	0.932581	-0.987603	-0.455068
C98	C	1.432581	-0.487603	0.044932
C99	C	0.932597	-1.053347	-0.455090
C100	C	1.432597	-0.553347	0.044910
C101	C	0.856213	-1.049405	-0.348355
C102	C	1.356213	-0.549405	0.151645
C103	C	0.856193	-0.983662	-0.348340
C104	C	1.356193	-0.483662	0.151660
C105	C	0.894380	-0.952765	-0.401696
C106	C	1.394380	-0.452765	0.098304
C107	C	1.058474	-0.318373	-0.401669
C108	C	1.558474	0.181627	0.098331
C109	C	1.128442	-0.318361	-0.401679
C110	C	1.628442	0.181639	0.098321
C111	C	0.885997	-0.326690	-0.619092
C112	C	1.385997	0.173310	-0.119092
C113	C	0.882465	-0.330222	-0.711756
C114	C	1.382465	0.169778	-0.211756
C115	C	0.894380	-0.154214	-0.401705
C116	C	1.394380	0.345786	0.098295
C117	C	0.894420	-0.084247	-0.401731
C118	C	1.394420	0.415753	0.098269
C119	C	0.875994	-0.336657	-0.881413
C120	C	1.375994	0.163343	-0.381413
C121	C	0.912699	-0.299958	-0.922729
C122	C	1.412699	0.200042	-0.422729
C123	C	0.909099	-0.303538	-1.017131
C124	C	1.409099	0.196462	-0.517131
C125	C	0.879593	-0.333078	-0.787001
C126	C	1.379593	0.166922	-0.287001
C127	C	0.902576	-0.310100	-0.185043
C128	C	1.402576	0.189900	0.314957
C129	C	0.906230	-0.306391	-0.092380
C130	C	1.406230	0.193609	0.407620
H131	H	0.250206	-0.249156	-0.498582
H132	H	0.750206	0.250844	0.001418
H133	H	0.963708	-1.081710	-0.498550
H134	H	1.463708	-0.581710	0.001450
O135	O	0.655977	-0.243202	-0.506818
O136	O	1.155977	0.256798	-0.006818
C137	C	0.695828	-0.200678	-0.459447
C138	C	1.195828	0.299322	0.040553
H139	H	0.708056	-0.220396	-0.396212
H140	H	1.208056	0.279604	0.103788
H141	H	0.740777	-0.193585	-0.493418
H142	H	1.240777	0.306415	0.006582
H143	H	0.670879	-0.153669	-0.450405
H144	H	1.170879	0.346331	0.049595
O145	O	0.953351	-0.259177	-0.880397
O146	O	1.453351	0.240823	-0.380397
C147	C	0.938849	-0.197231	-0.901629
C148	C	1.438849	0.302769	-0.401629
H149	H	0.887664	-0.194953	-0.925609
H150	H	1.387664	0.305047	-0.425609
H151	H	0.946439	-0.163996	-0.844331
H152	H	1.446439	0.336004	-0.344331
H153	H	0.970717	-0.182653	-0.952116
H154	H	1.470717	0.317347	-0.452116
H155	H	0.130942	-0.249129	-0.498585
H156	H	0.630942	0.250871	0.001415
O157	O	0.819089	-1.079489	-0.296640
O158	O	1.319089	-0.579489	0.203360
C159	C	0.776598	-1.119340	-0.344068
C160	C	1.276598	-0.619340	0.155932
H161	H	0.796359	-1.131553	-0.407273
H162	H	1.296359	-0.631553	0.092727
H163	H	0.769488	-1.164295	-0.310111
H164	H	1.269488	-0.664295	0.189889
H165	H	0.729589	-1.094397	-0.353170
H166	H	1.229589	-0.594397	0.146830
O167	O	0.663782	-0.393591	-0.296233
O168	O	1.163782	0.106409	0.203767
C169	C	0.703901	-0.355649	-0.242487
C170	C	1.203901	0.144351	0.257513
H171	H	0.684329	-0.305869	-0.237457
H172	H	1.184329	0.194131	0.262543
H173	H	0.707066	-0.375895	-0.178275
H174	H	1.207066	0.124105	0.321725
H175	H	0.752746	-0.354504	-0.268269
H176	H	1.252746	0.145496	0.231731
O177	O	0.526392	-0.243201	-0.507030
O178	O	1.026392	0.256799	-0.007030
C179	C	0.567743	-0.209519	-0.554162
C180	C	1.067743	0.290481	-0.054162
H181	H	0.614477	-0.235417	-0.556974
H182	H	1.114477	0.264583	-0.056974
H183	H	0.546260	-0.205394	-0.619867
H184	H	1.046260	0.294606	-0.119867
H185	H	0.575929	-0.160512	-0.523760
H186	H	1.075929	0.339488	-0.023760
O187	O	0.534116	-0.393736	-0.296460
O188	O	1.034116	0.106264	0.203540
C189	C	0.494242	-0.436239	-0.343830
C190	C	0.994242	0.063761	0.156170
H191	H	0.511560	-0.442710	-0.409478
H192	H	1.011560	0.057290	0.090522
H193	H	0.494600	-0.483494	-0.313560
H194	H	0.994600	0.016506	0.186440
H195	H	0.444325	-0.416884	-0.346757
H196	H	0.944325	0.083116	0.153243
O197	O	0.835337	-0.377333	-0.923917
O198	O	1.335337	0.122667	-0.423917
C199	C	0.840746	-0.371888	-1.010076
C200	C	1.340746	0.128112	-0.510076
H201	H	0.888896	-0.351696	-1.021879
H202	H	1.388896	0.148304	-0.521879
H203	H	0.835216	-0.420273	-1.043234
H204	H	1.335216	0.079727	-0.543234
H205	H	0.802502	-0.339295	-1.034784
H206	H	1.302502	0.160705	-0.534784
H207	H	0.138157	-0.387595	-0.304772
H208	H	0.638157	0.112405	0.195228
H209	H	0.963526	-0.561602	-0.498424
H210	H	1.463526	-0.061602	0.001576
O211	O	0.262812	-0.393673	-0.296343
O212	O	0.762812	0.106327	0.203657
C213	C	0.221458	-0.427335	-0.249189
C214	C	0.721458	0.072665	0.250811
H215	H	0.173297	-0.430848	-0.283336
H216	H	0.673297	0.069152	0.216664
H217	H	0.240749	-0.476581	-0.240174
H218	H	0.740749	0.023419	0.259826
H219	H	0.216891	-0.401796	-0.185930
H220	H	0.716891	0.098204	0.314070
O221	O	0.819070	-0.949913	-0.296414
O222	O	1.319070	-0.449913	0.203586
C223	C	0.785367	-0.991285	-0.249335
C224	C	1.285367	-0.491285	0.250665
H225	H	0.811278	-1.038011	-0.246491
H226	H	1.311278	-0.538011	0.253509
H227	H	0.781191	-0.969815	-0.183638
H228	H	1.281191	-0.469815	0.316362
H229	H	0.736380	-0.999482	-0.279805
H230	H	1.236380	-0.499482	0.220195
H231	H	0.963673	-0.962445	-0.498516
H232	H	1.463673	-0.462445	0.001484
H233	H	0.963560	-0.680869	-0.498463
H234	H	1.463560	-0.180869	0.001537
H235	H	0.824930	-0.554453	-0.304800
H236	H	1.324930	-0.054453	0.195200
O237	O	0.818948	-0.678650	-0.296552
O238	O	1.318948	-0.178650	0.203448
C239	C	0.776460	-0.718507	-0.343975
C240	C	1.276460	-0.218507	0.156025
H241	H	0.796219	-0.730719	-0.407182
H242	H	1.296219	-0.230719	0.092818
H243	H	0.769357	-0.763462	-0.310015
H244	H	1.269357	-0.263462	0.189985
H245	H	0.729447	-0.693570	-0.353075
H246	H	1.229447	-0.193570	0.146925
