data_functionalizedCrystal
_audit_creation_method	'MofGen! by Chris Wilmer'
_symmetry_space_group_name_H-M	'P1'
_symmetry_Int_Tables_number	1
_symmetry_cell_setting	triclinic
loop_
_symmetry_equiv_pos_as_xyz
  x,y,z
_cell_length_a	17.638336
_cell_length_b	21.295411
_cell_length_c	17.640280
_cell_angle_alpha	101.215266
_cell_angle_beta	114.314897
_cell_angle_gamma	78.781816
loop_
_atom_site_label
_atom_site_type_symbol
_atom_site_fract_x
_atom_site_fract_y
_atom_site_fract_z
Zn1	Zn	1.326588	-0.475357	0.583434
Zn2	Zn	1.354363	-0.352400	0.721208
Zn3	Zn	1.188736	-0.352432	0.555513
Zn4	Zn	1.216594	-0.439976	0.693283
O5	O	1.271570	-0.405041	0.638359
O6	O	1.445621	-0.473839	0.625081
O7	O	1.332357	-0.264309	0.699230
O8	O	1.183741	-0.383558	0.443901
O9	O	1.466027	-0.383504	0.726303
O10	O	1.285020	-0.473870	0.464414
O11	O	1.210672	-0.264332	0.577495
O12	O	1.077083	-0.349252	0.550417
O13	O	1.231220	-0.532765	0.678709
O14	O	1.097550	-0.413570	0.651636
O15	O	1.312032	-0.558759	0.598004
O16	O	1.359369	-0.349197	0.832819
O17	O	1.258151	-0.413539	0.812303
C18	C	1.057408	-0.377575	0.594967
C19	C	0.965793	-0.365838	0.576423
C20	C	0.825970	-0.315879	0.497507
C21	C	0.912057	-0.326913	0.514938
C22	C	0.933456	-0.393742	0.620506
C23	C	0.847368	-0.382712	0.603088
C24	C	0.793632	-0.343781	0.541586
C25	C	0.815030	-0.410613	0.647167
C26	C	0.728950	-0.399586	0.629746
C27	C	0.675208	-0.360658	0.568246
C28	C	0.707551	-0.332754	0.524166
C29	C	0.868768	-0.449548	0.708664
C30	C	0.836430	-0.477449	0.752743
C31	C	0.750349	-0.466418	0.735327
C32	C	0.696607	-0.427490	0.673827
C33	C	0.718005	-0.494323	0.779407
C34	C	0.631925	-0.483296	0.761987
C35	C	0.610526	-0.416464	0.656406
C36	C	1.271635	-0.569243	0.638356
C37	C	1.271663	-0.639215	0.638354
C38	C	1.313739	-0.685618	0.596328
C39	C	1.313731	-0.751365	0.596292
C40	C	1.271658	-0.770706	0.638299
C41	C	1.229572	-0.724294	0.680327
C42	C	1.229574	-0.658548	0.680354
N43	N	1.279897	-0.863864	0.709108
N44	N	1.279899	-0.926320	0.709080
C45	C	1.271646	-0.968792	0.638216
N46	N	1.263407	-0.946451	0.567383
N47	N	1.263410	-0.883990	0.567413
C48	C	1.271650	-0.841994	0.638273
C49	C	1.313715	-1.086486	0.596147
C50	C	1.313701	-1.152234	0.596109
C51	C	1.229548	-1.125161	0.680151
C52	C	1.229556	-1.059415	0.680182
C53	C	1.271645	-1.040082	0.638182
C54	C	1.486569	-0.432615	0.681922
C55	C	1.578188	-0.444365	0.700485
C56	C	1.314819	-0.377542	0.852466
C57	C	1.333397	-0.365808	0.944076
C58	C	1.271541	-0.241492	0.638313
C59	C	1.271626	-0.171570	0.638115
C60	C	1.228175	-0.432665	0.423422
C61	C	1.209682	-0.444436	0.331828
C62	C	1.130777	-0.494452	1.192056
C63	C	1.148235	-0.483407	1.278138
C64	C	1.253699	-0.416497	1.299450
C65	C	1.236253	-0.427540	1.213368
C66	C	1.174790	-0.466517	1.159677
C67	C	1.280266	-0.399605	1.180989
C68	C	1.262818	-0.410643	1.094914
C69	C	1.201356	-0.449617	1.041218
C70	C	1.157342	-0.477556	1.073602
C71	C	1.341724	-0.360624	1.234681
C72	C	1.385737	-0.332688	1.202302
C73	C	1.368293	-0.343731	1.116227
C74	C	1.306832	-0.382705	1.062530
C75	C	1.412308	-0.315792	1.083842
C76	C	1.394859	-0.326831	0.997767
C77	C	1.289384	-0.393744	0.976455
H78	H	0.880193	-0.509148	0.802815
H79	H	0.938858	-0.458529	0.722840
O80	O	1.188593	-0.613446	0.721051
C81	C	1.125900	-0.574583	0.663371
H82	H	1.107701	-0.602067	0.597427
H83	H	1.068483	-0.561861	0.680324
H84	H	1.150819	-0.528395	0.665722
O85	O	0.655437	-0.294855	0.464484
C86	C	0.680014	-0.232475	0.486623
H87	H	0.748918	-0.235060	0.530941
H88	H	0.670890	-0.212341	0.427680
H89	H	0.640108	-0.199582	0.519148
O90	O	0.770277	-0.532199	0.839047
C91	C	0.810608	-0.585323	0.802280
H92	H	0.810849	-0.572875	0.742388
H93	H	0.877936	-0.597161	0.848109
H94	H	0.775653	-0.628888	0.786612
O95	O	1.354600	-1.067811	0.555270
C96	C	1.391747	-1.122870	0.518177
H97	H	1.357404	-1.165764	0.508462
H98	H	1.387431	-1.113334	0.455041
H99	H	1.460443	-1.134035	0.561033
O100	O	0.985727	-0.431614	0.680151
C101	C	1.026065	-0.484740	0.643395
H102	H	1.026309	-0.472297	0.583502
H103	H	1.093393	-0.496573	0.689230
H104	H	0.991114	-0.528306	0.627731
H105	H	1.107299	-0.509301	1.029885
H106	H	0.605595	-0.506018	0.797878
O107	O	0.591562	-0.349901	0.551192
C108	C	0.551073	-0.309543	0.487474
H109	H	0.590939	-0.313330	0.449348
H110	H	0.487184	-0.325211	0.444587
H111	H	0.542355	-0.257455	0.516962
O112	O	1.184408	-0.460459	0.957604
C113	C	1.199718	-0.527205	0.933096
H114	H	1.195668	-0.555282	0.979843
H115	H	1.150862	-0.540984	0.868005
H116	H	1.265003	-0.539321	0.931621
O117	O	0.773669	-0.278146	0.437699
C118	C	0.713180	-0.314517	0.374463
H119	H	0.706214	-0.356790	0.401025
H120	H	0.650384	-0.282563	0.351102
H121	H	0.734027	-0.333607	0.320127
H122	H	1.348010	-0.669882	0.562127
H123	H	1.347992	-0.789153	0.562065
O124	O	1.354436	-1.197334	0.555163
C125	C	1.296760	-1.236170	0.492421
H126	H	1.230814	-1.208668	0.474189
H127	H	1.313769	-1.248878	0.435044
H128	H	1.299059	-1.282366	0.517294
O129	O	0.943339	-0.299727	0.472072
C130	C	0.877446	-0.263013	0.414045
H131	H	0.822902	-0.248603	0.435373
H132	H	0.900481	-0.217745	0.410192
H133	H	0.855671	-0.293001	0.349649
O134	O	0.558225	-0.378730	0.596598
C135	C	0.497737	-0.415101	0.533362
H136	H	0.490771	-0.457374	0.559924
H137	H	0.434940	-0.383148	0.510001
H138	H	0.518584	-0.434191	0.479026
H139	H	1.195281	-1.140908	0.714344
H140	H	1.195299	-1.021632	0.714410
H141	H	1.239341	-0.425488	0.932738
H142	H	1.435778	-0.300951	1.246028
H143	H	1.080734	-0.526197	1.148339
H144	H	1.112400	-0.506167	1.304498
O145	O	1.188840	-0.743110	0.721247
C146	C	1.246512	-0.780349	0.783952
H147	H	1.312460	-0.768221	0.802203
H148	H	1.229504	-0.769126	0.841329
H149	H	1.244208	-0.833811	0.759031
H150	H	1.303740	-0.384760	1.343176
O151	O	1.358754	-0.349810	1.318311
C152	C	1.422448	-0.309428	1.358759
H153	H	1.423957	-0.280500	1.311500
H154	H	1.409269	-0.274949	1.411336
H155	H	1.485623	-0.340178	1.386147
O156	O	1.472095	-0.278021	1.136058
C157	C	1.535380	-0.314327	1.196597
H158	H	1.535192	-0.367888	1.171667
H159	H	1.599017	-0.299609	1.210394
H160	H	1.523107	-0.304841	1.256681
H161	H	1.430699	-0.304082	0.971405
