data_functionalizedCrystal
_audit_creation_method	'MofGen! by Chris Wilmer'
_symmetry_space_group_name_H-M	'P1'
_symmetry_Int_Tables_number	1
_symmetry_cell_setting	triclinic
loop_
_symmetry_equiv_pos_as_xyz
  x,y,z
_cell_length_a	10.654550
_cell_length_b	17.038272
_cell_length_c	16.098687
_cell_angle_alpha	92.928906
_cell_angle_beta	87.254386
_cell_angle_gamma	87.798229
loop_
_atom_site_label
_atom_site_type_symbol
_atom_site_fract_x
_atom_site_fract_y
_atom_site_fract_z
O1	O	1.672799	0.113345	0.069325
O2	O	1.308293	0.123813	0.069312
O3	O	1.488380	0.004751	0.069312
O4	O	1.492712	0.232407	0.069325
O5	O	1.498843	-0.002180	-0.069198
O6	O	1.318756	0.116882	-0.069198
O7	O	1.683262	0.106414	-0.069185
Zn8	Zn	1.502670	0.110547	-0.091183
Zn9	Zn	1.488885	0.119680	0.091310
O10	O	1.503175	0.225476	-0.069185
C11	C	1.266655	0.119579	0.000055
C12	C	1.126999	0.117279	0.000050
C13	C	1.489671	-0.027865	0.000057
C14	C	1.477914	-0.114723	0.000056
C15	C	1.054021	0.187381	0.000066
C16	C	0.922798	0.185216	0.000080
C17	C	0.937543	0.042841	0.000066
C18	C	1.068764	0.045006	0.000045
C19	C	1.112257	0.259654	0.000070
C20	C	1.039278	0.329762	0.000088
C21	C	0.908055	0.327597	0.000102
C22	C	0.849811	0.255324	0.000099
C23	C	1.585858	-0.164234	0.000059
C24	C	1.574803	-0.245846	0.000067
C25	C	1.455803	-0.277946	0.000065
C26	C	1.347851	-0.228428	0.000065
C27	C	1.358906	-0.146818	0.000063
C28	C	1.416744	-0.523921	0.000075
C29	C	1.405697	-0.605538	0.000075
C30	C	1.632650	-0.622951	0.000078
C31	C	1.643695	-0.541338	0.000072
C32	C	1.535743	-0.491827	0.000075
C33	C	1.444500	-0.361366	0.000071
C34	C	1.547046	-0.408408	0.000076
C35	C	1.724899	0.110648	0.000074
C36	C	1.864555	0.112949	0.000084
C37	C	1.501884	0.258092	0.000072
C38	C	1.513641	0.344950	0.000078
N39	N	1.512087	0.104314	-0.215730
C40	C	1.555931	0.075391	-0.740537
C41	C	1.549314	0.079761	-0.653350
C42	C	1.466237	0.134643	-0.609771
C43	C	1.389780	0.185164	-0.653384
C44	C	1.396404	0.180797	-0.740569
C45	C	1.442254	0.150468	-0.346528
C46	C	1.435633	0.154829	-0.259336
C47	C	1.595170	0.049427	-0.259308
C48	C	1.601781	0.045062	-0.346495
C49	C	1.525329	0.095586	-0.390101
C50	C	1.459470	0.139110	-0.520652
C51	C	1.532104	0.091122	-0.479218
N52	N	1.479477	0.125907	0.215856
H53	H	1.219104	0.261425	0.000063
H54	H	1.657415	0.008294	-0.223797
H55	H	1.662703	-0.286156	0.000068
N56	N	1.098788	0.403576	0.000077
N57	N	1.215949	0.405501	0.000062
H58	H	1.257979	0.457633	0.000052
N59	N	0.833528	0.399213	0.000106
N60	N	0.885546	0.463732	0.000105
H61	H	0.832914	0.514315	0.000111
H62	H	1.367977	0.199523	-0.223858
H63	H	1.308789	-0.631671	0.000060
H64	H	0.742961	0.253567	0.000098
H65	H	0.890108	-0.016000	0.000077
H66	H	1.740597	-0.515209	0.000073
N67	N	1.143299	-0.026608	0.000018
N68	N	1.091291	-0.091131	0.000017
H69	H	1.143932	-0.141711	-0.000008
H70	H	1.391824	0.183795	-0.485163
H71	H	1.720538	-0.663271	0.000077
H72	H	1.682760	-0.138106	0.000056
N73	N	1.322961	-0.394175	0.000052
N74	N	1.295908	-0.440704	-0.058335
H75	H	1.210073	-0.463880	-0.058348
H76	H	1.599750	0.046440	-0.514703
H77	H	1.334149	0.221933	-0.776073
H78	H	1.328841	-0.483619	0.000078
H79	H	1.250958	-0.254570	0.000069
H80	H	1.643934	-0.382268	0.000096
N81	N	1.248645	-0.096238	0.000078
N82	N	1.167031	-0.096596	0.058467
H83	H	1.089155	-0.060874	0.058484
H84	H	1.623575	0.030697	-0.776013
N85	N	1.627591	0.028257	-0.608820
N86	N	1.701870	-0.020677	-0.647739
H87	H	1.757223	-0.057017	-0.616291
N88	N	1.686645	-0.011006	-0.390994
N89	N	1.754901	-0.056107	-0.352049
H90	H	1.814835	-0.095708	-0.383476
N91	N	1.364165	0.202087	-0.391049
N92	N	1.290002	0.251087	-0.352126
H93	H	1.234851	0.287548	-0.383572
N94	N	1.304935	0.241226	-0.608859
N95	N	1.299030	0.245119	-0.531016
H96	H	1.239104	0.284713	-0.499570
