data_functionalizedCrystal
_audit_creation_method	'MofGen! by Chris Wilmer'
_symmetry_space_group_name_H-M	'P1'
_symmetry_Int_Tables_number	1
_symmetry_cell_setting	triclinic
loop_
_symmetry_equiv_pos_as_xyz
  x,y,z
_cell_length_a	19.121063
_cell_length_b	17.638686
_cell_length_c	17.640968
_cell_angle_alpha	114.307628
_cell_angle_beta	98.351500
_cell_angle_gamma	81.676033
loop_
_atom_site_label
_atom_site_type_symbol
_atom_site_fract_x
_atom_site_fract_y
_atom_site_fract_z
Zn1	Zn	-0.388282	1.338519	0.735687
Zn2	Zn	-0.054949	1.671853	1.069020
Zn3	Zn	0.278385	2.005186	1.402354
Zn4	Zn	-0.523526	1.305137	0.603248
Zn5	Zn	-0.190193	1.638471	0.936581
Zn6	Zn	0.143140	1.971804	1.269914
Zn7	Zn	-0.388249	1.172848	0.570080
Zn8	Zn	-0.054916	1.506181	0.903414
Zn9	Zn	0.278417	1.839514	1.236747
Zn10	Zn	-0.484517	1.196815	0.711660
Zn11	Zn	-0.151183	1.530148	1.044993
Zn12	Zn	0.182150	1.863482	1.378326
O13	O	-0.446144	1.253330	0.655169
O14	O	-0.112810	1.586663	0.988502
O15	O	0.220523	1.919996	1.321835
O16	O	-0.422562	1.448759	0.742055
O17	O	-0.089228	1.782092	1.075388
O18	O	0.244105	2.115425	1.408722
O19	O	-0.521893	1.263588	0.484170
O20	O	-0.188560	1.596921	0.817503
O21	O	0.144773	1.930255	1.150837
O22	O	-0.291365	1.198764	0.588223
O23	O	0.041968	1.532097	0.921557
O24	O	0.375301	1.865431	1.254890
O25	O	-0.521925	1.424233	0.644752
O26	O	-0.188592	1.757566	0.978086
O27	O	0.144742	2.090900	1.311419
O28	O	-0.291389	1.320482	0.709894
O29	O	0.041944	1.653816	1.043227
O30	O	0.375277	1.987149	1.376561
O31	O	-0.422506	1.166395	0.459802
O32	O	-0.089173	1.499729	0.793136
O33	O	0.244161	1.833062	1.126469
O34	O	-0.384680	1.061359	0.564925
O35	O	-0.051347	1.394693	0.898258
O36	O	0.281987	1.728026	1.231592
O37	O	-0.455439	1.239613	0.829525
O38	O	-0.122106	1.572947	1.162858
O39	O	0.211228	1.906280	1.496192
O40	O	-0.455407	1.078968	0.668943
O41	O	-0.122074	1.412302	1.002276
O42	O	0.211259	1.745635	1.335609
O43	O	-0.384736	1.343723	0.847178
O44	O	-0.051403	1.677056	1.180511
O45	O	0.281931	2.010389	1.513844
O46	O	-0.615240	1.286828	0.621454
O47	O	-0.281907	1.620162	0.954787
O48	O	0.051427	1.953495	1.288121
O49	O	-0.586580	1.207244	0.701104
O50	O	-0.253247	1.540578	1.034437
O51	O	0.080087	1.873911	1.367770
C52	C	-0.415808	1.040432	0.610728
C53	C	-0.082474	1.373765	0.944061
C54	C	0.250859	1.707099	1.277395
C55	C	-0.402844	0.949357	0.591736
C56	C	-0.069510	1.282690	0.925070
C57	C	0.263823	1.616023	1.258403
C58	C	-0.626033	1.246041	0.662293
C59	C	-0.292699	1.579374	0.995627
C60	C	0.040634	1.912707	1.328960
C61	C	-0.702997	1.243003	0.665384
C62	C	-0.369663	1.576337	0.998717
C63	C	-0.036330	1.909670	1.332051
C64	C	-0.544751	0.695670	0.799660
C65	C	-0.211418	1.029004	1.132993
C66	C	0.121916	1.362337	1.466326
C67	C	-0.532566	0.610087	0.781793
C68	C	-0.199233	0.943421	1.115126
C69	C	0.134100	1.276754	1.448460
C70	C	-0.458757	0.591757	0.673636
C71	C	-0.125424	0.925090	1.006970
C72	C	0.207909	1.258424	1.340303
C73	C	-0.470939	0.677340	0.691491
C74	C	-0.137605	1.010673	1.024824
C75	C	0.195728	1.344006	1.358158
C76	C	-0.513936	0.729290	0.754504
C77	C	-0.180602	1.062623	1.087838
C78	C	0.152731	1.395957	1.421171
C79	C	-0.440123	0.710960	0.646336
C80	C	-0.106790	1.044293	0.979669
C81	C	0.226543	1.377626	1.313002
C82	C	-0.452301	0.796535	0.664192
C83	C	-0.118967	1.129869	0.997525
C84	C	0.214366	1.463202	1.330859
C85	C	-0.495294	0.848492	0.727204
C86	C	-0.161961	1.181825	1.060537
C87	C	0.171373	1.515158	1.393871
C88	C	-0.526113	0.814866	0.772361
C89	C	-0.192780	1.148199	1.105694
C90	C	0.140554	1.481533	1.439027
C91	C	-0.397123	0.659009	0.583327
C92	C	-0.063789	0.992342	0.916660
C93	C	0.269544	1.325675	1.249993
C94	C	-0.366307	0.692628	0.538171
C95	C	-0.032974	1.025962	0.871505
C96	C	0.300360	1.359295	1.204838
C97	C	-0.378489	0.778205	0.556023
C98	C	-0.045155	1.111538	0.889357
C99	C	0.288178	1.444871	1.222690
C100	C	-0.421482	0.830161	0.619035
C101	C	-0.088148	1.163494	0.952369
C102	C	0.245185	1.496828	1.285702
C103	C	-0.347669	0.811830	0.510867
C104	C	-0.014336	1.145164	0.844200
C105	C	0.318997	1.478497	1.177533
C106	C	-0.359847	0.897406	0.528723
C107	C	-0.026514	1.230740	0.862056
C108	C	0.306820	1.564073	1.195390
C109	C	-0.433659	0.915737	0.636892
C110	C	-0.100326	1.249070	0.970225
C111	C	0.233008	1.582403	1.303558
C112	C	-0.754053	1.283061	0.625419
C113	C	-0.420719	1.616394	0.958752
C114	C	-0.087386	1.949728	1.292085
C115	C	-0.826368	1.280210	0.628332
C116	C	-0.493034	1.613543	0.961665
C117	C	-0.159701	1.946877	1.294998
C118	C	-0.847625	1.237296	0.671205
C119	C	-0.514292	1.570629	1.004539
C120	C	-0.180959	1.903962	1.337872
C121	C	-0.796563	1.197237	0.711176
C122	C	-0.463230	1.530570	1.044509
C123	C	-0.129896	1.863904	1.377842
C124	C	-0.724250	1.200093	0.708267
C125	C	-0.390916	1.533427	1.041601
C126	C	-0.057583	1.866760	1.374934
C127	C	-1.065220	1.226600	0.682063
C128	C	-0.731887	1.559934	1.015396
C129	C	-0.398553	1.893267	1.348730
C130	C	-1.137540	1.223745	0.684966
C131	C	-0.804206	1.557078	1.018300
C132	C	-0.470873	1.890412	1.351633
C133	C	-1.167339	1.306720	0.602123
C134	C	-0.834006	1.640053	0.935456
C135	C	-0.500673	1.973386	1.268790
C136	C	-1.095023	1.309568	0.599214
C137	C	-0.761690	1.642901	0.932548
C138	C	-0.428356	1.976235	1.265881
C139	C	-1.043967	1.269513	0.639188
C140	C	-0.710634	1.602846	0.972522
C141	C	-0.377301	1.936180	1.305855
C142	C	-0.921542	1.234378	0.674181
C143	C	-0.588209	1.567712	1.007515
C144	C	-0.254876	1.901045	1.340848
C145	C	-0.970052	1.272436	0.636217
C146	C	-0.636718	1.605769	0.969550
C147	C	-0.303385	1.939102	1.302883
C148	C	-0.265553	1.260673	0.648039
C149	C	0.067781	1.594007	0.981372
C150	C	0.401114	1.927340	1.314706
C151	C	-0.188596	1.263803	0.645001
C152	C	0.144738	1.597136	0.978334
C153	C	0.478071	1.930469	1.311667
C154	C	-0.415740	1.298065	0.868917
C155	C	-0.082406	1.631398	1.202251
C156	C	0.250927	1.964732	1.535584
C157	C	-0.402783	1.317129	0.960004
C158	C	-0.069450	1.650462	1.293338
C159	C	0.263883	1.983795	1.626671
C160	C	-0.476598	1.467059	0.699783
C161	C	-0.143265	1.800392	1.033117
C162	C	0.190068	2.133726	1.366450
C163	C	-0.489577	1.558138	0.718796
C164	C	-0.156243	1.891471	1.052129
C165	C	0.177090	2.224805	1.385462
C166	C	-0.476386	1.208818	0.442260
C167	C	-0.143053	1.542151	0.775593
C168	C	0.190281	1.875484	1.108926
C169	C	-0.489170	1.189921	0.351198
C170	C	-0.155836	1.523254	0.684532
C171	C	0.177497	1.856588	1.017865
C172	C	-0.544239	1.108836	1.213630
C173	C	-0.210906	1.442169	1.546963
C174	C	0.122427	1.775503	1.880297
C175	C	-0.532059	1.126767	1.299223
C176	C	-0.198725	1.460100	1.632557
C177	C	0.134608	1.793433	1.965890
C178	C	-0.458441	1.235167	1.317593
C179	C	-0.125108	1.568500	1.650927
C180	C	0.208225	1.901833	1.984260
C181	C	-0.470613	1.217242	1.231999
C182	C	-0.137280	1.550576	1.565332
C183	C	0.196053	1.883909	1.898666
C184	C	-0.513513	1.154077	1.180024
C185	C	-0.180180	1.487410	1.513357
C186	C	0.153153	1.820743	1.846691
C187	C	-0.439887	1.262483	1.198393
C188	C	-0.106554	1.595816	1.531726
C189	C	0.226779	1.929150	1.865060
C190	C	-0.452061	1.244563	1.112807
C191	C	-0.118728	1.577896	1.446140
C192	C	0.214605	1.911229	1.779474
C193	C	-0.494961	1.181402	1.060827
C194	C	-0.161628	1.514735	1.394161
C195	C	0.171705	1.848069	1.727494
C196	C	-0.525687	1.136157	1.094438
C197	C	-0.192354	1.469490	1.427771
C198	C	0.140979	1.802823	1.761105
C199	C	-0.396992	1.325652	1.250371
C200	C	-0.063658	1.658986	1.583704
C201	C	0.269675	1.992319	1.917037
C202	C	-0.366266	1.370893	1.216765
C203	C	-0.032932	1.704226	1.550098
C204	C	0.300401	2.037560	1.883431
C205	C	-0.378435	1.352969	1.131176
C206	C	-0.045102	1.686302	1.464509
C207	C	0.288231	2.019636	1.797843
C208	C	-0.421335	1.289808	1.079196
C209	C	-0.088002	1.623141	1.412530
C210	C	0.245331	1.956475	1.745863
C211	C	-0.347709	1.398214	1.097565
C212	C	-0.014376	1.731548	1.430899
C213	C	0.318957	2.064881	1.764232
C214	C	-0.359883	1.380294	1.011979
C215	C	-0.026550	1.713628	1.345313
C216	C	0.306783	2.046961	1.678646
C217	C	-0.433509	1.271888	0.993610
C218	C	-0.100176	1.605221	1.326944
C219	C	0.233157	1.938555	1.660277
H220	H	-0.468676	0.958037	0.688199
H221	H	-0.135342	1.291371	1.021533
H222	H	0.197991	1.624704	1.354866
F223	F	-0.944173	1.188706	0.719809
F224	F	-0.610840	1.522040	1.053142
F225	F	-0.277506	1.855373	1.386476
H226	H	-0.736751	1.318002	0.590502
H227	H	-0.403418	1.651335	0.923835
H228	H	-0.070085	1.984669	1.257169
F229	F	-0.947426	1.318111	0.590593
F230	F	-0.614093	1.651444	0.923926
F231	F	-0.280759	1.984778	1.257260
F232	F	-0.880703	1.322848	0.585797
F233	F	-0.547370	1.656182	0.919131
F234	F	-0.214037	1.989515	1.252464
H235	H	-0.579153	1.057381	1.171304
H236	H	-0.245820	1.390715	1.504637
H237	H	0.087513	1.724048	1.837970
F238	F	-1.010891	1.183969	0.724606
F239	F	-0.677558	1.517302	1.057940
F240	F	-0.344225	1.850635	1.391273
F241	F	-0.564763	1.078608	1.334985
F242	F	-0.231430	1.411942	1.668318
F243	F	0.101904	1.745275	2.001652
H244	H	-0.682679	1.167475	0.740813
H245	H	-0.349346	1.500809	1.074146
H246	H	-0.016012	1.834142	1.407479
F247	F	-0.301902	0.756533	0.443814
F248	F	0.031431	1.089867	0.777148
F249	F	0.364764	1.423200	1.110481
H250	H	-0.423514	1.286598	1.359923
H251	H	-0.090181	1.619932	1.693256
H252	H	0.243152	1.953265	2.026590
F253	F	-0.384160	0.567931	0.564326
F254	F	-0.050827	0.901264	0.897660
F255	F	0.282506	1.234598	1.230993
H256	H	-0.561129	0.857167	0.823668
H257	H	-0.227796	1.190500	1.157002
H258	H	0.105537	1.523833	1.490335
F259	F	-0.571340	1.068922	1.039116
F260	F	-0.238007	1.402255	1.372449
F261	F	0.095326	1.735588	1.705782
H262	H	-0.468423	1.220433	0.951284
H263	H	-0.135090	1.553767	1.284617
H264	H	0.198243	1.887100	1.617951
H265	H	-0.557660	0.582719	0.818572
H266	H	-0.224327	0.916053	1.151905
H267	H	0.109006	1.249386	1.485238
H268	H	-1.077718	1.344512	0.564303
H269	H	-0.744385	1.677846	0.897636
H270	H	-0.411051	2.011179	1.230970
H271	H	-0.504876	1.166816	0.991139
H272	H	-0.171542	1.500149	1.324472
H273	H	0.161791	1.833482	1.657805
F274	F	-0.508253	0.939571	0.746210
F275	F	-0.174920	1.272904	1.079543
F276	F	0.158413	1.606237	1.412877
F277	F	-0.590521	0.750963	0.866719
F278	F	-0.257187	1.084296	1.200052
F279	F	0.076146	1.417630	1.533385
F280	F	-1.221681	1.349350	0.559587
F281	F	-0.888347	1.682684	0.892920
F282	F	-0.555014	2.016017	1.226254
H283	H	-0.331297	0.650320	0.486868
H284	H	0.002036	0.983653	0.820201
H285	H	0.335370	1.316986	1.153535
H286	H	-0.387083	1.340243	1.320060
H287	H	-0.053750	1.673576	1.653393
H288	H	0.279584	2.006909	1.986727
F289	F	-0.320612	1.438118	1.272089
F290	F	0.012721	1.771452	1.605422
F291	F	0.346055	2.104785	1.938755
H292	H	-0.813876	1.162300	0.746089
H293	H	-0.480543	1.495633	1.079422
H294	H	-0.147210	1.828966	1.412755
H295	H	-0.312786	1.449649	1.139897
H296	H	0.020548	1.782982	1.473230
H297	H	0.353881	2.116316	1.806564
H298	H	-0.334862	1.417133	0.984617
H299	H	-0.001529	1.750466	1.317950
H300	H	0.331805	2.083799	1.651284
H301	H	-0.334748	0.924781	0.491959
H302	H	-0.001414	1.258114	0.825292
H303	H	0.331919	1.591448	1.158625
H304	H	-1.154843	1.188812	0.719895
H305	H	-0.821510	1.522145	1.053229
H306	H	-0.488176	1.855478	1.386562
H307	H	-0.423747	0.549448	0.622333
H308	H	-0.090414	0.882782	0.955666
H309	H	0.242919	1.216115	1.289000
