data_functionalizedCrystal
_audit_creation_method	'MofGen! by Chris Wilmer'
_symmetry_space_group_name_H-M	'P1'
_symmetry_Int_Tables_number	1
_symmetry_cell_setting	triclinic
loop_
_symmetry_equiv_pos_as_xyz
  x,y,z
_cell_length_a	6.817900
_cell_length_b	17.296766
_cell_length_c	17.329378
_cell_angle_alpha	95.724032
_cell_angle_beta	103.025558
_cell_angle_gamma	102.621013
loop_
_atom_site_label
_atom_site_type_symbol
_atom_site_fract_x
_atom_site_fract_y
_atom_site_fract_z
V1	V	-4.010749	-0.094238	-0.251734
O2	O	-3.997997	0.021338	-0.238846
O3	O	-3.962923	-0.203025	-0.257799
O4	O	-3.955114	-0.085413	-0.357972
O5	O	-4.005860	-0.097088	-0.137980
V6	V	-4.495240	-0.081285	-0.237183
O7	O	-4.269884	-0.122651	-0.283655
O8	O	-4.686302	-0.052873	-0.205262
O9	O	-4.319858	0.027501	-0.231118
O10	O	-4.625388	-0.196861	-0.250071
O11	O	-4.617525	-0.078435	-0.350937
O12	O	-4.327668	-0.090111	-0.130945
C13	C	-3.808298	-0.229775	-0.255837
C14	C	-3.850434	-0.318662	-0.261504
C15	C	-3.834790	-0.353806	-0.191728
C16	C	-3.874401	-0.437325	-0.197055
C17	C	-3.929641	-0.485699	-0.272159
C18	C	-3.945290	-0.450550	-0.341941
C19	C	-3.905694	-0.367032	-0.336613
C20	C	-4.050981	-0.738200	-0.291870
C21	C	-4.090571	-0.821722	-0.297192
C22	C	-4.019683	-0.808492	-0.152307
C23	C	-3.980078	-0.724973	-0.146985
C24	C	-3.995741	-0.689832	-0.216767
C25	C	-3.970124	-0.571069	-0.277606
C26	C	-3.955272	-0.604463	-0.211319
C27	C	-3.798336	-0.079749	-0.383617
C28	C	-3.834136	-0.073253	-0.470518
C29	C	-3.890757	-0.142640	-0.527721
C30	C	-3.924403	-0.136535	-0.609374
C31	C	-3.901412	-0.061043	-0.633821
C32	C	-3.844791	0.008349	-0.576611
C33	C	-3.811161	0.002244	-0.494960
C34	C	-4.000976	-0.038983	-0.879534
C35	C	-4.034606	-0.032883	-0.961191
C36	C	-4.114219	-0.177768	-0.993949
C37	C	-4.080572	-0.183867	-0.912295
C38	C	-4.023965	-0.114475	-0.855092
C39	C	-3.935796	-0.054801	-0.717282
C40	C	-3.989596	-0.120718	-0.771633
C41	C	-4.137826	0.054247	-0.233078
C42	C	-4.074928	0.143134	-0.227416
C43	C	-4.147788	-0.095778	-0.105297
C44	C	-4.091227	-0.102270	-0.018395
H45	H	-3.990283	-0.489943	-0.403092
C46	C	-3.774026	-0.300602	-0.109107
N47	N	-3.728266	-0.260531	-0.046875
C48	C	-4.030843	-0.624288	-0.360218
N49	N	-4.076568	-0.664374	-0.422440
H50	H	-3.765058	0.058746	-0.448385
C51	C	-3.857179	-0.475979	-0.120295
N52	N	-3.844204	-0.505092	-0.062476
C53	C	-4.014892	-0.203758	-0.744738
N54	N	-4.033935	-0.266304	-0.724473
C55	C	-3.938674	0.037351	-0.816620
N56	N	-3.891734	0.094851	-0.769230
H57	H	-3.826086	0.069817	-0.596522
C58	C	-4.176508	-0.254094	-1.056878
N59	N	-4.223436	-0.311586	-1.104277
C60	C	-4.151353	-0.874933	-0.379816
N61	N	-4.197133	-0.915011	-0.442046
C62	C	-4.009327	0.050168	-0.988080
N63	N	-3.990291	0.112719	-1.008333
C64	C	-3.919299	-0.671767	-0.064365
N65	N	-3.873507	-0.631692	-0.002133
H66	H	-3.917075	0.006666	-0.737196
H67	H	-4.006938	-0.837114	-0.095494
C68	C	-4.105887	-0.266915	-0.885411
N69	N	-4.124956	-0.329468	-0.865162
C70	C	-3.922897	-0.328375	-0.413372
N71	N	-3.935861	-0.299259	-0.471190
H72	H	-3.910305	-0.565074	-0.150170
H73	H	-4.063712	-0.709597	-0.348691
H74	H	-3.970516	-0.193038	-0.655947
H75	H	-3.909468	-0.204114	-0.507823
