data_functionalizedCrystal
_audit_creation_method	'MofGen! by Chris Wilmer'
_symmetry_space_group_name_H-M	'P1'
_symmetry_Int_Tables_number	1
_symmetry_cell_setting	triclinic
loop_
_symmetry_equiv_pos_as_xyz
  x,y,z
_cell_length_a	13.635800
_cell_length_b	19.452420
_cell_length_c	10.943624
_cell_angle_alpha	85.540546
_cell_angle_beta	108.838799
_cell_angle_gamma	78.303285
loop_
_atom_site_label
_atom_site_type_symbol
_atom_site_fract_x
_atom_site_fract_y
_atom_site_fract_z
V1	V	2.039736	-0.097165	0.403183
O2	O	2.037471	0.004688	0.394858
O3	O	2.011006	-0.192679	0.401050
O4	O	2.028996	-0.095662	0.578739
O5	O	2.019356	-0.093001	0.215939
V6	V	2.280393	-0.084983	0.380711
O7	O	2.172788	-0.123886	0.452476
O8	O	2.372439	-0.058261	0.331417
O9	O	2.197520	0.010532	0.382843
O10	O	2.341356	-0.186835	0.389036
O11	O	2.359471	-0.089146	0.567955
O12	O	2.179530	-0.086486	0.205154
V13	V	2.539736	-0.097165	0.403183
O14	O	2.537471	0.004688	0.394858
O15	O	2.511006	-0.192679	0.401050
O16	O	2.528996	-0.095662	0.578739
O17	O	2.519356	-0.093001	0.215939
V18	V	2.780393	-0.084983	0.380711
O19	O	2.672788	-0.123886	0.452476
O20	O	2.872439	-0.058261	0.331417
O21	O	2.697520	0.010532	0.382843
O22	O	2.841356	-0.186835	0.389036
O23	O	2.859471	-0.089146	0.567955
O24	O	2.679530	-0.086486	0.205154
C25	C	1.931968	-0.215964	0.394851
C26	C	1.949211	-0.294048	0.394278
C27	C	1.928618	-0.320683	0.275693
C28	C	1.944852	-0.394049	0.275115
C29	C	1.981659	-0.440778	0.393127
C30	C	2.002259	-0.414137	0.511728
C31	C	1.986035	-0.340771	0.512303
N32	N	1.971431	-0.561223	0.476240
N33	N	1.986839	-0.630916	0.475686
C34	C	2.030546	-0.661824	0.391400
N35	N	2.058245	-0.620404	0.307669
N36	N	2.042830	-0.550704	0.308220
C37	C	1.999256	-0.520332	0.392516
C38	C	2.027556	-0.768011	0.272180
C39	C	2.043797	-0.841379	0.271607
C40	C	2.101195	-0.861465	0.508223
C41	C	2.084963	-0.788098	0.508793
C42	C	2.048138	-0.741375	0.390768
C43	C	1.954916	-0.092207	0.621510
C44	C	1.986747	-0.091611	0.765032
C45	C	2.108228	0.033813	0.389039
C46	C	2.080605	0.111896	0.389620
C47	C	2.085280	-0.089942	0.162377
C48	C	2.043069	-0.090535	0.018853
C49	C	2.431968	-0.215964	0.394851
C50	C	2.449211	-0.294048	0.394278
C51	C	2.454916	-0.092207	0.621510
C52	C	2.486747	-0.091611	0.765032
C53	C	1.909907	-0.087592	0.842154
C54	C	1.993528	-0.147243	0.948531
C55	C	1.959854	-0.030903	0.914388
C56	C	2.069963	-0.151318	0.869534
C57	C	2.036258	-0.034925	0.835367
C58	C	2.119945	-0.094593	0.941715
C59	C	2.608228	0.033813	0.389039
C60	C	2.580605	0.111896	0.389620
C61	C	2.585280	-0.089942	0.162377
C62	C	2.543069	-0.090535	0.018853
C63	C	2.548706	-0.334299	0.400483
C64	C	2.564926	-0.407669	0.399964
C65	C	2.481648	-0.440787	0.393231
C66	C	2.382145	-0.400532	0.387030
C67	C	2.365929	-0.327163	0.387558
C68	C	2.653604	0.152147	0.383419
C69	C	2.627656	0.225517	0.383944
C70	C	2.528712	0.258635	0.390680
C71	C	2.455707	0.218380	0.396878
C72	C	2.481652	0.145012	0.396343
C73	C	2.409907	-0.087592	0.842154
C74	C	2.493528	-0.147243	0.948531
C75	C	2.459854	-0.030903	0.914388
C76	C	2.569963	-0.151318	0.869534
C77	C	2.536258	-0.034925	0.835367
C78	C	2.619945	-0.094593	0.941715
H79	H	1.898641	-0.282644	0.179588
H80	H	2.553950	0.012562	0.786075
C81	C	2.731008	-0.348742	0.413229
C82	C	2.640259	-0.297906	0.407886
H83	H	2.787534	-0.326278	0.417810
H84	H	2.715173	-0.370798	0.337077
H85	H	2.751870	-0.383621	0.488439
H86	H	2.619392	-0.263030	0.332670
H87	H	2.656095	-0.275839	0.484045
H88	H	2.709051	-0.097567	0.984979
H89	H	2.284906	-0.294396	0.382498
C90	C	2.043226	-0.944923	0.165666
C91	C	2.021189	-0.870660	0.141250
H92	H	2.029281	-0.963000	0.085187
H93	H	1.999211	-0.958801	0.210019
H94	H	2.116139	-0.963333	0.218333
H95	H	1.948274	-0.852250	0.088591
H96	H	2.065204	-0.856776	0.096876
C97	C	2.662133	-0.484857	0.295281
C98	C	2.674298	-0.451905	0.406756
H99	H	2.729653	-0.512166	0.299476
H100	H	2.633639	-0.449675	0.219553
H101	H	2.614867	-0.515086	0.291226
H102	H	2.721558	-0.421672	0.410805
H103	H	2.702807	-0.487091	0.482504
C104	C	2.269110	-0.097420	1.134765
C105	C	2.240231	-0.098601	1.000132
H106	H	2.343368	-0.099892	1.170827
H107	H	2.253633	-0.136919	1.175023
H108	H	2.229924	-0.054641	1.149748
H109	H	2.279412	-0.141383	0.985149
H110	H	2.255719	-0.059098	0.959861
C111	C	2.700885	-0.261841	0.960800
C112	C	2.632399	-0.220097	0.842261
H113	H	2.739431	-0.304299	0.943958
H114	H	2.660145	-0.273377	1.011824
H115	H	2.749539	-0.236158	1.006999
H116	H	2.583741	-0.245778	0.796066
H117	H	2.673143	-0.208562	0.791217
H118	H	2.375145	0.245356	0.402361
H119	H	2.494866	-0.500529	0.392802
C120	C	2.085589	-0.684554	0.614732
C121	C	2.107595	-0.758816	0.639146
H122	H	2.099574	-0.666479	0.695213
H123	H	2.012682	-0.666132	0.562097
H124	H	2.129601	-0.670688	0.570345
H125	H	2.063577	-0.772682	0.683524
H126	H	2.180514	-0.777244	0.691802
C127	C	2.328174	0.079328	0.823514
C128	C	2.397434	0.037805	0.941903
H129	H	2.289640	0.121745	0.840500
H130	H	2.279557	0.053454	0.777966
H131	H	2.368360	0.090955	0.771795
H132	H	2.357248	0.026174	0.993618
H133	H	2.446057	0.063685	0.987471
C134	C	2.015957	-0.468263	0.143284
C135	C	1.922208	-0.423337	0.144758
H136	H	2.001973	-0.486339	0.062804
H137	H	2.040198	-0.506584	0.213483
H138	H	2.069273	-0.442329	0.152545
H139	H	1.868894	-0.449273	0.135506
H140	H	1.897952	-0.385011	0.074539
H141	H	1.820840	-0.084711	0.798686
C142	C	2.664258	0.341149	0.379020
C143	C	2.707916	0.269755	0.377141
H144	H	2.713807	0.368457	0.374813
H145	H	2.649259	0.345296	0.457434
H146	H	2.600109	0.358115	0.306070
H147	H	2.772062	0.252787	0.450097
H148	H	2.722930	0.265605	0.298718
C149	C	2.139972	-0.511655	0.654432
C150	C	2.042716	-0.465501	0.641447
H151	H	2.164947	-0.543367	0.734515
H152	H	2.190903	-0.484893	0.653881
H153	H	2.130017	-0.538014	0.583712
H154	H	2.052673	-0.439137	0.712162
H155	H	1.991774	-0.492265	0.642010
H156	H	2.002809	-0.319088	0.608873
H157	H	1.997571	-0.729966	0.176076
C158	C	2.408520	0.371255	0.283412
C159	C	2.500205	0.339283	0.391274
H160	H	2.390933	0.421044	0.283780
H161	H	2.350887	0.352031	0.288077
H162	H	2.421571	0.362383	0.205227
H163	H	2.487152	0.348150	0.469460
H164	H	2.557851	0.358514	0.386620
H165	H	2.314345	-0.427508	0.381548
H166	H	1.913611	0.019976	0.934820
H167	H	1.975795	-0.194727	0.997789
C168	C	2.309093	0.145340	0.409217
C169	C	2.401409	0.100771	0.403183
H170	H	2.259555	0.118028	0.413448
H171	H	2.277971	0.180512	0.333476
H172	H	2.327149	0.167698	0.484837
H173	H	2.383355	0.078418	0.327558
H174	H	2.432537	0.065587	0.478933
H175	H	2.320840	-0.084711	0.798686
H176	H	2.116211	-0.202265	0.849320
H177	H	2.734175	0.125192	0.377935
H178	H	2.131164	-0.899511	0.604311
H179	H	2.053950	0.012562	0.786075
H180	H	2.475795	-0.194727	0.997789
