data_functionalizedCrystal
_audit_creation_method	'MofGen! by Chris Wilmer'
_symmetry_space_group_name_H-M	'P1'
_symmetry_Int_Tables_number	1
_symmetry_cell_setting	triclinic
loop_
_symmetry_equiv_pos_as_xyz
  x,y,z
_cell_length_a	16.959455
_cell_length_b	13.032721
_cell_length_c	13.032268
_cell_angle_alpha	103.289627
_cell_angle_beta	97.163809
_cell_angle_gamma	97.201375
loop_
_atom_site_label
_atom_site_type_symbol
_atom_site_fract_x
_atom_site_fract_y
_atom_site_fract_z
Zn1	Zn	1.097589	-0.499160	-0.654200
Zn2	Zn	1.097503	-0.654244	-0.499148
Zn3	Zn	0.984636	-0.476647	-0.476620
Zn4	Zn	0.946163	-0.676707	-0.676690
O5	O	1.031473	-0.576690	-0.576665
O6	O	1.208185	-0.519753	-0.633648
O7	O	1.098596	-0.611863	-0.347540
O8	O	1.015757	-0.331004	-0.481336
O9	O	1.208121	-0.633693	-0.519732
O10	O	1.098743	-0.347544	-0.611804
O11	O	1.015674	-0.481383	-0.330989
O12	O	0.868926	-0.503164	-0.503144
O13	O	0.950184	-0.671978	-0.822327
O14	O	0.840659	-0.650148	-0.650135
O15	O	1.061437	-0.541535	-0.805803
O16	O	1.061289	-0.805853	-0.541540
O17	O	0.950101	-0.822357	-0.671979
C18	C	1.001530	-0.852646	-0.611668
C19	C	0.988788	-0.970706	-0.626677
C20	C	0.826113	-0.576651	-0.576636
C21	C	0.738253	-0.576664	-0.576652
C22	C	1.038159	-1.015147	-0.568879
C23	C	1.024992	-1.137167	-0.584391
C24	C	0.381459	-0.500118	-0.500261
C25	C	0.352073	-0.653357	-0.653140
C26	C	0.434622	-0.653341	-0.653131
C27	C	0.490593	-0.576713	-0.576686
C28	C	0.464015	-0.500101	-0.500249
C29	C	0.461205	-0.729958	-0.729560
C30	C	0.543758	-0.729945	-0.729554
C31	C	0.599731	-0.653312	-0.653113
C32	C	0.573149	-0.576696	-0.576673
C33	C	0.629120	-0.500069	-0.500228
C34	C	0.602540	-0.423447	-0.423792
C35	C	0.519988	-0.423468	-0.423807
C36	C	0.682283	-0.653292	-0.653098
C37	C	0.711676	-0.500052	-0.500215
C38	C	1.237634	-0.576729	-0.576694
C39	C	1.325488	-0.576745	-0.576707
C40	C	1.001528	-0.611773	-0.853678
C41	C	0.988768	-0.626724	-0.971725
C42	C	1.061552	-0.299659	-0.541548
C43	C	1.074369	-0.181604	-0.526584
C44	C	1.038124	-0.568849	-1.016178
C45	C	1.024937	-0.584299	-1.138185
C46	C	1.061354	-0.541666	-0.300719
C47	C	1.074300	-0.526416	-0.182635
H48	H	1.090179	-0.962861	-0.507914
O49	O	0.352785	-0.417505	-0.417809
H50	H	0.315872	-0.369579	-0.458579
H51	H	0.936745	-0.687705	-1.023991
O52	O	0.291715	-0.736022	-0.735576
H53	H	0.300516	-0.728509	-0.816669
H54	H	0.972974	-1.189453	-0.645367
O55	O	0.400831	-0.812591	-0.812007
H56	H	0.362537	-0.771975	-0.860099
O57	O	1.143213	-0.445627	-1.113414
H58	H	1.177359	-0.405580	-1.164538
O59	O	1.143284	-1.112363	-0.445823
H60	H	1.119198	-1.055036	-0.385366
O61	O	0.919877	-1.039951	-0.707432
H62	H	0.920342	-1.124924	-0.706933
O63	O	1.107030	-0.488059	-0.946951
H64	H	1.141176	-0.448009	-0.998072
O65	O	0.956020	-0.665087	-1.207401
H66	H	0.980102	-0.725492	-1.264787
H67	H	0.648122	-0.361061	-0.361546
O68	O	0.772045	-0.417414	-0.417751
H69	H	0.739691	-0.364151	-0.364600
O70	O	0.572427	-0.812570	-0.812000
H71	H	0.519638	-0.865849	-0.865164
H72	H	0.498338	-0.361088	-0.361576
O73	O	0.710957	-0.735918	-0.735529
H74	H	0.658168	-0.789202	-0.788690
