data_functionalizedCrystal
_audit_creation_method	'MofGen! by Chris Wilmer'
_symmetry_space_group_name_H-M	'P1'
_symmetry_Int_Tables_number	1
_symmetry_cell_setting	triclinic
loop_
_symmetry_equiv_pos_as_xyz
  x,y,z
_cell_length_a	10.540510
_cell_length_b	10.540539
_cell_length_c	13.596369
_cell_angle_alpha	89.996161
_cell_angle_beta	89.994444
_cell_angle_gamma	84.519401
loop_
_atom_site_label
_atom_site_type_symbol
_atom_site_fract_x
_atom_site_fract_y
_atom_site_fract_z
O1	O	1.685911	0.178723	-0.081793
O2	O	1.316493	0.195618	-0.081793
O3	O	1.509630	0.002463	-0.081791
O4	O	1.492774	0.371878	-0.081794
O5	O	1.509610	0.002452	0.081792
O6	O	1.316473	0.195607	0.081790
O7	O	1.685891	0.178712	0.081790
Zn8	Zn	1.501179	0.187158	0.107763
Zn9	Zn	1.501205	0.187172	-0.107765
O10	O	1.492754	0.371867	0.081789
C11	C	1.269179	0.194354	-0.000001
C12	C	1.128229	0.190587	-0.000001
C13	C	0.910774	0.324771	-0.000378
C14	C	1.057370	0.328789	-0.000004
C15	C	1.083459	0.119835	0.093411
C16	C	0.936697	0.116796	0.093483
C17	C	0.936914	0.113929	-0.092541
C18	C	1.083255	0.120485	-0.093770
C19	C	1.508356	-0.044845	-0.000002
C20	C	1.504574	-0.185793	-0.000007
C21	C	1.359655	-0.369204	-0.000374
C22	C	1.363489	-0.222587	-0.000006
C23	C	1.572459	-0.247464	0.093407
C24	C	1.567644	-0.394008	0.093486
C25	C	1.570536	-0.394514	-0.092539
C26	C	1.571835	-0.247533	-0.093774
C27	C	1.733204	0.179976	-0.000003
C28	C	1.874154	0.183743	-0.000009
C29	C	1.494028	0.419175	-0.000003
C30	C	1.497810	0.560123	-0.000004
N31	N	1.501171	0.187148	0.254854
N32	N	1.501223	0.187172	-0.254857
C33	C	1.501203	0.187173	0.656145
C34	C	1.501190	0.187170	0.544494
C35	C	1.501188	0.187162	0.455503
C36	C	1.501174	0.187157	0.343845
H37	H	0.868829	0.378617	-0.067370
O38	O	1.139840	-0.001593	0.097695
C39	C	1.097584	-0.062289	0.182388
H40	H	1.001814	-0.012806	0.206683
H41	H	1.086532	-0.166460	0.164997
H42	H	1.170236	-0.056683	0.243968
H43	H	1.111881	0.171963	-0.162876
H44	H	1.524882	-0.426058	-0.163340
H45	H	1.669110	-0.441987	0.097724
H46	H	1.132323	0.019587	-0.099411
H47	H	1.672441	-0.441751	-0.093167
H48	H	1.522164	-0.206665	-0.162879
H49	H	0.867259	0.378299	0.066232
H50	H	1.085765	0.384467	0.067070
H51	H	0.896473	0.165139	0.163309
H52	H	0.894374	0.157517	-0.163343
O53	O	1.299487	-0.172625	0.080051
C54	C	1.382906	-0.108833	0.139326
H55	H	1.465397	-0.080327	0.092606
H56	H	1.329168	-0.019832	0.172235
H57	H	1.421606	-0.174751	0.201067
H58	H	1.674698	-0.223322	-0.099415
O59	O	0.909098	-0.006457	0.098685
C60	C	0.837128	-0.023778	0.184232
H61	H	0.787252	0.071802	0.208555
H62	H	0.762855	-0.092784	0.167976
H63	H	0.903076	-0.064358	0.245338
H64	H	0.914760	0.010167	-0.093172
H65	H	1.310072	-0.179973	-0.066969
O66	O	1.293004	-0.403125	-0.080258
C67	C	1.169707	-0.338213	-0.078387
H68	H	1.170589	-0.248241	-0.031968
H69	H	1.138707	-0.311199	-0.156554
H70	H	1.100125	-0.402709	-0.045129
H71	H	1.114305	0.168962	0.162927
H72	H	1.304142	-0.399410	0.066239
O73	O	1.507628	-0.427791	0.176684
C74	C	1.398298	-0.487813	0.151177
H75	H	1.409900	-0.528472	0.073656
H76	H	1.385659	-0.568237	0.205312
H77	H	1.310928	-0.415267	0.153936
H78	H	1.676068	-0.225121	0.096880
H79	H	1.086723	0.384139	-0.066968
O80	O	1.516365	-0.196751	0.176441
C81	C	1.578445	-0.253200	0.259654
H82	H	1.679217	-0.292921	0.238720
H83	H	1.583041	-0.178503	0.319855
H84	H	1.523277	-0.333819	0.287675
