data_functionalizedCrystal
_audit_creation_method	'MofGen! by Chris Wilmer'
_symmetry_space_group_name_H-M	'P1'
_symmetry_Int_Tables_number	1
_symmetry_cell_setting	triclinic
loop_
_symmetry_equiv_pos_as_xyz
  x,y,z
_cell_length_a	18.215407
_cell_length_b	29.839131
_cell_length_c	18.215407
_cell_angle_alpha	90.025546
_cell_angle_beta	90.004987
_cell_angle_gamma	90.035676
loop_
_atom_site_label
_atom_site_type_symbol
_atom_site_fract_x
_atom_site_fract_y
_atom_site_fract_z
Zn1	Zn	1.124911	-0.178910	0.416061
Zn2	Zn	1.124829	-0.254022	0.292973
Zn3	Zn	1.001876	-0.178908	0.293009
Zn4	Zn	1.001787	-0.254014	0.415997
O5	O	1.063351	-0.216464	0.354510
O6	O	1.227885	-0.188878	0.399745
O7	O	1.108522	-0.244061	0.189993
O8	O	1.018268	-0.116041	0.309374
O9	O	1.227824	-0.244063	0.309312
O10	O	1.108661	-0.116043	0.399780
O11	O	1.018188	-0.188874	0.190020
O12	O	0.898880	-0.188867	0.309312
O13	O	1.018117	-0.244049	0.518990
O14	O	0.898815	-0.244047	0.399671
O15	O	1.108576	-0.188871	0.519037
O16	O	1.108436	-0.316889	0.309250
O17	O	1.018038	-0.316883	0.399636
C18	C	0.872145	-0.216456	0.354489
C19	C	0.790346	-0.216464	0.354497
C20	C	0.602137	-0.245241	0.401488
C21	C	0.525279	-0.245243	0.401497
C22	C	0.525316	-0.187694	0.307548
C23	C	0.602174	-0.187691	0.307543
C24	C	0.640582	-0.216467	0.354512
C25	C	0.486866	-0.216472	0.354526
C26	C	0.403532	-0.216473	0.354536
C27	C	0.723921	-0.216465	0.354504
C28	C	1.063239	-0.333186	0.354448
C29	C	1.063258	-0.383121	0.354446
C30	C	1.110409	-0.692730	0.401652
C31	C	1.110488	-0.880403	0.401696
O32	O	1.150468	-0.904639	0.441786
N33	N	1.063476	-0.903906	0.354592
C34	C	1.016436	-0.880487	0.307477
O35	O	0.976446	-0.904784	0.267418
C36	C	1.016353	-0.692815	0.307437
C37	C	1.063374	-0.669315	0.354539
C38	C	1.157425	-0.669230	0.448750
C39	C	1.157408	-0.622314	0.448736
C40	C	1.110373	-0.598899	0.401623
C41	C	1.063357	-0.622399	0.354524
C42	C	0.969311	-0.669397	0.260326
C43	C	0.969293	-0.622476	0.260321
C44	C	1.016314	-0.598976	0.307423
C45	C	1.016305	-0.552069	0.307397
N46	N	1.063318	-0.528566	0.354501
C47	C	1.110352	-0.551981	0.401614
C48	C	1.016484	-0.979018	0.307500
C49	C	1.016506	-1.025936	0.307509
C50	C	1.110557	-1.025848	0.401729
C51	C	1.110539	-0.978930	0.401716
C52	C	1.063497	-0.955515	0.354604
C53	C	1.110312	-0.453456	0.401580
C54	C	1.110292	-0.406536	0.401559
C55	C	1.016239	-0.406627	0.307342
C56	C	1.016261	-0.453543	0.307359
C57	C	1.063300	-0.476956	0.354484
O58	O	0.976341	-0.527804	0.267334
O59	O	1.150325	-0.527677	0.441678
C60	C	1.110426	-0.739646	0.401666
C61	C	1.063410	-0.763146	0.354567
C62	C	1.016375	-0.739731	0.307454
C63	C	1.063431	-0.810064	0.354576
C64	C	1.110465	-0.833479	0.401689
C65	C	1.157478	-0.809976	0.448793
C66	C	1.157460	-0.763061	0.448779
C67	C	0.969363	-0.763233	0.260350
C68	C	0.969385	-0.810149	0.260368
C69	C	1.016419	-0.833564	0.307481
C70	C	1.255304	-0.216472	0.354532
C71	C	1.337103	-0.216475	0.354541
C72	C	1.063346	-0.216459	0.546463
C73	C	1.063344	-0.216457	0.628262
C74	C	1.063484	-0.099285	0.354588
C75	C	1.063540	-0.049351	0.354622
C76	C	1.016308	-0.187733	0.816471
C77	C	1.016305	-0.187737	0.893329
C78	C	1.110374	-0.245202	0.893291
C79	C	1.110373	-0.245201	0.816433
C80	C	1.063341	-0.216464	0.778025
C81	C	1.063339	-0.216469	0.931741
C82	C	1.063336	-0.216473	1.015075
C83	C	1.063343	-0.216460	0.694686
C84	C	1.063346	-0.216477	1.163304
C85	C	1.063336	-0.216475	1.081505
H86	H	1.148610	-0.472513	0.439959
H87	H	0.633407	-0.268671	0.439735
H88	H	1.148666	-0.268599	0.924572
N89	N	0.968274	-0.158384	0.777224
N90	N	0.994199	-0.129756	0.734361
H91	H	0.960273	-0.109028	0.706642
N92	N	0.486020	-0.274635	0.449491
N93	N	0.520325	-0.300322	0.491425
H94	H	0.492599	-0.321082	0.525324
H95	H	0.494035	-0.164267	0.269306
H96	H	0.633477	-0.164257	0.269289
H97	H	1.195694	-0.603183	0.487093
H98	H	0.978005	-0.164342	0.924628
H99	H	1.148585	-0.387403	0.439915
N100	N	1.158432	-0.274549	0.777172
N101	N	1.226342	-0.271570	0.785766
H102	H	1.260283	-0.292297	0.758039
N103	N	1.158612	-1.049770	0.449847
N104	N	1.205541	-1.075934	0.424004
H105	H	1.239476	-1.092831	0.457987
H106	H	1.148827	-0.959799	0.440071
N107	N	1.205475	-0.693136	0.496888
N108	N	1.247444	-0.672139	0.538934
H109	H	1.281386	-0.689020	0.572932
H110	H	0.978225	-1.045066	0.269146
H111	H	0.931022	-0.688523	0.221970
N112	N	0.968423	-0.955111	0.259369
N113	N	0.926456	-0.976106	0.217319
H114	H	0.892513	-0.959225	0.183324
H115	H	0.930984	-0.603415	0.221958
N116	N	0.968258	-0.477544	0.259211
N117	N	0.926286	-0.456629	0.217131
H118	H	0.892387	-0.473576	0.183120
H119	H	0.977946	-0.387555	0.268981
N120	N	1.205507	-0.739065	0.496885
N121	N	1.273418	-0.744282	0.492058
H122	H	1.307356	-0.727339	0.526035
N123	N	1.205524	-0.833906	0.496909
N124	N	1.205527	-0.875797	0.496905
H125	H	1.239456	-0.892700	0.530886
N126	N	0.921352	-0.834144	0.212240
N127	N	0.879362	-0.813226	0.170181
H128	H	0.845436	-0.830170	0.136194
N129	N	0.921309	-0.739326	0.212220
N130	N	0.879339	-0.760321	0.170172
H131	H	0.845399	-0.743439	0.136175
