data_functionalizedCrystal
_audit_creation_method	'MofGen! by Chris Wilmer'
_symmetry_space_group_name_H-M	'P1'
_symmetry_Int_Tables_number	1
_symmetry_cell_setting	triclinic
loop_
_symmetry_equiv_pos_as_xyz
  x,y,z
_cell_length_a	13.897448
_cell_length_b	18.215407
_cell_length_c	18.215399
_cell_angle_alpha	90.014769
_cell_angle_beta	89.971263
_cell_angle_gamma	89.986687
loop_
_atom_site_label
_atom_site_type_symbol
_atom_site_fract_x
_atom_site_fract_y
_atom_site_fract_z
Zn1	Zn	-0.384115	-1.125087	-0.416084
Zn2	Zn	0.115885	-0.625087	0.083916
Zn3	Zn	-0.545431	-1.125017	-0.293021
Zn4	Zn	-0.045431	-0.625017	0.206979
Zn5	Zn	-0.384139	-1.002026	-0.293036
Zn6	Zn	0.115861	-0.502026	0.206964
Zn7	Zn	-0.545357	-1.002001	-0.416050
Zn8	Zn	-0.045357	-0.502001	0.083950
O9	O	-0.464760	-1.063533	-0.354548
O10	O	0.035240	-0.563533	0.145452
O11	O	-0.405534	-1.228062	-0.399767
O12	O	0.094466	-0.728062	0.100233
O13	O	-0.524077	-1.108683	-0.190039
O14	O	-0.024077	-0.608683	0.309961
O15	O	-0.249154	-1.018390	-0.309378
O16	O	0.250846	-0.518390	0.190622
O17	O	-0.524053	-1.228011	-0.309353
O18	O	-0.024053	-0.728011	0.190647
O19	O	-0.249136	-1.108802	-0.399781
O20	O	0.250864	-0.608802	0.100219
O21	O	-0.405576	-1.018322	-0.190049
O22	O	0.094424	-0.518322	0.309951
O23	O	-0.405505	-0.899038	-0.309346
O24	O	0.094495	-0.399038	0.190654
O25	O	-0.523926	-1.018347	-0.519039
O26	O	-0.023926	-0.518347	-0.019039
O27	O	-0.523950	-0.899020	-0.399724
O28	O	-0.023950	-0.399020	0.100276
O29	O	-0.405462	-1.108778	-0.519064
O30	O	0.094538	-0.608778	-0.019064
O31	O	-0.680403	-1.108659	-0.309321
O32	O	-0.180403	-0.608659	0.190679
O33	O	-0.680348	-1.018279	-0.399710
O34	O	-0.180348	-0.518279	0.100290
C35	C	-0.464723	-0.872326	-0.354533
C36	C	0.035277	-0.372326	0.145467
C37	C	-0.464730	-0.790528	-0.354545
C38	C	0.035270	-0.290528	0.145455
C39	C	-0.403137	-0.602359	-0.401696
C40	C	0.096863	-0.102359	0.098304
C41	C	-0.403142	-0.525500	-0.401698
C42	C	0.096858	-0.025500	0.098302
C43	C	-0.526370	-0.525458	-0.307405
C44	C	-0.026370	-0.025458	0.192595
C45	C	-0.526359	-0.602315	-0.307400
C46	C	-0.026359	-0.102315	0.192600
C47	C	-0.464744	-0.640764	-0.354550
C48	C	0.035256	-0.140764	0.145450
C49	C	-0.464760	-0.487048	-0.354557
C50	C	0.035240	0.012952	0.145443
C51	C	-0.464766	-0.403714	-0.354558
C52	C	0.035234	0.096286	0.145442
C53	C	-0.464737	-0.724103	-0.354547
C54	C	0.035263	-0.224103	0.145453
C55	C	-0.715375	-1.063479	-0.354526
C56	C	-0.215375	-0.563479	0.145474
C57	C	-0.822589	-1.063523	-0.354542
C58	C	-0.322589	-0.563523	0.145458
C59	C	-1.018884	-1.063601	-0.354588
C60	C	-0.518884	-0.563601	0.145412
C61	C	-0.909651	-1.063556	-0.354565
C62	C	-0.409651	-0.563556	0.145435
C63	C	-0.213168	-1.063607	-0.354585
C64	C	0.286832	-0.563607	0.145415
C65	C	-0.105954	-1.063638	-0.354601
C66	C	0.394046	-0.563638	0.145399
C67	C	-0.464683	-1.063567	-0.546501
C68	C	0.035317	-0.563567	-0.046501
C69	C	-0.464651	-1.063582	-0.628300
C70	C	0.035349	-0.563582	-0.128300
C71	C	-0.464788	-0.255486	-0.354561
C72	C	0.035212	0.244514	0.145439
C73	C	-0.464774	-0.337284	-0.354562
C74	C	0.035226	0.162716	0.145438
C75	C	-0.402906	-1.016571	-0.816500
C76	C	0.097094	-0.516571	-0.316500
C77	C	-0.402886	-1.016584	-0.893359
C78	C	0.097114	-0.516584	-0.393359
C79	C	-0.526280	-1.110682	-0.893337
C80	C	-0.026280	-0.610682	-0.393337
C81	C	-0.526304	-1.110664	-0.816480
C82	C	-0.026304	-0.610664	-0.316480
C83	C	-0.464611	-1.063610	-0.778063
C84	C	0.035389	-0.563610	-0.278063
C85	C	-0.464568	-1.063640	-0.931779
C86	C	0.035432	-0.563640	-0.431779
C87	C	-0.464548	-1.063654	-1.015113
C88	C	0.035452	-0.563654	-0.515113
C89	C	-0.464633	-1.063595	-0.694724
C90	C	0.035367	-0.563595	-0.194724
C91	C	-0.464768	-1.063540	-0.163341
C92	C	0.035232	-0.563540	0.336659
C93	C	-0.464529	-1.063668	-0.081543
C94	C	0.035471	-0.563668	0.418457
H95	H	-0.352973	-0.494235	-0.440088
H96	H	0.147027	0.005765	0.059912
C97	C	-0.594134	-0.644564	-0.255539
C98	C	-0.094134	-0.144564	0.244461
H99	H	-0.630841	-0.610659	-0.227466
H100	H	-0.130841	-0.110659	0.272534
H101	H	-0.557181	-0.674540	-0.223520
H102	H	-0.057181	-0.174540	0.276480
H103	H	-0.636204	-0.674549	-0.283640
H104	H	-0.136204	-0.174549	0.216360
H105	H	-0.352672	-0.978256	-0.785224
H106	H	0.147328	-0.478256	-0.285224
C107	C	-0.594149	-0.483162	-0.255551
C108	C	-0.094149	0.016838	0.244449
H109	H	-0.585341	-0.431888	-0.262311
H110	H	-0.085341	0.068112	0.237689
H111	H	-0.579957	-0.495742	-0.206121
H112	H	-0.079957	0.004258	0.293879
H113	H	-0.658977	-0.495758	-0.266243
H114	H	-0.158977	0.004242	0.233757
C115	C	-0.335006	-0.964844	-0.935636
C116	C	0.164994	-0.464844	-0.435636
H117	H	-0.298266	-0.936824	-0.901747
H118	H	0.201734	-0.436824	-0.401747
H119	H	-0.371886	-0.932773	-0.965609
H120	H	0.128114	-0.432773	-0.465609
H121	H	-0.292972	-0.993019	-0.965628
H122	H	0.207028	-0.493019	-0.465628
H123	H	-0.576508	-1.148992	-0.924625
H124	H	-0.076508	-0.648992	-0.424625
C125	C	-0.335356	-0.644650	-0.453553
C126	C	0.164644	-0.144650	0.046447
H127	H	-0.298660	-0.610767	-0.481626
H128	H	0.201340	-0.110767	0.018374
H129	H	-0.372297	-0.674640	-0.485569
H130	H	0.127703	-0.174640	0.014431
H131	H	-0.293276	-0.674626	-0.425448
H132	H	0.206724	-0.174626	0.074552
H133	H	-0.576556	-1.148971	-0.785183
H134	H	-0.076556	-0.648971	-0.285183
