data_functionalizedCrystal
_audit_creation_method	'MofGen! by Chris Wilmer'
_symmetry_space_group_name_H-M	'P1'
_symmetry_Int_Tables_number	1
_symmetry_cell_setting	triclinic
loop_
_symmetry_equiv_pos_as_xyz
  x,y,z
_cell_length_a	10.654537
_cell_length_b	16.098678
_cell_length_c	17.038272
_cell_angle_alpha	92.929250
_cell_angle_beta	92.203233
_cell_angle_gamma	92.750391
loop_
_atom_site_label
_atom_site_type_symbol
_atom_site_fract_x
_atom_site_fract_y
_atom_site_fract_z
O1	O	-1.672808	0.069239	0.113315
O2	O	-1.308300	0.069245	0.123789
O3	O	-1.488388	0.069235	0.004724
O4	O	-1.492720	0.069248	0.232380
O5	O	-1.498853	-0.069275	-0.002208
O6	O	-1.318765	-0.069266	0.116857
O7	O	-1.683273	-0.069271	0.106382
Zn8	Zn	-1.502680	-0.091260	0.110519
Zn9	Zn	-1.488893	0.091233	0.119653
O10	O	-1.503185	-0.069262	0.225447
C11	C	-1.266663	-0.000010	0.119555
C12	C	-1.127006	-0.000008	0.117258
C13	C	-1.112253	0.000010	0.259631
C14	C	-1.039268	0.000023	0.329735
C15	C	-0.908048	0.000023	0.327571
C16	C	-0.849813	0.000008	0.255296
C17	C	-0.922799	-0.000004	0.185192
C18	C	-1.054020	-0.000002	0.187363
C19	C	-0.937552	-0.000029	0.042820
C20	C	-1.068771	-0.000023	0.044982
C21	C	-0.879316	-0.000043	-0.029455
C22	C	-0.952302	-0.000050	-0.099560
C23	C	-1.083529	-0.000049	-0.097394
C24	C	-1.141757	-0.000035	-0.025121
N25	N	-1.512099	-0.215807	0.104285
C26	C	-1.489680	-0.000020	-0.027892
C27	C	-1.477923	-0.000019	-0.114751
C28	C	-0.724909	-0.000016	0.110619
C29	C	-0.864566	-0.000016	0.112924
C30	C	-1.435645	-0.259409	0.154802
C31	C	-1.442270	-0.346597	0.150438
C32	C	-1.525344	-0.390181	0.095552
C33	C	-1.601806	-0.346573	0.045033
C34	C	-1.595187	-0.259387	0.049402
C35	C	-1.549327	-0.653426	0.079730
C36	C	-1.555938	-0.740618	0.075363
C37	C	-1.396402	-0.740635	0.180770
C38	C	-1.389784	-0.653447	0.185130
C39	C	-1.466252	-0.609847	0.134613
C40	C	-1.532115	-0.479301	0.091089
C41	C	-1.459486	-0.520729	0.139082
N42	N	-1.479483	0.215781	0.125880
C43	C	-1.585867	-0.000022	-0.164264
C44	C	-1.574812	-0.000014	-0.245875
C45	C	-1.455812	-0.000009	-0.277973
C46	C	-1.347859	-0.000004	-0.228453
C47	C	-1.358915	-0.000006	-0.146843
C48	C	-1.416753	0.000003	-0.523948
C49	C	-1.405705	0.000002	-0.605565
C50	C	-1.632660	-0.000006	-0.622981
C51	C	-1.643705	-0.000013	-0.541369
C52	C	-1.535752	-0.000003	-0.491856
C53	C	-1.444509	-0.000004	-0.361393
C54	C	-1.547056	-0.000003	-0.408437
C55	C	-1.501893	-0.000005	0.258064
C56	C	-1.513650	-0.000000	0.344922
H57	H	-0.772471	-0.000048	-0.031212
H58	H	-1.662713	-0.000018	-0.286186
H59	H	-1.720548	-0.000012	-0.663303
Cl60	Cl	-1.175272	-0.000071	-0.185531
H61	H	-1.219097	0.000029	0.261400
H62	H	-1.308797	-0.000007	-0.631695
Cl63	Cl	-1.281038	0.000017	-0.461714
Cl64	Cl	-1.793310	0.000008	-0.501023
H65	H	-1.334147	-0.776142	0.221899
H66	H	-1.623590	-0.776100	0.030666
H67	H	-1.250965	0.000005	-0.254593
H68	H	-1.643944	0.000012	-0.382299
H69	H	-1.271014	-0.000004	-0.106529
H70	H	-1.669454	-0.382065	0.000347
Cl71	Cl	-1.645449	-0.598620	0.016222
H72	H	-1.391852	-0.485240	0.183772
H73	H	-1.347618	-0.000002	-0.387536
Cl74	Cl	-1.331197	-0.204626	0.223801
Cl75	Cl	-1.112483	0.000042	0.420590
Cl76	Cl	-1.306718	-0.000029	-0.022392
H77	H	-0.904876	-0.000061	-0.158401
H78	H	-0.848623	0.000027	0.384656
H79	H	-0.742968	-0.000002	0.253540
Cl80	Cl	-1.735476	-0.000036	-0.123922
H81	H	-1.380015	-0.382097	0.191573
H82	H	-1.322139	-0.617963	0.229822
H83	H	-1.599753	-0.514794	0.046398
Cl84	Cl	-1.691311	-0.204575	-0.014106
