data_functionalizedCrystal
_audit_creation_method	'MofGen! by Chris Wilmer'
_symmetry_space_group_name_H-M	'P1'
_symmetry_Int_Tables_number	1
_symmetry_cell_setting	triclinic
loop_
_symmetry_equiv_pos_as_xyz
  x,y,z
_cell_length_a	8.634740
_cell_length_b	9.565339
_cell_length_c	8.634740
_cell_angle_alpha	89.997526
_cell_angle_beta	79.429693
_cell_angle_gamma	89.995218
loop_
_atom_site_label
_atom_site_type_symbol
_atom_site_fract_x
_atom_site_fract_y
_atom_site_fract_z
O1	O	-2.122442	0.116285	0.514096
O2	O	-1.667085	0.116281	0.470986
O3	O	-1.873209	0.116279	0.264862
O4	O	-1.916319	0.116287	0.720219
O5	O	-1.873192	-0.116241	0.264875
O6	O	-1.667068	-0.116239	0.470998
O7	O	-2.122425	-0.116235	0.514108
Zn8	Zn	-1.894744	-0.153155	0.492555
Zn9	Zn	-1.894766	0.153201	0.492539
O10	O	-1.916302	-0.116234	0.720232
C11	C	-1.608176	0.000020	0.461226
C12	C	-1.432666	0.000019	0.432108
N13	N	-1.894740	-0.362234	0.492567
C14	C	-1.799376	-0.453437	0.587850
C15	C	-1.946413	-0.546614	0.639618
C16	C	-1.747767	-0.546612	0.440820
C17	C	-2.041860	-0.453359	0.544416
C18	C	-1.843110	-0.453350	0.345543
C19	C	-1.990242	-0.546485	0.397265
C20	C	-1.181335	0.000024	0.523868
C21	C	-1.356844	0.000021	0.552987
C22	C	-1.863434	0.000021	0.205967
C23	C	-1.834316	0.000027	0.030458
N24	N	-1.894781	0.362280	0.492517
C25	C	-1.926076	0.000028	0.779127
C26	C	-1.955195	0.000031	0.954636
H27	H	-1.718828	-0.412581	0.668527
H28	H	-1.426209	0.000014	0.678761
H29	H	-2.080961	0.000080	0.023992
H30	H	-1.990109	-0.587579	0.763933
O31	O	-2.206592	-0.399349	0.602566
H32	H	-2.205270	-0.283317	0.602191
O33	O	-2.097212	-0.600293	0.290518
H34	H	-2.219097	-0.562746	0.333809
H35	H	-1.623456	-0.587578	0.397078
O36	O	-1.340814	0.000015	0.265506
H37	H	-1.212753	0.000024	0.268009
O38	O	-1.785190	-0.399024	0.180920
H39	H	-1.663087	-0.436303	0.138238
H40	H	-1.708541	0.000035	-0.038906
