data_functionalizedCrystal
_audit_creation_method	'MofGen! by Chris Wilmer'
_symmetry_space_group_name_H-M	'P1'
_symmetry_Int_Tables_number	1
_symmetry_cell_setting	triclinic
loop_
_symmetry_equiv_pos_as_xyz
  x,y,z
_cell_length_a	16.959455
_cell_length_b	16.120484
_cell_length_c	16.959447
_cell_angle_alpha	92.866589
_cell_angle_beta	89.983056
_cell_angle_gamma	92.922454
loop_
_atom_site_label
_atom_site_type_symbol
_atom_site_fract_x
_atom_site_fract_y
_atom_site_fract_z
Zn1	Zn	1.192415	-0.331957	-0.462851
Zn2	Zn	1.525748	0.001377	-0.129518
Zn3	Zn	1.859082	0.334710	0.203816
Zn4	Zn	1.185616	-0.471385	-0.337369
Zn5	Zn	1.518949	-0.138052	-0.004035
Zn6	Zn	1.852282	0.195282	0.329298
Zn7	Zn	1.060236	-0.331983	-0.330690
Zn8	Zn	1.393570	0.001350	0.002644
Zn9	Zn	1.726903	0.334684	0.335977
Zn10	Zn	1.053495	-0.471323	-0.469504
Zn11	Zn	1.386829	-0.137989	-0.136171
Zn12	Zn	1.720162	0.195344	0.197162
O13	O	1.122941	-0.401662	-0.400103
O14	O	1.456274	-0.068329	-0.066770
O15	O	1.789607	0.265005	0.266563
O16	O	1.302123	-0.350467	-0.446216
O17	O	1.635457	-0.017134	-0.112883
O18	O	1.968790	0.316199	0.220450
O19	O	1.168959	-0.452930	-0.225873
O20	O	1.502293	-0.119597	0.107460
O21	O	1.835626	0.213736	0.440793
O22	O	1.083437	-0.215314	-0.342642
O23	O	1.416770	0.118019	-0.009308
O24	O	1.750103	0.451352	0.324025
O25	O	1.297128	-0.452905	-0.354025
O26	O	1.630461	-0.119571	-0.020692
O27	O	1.963795	0.213762	0.312642
O28	O	1.180548	-0.215295	-0.439740
O29	O	1.513881	0.118038	-0.106407
O30	O	1.847214	0.451372	0.226927
O31	O	1.076844	-0.350512	-0.220967
O32	O	1.410177	-0.017179	0.112367
O33	O	1.743510	0.316154	0.445700
O34	O	0.948732	-0.350452	-0.349093
O35	O	1.282065	-0.017118	-0.015760
O36	O	1.615399	0.316215	0.317574
O37	O	1.071948	-0.452798	-0.579231
O38	O	1.405281	-0.119465	-0.245897
O39	O	1.738615	0.213869	0.087436
O40	O	0.943780	-0.452824	-0.451079
O41	O	1.277113	-0.119490	-0.117746
O42	O	1.610446	0.213843	0.215587
O43	O	1.174012	-0.350407	-0.574343
O44	O	1.507345	-0.017073	-0.241009
O45	O	1.840678	0.316260	0.092324
O46	O	1.162423	-0.588042	-0.360476
O47	O	1.495757	-0.254709	-0.027143
O48	O	1.829090	0.078625	0.306191
O49	O	1.065355	-0.587996	-0.457556
O50	O	1.398688	-0.254663	-0.124222
O51	O	1.732022	0.078671	0.209111
C52	C	0.917576	-0.401634	-0.400084
C53	C	1.250909	-0.068301	-0.066751
C54	C	1.584242	0.265032	0.266583
C55	C	0.829719	-0.401643	-0.400095
C56	C	1.163052	-0.068309	-0.066762
C57	C	1.496385	0.265024	0.266571
C58	C	0.460799	-0.348313	-0.347103
C59	C	0.794132	-0.014980	-0.013769
C60	C	1.127465	0.318354	0.319564
C61	C	0.455682	-0.455079	-0.453153
C62	C	0.789016	-0.121746	-0.119819
C63	C	1.122349	0.211587	0.213514
C64	C	0.538229	-0.455067	-0.453147
C65	C	0.871562	-0.121734	-0.119814
C66	C	1.204896	0.211599	0.213519
C67	C	0.582064	-0.401678	-0.400118
C68	C	0.915397	-0.068345	-0.066785
C69	C	1.248731	0.264988	0.266549
C70	C	0.543353	-0.348301	-0.347094
C71	C	0.876686	-0.014968	-0.013761
C72	C	1.210019	0.318365	0.319573
C73	C	0.576946	-0.508449	-0.506165
C74	C	0.910280	-0.175116	-0.172832
C75	C	1.243613	0.158217	0.160502
C76	C	0.659498	-0.508440	-0.506161
C77	C	0.992831	-0.175107	-0.172828
C78	C	1.326164	0.158226	0.160506
C79	C	0.703334	-0.455046	-0.453135
C80	C	1.036668	-0.121713	-0.119802
C81	C	1.370001	0.211620	0.213532
C82	C	0.664618	-0.401666	-0.400109
C83	C	0.997951	-0.068333	-0.066776
C84	C	1.331285	0.265000	0.266557
C85	C	0.708453	-0.348277	-0.347080
C86	C	1.041787	-0.014944	-0.013747
C87	C	1.375120	0.318389	0.319587
C88	C	0.669739	-0.294893	-0.294058
C89	C	1.003072	0.038441	0.039276
C90	C	1.336405	0.371774	0.372609
C91	C	0.587190	-0.294907	-0.294068
C92	C	0.920523	0.038426	0.039266
C93	C	1.253856	0.371759	0.372599
C94	C	0.785884	-0.455032	-0.453125
C95	C	1.119217	-0.121698	-0.119791
C96	C	1.452550	0.211635	0.213542
C97	C	0.791007	-0.348266	-0.347071
C98	C	1.124341	-0.014932	-0.013738
C99	C	1.457674	0.318401	0.319595
C100	C	1.112441	-0.618269	-0.410480
C101	C	1.445775	-0.284936	-0.077146
C102	C	1.779108	0.048398	0.256187
C103	C	1.108022	-0.710935	-0.414945
C104	C	1.441355	-0.377601	-0.081612
C105	C	1.774689	-0.044268	0.251721
C106	C	1.099958	-0.880595	-0.423114
C107	C	1.433291	-0.547262	-0.089781
C108	C	1.766625	-0.213929	0.243552
C109	C	1.146065	-0.921888	-0.377106
C110	C	1.479398	-0.588554	-0.043772
C111	C	1.812732	-0.255221	0.289561
C112	C	1.141578	-1.016293	-0.381651
C113	C	1.474912	-0.682960	-0.048317
C114	C	1.808245	-0.349626	0.285016
C115	C	1.104444	-0.786182	-0.418570
C116	C	1.437777	-0.452848	-0.085237
C117	C	1.771110	-0.119515	0.248097
C118	C	1.329107	-0.401690	-0.400123
C119	C	1.662441	-0.068357	-0.066790
C120	C	1.995774	0.264977	0.266543
C121	C	1.416963	-0.401702	-0.400132
C122	C	1.750297	-0.068369	-0.066799
C123	C	2.083630	0.264965	0.266535
C124	C	1.122986	-0.401593	-0.606268
C125	C	1.456320	-0.068259	-0.272935
C126	C	1.789653	0.265074	0.060398
C127	C	1.123006	-0.401563	-0.694124
C128	C	1.456339	-0.068230	-0.360790
C129	C	1.789672	0.265104	-0.027457
C130	C	1.133503	-0.184209	-0.389704
C131	C	1.466836	0.149125	-0.056371
C132	C	1.800169	0.482458	0.276963
C133	C	1.138003	-0.091543	-0.385272
C134	C	1.471337	0.241790	-0.051939
C135	C	1.804670	0.575123	0.281395
C136	C	1.075119	-0.348151	-1.063047
C137	C	1.408453	-0.014817	-0.729713
C138	C	1.741786	0.318516	-0.396380
C139	C	1.171040	-0.454800	-1.068144
C140	C	1.504373	-0.121466	-0.734810
C141	C	1.837707	0.211867	-0.401477
C142	C	1.171025	-0.454819	-0.985599
C143	C	1.504359	-0.121486	-0.652265
C144	C	1.837692	0.211848	-0.318932
C145	C	1.123056	-0.401504	-0.941774
C146	C	1.456389	-0.068171	-0.608441
C147	C	1.789723	0.265162	-0.275107
C148	C	1.075101	-0.348170	-0.980494
C149	C	1.408435	-0.014837	-0.647161
C150	C	1.741768	0.318496	-0.313827
C151	C	1.218973	-0.508158	-0.946873
C152	C	1.552307	-0.174825	-0.613539
C153	C	1.885640	0.158509	-0.280206
C154	C	1.218960	-0.508180	-0.864323
C155	C	1.552293	-0.174847	-0.530989
C156	C	1.885627	0.158486	-0.197656
C157	C	1.170994	-0.454861	-0.820496
C158	C	1.504328	-0.121528	-0.487163
C159	C	1.837661	0.211806	-0.153830
C160	C	1.123038	-0.401524	-0.859221
C161	C	1.456372	-0.068191	-0.525888
C162	C	1.789705	0.265143	-0.192555
C163	C	1.075069	-0.348209	-0.815396
C164	C	1.408402	-0.014876	-0.482063
C165	C	1.741736	0.318457	-0.148730
C166	C	1.027116	-0.294868	-0.854120
C167	C	1.360450	0.038466	-0.520786
C168	C	1.693783	0.371799	-0.187453
C169	C	1.027136	-0.294851	-0.936667
C170	C	1.360469	0.038483	-0.603334
C171	C	1.693802	0.371816	-0.270001
C172	C	1.170975	-0.454878	-0.737948
C173	C	1.504308	-0.121544	-0.404615
C174	C	1.837642	0.211789	-0.071282
C175	C	1.075051	-0.348229	-0.732844
C176	C	1.408384	-0.014896	-0.399510
C177	C	1.741718	0.318438	-0.066177
C178	C	1.122944	-0.401671	-0.194738
C179	C	1.456277	-0.068337	0.138596
C180	C	1.789610	0.264996	0.471929
C181	C	1.123089	-0.401465	-0.106872
C182	C	1.456422	-0.068132	0.226462
C183	C	1.789755	0.265201	0.559795
H184	H	0.705440	-0.251427	-0.250878
H185	H	1.038773	0.081906	0.082456
H186	H	1.372106	0.415240	0.415789
F187	F	0.827083	-0.511848	-0.509547
F188	F	1.160416	-0.178515	-0.176213
F189	F	1.493749	0.154819	0.157120
H190	H	1.210023	-0.498302	-0.706423
H191	H	1.543356	-0.164969	-0.373090
H192	H	1.876690	0.168365	-0.039757
F193	F	1.023998	-0.291479	-0.686208
F194	F	1.357332	0.041855	-0.352875
F195	F	1.690665	0.375188	-0.019541
H196	H	1.188908	-0.886338	-0.334302
H197	H	1.522241	-0.553005	-0.000969
H198	H	1.855574	-0.219672	0.332365
H199	H	0.419987	-0.498551	-0.496322
H200	H	0.753320	-0.165218	-0.162989
H201	H	1.086654	0.168116	0.170344
H202	H	1.057117	-0.916142	-0.465913
H203	H	1.390451	-0.582809	-0.132580
H204	H	1.723784	-0.249476	0.200753
F205	F	0.837654	-0.291436	-0.290633
F206	F	1.170987	0.041897	0.042701
F207	F	1.504321	0.375231	0.376034
H208	H	0.988056	-0.251462	-0.818427
H209	H	1.321390	0.081871	-0.485094
H210	H	1.654723	0.415204	-0.151760
H211	H	0.555661	-0.251445	-0.250899
H212	H	0.888994	0.081888	0.082434
H213	H	1.222327	0.415221	0.415768
F214	F	0.530289	-0.565287	-0.562579
F215	F	0.863623	-0.231954	-0.229246
F216	F	1.196956	0.101379	0.104088
H217	H	0.988094	-0.251424	-0.968204
H218	H	1.321428	0.081909	-0.634870
H219	H	1.654761	0.415243	-0.301537
H220	H	0.429274	-0.304846	-0.303935
H221	H	0.762607	0.028487	0.029398
H222	H	1.095940	0.361821	0.362732
H223	H	1.210088	-0.498212	-1.103831
H224	H	1.543422	-0.164879	-0.770498
H225	H	1.876755	0.168454	-0.437164
H226	H	0.691012	-0.551909	-0.549336
H227	H	1.024345	-0.218575	-0.216002
H228	H	1.357679	0.114758	0.117331
H229	H	1.036080	-0.304719	-1.094579
H230	H	1.369413	0.028614	-0.761246
H231	H	1.702747	0.361948	-0.427912
H232	H	1.258018	-0.551573	-0.982561
H233	H	1.591351	-0.218240	-0.649228
H234	H	1.924685	0.115093	-0.315895
F235	F	1.269997	-0.564948	-0.823118
F236	F	1.603330	-0.231614	-0.489784
F237	F	1.936664	0.101719	-0.156451
