data_functionalizedCrystal
_audit_creation_method	'MofGen! by Chris Wilmer'
_symmetry_space_group_name_H-M	'P1'
_symmetry_Int_Tables_number	1
_symmetry_cell_setting	triclinic
loop_
_symmetry_equiv_pos_as_xyz
  x,y,z
_cell_length_a	8.597187
_cell_length_b	11.792241
_cell_length_c	7.681481
_cell_angle_alpha	84.218353
_cell_angle_beta	88.166928
_cell_angle_gamma	84.765473
loop_
_atom_site_label
_atom_site_type_symbol
_atom_site_fract_x
_atom_site_fract_y
_atom_site_fract_z
O1	O	2.038025	0.202356	-0.455622
O2	O	1.588069	0.210418	-0.387362
O3	O	1.823967	0.041409	-0.423136
O4	O	1.802126	0.371365	-0.419848
O5	O	1.853002	0.020558	-0.134682
O6	O	1.617104	0.189567	-0.098907
O7	O	2.067060	0.181506	-0.167167
Zn8	Zn	1.846692	0.182226	-0.087239
Zn9	Zn	1.808437	0.209697	-0.467290
O10	O	1.831161	0.350514	-0.131393
C11	C	1.544982	0.197965	-0.234396
C12	C	1.373339	0.191909	-0.208357
C13	C	1.837113	-0.011332	-0.278701
C14	C	1.833007	-0.137418	-0.278080
C15	C	1.825454	-0.368262	-0.276964
C16	C	1.829650	-0.239803	-0.277585
C17	C	2.110146	0.193959	-0.320137
C18	C	2.281788	0.200015	-0.346188
C19	C	1.818015	0.403255	-0.275832
C20	C	1.822120	0.529342	-0.276464
N21	N	1.872811	0.163477	0.172134
N22	N	1.782330	0.228438	-0.726665
H23	H	1.334727	0.211589	-0.484110
O24	O	1.672327	0.307605	0.200126
C25	C	1.745349	0.386970	0.082420
H26	H	1.863171	0.346318	0.037087
H27	H	1.763696	0.466077	0.150574
C28	C	1.496464	0.471645	-0.021304
C29	C	1.641169	0.421713	-0.076995
H30	H	1.432199	0.493081	-0.119636
H31	H	1.447266	0.418179	0.058001
H32	H	1.511774	0.537562	0.035491
H33	H	1.625859	0.355790	-0.133769
H34	H	1.690362	0.475169	-0.156314
H35	H	1.320405	0.180349	-0.070443
H36	H	1.965190	0.097175	0.233331
