data_functionalizedCrystal
_audit_creation_method	'MofGen! by Chris Wilmer'
_symmetry_space_group_name_H-M	'P1'
_symmetry_Int_Tables_number	1
_symmetry_cell_setting	triclinic
loop_
_symmetry_equiv_pos_as_xyz
  x,y,z
_cell_length_a	15.698487
_cell_length_b	19.851628
_cell_length_c	19.851628
_cell_angle_alpha	89.998786
_cell_angle_beta	59.992992
_cell_angle_gamma	59.999439
loop_
_atom_site_label
_atom_site_type_symbol
_atom_site_fract_x
_atom_site_fract_y
_atom_site_fract_z
Zr1	Zr	0.932312	0.648998	-0.088326
O2	O	1.110054	0.541438	-0.195905
O3	O	0.754592	0.681969	-0.055347
O4	O	0.932323	0.681976	-0.195889
O5	O	0.932307	0.541428	0.055498
O6	O	0.932307	0.792838	-0.195875
O7	O	0.932323	0.541431	-0.055364
O8	O	0.614378	0.792825	0.055528
O9	O	1.250235	0.541441	-0.195905
O10	O	0.827670	0.778768	-0.041272
O11	O	0.827670	0.696031	0.041453
O12	O	1.036926	0.696040	-0.124016
O13	O	1.036926	0.613303	-0.041292
Zr14	Zr	0.932259	0.825806	0.088507
Zr15	Zr	0.932286	0.825810	-0.088304
Zr16	Zr	0.932286	0.648994	0.088486
Zr17	Zr	1.155884	0.649003	-0.088326
Zr18	Zr	0.708687	0.825801	0.088507
O19	O	1.109979	0.792835	0.055529
O20	O	1.110017	0.792841	-0.195875
O21	O	1.110017	0.541431	0.055498
O22	O	0.754517	0.933366	0.196087
O23	O	0.754555	0.933372	-0.055316
O24	O	0.754555	0.681962	0.196057
O25	O	0.932265	0.933376	-0.055316
O26	O	0.932248	0.792828	0.196070
O27	O	0.932265	0.681966	0.196057
O28	O	0.932248	0.933373	0.055546
O29	O	1.250214	0.681982	-0.195888
O30	O	0.614357	0.792821	0.196070
O31	O	0.614336	0.933363	0.196087
O32	O	0.614357	0.933367	0.055545
O33	O	1.250214	0.541437	-0.055363
O34	O	1.250193	0.681979	-0.055346
O35	O	0.827646	0.778764	0.124198
O36	O	0.827646	0.861501	0.041473
O37	O	1.036901	0.778773	-0.041271
O38	O	1.036901	0.696036	0.041453
C39	C	0.652631	0.737396	0.000090
C40	C	0.557718	0.737394	0.000090
C41	C	0.480637	0.737394	0.000092
C42	C	0.383931	0.737400	0.000094
C43	C	0.932319	0.516237	0.000064
C44	C	0.932330	0.441176	0.000055
C45	C	1.046398	0.214724	-0.045033
C46	C	0.989373	0.192362	-0.077724
C47	C	0.932298	0.303769	0.000078
C48	C	0.989330	0.192390	0.032754
C49	C	0.932277	0.171037	0.000101
C50	C	0.875274	0.282396	-0.032657
C51	C	0.875247	0.282422	0.077863
C52	C	0.818139	0.260114	0.045192
C53	C	0.932314	0.380232	0.000064
C54	C	0.932252	0.094580	0.000114
C55	C	1.211941	0.737408	0.000091
C56	C	1.306853	0.737409	0.000091
C57	C	0.932319	0.737407	-0.221074
C58	C	0.932330	0.737409	-0.296135
C59	C	0.932253	0.958566	0.000118
C60	C	0.932242	1.033628	0.000127
C61	C	1.046398	0.692290	-0.522596
C62	C	0.989357	0.770079	-0.544951
C63	C	0.932298	0.737406	-0.433542
C64	C	0.989347	0.659623	-0.544927
C65	C	0.932277	0.737397	-0.566274
C66	C	0.875257	0.815241	-0.454908
C67	C	0.875263	0.704728	-0.454887
C68	C	0.818139	0.782564	-0.477189
C69	C	0.932314	0.737411	-0.357079
C70	C	0.932252	0.737400	-0.642731
C71	C	0.932253	0.737396	0.221255
C72	C	0.932242	0.737394	0.296317
C73	C	0.652598	0.958561	0.000117
C74	C	0.557674	1.033620	0.000126
C75	C	0.652598	0.737391	0.221255
C76	C	0.557674	0.737387	0.296316
C77	C	0.652565	0.958555	0.221282
C78	C	0.557630	1.033613	0.296352
C79	C	1.212006	0.516249	-0.221100
C80	C	1.306941	0.441191	-0.296170
C81	C	1.211973	0.516243	0.000064
C82	C	1.306897	0.441184	0.000055
C83	C	1.211973	0.737413	-0.221073
C84	C	1.306897	0.737417	-0.296134
C85	C	0.513110	1.025683	-0.043069
C86	C	0.423932	1.096202	-0.043077
C87	C	0.379313	1.174658	0.000116
C88	C	0.423886	1.182594	0.043312
C89	C	0.513069	1.112075	0.043315
C90	C	0.513085	0.780571	0.374765
C91	C	0.423906	0.780564	0.445300
C92	C	0.379314	0.737378	0.437384
C93	C	0.423912	0.694188	0.358926
C94	C	0.513095	0.694191	0.288394
C95	C	0.513048	1.112056	0.288424
C96	C	0.423859	1.182587	0.358954
C97	C	0.379249	1.174673	0.437411
C98	C	0.423840	1.096222	0.445337
C99	C	0.513033	1.025692	0.374808
C100	C	1.351534	0.362748	-0.288243
C101	C	1.440750	0.292217	-0.358772
C102	C	1.485366	0.300131	-0.437229
C103	C	1.440769	0.378582	-0.445155
C104	C	1.351560	0.449111	-0.374626
C105	C	1.351470	0.449121	0.043243
C106	C	1.440673	0.378601	0.043232
C107	C	1.485295	0.300146	0.000037
C108	C	1.440718	0.292210	-0.043156
C109	C	1.351523	0.362729	-0.043149
C110	C	1.351461	0.780612	-0.288192
C111	C	1.440640	0.780631	-0.358713
C112	C	1.485259	0.737451	-0.437176
C113	C	1.440686	0.694255	-0.445117
C114	C	1.351502	0.694241	-0.374597
H115	H	1.142874	0.196276	-0.083238
C116	C	1.583407	0.222580	0.000042
N117	N	1.657302	0.164161	0.000051
H118	H	0.387605	0.815737	0.509176
C119	C	1.489682	0.387349	0.090757
N120	N	1.526591	0.393940	0.126555
C121	C	0.281198	0.737392	0.514980
N122	N	0.207292	0.737410	0.573430
H123	H	0.549382	0.815738	0.381226
C124	C	1.054499	0.807411	-0.597392
N125	N	1.103573	0.835521	-0.636895
H126	H	0.387592	0.659027	0.352493
H127	H	0.827055	0.881049	-0.416205
C128	C	0.687702	0.285236	0.096728
N129	N	0.589460	0.304154	0.135539
C130	C	1.489798	0.205901	-0.090654
N131	N	1.526759	0.140891	-0.126422
C132	C	0.281124	1.252266	0.514987
N133	N	0.207212	1.310712	0.573415
H134	H	0.827092	0.321091	-0.060358
C135	C	0.687718	0.834181	-0.452086
N136	N	0.589492	0.873066	-0.433194
H137	H	0.387651	1.089725	-0.078252
C138	C	1.302488	0.353984	-0.090651
N139	N	1.265557	0.347391	-0.126431
C140	C	1.489788	0.205929	-0.350035
N141	N	1.526721	0.140938	-0.343452
H142	H	0.549388	0.659028	0.224520
H143	H	1.477107	0.385016	-0.509043
H144	H	1.315147	0.815774	-0.224310
H145	H	1.142874	0.654205	-0.541051
H146	H	1.315146	0.512997	0.078423
C147	C	1.583489	0.222538	-0.514806
N148	N	1.657391	0.164091	-0.573233
C149	C	0.374745	1.087531	0.531647
N150	N	0.337756	1.080987	0.596658
C151	C	0.562061	0.939406	0.383543
N152	N	0.598986	0.874417	0.390128
H153	H	1.315253	0.512981	-0.381091
C154	C	1.489660	0.828148	-0.349960
N155	N	1.526580	0.863936	-0.343364
H156	H	0.827088	0.677071	-0.416080
C157	C	1.583366	0.737474	-0.514743
N158	N	1.657262	0.737492	-0.573164
H159	H	1.315213	0.356289	-0.224366
H160	H	1.477028	0.659099	-0.509011
H161	H	0.827058	0.321227	0.143622
C162	C	0.562068	1.120820	0.090845
N163	N	0.598969	1.127412	0.126649
H164	H	0.306694	1.232072	0.000107
H165	H	1.037569	0.153589	0.060379
H166	H	1.315228	0.659063	-0.381075
H167	H	1.037599	0.593846	-0.583734
C168	C	1.054543	0.139905	-0.166570
N169	N	1.103641	0.100383	-0.233487
H170	H	0.549438	0.961807	-0.078251
C171	C	0.374815	1.268875	0.350217
N172	N	0.337874	1.333866	0.343633
C173	C	0.374784	1.268903	0.090827
N174	N	0.337790	1.333913	0.126621
H175	H	0.549357	1.118515	0.224547
