data_functionalizedCrystal
_audit_creation_method	'MofGen! by Chris Wilmer'
_symmetry_space_group_name_H-M	'P1'
_symmetry_Int_Tables_number	1
_symmetry_cell_setting	triclinic
loop_
_symmetry_equiv_pos_as_xyz
  x,y,z
_cell_length_a	25.639239
_cell_length_b	13.032951
_cell_length_c	13.032268
_cell_angle_alpha	89.114265
_cell_angle_beta	97.141717
_cell_angle_gamma	97.159836
loop_
_atom_site_label
_atom_site_type_symbol
_atom_site_fract_x
_atom_site_fract_y
_atom_site_fract_z
Zn1	Zn	-0.353113	-1.498229	-0.780783
Zn2	Zn	-0.431007	-1.519917	-0.608782
Zn3	Zn	-0.331269	-1.348103	-0.587025
Zn4	Zn	-0.428176	-1.326168	-0.758903
O5	O	-0.385891	-1.423104	-0.683873
O6	O	-0.373772	-1.645019	-0.776229
O7	O	-0.409820	-1.515382	-0.461982
O8	O	-0.261011	-1.368121	-0.612779
O9	O	-0.431001	-1.660953	-0.649861
O10	O	-0.277059	-1.478418	-0.755131
O11	O	-0.336542	-1.389151	-0.445997
O12	O	-0.333797	-1.201280	-0.591563
O13	O	-0.426175	-1.330735	-0.905720
O14	O	-0.404994	-1.185164	-0.717841
O15	O	-0.371027	-1.457148	-0.921794
O16	O	-0.503787	-1.494112	-0.628645
O17	O	-0.501707	-1.351765	-0.738938
C18	C	-0.366718	-1.155907	-0.649967
C19	C	-0.358530	-1.041596	-0.635487
C20	C	-0.390152	-0.982698	-0.691417
C21	C	-0.381690	-0.864552	-0.676452
C22	C	-0.521719	-1.422937	-0.683804
C23	C	-0.579835	-1.422955	-0.683821
C24	C	-0.941300	-1.497381	-0.626578
C25	C	-0.995908	-1.497419	-0.626596
O26	O	-1.025066	-1.560526	-0.577852
N27	N	-1.022147	-1.423276	-0.683964
C28	C	-0.993776	-1.349096	-0.741326
O29	O	-1.021109	-1.286036	-0.790124
C30	C	-0.939170	-1.349063	-0.741312
C31	C	-0.912933	-1.423205	-0.683932
C32	C	-0.915063	-1.571518	-0.569203
C33	C	-0.860458	-1.571478	-0.569183
C34	C	-0.832091	-1.497302	-0.626537
C35	C	-0.858328	-1.423166	-0.683912
C36	C	-0.910801	-1.274889	-0.798678
C37	C	-0.856191	-1.274863	-0.798660
C38	C	-0.829954	-1.349005	-0.741280
C39	C	-0.775357	-1.348950	-0.741246
N40	N	-0.749118	-1.423093	-0.683878
C41	C	-0.777485	-1.497269	-0.626524
C42	C	-1.108453	-1.349172	-0.741351
C43	C	-1.163058	-1.349199	-0.741360
C44	C	-1.165186	-1.497524	-0.626632
C45	C	-1.110580	-1.497491	-0.626618
C46	C	-1.082214	-1.423315	-0.683983
C47	C	-0.662812	-1.497180	-0.626485
C48	C	-0.608202	-1.497131	-0.626467
C49	C	-0.606079	-1.348810	-0.741199
C50	C	-0.660684	-1.348855	-0.741213
C51	C	-0.689049	-1.423049	-0.683854
O52	O	-0.746165	-1.285878	-0.789969
O53	O	-0.750147	-1.560328	-0.577744
C54	C	-0.249536	-1.423297	-0.683969
C55	C	-0.191430	-1.423379	-0.684009
C56	C	-0.400722	-1.389075	-0.952116
C57	C	-0.407042	-1.374575	-1.066425
C58	C	-0.405133	-0.691345	-0.717905
C59	C	-0.413317	-0.805656	-0.732390
C60	C	-0.382573	-1.430656	-1.125340
C61	C	-0.389104	-1.415670	-1.243485
C62	C	-0.371085	-1.457059	-0.416682
C63	C	-0.364632	-1.471759	-0.302399
H64	H	-0.423488	-1.019741	-0.750384
H65	H	-0.348348	-0.827513	-0.617489
H66	H	-0.356787	-1.489760	-1.088314
H67	H	-1.089221	-1.557864	-0.579895
H68	H	-0.446654	-0.842692	-0.791364
H69	H	-1.188293	-1.557925	-0.579935
H70	H	-0.325190	-1.004553	-0.576528
H71	H	-0.586842	-1.557507	-0.579737
H72	H	-0.582974	-1.288414	-0.787892
F73	F	-0.422805	-1.338400	-1.291869
H74	H	-0.682047	-1.288486	-0.787940
H75	H	-0.338843	-1.530866	-1.265379
F76	F	-0.692993	-1.576145	-0.565437
F77	F	-0.440741	-1.297309	-1.114813
H78	H	-1.184414	-1.288817	-0.788073
H79	H	-0.839100	-1.631853	-0.522463
H80	H	-0.938154	-1.631926	-0.522499
H81	H	-0.932153	-1.214510	-0.845398
F82	F	-1.078268	-1.270212	-0.802403
H83	H	-0.833098	-1.214461	-0.845377
