data_functionalizedCrystal
_audit_creation_method	'MofGen! by Chris Wilmer'
_symmetry_space_group_name_H-M	'P1'
_symmetry_Int_Tables_number	1
_symmetry_cell_setting	triclinic
loop_
_symmetry_equiv_pos_as_xyz
  x,y,z
_cell_length_a	18.101397
_cell_length_b	29.839134
_cell_length_c	29.839125
_cell_angle_alpha	90.012189
_cell_angle_beta	90.017467
_cell_angle_gamma	90.001037
loop_
_atom_site_label
_atom_site_type_symbol
_atom_site_fract_x
_atom_site_fract_y
_atom_site_fract_z
Zn1	Zn	-0.295317	0.686785	0.254008
Zn2	Zn	0.204683	1.186785	0.754008
Zn3	Zn	-0.419135	0.686745	0.178879
Zn4	Zn	0.080865	1.186745	0.678879
Zn5	Zn	-0.295270	0.611668	0.178891
Zn6	Zn	0.204730	1.111668	0.678891
Zn7	Zn	-0.419080	0.611643	0.253980
Zn8	Zn	0.080920	1.111643	0.753980
O9	O	-0.357201	0.649210	0.216439
O10	O	0.142799	1.149210	0.716439
O11	O	-0.311785	0.749647	0.244049
O12	O	0.188215	1.249647	0.744049
O13	O	-0.402708	0.676779	0.116013
O14	O	0.097292	1.176779	0.616013
O15	O	-0.191643	0.621660	0.188872
O16	O	0.308357	1.121660	0.688872
O17	O	-0.402754	0.749617	0.188852
O18	O	0.097246	1.249617	0.688852
O19	O	-0.191678	0.676848	0.244061
O20	O	0.308322	1.176848	0.744061
O21	O	-0.311705	0.621620	0.116022
O22	O	0.188295	1.121620	0.616022
O23	O	-0.311651	0.548797	0.188845
O24	O	0.188349	1.048797	0.688845
O25	O	-0.402659	0.621617	0.316851
O26	O	0.097341	1.121617	0.816851
O27	O	-0.402613	0.548779	0.244012
O28	O	0.097387	1.048779	0.744012
O29	O	-0.311731	0.676824	0.316872
O30	O	0.188269	1.176824	0.816872
O31	O	-0.522761	0.676755	0.188824
O32	O	-0.022761	1.176755	0.688824
O33	O	-0.522720	0.621578	0.244001
O34	O	-0.022720	1.121578	0.744001
C35	C	-0.357121	0.532488	0.216427
C36	C	0.142879	1.032488	0.716427
C37	C	-0.357105	0.482553	0.216432
C38	C	0.142895	0.982553	0.716432
C39	C	-0.309932	0.125977	0.245237
C40	C	0.190068	0.625977	0.745237
C41	C	-0.309872	0.313650	0.245227
C42	C	0.190128	0.813650	0.745227
O43	O	-0.269670	0.337925	0.269716
O44	O	0.230330	0.837925	0.769716
N45	N	-0.357154	0.337108	0.216443
N46	N	0.142846	0.837108	0.716443
C47	C	-0.404456	0.313644	0.187661
C48	C	0.095544	0.813644	0.687661
O49	O	-0.444676	0.337903	0.163182
O50	O	0.055324	0.837903	0.663182
C51	C	-0.404519	0.125972	0.187674
C52	C	0.095481	0.625972	0.687674
C53	C	-0.357230	0.102517	0.216457
C54	C	0.142770	0.602517	0.716457
C55	C	-0.262647	0.102522	0.274018
C56	C	0.237353	0.602522	0.774018
C57	C	-0.262659	0.055607	0.274019
C58	C	0.237341	0.555607	0.774019
C59	C	-0.309957	0.032146	0.245238
C60	C	0.190043	0.532146	0.745238
C61	C	-0.357242	0.055602	0.216458
C62	C	0.142758	0.555602	0.716458
C63	C	-0.451825	0.102510	0.158896
C64	C	0.048175	0.602510	0.658896
C65	C	-0.451838	0.055589	0.158902
C66	C	0.048162	0.555589	0.658902
C67	C	-0.404548	0.032133	0.187685
C68	C	0.095452	0.532133	0.687685
C69	C	-0.404552	-0.014774	0.187678
C70	C	0.095448	0.485226	0.687678
N71	N	-0.357271	-0.038232	0.216462
N72	N	0.142729	0.461768	0.716462
C73	C	-0.309974	-0.014771	0.245242
C74	C	0.190026	0.485229	0.745242
C75	C	-0.404419	0.412175	0.187656
C76	C	0.095581	0.912175	0.687656
C77	C	-0.404403	0.459093	0.187652
C78	C	0.095597	0.959093	0.687652
C79	C	-0.309819	0.459096	0.245218
C80	C	0.190181	0.959096	0.745218
C81	C	-0.309833	0.412177	0.245220
C82	C	0.190167	0.912177	0.745220
C83	C	-0.357138	0.388717	0.216440
C84	C	0.142862	0.888717	0.716440
C85	C	-0.310003	-0.113297	0.245241
C86	C	0.189997	0.386703	0.745241
C87	C	-0.310017	-0.160217	0.245238
C88	C	0.189983	0.339783	0.745238
C89	C	-0.404603	-0.160215	0.187673
C90	C	0.095397	0.339785	0.687673
C91	C	-0.404586	-0.113300	0.187675
C92	C	0.095414	0.386700	0.687675
C93	C	-0.357284	-0.089842	0.216462
C94	C	0.142716	0.410158	0.716462
O95	O	-0.444740	-0.039077	0.163206
O96	O	0.055260	0.460923	0.663206
O97	O	-0.269772	-0.039038	0.269725
O98	O	0.230228	0.460962	0.769725
C99	C	-0.309919	0.172893	0.245237
C100	C	0.190081	0.672893	0.745237
C101	C	-0.357205	0.196348	0.216456
C102	C	0.142795	0.696348	0.716456
C103	C	-0.404502	0.172888	0.187676
C104	C	0.095498	0.672888	0.687676
C105	C	-0.357188	0.243266	0.216452
C106	C	0.142812	0.743266	0.716452
C107	C	-0.309891	0.266726	0.245232
C108	C	0.190109	0.766726	0.745232
C109	C	-0.262609	0.243268	0.274016
C110	C	0.237391	0.743268	0.774016
C111	C	-0.262622	0.196353	0.274017
C112	C	0.237378	0.696353	0.774017
C113	C	-0.451783	0.196345	0.158892
C114	C	0.048217	0.696345	0.658892
C115	C	-0.451766	0.243261	0.158893
C116	C	0.048234	0.743261	0.658893
C117	C	-0.404469	0.266721	0.187673
C118	C	0.095531	0.766721	0.687673
C119	C	-0.549611	0.649172	0.216418
C120	C	-0.049611	1.149172	0.716418
C121	C	-0.631925	0.649196	0.216423
C122	C	-0.131925	1.149196	0.716423
C123	C	-0.931016	0.649254	0.216464
C124	C	-0.431016	1.149254	0.716464
C125	C	-0.899686	0.683873	0.181656
C126	C	-0.399686	1.183873	0.681656
C127	C	-0.814067	0.683993	0.181746
C128	C	-0.314067	1.183993	0.681746
C129	C	-0.782634	0.649225	0.216444
C130	C	-0.282634	1.149225	0.716444
C131	C	-0.813666	0.662054	0.263798
C132	C	-0.313666	1.162054	0.763798
C133	C	-0.899311	0.662321	0.263608
C134	C	-0.399311	1.162321	0.763608
C135	C	-0.899494	0.601714	0.204329
C136	C	-0.399494	1.101714	0.704329
C137	C	-0.813844	0.601949	0.203272
C138	C	-0.313844	1.101949	0.703272
C139	C	-0.698774	0.649208	0.216435
C140	C	-0.198774	1.149208	0.716435
C141	C	-1.014876	0.649272	0.216476
C142	C	-0.514876	1.149272	0.716476
C143	C	-0.164039	0.649261	0.216471
C144	C	0.335961	1.149261	0.716471
C145	C	-0.081725	0.649283	0.216485
C146	C	0.418275	1.149283	0.716485
C147	C	-0.357194	0.649222	0.333618
C148	C	0.142806	1.149222	0.833618
C149	C	-0.357191	0.649227	0.383552
C150	C	0.142809	1.149227	0.883552
C151	C	-0.357281	0.766388	0.216452
C152	C	0.142719	1.266388	0.716452
C153	C	-0.357315	0.816323	0.216458
C154	C	0.142685	1.316323	0.716458
C155	C	-0.357154	0.649224	0.099717
C156	C	0.142846	1.149224	0.599717
C157	C	-0.356948	0.649306	0.049783
C158	C	0.143052	1.149306	0.549783
C159	C	-0.309721	0.678004	0.693210
C160	C	0.190279	1.178004	1.193210
C161	C	-0.309658	0.678026	0.880883
C162	C	0.190342	1.178026	1.380883
O163	O	-0.269367	0.702459	0.905159
O164	O	0.230633	1.202459	1.405159
N165	N	-0.356993	0.649287	0.904338
N166	N	0.143007	1.149287	1.404338
C167	C	-0.404343	0.620538	0.880871
C168	C	0.095657	1.120538	1.380871
O169	O	-0.444598	0.596091	0.905127
O170	O	0.055402	1.096091	1.405127
C171	C	-0.404402	0.620514	0.693199
C172	C	0.095598	1.120514	1.193199
C173	C	-0.357070	0.649258	0.669747
C174	C	0.142930	1.149258	1.169747
C175	C	-0.262392	0.706745	0.669757
C176	C	0.237608	1.206745	1.169757
C177	C	-0.262411	0.706741	0.622842
C178	C	0.237589	1.206741	1.122842
C179	C	-0.309759	0.677995	0.599379
C180	C	0.190241	1.177995	1.099379
C181	C	-0.357089	0.649254	0.622831
C182	C	0.142911	1.149254	1.122831
C183	C	-0.451748	0.591764	0.669733
C184	C	0.048252	1.091764	1.169733
C185	C	-0.451758	0.591759	0.622812
C186	C	0.048242	1.091759	1.122812
C187	C	-0.404425	0.620503	0.599360
C188	C	0.095575	1.120503	1.099360
C189	C	-0.404456	0.620504	0.552452
C190	C	0.095544	1.120504	1.052452
N191	N	-0.357121	0.649243	0.528998
N192	N	0.142879	1.149243	1.028998
C193	C	-0.309773	0.677989	0.552461
C194	C	0.190227	1.177989	1.052461
C195	C	-0.404310	0.620554	0.979402
C196	C	0.095690	1.120554	1.479402
C197	C	-0.404296	0.620560	1.026320
C198	C	0.095704	1.120560	1.526320
C199	C	-0.309610	0.678047	1.026328
C200	C	0.190390	1.178047	1.526328
C201	C	-0.309628	0.678043	0.979409
C202	C	0.190372	1.178043	1.479409
C203	C	-0.356975	0.649293	0.955947
C204	C	0.143025	1.149293	1.455947
C205	C	-0.309817	0.677978	0.453935
C206	C	0.190183	1.177978	0.953935
C207	C	-0.309843	0.677973	0.407015
C208	C	0.190157	1.177973	0.907015
C209	C	-0.404526	0.620484	0.407011
C210	C	0.095474	1.120484	0.907011
C211	C	-0.404504	0.620491	0.453927
C212	C	0.095496	1.120491	0.953927
C213	C	-0.357143	0.649240	0.477387
C214	C	0.142857	1.149240	0.977387
O215	O	-0.444720	0.596080	0.528147
O216	O	0.055280	1.096080	1.028147
O217	O	-0.269513	0.702425	0.528197
O218	O	0.230487	1.202425	1.028197
C219	C	-0.309702	0.678008	0.740125
C220	C	0.190298	1.178008	1.240125
C221	C	-0.357031	0.649266	0.763578
C222	C	0.142969	1.149266	1.263578
C223	C	-0.404380	0.620521	0.740114
C224	C	0.095620	1.120521	1.240114
C225	C	-0.357018	0.649273	0.810495
C226	C	0.142982	1.149273	1.310495
C227	C	-0.309669	0.678018	0.833958
C228	C	0.190331	1.178018	1.333958
C229	C	-0.262334	0.706757	0.810504
C230	C	0.237666	1.206757	1.310504
C231	C	-0.262354	0.706753	0.763588
C232	C	0.237646	1.206753	1.263588
C233	C	-0.451715	0.591782	0.763569
C234	C	0.048285	1.091782	1.263569
C235	C	-0.451692	0.591789	0.810485
C236	C	0.048308	1.091789	1.310485
C237	C	-0.404344	0.620534	0.833948
C238	C	0.095656	1.120534	1.333948
H239	H	-0.271306	0.478205	0.268651
H240	H	0.228694	0.978205	0.768651
O241	O	-0.211302	0.737757	0.738297
O242	O	0.288698	1.237757	1.238297
H243	H	-0.173616	0.717661	0.716919
H244	H	0.326384	1.217661	1.216919
O245	O	-0.928148	0.730265	0.192169
O246	O	-0.428148	1.230265	0.692169
H247	H	-0.905705	0.754439	0.167400
H248	H	-0.405705	1.254439	0.667400
O249	O	-0.502816	0.560744	0.597505
O250	O	-0.002816	1.060744	1.097505
H251	H	-0.535723	0.540759	0.621699
H252	H	-0.035723	1.040759	1.121699
O253	O	-0.258573	0.709042	0.954115
O254	O	0.241427	1.209042	1.454115
H255	H	-0.225647	0.729028	0.978317
H256	H	0.274353	1.229028	1.478317
H257	H	-0.271325	0.393083	0.268657
H258	H	0.228675	0.893083	0.768657
H259	H	-0.490300	0.177249	0.135455
H260	H	0.009700	0.677249	0.635455
H261	H	-0.490292	0.568357	0.688820
H262	H	0.009708	1.068357	1.188820
O263	O	-0.211248	0.737754	0.835814
O264	O	0.288752	1.237754	1.335814
H265	H	-0.219184	0.732919	0.872378
H266	H	0.280816	1.232919	1.372378
O267	O	-0.258727	0.708985	0.479228
O268	O	0.241273	1.208985	0.979228
H269	H	-0.221016	0.688890	0.500596
H270	H	0.278984	1.188890	1.000596
O271	O	-0.455398	0.484390	0.156603
O272	O	0.044602	0.984390	0.656603
H273	H	-0.488291	0.460189	0.136595
H274	H	0.011709	0.960189	0.636595
H275	H	-0.919755	0.575920	0.229681
H276	H	-0.419755	1.075920	0.729681
H277	H	-0.793088	0.675968	0.146634
H278	H	-0.293088	1.175968	0.646634
H279	H	-0.793567	0.592276	0.168423
H280	H	-0.293567	1.092276	0.668423
H281	H	-0.490333	0.121599	0.135457
H282	H	0.009667	0.621599	0.635457
O283	O	-0.211618	0.127819	0.305058
O284	O	0.288382	0.627819	0.805058
H285	H	-0.224397	0.118821	0.340304
H286	H	0.275603	0.618821	0.840304
H287	H	-0.490243	0.568383	0.829576
H288	H	0.009757	1.068383	1.329576
O289	O	-0.455433	0.386874	0.156607
O290	O	0.044567	0.886874	0.656607
H291	H	-0.488296	0.411073	0.136589
H292	H	0.011704	0.911073	0.636589
O293	O	-0.259006	-0.185513	0.276283
O294	O	0.240994	0.314487	0.776283
H295	H	-0.266951	-0.222079	0.271448
H296	H	0.233049	0.277921	0.771448
H297	H	-0.490362	0.036490	0.135467
H298	H	0.009638	0.536490	0.635467
H299	H	-0.443086	-0.094202	0.164234
H300	H	0.056914	0.405798	0.664234
O301	O	-0.258982	-0.088000	0.276288
O302	O	0.241018	0.412000	0.776288
H303	H	-0.221252	-0.066632	0.256220
H304	H	0.278748	0.433368	0.756220
H305	H	-0.919253	0.697071	0.273888
H306	H	-0.419253	1.197071	0.773888
O307	O	-0.502761	0.560762	0.738265
O308	O	-0.002761	1.060762	1.238265
H309	H	-0.535662	0.540777	0.762461
H310	H	-0.035662	1.040777	1.262461
H311	H	-0.792453	0.574768	0.226768
H312	H	-0.292453	1.074768	0.726768
O313	O	-0.455616	-0.185523	0.156632
O314	O	0.044384	0.314477	0.656632
H315	H	-0.447681	-0.222087	0.161474
H316	H	0.052319	0.277913	0.661474
O317	O	-0.455550	0.589487	0.479225
O318	O	0.044450	1.089487	0.979225
H319	H	-0.493239	0.609581	0.500604
H320	H	0.006761	1.109581	1.000604
O321	O	-0.786874	0.730637	0.192382
O322	O	-0.286874	1.230637	0.692382
H323	H	-0.834897	0.753195	0.197486
H324	H	-0.334897	1.253195	0.697486
H325	H	-0.443078	0.597082	0.387899
H326	H	0.056922	1.097082	0.887899
O327	O	-0.258789	0.708976	0.381719
O328	O	0.241211	1.208976	0.881719
H329	H	-0.225857	0.728961	0.405920
H330	H	0.274143	1.228961	0.905920
H331	H	-0.224155	0.036514	0.297459
H332	H	0.275845	0.536514	0.797459
O333	O	-0.211356	0.737741	0.597549
O334	O	0.288644	1.237741	1.097549
H335	H	-0.178428	0.757725	0.621753
H336	H	0.321572	1.257725	1.121753
H337	H	-0.223831	0.730153	0.688856
H338	H	0.276169	1.230153	1.188856
H339	H	-0.224114	0.177260	0.297455
H340	H	0.275886	0.677260	0.797455
H341	H	-0.224095	0.262378	0.297448
H342	H	0.275905	0.762378	0.797448
O343	O	-0.926778	0.630375	0.299133
O344	O	-0.426778	1.130375	0.799133
H345	H	-0.906114	0.641270	0.332423
H346	H	-0.406114	1.141270	0.832423
O347	O	-0.502771	0.268558	0.127845
O348	O	-0.002771	0.768558	0.627845
H349	H	-0.535663	0.244357	0.107837
H350	H	-0.035663	0.744357	0.607837
O351	O	-0.927614	0.673427	0.135126
O352	O	-0.427614	1.173427	0.635126
H353	H	-0.909576	0.639265	0.125281
H354	H	-0.409576	1.139265	0.625281
O355	O	-0.786691	0.629681	0.299081
O356	O	-0.286691	1.129681	0.799081
H357	H	-0.750792	0.604045	0.283202
H358	H	-0.250792	1.104045	0.783202
O359	O	-0.785223	0.707570	0.277647
O360	O	-0.285223	1.207570	0.777647
H361	H	-0.748993	0.721128	0.250883
H362	H	-0.248993	1.221128	0.750883
O363	O	-0.928145	0.586253	0.159379
O364	O	-0.428145	1.086253	0.659379
H365	H	-0.965176	0.612283	0.145186
H366	H	-0.465176	1.112283	0.645186
O367	O	-0.258525	0.709045	1.051638
O368	O	0.241475	1.209045	1.551638
H369	H	-0.266465	0.704212	1.088202
H370	H	0.233535	1.204212	1.588202
O371	O	-0.455375	0.589544	0.954092
O372	O	0.044625	1.089544	1.454092
H373	H	-0.422210	0.566693	0.932723
H374	H	0.077790	1.066693	1.432723
O375	O	-0.455349	0.589559	1.051613
O376	O	0.044651	1.089559	1.551613
H377	H	-0.488266	0.569567	1.027411
H378	H	0.011734	1.069567	1.527411
