data_functionalizedCrystal
_audit_creation_method	'MofGen! by Chris Wilmer'
_symmetry_space_group_name_H-M	'P1'
_symmetry_Int_Tables_number	1
_symmetry_cell_setting	triclinic
loop_
_symmetry_equiv_pos_as_xyz
  x,y,z
_cell_length_a	14.519731
_cell_length_b	15.995292
_cell_length_c	15.072220
_cell_angle_alpha	89.995134
_cell_angle_beta	89.995023
_cell_angle_gamma	83.578735
loop_
_atom_site_label
_atom_site_type_symbol
_atom_site_fract_x
_atom_site_fract_y
_atom_site_fract_z
O1	O	1.223631	0.109850	-0.073778
O2	O	0.955130	0.122758	-0.073779
O3	O	1.096748	-0.005575	-0.073780
O4	O	1.082013	0.238183	-0.073777
O5	O	1.096736	-0.005587	0.073786
O6	O	0.955118	0.122746	0.073787
O7	O	1.223618	0.109838	0.073787
Zn8	Zn	1.089366	0.116290	0.097216
Zn9	Zn	1.089382	0.116306	-0.097207
O10	O	1.082001	0.238171	0.073788
C11	C	0.920766	0.122147	0.000004
C12	C	0.818389	0.120335	0.000003
C13	C	0.735248	0.118862	-0.000000
C14	C	0.630943	0.117022	-0.000001
C15	C	0.547807	0.115562	-0.000001
C16	C	0.443495	0.113722	-0.000003
C17	C	1.096142	-0.036778	0.000001
C18	C	1.094344	-0.129734	-0.000006
C19	C	1.087734	-0.467482	0.000002
C20	C	1.189950	-0.444010	0.000332
C21	C	1.191893	-0.347331	-0.000004
C22	C	1.091014	-0.299921	-0.000001
C23	C	1.039918	-0.329096	-0.084266
C24	C	1.038687	-0.425888	-0.084333
C25	C	1.036586	-0.425762	0.083476
C26	C	1.040374	-0.329264	0.084587
C27	C	1.092862	-0.205222	-0.000006
C28	C	1.085883	-0.562181	0.000001
C29	C	1.257983	0.110449	0.000003
C30	C	1.360359	0.112261	-0.000002
C31	C	1.082606	0.269374	0.000006
C32	C	1.084404	0.362330	0.000007
N33	N	1.089362	0.116279	0.229905
N34	N	1.089394	0.116311	-0.229896
C35	C	1.089373	0.116290	0.410902
C36	C	1.165167	0.047645	0.448543
C37	C	1.165442	0.047829	0.551369
C38	C	1.089383	0.116300	0.589106
C39	C	1.109982	0.203807	0.551762
C40	C	1.110519	0.203399	0.448904
C41	C	0.992752	0.098215	0.448821
C42	C	0.993407	0.096236	0.551685
C43	C	1.089387	0.116310	0.689820
C44	C	1.089370	0.116285	0.310189
H45	H	1.231911	-0.328248	0.060399
H46	H	1.179627	0.220038	0.577517
O47	O	1.236848	-0.478506	-0.071292
C48	C	1.328361	-0.456906	-0.070125
H49	H	1.348042	-0.440957	0.000603
H50	H	1.333317	-0.400032	-0.114751
C51	C	1.370872	-0.551271	-0.190979
C52	C	1.395047	-0.531689	-0.104108
H53	H	1.412008	-0.597398	-0.211945
H54	H	1.309218	-0.565821	-0.191768
H55	H	1.375003	-0.503870	-0.228157
H56	H	1.390905	-0.579086	-0.066930
H57	H	1.456703	-0.517149	-0.103314
H58	H	0.934393	0.142960	0.577371
O59	O	1.151025	-0.029746	0.581619
C60	C	1.227413	-0.062856	0.633377
H61	H	1.265090	-0.009161	0.659703
H62	H	1.276869	-0.106378	0.590830
C63	C	1.146878	-0.178715	0.679493
C64	C	1.193149	-0.112765	0.711833
H65	H	1.125744	-0.209504	0.727886
H66	H	1.095415	-0.156411	0.644620
H67	H	1.188099	-0.214974	0.644037
H68	H	1.151925	-0.076501	0.747279
H69	H	1.244605	-0.135064	0.746714
H70	H	1.236470	0.059072	0.422678
H71	H	0.963742	-0.440555	-0.088149
O72	O	1.074907	-0.459482	0.159590
C73	C	1.148559	-0.521389	0.138543
H74	H	1.175707	-0.508968	0.069360
H75	H	1.122844	-0.586153	0.140221
C76	C	1.193731	-0.533561	0.291709
C77	C	1.227081	-0.518301	0.206741
H78	H	1.242166	-0.531659	0.333779
H79	H	1.144108	-0.491855	0.305891
H80	H	1.172302	-0.587530	0.293095
H81	H	1.248498	-0.464329	0.205353
H82	H	1.276709	-0.559997	0.192561
O83	O	1.237086	-0.477398	0.072323
C84	C	1.314398	-0.532114	0.044045
H85	H	1.334361	-0.514448	-0.026091
H86	H	1.296230	-0.599631	0.044570
C87	C	1.371904	-0.546236	0.193332
C88	C	1.396428	-0.524534	0.107192
H89	H	1.422503	-0.541564	0.232286
H90	H	1.319816	-0.509376	0.212385
H91	H	1.356763	-0.602499	0.193758
H92	H	1.411557	-0.468269	0.106766
H93	H	1.448520	-0.561385	0.088141
O94	O	1.239791	-0.325174	-0.072230
C95	C	1.181490	-0.269603	-0.125701
H96	H	1.122741	-0.237300	-0.083553
H97	H	1.151362	-0.306390	-0.181385
C98	C	1.310020	-0.242516	-0.217596
C99	C	1.237867	-0.202836	-0.165826
H100	H	1.344796	-0.201333	-0.242350
H101	H	1.349299	-0.279958	-0.181573
H102	H	1.284902	-0.273170	-0.263991
H103	H	1.262986	-0.172191	-0.119425
H104	H	1.198594	-0.165387	-0.201842
H105	H	0.977767	0.031860	0.576094
H106	H	0.965685	-0.297344	-0.087397
H107	H	1.077580	-0.310645	0.146925
O108	O	0.968895	0.023758	0.417794
C109	C	0.884952	0.037992	0.370297
H110	H	0.874830	0.105927	0.346104
H111	H	0.824871	0.025886	0.415468
C112	C	0.900523	-0.105313	0.319790
C113	C	0.888094	-0.021876	0.290069
H114	H	0.902458	-0.142244	0.270304
H115	H	0.957075	-0.114904	0.351792
H116	H	0.850453	-0.115390	0.357433
H117	H	0.938169	-0.011797	0.252437
H118	H	0.831550	-0.012284	0.258059
O119	O	0.946843	-0.442632	0.084319
C120	C	0.929789	-0.486937	0.162410
H121	H	0.982399	-0.473881	0.215348
H122	H	0.936343	-0.557262	0.147689
C123	C	0.766625	-0.474008	0.131069
C124	C	0.831236	-0.457967	0.196090
H125	H	0.705831	-0.456142	0.151843
H126	H	0.778113	-0.444162	0.078455
H127	H	0.772098	-0.532612	0.118807
H128	H	0.825770	-0.399363	0.208343
H129	H	0.819744	-0.487803	0.248707
O130	O	0.925569	0.157961	0.419657
C131	C	0.965624	0.215867	0.365288
H132	H	1.033981	0.184896	0.337211
H133	H	0.978902	0.273234	0.406232
C134	C	0.815147	0.281501	0.323000
C135	C	0.899100	0.243460	0.288509
H136	H	0.774112	0.298525	0.275641
H137	H	0.788161	0.242491	0.359632
H138	H	0.826225	0.329302	0.357120
H139	H	0.888024	0.195654	0.254399
H140	H	0.926084	0.282462	0.251869
H141	H	1.153180	-0.017602	0.423798
H142	H	1.074085	-0.452644	-0.147324
H143	H	0.966742	-0.296410	0.089677
O144	O	1.251059	0.061574	0.580616
C145	C	1.317242	-0.002804	0.549117
H146	H	1.289287	-0.032412	0.487325
H147	H	1.331903	-0.052891	0.602639
C148	C	1.441829	0.070892	0.601772
C149	C	1.407498	0.034531	0.525874
H150	H	1.497505	0.093920	0.587438
H151	H	1.397241	0.114264	0.622997
H152	H	1.454039	0.029146	0.646366
H153	H	1.395277	0.076279	0.481285
H154	H	1.452086	-0.008833	0.504640
O155	O	1.045914	0.266343	0.580809
C156	C	1.066489	0.343974	0.546082
H157	H	1.109928	0.332450	0.483354
H158	H	1.106939	0.377476	0.597346
C159	C	0.922289	0.413236	0.600674
C160	C	0.975636	0.399083	0.523627
H161	H	0.866248	0.447232	0.586826
H162	H	0.908429	0.360935	0.624074
H163	H	0.956008	0.441151	0.643387
H164	H	0.941921	0.371159	0.480920
H165	H	0.989488	0.451380	0.500219
H166	H	1.075411	-0.308974	-0.146976
O167	O	1.194487	0.222499	0.420254
C168	C	1.182384	0.296138	0.368177
H169	H	1.113842	0.334206	0.386215
H170	H	1.181735	0.278299	0.294968
C171	C	1.346812	0.302494	0.363661
C172	C	1.262631	0.349253	0.385822
H173	H	1.396314	0.335257	0.374541
H174	H	1.354967	0.252880	0.398744
H175	H	1.346258	0.287631	0.302655
H176	H	1.263182	0.364106	0.446829
H177	H	1.254478	0.398870	0.350749
H178	H	1.057241	0.255916	0.424003
