data_functionalizedCrystal
_audit_creation_method	'MofGen! by Chris Wilmer'
_symmetry_space_group_name_H-M	'P1'
_symmetry_Int_Tables_number	1
_symmetry_cell_setting	triclinic
loop_
_symmetry_equiv_pos_as_xyz
  x,y,z
_cell_length_a	17.000383
_cell_length_b	17.019294
_cell_length_c	12.996460
_cell_angle_alpha	86.114884
_cell_angle_beta	89.991116
_cell_angle_gamma	79.506204
loop_
_atom_site_label
_atom_site_type_symbol
_atom_site_fract_x
_atom_site_fract_y
_atom_site_fract_z
O1	O	1.056069	0.028438	-0.088157
O2	O	0.824304	0.057068	-0.090680
O3	O	0.946652	-0.072528	-0.079199
O4	O	0.933721	0.158035	-0.099637
O5	O	0.946639	-0.072534	0.091935
O6	O	0.824292	0.057063	0.080455
O7	O	1.056056	0.028433	0.082978
Cu8	Cu	0.940173	0.042747	0.097342
Cu9	Cu	0.940188	0.042754	-0.105044
O10	O	0.933709	0.158029	0.071497
C11	C	0.794643	0.058603	-0.005247
C12	C	0.706279	0.063175	-0.005647
C13	C	0.206029	0.092699	-0.008302
C14	C	0.289056	0.088397	-0.007920
C15	C	0.340136	0.013720	-0.001293
C16	C	0.308184	-0.056658	0.004943
C17	C	0.225157	-0.052355	0.004553
C18	C	0.591300	-0.002900	0.000199
C19	C	0.674332	-0.007198	0.000591
C20	C	0.655199	0.137858	-0.012273
C21	C	0.572172	0.142154	-0.012656
C22	C	0.540227	0.071775	-0.006427
C23	C	0.425004	0.009321	-0.000898
C24	C	0.455360	0.076176	-0.006828
C25	C	0.946155	-0.101886	0.008968
C26	C	0.944684	-0.189355	0.016716
C27	C	0.944002	-0.230440	-0.072929
C28	C	0.942614	-0.312625	-0.065647
C29	C	0.941915	-0.353724	0.031282
C30	C	0.942595	-0.312633	0.120934
C31	C	0.943977	-0.230448	0.113650
C32	C	0.937738	-0.601868	0.057941
C33	C	0.936359	-0.684059	0.065218
C34	C	0.936377	-0.684045	-0.121363
C35	C	0.937763	-0.601860	-0.128638
C36	C	0.938439	-0.560775	-0.038987
C37	C	0.940500	-0.437731	0.038728
C38	C	0.939849	-0.476768	-0.046434
C39	C	1.085718	0.026898	-0.002457
C40	C	1.174082	0.022326	-0.002064
C41	C	0.934205	0.187387	-0.016672
C42	C	0.935676	0.274856	-0.024427
N43	N	0.940168	0.042741	0.239690
N44	N	0.940199	0.042753	-0.247391
C45	C	0.940187	0.042755	0.659503
C46	C	0.940179	0.042754	0.542698
C47	C	0.940178	0.042749	0.449600
C48	C	0.940169	0.042747	0.332788
H49	H	0.199148	-0.109661	0.009631
F50	F	0.151673	0.172181	-0.015348
H51	H	0.315063	0.145702	-0.013009
H52	H	0.681218	0.195156	-0.017347
H53	H	0.349779	-0.117461	0.010333
F54	F	0.400997	0.155649	-0.013888
H55	H	0.944575	-0.196984	-0.151859
H56	H	0.944521	-0.196995	0.186648
H57	H	0.940412	-0.443301	-0.125353
F58	F	0.941842	-0.356374	0.224093
H59	H	0.565302	-0.060207	0.005274
F60	F	0.479373	-0.070153	0.006163
F61	F	0.939752	-0.481478	0.141885
H62	H	0.530587	0.202964	-0.018056
F63	F	0.935619	-0.727799	0.168388
F64	F	0.941889	-0.356348	-0.161060
F65	F	0.728694	-0.086683	0.007644
F66	F	0.938509	-0.558125	-0.231803
F67	F	0.935657	-0.727777	-0.216769
H68	H	0.938304	-0.568430	0.130942
