data_functionalizedCrystal
_audit_creation_method	'MofGen! by Chris Wilmer'
_symmetry_space_group_name_H-M	'P1'
_symmetry_Int_Tables_number	1
_symmetry_cell_setting	triclinic
loop_
_symmetry_equiv_pos_as_xyz
  x,y,z
_cell_length_a	21.606444
_cell_length_b	21.606444
_cell_length_c	21.606444
_cell_angle_alpha	60.002810
_cell_angle_beta	90.003734
_cell_angle_gamma	59.991153
loop_
_atom_site_label
_atom_site_type_symbol
_atom_site_fract_x
_atom_site_fract_y
_atom_site_fract_z
Zr1	Zr	-0.081302	0.677488	0.596246
O2	O	-0.180156	0.806626	0.497415
O3	O	-0.050983	0.548355	0.626543
O4	O	-0.180127	0.677491	0.626537
O5	O	0.050842	0.677486	0.497426
O6	O	-0.180121	0.677486	0.728391
O7	O	-0.051012	0.677491	0.497421
O8	O	0.050894	0.446486	0.728402
O9	O	-0.180173	0.908487	0.497416
O10	O	-0.038066	0.601464	0.715477
O11	O	0.037942	0.601464	0.639469
O12	O	-0.114108	0.753504	0.639462
O13	O	-0.038100	0.753504	0.563453
Zr14	Zr	0.081153	0.677474	0.758700
Zr15	Zr	-0.081293	0.677481	0.758692
Zr16	Zr	0.081144	0.677481	0.596255
Zr17	Zr	-0.081329	0.839943	0.596247
Zr18	Zr	0.081180	0.515018	0.758699
O19	O	0.050834	0.806607	0.728404
O20	O	-0.180143	0.806616	0.728392
O21	O	0.050821	0.806616	0.497427
O22	O	0.180007	0.548335	0.857531
O23	O	-0.050970	0.548345	0.857520
O24	O	0.179994	0.548345	0.626555
O25	O	-0.050991	0.677475	0.857520
O26	O	0.179978	0.677471	0.728409
O27	O	0.179972	0.677475	0.626555
O28	O	0.050863	0.677471	0.857525
O29	O	-0.180166	0.908481	0.626538
O30	O	0.180017	0.446480	0.728408
O31	O	0.180024	0.446475	0.857531
O32	O	0.050902	0.446480	0.857524
O33	O	-0.051050	0.908481	0.497422
O34	O	-0.051043	0.908475	0.626545
O35	O	0.113959	0.601457	0.715485
O36	O	0.037951	0.601457	0.791494
O37	O	-0.038091	0.753498	0.715478
O38	O	0.037917	0.753498	0.639469
C39	C	-0.000040	0.474274	0.677472
C40	C	-0.000029	0.405307	0.677472
C41	C	-0.056160	0.429047	0.621355
C42	C	-0.056176	0.364258	0.621357
C43	C	-0.000057	0.275730	0.677473
C44	C	0.056078	0.251990	0.733596
C45	C	0.056090	0.316779	0.733597
C46	C	0.056030	-0.009296	0.733596
C47	C	0.056015	-0.074085	0.733590
C48	C	-0.056236	0.038183	0.621356
C49	C	-0.056224	0.102971	0.621356
C50	C	-0.000092	0.079227	0.677481
C51	C	-0.000076	0.149479	0.677479
C52	C	-0.000068	0.205478	0.677473
C53	C	-0.203269	0.677489	0.677463
C54	C	-0.272231	0.677492	0.677459
C55	C	-0.344323	0.756855	0.637780
C56	C	-0.409118	0.756853	0.637786
C57	C	-0.401820	0.677487	0.677469
C58	C	-0.329720	0.598117	0.717153
C59	C	-0.264927	0.598121	0.717151
C60	C	-0.591023	0.598102	0.717165
C61	C	-0.655824	0.598105	0.717163
C62	C	-0.735215	0.756834	0.637801
C63	C	-0.670421	0.756838	0.637798
C64	C	-0.598328	0.677469	0.677486
C65	C	-0.528070	0.677473	0.677480
C66	C	-0.472075	0.677482	0.677471
C67	C	0.203120	0.677472	0.677484
C68	C	0.272083	0.677469	0.677487
C69	C	-0.000086	0.677489	0.474279
C70	C	-0.000090	0.677492	0.405316
C71	C	-0.000108	0.880687	0.677474
C72	C	-0.000120	0.949654	0.677475
C73	C	0.039635	0.598106	0.021708
C74	C	0.039628	0.598108	0.086503
C75	C	-0.000069	0.677475	0.079218
C76	C	-0.039767	0.756844	0.007133
C77	C	-0.039764	0.756841	-0.057660
C78	C	-0.039781	0.756859	0.268436
C79	C	-0.039780	0.756856	0.333237
C80	C	0.039610	0.598127	0.412599
C81	C	0.039614	0.598124	0.347806
C82	C	-0.000088	0.677492	0.275727
C83	C	-0.000081	0.677489	0.205469
C84	C	-0.000072	0.677479	0.149474
C85	C	-0.000063	0.677472	0.880668
C86	C	-0.000059	0.677469	0.949630
C87	C	-0.000029	0.474265	0.880667
C88	C	-0.000013	0.405296	0.949629
C89	C	0.203154	0.474265	0.677482
C90	C	0.272128	0.405296	0.677486
C91	C	0.203166	0.474257	0.880677
C92	C	0.272144	0.405284	0.949643
C93	C	-0.203315	0.880705	0.474269
C94	C	-0.272293	0.949677	0.405304
C95	C	-0.000120	0.880696	0.474280
C96	C	-0.000136	0.949666	0.405318
C97	C	-0.203303	0.880696	0.677464
C98	C	-0.272277	0.949666	0.677461
C99	C	-0.039693	0.372910	0.942334
C100	C	-0.039693	0.308115	1.007125
C101	C	-0.000010	0.275702	1.079210
C102	C	0.039671	0.308094	1.086503
C103	C	0.039667	0.372892	1.021713
C104	C	0.344206	0.372904	0.717167
C105	C	0.409020	0.308109	0.717167
C106	C	0.401756	0.275702	0.677490
C107	C	0.329670	0.308101	0.637804
C108	C	0.264857	0.372899	0.637800
C109	C	0.264861	0.372894	1.021712
C110	C	0.329667	0.308096	1.086519
C111	C	0.401755	0.275685	1.079254
C112	C	0.409036	0.308082	1.007177
C113	C	0.344231	0.372883	0.942372
C114	C	-0.265010	0.982075	0.333234
C115	C	-0.329816	1.046893	0.268428
C116	C	-0.401904	1.079308	0.275692
C117	C	-0.409185	1.046907	0.347769
C118	C	-0.344380	0.982095	0.412574
C119	C	0.039537	0.982058	0.412612
C120	C	0.039520	1.046871	0.347821
C121	C	-0.000166	1.079286	0.275737
C122	C	-0.039844	1.046891	0.268444
C123	C	-0.039831	0.982084	0.333234
C124	C	-0.264988	0.982051	0.717146
C125	C	-0.329790	1.046847	0.717158
C126	C	-0.401881	1.079260	0.677480
C127	C	-0.409168	1.046868	0.637794
C128	C	-0.344367	0.982069	0.637787
H129	H	0.101768	0.179904	0.779290
Cl130	Cl	-0.126712	0.540338	0.550801
H131	H	0.071980	0.281694	1.145203
Cl132	Cl	0.089525	0.498345	0.356970
Cl133	Cl	-0.089672	0.856616	-0.148275
H134	H	0.071833	1.073236	0.353774
Cl135	Cl	-0.353544	0.941372	0.587883
H136	H	-0.072104	0.821490	0.327297
H137	H	-0.000012	0.222938	1.131960
H138	H	-0.323872	1.073263	0.209746
H139	H	-0.072093	0.821465	0.001206
H140	H	-0.467887	1.073307	0.353675
H141	H	0.323766	0.281706	0.605499
H142	H	0.101798	0.297443	0.779293
Cl143	Cl	-0.089681	0.856637	0.177830
H144	H	0.206171	0.399265	0.605489
H145	H	-0.000171	1.132056	0.222987
H146	H	-0.072155	1.073294	0.209744
H147	H	0.206169	0.399273	1.027641
Cl148	Cl	-0.089705	0.941364	0.324050
H149	H	0.323725	0.281725	1.145201
Cl150	Cl	-0.089591	0.413648	0.851721
H151	H	-0.101943	0.057511	0.575659
H152	H	0.101717	-0.146173	0.779290
Cl153	Cl	0.499632	0.267389	0.767065
H154	H	0.454517	0.222920	1.132029
H155	H	-0.350319	0.955717	0.471255
H156	H	0.071859	0.955670	0.471301
Cl157	Cl	0.483243	0.194239	0.677504
H158	H	0.071934	0.533501	0.471296
H159	H	-0.206294	0.955670	0.749456
H160	H	-0.323841	1.073213	0.749474
H161	H	0.467739	0.281683	1.001273
H162	H	0.101736	-0.028641	0.779296
Cl163	Cl	-0.499802	1.087634	0.587908
H164	H	-0.101884	0.383595	0.575660
Cl165	Cl	-0.089578	0.267404	0.997939
H166	H	0.071983	0.399252	1.027663
Cl167	Cl	0.353400	0.413589	0.851773
H168	H	-0.454640	1.132023	0.677491
H169	H	-0.206318	0.955687	0.327305
H170	H	-0.454666	1.132082	0.222918
Cl171	Cl	-0.126774	0.214263	0.550804
Cl172	Cl	-0.353509	0.856637	0.587889
H173	H	-0.793923	0.821460	0.605487
H174	H	-0.467817	0.821478	0.605477
Cl175	Cl	-0.679602	0.856617	0.587899
H176	H	-0.649873	0.533471	0.749479
H177	H	-0.323782	0.533496	0.749467
Cl178	Cl	-0.174294	0.498346	0.767045
Cl179	Cl	0.089545	0.498325	0.030876
Cl180	Cl	-0.500399	0.498324	0.767026
H181	H	0.071939	0.533483	0.145190
H182	H	0.350136	0.399282	0.749477
