data_functionalizedCrystal
_audit_creation_method	'MofGen! by Chris Wilmer'
_symmetry_space_group_name_H-M	'P1'
_symmetry_Int_Tables_number	1
_symmetry_cell_setting	triclinic
loop_
_symmetry_equiv_pos_as_xyz
  x,y,z
_cell_length_a	6.817900
_cell_length_b	16.305597
_cell_length_c	19.453114
_cell_angle_alpha	95.862248
_cell_angle_beta	101.709288
_cell_angle_gamma	103.455834
loop_
_atom_site_label
_atom_site_type_symbol
_atom_site_fract_x
_atom_site_fract_y
_atom_site_fract_z
V1	V	-4.006694	-0.117595	-0.219242
O2	O	-3.994747	0.004747	-0.214820
O3	O	-3.958196	-0.232303	-0.217981
O4	O	-3.949610	-0.116183	-0.314752
O5	O	-4.003392	-0.112176	-0.117379
V6	V	-4.491459	-0.102915	-0.207029
O7	O	-4.265226	-0.149798	-0.246031
O8	O	-4.683125	-0.070712	-0.180240
O9	O	-4.316750	0.011792	-0.208290
O10	O	-4.620803	-0.225258	-0.211450
O11	O	-4.612158	-0.108334	-0.308892
O12	O	-4.325337	-0.104327	-0.111519
C13	C	-3.803454	-0.260254	-0.214583
C14	C	-3.845031	-0.354031	-0.214189
C15	C	-3.792501	-0.112130	-0.338024
C16	C	-3.827111	-0.111735	-0.416105
C17	C	-3.996283	-0.694784	-0.212789
C18	C	-3.760904	-0.653937	-0.208954
C19	C	-3.717354	-0.556339	-0.209086
C20	C	-3.921244	-0.525732	-0.213484
C21	C	-4.010036	-0.550838	-0.148037
C22	C	-4.051884	-0.648368	-0.147553
C23	C	-4.128164	-0.674239	-0.281883
C24	C	-4.081225	-0.576731	-0.283095
C25	C	-3.878845	-0.430191	-0.213875
C26	C	-4.038685	-0.790324	-0.212394
C27	C	-4.025150	-0.115783	-0.456371
C28	C	-4.057671	-0.115411	-0.529737
C29	C	-3.892150	-0.111008	-0.562837
C30	C	-3.694081	-0.106954	-0.522561
C31	C	-3.661562	-0.107318	-0.449196
N32	N	-3.832369	-0.155559	-0.681718
N33	N	-3.863274	-0.155216	-0.751413
C34	C	-3.990117	-0.109912	-0.783883
N35	N	-4.084923	-0.064975	-0.744027
N36	N	-4.054023	-0.065322	-0.674327
C37	C	-3.927391	-0.110613	-0.642389
C38	C	-4.223431	-0.113556	-0.903700
C39	C	-4.255942	-0.113179	-0.977067
C40	C	-3.892351	-0.104730	-0.969890
C41	C	-3.859841	-0.105099	-0.896524
C42	C	-4.025390	-0.109516	-0.863434
C43	C	-4.134835	0.039739	-0.211685
C44	C	-4.072496	0.133515	-0.212084
C45	C	-4.145788	-0.108383	-0.088243
C46	C	-4.090416	-0.108774	-0.010161
H47	H	-3.710912	-0.684603	-0.255532
H48	H	-3.559314	-0.103367	-0.549515
O49	O	-3.469169	-0.103270	-0.410021
C50	C	-3.184274	-0.025415	-0.313284
C51	C	-3.402116	-0.029863	-0.357609
H52	H	-3.130013	0.033919	-0.270889
H53	H	-3.071394	-0.022156	-0.349487
H54	H	-3.190207	-0.084761	-0.286630
H55	H	-3.396384	0.029468	-0.384269
H56	H	-3.514907	-0.033164	-0.321373
H57	H	-4.232924	-0.556927	-0.290370
O58	O	-4.384236	-0.117986	-0.871536
C59	C	-4.595693	-0.196733	-0.802512
C60	C	-4.413578	-0.191834	-0.838919
H61	H	-4.619446	-0.256425	-0.776119
H62	H	-4.742922	-0.199611	-0.843872
H63	H	-4.559435	-0.137746	-0.760548
H64	H	-4.449636	-0.250806	-0.880878
H65	H	-4.266405	-0.188914	-0.797517
H66	H	-4.417209	-0.116470	-1.009849
H67	H	-3.757576	-0.101138	-0.996839
O68	O	-4.006156	-0.558369	-0.340947
C69	C	-4.065763	-0.583511	-0.468620
C70	C	-4.151008	-0.604408	-0.403167
H71	H	-4.182854	-0.620709	-0.518942
H72	H	-3.913264	-0.602144	-0.464938
H73	H	-4.038110	-0.512152	-0.470435
H74	H	-4.178790	-0.675759	-0.401311
H75	H	-4.303440	-0.585715	-0.406875
H76	H	-3.698582	-0.101811	-0.863741
O77	O	-4.250021	-0.119464	-0.568957
C78	C	-4.534975	-0.197471	-0.665616
C79	C	-4.317128	-0.192971	-0.621266
H80	H	-4.589316	-0.256906	-0.707908
H81	H	-4.529290	-0.138215	-0.692382
H82	H	-4.647665	-0.200648	-0.629349
H83	H	-4.204318	-0.189821	-0.657483
H84	H	-4.322982	-0.252225	-0.594492
O85	O	-3.633285	-0.536516	-0.264888
C86	C	-3.520052	-0.588979	-0.366376
C87	C	-3.615247	-0.611539	-0.303200
H88	H	-3.505479	-0.649624	-0.397378
H89	H	-3.359911	-0.542666	-0.345803
H90	H	-3.624440	-0.557941	-0.402748
H91	H	-3.511020	-0.642610	-0.266803
H92	H	-3.775415	-0.657816	-0.323822
H93	H	-3.660300	-0.667237	-0.159122
O94	O	-4.188820	-0.527106	-0.148755
C95	C	-4.366078	-0.442648	-0.087385
C96	C	-4.163490	-0.469463	-0.086473
H97	H	-4.345653	-0.396027	-0.037043
H98	H	-4.497633	-0.501502	-0.089912
H99	H	-4.404886	-0.410521	-0.135910
H100	H	-4.124488	-0.501573	-0.037955
H101	H	-4.032053	-0.410581	-0.083983
O102	O	-3.939109	-0.661696	-0.085518
C103	C	-3.697717	-0.597695	0.026202
C104	C	-3.825299	-0.582487	-0.044030
H105	H	-3.605703	-0.533666	0.059772
H106	H	-3.586265	-0.636606	0.014272
H107	H	-3.806867	-0.634082	0.056580
H108	H	-3.716308	-0.546076	-0.074442
H109	H	-3.936775	-0.543612	-0.032051
H110	H	-3.595005	-0.521706	-0.159110
O111	O	-4.254607	-0.680486	-0.147408
C112	C	-4.497420	-0.754677	-0.085851
C113	C	-4.267769	-0.718363	-0.085937
H114	H	-4.508137	-0.785293	-0.036149
H115	H	-4.575916	-0.804739	-0.135109
H116	H	-4.578233	-0.700821	-0.086211
H117	H	-4.186780	-0.772160	-0.085552
H118	H	-4.189430	-0.668279	-0.036684
H119	H	-3.896622	-0.515019	-0.096507
H120	H	-4.096063	-0.706950	-0.331516
H121	H	-4.300485	-0.701250	-0.285376
O122	O	-4.185972	-0.120218	-0.424218
C123	C	-4.397444	-0.198971	-0.355201
C124	C	-4.215308	-0.194064	-0.391597
H125	H	-4.421192	-0.258661	-0.328805
H126	H	-4.544666	-0.201858	-0.396567
H127	H	-4.361215	-0.139983	-0.313240
H128	H	-4.251336	-0.253038	-0.433553
H129	H	-4.068142	-0.191135	-0.350189
