data_functionalizedCrystal
_audit_creation_method	'MofGen! by Chris Wilmer'
_symmetry_space_group_name_H-M	'P1'
_symmetry_Int_Tables_number	1
_symmetry_cell_setting	triclinic
loop_
_symmetry_equiv_pos_as_xyz
  x,y,z
_cell_length_a	26.809956
_cell_length_b	19.288864
_cell_length_c	19.288865
_cell_angle_alpha	83.136245
_cell_angle_beta	89.999100
_cell_angle_gamma	89.977356
loop_
_atom_site_label
_atom_site_type_symbol
_atom_site_fract_x
_atom_site_fract_y
_atom_site_fract_z
O1	O	0.041645	-0.921354	-0.086638
O2	O	0.374979	-0.588020	0.246695
O3	O	0.708312	-0.254687	0.580029
O4	O	0.041612	-0.719093	-0.098327
O5	O	0.374945	-0.385760	0.235007
O6	O	0.708279	-0.052426	0.568340
O7	O	0.041620	-0.826068	0.008648
O8	O	0.374953	-0.492735	0.341981
O9	O	0.708286	-0.159401	0.675315
O10	O	0.041637	-0.814379	-0.193613
O11	O	0.374971	-0.481046	0.139721
O12	O	0.708304	-0.147712	0.473054
O13	O	-0.041340	-0.826048	0.008632
O14	O	0.291994	-0.492714	0.341965
O15	O	0.625327	-0.159381	0.675298
O16	O	-0.041347	-0.719073	-0.098343
O17	O	0.291986	-0.385740	0.234990
O18	O	0.625319	-0.052406	0.568324
O19	O	-0.041314	-0.921334	-0.086654
O20	O	0.292019	-0.588000	0.246679
O21	O	0.625353	-0.254667	0.580013
Zn22	Zn	-0.054502	-0.820200	-0.092501
Zn23	Zn	0.278831	-0.486867	0.240832
Zn24	Zn	0.612164	-0.153533	0.574166
Zn25	Zn	0.054800	-0.820227	-0.092480
Zn26	Zn	0.388133	-0.486893	0.240854
Zn27	Zn	0.721467	-0.153560	0.574187
O28	O	-0.041322	-0.814359	-0.193629
O29	O	0.292012	-0.481026	0.139704
O30	O	0.625345	-0.147692	0.473038
C31	C	0.000128	-0.693207	-0.097959
C32	C	0.333461	-0.359873	0.235375
C33	C	0.666795	-0.026540	0.568708
C34	C	0.000115	-0.616103	-0.096830
C35	C	0.333448	-0.282770	0.236504
C36	C	0.666781	0.050564	0.569837
N37	N	-0.129098	-0.820187	-0.092515
N38	N	0.204235	-0.486854	0.240818
N39	N	0.537568	-0.153520	0.574151
C40	C	0.000138	-0.825682	0.034516
C41	C	0.333472	-0.492348	0.367850
C42	C	0.666805	-0.159015	0.701183
C43	C	0.000134	-0.824553	0.111620
C44	C	0.333467	-0.491219	0.444953
C45	C	0.666801	-0.157886	0.778287
C46	C	-0.473721	-0.867589	-0.045123
C47	C	-0.140388	-0.534256	0.288210
C48	C	0.192946	-0.200922	0.621544
C49	C	-0.682599	-0.867605	-0.045112
C50	C	-0.349265	-0.534272	0.288221
C51	C	-0.015932	-0.200939	0.621554
O52	O	-0.709599	-0.907880	-0.004822
O53	O	-0.376266	-0.574547	0.328512
O54	O	-0.042933	-0.241213	0.661845
N55	N	-0.708725	-0.820230	-0.092464
N56	N	-0.375392	-0.486897	0.240869
N57	N	-0.042059	-0.153564	0.574202
C58	C	-0.682630	-0.772845	-0.139819
C59	C	-0.349296	-0.439512	0.193514
C60	C	-0.015963	-0.106178	0.526847
O61	O	-0.709645	-0.732545	-0.180090
O62	O	-0.376311	-0.399212	0.153243
O63	O	-0.042978	-0.065879	0.486577
C64	C	-0.473753	-0.772826	-0.139826
C65	C	-0.140419	-0.439492	0.193507
C66	C	0.192914	-0.106159	0.526841
C67	C	-0.447629	-0.820209	-0.092476
C68	C	-0.114295	-0.486875	0.240858
C69	C	0.219038	-0.153542	0.574191
C70	C	-0.447597	-0.914967	0.002224
C71	C	-0.114263	-0.581634	0.335557
C72	C	0.219070	-0.248301	0.668891
C73	C	-0.395380	-0.914965	0.002219
C74	C	-0.062047	-0.581632	0.335552
C75	C	0.271286	-0.248299	0.668885
C76	C	-0.369288	-0.867585	-0.045134
C77	C	-0.035955	-0.534252	0.288199
C78	C	0.297378	-0.200918	0.621532
C79	C	-0.395412	-0.820206	-0.092481
C80	C	-0.062079	-0.486873	0.240852
C81	C	0.271254	-0.153540	0.574185
C82	C	-0.447658	-0.725437	-0.187177
C83	C	-0.114325	-0.392104	0.146156
C84	C	0.219009	-0.058771	0.479489
C85	C	-0.395435	-0.725436	-0.187173
C86	C	-0.062102	-0.392102	0.146160
C87	C	0.271231	-0.058769	0.479493
C88	C	-0.369311	-0.772818	-0.139823
C89	C	-0.035978	-0.439485	0.193510
C90	C	0.297355	-0.106152	0.526844
C91	C	-0.317104	-0.772824	-0.139840
C92	C	0.016229	-0.439491	0.193494
C93	C	0.349563	-0.106157	0.526827
N94	N	-0.290977	-0.820199	-0.092488
N95	N	0.042356	-0.486866	0.240846
N96	N	0.375690	-0.153532	0.574179
C97	C	-0.317069	-0.867579	-0.045135
C98	C	0.016264	-0.534246	0.288198
C99	C	0.349597	-0.200913	0.621532
C100	C	-0.792293	-0.772859	-0.139813
C101	C	-0.458959	-0.439526	0.193520
C102	C	-0.125626	-0.106193	0.526853
C103	C	-0.844512	-0.772865	-0.139813
C104	C	-0.511178	-0.439531	0.193521
C105	C	-0.177845	-0.106198	0.526854
C106	C	-0.844477	-0.867625	-0.045105
C107	C	-0.511144	-0.534291	0.288229
C108	C	-0.177811	-0.200958	0.621562
C109	C	-0.792257	-0.867622	-0.045109
C110	C	-0.458924	-0.534289	0.288224
C111	C	-0.125591	-0.200955	0.621558
C112	C	-0.766166	-0.820234	-0.092461
C113	C	-0.432833	-0.486901	0.240872
C114	C	-0.099499	-0.153568	0.574205
C115	C	-0.207411	-0.867572	-0.045151
C116	C	0.125922	-0.534239	0.288183
C117	C	0.459255	-0.200905	0.621516
C118	C	-0.155190	-0.867567	-0.045163
C119	C	0.178143	-0.534234	0.288171
C120	C	0.511476	-0.200901	0.621504
C121	C	-0.155230	-0.772806	-0.139868
C122	C	0.178104	-0.439472	0.193465
C123	C	0.511437	-0.106139	0.526799
C124	C	-0.207446	-0.772812	-0.139859
C125	C	0.125887	-0.439479	0.193474
C126	C	0.459221	-0.106145	0.526808
C127	C	-0.233535	-0.820198	-0.092495
C128	C	0.099798	-0.486864	0.240839
C129	C	0.433131	-0.153531	0.574172
O130	O	-0.290071	-0.732565	-0.180104
O131	O	0.043263	-0.399232	0.153229
O132	O	0.376596	-0.065899	0.486563
O133	O	-0.290045	-0.907863	-0.004860
O134	O	0.043288	-0.574529	0.328473
O135	O	0.376622	-0.241196	0.661807
C136	C	-0.525937	-0.867591	-0.045117
C137	C	-0.192604	-0.534258	0.288216
C138	C	0.140730	-0.200924	0.621549
C139	C	-0.552061	-0.820213	-0.092464
C140	C	-0.218728	-0.486879	0.240869
C141	C	0.114605	-0.153546	0.574202
C142	C	-0.525969	-0.772832	-0.139817
C143	C	-0.192636	-0.439499	0.193516
C144	C	0.140698	-0.106166	0.526850
C145	C	-0.604280	-0.820218	-0.092464
C146	C	-0.270947	-0.486885	0.240870
C147	C	0.062386	-0.153551	0.574203
C148	C	-0.630372	-0.867599	-0.045111
C149	C	-0.297039	-0.534265	0.288222
C150	C	0.036294	-0.200932	0.621556
C151	C	-0.604246	-0.914974	0.002241
C152	C	-0.270912	-0.581640	0.335574
C153	C	0.062421	-0.248307	0.668908
C154	C	-0.552029	-0.914972	0.002235
C155	C	-0.218696	-0.581638	0.335569
C156	C	0.114637	-0.248305	0.668902
C157	C	-0.552096	-0.725457	-0.187169
C158	C	-0.218763	-0.392124	0.146164
C159	C	0.114571	-0.058791	0.479498
C160	C	-0.604312	-0.725464	-0.187160
C161	C	-0.270979	-0.392130	0.146173
C162	C	0.062354	-0.058797	0.479507
C163	C	-0.630404	-0.772844	-0.139807
C164	C	-0.297071	-0.439511	0.193526
C165	C	0.036262	-0.106177	0.526859
N166	N	0.129396	-0.820245	-0.092460
N167	N	0.462729	-0.486912	0.240873
N168	N	0.796063	-0.153579	0.574207
C169	C	0.000171	-0.947220	-0.087022
C170	C	0.333504	-0.613887	0.246311
C171	C	0.666838	-0.280554	0.579645
C172	C	0.000188	-1.024324	-0.088151
C173	C	0.333521	-0.690990	0.245182
C174	C	0.666854	-0.357657	0.578516
C175	C	0.000128	-0.571407	-0.159598
C176	C	0.333461	-0.238073	0.173736
C177	C	0.666795	0.095260	0.507069
C178	C	0.000133	-0.498960	-0.158537
C179	C	0.333467	-0.165626	0.174796
C180	C	0.666800	0.167707	0.508130
C181	C	0.000136	-0.471212	-0.094705
C182	C	0.333469	-0.137879	0.238629
C183	C	0.666802	0.195455	0.571962
C184	C	0.000119	-0.515918	-0.031929
C185	C	0.333453	-0.182585	0.301405
C186	C	0.666786	0.150748	0.634738
C187	C	0.000109	-0.588364	-0.032991
C188	C	0.333442	-0.255030	0.300342
C189	C	0.666776	0.078303	0.633676
C190	C	0.029212	-0.362957	-0.044520
C191	C	0.362546	-0.029624	0.288814
C192	C	0.695879	0.303709	0.622147
C193	C	0.029226	-0.290513	-0.043460
C194	C	0.362559	0.042821	0.289873
C195	C	0.695892	0.376154	0.623207
C196	C	0.000165	-0.247767	-0.091425
C197	C	0.333499	0.085567	0.241908
C198	C	0.666832	0.418900	0.575242
C199	C	-0.028902	-0.277472	-0.140462
C200	C	0.304431	0.055861	0.192872
C201	C	0.637765	0.389194	0.526205
C202	C	-0.028912	-0.349918	-0.141524
C203	C	0.304421	-0.016584	0.191809
C204	C	0.637754	0.316749	0.525142
C205	C	0.000147	-0.392658	-0.093546
C206	C	0.333480	-0.059325	0.239788
C207	C	0.666813	0.274009	0.573121
C208	C	0.000184	-0.124514	-0.153047
C209	C	0.333517	0.208819	0.180286
C210	C	0.666851	0.542152	0.513619
C211	C	0.000186	-0.052066	-0.151984
C212	C	0.333520	0.281267	0.181350
C213	C	0.666853	0.614600	0.514683
C214	C	0.000177	-0.069026	-0.025374
C215	C	0.333511	0.264307	0.307960
C216	C	0.666844	0.597640	0.641293
C217	C	0.000170	-0.141473	-0.026439
C218	C	0.333503	0.191860	0.306894
C219	C	0.666837	0.525194	0.640228
C220	C	0.000176	-0.169212	-0.090277
C221	C	0.333509	0.164121	0.243056
C222	C	0.666842	0.497454	0.576389
C223	C	0.000160	-0.814745	-0.219497
C224	C	0.333494	-0.481412	0.113836
C225	C	0.666827	-0.148078	0.447170
C226	C	0.000168	-0.815874	-0.296601
C227	C	0.333502	-0.482541	0.036733
C228	C	0.666835	-0.149207	0.370066
C229	C	0.000142	-0.887321	0.156316
C230	C	0.333475	-0.553987	0.489650
C231	C	0.666808	-0.220654	0.822983
C232	C	0.000150	-0.886260	0.228763
C233	C	0.333483	-0.552927	0.562097
C234	C	0.666816	-0.219593	0.895430
C235	C	0.000139	-0.822428	0.256511
C236	C	0.333473	-0.489094	0.589844
C237	C	0.666806	-0.155761	0.923178
C238	C	0.000134	-0.759652	0.211805
C239	C	0.333468	-0.426318	0.545138
C240	C	0.666801	-0.092985	0.878471
C241	C	0.000132	-0.760714	0.139359
C242	C	0.333465	-0.427381	0.472693
C243	C	0.666798	-0.094047	0.806026
C244	C	-0.028928	-0.772241	0.364793
C245	C	0.304406	-0.438908	0.698126
C246	C	0.637739	-0.105574	1.031459
C247	C	-0.028928	-0.771181	0.437237
C248	C	0.304405	-0.437848	0.770570
C249	C	0.637739	-0.104515	1.103904
C250	C	0.000150	-0.819148	0.479956
C251	C	0.333483	-0.485815	0.813290
C252	C	0.666817	-0.152481	1.146623
C253	C	0.029222	-0.868187	0.450224
C254	C	0.362555	-0.534853	0.783557
C255	C	0.695889	-0.201520	1.116891
C256	C	0.029219	-0.869249	0.377779
C257	C	0.362553	-0.535916	0.711112
C258	C	0.695886	-0.202582	1.044445
C259	C	0.000143	-0.821269	0.335065
C260	C	0.333476	-0.487935	0.668398
C261	C	0.666809	-0.154602	1.001732
C262	C	0.000167	-0.880770	0.603209
C263	C	0.333500	-0.547437	0.936542
C264	C	0.666834	-0.214104	1.269875
C265	C	0.000178	-0.879707	0.675657
C266	C	0.333511	-0.546374	1.008990
C267	C	0.666844	-0.213040	1.342323
C268	C	0.000157	-0.753097	0.658697
C269	C	0.333491	-0.419763	0.992030
C270	C	0.666824	-0.086430	1.325363
C271	C	0.000152	-0.754162	0.586250
C272	C	0.333485	-0.420829	0.919583
C273	C	0.666818	-0.087495	1.252917
C274	C	0.000154	-0.818001	0.558511
C275	C	0.333487	-0.484667	0.891844
C276	C	0.666821	-0.151334	1.225178
H277	H	-0.133922	-0.906155	-0.006604
H278	H	0.199412	-0.572821	0.326729
H279	H	0.532745	-0.239488	0.660062
Br280	Br	0.000200	0.008596	-0.237177
Br281	Br	0.333533	0.341929	0.096157
Br282	Br	0.666867	0.675263	0.429490
Br283	Br	-0.242899	-0.708514	-0.204131
Br284	Br	0.090435	-0.375181	0.129202
Br285	Br	0.423768	-0.041847	0.462536
Br286	Br	-0.242810	-0.931882	0.019130
Br287	Br	0.090523	-0.598548	0.352464
Br288	Br	0.423857	-0.265215	0.685797
H289	H	-0.468921	-0.686854	-0.225734
H290	H	-0.135588	-0.353521	0.107600
H291	H	0.197746	-0.020187	0.440933
Br292	Br	0.000159	-0.973958	0.118673
Br293	Br	0.333492	-0.640625	0.452006
Br294	Br	0.666826	-0.307291	0.785340
Br295	Br	0.068688	-0.933290	0.508191
Br296	Br	0.402021	-0.599957	0.841525
Br297	Br	0.735354	-0.266623	1.174858
H298	H	-0.052581	-0.374101	-0.181450
H299	H	0.280752	-0.040768	0.151884
H300	H	0.614085	0.292566	0.485217
Br301	Br	-0.756809	-0.931929	0.019154
Br302	Br	-0.423476	-0.598596	0.352488
Br303	Br	-0.090142	-0.265263	0.685821
H304	H	-0.052566	-0.242669	-0.179519
H305	H	0.280767	0.090664	0.153814
H306	H	0.614101	0.423997	0.487147
H307	H	-0.052597	-0.731248	0.461439
H308	H	0.280736	-0.397915	0.794772
H309	H	0.614069	-0.064582	1.128105
H310	H	0.052896	-0.266332	-0.003534
H311	H	0.386229	0.067001	0.329799
H312	H	0.719563	0.400335	0.663133
Br313	Br	0.000188	-0.162165	-0.239683
Br314	Br	0.333522	0.171168	0.093651
Br315	Br	0.666855	0.504502	0.426984
H316	H	0.000210	-0.046435	0.026600
H317	H	0.333543	0.286898	0.359933
H318	H	0.666876	0.620231	0.693266
H319	H	0.000162	-0.177866	0.024674
H320	H	0.333495	0.155467	0.358007
H321	H	0.666828	0.488801	0.691340
H322	H	-0.133977	-0.734231	-0.178424
H323	H	0.199356	-0.400897	0.154909
H324	H	0.532690	-0.067564	0.488243
Br325	Br	-0.359932	-0.979269	0.066485
Br326	Br	-0.026599	-0.645936	0.399819
Br327	Br	0.306735	-0.312603	0.733152
Br328	Br	0.000149	-0.666466	0.696346
Br329	Br	0.333482	-0.333132	1.029679
Br330	Br	0.666815	0.000201	1.363012
H331	H	0.052880	-0.397756	-0.005459
H332	H	0.386213	-0.064423	0.327874
H333	H	0.719546	0.268911	0.661207
Br334	Br	0.000162	-0.971451	0.289435
Br335	Br	0.333496	-0.638117	0.622768
Br336	Br	0.666829	-0.304784	0.956101
Br337	Br	-0.639667	-0.979279	0.066502
Br338	Br	-0.306333	-0.645945	0.399835
Br339	Br	0.027000	-0.312612	0.733169
Br340	Br	-0.068395	-0.707137	0.306823
Br341	Br	0.264939	-0.373804	0.640156
Br342	Br	0.598272	-0.040471	0.973490
H343	H	-0.374194	-0.686845	-0.225733
H344	H	-0.040861	-0.353511	0.107601
H345	H	0.292472	-0.020178	0.440934
H346	H	0.000128	-0.493322	0.020044
H347	H	0.333461	-0.159988	0.353377
H348	H	0.666795	0.173345	0.686711
Br349	Br	0.000090	-0.649028	0.052201
Br350	Br	0.333423	-0.315694	0.385534
Br351	Br	0.666756	0.017639	0.718867
Br352	Br	-0.516692	-0.661149	-0.251439
Br353	Br	-0.183358	-0.327815	0.081894
Br354	Br	0.149975	0.005518	0.415228
H355	H	-0.530763	-0.953555	0.040793
H356	H	-0.197429	-0.620222	0.374126
H357	H	0.135904	-0.286888	0.707459
Br358	Br	-0.482999	-0.979277	0.066498
Br359	Br	-0.149665	-0.645944	0.399831
Br360	Br	0.183668	-0.312610	0.733165
H361	H	-0.865730	-0.906205	-0.006549
H362	H	-0.532397	-0.572871	0.326784
H363	H	-0.199063	-0.239538	0.660118
H364	H	0.000125	-0.709599	0.102967
H365	H	0.333458	-0.376266	0.436300
H366	H	0.666792	-0.042933	0.769633
H367	H	0.000134	-0.593987	-0.211580
H368	H	0.333467	-0.260654	0.121753
H369	H	0.666800	0.072680	0.455087
Br370	Br	-0.639761	-0.661157	-0.251431
Br371	Br	-0.306427	-0.327823	0.081902
Br372	Br	0.026906	0.005510	0.415235
H373	H	0.052892	-0.909176	0.353574
H374	H	0.386225	-0.575843	0.686907
H375	H	0.719558	-0.242510	1.020240
Br376	Br	-0.879960	-0.708569	-0.204087
Br377	Br	-0.546627	-0.375235	0.129246
Br378	Br	-0.213293	-0.041902	0.462579
H379	H	0.000143	-0.462561	-0.209652
H380	H	0.333476	-0.129228	0.123682
H381	H	0.666810	0.204106	0.457015
Br382	Br	0.000165	-0.967406	0.565558
Br383	Br	0.333498	-0.634072	0.898891
Br384	Br	0.666832	-0.300739	1.232225
Br385	Br	0.000140	-0.668972	0.525587
Br386	Br	0.333474	-0.335639	0.858920
Br387	Br	0.666807	-0.002305	1.192253
H388	H	-0.771053	-0.734270	-0.178375
H389	H	-0.437719	-0.400936	0.154958
H390	H	-0.104386	-0.067603	0.488292
Br391	Br	0.000127	-0.673021	0.249460
Br392	Br	0.333460	-0.339688	0.582793
Br393	Br	0.666793	-0.006355	0.916127
H394	H	0.000187	-0.930822	0.712049
H395	H	0.333520	-0.597489	1.045382
H396	H	0.666854	-0.264156	1.378715
