data_functionalizedCrystal
_audit_creation_method	'MofGen! by Chris Wilmer'
_symmetry_space_group_name_H-M	'P1'
_symmetry_Int_Tables_number	1
_symmetry_cell_setting	triclinic
loop_
_symmetry_equiv_pos_as_xyz
  x,y,z
_cell_length_a	8.597366
_cell_length_b	12.376897
_cell_length_c	8.559649
_cell_angle_alpha	76.048220
_cell_angle_beta	77.624600
_cell_angle_gamma	69.986046
loop_
_atom_site_label
_atom_site_type_symbol
_atom_site_fract_x
_atom_site_fract_y
_atom_site_fract_z
O1	O	2.080869	-0.108669	0.270067
O2	O	1.610287	-0.062836	0.274817
O3	O	1.887037	-0.089791	0.041662
O4	O	1.804119	-0.081715	0.503221
O5	O	1.935180	-0.282479	0.098476
O6	O	1.658431	-0.255524	0.331630
O7	O	2.129013	-0.301357	0.326880
Zn8	Zn	1.901366	-0.309034	0.338276
Zn9	Zn	1.837934	-0.055160	0.263421
O10	O	1.852263	-0.274402	0.560035
C11	C	1.574672	-0.153367	0.299549
C12	C	1.396825	-0.136045	0.288579
N13	N	1.944668	-0.482297	0.389361
C14	C	1.694071	-0.812946	0.093722
C15	C	1.663738	-0.691661	0.057963
C16	C	1.733967	-0.639314	0.140810
C17	C	1.834535	-0.708264	0.259422
C18	C	1.864882	-0.829563	0.295176
C19	C	1.904779	-0.655930	0.342263
C20	C	2.005347	-0.724881	0.460875
C21	C	2.035687	-0.846167	0.496625
C22	C	1.965457	-0.898514	0.413778
C23	C	1.874432	-0.534632	0.306509
C24	C	2.045243	-0.551248	0.507963
C25	C	2.075576	-0.672534	0.543722
C26	C	2.164627	-0.210824	0.302148
C27	C	2.342472	-0.228138	0.313115
C28	C	1.917392	-0.186745	0.010815
C29	C	1.936094	-0.188559	-0.165746
N30	N	1.794646	0.118102	0.212324
C31	C	1.821907	-0.177446	0.590882
C32	C	1.803203	-0.175624	0.767440
H33	H	1.307303	-0.043941	0.259168
C34	C	1.630157	-0.158761	0.872619
C35	C	1.552345	-0.053549	0.960622
C36	C	1.379296	-0.036685	1.065813
C37	C	1.284060	-0.125034	1.083002
C38	C	1.361872	-0.230254	0.994996
C39	C	1.534921	-0.247117	0.889805
H40	H	1.622845	0.011859	0.947900
H41	H	1.321695	0.041205	1.130960
H42	H	1.155959	-0.112551	1.160871
H43	H	1.291372	-0.295662	1.007718
H44	H	1.592521	-0.325008	0.824658
H45	H	2.064191	-0.201047	0.756382
H46	H	1.792548	-0.478503	0.209936
C47	C	1.700590	-0.505897	0.101488
C48	C	1.753683	-0.445965	-0.071881
C49	C	1.720292	-0.312542	-0.111202
C50	C	1.633807	-0.239051	0.022846
C51	C	1.580709	-0.298983	0.196227
C52	C	1.614101	-0.432406	0.235547
H53	H	1.817708	-0.500368	-0.171122
H54	H	1.759599	-0.268177	-0.239551
H55	H	1.609089	-0.140283	-0.006262
H56	H	1.516684	-0.244580	0.295467
H57	H	1.574794	-0.476771	0.363896
H58	H	1.432007	-0.320248	0.342517
C59	C	1.553102	-0.615817	-0.072486
C60	C	1.475835	-0.673387	-0.163606
C61	C	1.365184	-0.597541	-0.294055
C62	C	1.331800	-0.464124	-0.333385
C63	C	1.409069	-0.406547	-0.242263
C64	C	1.519720	-0.482393	-0.111814
H65	H	1.500546	-0.772157	-0.134493
H66	H	1.307985	-0.640164	-0.361509
H67	H	1.249890	-0.407978	-0.429952
H68	H	1.384358	-0.307777	-0.271376
H69	H	1.576919	-0.439770	-0.044360
H70	H	1.636913	-0.855580	0.026271
H71	H	1.990141	-0.997273	0.442895
C72	C	2.122503	-0.493681	0.599107
C73	C	2.089122	-0.360264	0.559787
C74	C	2.166380	-0.302688	0.650918
C75	C	2.277018	-0.378528	0.781370
C76	C	2.310404	-0.511952	0.820696
C77	C	2.233147	-0.569529	0.729565
H78	H	2.007216	-0.304116	0.463213
H79	H	2.141665	-0.203918	0.621805
H80	H	2.334209	-0.335907	0.848830
H81	H	2.392310	-0.568101	0.917270
H82	H	2.257862	-0.668298	0.758678
C83	C	2.146330	-0.922007	0.627084
C84	C	2.329363	-0.923520	0.606941
C85	C	2.440011	-0.999353	0.737399
C86	C	2.367626	-1.073675	0.888000
C87	C	2.184584	-1.072165	0.908151
C88	C	2.073936	-0.996331	0.777693
H89	H	2.382955	-0.868500	0.495450
H90	H	2.575511	-1.000471	0.722481
H91	H	2.449534	-1.129811	0.984573
H92	H	2.130992	-1.127185	1.019641
H93	H	1.938436	-0.995214	0.792610
C94	C	2.186206	-0.748391	0.674185
C95	C	2.369249	-0.749932	0.654064
C96	C	2.479876	-0.825791	0.784527
C97	C	2.407461	-0.900109	0.935111
C98	C	2.224408	-0.898571	0.955238
C99	C	2.113781	-0.822712	0.824776
H100	H	2.422864	-0.694914	0.542588
H101	H	2.615384	-0.826929	0.769626
H102	H	2.489354	-0.956265	1.031687
H103	H	2.170793	-0.953589	1.066715
H104	H	1.978273	-0.821574	0.839676
