data_functionalizedCrystal
_audit_creation_method	'MofGen! by Chris Wilmer'
_symmetry_space_group_name_H-M	'P1'
_symmetry_Int_Tables_number	1
_symmetry_cell_setting	triclinic
loop_
_symmetry_equiv_pos_as_xyz
  x,y,z
_cell_length_a	16.625547
_cell_length_b	12.759394
_cell_length_c	12.759387
_cell_angle_alpha	89.967183
_cell_angle_beta	89.974562
_cell_angle_gamma	90.014774
loop_
_atom_site_label
_atom_site_type_symbol
_atom_site_fract_x
_atom_site_fract_y
_atom_site_fract_z
Zn1	Zn	1.232728	-0.418201	-0.594184
Zn2	Zn	1.232648	-0.593921	-0.418502
Zn3	Zn	1.097889	-0.418257	-0.418501
Zn4	Zn	1.097878	-0.593838	-0.594121
O5	O	1.165286	-0.506054	-0.506327
O6	O	1.345550	-0.441522	-0.570907
O7	O	1.214742	-0.570677	-0.271481
O8	O	1.115813	-0.271228	-0.441832
O9	O	1.345491	-0.570623	-0.441834
O10	O	1.214879	-0.271187	-0.570906
O11	O	1.115735	-0.441617	-0.271480
O12	O	0.985055	-0.441537	-0.441770
O13	O	1.115796	-0.570481	-0.741151
O14	O	0.985047	-0.570536	-0.570798
O15	O	1.214869	-0.441441	-0.741197
O16	O	1.214733	-0.740931	-0.441772
O17	O	1.115718	-0.740870	-0.570799
C18	C	1.165237	-0.779022	-0.506302
C19	C	1.165290	-0.895798	-0.506326
C20	C	0.955795	-0.506034	-0.506278
C21	C	0.866174	-0.506050	-0.506281
C22	C	1.268472	-0.895809	-0.372072
C23	C	1.320083	-0.950675	-0.304957
C24	C	1.320131	-1.060396	-0.304985
C25	C	1.268562	-1.115254	-0.372138
C26	C	1.216951	-1.060388	-0.439253
C27	C	1.216907	-0.950664	-0.439215
C28	C	1.113775	-1.060378	-0.573511
C29	C	1.113722	-0.950657	-0.573479
C30	C	1.062206	-1.115236	-0.640664
C31	C	1.010590	-1.060370	-0.707775
C32	C	1.010544	-0.950642	-0.707743
C33	C	1.062111	-0.895791	-0.640594
C34	C	0.793391	-0.506052	-0.506294
C35	C	0.702083	-0.506058	-0.506321
C36	C	0.629306	-0.506068	-0.506347
C37	C	0.537992	-0.506075	-0.506372
C38	C	1.375595	-0.506075	-0.506378
C39	C	1.465216	-0.506085	-0.506399
C40	C	1.165340	-0.505946	-0.780361
C41	C	1.165364	-0.505900	-0.897138
C42	C	1.165356	-0.232021	-0.506376
C43	C	1.165386	-0.115244	-0.506396
C44	C	1.062274	-0.371500	-0.897156
C45	C	1.010744	-0.304280	-0.952025
C46	C	1.010769	-0.304242	-1.061747
C47	C	1.062327	-0.371434	-1.116601
C48	C	1.113856	-0.438654	-1.061732
C49	C	1.113828	-0.438683	-0.952007
C50	C	1.216941	-0.573057	-1.061714
C51	C	1.216922	-0.573092	-0.951992
C52	C	1.268498	-0.640249	-1.116568
C53	C	1.320034	-0.707466	-1.061698
C54	C	1.320008	-0.707500	-0.951970
C55	C	1.268452	-0.640312	-0.897122
C56	C	1.165278	-0.506087	-0.233360
C57	C	1.165411	-0.505837	-0.116584
H58	H	1.362071	-0.906000	-0.250283
H59	H	1.268428	-0.806468	-0.372028
H60	H	1.362161	-1.105068	-0.250340
O61	O	1.062125	-0.371625	-0.790573
C62	C	0.984825	-0.398567	-0.753887
H63	H	0.951487	-0.444342	-0.817096
H64	H	0.990565	-0.448967	-0.680469
H65	H	0.949918	-0.324181	-0.734431
O66	O	0.960627	-0.239096	-1.115100
C67	C	0.908562	-0.298882	-1.178565
H68	H	0.903545	-0.381636	-1.145474
H69	H	0.846523	-0.260869	-1.179817
H70	H	0.933516	-0.302484	-1.261722
O71	O	0.960483	-0.897186	-0.772907
C72	C	0.971478	-0.788578	-0.758464
H73	H	1.033708	-0.773551	-0.724121
H74	H	0.965965	-0.746817	-0.837143
H75	H	0.923655	-0.757543	-0.702453
H76	H	1.062073	-0.806450	-0.640554
O77	O	1.268689	-1.221837	-0.372008
C78	C	1.325320	-1.258500	-0.298398
H79	H	1.336606	-1.195313	-0.237006
H80	H	1.301039	-1.331969	-0.258527
H81	H	1.384107	-1.277863	-0.340136
H82	H	1.062252	-1.204577	-0.640687
O83	O	1.370105	-0.772656	-0.898559
C84	C	1.422207	-0.712878	-0.835138
H85	H	1.393797	-0.633256	-0.818710
H86	H	1.432983	-0.755703	-0.757975
H87	H	1.481972	-0.701338	-0.877444
O88	O	0.960548	-0.239126	-0.898784
C89	C	0.880186	-0.262044	-0.925595
H90	H	0.876095	-0.345964	-0.955737
H91	H	0.840337	-0.253010	-0.853431
H92	H	0.859142	-0.205690	-0.989292
H93	H	0.968611	-1.105045	-0.762451
H94	H	1.062334	-0.371406	-1.205943
O95	O	1.268594	-0.640041	-1.223151
C96	C	1.289326	-0.539333	-1.259830
H97	H	1.324477	-0.495934	-1.196612
H98	H	1.328004	-0.546836	-1.333239
H99	H	1.232262	-0.493794	-1.279298
H100	H	1.362005	-0.762172	-1.106369
H101	H	1.268428	-0.640330	-0.807781
