data_functionalizedCrystal
_audit_creation_method	'MofGen! by Chris Wilmer'
_symmetry_space_group_name_H-M	'P1'
_symmetry_Int_Tables_number	1
_symmetry_cell_setting	triclinic
loop_
_symmetry_equiv_pos_as_xyz
  x,y,z
_cell_length_a	16.109296
_cell_length_b	15.186229
_cell_length_c	16.109301
_cell_angle_alpha	90.005167
_cell_angle_beta	83.460385
_cell_angle_gamma	90.001331
loop_
_atom_site_label
_atom_site_type_symbol
_atom_site_fract_x
_atom_site_fract_y
_atom_site_fract_z
O1	O	-1.103133	-0.073190	-0.106845
O2	O	-0.769800	0.260143	0.226489
O3	O	-0.436467	0.593477	0.559822
O4	O	-0.861071	-0.073201	-0.120149
O5	O	-0.527737	0.260132	0.213185
O6	O	-0.194404	0.593466	0.546518
O7	O	-0.988752	-0.073186	0.007534
O8	O	-0.655418	0.260147	0.340868
O9	O	-0.322085	0.593480	0.674201
O10	O	-0.975452	-0.073205	-0.234528
O11	O	-0.642119	0.260129	0.098805
O12	O	-0.308786	0.593462	0.432139
O13	O	-0.988743	0.073271	0.007536
O14	O	-0.655410	0.406604	0.340869
O15	O	-0.322077	0.739938	0.674203
O16	O	-0.861062	0.073256	-0.120147
O17	O	-0.527729	0.406589	0.213186
O18	O	-0.194396	0.739923	0.546520
O19	O	-1.103125	0.073267	-0.106843
O20	O	-0.769792	0.406601	0.226490
O21	O	-0.436458	0.739934	0.559824
Zn22	Zn	-0.982092	0.096515	-0.113495
Zn23	Zn	-0.648759	0.429848	0.219839
Zn24	Zn	-0.315426	0.763182	0.553172
Zn25	Zn	-0.982103	-0.096449	-0.113497
Zn26	Zn	-0.648770	0.236885	0.219836
Zn27	Zn	-0.315437	0.570218	0.553170
O28	O	-0.975444	0.073253	-0.234526
O29	O	-0.642111	0.406586	0.098807
O30	O	-0.308777	0.739919	0.432141
C31	C	-0.830092	0.000026	-0.119610
C32	C	-0.496758	0.333360	0.213724
C33	C	-0.163425	0.666693	0.547057
C34	C	-0.737796	0.000022	-0.117996
C35	C	-0.404463	0.333356	0.215337
C36	C	-0.071129	0.666689	0.548670
C37	C	-0.428797	0.000034	-0.188486
C38	C	-0.095464	0.333367	0.144848
C39	C	0.237870	0.666701	0.478181
C40	C	-0.515517	0.000028	-0.190009
C41	C	-0.182184	0.333362	0.143324
C42	C	0.151149	0.666695	0.476657
C43	C	-0.535391	0.000028	-0.038520
C44	C	-0.202057	0.333361	0.294813
C45	C	0.131276	0.666695	0.628146
C46	C	-0.448672	0.000028	-0.036998
C47	C	-0.115338	0.333361	0.296336
C48	C	0.217995	0.666694	0.629669
C49	C	-0.395377	0.000035	-0.111983
C50	C	-0.062043	0.333368	0.221351
C51	C	0.271290	0.666702	0.554684
C52	C	-0.568816	0.000030	-0.115029
C53	C	-0.235483	0.333363	0.218304
C54	C	0.097850	0.666696	0.551637
C55	C	-0.662843	0.000024	-0.116681
C56	C	-0.329509	0.333357	0.216653
C57	C	0.003824	0.666690	0.549986
C58	C	-0.301345	0.000040	-0.110332
C59	C	0.031989	0.333373	0.223002
C60	C	0.365322	0.666706	0.556335
N61	N	-0.982091	0.228208	-0.113493
N62	N	-0.648757	0.561541	0.219841
N63	N	-0.315424	0.894874	0.553174
C64	C	-0.988209	0.000043	0.038510
C65	C	-0.654876	0.333376	0.371843
C66	C	-0.321542	0.666709	0.705177
C67	C	-0.986594	0.000044	0.130805
C68	C	-0.653260	0.333377	0.464139
C69	C	-0.319927	0.666711	0.797472
C70	C	-0.134103	0.000040	-0.107387
C71	C	0.199230	0.333373	0.225946
C72	C	0.532563	0.666706	0.559280
C73	C	-0.226397	0.000043	-0.109016
C74	C	0.106936	0.333376	0.224318
C75	C	0.440270	0.666709	0.557651
N76	N	-0.982112	-0.228141	-0.113493
N77	N	-0.648778	0.105192	0.219841
N78	N	-0.315445	0.438525	0.553174
C79	C	-1.038647	0.453937	-0.056974
C80	C	-0.705314	0.787270	0.276360
C81	C	-0.371980	1.120604	0.609693
C82	C	-1.038650	0.546127	-0.056972
C83	C	-0.705316	0.879460	0.276362
C84	C	-0.371983	1.212793	0.609695
C85	C	-0.925549	0.546123	-0.170014
C86	C	-0.592216	0.879456	0.163319
C87	C	-0.258883	1.212789	0.496652
C88	C	-0.925543	0.453935	-0.170012
C89	C	-0.592210	0.787268	0.163322
C90	C	-0.258877	1.120601	0.496655
C91	C	-0.982097	0.407844	-0.113492
C92	C	-0.648764	0.741178	0.219841
C93	C	-0.315430	1.074511	0.553174
C94	C	-0.982105	0.592222	-0.113493
C95	C	-0.648772	0.925555	0.219840
C96	C	-0.315439	1.258889	0.553174
C97	C	-0.982108	0.692178	-0.113491
C98	C	-0.648775	1.025511	0.219842
C99	C	-0.315441	1.358845	0.553175
C100	C	-0.982094	0.307882	-0.113493
C101	C	-0.648760	0.641215	0.219841
C102	C	-0.315427	0.974549	0.553174
C103	C	-0.975987	0.000022	-0.265502
C104	C	-0.642654	0.333355	0.067831
C105	C	-0.309320	0.666688	0.401165
C106	C	-0.977602	0.000015	-0.357797
C107	C	-0.644269	0.333348	-0.024464
C108	C	-0.310935	0.666681	0.308869
C109	C	-1.058602	0.000033	0.353079
C110	C	-0.725268	0.333367	0.686412
C111	C	-0.391935	0.666700	1.019746
C112	C	-1.057078	0.000026	0.439800
C113	C	-0.723744	0.333359	0.773133
C114	C	-0.390411	0.666693	1.106466
C115	C	-0.905588	0.000023	0.419922
C116	C	-0.572255	0.333356	0.753256
C117	C	-0.238922	0.666689	1.086589
C118	C	-0.907113	0.000024	0.333204
C119	C	-0.573780	0.333357	0.666537
C120	C	-0.240447	0.666690	0.999870
C121	C	-0.983622	0.000033	0.299785
C122	C	-0.650289	0.333367	0.633118
C123	C	-0.316956	0.666700	0.966451
C124	C	-0.980573	0.000025	0.473224
C125	C	-0.647240	0.333358	0.806557
C126	C	-0.313907	0.666692	1.139890
C127	C	-0.978920	0.000017	0.567250
C128	C	-0.645587	0.333351	0.900583
C129	C	-0.312254	0.666684	1.233916
C130	C	-0.985276	0.000040	0.205753
C131	C	-0.651942	0.333373	0.539086
C132	C	-0.318609	0.666706	0.872419
H133	H	-0.421462	0.000025	0.025304
H134	H	-0.088128	0.333359	0.358637
H135	H	0.245205	0.666692	0.691971
H136	H	-0.542723	0.000027	-0.252306
H137	H	-0.209390	0.333360	0.081028
H138	H	0.123943	0.666693	0.414361
H139	H	-0.843297	0.000016	0.447143
H140	H	-0.509964	0.333350	0.780476
H141	H	-0.176631	0.666683	1.113810
H142	H	-0.879506	0.583659	-0.216032
H143	H	-0.546172	0.916992	0.117301
H144	H	-0.212839	1.250325	0.450634
F145	F	-0.865349	0.404875	-0.230166
F146	F	-0.532015	0.738209	0.103167
F147	F	-0.198682	1.071542	0.436500
H148	H	-0.846052	0.000021	0.289808
H149	H	-0.512719	0.333354	0.623142
H150	H	-0.179386	0.666688	0.956475
H151	H	-1.120900	0.000040	0.325873
H152	H	-0.787567	0.333373	0.659206
H153	H	-0.454233	0.666706	0.992539
F154	F	-1.136881	0.000024	0.496516
F155	F	-0.803548	0.333358	0.829850
F156	F	-0.470214	0.666691	1.163183
H157	H	-0.385406	0.000040	-0.249544
H158	H	-0.052073	0.333373	0.083790
H159	H	0.281261	0.666706	0.417123
H160	H	-0.578794	0.000024	0.022530
H161	H	-0.245460	0.333357	0.355863
H162	H	0.087873	0.666691	0.689197
F163	F	-1.098834	0.404888	0.003182
F164	F	-0.765501	0.738221	0.336515
F165	F	-0.432168	1.071555	0.669848
H166	H	-1.084697	0.583653	-0.010948
H167	H	-0.751363	0.916986	0.322385
H168	H	-0.418030	1.250320	0.655719
