data_functionalizedCrystal
_audit_creation_method	'MofGen! by Chris Wilmer'
_symmetry_space_group_name_H-M	'P1'
_symmetry_Int_Tables_number	1
_symmetry_cell_setting	triclinic
loop_
_symmetry_equiv_pos_as_xyz
  x,y,z
_cell_length_a	12.759401
_cell_length_b	15.297327
_cell_length_c	12.759393
_cell_angle_alpha	99.642973
_cell_angle_beta	89.979062
_cell_angle_gamma	99.708126
loop_
_atom_site_label
_atom_site_type_symbol
_atom_site_fract_x
_atom_site_fract_y
_atom_site_fract_z
Zn1	Zn	1.533815	-0.359082	-0.666329
Zn2	Zn	1.503263	-0.509967	-0.521034
Zn3	Zn	1.358104	-0.359130	-0.490674
Zn4	Zn	1.327675	-0.509904	-0.696658
O5	O	1.430714	-0.434521	-0.593674
O6	O	1.676782	-0.379103	-0.647069
O7	O	1.483956	-0.490005	-0.369995
O8	O	1.406934	-0.232878	-0.488577
O9	O	1.654335	-0.489958	-0.540320
O10	O	1.536028	-0.232842	-0.617630
O11	O	1.377308	-0.379185	-0.347690
O12	O	1.207048	-0.379124	-0.517986
O13	O	1.355072	-0.489851	-0.839647
O14	O	1.184692	-0.489898	-0.669321
O15	O	1.506522	-0.379042	-0.817364
O16	O	1.454449	-0.636205	-0.569729
O17	O	1.325446	-0.636159	-0.698760
C18	C	1.157749	-0.434510	-0.593651
C19	C	1.040969	-0.434527	-0.593670
C20	C	1.383359	-0.668916	-0.640853
C21	C	1.363196	-0.769191	-0.661071
C22	C	0.974476	-0.492294	-0.672383
C23	C	0.864751	-0.492298	-0.672404
C24	C	0.888023	-0.376764	-0.514991
C25	C	0.997747	-0.376756	-0.514975
C26	C	1.575254	-1.051821	-0.449528
C27	C	1.594198	-0.957608	-0.430526
C28	C	1.536449	-0.910499	-0.488161
C29	C	1.459753	-0.957613	-0.564800
C30	C	1.440802	-1.051836	-0.583798
C31	C	1.401997	-0.910513	-0.622431
C32	C	1.325301	-0.957627	-0.699071
C33	C	1.306354	-1.051841	-0.718065
C34	C	1.364103	-1.098950	-0.660430
C35	C	1.420948	-0.816291	-0.603434
C36	C	1.286496	-0.816305	-0.737704
C37	C	1.267553	-0.910519	-0.756705
C38	C	1.704745	-0.434533	-0.593698
C39	C	1.821521	-0.434538	-0.593708
C40	C	1.430810	-0.434434	-0.867690
C41	C	1.430851	-0.434397	-0.984459
C42	C	1.478284	-0.199211	-0.546334
C43	C	1.498555	-0.098935	-0.526160
C44	C	1.509719	-0.376690	-1.027719
C45	C	1.509744	-0.376651	-1.137435
C46	C	1.352031	-0.492035	-1.160625
C47	C	1.352002	-0.492068	-1.050909
C48	C	1.430692	-0.434542	-0.320711
C49	C	1.430906	-0.434325	-0.203891
H50	H	0.810617	-0.539337	-0.736501
H51	H	0.852817	-0.329730	-0.450919
O52	O	1.016493	-0.548499	-0.748699
C53	C	1.068196	-0.606691	-0.700483
H54	H	1.033981	-0.612184	-0.618835
H55	H	1.156987	-0.578789	-0.691291
C56	C	1.092971	-0.693779	-0.870805
C57	C	1.050942	-0.700532	-0.770528
H58	H	1.082333	-0.751664	-0.914013
H59	H	1.058142	-0.654573	-0.903291
H60	H	1.166961	-0.670524	-0.863131
H61	H	0.976952	-0.723776	-0.778202
H62	H	1.085759	-0.739745	-0.738045
O63	O	1.631239	-1.097528	-0.393372
C64	C	1.612950	-1.074552	-0.284019
H65	H	1.534214	-1.048718	-0.273454
H66	H	1.680289	-1.019832	-0.245577
C67	C	1.705071	-1.190000	-0.243743
C68	C	1.608362	-1.158277	-0.230767
H69	H	1.702245	-1.241644	-0.210893
H70	H	1.717397	-1.205478	-0.317415
H71	H	1.761177	-1.144392	-0.211708
H72	H	1.552260	-1.203880	-0.262813
H73	H	1.596026	-1.142809	-0.157098
H74	H	1.656642	-0.919251	-0.368126
H75	H	1.051889	-0.329710	-0.450877
H76	H	1.573964	-0.329659	-1.172650
H77	H	1.287837	-0.538990	-1.214741
O78	O	1.495377	-0.770629	-0.528869
C79	C	1.467804	-0.793721	-0.428793
H80	H	1.413650	-0.862158	-0.440382
H81	H	1.424461	-0.740755	-0.382680
C82	C	1.635901	-0.713991	-0.351879
C83	C	1.569395	-0.798050	-0.366113
H84	H	1.698565	-0.716658	-0.313211
H85	H	1.654476	-0.698430	-0.419301
H86	H	1.599769	-0.669861	-0.313454
H87	H	1.605522	-0.842176	-0.404548
H88	H	1.550828	-0.813619	-0.298696
O89	O	1.554851	-0.818981	-0.469902
C90	C	1.588160	-0.787418	-0.564246
H91	H	1.559272	-0.841689	-0.635689
H92	H	1.678708	-0.770633	-0.563158
C93	C	1.576733	-0.635648	-0.484514
C94	C	1.541244	-0.702302	-0.572263
H95	H	1.547798	-0.583142	-0.489458
H96	H	1.554296	-0.656911	-0.420951
H97	H	1.652189	-0.621672	-0.483617
H98	H	1.465792	-0.716285	-0.573151
H99	H	1.563668	-0.681039	-0.635826
H100	H	1.287772	-0.539060	-1.015688
O101	O	1.345801	-1.190471	-0.679060
C102	C	1.366396	-1.221856	-0.786113
H103	H	1.423097	-1.167490	-0.818624
H104	H	1.288624	-1.238608	-0.834940
C105	C	1.347715	-1.373722	-0.753250
C106	C	1.417363	-1.306951	-0.793177
H107	H	1.379149	-1.426215	-0.757609
H108	H	1.333836	-1.352579	-0.681126
H109	H	1.282910	-1.387671	-0.793943
H110	H	1.482161	-1.292995	-0.752475
H111	H	1.431255	-1.328094	-0.865294
H112	H	1.243891	-1.090199	-0.780458
H113	H	1.205106	-0.948892	-0.819105
H114	H	1.239470	-0.777950	-0.784633
H115	H	1.573921	-0.329728	-0.973617
