data_functionalizedCrystal
_audit_creation_method	'MofGen! by Chris Wilmer'
_symmetry_space_group_name_H-M	'P1'
_symmetry_Int_Tables_number	1
_symmetry_cell_setting	triclinic
loop_
_symmetry_equiv_pos_as_xyz
  x,y,z
_cell_length_a	13.032423
_cell_length_b	12.759395
_cell_length_c	13.032268
_cell_angle_alpha	97.162456
_cell_angle_beta	89.069225
_cell_angle_gamma	97.201953
loop_
_atom_site_label
_atom_site_type_symbol
_atom_site_fract_x
_atom_site_fract_y
_atom_site_fract_z
Zn1	Zn	0.483338	-1.476819	0.529445
Zn2	Zn	0.983338	-0.976819	1.029445
Zn3	Zn	0.633524	-1.482274	0.335623
Zn4	Zn	1.133524	-0.982274	0.835623
Zn5	Zn	0.461542	-1.325876	0.357490
Zn6	Zn	0.961542	-0.825876	0.857490
Zn7	Zn	0.655286	-1.281924	0.507544
Zn8	Zn	1.155286	-0.781924	1.007544
O9	O	0.558422	-1.391723	0.432526
O10	O	1.058422	-0.891723	0.932526
O11	O	0.503275	-1.624560	0.503748
O12	O	1.003275	-1.124560	1.003748
O13	O	0.592481	-1.482205	0.194609
O14	O	1.092481	-0.982205	0.694609
O15	O	0.320497	-1.362010	0.398618
O16	O	0.820497	-0.862010	0.898618
O17	O	0.613616	-1.628568	0.361348
O18	O	1.113616	-1.128568	0.861348
O19	O	0.336511	-1.472907	0.524952
O20	O	0.836511	-0.972907	1.024952
O21	O	0.466127	-1.367300	0.210675
O22	O	0.966127	-0.867300	0.710675
O23	O	0.487228	-1.173028	0.377381
O24	O	0.987228	-0.673028	0.877381
O25	O	0.650706	-1.287099	0.654363
O26	O	1.150706	-0.787099	1.154363
O27	O	0.629571	-1.140737	0.487625
O28	O	1.129571	-0.640737	0.987625
O29	O	0.524376	-1.430288	0.670454
O30	O	1.024376	-0.930288	1.170454
O31	O	0.780347	-1.439586	0.340111
O32	O	1.280347	-0.939586	0.840111
O33	O	0.796335	-1.292389	0.466421
O34	O	1.296335	-0.792389	0.966421
C35	C	0.558396	-1.118762	0.432500
C36	C	1.058396	-0.618762	0.932500
C37	C	0.558413	-1.001982	0.432510
C38	C	1.058413	-0.501982	0.932510
C39	C	0.825665	-1.361836	0.398539
C40	C	1.325665	-0.861836	0.898539
C41	C	0.939997	-1.349141	0.384034
C42	C	1.439997	-0.849141	0.884034
C43	C	0.706843	-0.748972	0.547099
C44	C	1.206843	-0.248972	1.047099
C45	C	0.781038	-0.787055	0.604376
C46	C	1.281038	-0.287055	1.104376
C47	C	0.781026	-0.896779	0.604366
C48	C	1.281026	-0.396779	1.104366
C49	C	0.706814	-0.968425	0.547072
C50	C	1.206814	-0.468425	1.047072
C51	C	0.632619	-0.930341	0.489796
C52	C	1.132619	-0.430341	0.989796
C53	C	0.632637	-0.820613	0.489814
C54	C	1.132637	-0.320613	0.989814
C55	C	0.484218	-0.963899	0.375234
C56	C	0.984218	-0.463899	0.875234
C57	C	0.484223	-0.854175	0.375248
C58	C	0.984223	-0.354175	0.875248
C59	C	0.410006	-1.035544	0.317940
C60	C	0.910006	-0.535544	0.817940
C61	C	0.335804	-0.997461	0.260668
C62	C	0.835804	-0.497461	0.760668
C63	C	0.335818	-0.887730	0.260680
C64	C	0.835818	-0.387730	0.760680
C65	C	0.410028	-0.816092	0.317971
C66	C	0.910028	-0.316092	0.817971
C67	C	1.116990	-1.385173	0.425147
C68	C	1.616990	-0.885173	0.925147
C69	C	0.998822	-1.398302	0.440141
C70	C	1.498822	-0.898302	0.940141
C71	C	1.290140	-1.421697	0.466675
C72	C	1.790140	-0.921697	0.966675
C73	C	1.175817	-1.434328	0.481247
C74	C	1.675817	-0.934328	0.981247
C75	C	0.558443	-0.665751	0.432546
C76	C	1.058443	-0.165751	0.932546
C77	C	0.558436	-0.782530	0.432542
C78	C	1.058436	-0.282530	0.932542
C79	C	0.592400	-1.353182	0.700767
C80	C	1.092400	-0.853182	1.200767
C81	C	0.606879	-1.336758	0.815076
C82	C	1.106879	-0.836758	1.315076
C83	C	0.524503	-1.430183	0.165337
C84	C	1.024503	-0.930183	0.665337
C85	C	0.509735	-1.446843	0.051066
C86	C	1.009735	-0.946843	0.551066
C87	C	0.550829	-1.400283	0.874000
C88	C	1.050829	-0.900283	1.374000
C89	C	0.565792	-1.383309	0.992144
C90	C	1.065792	-0.883309	1.492144
H91	H	0.841462	-0.728710	0.651021
H92	H	1.341462	-0.228710	1.151021
N93	N	0.706796	-1.086771	0.547052
N94	N	1.206796	-0.586771	1.047052
H95	H	0.716645	-1.121219	0.474076
H96	H	1.216645	-0.621219	0.974076
H97	H	0.765058	-1.099940	0.592072
H98	H	1.265058	-0.599940	1.092072
H99	H	1.154109	-1.333366	0.366021
H100	H	1.654109	-0.833366	0.866021
H101	H	0.275400	-0.856731	0.214038
H102	H	0.775400	-0.356731	0.714038
N103	N	0.685115	-1.248074	0.864112
N104	N	1.185115	-0.748074	1.364112
H105	H	0.756267	-1.258819	0.836125
H106	H	1.256267	-0.758819	1.336125
H107	H	0.666699	-1.177496	0.847489
H108	H	1.166699	-0.677496	1.347489
H109	H	0.410043	-0.726746	0.317992
H110	H	0.910043	-0.226746	0.817992
N111	N	0.431497	-1.535542	1.002046
N112	N	0.931497	-1.035542	1.502046
H113	H	0.396150	-1.575603	1.057602
H114	H	0.896150	-1.075603	1.557602
H115	H	0.378286	-1.504466	0.963527
H116	H	0.878286	-1.004466	1.463527
H117	H	0.624854	-1.316347	1.029159
H118	H	1.124854	-0.816347	1.529159
N119	N	0.472611	-1.488993	0.824975
N120	N	0.972611	-0.988993	1.324975
H121	H	0.473021	-1.488554	0.747524
H122	H	0.973021	-0.988554	1.247524
H123	H	0.491014	-1.559547	0.841679
H124	H	0.991014	-1.059547	1.341679
H125	H	0.977110	-1.297327	0.324906
H126	H	1.477110	-0.797327	0.824906
H127	H	0.841444	-0.927785	0.651003
H128	H	1.341444	-0.427785	1.151003
H129	H	0.410006	-1.124887	0.317931
H130	H	0.910006	-0.624887	0.817931
H131	H	0.706851	-0.659626	0.547124
H132	H	1.206851	-0.159626	1.047124
N133	N	0.949674	-1.466917	0.518482
N134	N	1.449674	-0.966917	1.018482
H135	H	0.872227	-1.466567	0.518092
H136	H	1.372227	-0.966567	1.018092
H137	H	0.966329	-1.542197	0.500194
H138	H	1.466329	-1.042197	1.000194
H139	H	0.275391	-1.055802	0.214018
H140	H	0.775391	-0.555802	0.714018
H141	H	1.138700	-1.486126	0.540381
H142	H	1.638700	-0.986126	1.040381
