data_functionalizedCrystal
_audit_creation_method	'MofGen! by Chris Wilmer'
_symmetry_space_group_name_H-M	'P1'
_symmetry_Int_Tables_number	1
_symmetry_cell_setting	triclinic
loop_
_symmetry_equiv_pos_as_xyz
  x,y,z
_cell_length_a	10.540539
_cell_length_b	10.540539
_cell_length_c	10.065875
_cell_angle_alpha	98.880198
_cell_angle_beta	81.165690
_cell_angle_gamma	84.525492
loop_
_atom_site_label
_atom_site_type_symbol
_atom_site_fract_x
_atom_site_fract_y
_atom_site_fract_z
O1	O	1.704280	0.160421	-0.113422
O2	O	1.334870	0.177274	-0.113438
O3	O	1.528003	-0.015859	-0.113428
O4	O	1.511148	0.353553	-0.113432
O5	O	1.491176	0.021118	0.113559
O6	O	1.298044	0.214251	0.113549
O7	O	1.667454	0.197397	0.113565
Zn8	Zn	1.476902	0.211695	0.149596
Zn9	Zn	1.525422	0.162976	-0.149469
O10	O	1.474321	0.390530	0.113555
C11	C	1.269154	0.194498	0.000053
C12	C	1.128207	0.190715	0.000047
C13	C	0.944694	0.045884	0.000578
C14	C	1.091398	0.049632	0.000053
C15	C	1.087564	0.237495	-0.129569
C16	C	0.941034	0.232665	-0.129664
C17	C	0.898667	0.277585	0.128462
C18	C	1.045374	0.279161	0.130162
C19	C	1.508326	-0.044674	0.000063
C20	C	1.504545	-0.185623	0.000055
C21	C	1.359712	-0.369134	-0.000460
C22	C	1.363463	-0.222433	0.000051
C23	C	1.551411	-0.226165	0.129679
C24	C	1.546578	-0.372691	0.129788
C25	C	1.591326	-0.415259	-0.128338
C26	C	1.592903	-0.268557	-0.130052
C27	C	1.733170	0.180173	0.000071
C28	C	1.874119	0.183954	0.000068
C29	C	1.493999	0.419345	0.000061
C30	C	1.497781	0.560293	0.000059
N31	N	1.443797	0.244944	0.353700
N32	N	1.558537	0.129718	-0.353573
C33	C	1.513896	0.174536	0.421482
C34	C	1.488428	0.200135	0.578648
H35	H	1.148243	-0.019329	-0.093022
H36	H	0.894020	0.333171	-0.135548
H37	H	0.928543	0.166701	-0.226552
N38	N	1.468214	-0.148910	0.257443
H39	H	1.375289	-0.165582	0.258726
H40	H	1.499230	-0.175721	0.340234
H41	H	1.693371	-0.462627	-0.129206
N42	N	1.459292	-0.389152	0.258127
H43	H	1.424309	-0.301344	0.314097
H44	H	1.385087	-0.436348	0.232897
H45	H	0.851299	0.379631	0.129337
N46	N	1.339314	0.349887	0.430938
H47	H	1.335928	0.353296	0.532264
H48	H	1.359058	0.435986	0.406033
H49	H	1.110699	0.340317	-0.134393
H50	H	1.409549	0.279366	0.636965
H51	H	1.561604	-0.462817	-0.226584
H52	H	1.637407	0.050478	0.588110
H53	H	1.145802	0.174617	-0.226032
H54	H	0.929484	-0.024674	-0.091858
H55	H	0.851181	0.247932	0.226711
H56	H	1.647089	-0.419701	0.135673
N57	N	1.127908	-0.001101	0.123107
H58	H	1.164605	0.068260	0.181440
H59	H	1.048578	-0.026119	0.178089
H60	H	1.070779	0.245182	0.226051
H61	H	1.558782	-0.243319	-0.225944
H62	H	1.068330	0.383295	0.137986
N63	N	0.886864	-0.007888	0.123712
H64	H	0.814349	0.056723	0.180361
H65	H	0.851862	-0.091347	0.092687
N66	N	1.618361	0.069587	0.344217
H67	H	1.704667	0.088823	0.368982
H68	H	1.598561	-0.016527	0.369038
H69	H	1.325114	-0.194966	-0.092869
N70	N	1.730840	-0.238174	-0.140425
H71	H	1.738042	-0.169917	-0.060572
H72	H	1.789797	-0.319227	-0.139309
N73	N	1.305850	-0.427071	-0.123582
H74	H	1.370420	-0.499632	-0.180221
H75	H	1.222414	-0.462047	-0.092540
N76	N	1.266316	-0.389190	0.121970
H77	H	1.313053	-0.443792	0.177769
H78	H	1.229963	-0.302539	0.179745
H79	H	1.294565	-0.165515	0.093120
N80	N	1.687632	-0.195568	0.136054
H81	H	1.720350	-0.155026	0.054787
H82	H	1.688103	-0.133305	0.222917
