data_functionalizedCrystal
_audit_creation_method	'MofGen! by Chris Wilmer'
_symmetry_space_group_name_H-M	'P1'
_symmetry_Int_Tables_number	1
_symmetry_cell_setting	triclinic
loop_
_symmetry_equiv_pos_as_xyz
  x,y,z
_cell_length_a	19.805405
_cell_length_b	12.759401
_cell_length_c	12.759393
_cell_angle_alpha	90.020120
_cell_angle_beta	89.962372
_cell_angle_gamma	89.977620
loop_
_atom_site_label
_atom_site_type_symbol
_atom_site_fract_x
_atom_site_fract_y
_atom_site_fract_z
Zn1	Zn	-0.269496	-1.606170	-0.593982
Zn2	Zn	-0.382701	-1.606028	-0.418284
Zn3	Zn	-0.269523	-1.430472	-0.418317
Zn4	Zn	-0.382640	-1.430425	-0.593921
O5	O	-0.326090	-1.518274	-0.506126
O6	O	-0.284527	-1.753172	-0.570688
O7	O	-0.367724	-1.582701	-0.271267
O8	O	-0.174803	-1.453858	-0.441659
O9	O	-0.367698	-1.753068	-0.441603
O10	O	-0.174783	-1.582942	-0.570720
O11	O	-0.284573	-1.453720	-0.271291
O12	O	-0.284515	-1.283445	-0.441599
O13	O	-0.367595	-1.453777	-0.740950
O14	O	-0.367621	-1.283410	-0.570614
O15	O	-0.284468	-1.582896	-0.740995
O16	O	-0.477409	-1.582655	-0.441543
O17	O	-0.477365	-1.453640	-0.570582
C18	C	-0.326065	-1.245306	-0.506104
C19	C	-0.326070	-1.128530	-0.506120
C20	C	-0.282843	-1.073715	-0.573437
C21	C	-0.282852	-0.963991	-0.573440
C22	C	-0.369322	-0.963906	-0.438807
C23	C	-0.369309	-1.073628	-0.438799
C24	C	-0.232922	-1.073763	-0.651170
C25	C	-0.232931	-0.964039	-0.651173
C26	C	-0.501946	-1.518155	-0.506075
C27	C	-0.577178	-1.518201	-0.506089
C28	C	-0.612523	-1.585444	-0.438968
C29	C	-0.683211	-1.585489	-0.438991
C30	C	-0.718554	-1.518284	-0.506130
C31	C	-0.683204	-1.451038	-0.573258
C32	C	-0.612517	-1.450999	-0.573240
C33	C	-0.968277	-1.451193	-0.573336
C34	C	-1.038969	-1.451234	-0.573347
C35	C	-1.038972	-1.585683	-0.439088
C36	C	-0.968285	-1.585644	-0.439069
C37	C	-0.932941	-1.518402	-0.506200
C38	C	-0.856293	-1.518356	-0.506176
C39	C	-0.795201	-1.518324	-0.506151
C40	C	-0.149547	-1.518421	-0.506200
C41	C	-0.074315	-1.518484	-0.506232
C42	C	-0.326022	-1.518347	-0.780159
C43	C	-0.325993	-1.518379	-0.896936
C44	C	-0.326107	-0.792307	-0.506142
C45	C	-0.326093	-0.909084	-0.506131
C46	C	-0.282705	-1.585620	-0.951824
C47	C	-0.282680	-1.585645	-1.061548
C48	C	-0.369238	-1.451184	-1.061487
C49	C	-0.369258	-1.451154	-0.951765
C50	C	-0.232733	-1.663254	-0.951859
C51	C	-0.232709	-1.663279	-1.061584
C52	C	-0.326109	-1.518261	-0.233159
C53	C	-0.325948	-1.518433	-0.116383
H54	H	-0.180480	-1.103546	-0.629525
H55	H	-0.247036	-0.934289	-0.732506
C56	C	-0.416852	-1.133926	-0.364745
H57	H	-0.410649	-1.207136	-0.374373
H58	H	-0.462345	-1.115937	-0.379982
H59	H	-0.406885	-1.115916	-0.294182
H60	H	-0.711985	-1.396323	-0.627929
H61	H	-0.183113	-0.930013	-0.622181
C62	C	-0.416830	-1.377246	-1.121798
H63	H	-0.442611	-1.337190	-1.073391
H64	H	-0.446317	-1.417417	-1.164592
H65	H	-0.390919	-1.331497	-1.164605
H66	H	-0.404525	-0.919192	-0.383997
C67	C	-0.929412	-1.659572	-0.365220
H68	H	-0.960586	-1.699635	-0.325255
H69	H	-0.901878	-1.619397	-0.319400
H70	H	-0.901796	-1.705314	-0.405455
C71	C	-0.161926	-1.633864	-0.911659
H72	H	-0.161942	-1.633856	-0.837201
H73	H	-0.150202	-1.566082	-0.936469
H74	H	-0.129951	-1.683541	-0.936494
C75	C	-0.416868	-1.377182	-0.891387
H76	H	-0.410681	-1.386783	-0.818188
H77	H	-0.462345	-1.392512	-0.909343
H78	H	-0.406940	-1.306604	-0.909371
C79	C	-0.258114	-1.767633	-0.905870
H80	H	-0.269399	-1.814138	-0.961317
H81	H	-0.296939	-1.755106	-0.863940
H82	H	-0.223653	-1.798061	-0.863992
H83	H	-0.182902	-1.634181	-1.095639
C84	C	-0.251695	-1.773184	-1.101820
H85	H	-0.259526	-1.818364	-1.043909
H86	H	-0.215819	-1.800273	-1.143204
H87	H	-0.291469	-1.768713	-1.143157
H88	H	-0.251756	-1.107822	-0.728405
C89	C	-0.573652	-1.659373	-0.365115
H90	H	-0.604829	-1.699433	-0.325152
H91	H	-0.546120	-1.619198	-0.319294
H92	H	-0.546036	-1.705116	-0.405347
H93	H	-0.711986	-1.640245	-0.384334
C94	C	-1.077851	-1.659656	-0.365251
H95	H	-1.125012	-1.650065	-0.374881
H96	H	-1.066311	-1.644308	-0.294645
H97	H	-1.066223	-1.730236	-0.380690
C98	C	-1.077845	-1.377314	-0.647213
H99	H	-1.046672	-1.337269	-0.687200
H100	H	-1.105464	-1.331571	-0.606995
H101	H	-1.105376	-1.417510	-0.693028
C102	C	-0.573638	-1.377033	-0.647074
H103	H	-0.604809	-1.337008	-0.687057
H104	H	-0.546020	-1.417187	-0.692877
H105	H	-0.546105	-1.331257	-0.606835
H106	H	-0.939506	-1.396440	-0.627995
