data_functionalizedCrystal
_audit_creation_method	'MofGen! by Chris Wilmer'
_symmetry_space_group_name_H-M	'P1'
_symmetry_Int_Tables_number	1
_symmetry_cell_setting	triclinic
loop_
_symmetry_equiv_pos_as_xyz
  x,y,z
_cell_length_a	17.019282
_cell_length_b	26.210047
_cell_length_c	17.038272
_cell_angle_alpha	89.995368
_cell_angle_beta	87.241387
_cell_angle_gamma	86.127803
loop_
_atom_site_label
_atom_site_type_symbol
_atom_site_fract_x
_atom_site_fract_y
_atom_site_fract_z
O1	O	1.053361	-0.003869	0.099547
O2	O	1.553361	0.496131	0.599547
O3	O	0.824550	0.006189	0.112257
O4	O	1.324550	0.506189	0.612257
O5	O	0.937595	0.001216	-0.007912
O6	O	1.437595	0.501216	0.492088
O7	O	0.940315	0.001104	0.219716
O8	O	1.440315	0.501104	0.719716
O9	O	0.937573	-0.083641	-0.007894
O10	O	1.437573	0.416359	0.492106
O11	O	0.824528	-0.078668	0.112276
O12	O	1.324528	0.421332	0.612276
O13	O	1.053339	-0.088726	0.099566
O14	O	1.553339	0.411274	0.599566
Cu15	Cu	0.938931	-0.091445	0.105922
Cu16	Cu	1.438931	0.408555	0.605922
Cu17	Cu	0.938957	0.008908	0.105900
Cu18	Cu	1.438957	0.508908	0.605900
O19	O	0.940293	-0.083753	0.219735
O20	O	1.440293	0.416247	0.719735
C21	C	0.795118	-0.034946	0.111786
C22	C	1.295118	0.465054	0.611786
C23	C	0.707451	-0.031093	0.110345
C24	C	1.207451	0.468907	0.610345
N25	N	0.938918	-0.162028	0.105937
N26	N	1.438918	0.337972	0.605937
C27	C	0.666258	-0.075539	0.109677
C28	C	1.166258	0.424461	0.609677
C29	C	0.583887	-0.071920	0.108310
C30	C	1.083887	0.428080	0.608310
C31	C	0.542710	-0.023853	0.107618
C32	C	1.042710	0.476147	0.607618
C33	C	0.583909	0.020596	0.108285
C34	C	1.083909	0.520596	0.608285
C35	C	0.666279	0.016976	0.109645
C36	C	1.166279	0.516976	0.609645
C37	C	0.294007	-0.010610	0.103504
C38	C	0.794007	0.489390	0.603504
C39	C	0.211631	-0.006993	0.102146
C40	C	0.711631	0.493007	0.602146
C41	C	0.211614	-0.099510	0.102170
C42	C	0.711614	0.400490	0.602170
C43	C	0.293985	-0.103125	0.103536
C44	C	0.793985	0.396875	0.603536
C45	C	0.335177	-0.058676	0.104198
C46	C	0.835177	0.441324	0.604198
C47	C	0.458513	-0.020153	0.106224
C48	C	0.958513	0.479847	0.606224
C49	C	0.419373	-0.062377	0.105586
C50	C	0.919373	0.437623	0.605586
C51	C	0.989009	-0.516746	0.052701
C52	C	1.489009	-0.016746	0.552701
C53	C	0.989026	-0.730405	0.052690
C54	C	1.489026	-0.230405	0.552690
O55	O	1.031585	-0.759900	0.007430
O56	O	1.531585	-0.259900	0.507430
N57	N	0.938960	-0.754924	0.105883
N58	N	1.438960	-0.254924	0.605883
C59	C	0.888883	-0.726024	0.159079
C60	C	1.388883	-0.226024	0.659079
O61	O	0.846294	-0.751781	0.204317
O62	O	1.346294	-0.251781	0.704317
C63	C	0.888863	-0.512366	0.159085
C64	C	1.388863	-0.012366	0.659085
C65	C	0.938938	-0.487850	0.105894
C66	C	1.438938	0.012150	0.605894
C67	C	1.039079	-0.492230	-0.000486
C68	C	1.539079	0.007770	0.499514
C69	C	1.039077	-0.438819	-0.000480
C70	C	1.539077	0.061181	0.499520
C71	C	0.989006	-0.409923	0.052713
C72	C	1.489006	0.090077	0.552713
C73	C	0.938936	-0.434439	0.105900
C74	C	1.438936	0.065561	0.605900
C75	C	0.838783	-0.483467	0.212277
C76	C	1.338783	0.016533	0.712277
C77	C	0.838781	-0.430049	0.212272
C78	C	1.338781	0.069951	0.712272
C79	C	0.888855	-0.405534	0.159081
C80	C	1.388855	0.094466	0.659081
C81	C	0.888863	-0.352132	0.159100
C82	C	1.388863	0.147868	0.659100
N83	N	0.938929	-0.327613	0.105907
N84	N	1.438929	0.172387	0.605907
C85	C	0.989000	-0.356509	0.052714
C86	C	1.489000	0.143491	0.552714
C87	C	0.888899	-0.838198	0.159073
C88	C	1.388899	-0.338198	0.659073
C89	C	0.888904	-0.891613	0.159072
C90	C	1.388904	-0.391613	0.659072
C91	C	0.989046	-0.895990	0.052682
C92	C	1.489046	-0.395990	0.552682
C93	C	0.989044	-0.842575	0.052687
C94	C	1.489044	-0.342575	0.552687
C95	C	0.938964	-0.813680	0.105880
C96	C	1.438964	-0.313680	0.605880
C97	C	0.988994	-0.244340	0.052731
C98	C	1.488994	0.255660	0.552731
C99	C	0.988990	-0.190924	0.052744
C100	C	1.488990	0.309076	0.552744
C101	C	0.888846	-0.186551	0.159131
C102	C	1.388846	0.313449	0.659131
C103	C	0.888852	-0.239963	0.159121
C104	C	1.388852	0.260037	0.659121
C105	C	0.938928	-0.268856	0.105915
C106	C	1.438928	0.231144	0.605915
O107	O	0.846320	-0.322605	0.204330
O108	O	1.346320	0.177395	0.704330
O109	O	1.031571	-0.330742	0.007471
O110	O	1.531571	0.169258	0.507471
C111	C	0.989011	-0.570158	0.052695
C112	C	1.489011	-0.070158	0.552695
C113	C	0.938941	-0.594673	0.105882
C114	C	1.438941	-0.094673	0.605882
C115	C	0.888870	-0.565778	0.159075
C116	C	1.388870	-0.065778	0.659075
C117	C	0.938947	-0.648088	0.105882
C118	C	1.438947	-0.148088	0.605882
C119	C	0.989018	-0.676984	0.052688
C120	C	1.489018	-0.176984	0.552688
C121	C	1.039084	-0.652465	-0.000504
C122	C	1.539084	-0.152465	0.499496
C123	C	1.039082	-0.599053	-0.000498
C124	C	1.539082	-0.099053	0.499502
C125	C	0.838804	-0.590296	0.212268
C126	C	1.338804	-0.090296	0.712268
C127	C	0.838810	-0.643708	0.212258
C128	C	1.338810	-0.143708	0.712258
C129	C	0.888882	-0.672604	0.159065
C130	C	1.388882	-0.172604	0.659065
C131	C	1.082771	-0.047589	0.100037
C132	C	1.582771	0.452411	0.600037
C133	C	1.170437	-0.051440	0.101477
C134	C	1.670437	0.448560	0.601477
C135	C	0.935111	-0.041104	-0.037029
C136	C	1.435111	0.458896	0.462971
C137	C	0.927730	-0.040779	-0.123815
C138	C	1.427730	0.459221	0.376185
N139	N	0.938976	0.079491	0.105879
N140	N	1.438976	0.579491	0.605879
C141	C	0.995490	-0.043758	-0.173990
C142	C	1.495490	0.456242	0.326010
C143	C	0.988551	-0.043448	-0.255535
C144	C	1.488551	0.456552	0.244465
C145	C	0.913851	-0.040163	-0.286902
C146	C	1.413851	0.459837	0.213098
C147	C	0.846087	-0.037182	-0.236721
C148	C	1.346087	0.462818	0.263279
C149	C	0.853026	-0.037489	-0.155178
C150	C	1.353026	0.462511	0.344822
C151	C	0.889333	-0.039078	-0.532638
C152	C	1.389333	0.460922	-0.032638
C153	C	0.882399	-0.038774	-0.614187
C154	C	1.382399	0.461226	-0.114187
C155	C	1.024863	-0.045039	-0.632996
C156	C	1.524863	0.454961	-0.132996
C157	C	1.031797	-0.045348	-0.551450
C158	C	1.531797	0.454652	-0.051450
C159	C	0.964032	-0.042365	-0.501276
C160	C	1.464032	0.457635	-0.001276
C161	C	0.906756	-0.039848	-0.370253
C162	C	1.406756	0.460152	0.129747
C163	C	0.971128	-0.042676	-0.417927
C164	C	1.471128	0.457324	0.082073
C165	C	0.942778	-0.041432	0.248851
C166	C	1.442778	0.458568	0.748851
C167	C	0.950158	-0.041753	0.335638
C168	C	1.450158	0.458247	0.835638
H169	H	0.699778	-0.114680	0.110246
H170	H	1.199778	0.385320	0.610246
N171	N	1.094087	-0.048088	-0.684236
N172	N	1.594087	0.451912	-0.184236
N173	N	1.142547	-0.085988	-0.681420
N174	N	1.642547	0.414012	-0.181420
H175	H	1.191440	-0.088140	-0.717608
H176	H	1.691440	0.411860	-0.217608
N177	N	0.806084	-0.035427	-0.646216
N178	N	1.306084	0.464573	-0.146216
N179	N	0.745587	-0.032769	-0.601411
N180	N	1.245587	0.467231	-0.101411
H181	H	0.691692	-0.030410	-0.624031
H182	H	1.191692	0.469590	-0.124031
N183	N	0.787633	-0.508492	0.266621
N184	N	1.287633	-0.008492	0.766621
N185	N	0.742933	-0.482676	0.314105
N186	N	1.242933	0.017324	0.814105
H187	H	0.706806	-0.500349	0.352490
H188	H	1.206806	-0.000349	0.852490
N189	N	1.057774	-0.046487	-0.306776
N190	N	1.557774	0.453513	0.193224
N191	N	1.124465	-0.049421	-0.278759
N192	N	1.624465	0.450579	0.221241
H193	H	1.173358	-0.051565	-0.314948
H194	H	1.673358	0.448435	0.185052
N195	N	1.040193	-0.925509	-0.001658
N196	N	1.540193	-0.425509	0.498342
N197	N	1.113174	-0.922752	-0.000648
N198	N	1.613174	-0.422752	0.499352
H199	H	1.149289	-0.943602	-0.039027
H200	H	1.649289	-0.443602	0.460973
N201	N	0.787628	-0.400543	0.266622
N202	N	1.287628	0.099457	0.766622
N203	N	0.793553	-0.406779	0.338883
N204	N	1.293553	0.093221	0.838883
H205	H	0.757428	-0.385941	0.377270
H206	H	1.257428	0.114059	0.877270
N207	N	0.416449	0.028944	0.105508
N208	N	0.916449	0.528944	0.605508
N209	N	0.374069	0.041123	0.049661
N210	N	0.874069	0.541123	0.549661
H211	H	0.344359	0.075797	0.049152
H212	H	0.844359	0.575797	0.549152
N213	N	1.071795	-0.047104	-0.141954
N214	N	1.571795	0.452896	0.358046
N215	N	1.091571	-0.012203	-0.098558
N216	N	1.591571	0.487797	0.401442
H217	H	1.145464	-0.014563	-0.075934
H218	H	1.645464	0.485437	0.424066
N219	N	1.108107	-0.048705	-0.519425
N220	N	1.608107	0.451295	-0.019425
N221	N	1.168602	-0.051364	-0.564234
N222	N	1.668602	0.448636	-0.064234
H223	H	1.222499	-0.053736	-0.541617
H224	H	1.722499	0.446264	-0.041617
N225	N	0.541851	0.069696	0.107592
N226	N	1.041851	0.569696	0.607592
N227	N	0.547480	0.100423	0.162819
N228	N	1.047480	0.600423	0.662819
H229	H	0.517778	0.135101	0.162332
H230	H	1.017778	0.635101	0.662332
H231	H	0.848085	-0.259924	0.202441
H232	H	1.348085	0.240076	0.702441
N233	N	0.837710	-0.157022	0.213462
N234	N	1.337710	0.342978	0.713462
N235	N	0.837719	-0.109332	0.213450
N236	N	1.337719	0.390668	0.713450
H237	H	0.801601	-0.088474	0.251819
H238	H	1.301601	0.411526	0.751819
H239	H	0.848138	-0.911570	0.202393
H240	H	1.348138	-0.411570	0.702393
H241	H	0.452903	-0.101512	0.106146
H242	H	0.952903	0.398488	0.606146
N243	N	0.837733	-0.808694	0.213415
N244	N	1.337733	-0.308694	0.713415
N245	N	0.793039	-0.830599	0.260899
N246	N	1.293039	-0.330599	0.760899
H247	H	0.756904	-0.809764	0.299281
H248	H	1.256904	-0.309764	0.799281
N249	N	1.040139	-0.165891	-0.001604
N250	N	1.540139	0.334109	0.498396
N251	N	1.084832	-0.191700	-0.049101
N252	N	1.584832	0.308300	0.450899
H253	H	1.120950	-0.174022	-0.087489
H254	H	1.620950	0.325978	0.412511
N255	N	0.541822	-0.117326	0.107621
N256	N	1.041822	0.382674	0.607621
N257	N	0.578595	-0.160239	0.108241
N258	N	1.078595	0.339761	0.608241
H259	H	0.548888	-0.192310	0.107753
H260	H	1.048888	0.307690	0.607753
N261	N	1.040147	-0.273841	-0.001624
N262	N	1.540147	0.226159	0.498376
N263	N	1.084844	-0.251937	-0.049105
N264	N	1.584844	0.248063	0.450895
H265	H	1.120974	-0.272771	-0.087492
H266	H	1.620974	0.227229	0.412508
N267	N	0.820108	-0.036034	-0.481405
N268	N	1.320108	0.463966	0.018595
N269	N	0.753418	-0.033105	-0.509425
N270	N	1.253418	0.466895	-0.009425
H271	H	0.704524	-0.030957	-0.473239
H272	H	1.204524	0.469043	0.026761
N273	N	0.336033	-0.152228	0.104222
N274	N	0.836033	0.347772	0.604222
N275	N	0.299244	-0.191910	0.103609
N276	N	0.799244	0.308090	0.603609
H277	H	0.328940	-0.226590	0.104087
H278	H	0.828940	0.273410	0.604087
H279	H	1.079857	-0.579097	-0.043811
H280	H	1.579857	-0.079097	0.456189
H281	H	0.178066	-0.135698	0.101630
H282	H	0.678066	0.364302	0.601630
N283	N	0.708358	0.062378	0.110346
N284	N	1.208358	0.562378	0.610346
N285	N	0.750744	0.070839	0.166185
N286	N	1.250744	0.570839	0.666185
H287	H	0.780463	0.102905	0.166679
H288	H	1.280463	0.602905	0.666679
N289	N	1.090293	-0.413792	-0.054763
N290	N	1.590293	0.086208	0.445237
N291	N	1.135031	-0.439608	-0.102211
N292	N	1.635031	0.060392	0.397789
H293	H	1.171227	-0.421937	-0.140532
H294	H	1.671227	0.078063	0.359468
H295	H	1.079857	-0.676001	-0.043814
H296	H	1.579857	-0.176001	0.456186
H297	H	0.785264	-0.034504	-0.262267
H298	H	1.285264	0.465496	0.237733
H299	H	0.798036	-0.663665	0.255579
H300	H	1.298036	-0.163665	0.755579
H301	H	0.178107	0.032150	0.101585
H302	H	0.678107	0.532150	0.601585
H303	H	0.798029	-0.566773	0.255583
H304	H	1.298029	-0.066773	0.755583
N305	N	0.783804	-0.034439	-0.103934
N306	N	1.283804	0.465561	0.396066
N307	N	0.717112	-0.031502	-0.131948
N308	N	1.217112	0.468498	0.368052
H309	H	0.668220	-0.029345	-0.095758
H310	H	1.168220	0.470655	0.404242
N311	N	0.336064	0.034798	0.104180
N312	N	0.836064	0.534798	0.604180
N313	N	0.299287	0.077710	0.103564
N314	N	0.799287	0.577710	0.603564
H315	H	0.328992	0.109782	0.104042
H316	H	0.828992	0.609782	0.604042
H317	H	1.079853	-0.515753	-0.043806
H318	H	1.579853	-0.015753	0.456194
N319	N	1.047423	-0.046038	-0.385875
N320	N	1.547423	0.453962	0.114125
N321	N	1.067165	-0.082677	-0.342463
N322	N	1.567165	0.417323	0.157537
H323	H	1.121048	-0.085054	-0.319819
H324	H	1.621048	0.414946	0.180181
H325	H	0.845936	-0.037174	-0.395802
H326	H	1.345936	0.462826	0.104198
H327	H	1.029818	-0.822618	0.009375
H328	H	1.529818	-0.322618	0.509375
