data_functionalizedCrystal
_audit_creation_method	'MofGen! by Chris Wilmer'
_symmetry_space_group_name_H-M	'P1'
_symmetry_Int_Tables_number	1
_symmetry_cell_setting	triclinic
loop_
_symmetry_equiv_pos_as_xyz
  x,y,z
_cell_length_a	10.540510
_cell_length_b	10.540539
_cell_length_c	9.016244
_cell_angle_alpha	90.004647
_cell_angle_beta	89.997396
_cell_angle_gamma	95.480599
loop_
_atom_site_label
_atom_site_type_symbol
_atom_site_fract_x
_atom_site_fract_y
_atom_site_fract_z
O1	O	1.685905	-0.178725	-0.123342
O2	O	1.316487	-0.195620	-0.123342
O3	O	1.509624	-0.002465	-0.123340
O4	O	1.492768	-0.371880	-0.123344
O5	O	1.509616	-0.002450	0.123341
O6	O	1.316479	-0.195605	0.123339
O7	O	1.685897	-0.178710	0.123339
Cu8	Cu	1.501187	-0.187156	0.145863
Cu9	Cu	1.501197	-0.187174	-0.145866
O10	O	1.492760	-0.371865	0.123337
C11	C	1.269179	-0.194354	-0.000002
C12	C	1.128229	-0.190587	-0.000002
C13	C	0.910774	-0.324771	-0.000570
C14	C	1.057370	-0.328789	-0.000005
C15	C	1.083465	-0.119832	0.140862
C16	C	0.936704	-0.116793	0.140971
C17	C	0.936907	-0.113932	-0.139551
C18	C	1.083248	-0.120487	-0.141404
C19	C	1.508356	0.044845	-0.000003
C20	C	1.504574	0.185793	-0.000011
C21	C	1.733204	-0.179976	-0.000005
C22	C	1.874154	-0.183743	-0.000014
C23	C	1.494028	-0.419175	-0.000004
C24	C	1.497810	-0.560123	-0.000006
N25	N	1.501189	-0.187144	0.351049
C26	C	1.359655	0.369204	-0.000564
C27	C	1.363489	0.222587	-0.000009
C28	C	1.572466	0.247466	0.140856
C29	C	1.567651	0.394010	0.140975
C30	C	1.570529	0.394512	-0.139547
C31	C	1.571829	0.247530	-0.141410
N32	N	1.501204	-0.187176	-0.351052
C33	C	1.604891	-0.084174	0.586036
C34	C	1.604611	-0.083782	0.414145
C35	C	1.368483	-0.157027	0.413474
C36	C	1.369099	-0.156304	0.585419
C37	C	1.529032	-0.320589	0.585551
C38	C	1.532027	-0.319717	0.413595
H39	H	0.913709	-0.013426	0.147371
H40	H	1.086719	-0.384141	-0.100986
Br41	Br	0.840858	-0.414531	-0.168950
H42	H	0.914753	-0.010170	-0.140503
Br43	Br	0.838251	-0.413995	0.166842
H44	H	1.130855	-0.018090	0.146102
H45	H	1.289415	-0.229997	0.372606
Br46	Br	1.131013	-0.206245	-0.315104
H47	H	0.896484	-0.165135	0.246268
Br48	Br	1.494417	0.447064	-0.317504
Br49	Br	1.134880	-0.201706	0.315592
Br50	Br	1.326954	0.003372	0.341732
Br51	Br	1.274451	0.151551	-0.168315
Br52	Br	1.236536	-0.276480	0.654795
H53	H	1.672435	0.441749	-0.140494
H54	H	1.132316	-0.019590	-0.149910
Br55	Br	1.273806	0.152978	0.168571
H56	H	1.085770	-0.384465	0.101140
H57	H	1.623800	-0.349244	0.628904
H58	H	1.674691	0.223319	-0.149916
Br59	Br	0.866011	-0.186593	-0.317508
H60	H	1.669117	0.441990	0.147366
Br61	Br	1.403033	-0.448370	0.653367
H62	H	1.303926	0.397792	-0.101582
Br63	Br	1.266863	0.420158	0.166350
Br64	Br	1.484007	0.441020	0.316479
H65	H	1.629657	-0.342542	0.372795
H66	H	1.676075	0.225123	0.146094
Br67	Br	1.414463	-0.453609	0.342007
Br68	Br	1.493854	0.176472	0.315584
Br69	Br	1.768958	-0.113990	0.343787
Br70	Br	1.489741	0.178587	-0.315130
H71	H	1.703828	-0.102012	0.627376
Br72	Br	1.328523	0.005922	0.652299
Br73	Br	1.575475	0.079869	0.658072
H74	H	1.586705	0.015203	0.373027
