data_functionalizedCrystal
_audit_creation_method	'MofGen! by Chris Wilmer'
_symmetry_space_group_name_H-M	'P1'
_symmetry_Int_Tables_number	1
_symmetry_cell_setting	triclinic
loop_
_symmetry_equiv_pos_as_xyz
  x,y,z
_cell_length_a	18.215405
_cell_length_b	16.625547
_cell_length_c	18.215399
_cell_angle_alpha	90.023151
_cell_angle_beta	89.967040
_cell_angle_gamma	89.975929
loop_
_atom_site_label
_atom_site_type_symbol
_atom_site_fract_x
_atom_site_fract_y
_atom_site_fract_z
Zn1	Zn	-0.292990	-1.232636	-0.416227
Zn2	Zn	0.040343	-0.899303	-0.082893
Zn3	Zn	0.373676	-0.565969	0.250440
Zn4	Zn	-0.416067	-1.232543	-0.293155
Zn5	Zn	-0.082733	-0.899209	0.040178
Zn6	Zn	0.250600	-0.565876	0.373512
Zn7	Zn	-0.293017	-1.097807	-0.293161
Zn8	Zn	0.040317	-0.764474	0.040173
Zn9	Zn	0.373650	-0.431140	0.373506
Zn10	Zn	-0.416018	-1.097762	-0.416166
Zn11	Zn	-0.082685	-0.764429	-0.082833
Zn12	Zn	0.250649	-0.431096	0.250500
O13	O	-0.354523	-1.165187	-0.354677
O14	O	-0.021190	-0.831854	-0.021344
O15	O	0.312144	-0.498520	0.311990
O16	O	-0.309326	-1.345456	-0.399924
O17	O	0.024007	-1.012123	-0.066591
O18	O	0.357341	-0.678789	0.266743
O19	O	-0.399775	-1.214649	-0.190171
O20	O	-0.066442	-0.881316	0.143162
O21	O	0.266891	-0.547983	0.476495
O22	O	-0.190029	-1.115750	-0.309513
O23	O	0.143304	-0.782417	0.023820
O24	O	0.476638	-0.449083	0.357153
O25	O	-0.399750	-1.345387	-0.309504
O26	O	-0.066416	-1.012054	0.023830
O27	O	0.266917	-0.678721	0.357163
O28	O	-0.190010	-1.214808	-0.399929
O29	O	0.143324	-0.881475	-0.066596
O30	O	0.476657	-0.548141	0.266737
O31	O	-0.309371	-1.115659	-0.190175
O32	O	0.023962	-0.782326	0.143158
O33	O	0.357295	-0.448993	0.476491
O34	O	-0.309324	-0.984969	-0.309455
O35	O	0.024009	-0.651635	0.023879
O36	O	0.357343	-0.318302	0.357212
O37	O	-0.399666	-1.115674	-0.519159
O38	O	-0.066333	-0.782341	-0.185825
O39	O	0.267000	-0.449007	0.147508
O40	O	-0.399692	-0.984936	-0.399826
O41	O	-0.066359	-0.651603	-0.066493
O42	O	0.266974	-0.318269	0.266840
O43	O	-0.309279	-1.214765	-0.519203
O44	O	0.024055	-0.881432	-0.185870
O45	O	0.357388	-0.548098	0.147464
O46	O	-0.519045	-1.214606	-0.309445
O47	O	-0.185711	-0.881273	0.023888
O48	O	0.147622	-0.547939	0.357222
O49	O	-0.519009	-1.115584	-0.399821
O50	O	-0.185675	-0.782250	-0.066487
O51	O	0.147658	-0.448917	0.266846
C52	C	-0.354506	-0.955696	-0.354635
C53	C	-0.021173	-0.622363	-0.021302
C54	C	0.312161	-0.289029	0.312032
C55	C	-0.354517	-0.866075	-0.354634
C56	C	-0.021183	-0.532742	-0.021301
C57	C	0.312150	-0.199408	0.312032
C58	C	-0.545729	-1.165102	-0.354642
C59	C	-0.212396	-0.831768	-0.021308
C60	C	0.120937	-0.498435	0.312025
C61	C	-0.627528	-1.165139	-0.354651
C62	C	-0.294195	-0.831806	-0.021318
C63	C	0.039139	-0.498472	0.312016
C64	C	-0.354517	-0.793293	-0.354641
C65	C	-0.021184	-0.459959	-0.021307
C66	C	0.312149	-0.126626	0.312026
C67	C	-0.354520	-0.701984	-0.354656
C68	C	-0.021187	-0.368651	-0.021323
C69	C	0.312147	-0.035317	0.312011
C70	C	-0.354526	-0.629208	-0.354672
C71	C	-0.021193	-0.295874	-0.021339
C72	C	0.312141	0.037459	0.311995
C73	C	-0.354530	-0.537893	-0.354686
C74	C	-0.021197	-0.204560	-0.021353
C75	C	0.312137	0.128773	0.311980
C76	C	-0.815716	-1.216821	-0.307679
C77	C	-0.482383	-0.883488	0.025654
C78	C	-0.149050	-0.550154	0.358988
C79	C	-0.892575	-1.216857	-0.307697
C80	C	-0.559242	-0.883524	0.025636
C81	C	-0.225908	-0.550191	0.358970
C82	C	-0.892578	-1.113656	-0.401728
C83	C	-0.559244	-0.780323	-0.068395
C84	C	-0.225911	-0.446989	0.264939
C85	C	-0.815720	-1.113624	-0.401713
C86	C	-0.482387	-0.780291	-0.068380
C87	C	-0.149054	-0.446958	0.264953
C88	C	-0.777292	-1.165206	-0.354685
C89	C	-0.443958	-0.831873	-0.021351
C90	C	-0.110625	-0.498539	0.311982
C91	C	-0.931008	-1.165273	-0.354717
C92	C	-0.597674	-0.831940	-0.021384
C93	C	-0.264341	-0.498607	0.311949
C94	C	-1.014341	-1.165312	-0.354737
C95	C	-0.681008	-0.831979	-0.021404
C96	C	-0.347675	-0.498645	0.311930
C97	C	-0.693953	-1.165169	-0.354666
C98	C	-0.360619	-0.831835	-0.021333
C99	C	-0.027286	-0.498502	0.312001
C100	C	-0.162570	-1.165294	-0.354729
C101	C	0.170763	-0.831961	-0.021395
C102	C	0.504097	-0.498628	0.311938
C103	C	-0.080771	-1.165340	-0.354751
C104	C	0.252562	-0.832007	-0.021417
C105	C	0.585896	-0.498673	0.311916
C106	C	-0.354464	-1.165225	-0.546630
C107	C	-0.021131	-0.831892	-0.213297
C108	C	0.312203	-0.498558	0.120037
C109	C	-0.354439	-1.165241	-0.628429
C110	C	-0.021106	-0.831908	-0.295096
C111	C	0.312228	-0.498575	0.038238
C112	C	-0.354537	-0.375496	-0.354711
C113	C	-0.021204	-0.042162	-0.021378
C114	C	0.312129	0.291171	0.311956
C115	C	-0.354536	-0.465117	-0.354703
C116	C	-0.021202	-0.131784	-0.021369
C117	C	0.312131	0.201550	0.311964
C118	C	-0.307334	-1.113741	-0.816626
C119	C	0.026000	-0.780408	-0.483293
C120	C	0.359333	-0.447074	-0.149960
C121	C	-0.307319	-1.113755	-0.893485
C122	C	0.026014	-0.780422	-0.560152
C123	C	0.359348	-0.447088	-0.226818
C124	C	-0.401457	-1.216838	-0.893470
C125	C	-0.068123	-0.883505	-0.560137
C126	C	0.265210	-0.550171	-0.226803
C127	C	-0.401475	-1.216819	-0.816613
C128	C	-0.068141	-0.883486	-0.483279
C129	C	0.265192	-0.550153	-0.149946
C130	C	-0.354409	-1.165272	-0.778193
C131	C	-0.021076	-0.831939	-0.444859
C132	C	0.312258	-0.498605	-0.111526
C133	C	-0.354376	-1.165305	-0.931909
C134	C	-0.021043	-0.831971	-0.598575
C135	C	0.312290	-0.498638	-0.265242
C136	C	-0.354360	-1.165320	-1.015243
C137	C	-0.021027	-0.831987	-0.681909
C138	C	0.312306	-0.498654	-0.348576
C139	C	-0.354426	-1.165255	-0.694854
C140	C	-0.021092	-0.831922	-0.361520
C141	C	0.312241	-0.498588	-0.028187
C142	C	-0.354528	-1.165195	-0.163471
C143	C	-0.021195	-0.831862	0.169862
C144	C	0.312138	-0.498529	0.503196
C145	C	-0.354346	-1.165335	-0.081672
C146	C	-0.021013	-0.832002	0.251661
C147	C	0.312321	-0.498669	0.584994
H148	H	-0.784429	-1.258823	-0.269387
H149	H	-0.451096	-0.925490	0.063947
H150	H	-0.117763	-0.592156	0.397280
H151	H	-0.269010	-1.071768	-0.785347
H152	H	0.064323	-0.738434	-0.452014
H153	H	0.397657	-0.405101	-0.118680
O154	O	-0.452242	-1.272411	-0.775150
O155	O	-0.118909	-0.939078	-0.441817
O156	O	0.214425	-0.605744	-0.108484
H157	H	-0.484956	-1.308270	-0.814777
H158	H	-0.151623	-0.974937	-0.481444
H159	H	0.181711	-0.641603	-0.148110
H160	H	-0.268986	-1.071792	-0.924774
H161	H	0.064347	-0.738459	-0.591441
H162	H	0.397680	-0.405126	-0.258107
H163	H	-0.439775	-1.258807	-0.924761
H164	H	-0.106442	-0.925473	-0.591427
H165	H	0.226892	-0.592140	-0.258094
H166	H	-0.923876	-1.071659	-0.440016
H167	H	-0.590542	-0.738326	-0.106683
H168	H	-0.257209	-0.404992	0.226651
O169	O	-0.934022	-1.272523	-0.256994
O170	O	-0.600688	-0.939189	0.076339
O171	O	-0.267355	-0.605856	0.409672
H172	H	-0.894385	-1.308378	-0.224288
H173	H	-0.561052	-0.975045	0.109045
H174	H	-0.227718	-0.641711	0.442378
H175	H	-0.784433	-1.071593	-0.439995
H176	H	-0.451099	-0.738260	-0.106661
H177	H	-0.117766	-0.404926	0.226672
