data_functionalizedCrystal
_audit_creation_method	'MofGen! by Chris Wilmer'
_symmetry_space_group_name_H-M	'P1'
_symmetry_Int_Tables_number	1
_symmetry_cell_setting	triclinic
loop_
_symmetry_equiv_pos_as_xyz
  x,y,z
_cell_length_a	16.625546
_cell_length_b	12.827893
_cell_length_c	12.827885
_cell_angle_alpha	90.021379
_cell_angle_beta	89.964876
_cell_angle_gamma	89.979323
loop_
_atom_site_label
_atom_site_type_symbol
_atom_site_fract_x
_atom_site_fract_y
_atom_site_fract_z
Zn1	Zn	-0.321001	-1.597620	-0.590863
Zn2	Zn	-0.455855	-1.597492	-0.416107
Zn3	Zn	-0.321036	-1.422861	-0.416131
Zn4	Zn	-0.455791	-1.422825	-0.590801
O5	O	-0.388421	-1.510200	-0.503476
O6	O	-0.338902	-1.743839	-0.567698
O7	O	-0.438013	-1.574288	-0.269874
O8	O	-0.208199	-1.446112	-0.439346
O9	O	-0.437979	-1.743745	-0.439305
O10	O	-0.208173	-1.574507	-0.567721
O11	O	-0.338962	-1.445988	-0.269892
O12	O	-0.338900	-1.276620	-0.439286
O13	O	-0.437869	-1.446051	-0.737046
O14	O	-0.437904	-1.276594	-0.567615
O15	O	-0.338840	-1.574472	-0.737091
O16	O	-0.568679	-1.574254	-0.439245
O17	O	-0.568632	-1.445927	-0.567592
C18	C	-0.388399	-1.238690	-0.503447
C19	C	-0.388409	-1.122537	-0.503459
C20	C	-0.339468	-1.070798	-0.567089
C21	C	-0.339477	-0.950748	-0.567103
C22	C	-0.597912	-1.510101	-0.503432
C23	C	-0.687533	-1.510154	-0.503448
C24	C	-1.015708	-1.510336	-0.503557
C25	C	-0.924400	-1.510282	-0.503530
C26	C	-0.851624	-1.510244	-0.503502
C27	C	-0.760309	-1.510192	-0.503476
C28	C	-0.178112	-1.510327	-0.503543
C29	C	-0.088491	-1.510382	-0.503571
C30	C	-0.388344	-1.510272	-0.776046
C31	C	-0.388311	-1.510302	-0.892199
C32	C	-0.388437	-0.782770	-0.503497
C33	C	-0.388427	-0.898923	-0.503485
C34	C	-0.339287	-1.446835	-0.943993
C35	C	-0.339252	-1.446866	-1.064043
C36	C	-0.388440	-1.510188	-0.231966
C37	C	-0.388246	-1.510360	-0.115813
H38	H	-0.297580	-0.906254	-0.621583
N39	N	-0.441006	-0.954707	-0.435137
N40	N	-0.515423	-0.942572	-0.441883
H41	H	-0.552558	-0.981975	-0.393612
H42	H	-0.430314	-1.077955	-0.448992
H43	H	-0.297346	-1.392472	-0.899458
H44	H	-0.297278	-1.392534	-1.108584
N45	N	-0.440889	-1.578551	-1.059956
N46	N	-0.412496	-1.645093	-0.999055
H47	H	-0.449675	-1.693257	-0.959600
N48	N	-0.286892	-1.126731	-0.635405
N49	N	-0.286956	-1.224172	-0.635293
H50	H	-0.249822	-1.263675	-0.683542
N51	N	-0.440928	-1.578519	-0.948041
N52	N	-0.487012	-1.638195	-0.899408
H53	H	-0.524173	-1.686379	-0.938842
