data_functionalizedCrystal
_audit_creation_method	'MofGen! by Chris Wilmer'
_symmetry_space_group_name_H-M	'P1'
_symmetry_Int_Tables_number	1
_symmetry_cell_setting	triclinic
loop_
_symmetry_equiv_pos_as_xyz
  x,y,z
_cell_length_a	13.930277
_cell_length_b	19.288864
_cell_length_c	19.288865
_cell_angle_alpha	83.136245
_cell_angle_beta	90.009791
_cell_angle_gamma	90.021060
loop_
_atom_site_label
_atom_site_type_symbol
_atom_site_fract_x
_atom_site_fract_y
_atom_site_fract_z
O1	O	-0.080150	-0.921351	-0.086647
O2	O	0.253184	-0.588018	0.246686
O3	O	0.586517	-0.254684	0.580020
O4	O	-0.080085	-0.719090	-0.098336
O5	O	0.253248	-0.385757	0.234997
O6	O	0.586581	-0.052424	0.568331
O7	O	-0.080100	-0.826065	0.008639
O8	O	0.253233	-0.492732	0.341972
O9	O	0.586566	-0.159398	0.675305
O10	O	-0.080135	-0.814376	-0.193622
O11	O	0.253199	-0.481043	0.139711
O12	O	0.586532	-0.147710	0.473045
O13	O	0.079561	-0.826050	0.008641
O14	O	0.412895	-0.492717	0.341974
O15	O	0.746228	-0.159384	0.675308
O16	O	0.079576	-0.719076	-0.098334
O17	O	0.412910	-0.385742	0.235000
O18	O	0.746243	-0.052409	0.568333
O19	O	0.079512	-0.921336	-0.086645
O20	O	0.412846	-0.588003	0.246688
O21	O	0.746179	-0.254670	0.580022
Zn22	Zn	0.104894	-0.820204	-0.092489
Zn23	Zn	0.438227	-0.486870	0.240844
Zn24	Zn	0.771561	-0.153537	0.574178
Zn25	Zn	-0.105467	-0.820223	-0.092492
Zn26	Zn	0.227866	-0.486890	0.240841
Zn27	Zn	0.561199	-0.153556	0.574175
O28	O	0.079527	-0.814362	-0.193620
O29	O	0.412860	-0.481028	0.139714
O30	O	0.746194	-0.147695	0.473047
C31	C	-0.000246	-0.693207	-0.097959
C32	C	0.333087	-0.359873	0.235375
C33	C	0.666421	-0.026540	0.568708
C34	C	-0.000221	-0.616103	-0.096830
C35	C	0.333113	-0.282770	0.236504
C36	C	0.666446	0.050564	0.569837
N37	N	0.248460	-0.820195	-0.092486
N38	N	0.581793	-0.486862	0.240847
N39	N	0.915127	-0.153529	0.574180
N40	N	-0.249033	-0.820237	-0.092489
N41	N	0.084300	-0.486904	0.240845
N42	N	0.417633	-0.153570	0.574178
C43	C	0.700736	-0.772853	-0.139842
C44	C	1.034069	-0.439520	0.193492
C45	C	1.367403	-0.106186	0.526825
C46	C	0.700692	-0.867612	-0.045137
C47	C	1.034026	-0.534279	0.288197
C48	C	1.367359	-0.200946	0.621530
C49	C	0.600196	-0.867604	-0.045134
C50	C	0.933530	-0.534271	0.288199
C51	C	1.266863	-0.200938	0.621532
C52	C	0.549966	-0.820220	-0.092487
C53	C	0.883299	-0.486887	0.240846
C54	C	1.216633	-0.153554	0.574179
C55	C	0.600231	-0.772845	-0.139842
C56	C	0.933564	-0.439511	0.193491
C57	C	1.266898	-0.106178	0.526824
C58	C	0.549924	-0.914984	0.002215
C59	C	0.883257	-0.581650	0.335548
C60	C	1.216590	-0.248317	0.668882
C61	C	0.449422	-0.914978	0.002219
C62	C	0.782755	-0.581644	0.335552
C63	C	1.116089	-0.248311	0.668885
C64	C	0.399190	-0.867590	-0.045131
C65	C	0.732523	-0.534257	0.288202
C66	C	1.065856	-0.200923	0.621535
C67	C	0.449461	-0.820212	-0.092488
C68	C	0.782794	-0.486879	0.240845
C69	C	1.116128	-0.153545	0.574179
C70	C	0.399230	-0.772828	-0.139841
C71	C	0.732564	-0.439495	0.193492
C72	C	1.065897	-0.106161	0.526826
C73	C	0.449500	-0.725446	-0.187195
C74	C	0.782833	-0.392113	0.146139
C75	C	1.116166	-0.058779	0.479472
C76	C	0.549999	-0.725457	-0.187193
C77	C	0.883332	-0.392124	0.146141
C78	C	1.216665	-0.058790	0.479474
C79	C	0.298691	-0.867579	-0.045134
C80	C	0.632024	-0.534246	0.288200
C81	C	0.965357	-0.200913	0.621533
C82	C	0.298725	-0.772820	-0.139842
C83	C	0.632059	-0.439486	0.193492
C84	C	0.965392	-0.106153	0.526825
C85	C	-0.000267	-0.825682	0.034516
C86	C	0.333067	-0.492348	0.367850
C87	C	0.666400	-0.159015	0.701183
C88	C	-0.000258	-0.824553	0.111620
C89	C	0.333076	-0.491219	0.444953
C90	C	0.666409	-0.157886	0.778287
C91	C	-0.000329	-0.947220	-0.087022
C92	C	0.333004	-0.613887	0.246311
C93	C	0.666337	-0.280553	0.579645
C94	C	-0.000361	-1.024324	-0.088151
C95	C	0.332972	-0.690990	0.245182
C96	C	0.666306	-0.357657	0.578516
C97	C	-0.000246	-0.571407	-0.159598
C98	C	0.333087	-0.238073	0.173736
C99	C	0.666420	0.095260	0.507069
C100	C	-0.000257	-0.498960	-0.158537
C101	C	0.333076	-0.165626	0.174796
C102	C	0.666410	0.167707	0.508130
C103	C	-0.000261	-0.471212	-0.094705
C104	C	0.333072	-0.137879	0.238629
C105	C	0.666406	0.195455	0.571962
C106	C	-0.000230	-0.515918	-0.031929
C107	C	0.333104	-0.182585	0.301405
C108	C	0.666437	0.150748	0.634738
C109	C	-0.000210	-0.588364	-0.032991
C110	C	0.333124	-0.255030	0.300342
C111	C	0.666457	0.078303	0.633676
C112	C	-0.056221	-0.362955	-0.044526
C113	C	0.277112	-0.029622	0.288807
C114	C	0.610445	0.303711	0.622140
C115	C	-0.056247	-0.290511	-0.043467
C116	C	0.277086	0.042823	0.289867
C117	C	0.610419	0.376156	0.623200
C118	C	-0.000318	-0.247767	-0.091425
C119	C	0.333015	0.085567	0.241908
C120	C	0.666348	0.418900	0.575242
C121	C	0.055624	-0.277474	-0.140455
C122	C	0.388957	0.055859	0.192878
C123	C	0.722291	0.389193	0.526211
C124	C	0.055644	-0.349920	-0.141518
C125	C	0.388977	-0.016586	0.191816
C126	C	0.722311	0.316747	0.525149
C127	C	-0.000282	-0.392658	-0.093546
C128	C	0.333051	-0.059325	0.239788
C129	C	0.666385	0.274009	0.573121
C130	C	-0.000354	-0.124514	-0.153047
C131	C	0.332979	0.208819	0.180286
C132	C	0.666313	0.542152	0.513619
C133	C	-0.000359	-0.052066	-0.151984
C134	C	0.332975	0.281267	0.181349
C135	C	0.666308	0.614600	0.514683
C136	C	-0.000341	-0.069026	-0.025374
C137	C	0.332992	0.264307	0.307960
C138	C	0.666326	0.597640	0.641293
C139	C	-0.000327	-0.141473	-0.026439
C140	C	0.333006	0.191860	0.306894
C141	C	0.666340	0.525194	0.640228
C142	C	-0.000338	-0.169212	-0.090278
C143	C	0.332995	0.164121	0.243056
C144	C	0.666329	0.497454	0.576389
C145	C	-0.000309	-0.814745	-0.219497
C146	C	0.333024	-0.481412	0.113836
C147	C	0.666358	-0.148078	0.447169
C148	C	-0.000324	-0.815874	-0.296601
C149	C	0.333009	-0.482541	0.036733
C150	C	0.666343	-0.149207	0.370066
C151	C	-0.000273	-0.887321	0.156316
C152	C	0.333060	-0.553987	0.489650
C153	C	0.666394	-0.220654	0.822983
C154	C	-0.000288	-0.886260	0.228763
C155	C	0.333046	-0.552927	0.562097
C156	C	0.666379	-0.219593	0.895430
C157	C	-0.000268	-0.822428	0.256511
C158	C	0.333065	-0.489094	0.589844
C159	C	0.666399	-0.155761	0.923178
C160	C	-0.000258	-0.759652	0.211805
C161	C	0.333075	-0.426318	0.545138
C162	C	0.666408	-0.092985	0.878471
C163	C	-0.000253	-0.760714	0.139359
C164	C	0.333080	-0.427381	0.472693
C165	C	0.666414	-0.094047	0.806026
C166	C	0.055674	-0.772243	0.364799
C167	C	0.389007	-0.438910	0.698132
C168	C	0.722341	-0.105576	1.031466
C169	C	0.055675	-0.771183	0.437244
C170	C	0.389008	-0.437850	0.770577
C171	C	0.722341	-0.104516	1.103910
C172	C	-0.000289	-0.819148	0.479956
C173	C	0.333045	-0.485815	0.813290
C174	C	0.666378	-0.152481	1.146623
C175	C	-0.056240	-0.868185	0.450218
C176	C	0.277093	-0.534851	0.783551
C177	C	0.610427	-0.201518	1.116884
C178	C	-0.056235	-0.869247	0.377772
C179	C	0.277099	-0.535914	0.711105
C180	C	0.610432	-0.202580	1.044439
C181	C	-0.000274	-0.821269	0.335065
C182	C	0.333059	-0.487935	0.668398
C183	C	0.666392	-0.154602	1.001732
C184	C	-0.000321	-0.880770	0.603209
C185	C	0.333012	-0.547437	0.936542
C186	C	0.666345	-0.214104	1.269875
C187	C	-0.000342	-0.879707	0.675657
C188	C	0.332991	-0.546374	1.008990
C189	C	0.666325	-0.213040	1.342323
C190	C	-0.000303	-0.753097	0.658697
C191	C	0.333030	-0.419763	0.992030
C192	C	0.666364	-0.086430	1.325363
C193	C	-0.000292	-0.754162	0.586250
C194	C	0.333042	-0.420829	0.919583
C195	C	0.666375	-0.087495	1.252917
C196	C	-0.000296	-0.818001	0.558511
C197	C	0.333037	-0.484667	0.891844
C198	C	0.666370	-0.151334	1.225177
H199	H	0.257834	-0.734231	-0.178400
H200	H	0.591167	-0.400898	0.154933
H201	H	0.924500	-0.067565	0.488267
F202	F	-0.000229	-0.486386	0.036006
F203	F	0.333104	-0.153053	0.369339
F204	F	0.666437	0.180280	0.702673
F205	F	0.396030	-0.675022	-0.237594
F206	F	0.729363	-0.341689	0.095740
F207	F	1.062697	-0.008356	0.429073
F208	F	-0.115785	-0.921431	0.346124
F209	F	0.217548	-0.588097	0.679457
F210	F	0.550882	-0.254764	1.012790
F211	F	0.754151	-0.918044	0.005253
F212	F	1.087484	-0.584710	0.338587
F213	F	1.420817	-0.251377	0.671920
H214	H	-0.000304	-0.937375	0.265162
H215	H	0.333029	-0.604041	0.598495
H216	H	0.666363	-0.270708	0.931829
F217	F	0.754234	-0.722425	-0.190235
F218	F	1.087567	-0.389092	0.143099
F219	F	1.420901	-0.055759	0.476432
F220	F	0.115152	-0.231988	-0.191501
F221	F	0.448485	0.101345	0.141832
F222	F	0.781819	0.434679	0.475166
H223	H	0.408499	-0.953558	0.040777
H224	H	0.741832	-0.620224	0.374110
H225	H	1.075165	-0.286891	0.707444
H226	H	0.590934	-0.686881	-0.225747
H227	H	0.924268	-0.353547	0.107586
H228	H	1.257601	-0.020214	0.440920
H229	H	-0.000374	-0.015674	-0.203099
H230	H	0.332959	0.317659	0.130234
H231	H	0.666293	0.650992	0.463567
H232	H	-0.000404	-0.046435	0.026600
H233	H	0.332930	0.286898	0.359933
H234	H	0.666263	0.620231	0.693266
H235	H	-0.101803	-0.266329	-0.003546
H236	H	0.231531	0.067005	0.329787
H237	H	0.564864	0.400338	0.663121
F238	F	-0.000322	-0.948712	0.573684
F239	F	0.333012	-0.615378	0.907017
F240	F	0.666345	-0.282045	1.240351
F241	F	0.603382	-0.965415	0.052605
F242	F	0.936716	-0.632082	0.385938
F243	F	1.270049	-0.298748	0.719272
F244	F	0.115183	-0.381534	-0.193696
F245	F	0.448516	-0.048201	0.139638
F246	F	0.781850	0.285132	0.472971
F247	F	-0.000272	-0.687355	0.538679
F248	F	0.333062	-0.354021	0.872012
F249	F	0.666395	-0.020688	1.205345
H250	H	-0.000311	-0.177866	0.024674
H251	H	0.333022	0.155467	0.358007
H252	H	0.666356	0.488801	0.691340
F253	F	0.245196	-0.918007	0.005257
F254	F	0.578530	-0.584674	0.338590
F255	F	0.911863	-0.251341	0.671923
F256	F	-0.000255	-0.600925	-0.227541
F257	F	0.333078	-0.267591	0.105793
F258	F	0.666411	0.065742	0.439126
F259	F	-0.000282	-0.451382	-0.225346
F260	F	0.333052	-0.118048	0.107988
F261	F	0.666385	0.215285	0.441321
H262	H	-0.101771	-0.397753	-0.005471
H263	H	0.231562	-0.064419	0.327862
H264	H	0.564896	0.268914	0.661195
H265	H	-0.000189	-0.624756	0.018124
H266	H	0.333144	-0.291423	0.351457
H267	H	0.666477	0.041910	0.684790
F268	F	-0.000364	-0.946517	0.723227
F269	F	0.332969	-0.613184	1.056560
F270	F	0.666302	-0.279850	1.389893
H271	H	-0.000280	-0.939303	0.133736
H272	H	0.333053	-0.605970	0.467069
H273	H	0.666387	-0.272636	0.800403
H274	H	0.101251	-0.733182	0.330027
H275	H	0.434584	-0.399849	0.663360
H276	H	0.767918	-0.066516	0.996694
F277	F	-0.115806	-0.919236	0.495670
F278	F	0.217527	-0.585903	0.829003
F279	F	0.550861	-0.252569	1.162337
H280	H	-0.000349	-0.147101	-0.205028
H281	H	0.332984	0.186233	0.128305
H282	H	0.666318	0.519566	0.461638
F283	F	-0.000287	-0.685161	0.688223
F284	F	0.333046	-0.351828	1.021556
F285	F	0.666380	-0.018495	1.354889
H286	H	0.101228	-0.731252	0.461451
H287	H	0.434561	-0.397918	0.794784
H288	H	0.767895	-0.064585	1.128117
H289	H	-0.000244	-0.707679	0.234401
H290	H	0.333089	-0.374346	0.567735
H291	H	0.666422	-0.041012	0.901068
H292	H	-0.000240	-0.709599	0.102967
H293	H	0.333093	-0.376266	0.436300
H294	H	0.666426	-0.042932	0.769633
