data_functionalizedCrystal
_audit_creation_method	'MofGen! by Chris Wilmer'
_symmetry_space_group_name_H-M	'P1'
_symmetry_Int_Tables_number	1
_symmetry_cell_setting	triclinic
loop_
_symmetry_equiv_pos_as_xyz
  x,y,z
_cell_length_a	21.295419
_cell_length_b	25.639239
_cell_length_c	21.295411
_cell_angle_alpha	90.019526
_cell_angle_beta	90.024539
_cell_angle_gamma	90.053487
loop_
_atom_site_label
_atom_site_type_symbol
_atom_site_fract_x
_atom_site_fract_y
_atom_site_fract_z
Zn1	Zn	0.962320	-0.208004	0.355920
Zn2	Zn	0.962207	-0.295424	0.250650
Zn3	Zn	0.857043	-0.208027	0.250665
Zn4	Zn	0.856997	-0.295433	0.355881
O5	O	0.909642	-0.251722	0.303279
O6	O	1.050394	-0.219587	0.341966
O7	O	0.948229	-0.283836	0.162562
O8	O	0.871074	-0.134859	0.264651
O9	O	1.050311	-0.283814	0.264624
O10	O	0.948421	-0.134842	0.341981
O11	O	0.870965	-0.219626	0.162574
O12	O	0.768948	-0.219635	0.264613
O13	O	0.870997	-0.283829	0.443976
O14	O	0.768914	-0.283851	0.341915
O15	O	0.948377	-0.219596	0.444005
O16	O	0.948185	-0.368590	0.264586
O17	O	0.870887	-0.368597	0.341899
C18	C	0.746090	-0.251747	0.303262
C19	C	0.676122	-0.251770	0.303269
C20	C	0.643321	-0.218382	0.343603
C21	C	0.577578	-0.218368	0.343606
C22	C	0.544640	-0.251751	0.303280
C23	C	0.577449	-0.285142	0.262938
C24	C	0.643190	-0.285152	0.262933
N25	N	0.441356	-0.297498	0.298363
N26	N	0.378905	-0.297487	0.298372
C27	C	0.346565	-0.251724	0.303294
N28	N	0.379036	-0.205972	0.308220
N29	N	0.441493	-0.205983	0.308214
C30	C	0.473354	-0.251745	0.303282
C31	C	0.242478	-0.218318	0.343633
C32	C	0.176735	-0.218303	0.343631
C33	C	0.176606	-0.285082	0.262967
C34	C	0.242348	-0.285092	0.262966
C35	C	0.275281	-0.251711	0.303302
C36	C	0.909536	-0.387564	0.303250
C37	C	0.909548	-0.445678	0.303259
C38	C	0.949996	-0.806026	0.263091
C39	C	0.950020	-0.860630	0.263099
O40	O	0.984300	-0.888853	0.228915
N41	N	0.909752	-0.887961	0.303321
C42	C	0.869462	-0.860685	0.343541
O43	O	0.835215	-0.888946	0.377754
C44	C	0.869442	-0.806081	0.343536
C45	C	0.909707	-0.778753	0.303307
C46	C	0.990258	-0.778697	0.222866
C47	C	0.990233	-0.724097	0.222857
C48	C	0.949945	-0.696824	0.263073
C49	C	0.909682	-0.724153	0.303298
C50	C	0.829155	-0.778806	0.383759
C51	C	0.829138	-0.724199	0.383750
C52	C	0.869404	-0.696871	0.343521
C53	C	0.869368	-0.642280	0.343505
N54	N	0.909636	-0.614949	0.303283
C55	C	0.949924	-0.642221	0.263067
C56	C	0.869510	-0.975355	0.343551
C57	C	0.869527	-1.029958	0.343554
C58	C	0.950085	-1.029899	0.263113
C59	C	0.950065	-0.975296	0.263107
C60	C	0.909777	-0.948024	0.303329
C61	C	0.949867	-0.527556	0.263050
C62	C	0.949836	-0.472951	0.263043
C63	C	0.869281	-0.473014	0.343487
C64	C	0.869309	-0.527615	0.343492
C65	C	0.909607	-0.554884	0.303272
O66	O	0.835108	-0.614022	0.377673
O67	O	0.984172	-0.613953	0.228866
C68	C	1.073832	-0.251697	0.303297
C69	C	1.143800	-0.251686	0.303305
C70	C	0.909694	-0.251711	0.467470
C71	C	0.909716	-0.251706	0.537438
C72	C	0.909765	-0.115349	0.303322
C73	C	0.909818	-0.057235	0.303340
C74	C	0.909626	-0.251695	0.139728
C75	C	0.909726	-0.251553	0.069760
C76	C	0.950006	-0.218258	0.570320
C77	C	0.950005	-0.218235	0.636063
C78	C	0.909721	-0.251670	0.668920
C79	C	0.869423	-0.285120	0.636030
C80	C	0.869421	-0.285138	0.570288
N81	N	0.904857	-0.297409	0.772138
N82	N	0.904863	-0.297391	0.834589
C83	C	0.909725	-0.251617	0.866995
N84	N	0.914594	-0.205862	0.834590
N85	N	0.914591	-0.205881	0.772133
C86	C	0.909719	-0.251654	0.740206
C87	C	0.950016	-0.218142	0.971163
C88	C	0.950011	-0.218118	1.036907
C89	C	0.869432	-0.285008	1.036873
C90	C	0.869434	-0.285027	0.971130
C91	C	0.909730	-0.251594	0.938279
H92	H	0.150029	-0.191111	0.376475
H93	H	0.982824	-0.190916	0.944415
C94	C	0.994321	-0.181478	0.534183
C95	C	1.043720	-0.204135	0.489003
C96	C	1.088032	-0.167353	0.452863
C97	C	1.082946	-0.107914	0.461903
C98	C	1.033545	-0.085254	0.507084
C99	C	0.989233	-0.122036	0.543224
H100	H	1.047487	-0.248138	0.482310
H101	H	1.124602	-0.184128	0.419417
H102	H	1.115748	-0.080686	0.435149
H103	H	1.029778	-0.041251	0.513778
H104	H	0.952663	-0.105261	0.576671
C105	C	0.679275	-0.321884	0.218566
C106	C	0.751588	-0.321897	0.218561
C107	C	0.787675	-0.358630	0.174194
C108	C	0.751449	-0.395350	0.129833
C109	C	0.679132	-0.395339	0.129836
C110	C	0.643045	-0.358606	0.174203
H111	H	0.778408	-0.294712	0.251401
H112	H	0.841209	-0.358638	0.174192
H113	H	0.778163	-0.422543	0.096990
H114	H	0.652312	-0.422523	0.096996
H115	H	0.589511	-0.358597	0.174205
C116	C	0.994332	-0.181445	0.672244
C117	C	1.038656	-0.144673	0.636110
C118	C	1.082984	-0.107885	0.672289
C119	C	1.082989	-0.107868	0.744602
C120	C	1.038663	-0.144642	0.780740
C121	C	0.994335	-0.181430	0.744561
H122	H	1.038654	-0.144684	0.582576
H123	H	1.115797	-0.080662	0.645537
H124	H	1.115803	-0.080635	0.771384
H125	H	1.038665	-0.144631	0.834274
H126	H	0.961522	-0.208652	0.771313
H127	H	0.836476	-0.450801	0.376228
C128	C	0.541219	-0.321866	0.218580
C129	C	0.550185	-0.381310	0.223584
C130	C	0.513957	-0.418033	0.179221
C131	C	0.468763	-0.395311	0.129856
C132	C	0.459796	-0.335863	0.124851
C133	C	0.496024	-0.299140	0.169213
H134	H	0.583642	-0.398134	0.260129
H135	H	0.520596	-0.462041	0.182927
H136	H	0.441945	-0.422495	0.097016
H137	H	0.426339	-0.319040	0.088305
H138	H	0.489385	-0.255133	0.165507
C139	C	0.541490	-0.181637	0.387976
C140	C	0.496337	-0.140547	0.360795
C141	C	0.460252	-0.103815	0.405164
C142	C	0.469321	-0.108173	0.476716
C143	C	0.514476	-0.149265	0.503901
C144	C	0.550561	-0.185997	0.459531
H145	H	0.489622	-0.137319	0.307825
H146	H	0.426825	-0.073396	0.385040
H147	H	0.442609	-0.080982	0.509561
H148	H	0.521191	-0.152492	0.556871
H149	H	0.583988	-0.216416	0.479656
C150	C	0.278434	-0.321827	0.218605
C151	C	0.242207	-0.358550	0.174248
C152	C	0.278292	-0.395286	0.129883
C153	C	0.350605	-0.395299	0.129876
C154	C	0.386837	-0.358574	0.174235
C155	C	0.350751	-0.321838	0.218599
H156	H	0.188673	-0.358542	0.174252
H157	H	0.251471	-0.422472	0.097046
H158	H	0.377318	-0.422493	0.097035
H159	H	0.440370	-0.358583	0.174231
H160	H	0.377572	-0.294653	0.251436
H161	H	0.836523	-0.549867	0.376252
H162	H	0.836622	-0.312341	0.662786
H163	H	0.836609	-0.312375	0.543516
C164	C	0.994331	-0.181321	1.073081
C165	C	1.038651	-0.144549	1.036943
C166	C	1.082971	-0.107750	1.073117
C167	C	1.082970	-0.107724	1.145430
C168	C	1.038649	-0.144497	1.181572
C169	C	0.994329	-0.181296	1.145398
H170	H	1.038653	-0.144567	0.983409
H171	H	1.115781	-0.080528	1.046362
H172	H	1.115778	-0.080483	1.172209
H173	H	1.038647	-0.144479	1.235106
H174	H	0.961519	-0.208518	1.172153
H175	H	0.836626	-0.312226	1.063625
C176	C	0.825116	-0.321826	0.934960
C177	C	0.753559	-0.317565	0.943979
C178	C	0.709235	-0.354365	0.907812
C179	C	0.736466	-0.395424	0.862626
C180	C	0.808026	-0.399686	0.853605
C181	C	0.852351	-0.362887	0.889773
H182	H	0.733398	-0.287169	0.977430
H183	H	0.656261	-0.351210	0.914489
H184	H	0.703654	-0.422666	0.835853
H185	H	0.828188	-0.430082	0.820155
H186	H	0.905324	-0.366042	0.883095
C187	C	0.679546	-0.181658	0.387966
C188	C	0.643459	-0.144927	0.432330
C189	C	0.679685	-0.108202	0.476691
C190	C	0.751998	-0.108208	0.476688
C191	C	0.788089	-0.144940	0.432321
C192	C	0.751862	-0.181665	0.387960
H193	H	0.589925	-0.144922	0.432334
H194	H	0.652968	-0.081011	0.509534
H195	H	0.778815	-0.081022	0.509526
H196	H	0.841623	-0.144945	0.432317
H197	H	0.778579	-0.208857	0.355118
H198	H	0.149788	-0.312264	0.230134
C199	C	0.278712	-0.181593	0.387989
C200	C	0.323904	-0.204310	0.437359
C201	C	0.360138	-0.167583	0.481712
C202	C	0.351180	-0.108139	0.476694
C203	C	0.305986	-0.085418	0.427322
C204	C	0.269752	-0.122145	0.382969
H205	H	0.330537	-0.248318	0.441076
H206	H	0.393593	-0.184403	0.518261
H207	H	0.378002	-0.080951	0.509527
H208	H	0.299353	-0.041410	0.423606
H209	H	0.236297	-0.105325	0.346421
C210	C	0.994133	-0.442891	0.218790
C211	C	0.989037	-0.450437	0.147226
C212	C	1.033334	-0.420379	0.102976
C213	C	1.082726	-0.382776	0.130290
C214	C	1.087824	-0.375229	0.201858
C215	C	1.043527	-0.405286	0.246108
H216	H	0.952473	-0.478274	0.127003
H217	H	1.029559	-0.425967	0.049996
H218	H	1.115516	-0.360526	0.097533
H219	H	1.124388	-0.347391	0.222081
H220	H	1.047301	-0.399699	0.299088
H221	H	0.982683	-0.549753	0.230301
C222	C	0.784861	-0.808855	0.428014
C223	C	0.735457	-0.846452	0.400710
C224	C	0.691159	-0.876499	0.444969
C225	C	0.696266	-0.868949	0.516532
C226	C	0.745672	-0.831350	0.543840
C227	C	0.789970	-0.801303	0.499581
H228	H	0.731675	-0.852043	0.347732
H229	H	0.654586	-0.904332	0.424754
H230	H	0.663474	-0.891191	0.549296
H231	H	0.749454	-0.825759	0.596819
H232	H	0.826544	-0.773470	0.519797
H233	H	1.023022	-0.701849	0.190101
H234	H	1.023069	-0.800897	0.190117
H235	H	0.982853	-0.953048	0.230349
H236	H	0.982892	-1.052114	0.230369
C237	C	0.784818	-0.694201	0.427994
C238	C	0.713263	-0.701791	0.422793
C239	C	0.668941	-0.671793	0.467034
C240	C	0.696175	-0.634207	0.516476
C241	C	0.767734	-0.626616	0.521680
C242	C	0.812056	-0.656613	0.477438
H243	H	0.693099	-0.729616	0.386190
H244	H	0.615968	-0.677413	0.463182
H245	H	0.663366	-0.612001	0.549226
H246	H	0.787898	-0.598790	0.558282
H247	H	0.865029	-0.650993	0.481290
H248	H	0.836733	-1.052204	0.376307
H249	H	0.836698	-0.953154	0.376303
