data_functionalizedCrystal
_audit_creation_method	'MofGen! by Chris Wilmer'
_symmetry_space_group_name_H-M	'P1'
_symmetry_Int_Tables_number	1
_symmetry_cell_setting	triclinic
loop_
_symmetry_equiv_pos_as_xyz
  x,y,z
_cell_length_a	14.853567
_cell_length_b	14.519709
_cell_length_c	13.330367
_cell_angle_alpha	89.994415
_cell_angle_beta	89.995418
_cell_angle_gamma	83.657538
loop_
_atom_site_label
_atom_site_type_symbol
_atom_site_fract_x
_atom_site_fract_y
_atom_site_fract_z
O1	O	1.196416	0.120405	-0.083357
O2	O	0.933962	0.134748	-0.083374
O3	O	1.072147	-0.006665	-0.083356
O4	O	1.058230	0.261818	-0.083375
O5	O	1.072127	-0.006668	0.083491
O6	O	0.933942	0.134745	0.083473
O7	O	1.196395	0.120402	0.083491
Cu8	Cu	1.065167	0.127573	0.098716
Cu9	Cu	1.065190	0.127577	-0.098600
O10	O	1.058210	0.261814	0.083472
C11	C	0.900363	0.134096	0.000047
C12	C	0.800278	0.132149	0.000041
C13	C	0.387709	0.039914	0.000070
C14	C	0.366493	0.207916	0.000057
C15	C	0.460527	0.209747	0.000054
C16	C	0.518157	0.126660	0.000057
C17	C	0.481752	0.041743	0.000064
C18	C	0.496939	0.294663	0.000037
C19	C	0.590979	0.296498	0.000033
C20	C	0.648610	0.213410	0.000043
C21	C	0.612200	0.128489	0.000051
C22	C	0.669830	0.045403	0.000054
C23	C	0.633422	-0.039520	0.000069
C24	C	0.539383	-0.041345	0.000074
C25	C	0.742649	0.215235	0.000038
C26	C	0.763873	0.047231	0.000048
C27	C	1.071488	-0.041026	0.000068
C28	C	1.069545	-0.143407	0.000068
C29	C	1.062390	-0.518299	0.000042
C30	C	1.064377	-0.413992	0.000050
C31	C	1.065967	-0.330856	0.000056
C32	C	1.067955	-0.226543	0.000062
C33	C	1.229994	0.121053	0.000067
C34	C	1.330079	0.123001	0.000067
C35	C	1.058869	0.296175	0.000046
C36	C	1.060812	0.398556	0.000039
N37	N	1.065157	0.127570	0.237498
N38	N	1.065208	0.127572	-0.237381
C39	C	1.003999	0.190170	0.710113
C40	C	1.126406	0.064976	0.710097
C41	C	1.126396	0.064974	0.605078
C42	C	1.065187	0.127571	0.552572
C43	C	1.003989	0.190170	0.605085
C44	C	1.187599	0.002381	0.552558
C45	C	1.187592	0.002376	0.447534
C46	C	1.126378	0.064970	0.395026
C47	C	1.065177	0.127572	0.447544
C48	C	1.003968	0.190169	0.395038
C49	C	0.942762	0.252767	0.447555
C50	C	0.942775	0.252764	0.552577
C51	C	1.126365	0.064973	0.290004
C52	C	1.003958	0.190170	0.290010
H53	H	0.810790	-0.020429	0.000054
H54	H	0.680356	-0.107168	0.000065
O55	O	1.185815	0.004044	0.760992
C56	C	1.170988	-0.087276	0.735366
H57	H	1.136239	-0.087226	0.659116
H58	H	1.126063	-0.115867	0.794483
C59	C	1.305095	-0.148534	0.824169
C60	C	1.262423	-0.148474	0.730513
H61	H	1.361496	-0.186286	0.821180
H62	H	1.315084	-0.087011	0.841438
H63	H	1.267649	-0.172358	0.873424
H64	H	1.299865	-0.124640	0.681264
H65	H	1.252444	-0.209995	0.713236
O66	O	0.777911	0.297774	-0.000111
C67	C	0.748502	0.348416	-0.086543
H68	H	0.683242	0.323203	-0.115347
H69	H	0.802903	0.337796	-0.147051
C70	C	0.811200	0.483104	-0.024933
C71	C	0.731042	0.452143	-0.060305
H72	H	0.800434	0.547089	-0.008751
H73	H	0.831017	0.448986	0.033297
H74	H	0.856527	0.474247	-0.075362
H75	H	0.685722	0.460990	-0.009872
H76	H	0.711218	0.486266	-0.118526
O77	O	1.247003	-0.058553	0.603459
C78	C	1.232178	-0.149872	0.577824
H79	H	1.197441	-0.149819	0.501567
H80	H	1.187244	-0.178464	0.636931
C81	C	1.366272	-0.211134	0.666650
C82	C	1.323614	-0.211071	0.572986
H83	H	1.422673	-0.248887	0.663670
H84	H	1.376258	-0.149612	0.683924
H85	H	1.328818	-0.234960	0.715896
H86	H	1.361063	-0.187235	0.523745
H87	H	1.313637	-0.272591	0.555703
H88	H	0.509731	-0.110484	0.000110
O89	O	0.883273	0.313662	0.396701
C90	C	0.829235	0.368896	0.465565
H91	H	0.866193	0.370011	0.540428
H92	H	0.762220	0.338824	0.476741
C93	C	0.765416	0.466982	0.332618
C94	C	0.810812	0.468356	0.424563
H95	H	0.754048	0.528332	0.307325
H96	H	0.801820	0.429768	0.286222
H97	H	0.709575	0.441917	0.341943
H98	H	0.866656	0.493410	0.415234
H99	H	0.774417	0.505577	0.470956
O100	O	0.310551	0.288645	-0.000127
C101	C	0.327094	0.340208	-0.086530
H102	H	0.359161	0.291564	-0.146923
H103	H	0.375059	0.393650	-0.066996
C104	C	0.197672	0.449796	-0.051539
C105	C	0.237050	0.390050	-0.125719
H106	H	0.142129	0.480544	-0.075711
H107	H	0.186528	0.415059	0.006674
H108	H	0.237651	0.494322	-0.035268
H109	H	0.197075	0.345518	-0.141979
H110	H	0.248185	0.424780	-0.183936
H111	H	0.954111	0.241141	0.247266
O112	O	0.441089	0.375453	-0.000017
C113	C	0.493386	0.450797	-0.000011
H114	H	0.563532	0.427477	-0.031601
H115	H	0.500122	0.476826	0.080028
C116	C	0.360503	0.558080	-0.026656
C117	C	0.446655	0.529440	-0.065462
H118	H	0.331676	0.606593	-0.067025
H119	H	0.325269	0.507320	-0.026656
H120	H	0.366128	0.579765	0.040043
H121	H	0.441028	0.507744	-0.132155
H122	H	0.481887	0.580198	-0.065475
O123	O	1.246830	-0.058642	0.396518
C124	C	1.198297	-0.115626	0.335961
H125	H	1.127895	-0.078871	0.320138
H126	H	1.191868	-0.183663	0.376633
C127	C	1.335539	-0.180761	0.255681
C128	C	1.249072	-0.135614	0.236239
H129	H	1.366860	-0.193094	0.194169
H130	H	1.368238	-0.142372	0.296481
H131	H	1.330169	-0.237454	0.289576
H132	H	1.254443	-0.078917	0.202356
H133	H	1.216375	-0.173994	0.195431
H134	H	0.358060	-0.029228	0.000086
O135	O	0.883293	0.313443	0.603705
C136	C	0.827596	0.263947	0.664458
H137	H	0.863390	0.191847	0.680185
H138	H	0.760951	0.257561	0.624007
C139	C	0.764471	0.404459	0.744906
C140	C	0.808436	0.315906	0.764229
H141	H	0.752648	0.436510	0.806448
H142	H	0.801992	0.437806	0.703973
H143	H	0.708938	0.399124	0.711195
H144	H	0.863973	0.321242	0.797928
H145	H	0.770924	0.282561	0.805170
O146	O	1.185700	0.004155	0.238867
C147	C	1.137348	-0.052855	0.178140
H148	H	1.066849	-0.016281	0.162430
H149	H	1.131151	-0.121043	0.218605
C150	C	1.274722	-0.117347	0.097658
C151	C	1.188137	-0.072422	0.078356
H152	H	1.306052	-0.129421	0.036109
H153	H	1.307299	-0.078941	0.138574
H154	H	1.269546	-0.174165	0.131382
H155	H	1.193314	-0.015601	0.044645
H156	H	1.155562	-0.110820	0.037432
H157	H	0.620614	0.365646	0.000020
H158	H	0.954163	0.241134	0.752874
