data_functionalizedCrystal
_audit_creation_method	'MofGen! by Chris Wilmer'
_symmetry_space_group_name_H-M	'P1'
_symmetry_Int_Tables_number	1
_symmetry_cell_setting	triclinic
loop_
_symmetry_equiv_pos_as_xyz
  x,y,z
_cell_length_a	16.120490
_cell_length_b	16.120444
_cell_length_c	17.077396
_cell_angle_alpha	92.869489
_cell_angle_beta	87.084783
_cell_angle_gamma	90.165174
loop_
_atom_site_label
_atom_site_type_symbol
_atom_site_fract_x
_atom_site_fract_y
_atom_site_fract_z
Zn1	Zn	1.254466	-0.395674	-0.522512
Zn2	Zn	1.754466	0.104326	-0.022512
Zn3	Zn	1.247307	-0.534735	-0.397540
Zn4	Zn	1.747307	-0.034735	0.102460
Zn5	Zn	1.115406	-0.388634	-0.384296
Zn6	Zn	1.615406	0.111366	0.115704
Zn7	Zn	1.108316	-0.527620	-0.521799
Zn8	Zn	1.608316	-0.027620	-0.021799
O9	O	1.181374	-0.461666	-0.456537
O10	O	1.681374	0.038334	0.043463
O11	O	1.369882	-0.420045	-0.511776
O12	O	1.869882	0.079955	-0.011776
O13	O	1.229782	-0.515386	-0.285936
O14	O	1.729782	-0.015386	0.214064
O15	O	1.139816	-0.273205	-0.397387
O16	O	1.639816	0.226795	0.102613
O17	O	1.364622	-0.522212	-0.419958
O18	O	1.864622	-0.022212	0.080042
O19	O	1.241983	-0.278377	-0.498934
O20	O	1.741983	0.221623	0.001066
O21	O	1.132875	-0.408046	-0.276206
O22	O	1.632875	0.091954	0.223794
O23	O	0.998100	-0.401147	-0.396695
O24	O	1.498100	0.098853	0.103305
O25	O	1.127732	-0.510085	-0.631740
O26	O	1.627732	-0.010085	-0.131740
O27	O	0.992891	-0.503259	-0.497718
O28	O	1.492891	-0.003259	0.002282
O29	O	1.235108	-0.413146	-0.632265
O30	O	1.735108	0.086854	-0.132265
O31	O	1.222906	-0.650154	-0.419266
O32	O	1.722906	-0.150154	0.080734
O33	O	1.120790	-0.644927	-0.510559
O34	O	1.620790	-0.144927	-0.010559
C35	C	0.965323	-0.450668	-0.445693
C36	C	1.465323	0.049332	0.054307
C37	C	0.872895	-0.445983	-0.441073
C38	C	1.372895	0.054017	0.058927
C39	C	0.659924	-0.485961	-0.480501
C40	C	1.159924	0.014039	0.019499
C41	C	0.703671	-0.437437	-0.432638
C42	C	1.203671	0.062563	0.067362
C43	C	0.797836	-0.442193	-0.437332
C44	C	1.297836	0.057807	0.062668
C45	C	0.565751	-0.481206	-0.475807
C46	C	1.065751	0.018794	0.024193
C47	C	1.170325	-0.677713	-0.466291
C48	C	1.670325	-0.177713	0.033709
C49	C	1.165674	-0.770143	-0.470493
C50	C	1.665674	-0.270143	0.029507
C51	C	1.205704	-0.983119	-0.434914
C52	C	1.705704	-0.483119	0.065086
C53	C	1.157198	-0.939369	-0.478176
C54	C	1.657198	-0.439369	0.021824
C55	C	1.161915	-0.845203	-0.473900
C56	C	1.661915	-0.345203	0.026100
C57	C	1.200988	-1.077294	-0.439189
C58	C	1.700988	-0.577294	0.060811
C59	C	1.398268	-0.472707	-0.467424
C60	C	1.898268	0.027293	0.032576
C61	C	1.490696	-0.477413	-0.472063
C62	C	1.990696	0.022587	0.027937
C63	C	1.181427	-0.461607	-0.661281
C64	C	1.681427	0.038393	-0.161281
C65	C	1.181450	-0.461582	-0.748531
C66	C	1.681450	0.038418	-0.248531
C67	C	1.192489	-0.244776	-0.446763
C68	C	1.692489	0.255224	0.053237
C69	C	1.197226	-0.152350	-0.442598
C70	C	1.697226	0.347650	0.057402
C71	C	1.237363	-0.411101	-0.789795
C72	C	1.737363	0.088899	-0.289795
C73	C	1.237374	-0.411074	-0.871775
C74	C	1.737374	0.088926	-0.371775
C75	C	1.181476	-0.461533	-0.912489
C76	C	1.681476	0.038467	-0.412489
C77	C	1.125557	-0.512016	-0.871219
C78	C	1.625557	-0.012016	-0.371219
C79	C	1.125543	-0.512038	-0.789240
C80	C	1.625543	-0.012038	-0.289240
C81	C	1.125593	-0.511967	-1.042088
C82	C	1.625593	-0.011967	-0.542088
C83	C	1.125609	-0.511947	-1.124073
C84	C	1.625609	-0.011947	-0.624073
C85	C	1.237425	-0.411004	-1.124623
C86	C	1.737425	0.088996	-0.624623
C87	C	1.237410	-0.411026	-1.042644
C88	C	1.737410	0.088974	-0.542644
C89	C	1.181492	-0.461510	-1.001380
C90	C	1.681492	0.038490	-0.501380
C91	C	1.181372	-0.461667	-0.252589
C92	C	1.681372	0.038333	0.247411
C93	C	1.181522	-0.461466	-0.165337
C94	C	1.681522	0.038534	0.334663
H95	H	1.250771	-0.949857	-0.394667
H96	H	1.750771	-0.449857	0.105333
C97	C	1.096302	-0.984304	-0.532544
C98	C	1.596302	-0.484304	-0.032544
C99	C	1.103606	-0.972737	-0.621594
C100	C	1.603606	-0.472737	-0.121594
C101	C	1.042711	-1.017676	-0.675957
C102	C	1.542711	-0.517676	-0.175957
C103	C	0.974512	-1.074183	-0.641268
C104	C	1.474512	-0.574183	-0.141268
C105	C	0.967205	-1.085753	-0.552212
C106	C	1.467205	-0.585753	-0.052212
C107	C	1.028101	-1.040814	-0.497850
C108	C	1.528101	-0.540814	0.002150
H109	H	1.154093	-0.930905	-0.647277
H110	H	1.654093	-0.430905	-0.147277
H111	H	1.048120	-1.009111	-0.741881
H112	H	1.548120	-0.509111	-0.241881
H113	H	0.929434	-1.107450	-0.681510
H114	H	1.429434	-0.607450	-0.181510
H115	H	0.916718	-1.127585	-0.526529
H116	H	1.416718	-0.627585	-0.026529
H117	H	1.022692	-1.049379	-0.431925
H118	H	1.522692	-0.549379	0.068075
H119	H	0.670405	-0.392322	-0.388135
H120	H	1.170405	0.107678	0.111865
C121	C	0.704859	-0.546912	-0.540613
C122	C	1.204859	-0.046912	-0.040613
C123	C	0.688197	-0.640848	-0.537741
C124	C	1.188197	-0.140848	-0.037741
C125	C	0.733143	-0.701801	-0.597849
C126	C	1.233143	-0.201801	-0.097849
C127	C	0.794752	-0.668817	-0.660828
C128	C	1.294752	-0.168817	-0.160828
C129	C	0.811417	-0.574876	-0.663702
C130	C	1.311417	-0.074876	-0.163702
C131	C	0.766471	-0.513924	-0.603594
C132	C	1.266471	-0.013924	-0.103594
H133	H	0.642587	-0.665269	-0.491119
H134	H	1.142587	-0.165269	0.008881
H135	H	0.720806	-0.771342	-0.595721
H136	H	1.220806	-0.271342	-0.095721
H137	H	0.828025	-0.713938	-0.705323
H138	H	1.328025	-0.213938	-0.205323
H139	H	0.857027	-0.550455	-0.710325
H140	H	1.357027	-0.050455	-0.210325
H141	H	0.778808	-0.444382	-0.605722
H142	H	1.278808	0.055618	-0.105722
H143	H	1.282884	-0.370015	-0.756652
H144	H	1.782884	0.129985	-0.256652
C145	C	1.298881	-0.355542	-0.917162
C146	C	1.798881	0.144458	-0.417162
C147	C	1.393063	-0.367148	-0.910949
C148	C	1.893063	0.132852	-0.410949
C149	C	1.454572	-0.311610	-0.956333
C150	C	1.954572	0.188390	-0.456333
C151	C	1.421898	-0.244467	-1.007931
C152	C	1.921898	0.255533	-0.507931
C153	C	1.327711	-0.232859	-1.014147
C154	C	1.827711	0.267141	-0.514147
C155	C	1.266203	-0.288396	-0.968762
C156	C	1.766203	0.211604	-0.468762
H157	H	1.417255	-0.416854	-0.872751
H158	H	1.917255	0.083146	-0.372751
H159	H	1.524295	-0.320204	-0.951732
H160	H	2.024295	0.179796	-0.451732
H161	H	1.467430	-0.203355	-1.041528
H162	H	1.967430	0.296645	-0.541528
H163	H	1.303520	-0.183153	-1.052345
H164	H	1.803520	0.316847	-0.552345
H165	H	1.196479	-0.279803	-0.973363
H166	H	1.696479	0.220197	-0.473363
H167	H	1.282932	-0.369943	-1.009497
H168	H	1.782932	0.130057	-0.509497
H169	H	1.282954	-0.369896	-1.158224
H170	H	1.782954	0.130104	-0.658224
C171	C	1.064074	-0.567522	-0.916009
C172	C	1.564074	-0.067522	-0.416009
C173	C	1.096782	-0.634623	-0.977116
C174	C	1.596782	-0.134623	-0.477116
C175	C	1.035302	-0.690134	-1.021907
C176	C	1.535302	-0.190134	-0.521907
C177	C	0.941113	-0.678544	-1.005591
C178	C	1.441113	-0.178544	-0.505591
C179	C	0.908400	-0.611440	-0.944481
C180	C	1.408400	-0.111440	-0.444481
C181	C	0.969880	-0.555929	-0.899690
C182	C	1.469880	-0.055929	-0.399690
H183	H	1.166511	-0.643206	-0.989196
H184	H	1.666511	-0.143206	-0.489196
H185	H	1.059519	-0.739809	-1.067144
H186	H	1.559519	-0.239809	-0.567144
H187	H	0.895602	-0.719636	-1.038748
H188	H	1.395602	-0.219636	-0.538748
H189	H	0.838671	-0.602858	-0.932401
H190	H	1.338671	-0.102858	-0.432401
H191	H	0.945663	-0.506254	-0.854452
H192	H	1.445663	-0.006254	-0.354452
C193	C	1.064149	-0.567481	-1.168863
C194	C	1.564149	-0.067481	-0.668863
C195	C	1.002658	-0.623030	-1.123480
C196	C	1.502658	-0.123030	-0.623480
C197	C	0.941212	-0.678582	-1.168272
C198	C	1.441212	-0.178582	-0.668272
C199	C	0.941258	-0.678584	-1.258448
C200	C	1.441258	-0.178584	-0.758448
C201	C	1.002752	-0.623033	-1.303837
C202	C	1.502752	-0.123033	-0.803837
C203	C	1.064197	-0.567482	-1.259044
C204	C	1.564197	-0.067482	-0.759044
H205	H	1.002621	-0.623030	-1.056722
H206	H	1.502621	-0.123030	-0.556722
H207	H	0.895691	-0.719704	-1.134672
H208	H	1.395691	-0.219704	-0.634672
H209	H	0.895773	-0.719707	-1.291606
H210	H	1.395773	-0.219707	-0.791606
H211	H	1.002788	-0.623034	-1.370595
H212	H	1.502788	-0.123034	-0.870595
H213	H	1.109719	-0.526359	-1.292645
H214	H	1.609719	-0.026359	-0.792645
C215	C	1.064045	-0.567573	-0.743843
C216	C	1.564045	-0.067573	-0.243843
C217	C	1.000596	-0.528235	-0.682579
C218	C	1.500596	-0.028235	-0.182579
C219	C	0.939096	-0.583770	-0.637182
C220	C	1.439096	-0.083770	-0.137182
C221	C	0.941045	-0.678643	-0.653049
C222	C	1.441045	-0.178643	-0.153049
C223	C	1.004496	-0.717987	-0.714316
C224	C	1.504496	-0.217987	-0.214316
C225	C	1.065996	-0.662451	-0.759713
C226	C	1.565996	-0.162451	-0.259713
H227	H	0.999151	-0.458000	-0.670831
H228	H	1.499151	0.042000	-0.170831
H229	H	0.892125	-0.554645	-0.591827
H230	H	1.392125	-0.054645	-0.091827
H231	H	0.895519	-0.719754	-0.619443
H232	H	1.395519	-0.219754	-0.119443
H233	H	1.005941	-0.788222	-0.726065
H234	H	1.505941	-0.288222	-0.226065
H235	H	1.112967	-0.691576	-0.805068
H236	H	1.612967	-0.191576	-0.305068
H237	H	1.080047	-0.553063	-1.008492
H238	H	1.580047	-0.053063	-0.508492
