data_functionalizedCrystal
_audit_creation_method	'MofGen! by Chris Wilmer'
_symmetry_space_group_name_H-M	'P1'
_symmetry_Int_Tables_number	1
_symmetry_cell_setting	triclinic
loop_
_symmetry_equiv_pos_as_xyz
  x,y,z
_cell_length_a	14.971486
_cell_length_b	11.792241
_cell_length_c	14.048226
_cell_angle_alpha	89.993434
_cell_angle_beta	89.998499
_cell_angle_gamma	83.903772
loop_
_atom_site_label
_atom_site_type_symbol
_atom_site_fract_x
_atom_site_fract_y
_atom_site_fract_z
O1	O	1.187540	0.147909	-0.079051
O2	O	0.927210	0.165622	-0.079077
O3	O	1.063692	-0.008446	-0.079057
O4	O	1.051058	0.321977	-0.079072
O5	O	1.063676	-0.008456	0.079264
O6	O	0.927194	0.165611	0.079244
O7	O	1.187523	0.147899	0.079270
Zn8	Zn	1.057356	0.156753	0.104394
Zn9	Zn	1.057378	0.156767	-0.104201
O10	O	1.051041	0.321966	0.079250
C11	C	0.893874	0.164824	0.000080
C12	C	0.794568	0.162451	0.000070
C13	C	0.737752	0.264710	0.000067
C14	C	0.644444	0.262473	0.000081
C15	C	0.607953	0.157975	0.000092
C16	C	0.664776	0.055707	0.000098
C17	C	0.758082	0.057946	0.000091
C18	C	0.470294	0.051049	0.000111
C19	C	0.376981	0.048810	0.000117
C20	C	0.356656	0.255577	0.000102
C21	C	0.449963	0.257815	0.000095
C22	C	0.506779	0.155547	0.000099
C23	C	1.062891	-0.050737	0.000103
C24	C	1.060515	-0.176735	0.000102
C25	C	1.056147	-0.407419	0.000086
C26	C	1.058574	-0.279050	0.000095
C27	C	1.220859	0.148696	0.000110
C28	C	1.320166	0.151070	0.000114
C29	C	1.051843	0.364257	0.000087
C30	C	1.054218	0.490256	0.000082
N31	N	1.057347	0.156744	0.246754
N32	N	1.057393	0.156768	-0.246562
C33	C	1.117801	0.079698	0.296582
C34	C	1.117807	0.079698	0.396239
C35	C	1.057363	0.156749	0.446068
C36	C	0.996903	0.233797	0.396234
C37	C	0.996894	0.233792	0.296578
C38	C	0.996929	0.233806	0.603948
C39	C	0.996940	0.233813	0.703611
C40	C	1.117843	0.079712	0.703609
C41	C	1.117833	0.079706	0.603953
C42	C	1.057374	0.156757	0.554126
H43	H	0.347274	-0.036282	0.000127
H44	H	0.635057	-0.029377	0.000120
O45	O	0.938341	0.308766	0.752054
C46	C	0.986572	0.378886	0.809699
H47	H	1.057114	0.380964	0.779657
H48	H	0.991100	0.343380	0.885231
C49	C	0.851209	0.498085	0.848116
C50	C	0.937847	0.500645	0.811213
H51	H	0.821152	0.573191	0.849054
H52	H	0.818714	0.450842	0.809282
H53	H	0.854995	0.468492	0.911056
H54	H	0.934060	0.530225	0.748270
H55	H	0.970341	0.547896	0.850036
O56	O	0.813148	-0.041495	0.000046
C57	C	0.760934	-0.134209	0.000079
H58	H	0.691440	-0.105496	-0.029891
H59	H	0.754140	-0.166240	0.076036
C60	C	0.892306	-0.266270	-0.025197
C61	C	0.806954	-0.231006	-0.062015
H62	H	0.920694	-0.325982	-0.063496
H63	H	0.927484	-0.203808	-0.025216
H64	H	0.886632	-0.292955	0.038099
H65	H	0.812630	-0.204310	-0.125306
H66	H	0.771778	-0.293467	-0.062009
O67	O	1.176551	0.004741	0.248330
C68	C	1.229923	-0.063243	0.313684
H69	H	1.193252	-0.064596	0.384727
H70	H	1.296545	-0.026250	0.324268
C71	C	1.292806	-0.183986	0.187551
C72	C	1.247762	-0.185656	0.274805
H73	H	1.303814	-0.259495	0.163568
H74	H	1.256851	-0.138182	0.143520
H75	H	1.348319	-0.153153	0.196383
H76	H	1.192246	-0.216475	0.265969
H77	H	1.283709	-0.231468	0.318834
H78	H	1.167032	0.016961	0.436808
H79	H	1.167070	0.016974	0.744184
H80	H	0.479670	0.342907	0.000077
H81	H	1.167055	0.016971	0.563383
H82	H	0.947694	0.296545	0.563382
O83	O	0.938150	0.308488	0.444742
C84	C	0.882672	0.247589	0.502388
H85	H	0.917872	0.158850	0.517323
H86	H	0.816526	0.239736	0.463995
C87	C	0.820644	0.420535	0.578702
C88	C	0.863880	0.311548	0.597053
H89	H	0.809048	0.459989	0.637094
H90	H	0.858018	0.461565	0.539863
H91	H	0.765528	0.413975	0.546706
H92	H	0.919000	0.318109	0.629037
H93	H	0.826515	0.270520	0.635900
O94	O	0.525359	-0.048399	0.000068
C95	C	0.473146	-0.141113	0.000097
H96	H	0.403650	-0.112397	-0.029867
H97	H	0.466357	-0.173152	0.076052
C98	C	0.604515	-0.273171	-0.025197
C99	C	0.519162	-0.237903	-0.062007
H100	H	0.632901	-0.332879	-0.063501
H101	H	0.639694	-0.210709	-0.025213
H102	H	0.598846	-0.299863	0.038098
H103	H	0.524833	-0.211199	-0.125296
H104	H	0.483985	-0.300364	-0.062003
O105	O	0.301341	0.354817	0.000140
C106	C	0.211161	0.330439	0.000127
H107	H	0.207153	0.241290	0.030117
H108	H	0.184198	0.334697	-0.075826
C109	C	0.159413	0.527980	0.025370
C110	C	0.154489	0.418489	0.062211
H111	H	0.124454	0.582295	0.063662
H112	H	0.220169	0.544405	0.025375
H113	H	0.136946	0.531512	-0.037924
H114	H	0.176967	0.414954	0.125499
H115	H	0.093736	0.402065	0.062219
O116	O	0.938261	0.308793	0.248215
C117	C	0.953326	0.421182	0.272564
H118	H	1.024941	0.421892	0.299948
H119	H	0.903916	0.454417	0.330412
C120	C	0.851828	0.497221	0.150393
C121	C	0.939789	0.498095	0.184019
H122	H	0.843474	0.544667	0.095776
H123	H	0.841675	0.421503	0.133990
H124	H	0.810663	0.524915	0.198608
H125	H	0.980951	0.470388	0.135809
H126	H	0.949949	0.573810	0.200411
O127	O	0.773047	0.366321	0.000098
C128	C	0.702887	0.456097	0.000076
H129	H	0.639357	0.424189	0.030056
H130	H	0.689833	0.487651	-0.075880
C131	C	0.807727	0.593829	0.025333
C132	C	0.729701	0.554642	0.062164
H133	H	0.824268	0.654619	0.063628
H134	H	0.854997	0.533346	0.025344
H135	H	0.796839	0.620116	-0.037962
H136	H	0.740594	0.528343	0.125453
H137	H	0.682434	0.615123	0.062164
H138	H	0.598187	0.345744	0.000078
