data_functionalizedCrystal
_audit_creation_method	'MofGen! by Chris Wilmer'
_symmetry_space_group_name_H-M	'P1'
_symmetry_Int_Tables_number	1
_symmetry_cell_setting	triclinic
loop_
_symmetry_equiv_pos_as_xyz
  x,y,z
_cell_length_a	10.967926
_cell_length_b	19.188930
_cell_length_c	10.065875
_cell_angle_alpha	98.754308
_cell_angle_beta	93.120479
_cell_angle_gamma	83.946584
loop_
_atom_site_label
_atom_site_type_symbol
_atom_site_fract_x
_atom_site_fract_y
_atom_site_fract_z
O1	O	1.612253	0.121734	0.265677
O2	O	1.262199	0.123728	0.183344
O3	O	1.447324	0.021359	0.226912
O4	O	1.427128	0.224103	0.222109
O5	O	1.412022	0.040961	0.445593
O6	O	1.226897	0.143330	0.402024
O7	O	1.576952	0.141337	0.484358
Zn8	Zn	1.396320	0.145446	0.477911
Zn9	Zn	1.442831	0.119619	0.189790
O10	O	1.391827	0.243706	0.440789
C11	C	1.199763	0.131903	0.282151
C12	C	1.066318	0.127049	0.250765
C13	C	0.988537	0.135039	0.350056
C14	C	0.850614	0.130023	0.317620
C15	C	1.429018	0.005131	0.336102
C16	C	1.427052	-0.072427	0.335652
C17	C	1.535679	-0.114328	0.361207
C18	C	1.533837	-0.187205	0.360752
C19	C	1.423358	-0.218176	0.334766
C20	C	1.314719	-0.176266	0.309200
C21	C	1.316566	-0.103392	0.309642
N22	N	1.326897	-0.321860	0.389325
N23	N	1.325149	-0.391087	0.388909
C24	C	1.417787	-0.437742	0.333429
N25	N	1.512255	-0.412553	0.278400
N26	N	1.514005	-0.343319	0.278823
C27	C	1.421343	-0.297195	0.334283
C28	C	1.524425	-0.558665	0.358491
C29	C	1.522580	-0.631544	0.358027
C30	C	1.303456	-0.620602	0.306487
C31	C	1.305306	-0.547726	0.306938
C32	C	1.415793	-0.516761	0.332948
C33	C	1.639388	0.133161	0.385548
C34	C	1.772834	0.138015	0.416925
C35	C	1.410133	0.259933	0.331596
C36	C	1.412100	0.337490	0.332038
N37	N	1.364586	0.163072	0.674548
N38	N	1.474574	0.101987	-0.006845
C39	C	1.431782	0.125747	0.758142
C40	C	1.407368	0.139318	0.909563
H41	H	1.625646	-0.089121	0.382382
H42	H	1.622298	-0.221327	0.381558
H43	H	1.213503	-0.645819	0.285322
H44	H	0.808344	0.148568	0.525952
Br45	Br	1.164784	-0.218298	0.273916
H46	H	1.024055	0.145590	0.459075
Br47	Br	1.674364	-0.516635	0.393801
Br48	Br	1.670018	-0.688412	0.392699
Br49	Br	1.007138	0.109448	0.069052
Br50	Br	1.169132	-0.046523	0.274953
Br51	Br	0.791440	0.112421	0.135900
Br52	Br	1.157875	-0.490857	0.272255
H53	H	1.507381	0.083741	0.717609
Br54	Br	1.281339	0.209324	0.977099
H55	H	1.550178	0.059979	0.952627
H56	H	1.288978	0.205071	0.715081
