data_functionalizedCrystal
_audit_creation_method	'MofGen! by Chris Wilmer'
_symmetry_space_group_name_H-M	'P1'
_symmetry_Int_Tables_number	1
_symmetry_cell_setting	triclinic
loop_
_symmetry_equiv_pos_as_xyz
  x,y,z
_cell_length_a	12.759401
_cell_length_b	12.759400
_cell_length_c	12.759393
_cell_angle_alpha	89.968231
_cell_angle_beta	89.982620
_cell_angle_gamma	90.014845
loop_
_atom_site_label
_atom_site_type_symbol
_atom_site_fract_x
_atom_site_fract_y
_atom_site_fract_z
Zn1	Zn	1.606244	-0.418198	-0.593981
Zn2	Zn	1.606142	-0.593917	-0.418301
Zn3	Zn	1.430549	-0.418253	-0.418321
Zn4	Zn	1.430535	-0.593836	-0.593943
O5	O	1.518367	-0.506051	-0.506137
O6	O	1.753251	-0.441518	-0.570685
O7	O	1.582812	-0.570672	-0.271283
O8	O	1.453905	-0.271225	-0.441647
O9	O	1.753176	-0.570618	-0.441614
O10	O	1.582987	-0.271184	-0.570704
O11	O	1.453805	-0.441613	-0.271297
O12	O	1.283526	-0.441534	-0.441609
O13	O	1.453879	-0.570480	-0.740969
O14	O	1.283516	-0.570533	-0.570638
O15	O	1.582972	-0.441439	-0.740997
O16	O	1.582798	-0.740927	-0.441577
O17	O	1.453780	-0.740868	-0.570620
C18	C	1.245400	-0.506032	-0.506122
C19	C	1.128623	-0.506049	-0.506141
C20	C	1.073783	-0.573326	-0.573215
C21	C	0.964059	-0.573340	-0.573227
C22	C	0.964025	-0.438795	-0.439081
C23	C	1.073747	-0.438777	-0.439075
C24	C	1.128659	-0.640598	-0.640281
C25	C	1.073819	-0.707882	-0.707360
C26	C	0.964095	-0.707895	-0.707371
C27	C	0.909211	-0.640625	-0.640304
C28	C	1.518305	-0.779018	-0.506115
C29	C	1.518374	-0.895795	-0.506140
C30	C	1.585629	-0.950653	-0.439022
C31	C	1.585693	-1.060377	-0.439054
C32	C	1.451240	-1.060375	-0.573327
C33	C	1.451182	-0.950653	-0.573299
C34	C	1.652821	-0.895795	-0.371864
C35	C	1.720080	-0.950654	-0.304739
C36	C	1.720144	-1.060378	-0.304771
C37	C	1.652950	-1.115243	-0.371929
C38	C	1.792401	-0.506071	-0.506152
C39	C	1.909177	-0.506080	-0.506158
C40	C	1.518436	-0.505944	-0.780170
C41	C	1.518465	-0.505898	-0.896947
C42	C	1.518459	-0.232018	-0.506182
C43	C	1.518497	-0.115241	-0.506201
C44	C	1.451319	-0.438685	-0.951822
C45	C	1.451351	-0.438653	-1.061546
C46	C	1.585683	-0.573052	-1.061510
C47	C	1.585645	-0.573088	-0.951788
C48	C	1.384139	-0.371495	-0.896981
C49	C	1.316989	-0.304275	-0.951857
C50	C	1.317021	-0.304244	-1.061581
C51	C	1.384203	-0.371432	-1.116430
C52	C	1.518360	-0.506082	-0.233169
C53	C	1.518534	-0.505831	-0.116393
H54	H	1.118399	-0.383986	-0.384466
H55	H	0.919447	-0.762674	-0.761998
H56	H	1.384220	-0.371404	-1.205774
H57	H	1.262286	-0.249578	-0.907192
O58	O	1.785500	-0.897410	-0.239619
C59	C	1.890215	-0.924133	-0.262656
H60	H	1.895495	-0.954217	-0.346602
H61	H	1.917742	-0.987849	-0.206371
C62	C	1.953797	-0.789667	-0.147349
C63	C	1.960283	-0.826608	-0.250456
H64	H	1.997020	-0.729511	-0.139820
H65	H	1.883249	-0.771665	-0.131825
H66	H	1.976735	-0.842773	-0.100457
H67	H	1.937333	-0.773507	-0.297345
H68	H	2.030829	-0.844599	-0.265988
H69	H	1.218002	-0.640597	-0.640277
H70	H	1.652773	-0.806452	-0.371827
O71	O	1.251643	-0.239005	-1.114769
C72	C	1.146915	-0.261980	-1.087966
H73	H	1.144702	-0.302395	-1.008292
H74	H	1.111522	-0.315969	-1.149706
C75	C	1.086031	-0.109912	-1.180771
C76	C	1.083312	-0.159543	-1.082910
H77	H	1.046795	-0.046726	-1.177656
H78	H	1.156587	-0.094435	-1.198832
H79	H	1.056539	-0.154914	-1.232210
H80	H	1.112816	-0.114546	-1.031475
H81	H	1.012759	-0.175009	-1.064839
H82	H	1.774917	-1.105040	-0.250123
H83	H	1.396418	-0.905987	-0.627954
H84	H	1.640381	-0.627752	-1.106176
O85	O	1.653117	-1.221830	-0.371801
C86	C	1.726912	-1.258489	-0.298184
H87	H	1.741621	-1.195300	-0.236793
H88	H	1.803508	-1.277854	-0.339916
C89	C	1.666114	-1.435341	-0.319728
C90	C	1.684174	-1.357734	-0.244321
H91	H	1.639756	-1.496563	-0.286505
H92	H	1.616400	-1.410645	-0.369328
H93	H	1.729950	-1.451466	-0.354498
H94	H	1.620338	-1.341601	-0.209561
H95	H	1.733878	-1.382430	-0.194713
O96	O	1.383940	-0.371426	-0.790397
C97	C	1.310270	-0.297693	-0.753756
H98	H	1.248910	-0.282950	-0.816989
H99	H	1.351956	-0.221098	-0.734309
C100	C	1.331732	-0.358640	-0.576922
C101	C	1.256364	-0.340540	-0.654583
H102	H	1.298484	-0.385066	-0.515744
H103	H	1.381368	-0.408313	-0.601606
H104	H	1.366465	-0.294806	-0.560729
H105	H	1.221642	-0.404375	-0.670784
H106	H	1.206721	-0.290878	-0.629899
H107	H	0.819867	-0.640632	-0.640328
H108	H	1.396533	-1.105055	-0.628002
O109	O	1.650814	-0.638525	-0.898587
C110	C	1.627801	-0.743226	-0.925354
H111	H	1.587450	-0.745374	-1.005026
H112	H	1.573740	-0.778619	-0.863600
C113	C	1.779756	-0.804247	-0.832533
C114	C	1.730205	-0.806885	-0.930392
H115	H	1.842922	-0.843518	-0.835637
H116	H	1.795259	-0.733709	-0.814496
H117	H	1.734694	-0.833739	-0.781082
H118	H	1.775261	-0.777382	-0.981838
H119	H	1.714712	-0.877421	-0.948438
H120	H	1.118513	-0.762645	-0.761970
H121	H	0.919330	-0.384027	-0.384477
