data_functionalizedCrystal
_audit_creation_method	'MofGen! by Chris Wilmer'
_symmetry_space_group_name_H-M	'P1'
_symmetry_Int_Tables_number	1
_symmetry_cell_setting	triclinic
loop_
_symmetry_equiv_pos_as_xyz
  x,y,z
_cell_length_a	20.016444
_cell_length_b	12.970454
_cell_length_c	12.970454
_cell_angle_alpha	60.000396
_cell_angle_beta	90.001560
_cell_angle_gamma	59.999918
loop_
_atom_site_label
_atom_site_type_symbol
_atom_site_fract_x
_atom_site_fract_y
_atom_site_fract_z
Zr1	Zr	0.643610	1.128476	-0.135241
O2	O	0.536935	1.343570	-0.299871
O3	O	0.676312	0.913385	-0.084774
O4	O	0.676313	1.128473	-0.299862
O5	O	0.536932	1.128483	0.084884
O6	O	0.786257	1.128467	-0.299854
O7	O	0.536933	1.128482	-0.084783
O8	O	0.786255	0.743714	0.084899
O9	O	0.536935	1.513236	-0.299869
O10	O	0.772309	1.001849	-0.063243
O11	O	0.690258	1.001854	0.063371
O12	O	0.690260	1.255093	-0.189867
O13	O	0.608209	1.255098	-0.063253
Zr14	Zr	0.818958	1.128468	0.135371
Zr15	Zr	0.818959	1.128466	-0.135228
Zr16	Zr	0.643609	1.128477	0.135358
Zr17	Zr	0.643611	1.399073	-0.135239
Zr18	Zr	0.818957	0.857870	0.135369
O19	O	0.786256	1.343558	0.084904
O20	O	0.786258	1.343556	-0.299852
O21	O	0.536933	1.343572	0.084885
O22	O	0.925633	0.913374	0.300001
O23	O	0.925635	0.913372	-0.084755
O24	O	0.676310	0.913387	0.299982
O25	O	0.925635	1.128461	-0.084753
O26	O	0.786255	1.128470	0.299992
O27	O	0.676310	1.128476	0.299984
O28	O	0.925634	1.128462	0.084913
O29	O	0.676314	1.513228	-0.299859
O30	O	0.786254	0.743715	0.299989
O31	O	0.925633	0.743708	0.299999
O32	O	0.925634	0.743707	0.084910
O33	O	0.536934	1.513237	-0.084780
O34	O	0.676313	1.513229	-0.084769
O35	O	0.772308	1.001851	0.189997
O36	O	0.854359	1.001846	0.063383
O37	O	0.772310	1.255089	-0.063241
O38	O	0.690259	1.255094	0.063373
C39	C	0.731283	0.789995	0.000062
C40	C	0.731283	0.675120	0.000061
C41	C	0.511949	1.128484	0.000048
C42	C	0.437509	1.128488	0.000043
C43	C	0.266254	1.128470	-0.093409
C44	C	0.196314	1.128461	-0.093401
C45	C	0.196320	1.128469	0.093549
C46	C	0.266262	1.128468	0.093544
C47	C	0.301225	1.128476	0.000058
C48	C	0.161343	1.128468	0.000072
C49	C	0.085510	1.128458	0.000082
C50	C	0.377063	1.128483	0.000049
C51	C	0.950618	1.128460	0.000082
C52	C	1.025058	1.128456	0.000087
C53	C	0.731285	1.128470	-0.338412
C54	C	0.731286	1.128469	-0.453289
C55	C	0.731285	1.466948	0.000068
C56	C	0.731285	1.581824	0.000069
C57	C	0.731282	1.128473	0.338543
C58	C	0.731282	1.128474	0.453419
C59	C	0.950618	0.789983	0.000079
C60	C	1.025057	0.675104	0.000083
C61	C	0.731282	0.789997	0.338540
C62	C	0.731281	0.675122	0.453415
C63	C	0.950616	0.789985	0.338556
C64	C	1.025055	0.675106	0.453437
C65	C	0.511952	1.466958	-0.338426
C66	C	0.437512	1.581837	-0.453307
C67	C	0.511950	1.466960	0.000051
C68	C	0.437510	1.581840	0.000047
C69	C	0.731286	1.466946	-0.338410
C70	C	0.731287	1.581821	-0.453285
C71	C	1.017186	0.621157	-0.066023
C72	C	1.087123	0.513230	-0.066044
C73	C	1.164931	0.459245	0.000050
C74	C	1.172801	0.513202	0.066159
C75	C	1.102865	0.621134	0.066171
C76	C	1.102850	0.621155	0.441295
C77	C	1.172800	0.513229	0.549228
C78	C	1.164954	0.459248	0.669301
C79	C	1.087151	0.513210	0.681440
C80	C	1.017203	0.621142	0.573509
C81	C	0.359718	1.635802	-0.441165
C82	C	0.289767	1.743761	-0.549097
C83	C	0.297613	1.797747	-0.669171
C84	C	0.375416	1.743779	-0.681310
C85	C	0.445365	1.635828	-0.573379
C86	C	0.445382	1.635798	0.066142
C87	C	0.375444	1.743755	0.066133
C88	C	0.297636	1.797744	0.000035
C89	C	0.289766	1.743781	-0.066068
C90	C	0.359703	1.635834	-0.066066
H91	H	0.294720	1.128474	-0.169530
H92	H	0.381795	1.787748	-0.779086
H93	H	0.953862	0.665055	0.583413
H94	H	0.226424	1.787684	-0.539189
O95	O	0.351243	1.577583	-0.311665
H96	H	0.381073	1.598274	-0.259316
O97	O	0.158587	1.128476	-0.194224
H98	H	0.204036	1.029645	-0.189640
H99	H	0.167846	1.128465	0.169661
O100	O	0.303991	1.128468	0.194363
H101	H	0.267924	1.128482	0.259361
H102	H	0.953837	0.665111	-0.119861
O103	O	0.222166	1.914196	-0.785580
H104	H	0.166755	1.942640	-0.756952
O105	O	1.078627	0.455033	-0.137338
H106	H	1.012771	0.510691	-0.183271
O107	O	1.256729	0.454952	0.137447
H108	H	1.263862	0.545536	0.099259
O109	O	1.240363	0.342828	0.000038
H110	H	1.240310	0.244482	0.041398
O111	O	1.111322	0.679382	0.311794
H112	H	1.177174	0.623737	0.321504
O113	O	0.222215	1.914137	0.000086
H114	H	0.222267	2.012480	-0.041244
H115	H	0.226406	1.787756	-0.119883
O116	O	0.529273	1.577607	-0.586481
H117	H	0.522968	1.633278	-0.688111
H118	H	1.109285	0.665044	0.120011
H119	H	0.508731	1.591848	0.119975
H120	H	1.236144	0.469304	0.539321
O121	O	1.240403	0.342815	0.785709
H122	H	1.277340	0.384238	0.785629
O123	O	0.383941	1.801928	0.137451
H124	H	0.449796	1.746221	0.183432
O125	O	0.351209	1.577625	-0.137345
H126	H	0.285353	1.633300	-0.183291
H127	H	1.080775	0.469243	0.779218
