data_functionalizedCrystal
_audit_creation_method	'MofGen! by Chris Wilmer'
_symmetry_space_group_name_H-M	'P1'
_symmetry_Int_Tables_number	1
_symmetry_cell_setting	triclinic
loop_
_symmetry_equiv_pos_as_xyz
  x,y,z
_cell_length_a	14.446369
_cell_length_b	14.446369
_cell_length_c	14.446369
_cell_angle_alpha	119.993691
_cell_angle_beta	89.999891
_cell_angle_gamma	59.998616
loop_
_atom_site_label
_atom_site_type_symbol
_atom_site_fract_x
_atom_site_fract_y
_atom_site_fract_z
Zr1	Zr	0.891682	1.013273	0.121505
O2	O	0.743878	1.206365	0.269291
O3	O	0.936998	0.820162	0.076202
O4	O	0.936996	1.013257	0.269304
O5	O	0.743874	1.013289	-0.076134
O6	O	1.089325	1.013265	0.269312
O7	O	0.743879	1.013270	0.076190
O8	O	1.089328	0.667854	-0.076111
O9	O	0.743871	1.358700	0.269289
O10	O	1.069999	0.899605	0.056885
O11	O	0.956314	0.899612	-0.056798
O12	O	0.956312	1.126957	0.170554
O13	O	0.842627	1.126964	0.056871
Zr14	Zr	1.134621	1.013316	-0.121420
Zr15	Zr	1.134629	1.013286	0.121518
Zr16	Zr	0.891674	1.013303	-0.121433
Zr17	Zr	0.891672	1.256230	0.121502
Zr18	Zr	1.134631	0.770359	-0.121418
O19	O	1.089305	1.206427	-0.076118
O20	O	1.089317	1.206384	0.269310
O21	O	0.743866	1.206408	-0.076136
O22	O	1.282425	0.820224	-0.269206
O23	O	1.282437	0.820181	0.076221
O24	O	0.936986	0.820205	-0.269225
O25	O	1.282429	1.013300	0.076219
O26	O	1.089307	1.013332	-0.269219
O27	O	0.936978	1.013324	-0.269227
O28	O	1.282424	1.013319	-0.076105
O29	O	0.936981	1.358711	0.269300
O30	O	1.089322	0.667878	-0.269215
O31	O	1.282432	0.667889	-0.269205
O32	O	1.282438	0.667865	-0.076101
O33	O	0.743864	1.358724	0.076186
O34	O	0.936975	1.358735	0.076196
O35	O	1.069991	0.899633	-0.170469
O36	O	1.183676	0.899625	-0.056786
O37	O	1.069989	1.126977	0.056883
O38	O	0.956304	1.126985	-0.056801
C39	C	1.013165	0.709392	0.000046
C40	C	1.013169	0.606250	0.000047
C41	C	1.084505	0.459930	0.072098
C42	C	1.084909	0.566854	0.071790
C43	C	1.065467	0.479411	-0.123470
C44	C	1.065987	0.372032	-0.123080
C45	C	0.889435	0.546976	0.050501
C46	C	0.889633	0.655449	0.053005
C47	C	0.709262	1.013278	0.000026
C48	C	0.606125	1.013272	0.000021
C49	C	0.531146	0.869896	-0.071298
C50	C	0.638475	0.869800	-0.071707
C51	C	0.531560	1.084506	-0.052277
C52	C	0.424701	1.083596	-0.052792
C53	C	0.423134	1.086527	0.123752
C54	C	0.531805	1.083825	0.123550
C55	C	1.317041	1.013311	0.000059
C56	C	1.420178	1.013317	0.000064
C57	C	1.013162	1.013257	0.303921
C58	C	1.013165	1.013244	0.407055
C59	C	1.013138	1.317197	0.000039
C60	C	1.013134	1.420339	0.000038
C61	C	1.085229	0.869858	0.482040
C62	C	1.084914	0.869769	0.374715
C63	C	0.889641	1.084460	0.481605
C64	C	0.890040	1.083542	0.588460
C65	C	1.063637	1.086505	0.590043
C66	C	1.066134	1.083810	0.481375
C67	C	1.013149	1.013315	0.696155
C68	C	1.013170	1.013276	0.592995
C69	C	1.317054	0.709409	0.000062
C70	C	1.420196	0.606273	0.000069
C71	C	1.013154	0.709430	-0.303833
C72	C	1.013155	0.606301	-0.406966
C73	C	1.317044	0.709446	-0.303817
C74	C	1.420182	0.606323	-0.406944
C75	C	0.709259	1.317143	0.303902
C76	C	0.606121	1.420266	0.407029
C77	C	0.709249	1.317180	0.000023
C78	C	0.606107	1.420317	0.000016
C79	C	1.013149	1.317160	0.303918
C80	C	1.013148	1.420288	0.407050
C81	C	1.638556	0.459981	-0.071239
C82	C	1.531326	0.566897	-0.071657
C83	C	1.423528	0.479421	-0.052224
C84	C	1.531295	0.372050	-0.052730
C85	C	1.529921	0.547007	0.123812
C86	C	1.423952	0.655473	0.123601
C87	C	0.941114	0.459988	-0.481948
C88	C	0.941417	0.566901	-0.374624
C89	C	1.136684	0.479460	-0.481509
C90	C	1.136298	0.372093	-0.588362
C91	C	0.962693	0.547056	-0.589960
C92	C	0.960184	0.655517	-0.481293
C93	C	1.495163	0.460012	-0.625288
C94	C	1.387834	0.566937	-0.518072
C95	C	1.494727	0.479479	-0.410249
C96	C	1.601587	0.372100	-0.518001
C97	C	1.603193	0.547044	-0.516665
C98	C	1.494521	0.655517	-0.410712
H99	H	0.836009	0.522189	-0.001736
Br100	Br	1.230055	0.516539	-0.526895
H101	H	0.833618	1.189952	0.508830
Br102	Br	1.408840	0.806322	-0.411608
H103	H	1.050546	0.813843	0.481006
Br104	Br	0.824492	0.806283	0.204662
H105	H	1.157013	0.281288	-0.163479
Br106	Br	0.293722	1.258975	0.028247
Br107	Br	0.789806	0.715808	-0.284179
H108	H	1.334038	0.529484	-0.520519
Br109	Br	0.532872	0.776544	-0.222460
H110	H	1.533782	0.529441	-0.162905
H111	H	1.345265	0.501656	-0.002754
H112	H	1.177376	0.440898	-0.429901
H113	H	1.017362	0.342081	-0.179687
H114	H	0.849637	1.032921	0.588189
Br115	Br	1.730185	0.310561	-0.222401
Br116	Br	1.237001	0.504432	0.013451
Br117	Br	0.983005	0.516487	-0.216847
H118	H	0.533484	0.813596	-0.036400
Br119	Br	0.998917	0.310545	-0.480214
Br120	Br	1.540120	0.516542	-0.279809
Br121	Br	1.601121	0.220855	-0.601893
Br122	Br	1.491278	0.522064	-0.715240
Br123	Br	1.419973	0.415162	-0.202498
Br124	Br	0.789111	0.522048	-0.478058
Br125	Br	1.049739	0.505756	-0.720320
Br126	Br	0.808484	0.806295	-0.395625
H127	H	1.153226	1.040611	0.594164
H128	H	0.976431	0.529430	-0.320838
H129	H	1.155630	0.440863	-0.164153
H130	H	1.494121	0.370359	-0.680254
H131	H	0.845735	0.586508	0.140066
H132	H	1.049840	0.656187	0.162745
H133	H	1.176708	0.281342	-0.588085
Br134	Br	1.230652	0.322169	-0.719326
H135	H	0.873105	0.586623	-0.594081
H136	H	1.011383	1.192167	0.668235
H137	H	1.692510	0.497220	-0.036335
H138	H	1.007212	0.687649	-0.506813
H139	H	0.583162	1.035045	-0.142435
H140	H	1.049602	0.497159	0.163286
H141	H	0.831984	0.687578	0.005973
H142	H	1.175212	0.370279	0.037403
Br143	Br	1.615213	0.220804	-0.204428
Br144	Br	0.728948	0.776645	-0.013247
H145	H	0.692336	0.813410	-0.162961
Br146	Br	1.217815	0.997265	0.395686
H147	H	1.680168	0.342139	-0.491345
Br148	Br	1.533955	0.715863	-0.013106
H149	H	1.504646	0.342089	-0.004106
Br150	Br	0.425142	0.999249	-0.204494
H151	H	1.333571	0.656278	-0.519701
H152	H	0.504326	1.189997	-0.002807
Br153	Br	1.237233	0.776026	0.478151
H154	H	0.833428	1.188766	0.667033
H155	H	1.443110	0.440935	-0.408105
Br156	Br	1.610075	0.612982	-0.600044
Br157	Br	1.026478	0.776121	0.285111
H158	H	1.520047	0.687636	-0.331562
Br159	Br	0.416277	1.010021	0.196573
H160	H	0.583231	1.031886	0.162619
Br161	Br	1.613275	0.612971	0.196629
H162	H	0.506282	1.188496	0.181190
H163	H	0.344916	1.192181	0.177171
Br164	Br	1.236520	0.776626	0.284256
H165	H	1.424471	0.745956	0.162665
H166	H	0.848950	1.034989	0.430002
H167	H	1.344799	0.687587	0.181240
H168	H	1.019103	1.188482	0.506886
H169	H	1.502476	0.522209	0.177235
H170	H	1.681410	0.522250	-0.489217
