data_functionalizedCrystal
_audit_creation_method	'MofGen! by Chris Wilmer'
_symmetry_space_group_name_H-M	'P1'
_symmetry_Int_Tables_number	1
_symmetry_cell_setting	triclinic
loop_
_symmetry_equiv_pos_as_xyz
  x,y,z
_cell_length_a	12.759401
_cell_length_b	12.759399
_cell_length_c	12.759393
_cell_angle_alpha	89.970194
_cell_angle_beta	89.980131
_cell_angle_gamma	90.014407
loop_
_atom_site_label
_atom_site_type_symbol
_atom_site_fract_x
_atom_site_fract_y
_atom_site_fract_z
Zn1	Zn	1.606252	-0.418247	-0.594019
Zn2	Zn	1.606145	-0.593959	-0.418338
Zn3	Zn	1.430554	-0.418292	-0.418354
Zn4	Zn	1.430541	-0.593882	-0.593975
O5	O	1.518373	-0.506095	-0.506171
O6	O	1.753259	-0.441568	-0.570726
O7	O	1.582813	-0.570708	-0.271319
O8	O	1.453911	-0.271265	-0.441681
O9	O	1.753180	-0.570663	-0.441654
O10	O	1.582995	-0.271232	-0.570742
O11	O	1.453807	-0.441646	-0.271330
O12	O	1.283531	-0.441572	-0.441638
O13	O	1.453889	-0.570532	-0.741002
O14	O	1.283522	-0.570577	-0.570666
O15	O	1.582983	-0.441494	-0.741034
O16	O	1.582801	-0.740970	-0.441611
O17	O	1.453785	-0.740913	-0.570651
C18	C	1.245405	-0.506072	-0.506150
C19	C	1.128629	-0.506087	-0.506166
C20	C	1.518308	-0.779062	-0.506147
C21	C	1.518377	-0.895839	-0.506172
C22	C	0.964010	-0.438850	-0.439120
C23	C	1.073734	-0.438826	-0.439104
C24	C	1.073794	-0.573369	-0.573256
C25	C	0.964072	-0.573388	-0.573276
C26	C	1.223675	-0.314849	-0.401753
C27	C	1.278505	-0.247579	-0.334654
C28	C	1.242841	-0.231330	-0.232175
C29	C	1.152348	-0.282367	-0.196773
C30	C	1.097523	-0.349645	-0.263866
C31	C	1.133185	-0.365874	-0.366360
C32	C	0.814129	-0.697366	-0.610616
C33	C	0.759302	-0.764650	-0.677705
C34	C	0.794964	-0.780909	-0.780186
C35	C	0.885461	-0.729891	-0.815584
C36	C	0.940288	-0.662607	-0.748495
C37	C	0.904619	-0.646346	-0.646015
C38	C	1.585632	-0.950695	-0.439057
C39	C	1.585699	-1.060419	-0.439093
C40	C	1.451248	-1.060421	-0.573360
C41	C	1.451187	-0.950699	-0.573329
C42	C	1.709709	-1.210299	-0.401705
C43	C	1.776955	-1.265159	-0.334574
C44	C	1.793119	-1.229617	-0.232064
C45	C	1.742023	-1.139217	-0.196664
C46	C	1.674769	-1.084362	-0.263789
C47	C	1.658625	-1.119903	-0.366314
C48	C	1.327176	-0.800817	-0.610706
C49	C	1.259916	-0.745961	-0.677827
C50	C	1.243741	-0.781501	-0.780339
C51	C	1.294819	-0.871904	-0.815735
C52	C	1.362078	-0.926761	-0.748614
C53	C	1.378255	-0.891214	-0.646103
C54	C	1.792406	-0.506119	-0.506193
C55	C	1.909183	-0.506130	-0.506202
C56	C	1.518446	-0.505999	-0.780205
C57	C	1.518477	-0.505959	-0.896981
C58	C	1.518466	-0.232062	-0.506218
C59	C	1.518506	-0.115285	-0.506238
C60	C	1.585654	-0.573131	-0.951841
C61	C	1.585685	-0.573079	-1.061565
C62	C	1.451353	-0.438679	-1.061560
C63	C	1.451328	-0.438727	-0.951838
C64	C	1.709611	-0.610566	-1.211527
C65	C	1.776778	-0.677754	-1.266391
C66	C	1.792864	-0.780286	-1.230773
C67	C	1.741766	-0.815649	-1.140293
C68	C	1.674591	-0.748466	-1.085436
C69	C	1.658525	-0.645920	-1.121052
C70	C	1.327401	-0.401251	-0.801874
C71	C	1.260220	-0.334073	-0.747014
C72	C	1.244123	-0.231539	-0.782630
C73	C	1.295202	-0.196180	-0.873113
C74	C	1.362384	-0.263358	-0.927973
C75	C	1.378482	-0.365890	-0.892349
C76	C	1.518360	-0.506114	-0.233204
C77	C	1.518533	-0.505859	-0.116428
H78	H	0.919322	-0.384079	-0.384509
Br79	Br	1.401314	-0.178319	-0.382696
H80	H	1.013976	-0.621066	-0.777325
Br81	Br	1.763583	-0.954815	-1.091971
H82	H	1.396542	-1.105101	-0.628036
Br83	Br	1.190960	-0.382035	-0.624168
H84	H	1.123324	-0.269140	-0.113319
H85	H	1.640344	-0.906031	-0.384375
H86	H	1.189410	-0.176846	-0.737957
H87	H	1.818558	-1.338763	-0.363407
H88	H	1.218332	-0.672345	-0.649001
Br89	Br	1.349249	-0.540408	-0.753528
H90	H	1.696530	-0.527073	-1.240529
H91	H	1.281649	-0.900842	-0.899209
H92	H	1.188969	-0.736827	-0.834987
Br93	Br	1.763949	-1.090997	-0.057528
Br94	Br	1.687794	-1.258529	-0.540840
H95	H	1.023846	-0.391199	-0.235042
Br96	Br	1.676786	-0.664372	-0.877395
Br97	Br	0.933872	-0.751964	-0.954667
H98	H	0.785071	-0.684113	-0.527174
Br99	Br	1.605419	-0.961690	-0.215755
Br100	Br	1.349134	-0.752573	-0.471579
H101	H	1.403673	-1.000370	-0.777444
H102	H	1.847547	-0.834994	-1.275455
Br103	Br	1.273356	-0.057025	-0.921458
H104	H	1.396681	-0.383943	-1.106238
Br105	Br	1.605258	-0.796443	-0.962642
Br106	Br	1.846117	-0.629765	-1.389183
Br107	Br	0.720561	-0.872236	-0.871232
H108	H	1.403988	-0.234554	-1.001640
Br109	Br	0.636502	-0.833916	-0.629654
Br110	Br	1.317259	-0.140038	-0.141113
H111	H	1.252715	-0.328064	-0.485203
H112	H	1.118498	-0.628130	-0.627863
H113	H	1.847874	-1.274292	-0.177406
