data_functionalizedCrystal
_audit_creation_method	'MofGen! by Chris Wilmer'
_symmetry_space_group_name_H-M	'P1'
_symmetry_Int_Tables_number	1
_symmetry_cell_setting	triclinic
loop_
_symmetry_equiv_pos_as_xyz
  x,y,z
_cell_length_a	10.686220
_cell_length_b	18.050590
_cell_length_c	10.686551
_cell_angle_alpha	85.590282
_cell_angle_beta	90.307919
_cell_angle_gamma	94.400680
loop_
_atom_site_label
_atom_site_type_symbol
_atom_site_fract_x
_atom_site_fract_y
_atom_site_fract_z
Zn1	Zn	1.972267	-0.181054	-0.562371
Zn2	Zn	1.956022	-0.315474	-0.352596
Zn3	Zn	1.746383	-0.200053	-0.368685
Zn4	Zn	1.762453	-0.313969	-0.578373
O5	O	1.859281	-0.252637	-0.465506
O6	O	2.145655	-0.191564	-0.521113
O7	O	1.914690	-0.308743	-0.179184
O8	O	1.776421	-0.093603	-0.394414
O9	O	2.133720	-0.290321	-0.366992
O10	O	1.942377	-0.079645	-0.536714
O11	O	1.760669	-0.223944	-0.191004
O12	O	1.572972	-0.222485	-0.409931
O13	O	1.803808	-0.287757	-0.751797
O14	O	1.584778	-0.306179	-0.563988
O15	O	1.957958	-0.190105	-0.740040
O16	O	1.930271	-0.419204	-0.382509
O17	O	1.788057	-0.418098	-0.548387
C18	C	1.533359	-0.266231	-0.490443
C19	C	1.393930	-0.272063	-0.501140
C20	C	1.859181	-0.445596	-0.465464
C21	C	1.859256	-0.528138	-0.465478
C22	C	1.936776	-0.728149	-0.375378
C23	C	1.976212	-0.770625	-0.487524
C24	C	1.859331	-0.679263	-0.465523
C25	C	1.820027	-0.783861	-0.353418
C26	C	1.859405	-0.825243	-0.465556
C27	C	1.898831	-0.720646	-0.577725
C28	C	1.742586	-0.733883	-0.443546
C29	C	1.781985	-0.776334	-0.555775
C30	C	1.859292	-0.595167	-0.465502
C31	C	1.859446	-0.909336	-0.465590
C32	C	2.186476	-0.238991	-0.440473
C33	C	2.325907	-0.233176	-0.429805
C34	C	1.884488	-0.236644	-0.792708
C35	C	1.895229	-0.229829	-0.932142
C36	C	1.859418	-0.058923	-0.465574
C37	C	1.859477	0.023627	-0.465603
C38	C	1.834245	-0.268512	-0.139571
C39	C	1.823747	-0.275108	-0.000119
H40	H	2.002298	-0.706964	-0.299216
H41	H	1.716531	-0.797371	-0.632103
H42	H	1.643850	-0.717520	-0.424898
H43	H	1.345500	-0.309818	-0.570396
H44	H	1.374343	-0.195424	-0.360537
H45	H	2.074973	-0.786973	-0.506136
H46	H	1.786754	-0.811399	-0.258599
H47	H	1.754333	-0.319090	-0.951646
H48	H	1.964657	-0.185849	-0.980621
H49	H	1.932014	-0.693199	-0.672635
