data_functionalizedCrystal
_audit_creation_method	'MofGen! by Chris Wilmer'
_symmetry_space_group_name_H-M	'P1'
_symmetry_Int_Tables_number	1
_symmetry_cell_setting	triclinic
loop_
_symmetry_equiv_pos_as_xyz
  x,y,z
_cell_length_a	14.853567
_cell_length_b	7.540329
_cell_length_c	9.065218
_cell_angle_alpha	90.001757
_cell_angle_beta	95.674592
_cell_angle_gamma	90.000012
loop_
_atom_site_label
_atom_site_type_symbol
_atom_site_fract_x
_atom_site_fract_y
_atom_site_fract_z
O1	O	1.197788	-0.147353	-0.192614
O2	O	0.935499	-0.147382	-0.215559
O3	O	1.072065	-0.147363	0.010663
O4	O	1.061222	-0.147372	-0.418836
O5	O	1.072057	0.147602	0.010666
O6	O	0.935490	0.147583	-0.215556
O7	O	1.197780	0.147612	-0.192611
Cu8	Cu	1.066634	0.174530	-0.204084
Cu9	Cu	1.066644	-0.174300	-0.204087
O10	O	1.061214	0.147593	-0.418834
C11	C	0.901898	0.000096	-0.214518
C12	C	0.801791	0.000085	-0.211403
N13	N	1.066634	0.419879	-0.204080
C14	C	1.071019	0.000116	0.065631
C15	C	1.067903	0.000107	0.229412
C16	C	0.388166	0.000128	-0.063852
C17	C	0.368873	0.000121	-0.332609
C18	C	0.462929	0.000115	-0.335539
C19	C	0.519607	0.000113	-0.202622
C20	C	0.482230	0.000116	-0.066777
C21	C	0.500313	0.000093	-0.471382
C22	C	0.594374	0.000085	-0.474316
C23	C	0.651054	0.000096	-0.341399
C24	C	0.613672	0.000102	-0.205548
C25	C	0.670350	0.000100	-0.072632
C26	C	0.632969	0.000118	0.063221
C27	C	0.538910	0.000127	0.066141
C28	C	0.745113	0.000087	-0.344319
C29	C	0.764414	0.000089	-0.075557
C30	C	1.231381	0.000130	-0.193652
C31	C	1.331487	0.000130	-0.196768
N32	N	1.066652	-0.419649	-0.204078
C33	C	1.062260	0.000110	-0.473801
C34	C	1.065376	0.000107	-0.637582
H35	H	0.810556	0.000094	0.032681
O36	O	0.781321	-0.000169	-0.476358
C37	C	0.793655	-0.153063	-0.706914
C38	C	0.752574	-0.152977	-0.557439
H39	H	0.770445	-0.276614	-0.772497
H40	H	0.770380	-0.029712	-0.772715
H41	H	0.870615	-0.152978	-0.686138
H42	H	0.675612	-0.153124	-0.578080
H43	H	0.775921	-0.276317	-0.491685
H44	H	0.679129	0.000104	0.171441
H45	H	0.508466	0.000184	0.176745
O46	O	0.351711	0.000065	0.067981
C47	C	0.215365	0.000212	0.191614
C48	C	0.256529	0.000241	0.042211
H49	H	0.138405	0.000391	0.170831
H50	H	0.238545	-0.123261	0.257327
H51	H	0.238679	0.123624	0.257300
H52	H	0.233234	-0.123088	-0.023595
H53	H	0.233353	0.123795	-0.023389
O54	O	0.445129	0.000177	-0.600350
C55	C	0.291670	0.000113	-0.714940
C56	C	0.354067	0.000050	-0.568769
H57	H	0.218034	-0.000027	-0.689458
H58	H	0.305345	0.123579	-0.781800
H59	H	0.305448	-0.123306	-0.781788
H60	H	0.340326	0.123386	-0.501803
H61	H	0.340381	-0.123497	-0.502022
H62	H	0.322721	0.000107	-0.440823
H63	H	0.624801	0.000070	-0.584935
