data_functionalizedCrystal
_audit_creation_method	'MofGen! by Chris Wilmer'
_symmetry_space_group_name_H-M	'P1'
_symmetry_Int_Tables_number	1
_symmetry_cell_setting	triclinic
loop_
_symmetry_equiv_pos_as_xyz
  x,y,z
_cell_length_a	19.288864
_cell_length_b	19.288865
_cell_length_c	18.366186
_cell_angle_alpha	89.988521
_cell_angle_beta	89.977106
_cell_angle_gamma	83.136245
loop_
_atom_site_label
_atom_site_type_symbol
_atom_site_fract_x
_atom_site_fract_y
_atom_site_fract_z
O1	O	-0.921353	-0.086649	0.060791
O2	O	-0.588019	0.246685	0.394125
O3	O	-0.254686	0.580018	0.727458
O4	O	-0.719092	-0.098337	0.060743
O5	O	-0.385759	0.234996	0.394076
O6	O	-0.052425	0.568329	0.727409
O7	O	-0.826067	0.008637	0.060754
O8	O	-0.492733	0.341971	0.394087
O9	O	-0.159400	0.675304	0.727421
O10	O	-0.814378	-0.193623	0.060780
O11	O	-0.481045	0.139710	0.394113
O12	O	-0.147711	0.473043	0.727447
O13	O	-0.826049	0.008643	-0.060345
O14	O	-0.492715	0.341976	0.272988
O15	O	-0.159382	0.675309	0.606321
O16	O	-0.719074	-0.098332	-0.060357
O17	O	-0.385741	0.235001	0.272977
O18	O	-0.052407	0.568335	0.606310
O19	O	-0.921335	-0.086643	-0.060308
O20	O	-0.588001	0.246690	0.273025
O21	O	-0.254668	0.580023	0.606359
Zn22	Zn	-0.820201	-0.092487	-0.079559
Zn23	Zn	-0.486868	0.240846	0.253774
Zn24	Zn	-0.153535	0.574180	0.587107
Zn25	Zn	-0.820225	-0.092494	0.079994
Zn26	Zn	-0.486892	0.240839	0.413328
Zn27	Zn	-0.153559	0.574173	0.746661
O28	O	-0.814360	-0.193618	-0.060319
O29	O	-0.481027	0.139715	0.273014
O30	O	-0.147693	0.473049	0.606347
C31	C	-0.693207	-0.097959	0.000187
C32	C	-0.359873	0.235375	0.333520
C33	C	-0.026540	0.568708	0.666853
C34	C	-0.616103	-0.096830	0.000167
C35	C	-0.282770	0.236504	0.333501
C36	C	0.050564	0.569837	0.666834
C37	C	-0.825682	0.034516	0.000202
C38	C	-0.492348	0.367850	0.333535
C39	C	-0.159015	0.701183	0.666869
C40	C	-0.824553	0.111620	0.000195
C41	C	-0.491219	0.444953	0.333529
C42	C	-0.157886	0.778287	0.666862
C43	C	-0.947220	-0.087022	0.000250
C44	C	-0.613887	0.246311	0.333583
C45	C	-0.280553	0.579645	0.666916
C46	C	-1.024324	-0.088151	0.000274
C47	C	-0.690990	0.245182	0.333607
C48	C	-0.357657	0.578516	0.666940
C49	C	-0.571407	-0.159598	0.000187
C50	C	-0.238073	0.173736	0.333520
C51	C	0.095260	0.507069	0.666854
C52	C	-0.498960	-0.158537	0.000195
C53	C	-0.165626	0.174796	0.333528
C54	C	0.167707	0.508130	0.666862
C55	C	-0.471212	-0.094705	0.000198
C56	C	-0.137879	0.238629	0.333531
C57	C	0.195455	0.571962	0.666865
C58	C	-0.515918	-0.031929	0.000174
C59	C	-0.182585	0.301405	0.333508
C60	C	0.150748	0.634738	0.666841
C61	C	-0.588364	-0.032991	0.000159
C62	C	-0.255030	0.300342	0.333492
C63	C	0.078303	0.633676	0.666826
C64	C	-0.362956	-0.044527	0.042642
C65	C	-0.029623	0.288806	0.375976
C66	C	0.303710	0.622139	0.709309
C67	C	-0.290512	-0.043468	0.042662
C68	C	0.042821	0.289866	0.375995
C69	C	0.376155	0.623199	0.709329
C70	C	-0.247767	-0.091425	0.000241
C71	C	0.085567	0.241908	0.333575
C72	C	0.418900	0.575242	0.666908
C73	C	-0.277473	-0.140454	-0.042189
C74	C	0.055860	0.192879	0.291144
C75	C	0.389194	0.526212	0.624477
C76	C	-0.349918	-0.141517	-0.042205
C77	C	-0.016585	0.191817	0.291129
C78	C	0.316748	0.525150	0.624462
C79	C	-0.392658	-0.093546	0.000214
C80	C	-0.059325	0.239788	0.333547
C81	C	0.274009	0.573121	0.666881
C82	C	-0.124514	-0.153047	0.000269
C83	C	0.208819	0.180286	0.333602
C84	C	0.542152	0.513619	0.666935
C85	C	-0.052066	-0.151984	0.000272
C86	C	0.281267	0.181349	0.333605
C87	C	0.614600	0.514683	0.666939
C88	C	-0.069026	-0.025374	0.000259
C89	C	0.264307	0.307960	0.333592
C90	C	0.597640	0.641293	0.666925
C91	C	-0.141473	-0.026439	0.000248
C92	C	0.191860	0.306894	0.333581
C93	C	0.525194	0.640228	0.666915
C94	C	-0.169212	-0.090278	0.000256
C95	C	0.164121	0.243056	0.333590
C96	C	0.497454	0.576389	0.666923
C97	C	-0.814745	-0.219497	0.000234
C98	C	-0.481412	0.113836	0.333568
C99	C	-0.148078	0.447169	0.666901
C100	C	-0.815874	-0.296601	0.000246
C101	C	-0.482541	0.036733	0.333579
C102	C	-0.149207	0.370066	0.666912
N103	N	-0.820190	-0.092482	-0.188451
N104	N	-0.486857	0.240852	0.144883
N105	N	-0.153524	0.574185	0.478216
C106	C	-0.887321	0.156316	0.000207
C107	C	-0.553987	0.489650	0.333540
C108	C	-0.220654	0.822983	0.666874
C109	C	-0.886260	0.228763	0.000218
C110	C	-0.552927	0.562097	0.333552
C111	C	-0.219593	0.895430	0.666885
C112	C	-0.822428	0.256511	0.000203
C113	C	-0.489094	0.589844	0.333537
C114	C	-0.155761	0.923178	0.666870
C115	C	-0.759652	0.211805	0.000196
C116	C	-0.426318	0.545138	0.333529
C117	C	-0.092985	0.878471	0.666863
C118	C	-0.760714	0.139359	0.000192
C119	C	-0.427381	0.472693	0.333525
C120	C	-0.094047	0.806026	0.666859
C121	C	-0.772242	0.364800	-0.042227
C122	C	-0.438908	0.698133	0.291106
C123	C	-0.105575	1.031467	0.624439
C124	C	-0.771182	0.437245	-0.042228
C125	C	-0.437849	0.770578	0.291106
C126	C	-0.104515	1.103911	0.624439
C127	C	-0.819148	0.479956	0.000219
C128	C	-0.485815	0.813290	0.333552
C129	C	-0.152481	1.146623	0.666886
C130	C	-0.868186	0.450216	0.042657
C131	C	-0.534852	0.783550	0.375990
C132	C	-0.201519	1.116883	0.709323
C133	C	-0.869248	0.377771	0.042653
C134	C	-0.535915	0.711104	0.375986
C135	C	-0.202582	1.044438	0.709319
C136	C	-0.821269	0.335065	0.000208
C137	C	-0.487935	0.668398	0.333541
C138	C	-0.154602	1.001732	0.666875
C139	C	-0.880770	0.603209	0.000244
C140	C	-0.547437	0.936542	0.333577
C141	C	-0.214104	1.269875	0.666910
C142	C	-0.879707	0.675657	0.000259
C143	C	-0.546374	1.008990	0.333593
C144	C	-0.213040	1.342323	0.666926
C145	C	-0.753097	0.658697	0.000230
C146	C	-0.419763	0.992030	0.333563
C147	C	-0.086430	1.325363	0.666896
C148	C	-0.754162	0.586250	0.000221
C149	C	-0.420829	0.919583	0.333555
C150	C	-0.087495	1.252917	0.666888
C151	C	-0.818001	0.558511	0.000225
C152	C	-0.484667	0.891844	0.333558
C153	C	-0.151334	1.225177	0.666891
C154	C	-0.867574	-0.045137	-0.226546
C155	C	-0.534241	0.288197	0.106787
C156	C	-0.200907	0.621530	0.440121
C157	C	-0.867578	-0.045134	-0.302774
C158	C	-0.534245	0.288200	0.030560
C159	C	-0.200912	0.621533	0.363893
C160	C	-0.820206	-0.092488	-0.340903
C161	C	-0.486872	0.240846	-0.007570
C162	C	-0.153539	0.574179	0.325763
C163	C	-0.772813	-0.139836	-0.302799
C164	C	-0.439480	0.193497	0.030535
C165	C	-0.106146	0.526830	0.363868
C166	C	-0.772805	-0.139834	-0.226572
C167	C	-0.439472	0.193500	0.106761
C168	C	-0.106139	0.526833	0.440094
C169	C	-0.810907	-0.155775	-0.461657
C170	C	-0.477574	0.177558	-0.128324
C171	C	-0.144241	0.510891	0.205010
C172	C	-0.810920	-0.155779	-0.537882
C173	C	-0.477587	0.177554	-0.204548
C174	C	-0.144253	0.510888	0.128785
C175	C	-0.820225	-0.092496	-0.576011
C176	C	-0.486892	0.240837	-0.242677
C177	C	-0.153559	0.574170	0.090656
C178	C	-0.829533	-0.029207	-0.537905
C179	C	-0.496200	0.304127	-0.204572
C180	C	-0.162866	0.637460	0.128761
C181	C	-0.829525	-0.029204	-0.461679
C182	C	-0.496192	0.304129	-0.128346
C183	C	-0.162859	0.637463	0.204988
C184	C	-0.820208	-0.092496	-0.423558
C185	C	-0.486875	0.240838	-0.090225
C186	C	-0.153542	0.574171	0.243109
C187	C	-0.867617	-0.045144	-0.696761
C188	C	-0.534283	0.288190	-0.363428
C189	C	-0.200950	0.621523	-0.030094
C190	C	-0.867616	-0.045140	-0.772990
C191	C	-0.534283	0.288194	-0.439657
C192	C	-0.200949	0.621527	-0.106324
C193	C	-0.772854	-0.139849	-0.773014
C194	C	-0.439521	0.193485	-0.439681
C195	C	-0.106187	0.526818	-0.106347
C196	C	-0.772851	-0.139847	-0.696786
C197	C	-0.439518	0.193487	-0.363453
C198	C	-0.106184	0.526820	-0.030119
C199	C	-0.820236	-0.092495	-0.658664
C200	C	-0.486903	0.240838	-0.325331
C201	C	-0.153569	0.574172	0.008002
N202	N	-0.820242	-0.092493	0.188885
N203	N	-0.486909	0.240840	0.522219
N204	N	-0.153575	0.574173	0.855552
H205	H	-0.593987	-0.211580	0.000195
H206	H	-0.260654	0.121753	0.333529
H207	H	0.072680	0.455087	0.666862
H208	H	-0.462561	-0.209652	0.000209
H209	H	-0.129228	0.123682	0.333542
H210	H	0.204106	0.457015	0.666875
Br211	Br	-0.798347	-0.241669	-0.409918
Br212	Br	-0.465014	0.091664	-0.076585
Br213	Br	-0.131681	0.424997	0.256749
Br214	Br	-0.162165	-0.239683	0.000275
Br215	Br	0.171168	0.093651	0.333608
Br216	Br	0.504502	0.426984	0.666941
H217	H	-0.906156	-0.006579	-0.195509
H218	H	-0.572823	0.326755	0.137824
H219	H	-0.239489	0.660088	0.471157
H220	H	-0.939303	0.133736	0.000212
H221	H	-0.605970	0.467069	0.333546
H222	H	-0.272636	0.800403	0.666879
H223	H	-0.734269	-0.178402	-0.665767
H224	H	-0.400936	0.154931	-0.332433
H225	H	-0.067603	0.488264	0.000900
Br226	Br	-0.673021	0.249460	0.000185
Br227	Br	-0.339688	0.582793	0.333518
Br228	Br	-0.006355	0.916126	0.666852
Br229	Br	-0.931922	0.019125	-0.824696
Br230	Br	-0.598588	0.352459	-0.491362
Br231	Br	-0.265255	0.685792	-0.158029
H232	H	-0.906198	-0.006585	-0.665721
H233	H	-0.572865	0.326748	-0.332388
H234	H	-0.239532	0.660082	0.000946
Br235	Br	-0.798296	-0.241670	-0.589589
Br236	Br	-0.464963	0.091663	-0.256255
Br237	Br	-0.131630	0.424996	0.077078
Br238	Br	-0.708493	-0.204092	-0.174867
Br239	Br	-0.375160	0.129242	0.158466
Br240	Br	-0.041826	0.462575	0.491800
H241	H	-0.734279	-0.178402	-0.804058
H242	H	-0.400946	0.154931	-0.470725
H243	H	-0.067613	0.488264	-0.137392
Br244	Br	-0.390233	-0.208051	-0.099788
Br245	Br	-0.056900	0.125283	0.233545
Br246	Br	0.276433	0.458616	0.566879
Br247	Br	-0.478263	0.054702	0.000171
Br248	Br	-0.144930	0.388035	0.333504
Br249	Br	0.188404	0.721368	0.666837
H250	H	-0.733180	0.330029	-0.076796
H251	H	-0.399847	0.663362	0.256537
H252	H	-0.066514	0.996696	0.589870
H253	H	-0.734240	-0.178392	-0.333848
H254	H	-0.400907	0.154942	-0.000514
H255	H	-0.067573	0.488275	0.332819
Br256	Br	-0.250202	0.023062	0.100256
Br257	Br	0.083131	0.356395	0.433589
Br258	Br	0.416464	0.689729	0.766923
H259	H	-0.907244	0.484991	0.077221
H260	H	-0.573911	0.818325	0.410554
H261	H	-0.240578	1.151658	0.743888
H262	H	-0.015674	-0.203099	0.000284
H263	H	0.317659	0.130234	0.333617
H264	H	0.650992	0.463567	0.666950
Br265	Br	-0.219470	-0.205547	-0.099762
Br266	Br	0.113863	0.127787	0.233571
Br267	Br	0.447197	0.461120	0.566905
H268	H	-0.046435	0.026600	0.000306
H269	H	0.286898	0.359933	0.333640
H270	H	0.620231	0.693266	0.666973
H271	H	-0.177866	0.024674	0.000236
H272	H	0.155467	0.358007	0.333569
H273	H	0.488801	0.691340	0.666903
Br274	Br	-0.935792	0.337410	0.100247
Br275	Br	-0.602459	0.670744	0.433580
Br276	Br	-0.269126	1.004077	0.766914
Br277	Br	-0.649028	0.052201	0.000131
Br278	Br	-0.315694	0.385534	0.333464
Br279	Br	0.017639	0.718867	0.666798
Br280	Br	-0.420962	0.020566	0.100216
Br281	Br	-0.087628	0.353899	0.433550
Br282	Br	0.245705	0.687232	0.766883
Br283	Br	-0.971451	0.289434	0.000237
Br284	Br	-0.638117	0.622768	0.333570
Br285	Br	-0.304784	0.956101	0.666904
Br286	Br	-0.967406	0.565558	0.000241
Br287	Br	-0.634072	0.898891	0.333574
Br288	Br	-0.300739	1.232225	0.666908
Br289	Br	-0.964900	0.736319	0.000283
Br290	Br	-0.631566	1.069652	0.333616
Br291	Br	-0.298233	1.402986	0.666950
H292	H	-0.701123	0.681288	0.000221
H293	H	-0.367790	1.014621	0.333555
H294	H	-0.034457	1.347954	0.666888
H295	H	-0.703049	0.549857	0.000208
H296	H	-0.369716	0.883190	0.333541
H297	H	-0.036383	1.216524	0.666874
Br298	Br	-0.931890	0.019127	-0.354484
Br299	Br	-0.598556	0.352460	-0.021151
Br300	Br	-0.265223	0.685794	0.312183
Br301	Br	-0.704636	0.477599	-0.099826
Br302	Br	-0.371303	0.810933	0.233508
Br303	Br	-0.037970	1.144266	0.566841
H304	H	-0.709599	0.102967	0.000182
H305	H	-0.376266	0.436300	0.333516
H306	H	-0.042933	0.769633	0.666849
Br307	Br	-0.842150	0.056684	-0.409966
Br308	Br	-0.508816	0.390017	-0.076633
Br309	Br	-0.175483	0.723351	0.256700
H310	H	-0.837110	0.022324	-0.568948
H311	H	-0.503777	0.355658	-0.235615
H312	H	-0.170443	0.688991	0.097718
