data_functionalizedCrystal
_audit_creation_method	'MofGen! by Chris Wilmer'
_symmetry_space_group_name_H-M	'P1'
_symmetry_Int_Tables_number	1
_symmetry_cell_setting	triclinic
loop_
_symmetry_equiv_pos_as_xyz
  x,y,z
_cell_length_a	21.395362
_cell_length_b	17.640280
_cell_length_c	21.395355
_cell_angle_alpha	101.215078
_cell_angle_beta	90.043940
_cell_angle_gamma	78.812025
loop_
_atom_site_label
_atom_site_type_symbol
_atom_site_fract_x
_atom_site_fract_y
_atom_site_fract_z
Zn1	Zn	1.008318	-0.314390	0.304290
Zn2	Zn	1.508318	0.185610	0.804290
Zn3	Zn	1.029429	-0.446530	0.178373
Zn4	Zn	1.529429	0.053470	0.678373
Zn5	Zn	0.903539	-0.314427	0.199486
Zn6	Zn	1.403539	0.185573	0.699486
Zn7	Zn	0.924713	-0.446546	0.283075
Zn8	Zn	1.424713	0.053454	0.783075
O9	O	0.966500	-0.380473	0.241306
O10	O	1.466500	0.119527	0.741306
O11	O	1.098793	-0.331896	0.287630
O12	O	1.598793	0.168104	0.787630
O13	O	1.012702	-0.429015	0.093494
O14	O	1.512702	0.070985	0.593494
O15	O	0.899742	-0.203828	0.231102
O16	O	1.399742	0.296172	0.731102
O17	O	1.114303	-0.428979	0.195119
O18	O	1.614303	0.071021	0.695119
O19	O	0.976723	-0.203801	0.308102
O20	O	1.476723	0.296199	0.808102
O21	O	0.920212	-0.331959	0.109006
O22	O	1.420212	0.168041	0.609006
O23	O	0.818673	-0.331975	0.210531
O24	O	1.318673	0.168025	0.710531
O25	O	0.935830	-0.429007	0.373569
O26	O	1.435830	0.070993	0.873569
O27	O	0.834230	-0.429043	0.271944
O28	O	1.334230	0.070957	0.771944
O29	O	0.997254	-0.331912	0.389155
O30	O	1.497254	0.168088	0.889155
O31	O	1.033234	-0.557126	0.174548
O32	O	1.533234	-0.057126	0.674548
O33	O	0.956300	-0.557138	0.251472
O34	O	1.456300	-0.057138	0.751472
C35	C	0.803719	-0.380515	0.241227
C36	C	1.303719	0.119485	0.741227
C37	C	0.734083	-0.380552	0.241204
C38	C	1.234083	0.119448	0.741204
C39	C	0.709497	-0.431162	0.273111
C40	C	1.209497	0.068838	0.773111
C41	C	0.644059	-0.431143	0.273143
C42	C	1.144059	0.068857	0.773143
C43	C	0.603210	-0.380521	0.241254
C44	C	1.103210	0.119479	0.741254
C45	C	0.627802	-0.329901	0.209346
C46	C	1.127802	0.170099	0.709346
C47	C	0.693239	-0.329917	0.209321
C48	C	1.193239	0.170083	0.709321
C49	C	0.498463	-0.374155	0.185867
C50	C	0.998463	0.125845	0.685867
C51	C	0.433029	-0.374145	0.185890
C52	C	0.933029	0.125855	0.685890
C53	C	0.401381	-0.380470	0.241331
C54	C	0.901381	0.119530	0.741331
C55	C	0.435178	-0.386821	0.296749
C56	C	0.935178	0.113179	0.796749
C57	C	0.500615	-0.386836	0.296724
C58	C	1.000615	0.113164	0.796724
C59	C	0.532254	-0.380499	0.241278
C60	C	1.032254	0.119501	0.741278
C61	C	0.305840	-0.431062	0.273275
C62	C	0.805840	0.068938	0.773275
C63	C	0.240399	-0.431037	0.273308
C64	C	0.740399	0.068963	0.773308
C65	C	0.224144	-0.329800	0.209505
C66	C	0.724144	0.170200	0.709505
C67	C	0.289583	-0.329820	0.209478
C68	C	0.789583	0.170180	0.709478
C69	C	0.330428	-0.380456	0.241362
C70	C	0.830428	0.119544	0.741362
C71	C	0.999372	-0.585808	0.208431
C72	C	1.499372	-0.085808	0.708431
C73	C	1.013493	-0.673651	0.194387
C74	C	1.513493	-0.173651	0.694387
C75	C	0.859485	-0.962724	0.348219
C76	C	1.359485	-0.462724	0.848219
C77	C	0.872755	-1.045266	0.335003
C78	C	1.372755	-0.545266	0.835003
C79	C	0.952916	-1.045188	0.254983
C80	C	1.452916	-0.545188	0.754983
C81	C	0.939655	-0.962645	0.268194
C82	C	1.439655	-0.462645	0.768194
C83	C	0.892939	-0.921419	0.314813
C84	C	1.392939	-0.421419	0.814813
C85	C	0.973109	-0.921340	0.234788
C86	C	1.473109	-0.421340	0.734788
C87	C	0.959847	-0.838803	0.247996
C88	C	1.459847	-0.338803	0.747996
C89	C	0.913131	-0.797572	0.294610
C90	C	1.413131	-0.297572	0.794610
C91	C	0.879677	-0.838883	0.328021
C92	C	1.379677	-0.338883	0.828021
C93	C	1.019822	-0.962567	0.188167
C94	C	1.519822	-0.462567	0.688167
C95	C	1.053276	-0.921262	0.154760
C96	C	1.553276	-0.421262	0.654760
C97	C	1.040017	-0.838724	0.167971
C98	C	1.540017	-0.338724	0.667971
C99	C	0.993301	-0.797492	0.214586
C100	C	1.493301	-0.297492	0.714586
C101	C	1.073472	-0.797413	0.134561
C102	C	1.573472	-0.297413	0.634561
C103	C	1.060209	-0.714877	0.147769
C104	C	1.560209	-0.214877	0.647769
C105	C	0.980039	-0.714956	0.227794
C106	C	1.480039	-0.214956	0.727794
C107	C	1.129916	-0.380432	0.241386
C108	C	1.629916	0.119568	0.741386
C109	C	1.199555	-0.380414	0.241420
C110	C	1.699555	0.119586	0.741420
C111	C	0.966549	-0.380457	0.404732
C112	C	1.466549	0.119543	0.904732
C113	C	0.966570	-0.380450	0.474374
C114	C	1.466570	0.119550	0.974374
C115	C	0.933515	-0.174337	0.274324
C116	C	1.433515	0.325663	0.774324
C117	C	0.919460	-0.086494	0.288394
C118	C	1.419460	0.413506	0.788394
C119	C	0.966477	-0.380432	0.078525
C120	C	1.466477	0.119568	0.578525
C121	C	0.966542	-0.380216	0.008919
C122	C	1.466542	0.119784	0.508919
C123	C	0.998552	-0.329891	0.515205
C124	C	1.498552	0.170109	1.015205
C125	C	0.998545	-0.329857	0.580646
C126	C	1.498545	0.170143	1.080646
C127	C	0.966566	-0.380397	0.605251
C128	C	1.466566	0.119603	1.105251
C129	C	0.934577	-0.430960	0.564412
C130	C	1.434577	0.069040	1.064412
C131	C	0.934579	-0.430986	0.498974
C132	C	1.434579	0.069014	0.998974
C133	C	0.973012	-0.451559	0.697531
C134	C	1.473012	0.048441	1.197531
C135	C	0.973014	-0.451533	0.762968
C136	C	1.473014	0.048467	1.262968
C137	C	0.966557	-0.380313	0.807086
C138	C	1.466557	0.119687	1.307086
C139	C	0.960109	-0.309116	0.785758
C140	C	1.460109	0.190884	1.285758
C141	C	0.960111	-0.309143	0.720320
C142	C	1.460111	0.190857	1.220320
C143	C	0.966560	-0.380373	0.676208
C144	C	1.466560	0.119627	1.176208
C145	C	0.998533	-0.329712	0.918875
C146	C	1.498533	0.170288	1.418875
C147	C	0.998522	-0.329677	0.984317
C148	C	1.498522	0.170323	1.484317
C149	C	0.934559	-0.430787	0.968082
C150	C	1.434559	0.069213	1.468082
C151	C	0.934565	-0.430815	0.902642
C152	C	1.434565	0.069185	1.402642
C153	C	0.966556	-0.380279	0.878042
C154	C	1.466556	0.119721	1.378042
H155	H	0.220383	-0.472248	0.299295
H156	H	0.720383	0.027752	0.799295
O157	O	1.029689	-0.280733	0.894931
O158	O	1.529689	0.219267	1.394931
C159	C	1.112562	-0.270114	0.822794
C160	C	1.612562	0.229886	1.322794
C161	C	1.077340	-0.325672	0.849865
C162	C	1.577340	0.174328	1.349865
H163	H	1.151086	-0.306424	0.786344
H164	H	1.651086	0.193576	1.286344
H165	H	1.135463	-0.233982	0.863194
H166	H	1.635463	0.266018	1.363194
H167	H	1.077175	-0.228794	0.798773
H168	H	1.577175	0.271206	1.298773
H169	H	1.112687	-0.367040	0.873880
H170	H	1.612687	0.132960	1.373880
H171	H	1.054428	-0.361749	0.809441
H172	H	1.554428	0.138251	1.309441
O173	O	0.903523	-0.480032	0.459222
O174	O	1.403523	0.019968	0.959222
C175	C	0.875218	-0.524921	0.351209
C176	C	1.375218	-0.024921	0.851209
C177	C	0.910400	-0.469322	0.396160
C178	C	1.410400	0.030678	0.896160
H179	H	0.880778	-0.516294	0.300212
H180	H	1.380778	-0.016294	0.800212
H181	H	0.822463	-0.511049	0.366206
H182	H	1.322463	-0.011049	0.866206
H183	H	0.896408	-0.588630	0.353930
H184	H	1.396408	-0.088630	0.853930
H185	H	0.889264	-0.405595	0.393460
H186	H	1.389264	0.094405	0.893460
H187	H	0.963154	-0.483263	0.381149
H188	H	1.463154	0.016737	0.881149
H189	H	0.908527	-0.471991	0.869396
H190	H	1.408527	0.028009	1.369396
O191	O	0.834265	-0.798952	0.373315
O192	O	1.334265	-0.298952	0.873315
C193	C	0.756192	-0.807730	0.451344
C194	C	1.256192	-0.307730	0.951344
C195	C	0.807587	-0.853050	0.400055
C196	C	1.307587	-0.353050	0.900055
H197	H	0.734618	-0.851448	0.472987
H198	H	1.234618	-0.351448	0.972987
H199	H	0.717202	-0.769157	0.428748
H200	H	1.217202	-0.269157	0.928748
H201	H	0.778744	-0.769023	0.490303
H202	H	1.278744	-0.269023	0.990303
H203	H	0.785092	-0.891800	0.361081
H204	H	1.285092	-0.391800	0.861081
H205	H	0.846571	-0.891573	0.422698
H206	H	1.346571	-0.391573	0.922698
H207	H	1.111504	-0.830991	0.096601
H208	H	1.611504	-0.330991	0.596601
H209	H	0.902330	-0.730366	0.305359
H210	H	1.402330	-0.230366	0.805359
H211	H	0.908538	-0.472107	0.584451
H212	H	1.408538	0.027893	1.084451
H213	H	0.713255	-0.288701	0.183339
H214	H	1.213255	0.211299	0.683339
H215	H	1.024564	-0.288501	1.017562
H216	H	1.524564	0.211499	1.517562
H217	H	0.624037	-0.472355	0.299127
H218	H	1.124037	0.027645	0.799127
H219	H	0.978100	-0.509540	0.661617
H220	H	1.478100	-0.009540	1.161617
O221	O	0.313486	-0.280581	0.178580
O222	O	0.813486	0.219419	0.678580
C223	C	0.370351	-0.173917	0.187337
C224	C	0.870351	0.326083	0.687337
C225	C	0.343300	-0.229623	0.222411
C226	C	0.843300	0.270377	0.722411
H227	H	0.394474	-0.132715	0.222756
H228	H	0.894474	0.367285	0.722756
H229	H	0.329936	-0.137674	0.164569
H230	H	0.829936	0.362326	0.664569
H231	H	0.406710	-0.210167	0.148703
H232	H	0.906710	0.289833	0.648703
H233	H	0.306950	-0.193434	0.261073
H234	H	0.806950	0.306566	0.761073
H235	H	0.383748	-0.265869	0.245134
H236	H	0.883748	0.234131	0.745134
H237	H	0.405517	-0.368979	0.140765
H238	H	0.905517	0.131021	0.640765
O239	O	0.529112	-0.368048	0.131943
O240	O	1.029112	0.131952	0.631943
C241	C	0.520071	-0.355454	0.021993
C242	C	1.020071	0.144546	0.521993
C243	C	0.485286	-0.362379	0.083011
C244	C	0.985286	0.137621	0.583011
H245	H	0.484650	-0.350853	-0.017580
H246	H	0.984650	0.149147	0.482420
H247	H	0.559359	-0.409817	0.006557
H248	H	1.059359	0.090183	0.506557
H249	H	0.541952	-0.300505	0.031847
H250	H	1.041952	0.199495	0.531847
H251	H	0.463366	-0.417296	0.073207
H252	H	0.963366	0.082704	0.573207
H253	H	0.446031	-0.307978	0.098430
H254	H	0.946031	0.192022	0.598430
O255	O	0.345560	-0.480324	0.304148
O256	O	0.845560	0.019676	0.804148
C257	C	0.436511	-0.587031	0.295333
C258	C	0.936511	-0.087031	0.795333
C259	C	0.391570	-0.531304	0.260287
C260	C	0.891570	-0.031304	0.760287
H261	H	0.473730	-0.628252	0.259889
H262	H	0.973730	-0.128252	0.759889
H263	H	0.407731	-0.623254	0.318129
H264	H	0.907731	-0.123254	0.818129
H265	H	0.461370	-0.550799	0.333943
H266	H	0.961370	-0.050799	0.833943
H267	H	0.366700	-0.567476	0.221650
H268	H	0.866700	-0.067476	0.721650
H269	H	0.420384	-0.495080	0.237536
H270	H	0.920384	0.004920	0.737536
H271	H	0.742749	-0.472392	0.299075
H272	H	1.242749	0.027608	0.799075
O273	O	0.998365	-1.085157	0.209745
O274	O	1.498365	-0.585157	0.709745
C275	C	1.109004	-1.110336	0.175465
C276	C	1.609004	-0.610336	0.675465
C277	C	1.057593	-1.065008	0.226736
C278	C	1.557593	-0.565008	0.726736
H279	H	1.156903	-1.094075	0.189191
H280	H	1.656903	-0.594075	0.689191
H281	H	1.095476	-1.094125	0.127513
H282	H	1.595476	-0.594125	0.627513
H283	H	1.112697	-1.176417	0.171756
H284	H	1.612697	-0.676417	0.671756
H285	H	1.053873	-0.998917	0.230503
H286	H	1.553873	-0.498917	0.730503
H287	H	1.071142	-1.081285	0.274662
H288	H	1.571142	-0.581285	0.774662
O289	O	0.979256	-0.520757	0.783575
O290	O	1.479256	-0.020757	1.283575
C291	C	0.992083	-0.662020	0.754062
C292	C	1.492083	-0.162020	1.254062
C293	C	0.985006	-0.583678	0.730640
C294	C	1.485006	-0.083678	1.230640
H295	H	0.996747	-0.712914	0.711277
H296	H	1.496747	-0.212914	1.211277
H297	H	0.948297	-0.660842	0.784838
H298	H	1.448297	-0.160842	1.284838
H299	H	1.036495	-0.670303	0.783419
H300	H	1.536495	-0.170303	1.283419
H301	H	0.940619	-0.575346	0.701258
H302	H	1.440619	-0.075346	1.201258
H303	H	1.028824	-0.584893	0.699898
H304	H	1.528824	-0.084893	1.199898
H305	H	0.594538	-0.288684	0.183383
H306	H	1.094538	0.211316	0.683383
H307	H	0.821448	-0.929157	0.386185
H308	H	1.321448	-0.429157	0.886185
H309	H	1.024587	-0.288681	0.613897
H310	H	1.524587	0.211319	1.113897
H311	H	0.528130	-0.392005	0.341848
H312	H	1.028130	0.107995	0.841848
O313	O	0.184472	-0.280748	0.178427
O314	O	0.684472	0.219252	0.678427
C315	C	0.108777	-0.269971	0.095600
C316	C	0.608777	0.230029	0.595600
C317	C	0.153690	-0.325609	0.130741
C318	C	0.653690	0.174391	0.630741
H319	H	0.083868	-0.306218	0.057048
H320	H	0.583868	0.193782	0.557048
H321	H	0.137579	-0.233830	0.072737
H322	H	0.637579	0.266170	0.572737
H323	H	0.071598	-0.228663	0.131036
H324	H	0.571598	0.271337	0.631036
H325	H	0.190877	-0.366965	0.095346
H326	H	0.690877	0.133035	0.595346
H327	H	0.124845	-0.361695	0.153615
H328	H	0.624845	0.138305	0.653615
H329	H	1.030620	-1.029773	0.177416
H330	H	1.530620	-0.529773	0.677416
O331	O	0.840219	-1.085268	0.367540
O332	O	1.340219	-0.585268	0.867540
C333	C	0.759277	-1.076634	0.448284
C334	C	1.259277	-0.576634	0.948284
C335	C	0.796085	-1.031234	0.411497
C336	C	1.296085	-0.531234	0.911497
H337	H	0.723578	-1.032967	0.483822
H338	H	1.223578	-0.532967	0.983822
H339	H	0.794195	-1.115203	0.474952
H340	H	1.294195	-0.615203	0.974952
H341	H	0.732779	-1.115352	0.413272
H342	H	1.232779	-0.615352	0.913272
H343	H	0.822586	-0.992473	0.446465
H344	H	1.322586	-0.492473	0.946465
H345	H	0.761137	-0.992715	0.384819
H346	H	1.261137	-0.492715	0.884819
H347	H	0.409412	-0.391970	0.341895
H348	H	0.909412	0.108030	0.841895
O349	O	0.903600	-0.479972	0.991986
O350	O	1.403600	0.020028	1.491986
C351	C	0.912243	-0.586623	1.048816
C352	C	1.412243	-0.086623	1.548816
C353	C	0.947387	-0.530980	1.021761
C354	C	1.447387	-0.030980	1.521761
H355	H	0.947627	-0.627866	1.072907
H356	H	1.447627	-0.127866	1.572907
H357	H	0.889411	-0.622826	1.008404
H358	H	1.389411	-0.122826	1.508404
H359	H	0.873658	-0.550326	1.085207
H360	H	1.373658	-0.050326	1.585207
H361	H	0.986000	-0.567216	0.985380
H362	H	1.486000	-0.067216	1.485380
H363	H	0.970174	-0.494775	1.062208
H364	H	1.470174	0.005225	1.562208
O365	O	1.098720	-0.961352	0.109557
O366	O	1.598720	-0.461352	0.609557
C367	C	1.198241	-1.054485	0.086320
C368	C	1.698241	-0.554485	0.586320
C369	C	1.146833	-1.009117	0.137581
C370	C	1.646833	-0.509117	0.637581
H371	H	1.237146	-1.093126	0.108955
H372	H	1.737146	-0.593126	0.608955
H373	H	1.219928	-1.010825	0.064712
H374	H	1.719928	-0.510825	0.564712
H375	H	1.175679	-1.093134	0.047328
H376	H	1.675679	-0.593134	0.547328
H377	H	1.169346	-0.970468	0.176611
H378	H	1.669346	-0.470468	0.676611
H379	H	1.125151	-1.052819	0.159138
H380	H	1.625151	-0.552819	0.659138
O381	O	1.092687	-0.674833	0.115219
O382	O	1.592687	-0.174833	0.615219
C383	C	1.119058	-0.649527	0.012729
C384	C	1.619058	-0.149527	0.512729
C385	C	1.082263	-0.694941	0.049514
C386	C	1.582263	-0.194941	0.549514
H387	H	1.110633	-0.665755	-0.040399
H388	H	1.610633	-0.165755	0.459601
H389	H	1.172184	-0.665694	0.021155
H390	H	1.672184	-0.165694	0.521155
H391	H	1.101562	-0.583459	0.030209
H392	H	1.601562	-0.083459	0.530209
H393	H	1.099706	-0.761019	0.032057
H394	H	1.599706	-0.261019	0.532057
H395	H	1.029143	-0.678709	0.041087
H396	H	1.529143	-0.178709	0.541087
O397	O	1.029629	-0.280722	0.491419
O398	O	1.529629	0.219278	0.991419
C399	C	1.093104	-0.180469	0.514426
C400	C	1.593104	0.319531	1.014426
C401	C	1.057924	-0.236101	0.541450
C402	C	1.557924	0.263899	1.041450
H403	H	1.116001	-0.144391	0.554861
H404	H	1.616001	0.355609	1.054861
H405	H	1.057750	-0.139110	0.490406
H406	H	1.557750	0.360890	0.990406
H407	H	1.131645	-0.216769	0.477989
H408	H	1.631645	0.283231	0.977989
H409	H	1.019384	-0.199865	0.577911
H410	H	1.519384	0.300135	1.077911
H411	H	1.093318	-0.277463	0.565431
H412	H	1.593318	0.222537	1.065431
H413	H	0.954860	-0.251173	0.702958
H414	H	1.454860	0.248827	1.202958
O415	O	0.953715	-0.239931	0.828629
O416	O	1.453715	0.260069	1.328629
C417	C	0.891621	-0.151357	0.916649
C418	C	1.391621	0.348643	1.416649
C419	C	0.898781	-0.229718	0.868125
C420	C	1.398781	0.270282	1.368125
H421	H	0.847217	-0.143083	0.948603
H422	H	1.347217	0.356917	1.448603
H423	H	0.886966	-0.100449	0.890194
H424	H	1.386966	0.399551	1.390194
H425	H	0.935414	-0.152554	0.947104
H426	H	1.435414	0.347446	1.447104
H427	H	0.855003	-0.228599	0.837657
H428	H	1.355003	0.271401	1.337657
H429	H	0.903466	-0.280593	0.894620
H430	H	1.403466	0.219407	1.394620
H431	H	0.942002	-0.681389	0.265760
H432	H	1.442002	-0.181389	0.765760
