data_functionalizedCrystal
_audit_creation_method	'MofGen! by Chris Wilmer'
_symmetry_space_group_name_H-M	'P1'
_symmetry_Int_Tables_number	1
_symmetry_cell_setting	triclinic
loop_
_symmetry_equiv_pos_as_xyz
  x,y,z
_cell_length_a	16.992694
_cell_length_b	23.532407
_cell_length_c	16.053802
_cell_angle_alpha	92.544672
_cell_angle_beta	87.249047
_cell_angle_gamma	86.758451
loop_
_atom_site_label
_atom_site_type_symbol
_atom_site_fract_x
_atom_site_fract_y
_atom_site_fract_z
O1	O	1.042772	0.118472	-0.069339
O2	O	1.376105	0.451805	0.263995
O3	O	1.709439	0.785138	0.597328
O4	O	0.814498	0.117146	-0.069363
O5	O	1.147832	0.450480	0.263970
O6	O	1.481165	0.783813	0.597304
O7	O	0.935518	0.035219	-0.069335
O8	O	1.268851	0.368553	0.263998
O9	O	1.602185	0.701886	0.597332
O10	O	0.921752	0.200399	-0.069367
O11	O	1.255086	0.533732	0.263966
O12	O	1.588419	0.867065	0.597300
O13	O	0.928857	0.039709	0.069523
O14	O	1.262190	0.373042	0.402856
O15	O	1.595524	0.706376	0.736189
O16	O	0.807837	0.121636	0.069494
O17	O	1.141171	0.454969	0.402828
O18	O	1.474504	0.788303	0.736161
O19	O	1.036111	0.122961	0.069519
O20	O	1.369444	0.456295	0.402852
O21	O	1.702778	0.789628	0.736185
Zn22	Zn	0.920917	0.123011	0.091553
Zn23	Zn	1.254250	0.456345	0.424886
Zn24	Zn	1.587583	0.789678	0.758220
Zn25	Zn	0.929693	0.117096	-0.091397
Zn26	Zn	1.263026	0.450429	0.241936
Zn27	Zn	1.596359	0.783763	0.575269
O28	O	0.915091	0.204888	0.069490
O29	O	1.248425	0.538222	0.402824
O30	O	1.581758	0.871555	0.736157
C31	C	0.781969	0.117687	0.000063
C32	C	1.115302	0.451021	0.333396
C33	C	1.448635	0.784354	0.666729
C34	C	0.694964	0.112604	0.000054
C35	C	1.028298	0.445937	0.333387
C36	C	1.361631	0.779271	0.666721
C37	C	0.644342	0.161650	0.000045
C38	C	0.977676	0.494983	0.333379
C39	C	1.311009	0.828317	0.666712
C40	C	0.562592	0.156871	0.000058
C41	C	0.895926	0.490204	0.333391
C42	C	1.229259	0.823537	0.666724
C43	C	0.531466	0.103045	0.000073
C44	C	0.864800	0.436378	0.333406
C45	C	1.198133	0.769711	0.666740
C46	C	0.582095	0.053995	0.000084
C47	C	0.915428	0.387328	0.333418
C48	C	1.248761	0.720662	0.666751
C49	C	0.663843	0.058775	0.000078
C50	C	0.997176	0.392108	0.333411
C51	C	1.330510	0.725442	0.666745
C52	C	0.288022	0.083234	0.000099
C53	C	0.621355	0.416567	0.333432
C54	C	0.954688	0.749900	0.666766
C55	C	0.206267	0.078457	0.000103
C56	C	0.539601	0.411791	0.333436
C57	C	0.872934	0.745124	0.666770
C58	C	0.186770	0.181334	0.000078
C59	C	0.520104	0.514667	0.333411
C60	C	0.853437	0.848000	0.666745
C61	C	0.268521	0.186109	0.000066
C62	C	0.601855	0.519442	0.333400
C63	C	0.935188	0.852775	0.666733
C64	C	0.319142	0.137059	0.000082
C65	C	0.652476	0.470392	0.333416
C66	C	0.985809	0.803726	0.666749
N67	N	0.447905	0.098158	0.000083
N68	N	0.781238	0.431492	0.333416
N69	N	1.114572	0.764825	0.666750
N70	N	0.402702	0.141946	0.000078
N71	N	0.736035	0.475280	0.333411
N72	N	1.069368	0.808613	0.666745
C73	C	0.931837	0.016231	0.000096
C74	C	1.265170	0.349564	0.333429
C75	C	1.598504	0.682897	0.666763
C76	C	0.930783	-0.047038	0.000102
C77	C	1.264116	0.286295	0.333436
C78	C	1.597449	0.619628	0.666769
C79	C	0.995791	-0.442917	0.000063
C80	C	1.329124	-0.109584	0.333397
C81	C	1.662458	0.223750	0.666730
C82	C	0.994812	-0.502366	0.000057
C83	C	1.328145	-0.169033	0.333390
C84	C	1.661479	0.164301	0.666724
O85	O	1.055075	-0.536121	0.000033
O86	O	1.388408	-0.202788	0.333366
O87	O	1.721742	0.130546	0.666699
N88	N	0.922865	-0.528562	0.000050
N89	N	1.256199	-0.195229	0.333383
N90	N	1.589532	0.138104	0.666717
C91	C	0.851893	-0.495307	0.000041
C92	C	1.185227	-0.161974	0.333374
C93	C	1.518560	0.171360	0.666707
O94	O	0.790607	-0.523048	0.000033
O95	O	1.123941	-0.189715	0.333367
O96	O	1.457274	0.143619	0.666700
C97	C	0.852873	-0.435859	0.000041
C98	C	1.186207	-0.102526	0.333375
C99	C	1.519540	0.230807	0.666708
C100	C	0.924824	-0.409666	0.000057
C101	C	1.258158	-0.076332	0.333390
C102	C	1.591491	0.257001	0.666723
C103	C	1.067736	-0.416723	0.000078
C104	C	1.401069	-0.083390	0.333411
C105	C	1.734403	0.249944	0.666745
C106	C	1.068715	-0.357278	0.000086
C107	C	1.402048	-0.023945	0.333419
C108	C	1.735381	0.309389	0.666753
C109	C	0.997748	-0.324027	0.000079
C110	C	1.331081	0.009306	0.333413
C111	C	1.664415	0.342640	0.666746
C112	C	0.925803	-0.350221	0.000065
C113	C	1.259136	-0.016887	0.333398
C114	C	1.592469	0.316446	0.666731
C115	C	0.781902	-0.402605	0.000026
C116	C	1.115236	-0.069272	0.333359
C117	C	1.448569	0.264062	0.666693
C118	C	0.782889	-0.343154	0.000026
C119	C	1.116222	-0.009820	0.333359
C120	C	1.449555	0.323513	0.666693
C121	C	0.854840	-0.316960	0.000042
C122	C	1.188173	0.016373	0.333375
C123	C	1.521506	0.349707	0.666708
C124	C	0.855814	-0.257525	0.000066
C125	C	1.189148	0.075809	0.333399
C126	C	1.522481	0.409142	0.666733
N127	N	0.927761	-0.231328	0.000073
N128	N	1.261094	0.102005	0.333407
N129	N	1.594428	0.435339	0.666740
C130	C	0.998728	-0.264579	0.000080
C131	C	1.332061	0.068754	0.333413
C132	C	1.665395	0.402087	0.666747
C133	C	0.849841	-0.620151	0.000038
C134	C	1.183174	-0.286818	0.333372
C135	C	1.516508	0.046515	0.666705
C136	C	0.848860	-0.679598	0.000044
C137	C	1.182193	-0.346265	0.333377
C138	C	1.515526	-0.012931	0.666710
C139	C	0.991779	-0.686653	0.000058
C140	C	1.325112	-0.353319	0.333392
C141	C	1.658446	-0.019986	0.666725
C142	C	0.992759	-0.627205	0.000059
C143	C	1.326092	-0.293872	0.333392
C144	C	1.659426	0.039462	0.666726
C145	C	0.921788	-0.593955	0.000045
C146	C	1.255121	-0.260622	0.333379
C147	C	1.588454	0.072712	0.666712
C148	C	1.000777	-0.139740	0.000097
C149	C	1.334111	0.193593	0.333431
C150	C	1.667444	0.526927	0.666764
C151	C	1.001749	-0.080289	0.000109
C152	C	1.335083	0.253044	0.333442
C153	C	1.668416	0.586377	0.666776
C154	C	0.858831	-0.073240	0.000090
C155	C	1.192164	0.260093	0.333423
C156	C	1.525497	0.593427	0.666756
C157	C	0.857858	-0.132685	0.000083
C158	C	1.191191	0.200648	0.333416
C159	C	1.524525	0.533981	0.666749
C160	C	0.928838	-0.165934	0.000084
C161	C	1.262171	0.167399	0.333417
C162	C	1.595505	0.500732	0.666750
O163	O	0.795583	-0.223734	0.000087
O164	O	1.128917	0.109600	0.333420
O165	O	1.462250	0.442933	0.666754
O166	O	1.060004	-0.236831	0.000076
O167	O	1.393338	0.096503	0.333410
O168	O	1.726671	0.429836	0.666743
C169	C	1.068641	0.122420	0.000091
C170	C	1.401974	0.455753	0.333424
C171	C	1.735307	0.789087	0.666758
C172	C	1.155645	0.127503	0.000094
C173	C	1.488979	0.460837	0.333428
C174	C	1.822312	0.794170	0.666761
C175	C	0.918773	0.223877	0.000058
C176	C	1.252106	0.557210	0.333391
C177	C	1.585439	0.890543	0.666724
C178	C	0.919827	0.287146	0.000046
C179	C	1.253160	0.620479	0.333379
C180	C	1.586494	0.953812	0.666713
N181	N	0.914933	0.127048	0.216412
N182	N	1.248266	0.460382	0.549745
N183	N	1.581599	0.793715	0.883079
N184	N	0.935683	0.113055	-0.216256
N185	N	1.269016	0.446388	0.117077
N186	N	1.602350	0.779722	0.450410
C187	C	0.966445	0.092202	0.260118
C188	C	1.299779	0.425536	0.593451
C189	C	1.633112	0.758869	0.926785
C190	C	0.962267	0.095032	0.347524
C191	C	1.295600	0.428365	0.680857
C192	C	1.628933	0.761699	1.014190
C193	C	0.906579	0.132711	0.391222
C194	C	1.239912	0.466044	0.724555
C195	C	1.573245	0.799378	1.057889
C196	C	0.855061	0.167558	0.347510
C197	C	1.188394	0.500892	0.680843
C198	C	1.521727	0.834225	1.014177
C199	C	0.859236	0.164725	0.260106
C200	C	1.192569	0.498059	0.593439
C201	C	1.525903	0.831392	0.926772
C202	C	0.888340	0.145069	0.652627
C203	C	1.221674	0.478403	0.985961
C204	C	1.555007	0.811736	1.319294
C205	C	0.884170	0.147901	0.740038
C206	C	1.217504	0.481234	1.073371
C207	C	1.550837	0.814568	1.406704
C208	C	0.991376	0.075374	0.740045
C209	C	1.324709	0.408707	1.073379
C210	C	1.658043	0.742040	1.406712
C211	C	0.995550	0.072546	0.652640
C212	C	1.328883	0.405880	0.985973
C213	C	1.662216	0.739213	1.319306
C214	C	0.944029	0.107392	0.608935
C215	C	1.277362	0.440725	0.942268
C216	C	1.610695	0.774058	1.275602
N217	N	0.902308	0.135606	0.480565
N218	N	1.235641	0.468939	0.813898
N219	N	1.568975	0.802272	1.147231
N220	N	0.948296	0.104494	0.519594
N221	N	1.281630	0.437827	0.852927
N222	N	1.614963	0.771160	1.186261
H223	H	0.145546	0.221267	0.000067
H224	H	0.478880	0.554600	0.333400
H225	H	0.812213	0.887933	0.666733
H226	H	0.329228	0.043294	0.000113
H227	H	0.662561	0.376627	0.333446
H228	H	0.995895	0.709961	0.666779
Cl229	Cl	0.542965	-0.013672	0.000109
Cl230	Cl	0.876298	0.319661	0.333442
Cl231	Cl	1.209631	0.652994	0.666775
H232	H	1.011796	0.061523	0.224545
H233	H	1.345129	0.394856	0.557878
H234	H	1.678462	0.728189	0.891211
H235	H	0.725094	-0.316084	0.000014
H236	H	1.058427	0.017249	0.333347
H237	H	1.391760	0.350583	0.666680
H238	H	0.838820	0.178586	0.775613
H239	H	1.172153	0.511919	1.108946
H240	H	1.505487	0.845253	1.442279
Cl241	Cl	1.159173	-0.324359	0.000082
Cl242	Cl	1.492507	0.008974	0.333415
Cl243	Cl	1.825840	0.342308	0.666748
Cl244	Cl	0.307645	0.253778	0.000042
Cl245	Cl	0.640978	0.587111	0.333375
Cl246	Cl	0.974312	0.920445	0.666708
H247	H	0.809714	0.198235	0.383094
H248	H	1.143048	0.531569	0.716427
H249	H	1.476381	0.864902	1.049761
H250	H	0.846391	0.173443	0.617050
H251	H	1.179725	0.506776	0.950383
H252	H	1.513058	0.840110	1.283717
H253	H	1.004212	0.066657	0.383109
H254	H	1.337545	0.399991	0.716442
H255	H	1.670879	0.733324	1.049775
H256	H	0.817288	0.193100	0.224521
H257	H	1.150621	0.526433	0.557854
H258	H	1.483955	0.859767	0.891188
H259	H	0.705059	0.018836	0.000085
H260	H	1.038393	0.352170	0.333418
H261	H	1.371726	0.685503	0.666751
H262	H	0.669678	0.205481	0.000032
H263	H	1.003012	0.538814	0.333365
H264	H	1.336345	0.872147	0.666699
H265	H	1.125529	-0.443790	0.000080
H266	H	1.458863	-0.110457	0.333414
H267	H	1.792196	0.222876	0.666747
Cl268	Cl	1.080995	-0.728466	0.000061
Cl269	Cl	1.414329	-0.395132	0.333394
Cl270	Cl	1.747662	-0.061799	0.666728
Cl271	Cl	0.498956	0.218532	0.000041
Cl272	Cl	0.832290	0.551865	0.333375
Cl273	Cl	1.165623	0.885198	0.666708
H274	H	0.723313	-0.423922	0.000008
H275	H	1.056646	-0.090588	0.333342
H276	H	1.389979	0.242745	0.666675
H277	H	1.060343	-0.058966	0.000124
H278	H	1.393676	0.274368	0.333457
H279	H	1.727009	0.607701	0.666790
H280	H	0.180928	0.034624	0.000115
H281	H	0.514262	0.367957	0.333448
H282	H	0.847595	0.701290	0.666781
H283	H	0.792043	-0.593082	0.000034
H284	H	1.125377	-0.259749	0.333368
H285	H	1.458710	0.073585	0.666701
Cl286	Cl	1.090010	-0.181530	0.000100
Cl287	Cl	1.423344	0.151804	0.333433
Cl288	Cl	1.756677	0.485137	0.666767
Cl289	Cl	1.056138	0.031568	0.794992
Cl290	Cl	1.389472	0.364902	1.128325
Cl291	Cl	1.722805	0.698235	1.461659
H292	H	0.790270	-0.700919	0.000046
H293	H	1.123603	-0.367586	0.333379
H294	H	1.456936	-0.034252	0.666712
H295	H	1.051348	-0.605882	0.000071
H296	H	1.384681	-0.272549	0.333404
H297	H	1.718014	0.060784	0.666738
Cl298	Cl	0.767404	-0.165615	0.000079
Cl299	Cl	1.100737	0.167719	0.333412
Cl300	Cl	1.434071	0.501052	0.666746
H301	H	0.801051	-0.046156	0.000087
H302	H	1.134385	0.287177	0.333421
H303	H	1.467718	0.620511	0.666754
Cl304	Cl	1.065559	0.025179	0.597704
Cl305	Cl	1.398892	0.358512	0.931038
Cl306	Cl	1.732225	0.691846	1.264371
