data_functionalizedCrystal
_audit_creation_method	'MofGen! by Chris Wilmer'
_symmetry_space_group_name_H-M	'P1'
_symmetry_Int_Tables_number	1
_symmetry_cell_setting	triclinic
loop_
_symmetry_equiv_pos_as_xyz
  x,y,z
_cell_length_a	13.635800
_cell_length_b	11.168121
_cell_length_c	11.102291
_cell_angle_alpha	88.013887
_cell_angle_beta	71.394248
_cell_angle_gamma	108.508496
loop_
_atom_site_label
_atom_site_type_symbol
_atom_site_fract_x
_atom_site_fract_y
_atom_site_fract_z
V1	V	-2.055516	-0.174720	0.396269
O2	O	-2.035298	0.008380	0.388715
O3	O	-2.043656	-0.346426	0.393570
O4	O	-2.043913	-0.172040	0.569092
O5	O	-2.035040	-0.167213	0.211978
V6	V	-2.294099	-0.152819	0.374226
O7	O	-2.193118	-0.222764	0.444625
O8	O	-2.381596	-0.104775	0.325870
O9	O	-2.194356	0.018886	0.376925
O10	O	-2.373016	-0.335919	0.381780
O11	O	-2.373274	-0.160326	0.558517
O12	O	-2.194100	-0.155499	0.201403
V13	V	-1.555516	-0.174720	0.396269
O14	O	-1.535298	0.008380	0.388715
O15	O	-1.543656	-0.346426	0.393570
O16	O	-1.543913	-0.172040	0.569092
O17	O	-1.535040	-0.167213	0.211978
V18	V	-1.794099	-0.152819	0.374226
O19	O	-1.693118	-0.222764	0.444625
O20	O	-1.881596	-0.104775	0.325870
O21	O	-1.694356	0.018886	0.376925
O22	O	-1.873016	-0.335919	0.381780
O23	O	-1.873274	-0.160326	0.558517
O24	O	-1.694100	-0.155499	0.201403
C25	C	-1.968751	-0.388283	0.387321
C26	C	-1.999781	-0.528655	0.386266
C27	C	-2.101044	-0.597347	0.391823
C28	C	-2.133117	-0.742429	0.390732
C29	C	-1.969077	-0.165836	0.611215
C30	C	-2.000313	-0.164780	0.752498
C31	C	-2.100933	0.060738	0.383170
C32	C	-2.059522	0.201108	0.384234
C33	C	-2.100606	-0.161708	0.159273
C34	C	-2.058988	-0.162757	0.017989
C35	C	-1.468751	-0.388283	0.387321
C36	C	-1.499781	-0.528655	0.386266
C37	C	-2.106982	-0.170582	0.825346
C38	C	-2.136319	-0.169566	0.958092
C39	C	-1.952309	-0.156951	0.945130
C40	C	-1.922972	-0.157958	0.812385
C41	C	-2.213221	-0.177871	0.832832
C42	C	-2.242558	-0.176854	0.965578
C43	C	-1.469077	-0.165836	0.611215
C44	C	-1.500313	-0.164780	0.752498
C45	C	-1.600933	0.060738	0.383170
C46	C	-1.559522	0.201108	0.384234
C47	C	-1.600606	-0.161708	0.159273
C48	C	-1.558988	-0.162757	0.017989
C49	C	-1.606354	-0.601033	0.392110
C50	C	-1.635507	-0.732928	0.391130
C51	C	-1.451503	-0.720053	0.378454
C52	C	-1.422354	-0.588162	0.379444
C53	C	-1.712586	-0.608467	0.399423
C54	C	-1.741739	-0.740362	0.398442
C55	C	-1.606982	-0.170582	0.825346
C56	C	-1.636319	-0.169566	0.958092
C57	C	-1.452309	-0.156951	0.945130
C58	C	-1.422972	-0.157958	0.812385
C59	C	-1.713221	-0.177871	0.832832
C60	C	-1.742558	-0.176854	0.965578
H61	H	-2.163995	-0.548751	0.397395
H62	H	-1.836114	-0.153235	0.753077
H63	H	-1.807561	-0.797859	0.492600
H64	H	-2.223082	-0.092166	0.785730
H65	H	-1.760919	-0.087199	0.994674
C66	C	-1.838061	-0.298620	1.036263
C67	C	-1.806090	-0.365864	1.116656
C68	C	-1.894033	-0.478026	1.181814
H69	H	-1.858080	-0.350203	0.975719
H70	H	-1.899383	-0.277502	1.086496
H71	H	-1.744787	-0.386985	1.066426
H72	H	-1.786081	-0.314319	1.177223
H73	H	-1.955356	-0.456908	1.232047
H74	H	-1.914046	-0.529598	1.121261
H75	H	-1.872357	-0.523659	1.236377
H76	H	-2.260782	-0.272038	0.808374
H77	H	-1.889344	-0.151394	0.993907
H78	H	-1.336114	-0.153235	0.753077
H79	H	-2.260919	-0.087199	0.994674
H80	H	-2.314274	-0.268156	1.018430
C81	C	-1.306562	-0.509608	0.372843
C82	C	-1.229772	-0.520764	0.258919
C83	C	-1.123092	-0.448406	0.252786
H84	H	-1.292623	-0.540044	0.444444
H85	H	-1.300221	-0.422508	0.374339
H86	H	-1.236109	-0.607845	0.257435
H87	H	-1.243676	-0.490320	0.187298
H88	H	-1.116751	-0.361307	0.254282
H89	H	-1.109164	-0.478849	0.324392
H90	H	-1.070977	-0.455956	0.175485
H91	H	-1.389344	-0.151394	0.993907
C92	C	-1.726345	-0.063708	0.769782
C93	C	-1.696974	-0.065040	0.637069
C94	C	-1.709064	0.040093	0.578948
H95	H	-1.679871	0.012926	0.785631
H96	H	-1.800956	-0.068138	0.804522
H97	H	-1.622375	-0.060598	0.602341
H98	H	-1.743440	-0.141650	0.621183
H99	H	-1.783676	0.035662	0.613688
H100	H	-1.662590	0.116719	0.594807
H101	H	-1.689148	0.039197	0.488899
C102	C	-1.367419	-0.784692	0.370776
C103	C	-1.350386	-0.842990	0.259974
C104	C	-1.272921	-0.902529	0.252847
H105	H	-1.394099	-0.847493	0.444491
H106	H	-1.299733	-0.722720	0.367363
H107	H	-1.418058	-0.904956	0.263397
H108	H	-1.323691	-0.780217	0.186239
H109	H	-1.205235	-0.840557	0.249434
H110	H	-1.299609	-0.965324	0.326568
H111	H	-1.261347	-0.942082	0.177663
H112	H	-1.760782	-0.272038	0.808374
C113	C	-1.787264	-0.583258	0.522774
C114	C	-1.862086	-0.699696	0.597239
C115	C	-1.930883	-0.676524	0.710883
H116	H	-1.826606	-0.533717	0.502400
H117	H	-1.743828	-0.538112	0.569741
H118	H	-1.905517	-0.744823	0.550282
H119	H	-1.822775	-0.749254	0.617648
H120	H	-1.887447	-0.631377	0.757849
H121	H	-1.970218	-0.626981	0.690495
H122	H	-1.981651	-0.755522	0.761426
C123	C	-1.712832	-0.538171	0.279870
C124	C	-1.742700	-0.626043	0.199654
C125	C	-1.742941	-0.561333	0.089514
H126	H	-1.641243	-0.477910	0.235298
H127	H	-1.764345	-0.494943	0.304145
H128	H	-1.691189	-0.669250	0.175378
H129	H	-1.814290	-0.686307	0.244186
H130	H	-1.794454	-0.518106	0.113789
H131	H	-1.671350	-0.501074	0.044953
H132	H	-1.763216	-0.620945	0.035080
H133	H	-2.219862	-0.801477	0.395475
H134	H	-1.972771	-0.739849	0.379472
H135	H	-1.936834	-0.577253	0.380708
H136	H	-1.767356	-0.765166	0.311628
