data_functionalizedCrystal
_audit_creation_method	'MofGen! by Chris Wilmer'
_symmetry_space_group_name_H-M	'P1'
_symmetry_Int_Tables_number	1
_symmetry_cell_setting	triclinic
loop_
_symmetry_equiv_pos_as_xyz
  x,y,z
_cell_length_a	16.992696
_cell_length_b	16.992694
_cell_length_c	15.455313
_cell_angle_alpha	92.857794
_cell_angle_beta	87.160376
_cell_angle_gamma	90.668339
loop_
_atom_site_label
_atom_site_type_symbol
_atom_site_fract_x
_atom_site_fract_y
_atom_site_fract_z
O1	O	-0.163693	-1.054082	-0.072047
O2	O	0.336307	-0.554082	0.427953
O3	O	-0.161861	-0.825683	-0.072072
O4	O	0.338139	-0.325683	0.427928
O5	O	-0.048578	-0.938965	-0.072036
O6	O	0.451422	-0.438965	0.427964
O7	O	-0.276976	-0.940799	-0.072084
O8	O	0.223024	-0.440799	0.427916
O9	O	-0.055028	-0.932486	0.072224
O10	O	0.444972	-0.432486	0.572224
O11	O	-0.168311	-0.819203	0.072188
O12	O	0.331689	-0.319203	0.572188
O13	O	-0.170143	-1.047602	0.072213
O14	O	0.329857	-0.547602	0.572213
Cu15	Cu	-0.169816	-0.932811	0.085372
Cu16	Cu	0.330184	-0.432811	0.585372
Cu17	Cu	-0.162188	-0.940474	-0.085232
Cu18	Cu	0.337812	-0.440474	0.414768
O19	O	-0.283426	-0.934319	0.072176
O20	O	0.216574	-0.434319	0.572176
C21	C	-0.162730	-0.793083	0.000055
C22	C	0.337270	-0.293083	0.500055
C23	C	-0.155701	-0.705599	0.000046
C24	C	0.344299	-0.205599	0.500046
C25	C	-0.022443	-0.933370	0.000098
C26	C	0.477557	-0.433370	0.500098
C27	C	0.065041	-0.926340	0.000110
C28	C	0.565041	-0.426340	0.500110
C29	C	0.111031	-0.994157	0.000126
C30	C	0.611031	-0.494157	0.500126
C31	C	0.193232	-0.987548	0.000129
C32	C	0.693232	-0.487548	0.500129
C33	C	0.229440	-0.913121	0.000123
C34	C	0.729440	-0.413121	0.500123
C35	C	0.183444	-0.845298	0.000105
C36	C	0.683444	-0.345298	0.500105
C37	C	0.101245	-0.851909	0.000096
C38	C	0.601245	-0.351909	0.500096
C39	C	0.474754	-0.885725	0.000145
C40	C	0.974754	-0.385725	0.500145
C41	C	0.556958	-0.879119	0.000157
C42	C	1.056958	-0.379119	0.500157
C43	C	0.566741	-1.021370	0.000180
C44	C	1.066741	-0.521370	0.500180
C45	C	0.484540	-1.027973	0.000175
C46	C	0.984540	-0.527973	0.500175
C47	C	0.438551	-0.960151	0.000153
C48	C	0.938551	-0.460151	0.500153
N49	N	0.313462	-0.906363	0.000130
N50	N	0.813462	-0.406363	0.500130
N51	N	0.354531	-0.966910	0.000140
N52	N	0.854531	-0.466910	0.500140
C53	C	-0.169274	-1.080202	0.000084
C54	C	0.330726	-0.580202	0.500084
C55	C	-0.176303	-1.167686	0.000087
C56	C	0.323697	-0.667686	0.500087
C57	C	0.690438	-0.939913	0.000078
C58	C	1.190438	-0.439913	0.500078
C59	C	0.602949	-0.946936	0.000173
C60	C	1.102949	-0.446936	0.500173
C61	C	-0.223518	-0.659609	0.000033
C62	C	0.276482	-0.159609	0.500033
C63	C	-0.216910	-0.577407	0.000046
C64	C	0.283090	-0.077407	0.500046
C65	C	-0.142483	-0.541198	0.000067
C66	C	0.357517	-0.041198	0.500067
C67	C	-0.074661	-0.587194	0.000083
C68	C	0.425339	-0.087194	0.500083
C69	C	-0.081270	-0.669393	0.000076
C70	C	0.418730	-0.169393	0.500076
C71	C	-0.115090	-0.295882	0.000096
C72	C	0.384910	0.204118	0.500096
C73	C	-0.108485	-0.213677	0.000100
C74	C	0.391515	0.286323	0.500100
C75	C	-0.250735	-0.203895	0.000065
C76	C	0.249265	0.296105	0.500065
C77	C	-0.257338	-0.286097	0.000053
C78	C	0.242662	0.213903	0.500053
C79	C	-0.189516	-0.332086	0.000073
C80	C	0.310484	0.167914	0.500073
N81	N	-0.135726	-0.457175	0.000078
N82	N	0.364274	0.042825	0.500078
N83	N	-0.196273	-0.416107	0.000069
N84	N	0.303727	0.083893	0.500069
N85	N	-0.175180	-0.927427	0.205366
N86	N	0.324820	-0.427427	0.705366
N87	N	-0.156818	-0.945864	-0.205226
N88	N	0.343182	-0.445864	0.294774
C89	C	-0.127074	-0.975572	0.250776
C90	C	0.372926	-0.475572	0.750776
C91	C	-0.131138	-0.971508	0.341582
C92	C	0.368862	-0.471508	0.841582
C93	C	-0.183314	-0.919302	0.386978
C94	C	0.316686	-0.419302	0.886978
C95	C	-0.231422	-0.871151	0.341562
C96	C	0.268578	-0.371151	0.841562
C97	C	-0.227353	-0.875212	0.250757
C98	C	0.272647	-0.375212	0.750757
C99	C	-0.200857	-0.901774	0.658553
C100	C	0.299143	-0.401774	1.158553
C101	C	-0.204924	-0.897718	0.749365
C102	C	0.295076	-0.397718	1.249365
C103	C	-0.104639	-0.998075	0.749379
C104	C	0.395361	-0.498075	1.249379
C105	C	-0.100577	-1.002134	0.658573
C106	C	0.399423	-0.502134	1.158573
C107	C	-0.148683	-0.953980	0.613164
C108	C	0.351317	-0.453980	1.113164
N109	N	-0.187472	-0.915149	0.479797
N110	N	0.312528	-0.415149	0.979797
N111	N	-0.144521	-0.958130	0.520347
N112	N	0.355479	-0.458130	1.020347
H113	H	0.081556	-1.054764	0.000136
H114	H	0.581556	-0.554764	0.500136
O115	O	-0.261202	-0.841409	0.798333
O116	O	0.238798	-0.341409	1.298333
H117	H	-0.227495	-0.799237	0.839731
H118	H	0.272505	-0.299237	1.339731
O119	O	-0.008126	-0.719004	0.000093
O120	O	0.491874	-0.219004	0.500093
H121	H	0.029877	-0.708216	-0.058698
H122	H	0.529877	-0.208216	0.441302
H123	H	-0.065473	-1.037278	0.786359
H124	H	0.434527	-0.537278	1.286359
O125	O	-0.323882	-0.154290	0.000062
O126	O	0.176118	0.345710	0.500062
H127	H	-0.321647	-0.119230	-0.058727
H128	H	0.178353	0.380770	0.441273
O129	O	0.005616	-0.548145	0.000113
O130	O	0.505616	-0.048145	0.500113
H131	H	0.014667	-0.513567	-0.058685
H132	H	0.514667	-0.013567	0.441315
O133	O	0.425162	-0.812571	0.000142
O134	O	0.925162	-0.312571	0.500142
H135	H	0.441225	-0.779831	-0.058650
H136	H	0.941225	-0.279831	0.441350
H137	H	0.586436	-0.818508	0.000167
H138	H	1.086436	-0.318508	0.500167
O139	O	-0.290055	-0.527800	0.000032
O140	O	0.209945	-0.027800	0.500032
H141	H	-0.342918	-0.566789	0.000006
H142	H	0.157082	-0.066789	0.500006
O143	O	-0.287701	-0.814846	0.390524
O144	O	0.212299	-0.314846	0.890524
H145	H	-0.348917	-0.829500	0.373063
H146	H	0.151083	-0.329500	0.873063
O147	O	-0.337618	-0.325142	0.000050
O148	O	0.162382	0.174858	0.500050
H149	H	-0.367834	-0.309646	-0.058746
H150	H	0.132166	0.190354	0.441254
O151	O	-0.252750	-0.849844	0.609589
O152	O	0.247250	-0.349844	1.109589
H153	H	-0.241154	-0.861428	0.538819
H154	H	0.258846	-0.361428	1.038819
O155	O	0.616346	-1.094515	0.000196
O156	O	1.116346	-0.594515	0.500196
H157	H	0.600294	-1.127243	0.059001
H158	H	1.100294	-0.627243	0.559001
O159	O	0.222491	-0.765020	0.000108
O160	O	0.722491	-0.265020	0.500108
H161	H	0.287375	-0.771814	0.000130
H162	H	0.787375	-0.271814	0.500130
O163	O	-0.028208	-0.174617	0.000131
O164	O	0.471792	0.325383	0.500131
H165	H	0.017843	-0.220404	0.000153
H166	H	0.517843	0.279596	0.500153
O167	O	-0.041943	-0.345480	0.000118
O168	O	0.458057	0.154520	0.500118
H169	H	0.010919	-0.306490	0.000126
H170	H	0.510919	0.193510	0.500126
H171	H	0.063801	-0.796684	0.000083
H172	H	0.563801	-0.296684	0.500083
O173	O	0.445496	-1.108254	0.000162
O174	O	0.945496	-0.608254	0.500162
H175	H	0.460999	-1.138457	0.058959
H176	H	0.960999	-0.638457	0.558959
H177	H	-0.284124	-0.689084	0.000015
H178	H	0.215876	-0.189084	0.500015
O179	O	-0.070795	-1.031877	0.201814
O180	O	0.429205	-0.531877	0.701814
H181	H	-0.038020	-1.064666	0.248650
H182	H	0.461980	-0.564666	0.748650
O183	O	-0.079268	-1.023451	0.390563
O184	O	0.420732	-0.523451	0.890563
H185	H	-0.042316	-1.060447	0.343742
H186	H	0.457684	-0.560447	0.843742
O187	O	-0.279243	-0.823289	0.201772
O188	O	0.220757	-0.323289	0.701772
H189	H	-0.316214	-0.786310	0.248592
H190	H	0.183786	-0.286310	0.748592
H191	H	-0.058092	-1.044644	0.621614
H192	H	0.441908	-0.544644	1.121614
H193	H	0.230674	-1.042772	0.000144
H194	H	0.730674	-0.542772	0.500144
