data_functionalizedCrystal
_audit_creation_method	'MofGen! by Chris Wilmer'
_symmetry_space_group_name_H-M	'P1'
_symmetry_Int_Tables_number	1
_symmetry_cell_setting	triclinic
loop_
_symmetry_equiv_pos_as_xyz
  x,y,z
_cell_length_a	19.377369
_cell_length_b	14.395555
_cell_length_c	14.395555
_cell_angle_alpha	90.000325
_cell_angle_beta	72.123253
_cell_angle_gamma	48.635948
loop_
_atom_site_label
_atom_site_type_symbol
_atom_site_fract_x
_atom_site_fract_y
_atom_site_fract_z
Zr1	Zr	0.779837	0.709612	0.064335
O2	O	0.928488	0.525959	-0.048512
O3	O	0.631195	0.790403	0.074319
O4	O	0.779843	0.755081	-0.083993
O5	O	0.779833	0.561284	0.262674
O6	O	0.779838	0.907956	-0.083986
O7	O	0.779840	0.561281	0.109800
O8	O	0.513934	0.971141	0.199205
O9	O	1.045736	0.498099	-0.020517
O10	O	0.692327	0.909359	0.108315
O11	O	0.692325	0.795272	0.222398
O12	O	0.867339	0.753684	0.036006
O13	O	0.867337	0.639597	0.150089
Zr14	Zr	0.779817	0.953435	0.308162
Zr15	Zr	0.779829	0.953431	0.064346
Zr16	Zr	0.779825	0.709617	0.308151
Zr17	Zr	0.966835	0.665179	0.108984
Zr18	Zr	0.592819	0.997869	0.263514
O19	O	0.928459	0.872644	0.298179
O20	O	0.928476	0.872638	-0.048496
O21	O	0.928471	0.525966	0.298163
O22	O	0.631166	1.137088	0.421010
O23	O	0.631183	1.137082	0.074335
O24	O	0.631178	0.790410	0.420994
O25	O	0.779821	1.101763	0.109824
O26	O	0.779811	0.907966	0.456490
O27	O	0.779816	0.755091	0.456483
O28	O	0.779814	1.101766	0.262698
O29	O	1.045729	0.691902	-0.020509
O30	O	0.513925	0.971145	0.393006
O31	O	0.513918	1.164948	0.393015
O32	O	0.513927	1.164945	0.199214
O33	O	1.045727	0.498103	0.173284
O34	O	1.045720	0.691906	0.173293
O35	O	0.692315	0.909363	0.336491
O36	O	0.692317	1.023450	0.222408
O37	O	0.867329	0.867776	0.150099
O38	O	0.867327	0.753689	0.264182
C39	C	0.545922	0.887103	0.130401
C40	C	0.466536	0.905966	0.111446
C41	C	0.205134	0.670728	0.347181
C42	C	0.130449	0.688608	0.329451
C43	C	0.130460	0.807706	0.210357
C44	C	0.205143	0.789841	0.228081
C45	C	0.242476	0.721349	0.296492
C46	C	0.242485	0.840463	0.177392
C47	C	0.317166	0.822593	0.195110
C48	C	0.354505	0.754101	0.263516
C49	C	0.317156	0.703479	0.314210
C50	C	0.205156	0.908946	0.108975
C51	C	0.242498	0.959568	0.058287
C52	C	0.317175	0.941706	0.076010
C53	C	0.354514	0.873215	0.144416
C54	C	0.354523	0.992328	0.025316
C55	C	0.429204	0.974458	0.043034
C56	C	0.429195	0.855345	0.162134
C57	C	0.779838	0.526544	0.186235
C58	C	0.779841	0.423036	0.186230
C59	C	0.875265	0.277567	0.146814
C60	C	0.827566	0.258065	0.090348
C61	C	0.827536	0.258116	0.242687
C62	C	0.732142	0.404898	0.129702
C63	C	0.732125	0.404942	0.282103
C64	C	0.684357	0.385531	0.225647
C65	C	1.013732	0.775944	0.242097
C66	C	1.093118	0.757081	0.261051
C67	C	0.779842	0.831518	-0.118728
C68	C	0.779847	0.831516	-0.222234
C69	C	0.779816	1.136504	0.186262
C70	C	0.779813	1.240011	0.186267
C71	C	0.875254	0.746640	-0.384152
C72	C	0.827577	0.712873	-0.302507
C73	C	0.827548	0.865225	-0.302514
C74	C	0.732130	0.797702	-0.324987
C75	C	0.732114	0.950111	-0.325004
C76	C	0.684368	0.916387	-0.243359
C77	C	0.779812	0.831529	0.491225
C78	C	0.779807	0.831531	0.594732
C79	C	0.545911	1.192083	0.130414
C80	C	0.466522	1.314454	0.111465
C81	C	0.545907	0.887109	0.435377
C82	C	0.466516	0.905974	0.519929
C83	C	0.545896	1.192089	0.435391
C84	C	0.466502	1.314461	0.519947
C85	C	1.013758	0.470959	-0.062893
C86	C	1.093152	0.348586	-0.147450
C87	C	1.013743	0.470964	0.242083
C88	C	1.093132	0.348594	0.261033
C89	C	1.013747	0.775938	-0.062880
C90	C	1.093138	0.757073	-0.147432
C91	C	0.429245	1.312366	0.043000
C92	C	0.354661	1.427334	0.025174
C93	C	0.317350	1.544390	0.075820
C94	C	0.354635	1.546474	0.144288
C95	C	0.429222	1.431506	0.162107
C96	C	0.429229	0.974388	0.619201
C97	C	0.354643	0.992107	0.698659
C98	C	0.317342	0.941419	0.678840
C99	C	0.354637	0.872996	0.579559
C100	C	0.429226	0.855270	0.500105
C101	C	0.429219	1.431491	0.500106
C102	C	0.354630	1.546480	0.579549
C103	C	0.317321	1.544437	0.678832
C104	C	0.354611	1.427394	0.698673
C105	C	0.429204	1.312407	0.619231
C106	C	1.130445	0.231554	-0.127606
C107	C	1.205056	0.116560	-0.207044
C108	C	1.242369	0.118601	-0.306325
C109	C	1.205074	0.235646	-0.326167
C110	C	1.130468	0.350636	-0.246730
C111	C	1.130417	0.350680	0.329489
C112	C	1.205021	0.235707	0.347293
C113	C	1.242335	0.118650	0.296645
C114	C	1.205047	0.116567	0.228180
C115	C	1.130449	0.231537	0.210372
C116	C	1.130416	0.807778	-0.127583
C117	C	1.205002	0.790077	-0.207021
C118	C	1.242313	0.721663	-0.306307
C119	C	1.205028	0.670957	-0.326155
C120	C	1.130439	0.688667	-0.246719
H121	H	0.415319	0.739547	0.277937
Cl122	Cl	0.307770	1.078132	0.823458
H123	H	0.459550	1.217122	0.635400
Cl124	Cl	0.559706	1.027212	-0.150132
H125	H	0.235532	0.614955	0.402889
H126	H	0.324245	1.641797	0.185518
Cl127	Cl	1.336114	-0.025875	0.319046
Cl128	Cl	0.307761	1.693603	0.554583
Cl129	Cl	0.559711	0.454651	0.277038
H130	H	1.235410	0.021270	-0.190869
Cl131	Cl	0.999841	0.208691	0.095228
Cl132	Cl	0.223579	1.688913	0.053409
H133	H	0.691806	1.050370	-0.335577
H134	H	0.459564	1.433224	0.217862
Cl135	Cl	0.889863	0.558041	-0.286229
Cl136	Cl	1.251962	-0.030601	0.164521
Cl137	Cl	1.083579	0.228894	0.124314
Cl138	Cl	1.251877	0.238356	0.433369
Cl139	Cl	1.083524	0.893793	-0.002775
H140	H	1.303049	0.707251	-0.370980
H141	H	1.235351	0.831368	-0.190840
H142	H	1.235419	0.615253	-0.407004
Cl143	Cl	1.083552	0.228954	-0.002803
Cl144	Cl	0.307696	1.424848	0.823491
Cl145	Cl	1.083594	0.624898	-0.271687
H146	H	0.867882	0.195024	0.290418
Cl147	Cl	0.083511	0.624956	0.393178
Cl148	Cl	0.223544	1.689006	0.778690
H149	H	0.691827	0.468033	0.363157
Cl150	Cl	0.889836	0.160637	-0.034808
H151	H	0.867904	0.893728	-0.291996
Cl152	Cl	0.223569	0.963717	0.778738
Cl153	Cl	1.251989	0.238192	-0.450986
Cl154	Cl	0.476126	0.769249	0.248146
Cl155	Cl	0.476104	1.038126	0.644141
H156	H	1.303118	0.024960	-0.371000
H157	H	0.459623	1.217062	0.001743
H158	H	0.347554	0.647707	0.369919
Cl159	Cl	0.307730	0.809285	0.554660
H160	H	0.100058	0.863468	0.154653
H161	H	0.144352	0.923485	0.094546
Cl162	Cl	0.999813	0.635729	-0.477600
H163	H	0.212096	1.015330	0.002583
H164	H	1.100105	0.445926	-0.262900
H165	H	0.691832	0.769068	-0.335412
Cl166	Cl	0.669951	0.502034	0.055838
Cl167	Cl	0.307594	1.078410	-0.060695
H168	H	0.459575	0.799567	0.419274
Cl169	Cl	0.476112	1.434091	0.375303
Cl170	Cl	0.476152	1.038096	-0.020690
H171	H	0.324313	1.425612	-0.030577
H172	H	1.100042	0.445983	0.370743
