data_functionalizedCrystal
_audit_creation_method	'MofGen! by Chris Wilmer'
_symmetry_space_group_name_H-M	'P1'
_symmetry_Int_Tables_number	1
_symmetry_cell_setting	triclinic
loop_
_symmetry_equiv_pos_as_xyz
  x,y,z
_cell_length_a	8.559649
_cell_length_b	10.065875
_cell_length_c	8.559649
_cell_angle_alpha	97.549942
_cell_angle_beta	110.221336
_cell_angle_gamma	97.500981
loop_
_atom_site_label
_atom_site_type_symbol
_atom_site_fract_x
_atom_site_fract_y
_atom_site_fract_z
O1	O	2.153539	0.113472	0.081789
O2	O	2.653539	0.613472	0.581789
O3	O	1.678055	0.113478	-0.001991
O4	O	2.178055	0.613478	0.498009
O5	O	1.957687	0.113473	0.277641
O6	O	2.457687	0.613473	0.777641
O7	O	1.873907	0.113477	-0.197843
O8	O	2.373907	0.613477	0.302157
O9	O	1.904342	-0.113515	0.224128
O10	O	2.404342	0.386485	0.724128
O11	O	1.624710	-0.113510	-0.055504
O12	O	2.124710	0.386490	0.444496
O13	O	2.100193	-0.113515	0.028276
O14	O	2.600193	0.386485	0.528276
Zn15	Zn	1.853982	-0.149552	-0.022110
Zn16	Zn	2.353982	0.350448	0.477890
Zn17	Zn	1.924267	0.149514	0.048395
Zn18	Zn	2.424267	0.649514	0.548395
O19	O	1.820561	-0.113511	-0.251356
O20	O	2.320561	0.386489	0.248644
C21	C	1.591074	-0.000015	-0.035096
C22	C	2.091074	0.499985	0.464904
C23	C	1.411375	-0.000013	-0.053995
C24	C	1.911375	0.499987	0.446005
N25	N	1.806026	-0.353657	-0.070226
N26	N	2.306026	0.146343	0.429774
C27	C	1.907573	-0.421437	0.031663
C28	C	2.407573	0.078563	0.531663
C29	C	1.870676	-0.578604	-0.005379
C30	C	2.370676	-0.078604	0.494621
C31	C	2.187176	-0.000019	0.061382
C32	C	2.687176	0.499981	0.561382
C33	C	2.366877	-0.000012	0.080283
C34	C	2.866877	0.499988	0.580283
C35	C	1.937364	-0.000018	0.311194
C36	C	2.437364	0.499982	0.811194
C37	C	1.956265	-0.000011	0.490895
C38	C	2.456265	0.499989	0.990895
N39	N	1.972237	0.353619	0.096525
N40	N	2.472237	0.853619	0.596525
C41	C	1.840885	-0.000016	-0.284908
C42	C	2.340885	0.499984	0.215092
C43	C	1.821986	-0.000015	-0.464607
C44	C	2.321986	0.499985	0.035393
H45	H	1.466256	-0.000007	0.209704
H46	H	1.966256	0.499993	0.709704
Br47	Br	2.163017	-0.549192	0.287305
Br48	Br	2.663017	-0.049192	0.787305
Br49	Br	2.171986	-0.000038	0.656530
Br50	Br	2.671986	0.499962	1.156530
H51	H	1.756409	-0.636923	-0.120035
H52	H	2.256409	-0.136923	0.379965
Br53	Br	2.097649	-0.324239	0.223124
Br54	Br	2.597649	0.175761	0.723124
Br55	Br	1.615578	-0.450856	-0.261319
Br56	Br	2.115578	0.049144	0.238681
H57	H	1.692566	-0.000018	0.436014
H58	H	2.192566	0.499982	0.936014
H59	H	1.311989	-0.000005	-0.183421
H60	H	1.811989	0.499995	0.316579
