data_functionalizedCrystal
_audit_creation_method	'MofGen! by Chris Wilmer'
_symmetry_space_group_name_H-M	'P1'
_symmetry_Int_Tables_number	1
_symmetry_cell_setting	triclinic
loop_
_symmetry_equiv_pos_as_xyz
  x,y,z
_cell_length_a	13.033409
_cell_length_b	21.295417
_cell_length_c	13.032268
_cell_angle_alpha	82.858212
_cell_angle_beta	74.837427
_cell_angle_gamma	82.860986
loop_
_atom_site_label
_atom_site_type_symbol
_atom_site_fract_x
_atom_site_fract_y
_atom_site_fract_z
Zn1	Zn	1.547310	-0.398966	0.393879
Zn2	Zn	2.047310	0.101034	0.893879
Zn3	Zn	1.569732	-0.492372	0.216273
Zn4	Zn	2.069732	0.007628	0.716273
Zn5	Zn	1.392271	-0.375289	0.238890
Zn6	Zn	1.892271	0.124711	0.738890
Zn7	Zn	1.369650	-0.492349	0.416424
Zn8	Zn	1.869650	0.007651	0.916424
O9	O	1.469741	-0.439744	0.316366
O10	O	1.969741	0.060256	0.816366
O11	O	1.698904	-0.421275	0.351419
O12	O	2.198904	0.078725	0.851419
O13	O	1.565042	-0.466942	0.070645
O14	O	2.065042	0.033058	0.570645
O15	O	1.412920	-0.290349	0.259479
O16	O	1.912920	0.209651	0.759479
O17	O	1.715378	-0.489900	0.220933
O18	O	2.215378	0.010100	0.720933
O19	O	1.526827	-0.307744	0.373350
O20	O	2.026827	0.192256	0.873350
O21	O	1.434662	-0.380922	0.087262
O22	O	1.934662	0.119078	0.587262
O23	O	1.240650	-0.380899	0.281340
O24	O	1.740650	0.119101	0.781340
O25	O	1.374366	-0.489860	0.562061
O26	O	1.874366	0.010140	1.062061
O27	O	1.224031	-0.466902	0.411774
O28	O	1.724031	0.033098	0.911774
O29	O	1.504893	-0.421252	0.545498
O30	O	2.004893	0.078748	1.045498
O31	O	1.543108	-0.580450	0.242793
O32	O	2.043108	-0.080450	0.742793
O33	O	1.396108	-0.580433	0.389843
O34	O	1.896108	-0.080433	0.889843
C35	C	1.193805	-0.421329	0.351458
C36	C	1.693805	0.078671	0.851458
C37	C	1.075755	-0.413468	0.366496
C38	C	1.575755	0.086532	0.866496
C39	C	0.909274	-0.435728	0.324081
C40	C	1.409274	0.064272	0.824081
C41	C	1.031285	-0.443854	0.308533
C42	C	1.531285	0.056146	0.808533
C43	C	1.469612	-0.603283	0.316330
C44	C	1.969612	-0.103283	0.816330
C45	C	1.469650	-0.673255	0.316337
C46	C	1.969650	-0.173255	0.816337
C47	C	1.528916	-0.715122	0.375683
C48	C	2.028916	-0.215122	0.875683
C49	C	1.528950	-0.780869	0.375705
C50	C	2.028950	-0.280869	0.875705
C51	C	1.469732	-0.804745	0.316360
C52	C	1.969732	-0.304745	0.816360
C53	C	1.410453	-0.762868	0.257011
C54	C	1.910453	-0.262868	0.757011
C55	C	1.410412	-0.697123	0.257000
C56	C	1.910412	-0.197123	0.757000
N57	N	1.473520	-0.901269	0.224427
N58	N	1.973520	-0.401269	0.724427
N59	N	1.473565	-0.963724	0.224440
N60	N	1.973565	-0.463724	0.724440
C61	C	1.469850	-1.002831	0.316392
C62	C	1.969850	-0.502831	0.816392
N63	N	1.466108	-0.977124	0.408331
N64	N	1.966108	-0.477124	0.908331
N65	N	1.466069	-0.914663	0.408316
N66	N	1.966069	-0.414663	0.908316
C67	C	1.469769	-0.876034	0.316366
C68	C	1.969769	-0.376034	0.816366
C69	C	1.529156	-1.115990	0.375766
C70	C	2.029156	-0.615990	0.875766
C71	C	1.529182	-1.181737	0.375791
C72	C	2.029182	-0.681737	0.875791
C73	C	1.410692	-1.163735	0.257087
C74	C	1.910692	-0.663735	0.757087
C75	C	1.410658	-1.097989	0.257073
C76	C	1.910658	-0.597989	0.757073
C77	C	1.469896	-1.074120	0.316410
C78	C	1.969896	-0.574120	0.816410
C79	C	1.746754	-0.458231	0.281138
C80	C	2.246754	0.041769	0.781138
C81	C	1.864801	-0.466110	0.266126
C82	C	2.364801	0.033890	0.766126
C83	C	1.434605	-0.458195	0.593395
C84	C	1.934605	0.041805	1.093395
C85	C	1.419632	-0.466057	0.711447
C86	C	1.919632	0.033943	1.211447
C87	C	1.469896	-0.275570	0.316423
C88	C	1.969896	0.224430	0.816423
C89	C	1.469962	-0.205609	0.316447
C90	C	1.969962	0.294391	0.816447
C91	C	1.504801	-0.421324	0.040408
C92	C	2.004801	0.078676	0.540408
C93	C	1.519980	-0.413298	-0.077670
C94	C	2.019980	0.086702	0.422330
C95	C	1.477539	-0.435617	0.755884
C96	C	1.977539	0.064383	1.255884
C97	C	1.462065	-0.443742	0.877897
C98	C	1.962065	0.056258	1.377897
H99	H	0.857020	-0.403703	0.385212
H100	H	1.357020	0.096297	0.885212
H101	H	1.401022	-0.475817	0.930181
H102	H	1.901022	0.024183	1.430181
N103	N	1.593031	-1.090234	0.439769
N104	N	2.093031	-0.590234	0.939769
H105	H	1.671018	-1.105607	0.413691
H106	H	2.171018	-0.605607	0.913691
H107	H	1.566768	-1.105615	0.517734
H108	H	2.066768	-0.605615	1.017734
H109	H	1.581010	-0.381215	0.870049
H110	H	2.081010	0.118785	1.370049
H111	H	1.538566	-0.403538	0.703598
H112	H	2.038566	0.096462	1.203598
N113	N	1.338770	-0.508538	0.780695
N114	N	1.838770	-0.008538	1.280695
H115	H	1.339172	-0.508317	0.858043
H116	H	1.839172	-0.008317	1.358043
H117	H	1.357681	-0.553319	0.759255
H118	H	1.857681	-0.053319	1.259255
H119	H	1.083534	-0.475888	0.247408
H120	H	1.583534	0.024112	0.747408
H121	H	1.023506	-0.381440	0.427630
H122	H	1.523506	0.118560	0.927630
H123	H	0.917053	-0.498141	0.205005
H124	H	1.417053	0.001859	0.705005
N125	N	1.592795	-0.689383	0.439696
N126	N	2.092795	-0.189383	0.939696
H127	H	1.543337	-0.662512	0.494370
H128	H	2.043337	-0.162512	0.994370
H129	H	1.647496	-0.662532	0.390235
H130	H	2.147496	-0.162532	0.890235
N131	N	1.346582	-0.788615	0.193001
N132	N	1.846582	-0.288615	0.693001
H133	H	1.355605	-0.836618	0.202009
H134	H	1.855605	-0.336618	0.702009
H135	H	1.372788	-0.773186	0.115050
H136	H	1.872788	-0.273186	0.615050
N137	N	1.592876	-0.826038	0.439715
N138	N	2.092876	-0.326038	0.939715
H139	H	1.630395	-0.800941	0.477303
H140	H	2.130395	-0.300941	0.977303
H141	H	1.647550	-0.853701	0.390261
H142	H	2.147550	-0.353701	0.890261
N143	N	1.346809	-1.189477	0.193087
N144	N	1.846809	-0.689477	0.693087
H145	H	1.355824	-1.237480	0.202101
H146	H	1.855824	-0.737480	0.702101
H147	H	1.373011	-1.174052	0.115133
H148	H	1.873011	-0.674052	0.615133
H149	H	1.577443	-1.215826	0.424122
H150	H	2.077443	-0.715826	0.924122
N151	N	1.346489	-0.651960	0.192986
N152	N	1.846489	-0.151960	0.692986
H153	H	1.308976	-0.677059	0.155395
H154	H	1.808976	-0.177059	0.655395
H155	H	1.395977	-0.624289	0.138361
H156	H	1.895977	-0.124289	0.638361
H157	H	1.362403	-1.063897	0.208743
H158	H	1.862403	-0.563897	0.708743
