data_functionalizedCrystal
_audit_creation_method	'MofGen! by Chris Wilmer'
_symmetry_space_group_name_H-M	'P1'
_symmetry_Int_Tables_number	1
_symmetry_cell_setting	triclinic
loop_
_symmetry_equiv_pos_as_xyz
  x,y,z
_cell_length_a	14.853569
_cell_length_b	14.853569
_cell_length_c	13.330367
_cell_angle_alpha	89.994190
_cell_angle_beta	89.994419
_cell_angle_gamma	83.635565
loop_
_atom_site_label
_atom_site_type_symbol
_atom_site_fract_x
_atom_site_fract_y
_atom_site_fract_z
O1	O	1.196369	0.117710	-0.083380
O2	O	0.933909	0.131730	-0.083393
O3	O	1.072149	-0.006509	-0.083377
O4	O	1.058129	0.255950	-0.083396
O5	O	1.072129	-0.006513	0.083471
O6	O	0.933889	0.131727	0.083454
O7	O	1.196349	0.117707	0.083467
Cu8	Cu	1.065117	0.124717	0.098695
Cu9	Cu	1.065141	0.124720	-0.098621
O10	O	1.058109	0.255947	0.083451
C11	C	0.900311	0.131093	0.000029
C12	C	0.800227	0.129189	0.000025
C13	C	0.763850	0.046178	0.000028
C14	C	0.742561	0.210410	0.000027
C15	C	0.648527	0.208624	0.000028
C16	C	0.612150	0.125613	0.000031
C17	C	0.669807	0.044389	0.000032
C18	C	0.590863	0.289847	0.000037
C19	C	0.496823	0.288063	0.000039
C20	C	0.460444	0.205052	0.000035
C21	C	0.518108	0.123824	0.000035
C22	C	0.481731	0.040813	0.000038
C23	C	0.539392	-0.040415	0.000031
C24	C	0.633429	-0.038623	0.000028
C25	C	0.366408	0.203259	0.000038
C26	C	0.387688	0.039024	0.000042
C27	C	1.071503	-0.040100	0.000047
C28	C	1.069599	-0.140183	0.000048
C29	C	1.229947	0.118344	0.000043
C30	C	1.330031	0.120249	0.000040
C31	C	0.986588	-0.176560	0.000046
C32	C	1.150821	-0.197849	0.000043
C33	C	1.149034	-0.291883	0.000039
C34	C	1.066024	-0.328260	0.000036
C35	C	0.984799	-0.270603	0.000039
C36	C	1.230257	-0.349547	0.000026
C37	C	1.228474	-0.443588	0.000021
C38	C	1.145462	-0.479966	0.000026
C39	C	1.064234	-0.422303	0.000029
C40	C	0.981224	-0.458680	0.000027
C41	C	0.899995	-0.401018	0.000037
C42	C	0.901787	-0.306982	0.000044
C43	C	1.143670	-0.574002	0.000019
C44	C	0.979434	-0.552722	0.000019
C45	C	1.058754	0.289537	0.000025
C46	C	1.060659	0.389621	0.000017
N47	N	1.065107	0.124714	0.237477
N48	N	1.065158	0.124716	-0.237402
C49	C	1.003926	0.185909	0.710092
C50	C	1.126380	0.063525	0.710075
C51	C	1.126370	0.063522	0.605056
C52	C	1.065138	0.124715	0.552551
C53	C	1.003915	0.185910	0.605064
C54	C	1.187597	0.002334	0.552535
C55	C	1.187590	0.002330	0.447510
C56	C	1.126353	0.063519	0.395003
C57	C	1.065127	0.124715	0.447523
C58	C	1.003895	0.185908	0.395018
C59	C	0.942665	0.247101	0.447536
C60	C	0.942678	0.247099	0.552557
C61	C	1.126339	0.063521	0.289982
C62	C	1.003885	0.185909	0.289990
H63	H	0.772186	0.277994	0.000031
H64	H	0.620489	0.357430	0.000041
N65	N	1.231265	-0.636199	0.000016
H66	H	1.234184	-0.675683	-0.061835
H67	H	1.284075	-0.598825	0.000053
H68	H	0.810802	-0.019956	0.000018
H69	H	0.449882	0.354205	0.000043
N70	N	0.810468	-0.440266	0.000039
H71	H	0.774876	-0.419266	0.061894
H72	H	0.774950	-0.419231	-0.061848
H73	H	1.176196	0.013703	0.247227
H74	H	0.319464	0.269394	0.000052
N75	N	1.192421	-0.002464	0.766710
H76	H	1.157925	-0.042441	0.810299
H77	H	1.231190	-0.041172	0.717448
H78	H	0.835656	-0.260026	0.000050
H79	H	0.911836	-0.582332	0.000027
N80	N	1.240348	-0.158616	0.000058
H81	H	1.244762	-0.120062	-0.061785
H82	H	1.244676	-0.120130	0.061956
N83	N	1.319785	-0.310315	0.000051
H84	H	1.308591	-0.241993	0.000073
H85	H	1.355310	-0.331419	0.061909
N86	N	0.898980	-0.114377	0.000083
H87	H	0.912704	-0.049284	0.000098
H88	H	0.862800	-0.126148	-0.061764
H89	H	0.954018	0.235736	0.247246
H90	H	1.294615	-0.490528	0.000014
N91	N	0.876627	0.313105	0.390901
H92	H	0.885919	0.303818	0.316403
H93	H	0.812662	0.302571	0.409265
H94	H	0.892827	0.296921	0.595324
N95	N	0.937881	0.251903	0.766727
H96	H	0.947173	0.242619	0.841226
H97	H	0.948369	0.315880	0.748362
H98	H	1.237455	-0.047483	0.595288
H99	H	0.358078	-0.028574	0.000039
N100	N	1.253626	-0.063668	0.390870
H101	H	1.292417	-0.102432	0.440069
H102	H	1.219059	-0.103590	0.347312
N103	N	0.695615	-0.126229	0.000032
H104	H	0.735115	-0.129144	-0.061815
H105	H	0.735038	-0.129094	0.061926
H106	H	0.509762	-0.108003	0.000027
