data_functionalizedCrystal
_audit_creation_method	'MofGen! by Chris Wilmer'
_symmetry_space_group_name_H-M	'P1'
_symmetry_Int_Tables_number	1
_symmetry_cell_setting	triclinic
loop_
_symmetry_equiv_pos_as_xyz
  x,y,z
_cell_length_a	8.559649
_cell_length_b	11.792241
_cell_length_c	7.681481
_cell_angle_alpha	84.218353
_cell_angle_beta	85.087445
_cell_angle_gamma	103.013960
loop_
_atom_site_label
_atom_site_type_symbol
_atom_site_fract_x
_atom_site_fract_y
_atom_site_fract_z
O1	O	-2.104791	-0.026421	-0.146429
O2	O	-1.604791	0.473579	0.353571
O3	O	-1.640094	0.032150	-0.146433
O4	O	-1.140094	0.532150	0.353567
O5	O	-1.883721	-0.163340	-0.146418
O6	O	-1.383721	0.336660	0.353582
O7	O	-1.861165	0.169068	-0.146443
O8	O	-1.361165	0.669068	0.353557
O9	O	-1.913707	-0.187450	0.146441
O10	O	-1.413707	0.312550	0.646441
O11	O	-1.670080	0.008040	0.146427
O12	O	-1.170080	0.508040	0.646427
O13	O	-2.134777	-0.050531	0.146431
O14	O	-1.634777	0.449469	0.646431
Zn15	Zn	-1.907190	-0.025074	0.192927
Zn16	Zn	-1.407190	0.474926	0.692927
Zn17	Zn	-1.867682	0.006692	-0.192928
Zn18	Zn	-1.367682	0.506692	0.307072
O19	O	-1.891151	0.144958	0.146417
O20	O	-1.391151	0.644958	0.646417
C21	C	-1.595596	0.024533	-0.000003
C22	C	-1.095596	0.524533	0.499997
C23	C	-1.418330	0.037745	-0.000004
C24	C	-0.918330	0.537745	0.499996
C25	C	-1.897297	-0.217556	0.000011
C26	C	-1.397297	0.282444	0.500011
C27	C	-1.893057	-0.343181	0.000009
C28	C	-1.393057	0.156819	0.500009
C29	C	-1.885256	-0.573177	-0.000020
C30	C	-1.385256	-0.073177	0.499980
C31	C	-1.889590	-0.445190	-0.000004
C32	C	-1.389590	0.054810	0.499996
C33	C	-1.179276	-0.042915	0.000001
C34	C	-0.679276	0.457085	0.500001
C35	C	-1.356541	-0.056127	0.000001
C36	C	-0.856541	0.443873	0.500001
C37	C	-1.877574	0.199175	-0.000017
C38	C	-1.377574	0.699175	0.499983
C39	C	-1.881813	0.324801	-0.000026
C40	C	-1.381813	0.824801	0.499974
N41	N	-1.934164	-0.046755	0.456263
N42	N	-1.434164	0.453245	0.956263
N43	N	-1.840720	0.028363	-0.456264
N44	N	-1.340720	0.528363	0.043736
H45	H	-1.439254	-0.146602	-0.000002
H46	H	-0.939254	0.353398	0.499998
H47	H	-1.335606	0.128228	-0.000020
H48	H	-0.835606	0.628228	0.499980
N49	N	-2.053818	-0.142954	0.550619
N50	N	-1.553818	0.357046	1.050619
N51	N	-2.012863	-0.217286	0.653537
N52	N	-1.512863	0.282714	1.153537
H53	H	-2.097362	-0.285230	0.720177
H54	H	-1.597362	0.214770	1.220177
H55	H	-1.745332	0.105037	0.468533
H56	H	-1.245332	0.605037	0.968533
