data_functionalizedCrystal
_audit_creation_method	'MofGen! by Chris Wilmer'
_symmetry_space_group_name_H-M	'P1'
_symmetry_Int_Tables_number	1
_symmetry_cell_setting	triclinic
loop_
_symmetry_equiv_pos_as_xyz
  x,y,z
_cell_length_a	10.723022
_cell_length_b	15.186229
_cell_length_c	16.109302
_cell_angle_alpha	89.994701
_cell_angle_beta	83.964504
_cell_angle_gamma	89.997422
loop_
_atom_site_label
_atom_site_type_symbol
_atom_site_fract_x
_atom_site_fract_y
_atom_site_fract_z
O1	O	0.160395	-0.073266	1.104073
O2	O	0.493728	0.260067	1.437407
O3	O	0.827062	0.593401	1.770740
O4	O	0.180355	-0.073259	0.862129
O5	O	0.513688	0.260075	1.195462
O6	O	0.847021	0.593408	1.528796
O7	O	-0.011275	-0.073259	0.988683
O8	O	0.322058	0.260074	1.322016
O9	O	0.655391	0.593407	1.655349
O10	O	0.352025	-0.073265	0.977520
O11	O	0.685358	0.260068	1.310853
O12	O	1.018692	0.593401	1.644186
O13	O	-0.011278	0.073198	0.988674
O14	O	0.322055	0.406531	1.322007
O15	O	0.655389	0.739865	1.655341
O16	O	0.180352	0.073199	0.862120
O17	O	0.513685	0.406532	1.195454
O18	O	0.847019	0.739865	1.528787
O19	O	0.160392	0.073191	1.104065
O20	O	0.493726	0.406525	1.437398
O21	O	0.827059	0.739858	1.770732
Zn22	Zn	0.170372	0.096448	0.983091
Zn23	Zn	0.503705	0.429782	1.316425
Zn24	Zn	0.837038	0.763115	1.649758
Zn25	Zn	0.170375	-0.096516	0.983103
Zn26	Zn	0.503709	0.236818	1.316436
Zn27	Zn	0.837042	0.570151	1.649769
O28	O	0.352022	0.073192	0.977511
O29	O	0.685356	0.406525	1.310844
O30	O	1.018689	0.739859	1.644178
C31	C	0.179545	-0.000029	0.831145
C32	C	0.512878	0.333304	1.164478
C33	C	0.846211	0.666638	1.497812
C34	C	0.177120	-0.000026	0.738835
C35	C	0.510453	0.333307	1.072169
C36	C	0.843787	0.666640	1.405502
C37	C	-0.057766	-0.000032	0.987866
C38	C	0.275568	0.333302	1.321200
C39	C	0.608901	0.666635	1.654533
C40	C	-0.196288	-0.000035	0.985437
C41	C	0.137046	0.333299	1.318770
C42	C	0.470379	0.666632	1.652103
N43	N	0.170368	0.228141	0.983090
N44	N	0.503702	0.561474	1.316423
N45	N	0.837035	0.894808	1.649756
C46	C	-0.243882	-0.000034	0.912457
C47	C	0.089452	0.333299	1.245791
C48	C	0.422785	0.666633	1.579124
C49	C	-0.387051	-0.000037	0.909945
C50	C	-0.053718	0.333296	1.243278
C51	C	0.279615	0.666630	1.576611
C52	C	0.398513	-0.000038	0.978327
C53	C	0.731846	0.333296	1.311661
C54	C	1.065179	0.666629	1.644994
C55	C	0.537035	-0.000040	0.980757
C56	C	0.870368	0.333293	1.314091
C57	C	1.203701	0.666626	1.647424
N58	N	0.170369	-0.228208	0.983111
N59	N	0.503702	0.105125	1.316444
N60	N	0.837035	0.438458	1.649777
C61	C	0.085543	0.453864	1.039147
C62	C	0.418877	0.787197	1.372480
C63	C	0.752210	1.120530	1.705814
C64	C	0.085540	0.546053	1.039150
C65	C	0.418874	0.879387	1.372483
C66	C	0.752207	1.212720	1.705816
C67	C	0.255198	0.546063	0.927047
C68	C	0.588531	0.879396	1.260381
C69	C	0.921864	1.212729	1.593714
C70	C	0.255194	0.453875	0.927041
C71	C	0.588527	0.787208	1.260375
C72	C	0.921860	1.120541	1.593708
C73	C	0.170368	0.407778	0.983096
C74	C	0.503701	0.741111	1.316429
C75	C	0.837035	1.074444	1.649763
C76	C	0.170369	0.592155	0.983104
C77	C	0.503702	0.925488	1.316438
C78	C	0.837036	1.258822	1.649771
C79	C	0.170367	0.692111	0.983107
C80	C	0.503700	1.025445	1.316440
C81	C	0.837033	1.358778	1.649774
C82	C	0.170369	0.307815	0.983093
C83	C	0.503702	0.641148	1.316426
C84	C	0.837035	0.974482	1.649759
C85	C	0.171513	0.079799	0.526457
C86	C	0.504846	0.413132	0.859790
C87	C	0.838179	0.746465	1.193124
C88	C	0.169221	0.079796	0.439723
C89	C	0.502555	0.413129	0.773057
C90	C	0.835888	0.746462	1.106390
C91	C	0.169231	-0.079880	0.439743
C92	C	0.502564	0.253453	0.773077
C93	C	0.835897	0.586787	1.106410
C94	C	0.171513	-0.079876	0.526476
C95	C	0.504846	0.253457	0.859809
C96	C	0.838180	0.586791	1.193143
C97	C	0.172660	-0.000034	0.569830
C98	C	0.505994	0.333299	0.903163
C99	C	0.839327	0.666633	1.236497
C100	C	0.168087	-0.000041	0.396364
C101	C	0.501420	0.333292	0.729697
C102	C	0.834753	0.666626	1.063030
C103	C	0.165602	-0.000045	0.302323
C104	C	0.498935	0.333288	0.635657
C105	C	0.832269	0.666622	0.968990
C106	C	0.175143	-0.000030	0.663877
C107	C	0.508476	0.333304	0.997210
C108	C	0.841809	0.666637	1.330543
C109	C	0.161202	-0.000040	1.135049
C110	C	0.494536	0.333293	1.468382
C111	C	0.827869	0.666627	1.801715
C112	C	0.163627	-0.000049	1.227358
C113	C	0.496960	0.333285	1.560692
C114	C	0.830294	0.666618	1.894025
H115	H	-0.178636	-0.000027	0.851838
H116	H	0.154697	0.333307	1.185171
H117	H	0.488031	0.666640	1.518504
Br118	Br	0.167662	0.188145	0.380863
Br119	Br	0.500995	0.521479	0.714196
Br120	Br	0.834328	0.854812	1.047530
Br121	Br	0.173055	-0.188229	0.585346
Br122	Br	0.506389	0.145105	0.918680
Br123	Br	0.839722	0.478438	1.252013
H124	H	0.016471	0.416333	1.084789
H125	H	0.349805	0.749667	1.418122
H126	H	0.683138	1.083000	1.751456
H127	H	-0.421990	-0.000074	1.043245
H128	H	-0.088656	0.333260	1.376578
H129	H	0.244677	0.666593	1.709911
Br130	Br	-0.455350	-0.000047	0.805793
Br131	Br	-0.122017	0.333287	1.139127
Br132	Br	0.211316	0.666620	1.472460
Br133	Br	0.167636	-0.188232	0.380904
Br134	Br	0.500969	0.145102	0.714237
Br135	Br	0.834302	0.478435	1.047570
H136	H	0.172447	0.144811	0.561753
H137	H	0.505780	0.478145	0.895087
H138	H	0.839114	0.811478	1.228420
H139	H	-0.261533	-0.000034	1.046056
H140	H	0.071800	0.333300	1.379390
H141	H	0.405133	0.666633	1.712723
H142	H	0.324263	0.583604	0.881410
H143	H	0.657596	0.916938	1.214743
H144	H	0.990930	1.250271	1.548077
H145	H	0.016467	0.583574	1.084791
H146	H	0.349800	0.916907	1.418124
H147	H	0.683134	1.250241	1.751457
Br148	Br	0.370311	0.391322	0.850960
Br149	Br	0.703645	0.724655	1.184294
Br150	Br	1.036978	1.057989	1.517627
