data_functionalizedCrystal
_audit_creation_method	'MofGen! by Chris Wilmer'
_symmetry_space_group_name_H-M	'P1'
_symmetry_Int_Tables_number	1
_symmetry_cell_setting	triclinic
loop_
_symmetry_equiv_pos_as_xyz
  x,y,z
_cell_length_a	14.853567
_cell_length_b	16.109301
_cell_length_c	15.186229
_cell_angle_alpha	89.994833
_cell_angle_beta	90.000997
_cell_angle_gamma	96.451794
loop_
_atom_site_label
_atom_site_type_symbol
_atom_site_fract_x
_atom_site_fract_y
_atom_site_fract_z
O1	O	1.196184	-0.108546	0.073183
O2	O	0.933703	-0.121477	0.073196
O3	O	1.072154	0.006009	0.073180
O4	O	1.057733	-0.236033	0.073199
O5	O	1.072145	0.006011	-0.073277
O6	O	0.933694	-0.121475	-0.073261
O7	O	1.196175	-0.108545	-0.073274
Zn8	Zn	1.064933	-0.115010	-0.096521
Zn9	Zn	1.064945	-0.115012	0.096443
O10	O	1.057724	-0.236031	-0.073258
C11	C	0.900111	-0.120890	-0.000031
C12	C	0.800030	-0.119135	-0.000027
C13	C	1.229767	-0.109131	-0.000045
C14	C	1.329848	-0.110887	-0.000044
C15	C	1.742245	-0.194038	-0.000022
C16	C	1.763776	-0.042582	-0.000034
C17	C	1.669745	-0.040931	-0.000039
C18	C	1.611959	-0.115835	-0.000034
C19	C	1.648204	-0.192390	-0.000024
C20	C	1.633492	0.035622	-0.000040
C21	C	1.539456	0.037276	-0.000044
C22	C	1.481668	-0.037629	-0.000045
C23	C	1.517919	-0.114187	-0.000036
C24	C	1.460133	-0.189090	-0.000032
C25	C	1.496382	-0.265649	-0.000029
C26	C	1.590417	-0.267295	-0.000026
C27	C	1.387634	-0.035983	-0.000049
C28	C	1.366093	-0.187442	-0.000034
C29	C	1.071566	0.036986	-0.000049
C30	C	1.069814	0.129284	-0.000050
C31	C	1.058313	-0.267007	-0.000027
C32	C	1.060064	-0.359305	-0.000020
N33	N	1.064931	-0.115007	-0.228214
C34	C	1.147896	0.351446	-0.000040
C35	C	1.146243	0.438169	-0.000032
C36	C	0.981976	0.418525	-0.000028
C37	C	0.983629	0.331804	-0.000029
C38	C	1.066592	0.298267	-0.000039
C39	C	1.063286	0.471711	-0.000031
C40	C	1.061494	0.565740	-0.000023
C41	C	1.068385	0.204233	-0.000046
C42	C	1.126258	-0.058576	-0.453943
C43	C	1.126261	-0.058574	-0.546133
C44	C	1.003620	-0.171442	-0.546128
C45	C	1.003614	-0.171439	-0.453940
C46	C	1.064938	-0.115007	-0.407850
C47	C	1.064947	-0.115008	-0.592228
C48	C	1.064950	-0.115006	-0.692184
C49	C	1.064934	-0.115008	-0.307888
N50	N	1.064954	-0.115008	0.228135
H51	H	1.319050	-0.248439	-0.000036
Br52	Br	1.791435	-0.297935	-0.000023
Br53	Br	1.256589	0.510338	-0.000028
H54	H	0.917418	0.288503	-0.000026
Br55	Br	0.920400	-0.248028	-0.608682
Br56	Br	1.260487	0.305934	-0.000054
H57	H	0.914430	0.445842	-0.000021
Br58	Br	1.209481	0.018012	-0.391396
Br59	Br	1.417949	-0.367301	-0.000009
Br60	Br	0.920381	-0.248024	-0.391378
Br61	Br	1.639618	-0.371186	-0.000013
Br62	Br	1.842198	0.059068	-0.000035
Br63	Br	1.209480	0.018019	-0.608687
H64	H	1.680547	0.096605	-0.000039
Br65	Br	1.338441	0.067909	-0.000050
Br66	Br	1.490268	0.141174	-0.000038
