data_functionalizedCrystal
_audit_creation_method	'MofGen! by Chris Wilmer'
_symmetry_space_group_name_H-M	'P1'
_symmetry_Int_Tables_number	1
_symmetry_cell_setting	triclinic
loop_
_symmetry_equiv_pos_as_xyz
  x,y,z
_cell_length_a	12.759401
_cell_length_b	17.637651
_cell_length_c	12.759401
_cell_angle_alpha	101.231642
_cell_angle_beta	90.003969
_cell_angle_gamma	101.219778
loop_
_atom_site_label
_atom_site_type_symbol
_atom_site_fract_x
_atom_site_fract_y
_atom_site_fract_z
Zn1	Zn	1.521522	-0.314861	0.509275
Zn2	Zn	1.485954	-0.447039	0.298034
Zn3	Zn	1.345871	-0.314852	0.333616
Zn4	Zn	1.310308	-0.447029	0.473678
O5	O	1.415914	-0.380945	0.403651
O6	O	1.663823	-0.332402	0.481260
O7	O	1.467370	-0.429504	0.155733
O8	O	1.398940	-0.204220	0.386707
O9	O	1.637691	-0.429513	0.326062
O10	O	1.527990	-0.204226	0.515762
O11	O	1.364452	-0.332388	0.181875
O12	O	1.194135	-0.332378	0.352190
O13	O	1.338328	-0.429496	0.625421
O14	O	1.168007	-0.429488	0.455092
O15	O	1.493506	-0.332392	0.651574
O16	O	1.432886	-0.557671	0.291545
O17	O	1.303840	-0.557664	0.420590
C18	C	1.142950	-0.380931	0.403640
C19	C	1.026170	-0.380945	0.403655
C20	C	0.984891	-0.330471	0.484545
C21	C	0.875165	-0.330479	0.484550
C22	C	0.848005	-0.431442	0.322769
C23	C	0.957730	-0.431429	0.322761
C24	C	1.360673	-0.586353	0.348367
C25	C	1.337136	-0.674228	0.324751
C26	C	1.595400	-0.962958	0.583388
C27	C	1.573251	-1.045529	0.561179
C28	C	1.438960	-1.045630	0.426664
C29	C	1.461102	-0.963057	0.448858
C30	C	1.539322	-0.921727	0.527222
C31	C	1.405025	-0.921826	0.392692
C32	C	1.427161	-0.839260	0.414888
C33	C	1.505375	-0.797925	0.493251
C34	C	1.561459	-0.839161	0.549419
C35	C	1.326800	-0.963157	0.314333
C36	C	1.270722	-0.921927	0.258167
C37	C	1.292863	-0.839359	0.280358
C38	C	1.371077	-0.798024	0.358721
C39	C	1.236780	-0.798123	0.224190
C40	C	1.258916	-0.715557	0.246387
C41	C	1.393214	-0.715458	0.380917
C42	C	1.689943	-0.380959	0.403663
C43	C	1.806718	-0.380965	0.403668
C44	C	1.415918	-0.380944	0.677684
C45	C	1.415919	-0.380944	0.794461
C46	C	1.471400	-0.174735	0.459174
C47	C	1.495044	-0.086860	0.482835
C48	C	1.496701	-0.330390	0.972672
C49	C	1.496710	-0.330390	0.862948
C50	C	1.335120	-0.431506	0.835702
C51	C	1.335116	-0.431510	0.945423
C52	C	1.415900	-0.380960	1.130680
C53	C	1.415906	-0.380947	1.013906
H54	H	0.991339	-0.472532	0.256885
H55	H	1.562485	-0.289218	1.028428
H56	H	0.841562	-0.289376	0.550418
N57	N	0.774181	-0.485901	0.235537
H58	H	0.816985	-0.517873	0.184291
H59	H	0.737308	-0.453670	0.195666
H60	H	1.562502	-0.289222	0.829380
H61	H	1.040613	-0.289360	0.550411
N62	N	1.354606	-1.090213	0.342141
H63	H	1.374844	-1.075851	0.270952
H64	H	1.283401	-1.075859	0.362331
N65	N	1.477584	-0.670865	0.465430
H66	H	1.548823	-0.685196	0.445324
H67	H	1.457271	-0.685236	0.536594
N68	N	1.529255	-0.708871	0.517177
H69	H	1.606684	-0.688958	0.503280
H70	H	1.515159	-0.689030	0.594577
N71	N	1.645837	-0.794575	0.633927
H72	H	1.678012	-0.833221	0.666139
H73	H	1.612217	-0.760326	0.691718
N74	N	1.679779	-0.918371	0.667897
H75	H	1.711954	-0.957018	0.700109
H76	H	1.646158	-0.884122	0.725688
N77	N	1.633746	-1.090001	0.621755
H78	H	1.686657	-1.051287	0.674762
H79	H	1.673220	-1.124240	0.569819
H80	H	1.308769	-1.030388	0.296274
H81	H	1.207033	-0.955589	0.194366
H82	H	1.173086	-0.831786	0.160394
H83	H	1.269342	-0.472672	0.779931
N84	N	1.198432	-0.671080	0.185816
H85	H	1.145523	-0.709790	0.132804
H86	H	1.250425	-0.636811	0.146449
N87	N	1.247973	-0.486046	0.989906
H88	H	1.196790	-0.518073	0.929876
H89	H	1.208013	-0.453864	1.044096
