data_functionalizedCrystal
_audit_creation_method	'MofGen! by Chris Wilmer'
_symmetry_space_group_name_H-M	'P1'
_symmetry_Int_Tables_number	1
_symmetry_cell_setting	triclinic
loop_
_symmetry_equiv_pos_as_xyz
  x,y,z
_cell_length_a	11.792254
_cell_length_b	13.596369
_cell_length_c	11.792241
_cell_angle_alpha	89.999002
_cell_angle_beta	95.803993
_cell_angle_gamma	90.005263
loop_
_atom_site_label
_atom_site_type_symbol
_atom_site_fract_x
_atom_site_fract_y
_atom_site_fract_z
O1	O	1.506901	0.081779	-0.155638
O2	O	1.176562	0.081780	-0.171656
O3	O	1.349748	0.081785	0.001523
O4	O	1.333715	0.081774	-0.328817
O5	O	1.349731	-0.081798	0.001532
O6	O	1.176545	-0.081803	-0.171647
O7	O	1.506884	-0.081804	-0.155629
Zn8	Zn	1.341712	-0.107776	-0.163636
Zn9	Zn	1.341735	0.107752	-0.163649
O10	O	1.333698	-0.081809	-0.328808
C11	C	1.134263	-0.000011	-0.170642
C12	C	1.008250	-0.000010	-0.167622
C13	C	0.905913	-0.000006	-0.165168
C14	C	0.777527	-0.000005	-0.162100
N15	N	1.341704	-0.254868	-0.163627
C16	C	1.341733	-0.656159	-0.163650
C17	C	1.341722	-0.544507	-0.163647
C18	C	1.341719	-0.455517	-0.163639
C19	C	1.341707	-0.343858	-0.163635
C20	C	1.549183	-0.000011	-0.156643
C21	C	1.675196	-0.000005	-0.159663
C22	C	1.334714	-0.000019	-0.371104
C23	C	1.337728	-0.000024	-0.497118
N24	N	1.341751	0.254844	-0.163649
C25	C	1.343271	0.000001	-0.727830
C26	C	1.340191	-0.000013	-0.599445
C27	C	1.348732	-0.000003	0.043819
C28	C	1.345718	0.000008	0.169832
