data_functionalizedCrystal
_audit_creation_method	'MofGen! by Chris Wilmer'
_symmetry_space_group_name_H-M	'P1'
_symmetry_Int_Tables_number	1
_symmetry_cell_setting	triclinic
loop_
_symmetry_equiv_pos_as_xyz
  x,y,z
_cell_length_a	16.109301
_cell_length_b	17.019294
_cell_length_c	15.186229
_cell_angle_alpha	86.117288
_cell_angle_beta	89.999362
_cell_angle_gamma	83.427968
loop_
_atom_site_label
_atom_site_type_symbol
_atom_site_fract_x
_atom_site_fract_y
_atom_site_fract_z
O1	O	1.103039	0.101395	-0.080860
O2	O	0.860966	0.114013	-0.081831
O3	O	0.988756	-0.007131	-0.072633
O4	O	0.975249	0.222538	-0.090058
O5	O	0.988747	-0.007132	0.073824
O6	O	0.860957	0.114011	0.064627
O7	O	1.103031	0.101393	0.065597
Zn8	Zn	0.981993	0.107702	0.088365
Zn9	Zn	0.982004	0.107704	-0.104599
O10	O	0.975241	0.222537	0.056400
C11	C	0.829987	0.113501	-0.008565
C12	C	0.737693	0.111969	-0.008454
C13	C	0.988239	-0.036520	0.002823
C14	C	0.986703	-0.124090	0.009461
C15	C	0.515359	0.180290	-0.013627
C16	C	0.428640	0.178844	-0.013512
C17	C	0.448644	0.035111	-0.002611
C18	C	0.535362	0.036558	-0.002720
C19	C	0.568717	0.109150	-0.008233
C20	C	0.395280	0.106257	-0.008008
C21	C	0.301255	0.104688	-0.007883
C22	C	0.662747	0.110718	-0.008356
C23	C	0.985988	-0.165225	-0.067254
C24	C	0.984539	-0.247506	-0.061014
C25	C	0.983811	-0.288651	0.021941
C26	C	0.984524	-0.247510	0.098662
C27	C	0.985967	-0.165230	0.092421
C28	C	0.979449	-0.537082	0.044778
C29	C	0.978009	-0.619368	0.051013
C30	C	0.978022	-0.619359	-0.108664
C31	C	0.979470	-0.537078	-0.114897
C32	C	0.980178	-0.495944	-0.038177
C33	C	0.982333	-0.372755	0.028321
C34	C	0.981651	-0.411840	-0.044558
C35	C	1.134009	0.101905	-0.007670
C36	C	1.226303	0.103437	-0.007787
C37	C	0.975757	0.251927	-0.019059
C38	C	0.977294	0.339496	-0.025702
N39	N	0.981991	0.107700	0.220058
N40	N	0.982012	0.107700	-0.236291
C41	C	1.038596	0.054076	0.449852
C42	C	1.038598	0.054074	0.542042
C43	C	0.925402	0.161327	0.533908
C44	C	0.925396	0.161324	0.441720
C45	C	0.981997	0.107700	0.399695
C46	C	0.982006	0.107700	0.584072
C47	C	0.982008	0.107699	0.684029
C48	C	0.981994	0.107700	0.299732
H49	H	0.385200	0.236773	-0.017903
N50	N	1.096368	-0.000716	0.406895
N51	N	1.070001	-0.049667	0.359176
H52	H	1.110793	-0.088368	0.328828
N53	N	0.589859	-0.036122	0.002800
N54	N	0.560070	-0.100930	0.007717
H55	H	0.598558	-0.152258	0.011620
H56	H	0.980043	-0.503603	0.107249
H57	H	0.977412	-0.652866	0.118568
N58	N	0.867591	0.216117	0.390480
N59	N	0.893910	0.265088	0.335319
H60	H	0.853087	0.303783	0.299130
N61	N	0.983762	-0.289534	0.183399
N62	N	0.924377	-0.328161	0.204134
H63	H	0.923838	-0.357841	0.263982
H64	H	0.879319	0.204988	0.568135
H65	H	0.542514	0.239399	-0.018110
N66	N	1.096414	-0.000711	0.593263
N67	N	1.146940	-0.048586	0.555726
H68	H	1.187774	-0.087283	0.591900
N69	N	0.414557	-0.039029	0.003020
N70	N	0.337130	-0.040312	0.003116
H71	H	0.313056	-0.092675	0.007090
H72	H	0.986585	-0.131732	-0.134805
H73	H	0.983960	-0.280995	-0.123484
H74	H	0.980064	-0.503584	-0.182448
H75	H	0.977444	-0.652859	-0.171126
H76	H	0.986538	-0.131737	0.154891
H77	H	0.982237	-0.378336	-0.112100
H78	H	0.981743	-0.406265	0.095864
