data_functionalizedCrystal
_audit_creation_method	'MofGen! by Chris Wilmer'
_symmetry_space_group_name_H-M	'P1'
_symmetry_Int_Tables_number	1
_symmetry_cell_setting	triclinic
loop_
_symmetry_equiv_pos_as_xyz
  x,y,z
_cell_length_a	21.295419
_cell_length_b	21.295417
_cell_length_c	12.645323
_cell_angle_alpha	90.032945
_cell_angle_beta	90.022479
_cell_angle_gamma	90.044503
loop_
_atom_site_label
_atom_site_type_symbol
_atom_site_fract_x
_atom_site_fract_y
_atom_site_fract_z
Zn1	Zn	0.962346	-0.250356	0.599381
Zn2	Zn	0.962254	-0.355630	0.422097
Zn3	Zn	0.857073	-0.250406	0.422126
Zn4	Zn	0.857040	-0.355618	0.599313
O5	O	0.909678	-0.303002	0.510729
O6	O	1.050423	-0.264304	0.575881
O7	O	0.948277	-0.341698	0.273753
O8	O	0.871090	-0.162310	0.445681
O9	O	1.050356	-0.341649	0.445630
O10	O	0.948434	-0.162273	0.575910
O11	O	0.871001	-0.264390	0.273775
O12	O	0.768980	-0.264379	0.445614
O13	O	0.871034	-0.341629	0.747669
O14	O	0.768955	-0.341678	0.575792
O15	O	0.948402	-0.264293	0.747720
O16	O	0.948245	-0.443718	0.445563
O17	O	0.870945	-0.443709	0.575763
C18	C	0.746127	-0.303033	0.510699
C19	C	0.676159	-0.303061	0.510712
C20	C	0.643350	-0.262853	0.578638
C21	C	0.577607	-0.262836	0.578642
C22	C	0.544676	-0.303038	0.510731
C23	C	0.577493	-0.343249	0.442792
C24	C	0.643234	-0.343260	0.442782
N25	N	0.441402	-0.358117	0.502448
N26	N	0.378950	-0.358104	0.502463
C27	C	0.346602	-0.303006	0.510755
N28	N	0.379063	-0.247919	0.519051
N29	N	0.441521	-0.247932	0.519041
C30	C	0.473391	-0.303030	0.510734
C31	C	0.242507	-0.262776	0.578689
C32	C	0.176763	-0.262758	0.578686
C33	C	0.176650	-0.343176	0.442841
C34	C	0.242393	-0.343189	0.442838
C35	C	0.275317	-0.302989	0.510768
C36	C	0.909598	-0.466554	0.510676
C37	C	0.909622	-0.536522	0.510688
C38	C	0.949871	-0.569312	0.578546
C39	C	0.949894	-0.635055	0.578573
C40	C	0.909673	-0.668005	0.510721
C41	C	0.869415	-0.635207	0.442858
C42	C	0.869389	-0.569465	0.442842
N43	N	0.904915	-0.771270	0.417945
N44	N	0.904943	-0.833722	0.417964
C45	C	0.909746	-0.866079	0.510769
N46	N	0.914532	-0.833626	0.603557
N47	N	0.914508	-0.771169	0.603537
C48	C	0.909695	-0.739290	0.510732
C49	C	0.950022	-0.970155	0.578662
C50	C	0.950040	-1.035899	0.578690
C51	C	0.869565	-1.036049	0.442966
C52	C	0.869544	-0.970307	0.442947
C53	C	0.909776	-0.937364	0.510794
C54	C	1.073869	-0.302973	0.510760
C55	C	1.143837	-0.302960	0.510773
C56	C	0.909725	-0.302954	0.787235
C57	C	0.909745	-0.302933	0.905065
C58	C	0.909776	-0.138812	0.510806
C59	C	0.909818	-0.068844	0.510839
C60	C	0.909669	-0.303006	0.235299
C61	C	0.909771	-0.302849	0.117470
C62	C	0.860922	-0.351356	1.072597
C63	C	0.861050	-0.351596	0.950037
C64	C	0.976069	-0.320919	0.949580
C65	C	0.975801	-0.321223	1.072178
C66	C	0.892870	-0.236253	1.072279
C67	C	0.891390	-0.236653	0.949672
H68	H	0.149839	-0.375909	0.387546
H69	H	0.811868	-0.340342	0.919938
H70	H	0.924371	-0.198603	0.919060
Cl71	Cl	0.536353	-0.212285	0.664041
H72	H	0.982664	-0.661758	0.633843
H73	H	0.836812	-1.062876	0.387727
Cl74	Cl	0.684737	-0.212316	0.664033
H75	H	0.982629	-0.542492	0.633794
Cl76	Cl	1.000637	-1.077121	0.664019
H77	H	0.269316	-0.230040	0.633995
H78	H	0.550676	-0.375981	0.387497
H79	H	0.269106	-0.375933	0.387530
H80	H	0.871970	-0.400418	1.103404
H81	H	0.845349	-0.219855	1.103187
H82	H	1.013430	-0.287425	1.101864
H83	H	0.836771	-0.943607	0.387686
H84	H	0.982780	-0.943332	0.633910
H85	H	0.811595	-0.340211	1.102074
H86	H	0.669947	-0.376003	0.387467
H87	H	0.872206	-0.400966	0.920711
H88	H	0.836665	-0.662038	0.387616
H89	H	0.990128	-0.369905	1.100777
H90	H	1.013440	-0.286706	0.920453
Cl91	Cl	0.135517	-0.212204	0.664082
Cl92	Cl	0.998571	-0.395293	0.902186
H93	H	0.836612	-0.542767	0.387582
H94	H	0.842582	-0.223089	0.920576
H95	H	0.928449	-0.200114	1.101301
