data_functionalizedCrystal
_audit_creation_method	'MofGen! by Chris Wilmer'
_symmetry_space_group_name_H-M	'P1'
_symmetry_Int_Tables_number	1
_symmetry_cell_setting	triclinic
loop_
_symmetry_equiv_pos_as_xyz
  x,y,z
_cell_length_a	16.625547
_cell_length_b	16.120444
_cell_length_c	16.625539
_cell_angle_alpha	87.130642
_cell_angle_beta	90.024822
_cell_angle_gamma	92.926748
loop_
_atom_site_label
_atom_site_type_symbol
_atom_site_fract_x
_atom_site_fract_y
_atom_site_fract_z
Zn1	Zn	1.216381	-0.331909	0.472263
Zn2	Zn	1.549714	0.001425	0.805596
Zn3	Zn	1.883048	0.334758	1.138929
Zn4	Zn	1.209437	-0.471333	0.344261
Zn5	Zn	1.542771	-0.138000	0.677594
Zn6	Zn	1.876104	0.195333	1.010927
Zn7	Zn	1.081541	-0.331938	0.337434
Zn8	Zn	1.414875	0.001396	0.670768
Zn9	Zn	1.748208	0.334729	1.004101
Zn10	Zn	1.074669	-0.471283	0.479038
Zn11	Zn	1.408002	-0.137950	0.812372
Zn12	Zn	1.741335	0.195384	1.145705
O13	O	1.145507	-0.401616	0.408249
O14	O	1.478840	-0.068282	0.741582
O15	O	1.812174	0.265051	1.074916
O16	O	1.328292	-0.350413	0.455304
O17	O	1.661625	-0.017079	0.788637
O18	O	1.994958	0.316254	1.121971
O19	O	1.192442	-0.452876	0.230524
O20	O	1.525775	-0.119542	0.563858
O21	O	1.859108	0.213791	0.897191
O22	O	1.105210	-0.215267	0.349627
O23	O	1.438544	0.118066	0.682961
O24	O	1.771877	0.451399	1.016294
O25	O	1.323190	-0.452847	0.361262
O26	O	1.656524	-0.119514	0.694595
O27	O	1.989857	0.213819	1.027928
O28	O	1.204276	-0.215246	0.448685
O29	O	1.537610	0.118087	0.782018
O30	O	1.870943	0.451420	1.115352
O31	O	1.098477	-0.350462	0.225509
O32	O	1.431811	-0.017129	0.558843
O33	O	1.765144	0.316205	0.892176
O34	O	0.967798	-0.350413	0.356197
O35	O	1.301131	-0.017080	0.689531
O36	O	1.634464	0.316254	1.022864
O37	O	1.093497	-0.452761	0.590970
O38	O	1.426830	-0.119428	0.924304
O39	O	1.760164	0.213905	1.257637
O40	O	0.962748	-0.452789	0.460233
O41	O	1.296082	-0.119456	0.793566
O42	O	1.629415	0.213877	1.126900
O43	O	1.197612	-0.350364	0.585992
O44	O	1.530946	-0.017030	0.919326
O45	O	1.864279	0.316303	1.252659
O46	O	1.185778	-0.587993	0.367832
O47	O	1.519111	-0.254660	0.701165
O48	O	1.852444	0.078674	1.034498
O49	O	1.086764	-0.587956	0.466852
O50	O	1.420097	-0.254622	0.800185
O51	O	1.753431	0.078711	1.133519
C52	C	0.936017	-0.401599	0.408210
C53	C	1.269350	-0.068266	0.741543
C54	C	1.602684	0.265067	1.074877
C55	C	0.846395	-0.401613	0.408214
C56	C	1.179729	-0.068279	0.741547
C57	C	1.513062	0.265054	1.074880
C58	C	0.773613	-0.401614	0.408224
C59	C	1.106946	-0.068281	0.741557
C60	C	1.440279	0.265052	1.074890
C61	C	0.682304	-0.401619	0.408244
C62	C	1.015637	-0.068285	0.741577
C63	C	1.348971	0.265048	1.074911
C64	C	0.609527	-0.401626	0.408265
C65	C	0.942861	-0.068293	0.741598
C66	C	1.276194	0.265040	1.074932
C67	C	0.518213	-0.401632	0.408285
C68	C	0.851546	-0.068299	0.741618
C69	C	1.184879	0.265035	1.074951
C70	C	1.134793	-0.618225	0.418836
C71	C	1.468127	-0.284891	0.752169
C72	C	1.801460	0.048442	1.085502
C73	C	1.130284	-0.710891	0.423391
C74	C	1.463617	-0.377558	0.756725
C75	C	1.796951	-0.044224	1.090058
C76	C	1.169098	-0.921832	0.384788
C77	C	1.502431	-0.588499	0.718122
C78	C	1.835765	-0.255165	1.051455
C79	C	1.122065	-0.880548	0.431718
C80	C	1.455399	-0.547215	0.765051
C81	C	1.788732	-0.213881	1.098385
C82	C	1.126640	-0.786142	0.427084
C83	C	1.459973	-0.452809	0.760417
C84	C	1.793306	-0.119475	1.093750
C85	C	1.164525	-1.016247	0.389422
C86	C	1.497858	-0.682913	0.722755
C87	C	1.831192	-0.349580	1.056088
C88	C	1.355815	-0.401632	0.408289
C89	C	1.689148	-0.068299	0.741622
C90	C	2.022482	0.265034	1.074955
C91	C	1.445436	-0.401640	0.408305
C92	C	1.778769	-0.068306	0.741639
C93	C	2.112103	0.265027	1.074972
C94	C	1.145563	-0.401554	0.618555
C95	C	1.478896	-0.068220	0.951888
C96	C	1.812229	0.265113	1.285222
C97	C	1.145586	-0.401527	0.708175
C98	C	1.478920	-0.068194	1.041508
C99	C	1.812253	0.265140	1.374842
C100	C	1.156285	-0.184161	0.397639
C101	C	1.489618	0.149173	0.730972
C102	C	1.822951	0.482506	1.064305
C103	C	1.160877	-0.091494	0.393117
C104	C	1.494211	0.241839	0.726451
C105	C	1.827544	0.575172	1.059784
C106	C	1.145501	-0.401617	0.198758
C107	C	1.478835	-0.068284	0.532092
C108	C	1.812168	0.265049	0.865425
C109	C	1.145645	-0.401409	0.109127
C110	C	1.478979	-0.068076	0.442461
C111	C	1.812312	0.265258	0.775794
C112	C	1.145628	-0.401434	1.036346
C113	C	1.478961	-0.068100	1.369679
C114	C	1.812295	0.265233	1.703013
C115	C	1.145614	-0.401462	0.945039
C116	C	1.478947	-0.068129	1.278372
C117	C	1.812281	0.265204	1.611706
C118	C	1.145607	-0.401481	0.872263
C119	C	1.478941	-0.068148	1.205597
C120	C	1.812274	0.265186	1.538930
C121	C	1.145593	-0.401508	0.780950
C122	C	1.478926	-0.068175	1.114284
C123	C	1.812259	0.265158	1.447617
H124	H	1.078364	-0.916104	0.475376
H125	H	1.411697	-0.582771	0.808709
H126	H	1.745031	-0.249438	1.142043
H127	H	1.212796	-0.886279	0.341133
H128	H	1.546129	-0.552946	0.674466
H129	H	1.879463	-0.219613	1.007799
