data_functionalizedCrystal
_audit_creation_method	'MofGen! by Chris Wilmer'
_symmetry_space_group_name_H-M	'P1'
_symmetry_Int_Tables_number	1
_symmetry_cell_setting	triclinic
loop_
_symmetry_equiv_pos_as_xyz
  x,y,z
_cell_length_a	14.044191
_cell_length_b	19.188930
_cell_length_c	12.503572
_cell_angle_alpha	93.506241
_cell_angle_beta	86.162165
_cell_angle_gamma	88.168279
loop_
_atom_site_label
_atom_site_type_symbol
_atom_site_fract_x
_atom_site_fract_y
_atom_site_fract_z
O1	O	1.262490	0.164610	-0.089291
O2	O	1.595824	0.497943	0.244042
O3	O	1.929157	0.831277	0.577376
O4	O	0.986547	0.158532	-0.089304
O5	O	1.319880	0.491865	0.244030
O6	O	1.653213	0.825198	0.577363
O7	O	1.132480	0.060430	-0.089276
O8	O	1.465814	0.393763	0.244057
O9	O	1.799147	0.727097	0.577391
O10	O	1.116557	0.262712	-0.089319
O11	O	1.449890	0.596045	0.244015
O12	O	1.783223	0.929378	0.577348
O13	O	1.121505	0.067821	0.089364
O14	O	1.454838	0.401155	0.422697
O15	O	1.788172	0.734488	0.756031
O16	O	0.975571	0.165923	0.089336
O17	O	1.308905	0.499256	0.422670
O18	O	1.642238	0.832590	0.756003
O19	O	1.251515	0.172001	0.089349
O20	O	1.584848	0.505334	0.422682
O21	O	1.918182	0.838668	0.756016
Cu22	Cu	1.112541	0.169637	0.105654
Cu23	Cu	1.445874	0.502970	0.438987
Cu24	Cu	1.779208	0.836303	0.772320
Cu25	Cu	1.125520	0.160896	-0.105609
Cu26	Cu	1.458854	0.494229	0.227725
Cu27	Cu	1.792187	0.827563	0.561058
O28	O	1.105581	0.270103	0.089321
O29	O	1.438915	0.603436	0.422655
O30	O	1.772248	0.936769	0.755988
C31	C	0.945756	0.159568	0.000015
C32	C	1.279089	0.492902	0.333348
C33	C	1.612422	0.826235	0.666682
C34	C	0.840563	0.151637	0.000011
C35	C	1.173896	0.484971	0.333344
C36	C	1.507229	0.818304	0.666678
C37	C	0.590103	0.193385	0.000013
C38	C	0.923436	0.526719	0.333346
C39	C	1.256770	0.860052	0.666680
C40	C	0.647965	0.137150	0.000023
C41	C	0.981298	0.470483	0.333356
C42	C	1.314631	0.803817	0.666690
C43	C	0.755136	0.145213	0.000016
C44	C	1.088469	0.478546	0.333350
C45	C	1.421803	0.811879	0.666683
C46	C	0.482922	0.185324	0.000020
C47	C	0.816255	0.518657	0.333353
C48	C	1.149588	0.851990	0.666686
C49	C	1.126477	0.038081	0.000047
C50	C	1.459810	0.371415	0.333380
C51	C	1.793143	0.704748	0.666714
C52	C	1.124928	-0.039523	0.000056
C53	C	1.458261	0.293811	0.333390
C54	C	1.791595	0.627144	0.666723
C55	C	1.210557	-0.078919	0.000065
C56	C	1.543891	0.254414	0.333399
C57	C	1.877224	0.587748	0.666732
C58	C	1.209104	-0.151837	0.000048
C59	C	1.542437	0.181496	0.333381
C60	C	1.875771	0.514829	0.666715
C61	C	1.122015	-0.185356	0.000043
C62	C	1.455348	0.147978	0.333377
C63	C	1.788681	0.481311	0.666710
C64	C	1.036374	-0.145950	0.000028
C65	C	1.369708	0.187383	0.333361
C66	C	1.703041	0.520716	0.666695
C67	C	1.037831	-0.073034	0.000035
C68	C	1.371164	0.260299	0.333368
C69	C	1.704498	0.593633	0.666701
N70	N	1.051710	-0.295142	0.060835
N71	N	1.385044	0.038191	0.394168
N72	N	1.718377	0.371524	0.727501
N73	N	1.050332	-0.364410	0.060831
N74	N	1.383666	-0.031077	0.394164
N75	N	1.716999	0.302257	0.727497
C76	C	1.117621	-0.405049	0.000021
C77	C	1.450955	-0.071715	0.333355
C78	C	1.784288	0.261618	0.666688
N79	N	1.186354	-0.373803	-0.060771
N80	N	1.519687	-0.040470	0.272563
N81	N	1.853020	0.292864	0.605896
N82	N	1.187734	-0.304529	-0.060762
N83	N	1.521067	0.028804	0.272571
N84	N	1.854401	0.362138	0.605905
C85	C	1.120426	-0.264421	0.000036
C86	C	1.453759	0.068912	0.333369
C87	C	1.787092	0.402246	0.666702
C88	C	1.201681	-0.523512	0.000010
C89	C	1.535014	-0.190178	0.333343
C90	C	1.868347	0.143155	0.666677
C91	C	1.200224	-0.596432	-0.000014
C92	C	1.533557	-0.263098	0.333320
C93	C	1.866891	0.070235	0.666653
C94	C	1.027491	-0.590543	-0.000023
C95	C	1.360825	-0.257210	0.333310
C96	C	1.694158	0.076124	0.666644
C97	C	1.028951	-0.517625	-0.000010
C98	C	1.362284	-0.184292	0.333324
C99	C	1.695618	0.149042	0.666657
C100	C	1.116048	-0.484114	0.000012
C101	C	1.449381	-0.150780	0.333345
C102	C	1.782715	0.182553	0.666679
C103	C	1.292306	0.170964	0.000028
C104	C	1.625639	0.504298	0.333361
C105	C	1.958973	0.837631	0.666695
C106	C	1.397499	0.178895	0.000025
C107	C	1.730833	0.512228	0.333358
C108	C	2.064166	0.845562	0.666692
C109	C	1.111585	0.292451	-0.000004
C110	C	1.444918	0.625784	0.333329
C111	C	1.778252	0.959118	0.666663
C112	C	1.113134	0.370055	-0.000020
C113	C	1.446468	0.703388	0.333313
C114	C	1.779801	1.036722	0.666646
N115	N	1.103419	0.175785	0.254244
N116	N	1.436752	0.509118	0.587578
N117	N	1.770086	0.842451	0.920911
N118	N	1.134650	0.154743	-0.254199
N119	N	1.467983	0.488076	0.079134
N120	N	1.801317	0.821410	0.412468
C121	C	1.090000	0.184834	0.473357
C122	C	1.423333	0.518168	0.806690
C123	C	1.756667	0.851501	1.140024
C124	C	1.148066	0.145695	0.526695
C125	C	1.481399	0.479029	0.860028
C126	C	1.814733	0.812362	1.193362
C127	C	1.140599	0.150731	0.648617
C128	C	1.473933	0.484064	0.981950
C129	C	1.807266	0.817397	1.315284
C130	C	1.097465	0.179800	0.351424
C131	C	1.430799	0.513133	0.684758
C132	C	1.764132	0.846466	1.018091
H133	H	0.621053	0.247581	-0.000002
H134	H	0.954386	0.580914	0.333332
H135	H	1.287720	0.914248	0.666665
N136	N	0.933558	-0.626684	-0.000040
N137	N	1.266891	-0.293351	0.333293
N138	N	1.600224	0.039982	0.666626
H139	H	0.945627	-0.678856	-0.000046
H140	H	1.278960	-0.345522	0.333287
H141	H	1.612294	-0.012189	0.666620
H142	H	0.892027	-0.609924	0.066182
H143	H	1.225361	-0.276590	0.399515
H144	H	1.558694	0.056743	0.732849
H145	H	1.203386	0.108406	0.480793
H146	H	1.536719	0.441740	0.814126
H147	H	1.870053	0.775073	1.147459
N148	N	0.936593	-0.475127	-0.000013
N149	N	1.269926	-0.141794	0.333320
N150	N	1.603259	0.191539	0.666653
H151	H	0.881200	-0.507423	-0.000018
H152	H	1.214533	-0.174090	0.333315
H153	H	1.547866	0.159243	0.666648
H154	H	0.929367	-0.442014	0.066214
H155	H	1.262700	-0.108681	0.399547
H156	H	1.596033	0.224653	0.732880
H157	H	1.034685	0.222122	0.519254
H158	H	1.368018	0.555455	0.852587
H159	H	1.701352	0.888789	1.185921
N160	N	0.606980	0.065352	0.000026
N161	N	0.940314	0.398685	0.333359
N162	N	1.273647	0.732019	0.666692
H163	H	0.625112	0.041867	0.066249
H164	H	0.958445	0.375200	0.399582
H165	H	1.291779	0.708534	0.732916
H166	H	0.535129	0.069748	-0.000016
H167	H	0.868462	0.403081	0.333317
H168	H	1.201796	0.736415	0.666651
H169	H	1.281479	-0.051639	0.000079
H170	H	1.614812	0.281695	0.333413
H171	H	1.948145	0.615028	0.666746
H172	H	1.278836	-0.183920	0.000051
H173	H	1.612170	0.149413	0.333384
H174	H	1.945503	0.482747	0.666718
H175	H	0.965466	-0.173246	0.000022
H176	H	1.298799	0.160087	0.333355
H177	H	1.632133	0.493421	0.666688
N178	N	0.945470	-0.030537	0.000024
N179	N	1.278803	0.302796	0.333357
N180	N	1.612137	0.636130	0.666691
H181	H	0.890076	-0.062832	0.000015
H182	H	1.223410	0.270501	0.333348
H183	H	1.556743	0.603834	0.666681
H184	H	0.938243	0.002575	0.066253
H185	H	1.271576	0.335908	0.399586
H186	H	1.604909	0.669241	0.732920
H187	H	1.272601	-0.496226	0.000023
H188	H	1.605934	-0.162892	0.333356
H189	H	1.939267	0.170441	0.666690
N190	N	1.292590	-0.638922	-0.000001
N191	N	1.625923	-0.305589	0.333333
N192	N	1.959257	0.027744	0.666666
H193	H	1.291759	-0.666577	0.066216
H194	H	1.625092	-0.333244	0.399550
H195	H	1.958425	0.000089	0.732883
H196	H	1.299861	-0.671996	-0.066271
H197	H	1.633194	-0.338663	0.267062
H198	H	1.966527	-0.005329	0.600396
