data_functionalizedCrystal
_audit_creation_method	'MofGen! by Chris Wilmer'
_symmetry_space_group_name_H-M	'P1'
_symmetry_Int_Tables_number	1
_symmetry_cell_setting	triclinic
loop_
_symmetry_equiv_pos_as_xyz
  x,y,z
_cell_length_a	16.992694
_cell_length_b	7.088929
_cell_length_c	8.597278
_cell_angle_alpha	76.027249
_cell_angle_beta	92.025455
_cell_angle_gamma	83.364871
loop_
_atom_site_label
_atom_site_type_symbol
_atom_site_fract_x
_atom_site_fract_y
_atom_site_fract_z
O1	O	1.032119	0.217013	-0.353773
O2	O	0.803833	0.216459	-0.350065
O3	O	0.924371	0.178591	-0.120382
O4	O	0.911581	0.254881	-0.583456
O5	O	0.940480	-0.144457	-0.089613
O6	O	0.819942	-0.106589	-0.319296
O7	O	1.048227	-0.106035	-0.323004
Cu8	Cu	0.935555	-0.135809	-0.318341
Cu9	Cu	0.916505	0.246233	-0.354728
O10	O	0.927689	-0.068167	-0.552687
C11	C	0.782678	0.054156	-0.329905
C12	C	0.695642	0.051830	-0.315657
N13	N	0.948960	-0.404516	-0.292747
C14	C	0.645309	0.074481	-0.453155
C15	C	0.563533	0.072247	-0.439753
C16	C	0.532090	0.047375	-0.288853
C17	C	0.582429	0.024716	-0.151344
C18	C	0.664205	0.026937	-0.164746
C19	C	0.288532	0.038173	-0.233306
C20	C	0.206750	0.035960	-0.219915
C21	C	0.187860	0.083487	-0.508326
C22	C	0.269637	0.085717	-0.521716
C23	C	0.319969	0.063048	-0.384206
N24	N	0.448501	0.045097	-0.275151
N25	N	0.403557	0.065313	-0.397908
C26	C	1.069382	0.056273	-0.343164
C27	C	1.156418	0.058611	-0.357414
C28	C	0.931949	0.007264	-0.045472
C29	C	0.930520	-0.021943	0.131899
N30	N	0.903106	0.514939	-0.380310
C31	C	0.920111	0.103164	-0.627598
C32	C	0.921539	0.132384	-0.804970
H33	H	0.670903	0.094736	-0.576035
F34	F	1.011087	-0.530794	-0.174151
H35	H	0.855584	-0.388455	-0.471050
F36	F	0.939139	-0.223864	0.238612
H37	H	0.522555	0.090694	-0.551720
H38	H	0.914935	0.286874	0.113375
H39	H	0.146871	0.101938	-0.620278
F40	F	0.303094	0.112199	-0.682326
H41	H	0.329504	0.019712	-0.121335
F42	F	0.173290	0.009453	-0.059296
H43	H	0.556823	0.004438	-0.028474
H44	H	0.705185	0.008493	-0.052779
