data_functionalizedCrystal
_audit_creation_method	'MofGen! by Chris Wilmer'
_symmetry_space_group_name_H-M	'P1'
_symmetry_Int_Tables_number	1
_symmetry_cell_setting	triclinic
loop_
_symmetry_equiv_pos_as_xyz
  x,y,z
_cell_length_a	12.645330
_cell_length_b	12.827893
_cell_length_c	12.827885
_cell_angle_alpha	89.978811
_cell_angle_beta	90.028978
_cell_angle_gamma	89.984099
loop_
_atom_site_label
_atom_site_type_symbol
_atom_site_fract_x
_atom_site_fract_y
_atom_site_fract_z
Zn1	Zn	-0.422039	-1.597653	0.590908
Zn2	Zn	0.077961	-1.097653	1.090908
Zn3	Zn	-0.599339	-1.597540	0.416171
Zn4	Zn	-0.099339	-1.097540	0.916171
Zn5	Zn	-0.422085	-1.422894	0.416176
Zn6	Zn	0.077915	-0.922894	0.916176
Zn7	Zn	-0.599255	-1.422873	0.590865
Zn8	Zn	-0.099255	-0.922873	1.090865
O9	O	-0.510679	-1.510240	0.503530
O10	O	-0.010679	-1.010240	1.003530
O11	O	-0.445574	-1.743874	0.567745
O12	O	0.054426	-1.243874	1.067745
O13	O	-0.575881	-1.574335	0.269935
O14	O	-0.075881	-1.074335	0.769935
O15	O	-0.273731	-1.446133	0.439375
O16	O	0.226269	-0.946133	0.939375
O17	O	-0.575836	-1.743791	0.439366
O18	O	-0.075836	-1.243791	0.939366
O19	O	-0.273697	-1.574527	0.567750
O20	O	0.226303	-1.074527	1.067750
O21	O	-0.445653	-1.446023	0.269939
O22	O	0.054347	-0.946023	0.769939
O23	O	-0.445571	-1.276655	0.439333
O24	O	0.054429	-0.776655	0.939333
O25	O	-0.575692	-1.446096	0.737107
O26	O	-0.075692	-0.946096	1.237107
O27	O	-0.575737	-1.276639	0.567676
O28	O	-0.075737	-0.776639	1.067676
O29	O	-0.445492	-1.574506	0.737138
O30	O	0.054508	-1.074506	1.237138
O31	O	-0.747675	-1.574314	0.439324
O32	O	-0.247675	-1.074314	0.939324
O33	O	-0.747613	-1.445986	0.567671
O34	O	-0.247613	-0.945986	1.067671
C35	C	-0.510651	-1.238730	0.503501
C36	C	-0.010651	-0.738730	1.003501
C37	C	-0.510664	-1.122577	0.503513
C38	C	-0.010664	-0.622577	1.003513
C39	C	-0.575033	-0.950707	0.439916
C40	C	-0.075033	-0.450707	0.939916
C41	C	-0.575021	-1.070757	0.439901
C42	C	-0.075021	-0.570757	0.939901
C43	C	-0.786109	-1.510164	0.503515
C44	C	-0.286109	-1.010164	1.003515
C45	C	-0.903939	-1.510227	0.503544
C46	C	-0.403939	-1.010227	1.003544
C47	C	-1.071508	-1.429829	0.584536
C48	C	-0.571508	-0.929829	1.084536
C49	C	-0.948949	-1.429418	0.584276
C50	C	-0.448949	-0.929418	1.084276
C51	C	-0.948540	-1.480414	0.393412
C52	C	-0.448540	-0.980414	0.893412
C53	C	-1.071139	-1.479923	0.393904
C54	C	-0.571139	-0.979923	0.893904
C55	C	-1.071030	-1.620929	0.531791
C56	C	-0.571030	-1.120929	1.031791
C57	C	-0.948423	-1.620251	0.534199
C58	C	-0.448423	-1.120251	1.034199
C59	C	-0.234174	-1.510345	0.503567
C60	C	0.265826	-1.010345	1.003567
C61	C	-0.116344	-1.510390	0.503583
C62	C	0.383656	-1.010390	1.003583
C63	C	-0.510578	-1.510311	0.776100
C64	C	-0.010578	-1.010311	1.276100
C65	C	-0.510534	-1.510341	0.892253
C66	C	-0.010534	-1.010341	1.392253
C67	C	-0.510701	-0.782810	0.503551
C68	C	-0.010701	-0.282810	1.003551
C69	C	-0.510687	-0.898963	0.503539
C70	C	-0.010687	-0.398963	1.003539
C71	C	-0.510704	-1.510229	0.232020
C72	C	-0.010704	-1.010229	0.732020
C73	C	-0.510449	-1.510401	0.115867
C74	C	-0.010449	-1.010401	0.615867
C75	C	-0.446095	-1.573890	0.944054
C76	C	0.053905	-1.073890	1.444054
C77	C	-0.446048	-1.573923	1.064104
C78	C	0.053952	-1.073923	1.564104
H79	H	-1.100915	-1.448310	0.666466
H80	H	-0.600915	-0.948310	1.166466
H81	H	-0.455586	-0.943540	0.557994
H82	H	0.044414	-0.443540	1.057994
H83	H	-0.918790	-1.448070	0.665938
H84	H	-0.418790	-0.948070	1.165938
H85	H	-0.630125	-0.906130	0.385452
H86	H	-0.130125	-0.406130	0.885452
N87	N	-1.112429	-1.321953	0.560107
N88	N	-0.612429	-0.821953	1.060107
H89	H	-1.159885	-1.325040	0.496830
H90	H	-0.659885	-0.825040	0.996830
H91	H	-1.050867	-1.273963	0.545590
H92	H	-0.550867	-0.773963	1.045590
H93	H	-0.919713	-1.347469	0.565588
H94	H	-0.419713	-0.847469	1.065588
N95	N	-1.109154	-1.372894	0.362249
N96	N	-0.609154	-0.872894	0.862249
H97	H	-1.046271	-1.326475	0.348109
H98	H	-0.546271	-0.826475	0.848109
H99	H	-1.152989	-1.342027	0.420348
H100	H	-0.652989	-0.842027	0.920348
H101	H	-0.630115	-1.115256	0.385437
H102	H	-0.130115	-0.615256	0.885437
H103	H	-0.390956	-1.628268	0.899525
H104	H	0.109044	-1.128268	1.399525
N105	N	-1.110443	-1.554267	0.311285
N106	N	-0.610443	-1.054267	0.811285
H107	H	-1.048125	-1.587208	0.274704
H108	H	-0.548125	-1.087208	0.774704
H109	H	-1.154799	-1.514846	0.258963
H110	H	-0.654799	-1.014846	0.758963
N111	N	-0.437681	-1.063661	0.575677
N112	N	0.062319	-0.563661	1.075677
H113	H	-0.480864	-1.018391	0.624000
H114	H	0.019136	-0.518391	1.124000
H115	H	-0.388562	-1.018423	0.533183
H116	H	0.111438	-0.518423	1.033183
N117	N	-0.909933	-1.555667	0.311325
N118	N	-0.409933	-1.055667	0.811325
H119	H	-0.863046	-1.609938	0.344819
H120	H	-0.363046	-1.109938	0.844819
H121	H	-0.868447	-1.516380	0.256726
H122	H	-0.368447	-1.016380	0.756726
N123	N	-0.907993	-1.374495	0.361188
N124	N	-0.407993	-0.874495	0.861188
H125	H	-0.931489	-1.320581	0.413660
H126	H	-0.431489	-0.820581	0.913660
H127	H	-0.937140	-1.356097	0.290210
H128	H	-0.437140	-0.856097	0.790210
N129	N	-0.583555	-1.438295	0.951235
N130	N	-0.083555	-0.938295	1.451235
H131	H	-0.632627	-1.480793	0.996524
H132	H	-0.132627	-0.980793	1.496524
H133	H	-0.626496	-1.395889	0.900114
H134	H	-0.126496	-0.895889	1.400114
N135	N	-1.111875	-1.656962	0.636357
N136	N	-0.611875	-1.156962	1.136357
H137	H	-1.160175	-1.601988	0.666504
H138	H	-0.660175	-1.101988	1.166504
H139	H	-1.050336	-1.668850	0.685153
H140	H	-0.550336	-1.168850	1.185153
H141	H	-0.390882	-1.628332	1.108651
H142	H	0.109118	-1.128332	1.608651
N143	N	-0.909807	-1.650043	0.641558
N144	N	-0.409807	-1.150043	1.141558
H145	H	-0.863687	-1.592519	0.670226
H146	H	-0.363687	-1.092519	1.170226
H147	H	-0.867516	-1.716688	0.637065
H148	H	-0.367516	-1.216688	1.137065
N149	N	-0.907831	-1.703953	0.461796
N150	N	-0.407831	-1.203953	0.961796
H151	H	-0.859819	-1.671593	0.407853
H152	H	-0.359819	-1.171593	0.907853
H153	H	-0.969504	-1.738780	0.425883
H154	H	-0.469504	-1.238780	0.925883
N155	N	-1.109428	-1.700437	0.453695
N156	N	-0.609428	-1.200437	0.953695
H157	H	-1.155948	-1.665086	0.400298
H158	H	-0.655948	-1.165086	0.900298
H159	H	-1.151251	-1.756196	0.490958
H160	H	-0.651251	-1.256196	0.990958
H161	H	-0.565625	-1.455996	1.071327
H162	H	-0.065625	-0.955996	1.571327
