data_functionalizedCrystal
_audit_creation_method	'MofGen! by Chris Wilmer'
_symmetry_space_group_name_H-M	'P1'
_symmetry_Int_Tables_number	1
_symmetry_cell_setting	triclinic
loop_
_symmetry_equiv_pos_as_xyz
  x,y,z
_cell_length_a	16.120484
_cell_length_b	12.759395
_cell_length_c	12.759387
_cell_angle_alpha	90.018815
_cell_angle_beta	92.862335
_cell_angle_gamma	87.073025
loop_
_atom_site_label
_atom_site_type_symbol
_atom_site_fract_x
_atom_site_fract_y
_atom_site_fract_z
Zn1	Zn	-0.331818	-1.584970	-0.615166
Zn2	Zn	-0.471257	-1.575922	-0.448379
Zn3	Zn	-0.331867	-1.409270	-0.439506
Zn4	Zn	-0.471195	-1.400321	-0.624014
O5	O	-0.401534	-1.492621	-0.531766
O6	O	-0.350321	-1.730790	-0.593052
O7	O	-0.452813	-1.553774	-0.300184
O8	O	-0.215195	-1.440108	-0.455391
O9	O	-0.452766	-1.724143	-0.470514
O10	O	-0.215159	-1.569194	-0.584448
O11	O	-0.350403	-1.431335	-0.293665
O12	O	-0.350343	-1.261062	-0.463971
O13	O	-0.452660	-1.424856	-0.769858
O14	O	-0.452707	-1.254487	-0.599528
O15	O	-0.350261	-1.560517	-0.763358
O16	O	-0.587914	-1.545097	-0.479093
O17	O	-0.587869	-1.416083	-0.608132
C18	C	-0.401524	-1.219654	-0.531747
C19	C	-0.401540	-1.102876	-0.531766
C20	C	-0.618142	-1.478666	-0.545558
C21	C	-0.710807	-1.472792	-0.551494
C22	C	-0.401448	-1.492697	-0.805794
C23	C	-0.401412	-1.492730	-0.922569
C24	C	-0.880468	-1.462074	-0.562352
C25	C	-0.921760	-1.523355	-0.501197
C26	C	-1.016165	-1.517392	-0.507239
C27	C	-0.786054	-1.468036	-0.556312
C28	C	-0.184081	-1.506659	-0.517943
C29	C	-0.091416	-1.512641	-0.512052
C30	C	-0.401545	-1.766653	-0.531786
C31	C	-0.401550	-1.883430	-0.531794
C32	C	-0.508304	-1.096057	-0.672715
C33	C	-0.561693	-1.037787	-0.743193
C34	C	-0.561703	-0.928065	-0.743207
C35	C	-0.508317	-0.876611	-0.672737
C36	C	-0.454928	-0.934881	-0.602258
C37	C	-0.454926	-1.044606	-0.602250
C38	C	-0.348161	-0.941700	-0.461316
C39	C	-0.348154	-1.051422	-0.461296
C40	C	-0.294775	-0.890247	-0.390846
C41	C	-0.241389	-0.948517	-0.320361
C42	C	-0.241382	-1.058246	-0.320349
C43	C	-0.294765	-1.109693	-0.390817
C44	C	-0.294765	-1.365244	-0.915799
C45	C	-0.241425	-1.301521	-0.967274
C46	C	-0.241395	-1.301554	-1.076994
C47	C	-0.294712	-1.365315	-1.135242
C48	C	-0.348052	-1.429038	-1.083767
C49	C	-0.348075	-1.429000	-0.974044
C50	C	-0.454702	-1.556517	-1.090537
C51	C	-0.454729	-1.556491	-0.980817
C52	C	-0.508019	-1.620278	-1.148784
C53	C	-0.561356	-1.684008	-1.097309
C54	C	-0.561383	-1.683973	-0.987583
C55	C	-0.508069	-1.620214	-0.929342
C56	C	-0.401560	-1.492609	-0.258800
C57	C	-0.401362	-1.492794	-0.142011
H58	H	-0.886211	-1.580298	-0.444303
F59	F	-0.184673	-1.233680	-0.905275
H60	H	-0.916015	-1.405135	-0.619241
H61	H	-0.508323	-0.787269	-0.672763
H62	H	-0.508308	-1.185398	-0.672704
F63	F	-0.507993	-1.620302	-1.265559
F64	F	-0.294690	-1.365331	-1.252016
H65	H	-0.605158	-1.079693	-0.800570
H66	H	-0.605173	-0.880621	-0.800601
F67	F	-0.294782	-0.773470	-0.390867
F68	F	-0.184573	-0.893751	-0.245377
H69	H	-0.294767	-1.199034	-0.390812
F70	F	-0.184553	-1.120254	-0.245340
H71	H	-0.294778	-1.365219	-0.826459
H72	H	-0.197962	-1.249664	-1.118904
F73	F	-0.618099	-1.751852	-1.159306
H74	H	-0.604817	-1.735867	-0.945678
H75	H	-0.508083	-1.620183	-0.840001
