data_functionalizedCrystal
_audit_creation_method	'MofGen! by Chris Wilmer'
_symmetry_space_group_name_H-M	'P1'
_symmetry_Int_Tables_number	1
_symmetry_cell_setting	triclinic
loop_
_symmetry_equiv_pos_as_xyz
  x,y,z
_cell_length_a	18.101395
_cell_length_b	12.759401
_cell_length_c	12.759393
_cell_angle_alpha	89.977503
_cell_angle_beta	90.032370
_cell_angle_gamma	89.968074
loop_
_atom_site_label
_atom_site_type_symbol
_atom_site_fract_x
_atom_site_fract_y
_atom_site_fract_z
Zn1	Zn	-0.294778	-1.606147	0.594050
Zn2	Zn	-0.418637	-1.605987	0.418364
Zn3	Zn	-0.294815	-1.430445	0.418380
Zn4	Zn	-0.418584	-1.430387	0.593997
O5	O	-0.356703	-1.518242	0.506198
O6	O	-0.311214	-1.753147	0.570761
O7	O	-0.402250	-1.582659	0.271345
O8	O	-0.191177	-1.453844	0.441712
O9	O	-0.402213	-1.753030	0.441685
O10	O	-0.191150	-1.582931	0.570776
O11	O	-0.311279	-1.453689	0.271357
O12	O	-0.311227	-1.283417	0.441661
O13	O	-0.402122	-1.453744	0.741025
O14	O	-0.402159	-1.283374	0.570685
O15	O	-0.311163	-1.582874	0.741064
O16	O	-0.522263	-1.582603	0.441633
O17	O	-0.522224	-1.453590	0.570670
C18	C	-0.356692	-1.245274	0.506170
C19	C	-0.356705	-1.128498	0.506183
C20	C	-0.549114	-1.518101	0.506167
C21	C	-0.631428	-1.518137	0.506189
C22	C	-0.404125	-1.073641	0.573258
C23	C	-0.404127	-0.963917	0.573276
C24	C	-0.309287	-0.963916	0.439133
C25	C	-0.309282	-1.073638	0.439122
C26	C	-0.430698	-0.814010	0.697131
C27	C	-0.478130	-0.759149	0.764198
C28	C	-0.550403	-0.794718	0.780144
C29	C	-0.575259	-0.885145	0.729007
C30	C	-0.527831	-0.940000	0.661933
C31	C	-0.455548	-0.904433	0.646007
C32	C	-0.282718	-1.223547	0.315265
C33	C	-0.235293	-1.278404	0.248184
C34	C	-0.163019	-1.242837	0.232228
C35	C	-0.138166	-1.152407	0.283346
C36	C	-0.185590	-1.097550	0.350427
C37	C	-0.257863	-1.133124	0.366385
C38	C	-0.930519	-1.518368	0.506246
C39	C	-0.899200	-1.437384	0.587633
C40	C	-0.813582	-1.436999	0.587379
C41	C	-0.782136	-1.518253	0.506218
C42	C	-0.813295	-1.488271	0.395492
C43	C	-0.898940	-1.487748	0.395979
C44	C	-0.898860	-1.629511	0.534610
C45	C	-0.813208	-1.628857	0.537038
C46	C	-0.698277	-1.518190	0.506196
C47	C	-1.014378	-1.518428	0.506260
C48	C	-0.163541	-1.518411	0.506252
C49	C	-0.081227	-1.518484	0.506275
C50	C	-0.356632	-1.518320	0.780231
C51	C	-0.356602	-1.518354	0.897008
C52	C	-0.356713	-0.792275	0.506220
C53	C	-0.356712	-0.909051	0.506212
C54	C	-0.356721	-1.518224	0.233231
C55	C	-0.356542	-1.518394	0.116454
C56	C	-0.309232	-1.585597	0.951892
C57	C	-0.309200	-1.585614	1.061616
C58	C	-0.403915	-1.451143	1.061563
C59	C	-0.403942	-1.451121	0.951841
C60	C	-0.221825	-1.623262	1.211600
C61	C	-0.174461	-1.690521	1.266487
C62	C	-0.163106	-1.793039	1.230899
C63	C	-0.199125	-1.828318	1.140425
C64	C	-0.246495	-1.761064	1.085543
C65	C	-0.257836	-1.658532	1.121130
C66	C	-0.491318	-1.413484	0.801856
C67	C	-0.538692	-1.346235	0.746971
C68	C	-0.550055	-1.243716	0.782557
C69	C	-0.514048	-1.208441	0.873035
C70	C	-0.466675	-1.275690	0.927919
C71	C	-0.455311	-1.378208	0.892325
H72	H	-0.442738	-1.118304	0.627866
H73	H	-0.920402	-1.656845	0.613975
Br74	Br	-0.561557	-1.062712	0.592531
H75	H	-0.634114	-0.914091	0.741987
H76	H	-0.079319	-1.123436	0.270338
H77	H	-0.145134	-1.661788	1.340152
H78	H	-0.270678	-0.919236	0.384533
H79	H	-0.791912	-1.407886	0.371034
Br80	Br	-0.295378	-1.808932	0.962767
H81	H	-0.189881	-1.911802	1.111462
Br82	Br	-0.778460	-1.468264	0.724223
Br83	Br	-0.468162	-1.359908	1.135985
H84	H	-0.231060	-1.539782	1.240579
Br85	Br	-0.417807	-1.227817	1.050712
Br86	Br	-0.779354	-1.583486	0.291659
H87	H	-0.482065	-1.496962	0.772867
H88	H	-0.124541	-1.847802	1.275597
H89	H	-0.589021	-0.750043	0.834752
Br90	Br	-0.444397	-0.636433	0.833597
H91	H	-0.523303	-1.124963	0.902013
Br92	Br	-0.777518	-1.734752	0.445448
H93	H	-0.919661	-1.544174	0.333271
H94	H	-0.792840	-1.651467	0.618527
Br95	Br	-0.933439	-1.468333	0.724926
Br96	Br	-0.332604	-0.765746	0.675517
Br97	Br	-0.932630	-1.730079	0.435828
Br98	Br	-0.151863	-0.974814	0.419795
H99	H	-0.270682	-1.640339	0.907251
H100	H	-0.588637	-1.188966	0.737866
H101	H	-0.920788	-1.355504	0.569082
H102	H	-0.793161	-1.354618	0.568590
H103	H	-0.124409	-1.287507	0.177596
H104	H	-0.255536	-1.352037	0.206561
Br105	Br	-0.587569	-1.394115	0.624188
Br106	Br	-0.380850	-1.271716	0.336772
Br107	Br	-0.932355	-1.352336	0.355931
