data_functionalizedCrystal
_audit_creation_method	'MofGen! by Chris Wilmer'
_symmetry_space_group_name_H-M	'P1'
_symmetry_Int_Tables_number	1
_symmetry_cell_setting	triclinic
loop_
_symmetry_equiv_pos_as_xyz
  x,y,z
_cell_length_a	17.038272
_cell_length_b	11.026607
_cell_length_c	10.065875
_cell_angle_alpha	79.268236
_cell_angle_beta	99.382126
_cell_angle_gamma	99.848786
loop_
_atom_site_label
_atom_site_type_symbol
_atom_site_fract_x
_atom_site_fract_y
_atom_site_fract_z
O1	O	-1.084093	-0.250529	-0.113309
O2	O	-0.584093	0.249471	0.386691
O3	O	-0.855867	-0.246277	-0.113350
O4	O	-0.355867	0.253723	0.386650
O5	O	-0.951065	-0.069798	-0.113328
O6	O	-0.451065	0.430202	0.386672
O7	O	-0.988896	-0.427009	-0.113331
O8	O	-0.488896	0.072991	0.386669
O9	O	-0.932932	-0.103595	0.113657
O10	O	-0.432932	0.396405	0.613657
O11	O	-0.837735	-0.280074	0.113635
O12	O	-0.337735	0.219926	0.613635
O13	O	-1.065961	-0.284326	0.113675
O14	O	-0.565961	0.215674	0.613675
Zn15	Zn	-0.948969	-0.287566	0.149694
Zn16	Zn	-0.448969	0.212434	0.649694
Zn17	Zn	-0.972859	-0.243037	-0.149368
Zn18	Zn	-0.472859	0.256963	0.350632
O19	O	-0.970763	-0.460806	0.113654
O20	O	-0.470763	0.039194	0.613654
C21	C	-0.817129	-0.259313	0.000137
C22	C	-0.317129	0.240687	0.500137
C23	C	-0.728714	-0.247789	0.000122
C24	C	-0.228714	0.252211	0.500122
C25	C	-0.935020	-0.040764	0.000162
C26	C	-0.435020	0.459236	0.500162
C27	C	-0.914215	0.096099	0.000153
C28	C	-0.414215	0.596099	0.500153
C29	C	-1.104699	-0.271290	0.000185
C30	C	-0.604699	0.228710	0.500185
C31	C	-1.193115	-0.282813	0.000192
C32	C	-0.693115	0.217187	0.500192
C33	C	-0.693506	-0.353573	0.000122
C34	C	-0.193506	0.146427	0.500122
C35	C	-0.610427	-0.342742	0.000141
C36	C	-0.110427	0.157258	0.500141
C37	C	-0.562559	-0.226125	0.000150
C38	C	-0.062559	0.273875	0.500150
C39	C	-0.597772	-0.120334	0.000154
C40	C	-0.097772	0.379666	0.500154
C41	C	-0.680848	-0.131167	0.000145
C42	C	-0.180848	0.368833	0.500145
C43	C	-0.311404	-0.187855	0.000187
C44	C	0.188596	0.312145	0.500187
C45	C	-0.228323	-0.177029	0.000192
C46	C	0.271677	0.322971	0.500192
C47	C	-0.240984	-0.399439	0.000181
C48	C	0.259016	0.100561	0.500181
C49	C	-0.324062	-0.410260	0.000164
C50	C	0.175938	0.089740	0.500164
C51	C	-0.359267	-0.304470	0.000175
C52	C	0.140733	0.195530	0.500175
C53	C	-0.477639	-0.215052	0.000165
C54	C	0.022361	0.284948	0.500165
C55	C	-0.444184	-0.315547	0.000170
C56	C	0.055816	0.184453	0.500170
C57	C	-0.986809	-0.489839	0.000161
C58	C	-0.486809	0.010161	0.500161
C59	C	-1.007614	-0.626701	0.000161
C60	C	-0.507614	-0.126701	0.500161
N61	N	-0.932670	-0.317956	0.353796
N62	N	-0.432670	0.182044	0.853796
C63	C	-0.971661	0.163973	0.000161
C64	C	-0.471661	0.663973	0.500161
C65	C	-0.950160	0.305428	0.000152
C66	C	-0.450160	0.805428	0.500152
N67	N	-0.989163	-0.212639	-0.353470
N68	N	-0.489163	0.287361	0.146530
C69	C	-0.967182	-0.253603	0.421582
C70	C	-0.467182	0.246397	0.921582
C71	C	-0.954646	-0.277001	0.578747
C72	C	-0.454646	0.222999	1.078747
H73	H	-0.732475	-0.448535	0.000114
H74	H	-0.232475	0.051465	0.500114
Cl75	Cl	-0.849646	0.377382	0.000121
Cl76	Cl	-0.349646	0.877382	0.500121
H77	H	-0.893838	-0.390369	0.412113
H78	H	-0.393838	0.109631	0.912113
Cl79	Cl	-1.072172	0.092017	0.000170
Cl80	Cl	-0.572172	0.592017	0.500170
H81	H	-1.072725	0.326708	0.000070
H82	H	-0.572725	0.826708	0.500070
Cl83	Cl	-0.168143	-0.030418	0.000234
Cl84	Cl	0.331857	0.469582	0.500234
H85	H	-1.006007	-0.181179	0.363267
H86	H	-0.506007	0.318821	0.863267
H87	H	-0.581765	-0.428883	0.000139
H88	H	-0.081765	0.071117	0.500139
H89	H	-0.849117	0.142714	0.000133
H90	H	-0.349117	0.642714	0.500133
Cl91	Cl	-0.894688	-0.388811	0.668769
Cl92	Cl	-0.394688	0.111189	1.168769
Cl93	Cl	-0.196720	-0.532424	0.000173
Cl94	Cl	0.303280	-0.032424	0.500173
H95	H	-1.027990	-0.140211	0.588218
H96	H	-0.527990	0.359789	1.088218
H97	H	-0.483162	-0.410497	0.000170
H98	H	0.016838	0.089503	0.500170
Cl99	Cl	-0.355652	-0.054859	0.000199
Cl100	Cl	0.144348	0.445141	0.500199
Cl101	Cl	-0.384234	-0.556869	0.000143
Cl102	Cl	0.115766	-0.056869	0.500143
H103	H	-0.558789	-0.025385	0.000181
H104	H	-0.058789	0.474615	0.500181
H105	H	-0.709513	-0.045026	0.000144
H106	H	-0.209513	0.454974	0.500144
H107	H	-0.438653	-0.120107	0.000211
H108	H	0.061347	0.379893	0.500211
