data_functionalizedCrystal
_audit_creation_method	'MofGen! by Chris Wilmer'
_symmetry_space_group_name_H-M	'P1'
_symmetry_Int_Tables_number	1
_symmetry_cell_setting	triclinic
loop_
_symmetry_equiv_pos_as_xyz
  x,y,z
_cell_length_a	10.654554
_cell_length_b	22.610064
_cell_length_c	10.654550
_cell_angle_alpha	90.005285
_cell_angle_beta	95.514176
_cell_angle_gamma	90.008435
loop_
_atom_site_label
_atom_site_type_symbol
_atom_site_fract_x
_atom_site_fract_y
_atom_site_fract_z
O1	O	1.667846	0.049185	-0.176409
O2	O	1.302369	0.049186	-0.193209
O3	O	1.493511	0.049183	-0.002070
O4	O	1.476705	0.049188	-0.367548
O5	O	1.493477	-0.049186	-0.002097
O6	O	1.302335	-0.049184	-0.193237
O7	O	1.667813	-0.049184	-0.176436
Zn8	Zn	1.485068	-0.064802	-0.184841
Zn9	Zn	1.485113	0.064804	-0.184804
O10	O	1.476671	-0.049182	-0.367576
C11	C	1.255554	0.000001	-0.191988
C12	C	1.116111	0.000001	-0.188294
C13	C	0.905602	0.000004	-0.297367
C14	C	1.036624	0.000004	-0.300839
C15	C	1.064571	0.000004	-0.072269
C16	C	0.933552	0.000009	-0.068799
C17	C	0.889469	0.000001	-0.429330
C18	C	1.020490	0.000001	-0.432802
N19	N	1.485047	-0.153255	-0.184865
C20	C	1.569755	-0.561897	-0.100181
C21	C	1.569761	-0.623817	-0.100172
O22	O	1.641729	-0.655837	-0.028188
N23	N	1.485112	-0.654792	-0.184778
C24	C	1.400442	-0.623843	-0.269391
O25	O	1.328441	-0.655875	-0.341353
C26	C	1.400431	-0.561925	-0.269392
C27	C	1.485094	-0.530953	-0.184789
C28	C	1.654410	-0.530925	-0.015584
C29	C	1.654405	-0.469010	-0.015595
C30	C	1.569744	-0.438066	-0.100203
C31	C	1.485089	-0.469037	-0.184800
C32	C	1.315756	-0.530977	-0.353998
C33	C	1.315751	-0.469054	-0.353992
C34	C	1.400415	-0.438083	-0.269389
C35	C	1.400423	-0.376178	-0.269419
N36	N	1.485072	-0.345203	-0.184813
C37	C	1.569733	-0.376147	-0.100205
C38	C	1.400471	-0.753877	-0.269378
C39	C	1.400487	-0.815795	-0.269383
C40	C	1.569805	-0.815764	-0.100163
C41	C	1.569794	-0.753845	-0.100165
C42	C	1.485120	-0.722902	-0.184772
C43	C	1.569717	-0.246120	-0.100235
C44	C	1.569708	-0.184199	-0.100257
C45	C	1.400386	-0.184235	-0.269472
C46	C	1.400399	-0.246150	-0.269456
C47	C	1.485069	-0.277091	-0.184826
O48	O	1.328489	-0.344119	-0.341363
O49	O	1.641711	-0.344107	-0.028243
C50	C	1.714627	0.000002	-0.177657
C51	C	1.854070	0.000005	-0.181351
C52	C	1.492260	-0.000001	0.044714
C53	C	1.488568	0.000001	0.184158
N54	N	1.485144	0.153256	-0.184770
C55	C	1.477922	0.000004	-0.414360
C56	C	1.481613	0.000005	-0.553803
C57	C	1.601109	-0.000001	0.263642
C58	C	1.597633	0.000003	0.394663
C59	C	1.369064	0.000009	0.366703
C60	C	1.372541	0.000009	0.235684
C61	C	1.733072	-0.000006	0.279785
C62	C	1.729595	-0.000002	0.410806
H63	H	0.843803	-0.042470	-0.469211
H64	H	1.331523	-0.728686	-0.338286
F65	F	1.310393	-0.848751	-0.359445
H66	H	1.274599	0.000016	0.408672
H67	H	1.331471	-0.271368	-0.338359
F68	F	1.058853	-0.053806	-0.500266
H69	H	0.891601	0.000017	0.025672
H70	H	1.638655	-0.158983	-0.031363
H71	H	1.769491	0.042471	0.456460
H72	H	1.129300	0.000008	0.019366
F73	F	1.800554	0.053797	0.241420
H74	H	1.775079	-0.042480	0.244146
H75	H	0.847737	0.041167	-0.479047
H76	H	1.638661	-0.271305	-0.031321
F77	F	1.310290	-0.151292	-0.359518
H78	H	1.723341	-0.443796	0.053300
H79	H	1.056138	0.042476	-0.474816
H80	H	1.280899	0.000019	0.170972
F81	F	1.744523	-0.563850	0.074477
H82	H	1.638733	-0.728632	-0.031273
H83	H	1.779303	-0.041169	0.452554
H84	H	1.638739	-0.840970	-0.031268
F85	F	1.225644	-0.563928	-0.444042
H86	H	1.246796	-0.443863	-0.422888
