data_functionalizedCrystal
_audit_creation_method	'MofGen! by Chris Wilmer'
_symmetry_space_group_name_H-M	'P1'
_symmetry_Int_Tables_number	1
_symmetry_cell_setting	triclinic
loop_
_symmetry_equiv_pos_as_xyz
  x,y,z
_cell_length_a	13.262390
_cell_length_b	19.188924
_cell_length_c	11.804365
_cell_angle_alpha	101.787608
_cell_angle_beta	62.657606
_cell_angle_gamma	83.812011
loop_
_atom_site_label
_atom_site_type_symbol
_atom_site_fract_x
_atom_site_fract_y
_atom_site_fract_z
O1	O	1.519224	0.010267	-0.591080
O2	O	1.190735	0.035571	-0.484692
O3	O	1.364460	-0.079127	-0.540942
O4	O	1.345499	0.124965	-0.534829
O5	O	1.318725	-0.048960	-0.328078
O6	O	1.145001	0.065738	-0.271827
O7	O	1.473489	0.040434	-0.378215
Cu8	Cu	1.305069	0.055841	-0.305585
Cu9	Cu	1.359156	0.020165	-0.557322
O10	O	1.299765	0.155132	-0.321965
C11	C	1.125842	0.052011	-0.364648
C12	C	1.000619	0.056043	-0.324091
C13	C	0.747368	0.001620	-0.673918
C14	C	0.865023	-0.002172	-0.712025
C15	C	0.898928	0.012382	-0.615045
C16	C	0.815166	0.030728	-0.479951
C17	C	0.697501	0.034515	-0.441840
C18	C	0.849061	0.045276	-0.382967
C19	C	0.765299	0.063622	-0.247873
C20	C	0.647646	0.067409	-0.209769
C21	C	0.613741	0.052855	-0.306749
C22	C	0.966726	0.041489	-0.421078
C23	C	0.916859	0.074383	-0.189000
C24	C	0.799204	0.078175	-0.150893
C25	C	1.340979	-0.090029	-0.434310
C26	C	1.339139	-0.167457	-0.433711
C27	C	1.363210	-0.220264	-0.549465
C28	C	1.361467	-0.293016	-0.548910
C29	C	1.335675	-0.312960	-0.432601
C30	C	1.311594	-0.260141	-0.316829
C31	C	1.313326	-0.187389	-0.317384
N32	N	1.378594	-0.422924	-0.366152
N33	N	1.376952	-0.492036	-0.365634
C34	C	1.330452	-0.532155	-0.430921
N35	N	1.285673	-0.500555	-0.496770
N36	N	1.287321	-0.431437	-0.497294
C37	C	1.333793	-0.391845	-0.431986
C38	C	1.352634	-0.663850	-0.546081
C39	C	1.350883	-0.736601	-0.545518
C40	C	1.301020	-0.703725	-0.313437
C41	C	1.302760	-0.630974	-0.314000
C42	C	1.328573	-0.611042	-0.430326
C43	C	1.538383	0.023994	-0.498261
C44	C	1.663608	0.019961	-0.538827
C45	C	1.323246	0.166033	-0.428600
C46	C	1.325088	0.243460	-0.429207
N47	N	1.267035	0.080932	-0.128529
N48	N	1.397198	-0.004933	-0.734380
C49	C	1.488531	-0.065201	0.173701
C50	C	1.517302	-0.084186	0.039724
C51	C	1.454737	-0.042908	-0.002346
C52	C	1.363397	0.017358	0.089575
C53	C	1.334629	0.036348	0.223563
C54	C	1.300836	0.058641	0.047516
C55	C	1.209496	0.118907	0.139437
C56	C	1.180733	0.137894	0.273412
C57	C	1.243297	0.096616	0.315482
C58	C	1.329604	0.039651	-0.086473
C59	C	1.175703	0.141200	-0.036611
C60	C	1.146932	0.160185	0.097367
H61	H	0.933215	-0.017113	-0.822019
H62	H	1.283168	-0.587977	-0.219742
H63	H	1.219869	0.112071	0.424578
H64	H	1.403973	-0.009417	-0.161304
H65	H	1.539468	-0.098801	0.207963
H66	H	1.478167	-0.058368	-0.111438
H67	H	1.381063	-0.336020	-0.643172
H68	H	1.280010	-0.719961	-0.218733
O69	O	1.058142	0.218730	0.186500
C70	C	0.908565	0.317474	0.221816
C71	C	1.009075	0.251182	0.120739
H72	H	0.868881	0.343740	0.168682
H73	H	0.838831	0.298656	0.302746
H74	H	0.943636	0.359136	0.268843
H75	H	0.974112	0.209493	0.073612
H76	H	1.078791	0.270055	0.039890
H77	H	1.370480	-0.779598	-0.639782
H78	H	1.034914	0.026553	-0.531073
H79	H	1.124759	0.174814	-0.070862
H80	H	0.579451	0.082334	-0.099767
O81	O	1.286333	-0.279449	-0.203747
C82	C	1.145502	-0.261446	0.026442
C83	C	1.173958	-0.239529	-0.101547
H84	H	1.054657	-0.229170	0.109113
H85	H	1.148312	-0.322504	0.007058
H86	H	1.212521	-0.248854	0.057930
H87	H	1.106967	-0.252073	-0.133103
H88	H	1.171187	-0.178475	-0.082091
H89	H	0.944462	0.086233	-0.110031
H90	H	0.719751	-0.010234	-0.752865
O91	O	1.013258	0.008700	-0.652285
C92	C	1.209471	-0.014829	-0.834314
C93	C	1.080025	-0.010672	-0.792317
H94	H	1.263493	-0.030506	-0.947532
H95	H	1.219876	0.040718	-0.789922
H96	H	1.240887	-0.057830	-0.796566
H97	H	1.048524	0.032296	-0.830053
H98	H	1.069694	-0.066249	-0.836692
O99	O	0.717692	0.095949	-0.019727
C100	C	0.514321	0.116404	0.141823
C101	C	0.606516	0.096250	-0.006766
H102	H	0.424411	0.116669	0.152351
H103	H	0.535635	0.074477	0.188187
H104	H	0.514662	0.173042	0.194945
H105	H	0.606225	0.039630	-0.060000
H106	H	0.585168	0.138224	-0.053029
H107	H	1.384226	-0.204041	-0.644187
H108	H	1.106367	0.186971	0.348253
H109	H	0.517938	0.055944	-0.275728
H110	H	1.293718	-0.144391	-0.223118
O111	O	1.606018	-0.142767	-0.049376
C112	C	1.755674	-0.241459	-0.084700
C113	C	1.655208	-0.175140	0.016353
H114	H	1.795490	-0.267642	-0.031602
H115	H	1.720668	-0.283195	-0.131680
H116	H	1.825299	-0.222601	-0.165663
H117	H	1.585547	-0.193930	0.097392
H118	H	1.690302	-0.133418	0.063229
O119	O	1.377666	-0.644597	-0.659167
C120	C	1.427001	-0.684890	-0.889316
C121	C	1.398645	-0.706786	-0.761331
H122	H	1.443994	-0.735159	-0.971957
H123	H	1.350133	-0.641877	-0.869896
H124	H	1.507957	-0.661424	-0.920868
H125	H	1.317723	-0.730284	-0.729711
H126	H	1.475578	-0.749769	-0.780823
