data_functionalizedCrystal
_audit_creation_method	'MofGen! by Chris Wilmer'
_symmetry_space_group_name_H-M	'P1'
_symmetry_Int_Tables_number	1
_symmetry_cell_setting	triclinic
loop_
_symmetry_equiv_pos_as_xyz
  x,y,z
_cell_length_a	14.044220
_cell_length_b	14.044220
_cell_length_c	12.503572
_cell_angle_alpha	86.156832
_cell_angle_beta	86.164750
_cell_angle_gamma	86.811122
loop_
_atom_site_label
_atom_site_type_symbol
_atom_site_fract_x
_atom_site_fract_y
_atom_site_fract_z
O1	O	1.282200	-0.225116	-0.089210
O2	O	1.532200	0.024884	0.160790
O3	O	1.782200	0.274884	0.410790
O4	O	2.032200	0.524884	0.660790
O5	O	1.005530	-0.216809	-0.089237
O6	O	1.255530	0.033191	0.160763
O7	O	1.505530	0.283191	0.410763
O8	O	1.755530	0.533191	0.660763
O9	O	1.139712	-0.082627	-0.089213
O10	O	1.389712	0.167373	0.160787
O11	O	1.639712	0.417373	0.410787
O12	O	1.889712	0.667373	0.660787
O13	O	1.148019	-0.359298	-0.089234
O14	O	1.398019	-0.109298	0.160766
O15	O	1.648019	0.140702	0.410766
O16	O	1.898019	0.390702	0.660766
O17	O	1.129622	-0.092737	0.089427
O18	O	1.379622	0.157263	0.339427
O19	O	1.629622	0.407263	0.589427
O20	O	1.879622	0.657263	0.839427
O21	O	0.995440	-0.226918	0.089403
O22	O	1.245440	0.023082	0.339403
O23	O	1.495440	0.273082	0.589403
O24	O	1.745440	0.523082	0.839403
O25	O	1.272110	-0.235226	0.089430
O26	O	1.522110	0.014774	0.339430
O27	O	1.772110	0.264774	0.589430
O28	O	2.022110	0.514774	0.839430
Cu29	Cu	1.132854	-0.231995	0.105728
Cu30	Cu	1.382854	0.018005	0.355728
Cu31	Cu	1.632854	0.268005	0.605728
Cu32	Cu	1.882854	0.518005	0.855728
Cu33	Cu	1.144786	-0.220040	-0.105535
Cu34	Cu	1.394786	0.029960	0.144465
Cu35	Cu	1.644786	0.279960	0.394465
Cu36	Cu	1.894786	0.529960	0.644465
O37	O	1.137929	-0.369407	0.089406
O38	O	1.387929	-0.119407	0.339406
O39	O	1.637929	0.130593	0.589406
O40	O	1.887929	0.380593	0.839406
C41	C	0.964864	-0.218228	0.000080
C42	C	1.214864	0.031772	0.250080
C43	C	1.464864	0.281772	0.500080
C44	C	1.714864	0.531772	0.750080
C45	C	0.858721	-0.207383	0.000070
C46	C	1.108721	0.042617	0.250070
C47	C	1.358721	0.292617	0.500070
C48	C	1.608721	0.542617	0.750070
C49	C	0.664382	-0.187558	0.000092
C50	C	0.914382	0.062442	0.250092
C51	C	1.164382	0.312442	0.500092
C52	C	1.414382	0.562442	0.750092
C53	C	0.613253	-0.264472	0.000091
C54	C	0.863253	-0.014472	0.250091
C55	C	1.113253	0.235528	0.500091
C56	C	1.363253	0.485528	0.750091
C57	C	0.505116	-0.253441	0.000104
C58	C	0.755116	-0.003441	0.250104
C59	C	1.005116	0.246559	0.500104
C60	C	1.255116	0.496559	0.750104
C61	C	0.772529	-0.198587	0.000080
C62	C	1.022529	0.051413	0.250080
C63	C	1.272529	0.301413	0.500080
C64	C	1.522529	0.551413	0.750080
C65	C	1.131031	-0.052060	0.000107
C66	C	1.381031	0.197940	0.250107
C67	C	1.631031	0.447940	0.500107
C68	C	1.881031	0.697940	0.750107
C69	C	1.120187	0.054082	0.000107
C70	C	1.370187	0.304082	0.250107
C71	C	1.620187	0.554082	0.500107
C72	C	1.870187	0.804082	0.750107
C73	C	1.312777	-0.233807	0.000111
C74	C	1.562777	0.016193	0.250111
C75	C	1.812777	0.266193	0.500111
C76	C	2.062777	0.516193	0.750111
C77	C	1.418920	-0.244651	0.000114
C78	C	1.668920	0.005349	0.250114
C79	C	1.918920	0.255349	0.500114
C80	C	2.168920	0.505349	0.750114
C81	C	1.146609	-0.399974	0.000084
C82	C	1.396609	-0.149974	0.250084
C83	C	1.646609	0.100026	0.500084
C84	C	1.896609	0.350026	0.750084
C85	C	1.157454	-0.506117	0.000077
C86	C	1.407454	-0.256117	0.250077
C87	C	1.657454	-0.006117	0.500077
C88	C	1.907454	0.243883	0.750077
N89	N	1.124469	-0.240404	0.254319
N90	N	1.374469	0.009596	0.504319
N91	N	1.624469	0.259596	0.754319
N92	N	1.874469	0.509596	1.004319
C93	C	1.100361	0.248421	0.000090
C94	C	1.350361	0.498421	0.250090
C95	C	1.600361	0.748421	0.500090
C96	C	1.850361	0.998421	0.750090
C97	C	1.177275	0.299551	0.000094
C98	C	1.427275	0.549551	0.250094
C99	C	1.677275	0.799551	0.500094
C100	C	1.927275	1.049551	0.750094
C101	C	1.166244	0.407687	0.000084
C102	C	1.416244	0.657687	0.250084
C103	C	1.666244	0.907687	0.500084
C104	C	1.916244	1.157687	0.750084
C105	C	1.111391	0.140274	0.000099
C106	C	1.361391	0.390274	0.250099
C107	C	1.611391	0.640274	0.500099
C108	C	1.861391	0.890274	0.750099
N109	N	1.153179	-0.211624	-0.254126
N110	N	1.403179	0.038376	-0.004126
N111	N	1.653179	0.288376	0.245874
N112	N	1.903179	0.538376	0.495874
C113	C	1.112134	-0.252782	0.473432
C114	C	1.362134	-0.002782	0.723432
C115	C	1.612134	0.247218	0.973432
C116	C	1.862134	0.497218	1.223432
C117	C	1.165511	-0.199249	0.526768
C118	C	1.415511	0.050751	0.776768
C119	C	1.665511	0.300751	1.026768
C120	C	1.915511	0.550751	1.276768
C121	C	1.158648	-0.206136	0.648690
C122	C	1.408648	0.043864	0.898690
C123	C	1.658648	0.293864	1.148690
C124	C	1.908648	0.543864	1.398690
C125	C	1.118996	-0.245896	0.351499
C126	C	1.368996	0.004104	0.601499
C127	C	1.618996	0.254104	0.851499
C128	C	1.868996	0.504104	1.101499
H129	H	0.626945	-0.113431	0.000104
H130	H	0.876945	0.136569	0.250104
H131	H	1.126945	0.386569	0.500104
H132	H	1.376945	0.636569	0.750104
H133	H	1.251413	0.262115	0.000029
H134	H	1.501413	0.512115	0.250029
H135	H	1.751413	0.762115	0.500029
H136	H	2.001413	1.012115	0.750029
O137	O	1.002166	0.298003	0.000083
O138	O	1.252166	0.548003	0.250083
O139	O	1.502166	0.798003	0.500083
O140	O	1.752166	1.048003	0.750083
H141	H	0.958734	0.272876	0.072892
H142	H	1.208734	0.522876	0.322892
H143	H	1.458734	0.772876	0.572892
H144	H	1.708734	1.022876	0.822892
O145	O	1.232875	-0.131686	0.465977
O146	O	1.482875	0.118314	0.715977
O147	O	1.732875	0.368314	0.965977
O148	O	1.982875	0.618314	1.215977
H149	H	1.227771	-0.136812	0.378367
H150	H	1.477771	0.113188	0.628367
H151	H	1.727771	0.363188	0.878367
H152	H	1.977771	0.613188	1.128367
H153	H	1.061285	-0.303783	0.519330
H154	H	1.311285	-0.053783	0.769330
H155	H	1.561285	0.196217	1.019330
H156	H	1.811285	0.446217	1.269330
O157	O	0.662834	-0.362674	0.000063
O158	O	0.912834	-0.112674	0.250063
O159	O	1.162834	0.137326	0.500063
O160	O	1.412834	0.387326	0.750063
H161	H	0.741221	-0.356042	0.000043
H162	H	0.991221	-0.106042	0.250043
H163	H	1.241221	0.143958	0.500043
H164	H	1.491221	0.393958	0.750043
