data_functionalizedCrystal
_audit_creation_method	'MofGen! by Chris Wilmer'
_symmetry_space_group_name_H-M	'P1'
_symmetry_Int_Tables_number	1
_symmetry_cell_setting	triclinic
loop_
_symmetry_equiv_pos_as_xyz
  x,y,z
_cell_length_a	16.959454
_cell_length_b	18.215407
_cell_length_c	18.215399
_cell_angle_alpha	90.019833
_cell_angle_beta	89.976304
_cell_angle_gamma	89.979477
loop_
_atom_site_label
_atom_site_type_symbol
_atom_site_fract_x
_atom_site_fract_y
_atom_site_fract_z
Zn1	Zn	-0.314680	-1.125097	-0.416138
Zn2	Zn	-0.446866	-1.125015	-0.293080
Zn3	Zn	-0.314706	-1.002029	-0.293085
Zn4	Zn	-0.446822	-1.002005	-0.416105
O5	O	-0.380768	-1.063537	-0.354602
O6	O	-0.332222	-1.228070	-0.399825
O7	O	-0.429364	-1.108677	-0.190097
O8	O	-0.204092	-1.018398	-0.309424
O9	O	-0.429339	-1.228010	-0.309416
O10	O	-0.204073	-1.108815	-0.399830
O11	O	-0.332267	-1.018319	-0.190100
O12	O	-0.332224	-0.899042	-0.309392
O13	O	-0.429264	-1.018358	-0.519094
O14	O	-0.429289	-0.899024	-0.399775
O15	O	-0.332180	-1.108792	-0.519118
O16	O	-0.557471	-1.108654	-0.309385
O17	O	-0.557438	-1.018279	-0.399770
C18	C	-0.380755	-0.872330	-0.354581
C19	C	-0.380768	-0.790531	-0.354589
C20	C	-0.586135	-1.063475	-0.354590
C21	C	-0.673991	-1.063516	-0.354609
C22	C	-0.380714	-1.063581	-0.546555
C23	C	-0.380691	-1.063601	-0.628354
C24	C	-1.045480	-1.016547	-0.401661
C25	C	-1.045454	-1.110731	-0.307618
C26	C	-0.962908	-1.110706	-0.307611
C27	C	-0.921644	-1.063599	-0.354629
C28	C	-0.962926	-1.016518	-0.401654
C29	C	-0.921619	-1.157781	-0.260582
C30	C	-0.839068	-1.157756	-0.260573
C31	C	-0.797803	-1.110653	-0.307595
C32	C	-0.839091	-1.063570	-0.354622
C33	C	-0.797827	-1.016464	-0.401640
C34	C	-0.839113	-0.969384	-0.448672
C35	C	-0.921661	-0.969414	-0.448676
C36	C	-0.715255	-1.110623	-0.307591
C37	C	-0.715273	-1.016435	-0.401634
C38	C	-0.174600	-1.063619	-0.354631
C39	C	-0.086744	-1.063653	-0.354643
C40	C	-0.380783	-1.255489	-0.354624
C41	C	-0.380789	-1.337288	-0.354633
C42	C	-0.431389	-0.602348	-0.401593
C43	C	-0.431392	-0.525489	-0.401602
C44	C	-0.330162	-0.525478	-0.307628
C45	C	-0.330156	-0.602335	-0.307623
C46	C	-0.380774	-0.640768	-0.354604
C47	C	-0.380782	-0.487052	-0.354618
C48	C	-0.380785	-0.403718	-0.354628
C49	C	-0.380771	-0.724107	-0.354596
C50	C	-0.330092	-1.110707	-0.816562
C51	C	-0.330069	-1.110716	-0.893420
C52	C	-0.431167	-1.016546	-0.893384
C53	C	-0.431186	-1.016534	-0.816527
C54	C	-0.380649	-1.063619	-0.778118
C55	C	-0.380608	-1.063639	-0.931834
C56	C	-0.380583	-1.063649	-1.015168
C57	C	-0.380672	-1.063609	-0.694779
C58	C	-0.380766	-1.063534	-0.163396
C59	C	-0.380566	-1.063658	-0.081597
H60	H	-0.681682	-0.978077	-0.439924
C61	C	-0.274495	-1.162488	-0.774313
H62	H	-0.244375	-1.190526	-0.808220
H63	H	-0.304733	-1.194540	-0.744330
H64	H	-0.240059	-1.134335	-0.744335
H65	H	-0.472604	-0.633638	-0.439850
H66	H	-0.288899	-1.149058	-0.924718
H67	H	-0.288952	-0.494176	-0.269376
C68	C	-0.486760	-0.964764	-0.935637
H69	H	-0.479515	-0.971520	-0.986917
H70	H	-0.475196	-0.915319	-0.923036
H71	H	-0.539874	-0.975521	-0.923032
C72	C	-0.486807	-0.964740	-0.774236
H73	H	-0.516911	-0.936708	-0.808117
H74	H	-0.456579	-0.932681	-0.744251
H75	H	-0.521255	-0.992884	-0.744256
C76	C	-0.274477	-0.644604	-0.255936
H77	H	-0.281718	-0.695881	-0.262669
H78	H	-0.285975	-0.631988	-0.206470
H79	H	-0.221381	-0.632026	-0.266796
C80	C	-0.793718	-0.917571	-0.500389
H81	H	-0.738643	-0.924301	-0.493647
H82	H	-0.807290	-0.868134	-0.489580
H83	H	-0.807204	-0.928324	-0.549851
C84	C	-1.090841	-1.162548	-0.255907
H85	H	-1.145917	-1.155826	-0.262650
H86	H	-1.077349	-1.151810	-0.206447
H87	H	-1.077268	-1.211985	-0.266734
C88	C	-0.967076	-0.917626	-0.500397
H89	H	-1.022149	-0.924383	-0.493658
H90	H	-0.953519	-0.928356	-0.549855
H91	H	-0.953589	-0.868179	-0.489570
C92	C	-0.487066	-0.483230	-0.453291
H93	H	-0.517212	-0.517129	-0.481266
H94	H	-0.456874	-0.453272	-0.485406
H95	H	-0.521474	-0.453225	-0.425086
H96	H	-1.079098	-0.978218	-0.439955
H97	H	-0.955222	-1.196127	-0.222297
H98	H	-0.805459	-1.196091	-0.222279
C99	C	-0.669844	-1.162403	-0.255864
H100	H	-0.706242	-1.190463	-0.227864
H101	H	-0.637678	-1.134259	-0.223773
H102	H	-0.637605	-1.194447	-0.284047
