data_functionalizedCrystal
_audit_creation_method	'MofGen! by Chris Wilmer'
_symmetry_space_group_name_H-M	'P1'
_symmetry_Int_Tables_number	1
_symmetry_cell_setting	triclinic
loop_
_symmetry_equiv_pos_as_xyz
  x,y,z
_cell_length_a	18.101397
_cell_length_b	10.686220
_cell_length_c	10.686551
_cell_angle_alpha	89.691918
_cell_angle_beta	85.595131
_cell_angle_gamma	85.628576
loop_
_atom_site_label
_atom_site_type_symbol
_atom_site_fract_x
_atom_site_fract_y
_atom_site_fract_z
Zn1	Zn	0.180542	1.972422	0.562390
Zn2	Zn	0.314578	1.956293	0.352635
Zn3	Zn	0.199485	1.746555	0.368708
Zn4	Zn	0.313077	1.762722	0.578413
O5	O	0.251921	1.859498	0.465537
O6	O	0.191022	2.145819	0.521134
O7	O	0.307867	1.914955	0.179222
O8	O	0.093339	1.776501	0.394422
O9	O	0.289498	2.133969	0.367028
O10	O	0.079421	1.942445	0.536719
O11	O	0.223309	1.760861	0.191031
O12	O	0.221854	1.573163	0.409958
O13	O	0.286940	1.804055	0.751833
O14	O	0.305309	1.585041	0.564027
O15	O	0.189567	1.958121	0.740061
O16	O	0.418012	1.930631	0.382564
O17	O	0.416909	1.788416	0.548442
C18	C	0.265475	1.533588	0.490476
C19	C	0.271289	1.394164	0.501175
C20	C	0.058758	1.859469	0.465576
C21	C	-0.023556	1.859456	0.465593
C22	C	-0.322653	1.859625	0.465564
C23	C	-0.282569	1.755508	0.375686
C24	C	-0.196947	1.755100	0.376007
C25	C	-0.174268	1.859541	0.465578
C26	C	-0.210320	1.833839	0.600504
C27	C	-0.295910	1.833143	0.599987
C28	C	-0.294932	1.989755	0.421658
C29	C	-0.209108	1.988782	0.418800
C30	C	-0.090407	1.859496	0.465593
C31	C	-0.406515	1.859667	0.465558
C32	C	0.444329	1.859564	0.465522
C33	C	0.526635	1.859710	0.465549
C34	C	0.235973	1.884691	0.792737
C35	C	0.229177	1.895427	0.932170
C36	C	0.238314	2.186681	0.440501
C37	C	0.232516	2.326107	0.429832
C38	C	0.267750	1.834475	0.139604
C39	C	0.274327	1.823983	0.000153
H40	H	0.308941	1.345760	0.570438
H41	H	-0.196419	1.907748	0.669726
O42	O	-0.163991	1.774839	0.243903
H43	H	-0.209206	1.784757	0.179210
H44	H	0.185323	1.964816	0.980642
O45	O	-0.304707	1.774893	0.243185
H46	H	-0.344521	1.858937	0.239969
O47	O	0.182643	1.390200	0.338083
H48	H	0.185741	1.493325	0.343804
H49	H	-0.301118	1.659425	0.405235
H50	H	-0.173477	1.658454	0.405868
H51	H	-0.313267	1.738320	0.636015
H52	H	-0.323085	1.906231	0.669779
H53	H	-0.186319	1.740096	0.636959
O54	O	0.332414	1.732056	0.935980
H55	H	0.370638	1.783642	0.871965
O56	O	-0.319218	2.023391	0.292873
H57	H	-0.295673	1.950255	0.224626
O58	O	-0.177390	2.014725	0.287212
H59	H	-0.137633	1.935226	0.254691
H60	H	-0.194059	2.069664	0.478681
O61	O	-0.330309	2.092356	0.508188
H62	H	-0.367458	2.050950	0.582107
