data_functionalizedCrystal
_audit_creation_method	'MofGen! by Chris Wilmer'
_symmetry_space_group_name_H-M	'P1'
_symmetry_Int_Tables_number	1
_symmetry_cell_setting	triclinic
loop_
_symmetry_equiv_pos_as_xyz
  x,y,z
_cell_length_a	19.188925
_cell_length_b	19.188924
_cell_length_c	14.750779
_cell_angle_alpha	77.399495
_cell_angle_beta	102.597157
_cell_angle_gamma	83.142256
loop_
_atom_site_label
_atom_site_type_symbol
_atom_site_fract_x
_atom_site_fract_y
_atom_site_fract_z
O1	O	0.910937	0.102350	-0.079852
O2	O	0.707626	0.114087	-0.079850
O3	O	0.815153	0.006560	-0.079839
O4	O	0.803410	0.209877	-0.079862
O5	O	0.845550	-0.023833	0.079814
O6	O	0.738022	0.083694	0.079804
O7	O	0.941334	0.071956	0.079802
Zn8	Zn	0.844504	0.073000	0.105151
Zn9	Zn	0.804455	0.113044	-0.105199
O10	O	0.833806	0.179483	0.079791
C11	C	0.696813	0.098511	-0.000023
C12	C	0.619308	0.097372	-0.000021
C13	C	0.057535	0.152838	-0.000030
C14	C	0.130357	0.153915	-0.000035
C15	C	0.175295	0.090821	-0.000026
C16	C	0.147401	0.026649	-0.000037
C17	C	0.074578	0.025576	-0.000041
N18	N	0.306322	0.034798	0.054326
N19	N	0.375500	0.035822	0.054332
C20	C	0.394706	0.094053	-0.000015
N21	N	0.342122	0.151230	-0.054357
N22	N	0.272937	0.150207	-0.054359
C23	C	0.254260	0.091978	-0.000022
C24	C	0.501553	0.159390	-0.000017
C25	C	0.574376	0.160466	-0.000028
C26	C	0.591420	0.033197	-0.000021
C27	C	0.518597	0.032125	-0.000019
C28	C	0.473668	0.095222	-0.000013
C29	C	0.829972	-0.034648	-0.000012
C30	C	0.828834	-0.112153	-0.000009
C31	C	0.811733	-0.131984	-0.087036
C32	C	0.810652	-0.204806	-0.087044
C33	C	0.826687	-0.257796	-0.000019
C34	C	0.843786	-0.237957	0.087020
C35	C	0.844859	-0.165136	0.087025
N36	N	0.877066	-0.389790	0.064751
N37	N	0.876046	-0.458966	0.064741
C38	C	0.823451	-0.477203	-0.000028
N39	N	0.771919	-0.423648	-0.064801
N40	N	0.772942	-0.354466	-0.064793
C41	C	0.825524	-0.336760	-0.000014
C42	C	0.805175	-0.575994	-0.087069
C43	C	0.804090	-0.648817	-0.087073
C44	C	0.837231	-0.681968	0.086993
C45	C	0.838309	-0.609146	0.086994
C46	C	0.822284	-0.556163	-0.000039
C47	C	0.952146	0.087533	-0.000027
C48	C	1.029650	0.088673	-0.000035
C49	C	0.818987	0.220692	-0.000038
C50	C	0.820124	0.298198	-0.000047
N51	N	0.871842	0.045670	0.248709
N52	N	0.777123	0.140368	-0.248757
C53	C	0.700774	0.216665	0.600511
C54	C	0.719935	0.197519	0.701012
C55	C	0.815170	0.102339	0.700984
C56	C	0.796014	0.121475	0.600481
C57	C	0.738816	0.178639	0.550253
C58	C	0.834057	0.083449	0.550222
C59	C	0.814905	0.102586	0.449728
C60	C	0.757710	0.159749	0.399493
C61	C	0.719664	0.197776	0.449758
C62	C	0.891258	0.026288	0.600453
C63	C	0.929301	-0.011738	0.550194
C64	C	0.910146	0.007395	0.449698
C65	C	0.852951	0.064559	0.399462
C66	C	0.948192	-0.030632	0.399432
C67	C	0.929040	-0.011495	0.298938
C68	C	0.833799	0.083696	0.298968
H69	H	0.597077	0.212720	-0.000032
O70	O	0.984770	-0.067345	0.599037
C71	C	0.958592	-0.121384	0.657200
H72	H	0.897768	-0.116656	0.626931
H73	H	0.969379	-0.114023	0.733362
C74	C	1.072295	-0.202550	0.695917
C75	C	0.997590	-0.196747	0.658736
H76	H	1.096352	-0.249038	0.696869
H77	H	1.089933	-0.166142	0.656735
H78	H	1.081274	-0.196412	0.759382
H79	H	0.988611	-0.202876	0.595269
H80	H	0.979951	-0.233158	0.697908
H81	H	0.464970	0.210768	-0.000014
H82	H	0.796722	-0.220955	-0.157914
H83	H	0.153068	0.206165	-0.000022
H84	H	0.051875	-0.026676	-0.000046
O85	O	0.191003	-0.034711	0.000100
C86	C	0.194145	-0.089425	0.082795
H87	H	0.144095	-0.077360	0.110358
H88	H	0.244971	-0.091026	0.140699
C89	C	0.258002	-0.178142	0.023823
C90	C	0.196526	-0.163327	0.057671
H91	H	0.259474	-0.223729	0.008328
H92	H	0.255887	-0.141280	-0.031889
H93	H	0.300350	-0.179472	0.072082
H94	H	0.154179	-0.161989	0.009409
H95	H	0.198633	-0.200191	0.113375
O96	O	0.635170	-0.028037	0.000026
C97	C	0.705421	-0.013326	0.000000
H98	H	0.713799	0.035750	0.030227
H99	H	0.711906	-0.001451	-0.076594
C100	C	0.751791	-0.139869	0.025484
C101	C	0.762083	-0.079596	0.062616
H102	H	0.786743	-0.180748	0.064104
H103	H	0.704461	-0.149780	0.025497
H104	H	0.757194	-0.129963	-0.038344
H105	H	0.756670	-0.089499	0.126438
H106	H	0.809413	-0.069688	0.062615
O107	O	0.861520	-0.145997	0.171653
C108	C	0.875418	-0.208376	0.248466
H109	H	0.891894	-0.258388	0.222952
H110	H	0.824395	-0.213715	0.275221
C111	C	0.917031	-0.140321	0.362030
C112	C	0.937273	-0.201746	0.330696
H113	H	0.955183	-0.136231	0.412756
H114	H	0.907664	-0.098295	0.310281
H115	H	0.874511	-0.144778	0.384319
H116	H	0.979787	-0.197284	0.308397
H117	H	0.946648	-0.243772	0.382444
O118	O	0.491631	-0.030277	0.000031
C119	C	0.546902	-0.085732	0.000013
H120	H	0.602068	-0.072066	0.030239
H121	H	0.542686	-0.090601	-0.076579
C122	C	0.470696	-0.174974	0.025504
C123	C	0.538452	-0.158193	0.062635
H124	H	0.465482	-0.219672	0.064128
H125	H	0.433457	-0.137613	0.025512
H126	H	0.467191	-0.179026	-0.038322
H127	H	0.541952	-0.154131	0.126455
H128	H	0.575691	-0.195555	0.062639
O129	O	0.664176	0.253392	0.400999
C130	C	0.679972	0.317806	0.425561
H131	H	0.741128	0.312755	0.453174
H132	H	0.652323	0.327303	0.483900
C133	C	0.576852	0.388369	0.302370
C134	C	0.651966	0.382167	0.336278
H135	H	0.559574	0.428071	0.247298
H136	H	0.566208	0.344972	0.285824
H137	H	0.553821	0.396279	0.350994
H138	H	0.674996	0.374248	0.287659
H139	H	0.662613	0.425565	0.352814
O140	O	0.796111	-0.080605	-0.171664
C141	C	0.780802	-0.113733	-0.248479
H142	H	0.762797	-0.167544	-0.222966
H143	H	0.831595	-0.123878	-0.275238
C144	C	0.741902	0.002566	-0.362038
C145	C	0.719782	-0.063522	-0.330705
H146	H	0.704264	0.033539	-0.412761
H147	H	0.752218	0.024886	-0.310287
H148	H	0.784230	-0.005898	-0.384331
H149	H	0.677460	-0.055058	-0.308402
H150	H	0.709457	-0.085839	-0.382454
H151	H	0.654192	0.263210	0.559613
H152	H	0.856839	-0.281106	0.157876
O153	O	1.003665	-0.086234	0.448276
C154	C	0.977495	-0.140276	0.506447
H155	H	0.916671	-0.135556	0.476181
H156	H	0.988281	-0.132911	0.582606
C157	C	1.091205	-0.221430	0.545166
C158	C	1.016501	-0.215637	0.507989
H159	H	1.115267	-0.267916	0.546122
H160	H	1.108838	-0.185020	0.505979
H161	H	1.100183	-0.215288	0.608629
H162	H	1.007523	-0.221769	0.444523
H163	H	0.998867	-0.252050	0.547165
O164	O	0.909973	0.007753	0.698073
C165	C	0.982599	0.015377	0.731624
H166	H	0.998749	0.055300	0.673700
H167	H	1.019422	-0.039555	0.749445
C168	C	0.970537	-0.005054	0.893586
C169	C	0.990371	0.043985	0.822446
H170	H	0.975333	0.012590	0.949612
H171	H	0.921608	-0.010193	0.870984
H172	H	1.001225	-0.050827	0.908426
H173	H	0.959677	0.089754	0.807599
H174	H	1.039295	0.049133	0.845048
O175	O	0.013893	0.214079	0.000131
C176	C	-0.013022	0.201521	0.082798
H177	H	0.024759	0.154733	0.140599
H178	H	-0.069481	0.187170	0.064097
C179	C	-0.063595	0.327857	0.049286
C180	C	-0.017187	0.270395	0.120282
H181	H	-0.066168	0.370342	0.072407
H182	H	-0.045464	0.336318	-0.006410
H183	H	-0.110639	0.315888	0.033709
H184	H	0.029858	0.282361	0.135850
H185	H	-0.035310	0.261938	0.175982
H186	H	0.861744	0.055796	0.741891
H187	H	0.792123	-0.532853	-0.157937
H188	H	0.688952	0.228491	0.741928
O189	O	0.787501	-0.667964	-0.171702
C190	C	0.773575	-0.605580	-0.248513
H191	H	0.801293	-0.561489	-0.222988
H192	H	0.712595	-0.585238	-0.275291
C193	C	0.769254	-0.678626	-0.362073
C194	C	0.803303	-0.624475	-0.330725
H195	H	0.787588	-0.690282	-0.412788
H196	H	0.778633	-0.720656	-0.310325
H197	H	0.718438	-0.661668	-0.384382
H198	H	0.854116	-0.641437	-0.308407
H199	H	0.793933	-0.582449	-0.382472
O200	O	0.854978	-0.590007	0.171620
C201	C	0.868883	-0.652388	0.248431
H202	H	0.885355	-0.702398	0.222912
H203	H	0.817865	-0.657729	0.275196
C204	C	0.910507	-0.584337	0.361995
C205	C	0.930745	-0.645759	0.330654
H206	H	0.948664	-0.580247	0.412716
H207	H	0.901137	-0.542309	0.310246
H208	H	0.867991	-0.588795	0.384292
H209	H	0.973255	-0.641296	0.308347
H210	H	0.940124	-0.687786	0.382401
O211	O	0.739232	0.178338	0.301872
C212	C	0.799048	0.198781	0.268269
H213	H	0.851263	0.173342	0.326164
H214	H	0.793629	0.260367	0.250441
C215	C	0.737046	0.203526	0.106334
C216	C	0.801178	0.172277	0.177438
H217	H	0.738358	0.187181	0.050302
H218	H	0.696745	0.189756	0.128971
H219	H	0.732537	0.254847	0.091488
H220	H	0.805681	0.120958	0.192291
H221	H	0.841480	0.186038	0.154801
H222	H	0.960019	-0.042459	0.258017
H223	H	0.787218	0.130240	0.258070
H224	H	0.850282	-0.725112	0.157851
