data_functionalizedCrystal
_audit_creation_method	'MofGen! by Chris Wilmer'
_symmetry_space_group_name_H-M	'P1'
_symmetry_Int_Tables_number	1
_symmetry_cell_setting	triclinic
loop_
_symmetry_equiv_pos_as_xyz
  x,y,z
_cell_length_a	10.489741
_cell_length_b	15.995350
_cell_length_c	15.072220
_cell_angle_alpha	89.991149
_cell_angle_beta	89.999236
_cell_angle_gamma	84.015774
loop_
_atom_site_label
_atom_site_type_symbol
_atom_site_fract_x
_atom_site_fract_y
_atom_site_fract_z
O1	O	0.164400	1.111987	-0.073707
O2	O	0.184702	0.868334	-0.073725
O3	O	-0.011125	0.995705	-0.073710
O4	O	0.360226	0.984616	-0.073722
O5	O	-0.011114	0.995673	0.073855
O6	O	0.184713	0.868303	0.073840
O7	O	0.164411	1.111955	0.073858
Zn8	Zn	0.174563	0.990124	0.097278
Zn9	Zn	0.174549	0.990166	-0.097145
O10	O	0.360237	0.984585	0.073844
C11	C	0.183868	0.837119	0.000055
C12	C	0.181352	0.744153	0.000048
C13	C	-0.058639	0.994852	0.000072
C14	C	-0.200234	0.992346	0.000070
C15	C	0.172315	0.406351	0.000067
C16	C	0.032851	0.452944	0.000401
C17	C	0.035368	0.549650	0.000062
C18	C	0.176797	0.573939	0.000058
C19	C	0.245580	0.533284	-0.084207
C20	C	0.242076	0.436628	-0.084271
C21	C	0.244970	0.436270	0.083538
C22	C	0.244937	0.533215	0.084645
C23	C	0.179338	0.668651	0.000050
C24	C	0.169778	0.311638	0.000069
C25	C	-0.267240	0.911304	0.000057
C26	C	-0.359892	0.949572	0.072818
C27	C	-0.359878	0.949622	-0.072670
C28	C	-0.291022	1.030647	0.072890
C29	C	-0.290997	1.030686	-0.072663
C30	C	-0.383624	1.069013	0.000115
C31	C	0.407752	0.985438	0.000060
C32	C	0.549346	0.987944	0.000056
C33	C	0.165244	1.143171	0.000076
C34	C	0.167761	1.236137	0.000077
N35	N	0.174572	0.990102	0.229967
N36	N	0.174530	0.990195	-0.229834
C37	C	0.174544	0.990164	0.589169
C38	C	0.278976	0.921777	0.551554
C39	C	0.279357	0.921938	0.448728
C40	C	0.174558	0.990132	0.410965
C41	C	0.203626	1.077672	0.448261
C42	C	0.204368	1.077290	0.551119
C43	C	0.040735	0.971788	0.551272
C44	C	0.041628	0.969788	0.448408
C45	C	0.174564	0.990120	0.310251
C46	C	0.174541	0.990182	0.689882
H47	H	-0.018699	0.577739	0.060467
O48	O	-0.040680	0.426562	-0.079189
H49	H	0.021674	0.380412	-0.118985
H50	H	0.012784	0.909296	0.577258
H51	H	0.019568	0.905389	0.424032
O52	O	-0.040998	0.427949	0.080445
H53	H	0.020902	0.382045	0.120845
H54	H	0.348072	0.549201	0.089732
H55	H	0.377714	0.933437	0.577390
H56	H	-0.039726	1.016301	0.422705
O57	O	0.175599	0.411984	-0.167693
H58	H	0.146248	0.469080	-0.207608
O59	O	0.107462	1.146782	0.584082
H60	H	0.034259	1.119393	0.625001
H61	H	0.262038	0.856894	0.423513
H62	H	-0.433981	1.135706	0.000160
O63	O	0.184565	0.408704	0.168144
H64	H	0.188816	0.339087	0.169359
O65	O	0.178415	0.568966	0.167223
H66	H	0.227136	0.539866	0.226708
O67	O	0.383217	0.552817	-0.088362
H68	H	0.429626	0.523378	-0.148475
O69	O	-0.400339	0.904138	0.154293
H70	H	-0.371396	0.937180	0.214624
O71	O	0.381170	0.395014	0.084307
H72	H	0.397101	0.353397	0.025562
O73	O	0.377697	0.394718	-0.089341
H74	H	0.388889	0.355381	-0.150060
O75	O	-0.250582	1.076091	-0.154160
H76	H	-0.299113	1.141160	-0.154696
H77	H	-0.216656	0.844671	0.000126
H78	H	-0.019074	0.577192	-0.060445
H79	H	-0.260664	1.064895	0.134472
O80	O	-0.062252	1.037799	0.583499
H81	H	-0.040297	1.100678	0.560595
H82	H	-0.390367	0.915334	-0.134189
H83	H	0.129587	1.129810	0.423798
O84	O	0.410881	0.937597	0.416108
H85	H	0.474457	0.945092	0.473801
O86	O	0.182286	0.570489	-0.167280
H87	H	0.101854	0.617923	-0.148765
O88	O	0.256443	0.835339	0.584356
H89	H	0.170577	0.840192	0.627825
O90	O	0.333626	1.098580	0.582893
H91	H	0.409493	1.051069	0.557444
O92	O	0.331423	1.099445	0.414143
H93	H	0.374431	1.048060	0.370634
