data_functionalizedCrystal
_audit_creation_method	'MofGen! by Chris Wilmer'
_symmetry_space_group_name_H-M	'P1'
_symmetry_Int_Tables_number	1
_symmetry_cell_setting	triclinic
loop_
_symmetry_equiv_pos_as_xyz
  x,y,z
_cell_length_a	10.654550
_cell_length_b	27.732048
_cell_length_c	9.730223
_cell_angle_alpha	89.990670
_cell_angle_beta	89.999957
_cell_angle_gamma	83.563793
loop_
_atom_site_label
_atom_site_type_symbol
_atom_site_fract_x
_atom_site_fract_y
_atom_site_fract_z
O1	O	1.664985	0.067886	-0.114204
O2	O	1.299235	0.074354	-0.114231
O3	O	1.493469	0.000794	-0.114191
O4	O	1.470751	0.141446	-0.114245
O5	O	1.493457	0.000792	0.114389
O6	O	1.299223	0.074352	0.114349
O7	O	1.664973	0.067884	0.114376
Zn8	Zn	1.482096	0.071117	0.150654
Zn9	Zn	1.482112	0.071120	-0.150509
O10	O	1.470738	0.141444	0.114335
C11	C	1.252451	0.073878	0.000056
C12	C	1.113067	0.072457	0.000047
C13	C	1.031761	0.115768	0.000034
C14	C	0.900796	0.114430	0.000059
C15	C	0.932457	0.026466	0.000103
C16	C	1.063419	0.027805	0.000088
C17	C	1.492986	-0.017217	0.000103
C18	C	1.491550	-0.070881	0.000114
C19	C	1.597290	-0.409038	0.000052
C20	C	1.591962	-0.610730	0.000032
O21	O	1.688653	-0.641384	-0.000021
N22	N	1.476789	-0.630571	0.000025
C23	C	1.362940	-0.599986	0.000014
O24	O	1.264855	-0.621490	-0.000007
C25	C	1.368269	-0.398294	0.000023
C26	C	1.483449	-0.378456	0.000044
C27	C	1.712461	-0.389199	0.000071
C28	C	1.713792	-0.338779	0.000084
C29	C	1.599951	-0.308197	0.000076
C30	C	1.484780	-0.328036	0.000057
C31	C	1.254421	-0.367709	0.000002
C32	C	1.255764	-0.317284	0.000001
C33	C	1.370944	-0.297446	0.000022
C34	C	1.372271	-0.247034	0.000062
N35	N	1.487444	-0.227193	0.000069
C36	C	1.601284	-0.257774	0.000076
C37	C	1.360150	-0.705877	0.000011
C38	C	1.358817	-0.756300	0.000011
C39	C	1.587840	-0.767041	0.000027
C40	C	1.589171	-0.716617	0.000037
C41	C	1.475323	-0.686036	0.000018
C42	C	1.604070	-0.151888	0.000104
C43	C	1.605391	-0.101463	0.000122
C44	C	1.376369	-0.090726	0.000098
C45	C	1.375047	-0.141147	0.000088
C46	C	1.488908	-0.171727	0.000086
O47	O	1.275631	-0.216352	0.000100
O48	O	1.699354	-0.236261	0.000067
C49	C	1.595959	-0.459458	0.000039
C50	C	1.480788	-0.479296	0.000020
C51	C	1.366947	-0.448715	0.000012
C52	C	1.479455	-0.529719	0.000020
C53	C	1.593296	-0.560301	0.000027
C54	C	1.708469	-0.540460	0.000034
C55	C	1.709799	-0.490040	0.000046
C56	C	1.251774	-0.468556	0.000005
C57	C	1.250453	-0.518976	-0.000005
C58	C	1.364293	-0.549558	0.000002
C59	C	1.711757	0.068360	0.000086
C60	C	1.851141	0.069781	0.000086
C61	C	1.471221	0.159455	0.000039
C62	C	1.472657	0.213118	0.000018
N63	N	1.482094	0.071115	0.356191
N64	N	1.482124	0.071118	-0.356046
C65	C	1.568130	0.038557	0.428135
C66	C	1.568142	0.038557	0.572018
C67	C	1.396079	0.103678	0.572000
C68	C	1.396062	0.103675	0.428120
H69	H	1.696787	-0.176781	0.000096
N70	N	1.835255	-0.422180	0.000098
H71	H	1.839835	-0.443338	-0.084632
H72	H	1.908335	-0.401921	0.000165
N73	N	1.713403	-0.695225	0.000055
H74	H	1.719076	-0.674540	-0.084678
H75	H	1.718981	-0.674574	0.084848
H76	H	1.638198	0.012044	0.630590
N77	N	1.660899	0.003439	0.350533
H78	H	1.749915	0.009322	0.375549
H79	H	1.646998	-0.030902	0.375623
N80	N	1.126205	-0.540364	-0.000029
H81	H	1.120551	-0.561036	-0.084772
H82	H	1.120598	-0.561027	0.084753
N83	N	1.838022	-0.317386	0.000101
H84	H	1.909928	-0.344416	0.000101
H85	H	1.843574	-0.296694	-0.084635
H86	H	1.326035	0.130189	0.630579
N87	N	1.303268	0.138797	0.350516
H88	H	1.316310	0.133853	0.248454
H89	H	1.214302	0.132895	0.375681
H90	H	1.265026	-0.772447	0.000018
N91	N	0.813133	0.161152	0.000053
H92	H	0.758072	0.162567	-0.084668
H93	H	0.758191	0.162535	0.084857
H94	H	1.267435	-0.680982	-0.000004
H95	H	1.699189	-0.085314	0.000142
H96	H	1.129623	-0.007466	0.000102
N97	N	1.710628	-0.800030	0.000039
H98	H	1.692295	-0.834982	0.000035
H99	H	1.760864	-0.793560	-0.084700
N100	N	1.831259	-0.573447	0.000033
H101	H	1.881554	-0.567031	0.084771
H102	H	1.812825	-0.608386	-0.000030
N103	N	1.085314	0.163926	-0.000011
H104	H	1.013929	0.191159	-0.000015
H105	H	1.138971	0.166398	0.084717
N106	N	1.130189	-0.389098	-0.000003
H107	H	1.058286	-0.362067	-0.000010
H108	H	1.124640	-0.409779	-0.084740
H109	H	0.892018	-0.009888	0.000145
N110	N	1.132967	-0.284300	-0.000026
H111	H	1.059808	-0.304522	-0.000040
H112	H	1.128517	-0.263151	0.084715
N113	N	1.250822	-0.162547	0.000084
H114	H	1.178907	-0.135521	0.000086
H115	H	1.245286	-0.183224	-0.084665
H116	H	1.803591	-0.473892	0.000063
N117	N	1.253600	-0.057730	0.000117
H118	H	1.249062	-0.036561	-0.084611
H119	H	1.180488	-0.077973	0.000163
N120	N	1.128983	-0.435575	-0.000004
H121	H	1.055829	-0.455800	-0.000010
H122	H	1.124539	-0.414428	0.084741
