data_functionalizedCrystal
_audit_creation_method	'MofGen! by Chris Wilmer'
_symmetry_space_group_name_H-M	'P1'
_symmetry_Int_Tables_number	1
_symmetry_cell_setting	triclinic
loop_
_symmetry_equiv_pos_as_xyz
  x,y,z
_cell_length_a	21.395362
_cell_length_b	19.805405
_cell_length_c	19.805399
_cell_angle_alpha	89.970699
_cell_angle_beta	89.961981
_cell_angle_gamma	90.042288
loop_
_atom_site_label
_atom_site_type_symbol
_atom_site_fract_x
_atom_site_fract_y
_atom_site_fract_z
Zn1	Zn	0.957842	-0.269192	-0.383045
Zn2	Zn	0.957763	-0.382380	-0.269853
Zn3	Zn	0.853067	-0.269242	-0.269833
Zn4	Zn	0.853034	-0.382376	-0.382963
O5	O	0.905426	-0.325798	-0.326424
O6	O	1.045509	-0.284188	-0.368072
O7	O	0.943856	-0.367395	-0.175134
O8	O	0.867013	-0.174519	-0.284876
O9	O	1.045451	-0.367347	-0.284911
O10	O	0.943990	-0.174482	-0.368053
O11	O	0.866937	-0.284273	-0.175119
O12	O	0.765385	-0.284268	-0.284797
O13	O	0.866955	-0.367339	-0.477691
O14	O	0.765360	-0.367387	-0.367914
O15	O	0.943957	-0.284183	-0.477751
O16	O	0.943823	-0.477096	-0.284832
O17	O	0.866879	-0.477093	-0.367934
C18	C	0.742639	-0.325833	-0.326345
C19	C	0.672997	-0.325865	-0.326328
C20	C	0.905356	-0.501654	-0.326391
C21	C	0.905383	-0.576886	-0.326399
C22	C	0.640288	-0.369202	-0.369541
C23	C	0.574852	-0.369186	-0.369572
C24	C	0.542129	-0.325839	-0.326376
C25	C	0.574847	-0.282493	-0.283159
C26	C	0.640281	-0.282506	-0.283135
C27	C	0.438410	-0.320396	-0.265443
C28	C	0.372977	-0.320388	-0.265465
C29	C	0.340308	-0.325795	-0.326450
C30	C	0.373081	-0.331224	-0.387414
C31	C	0.438515	-0.331237	-0.387390
C32	C	0.471177	-0.325820	-0.326397
C33	C	0.236646	-0.369116	-0.369701
C34	C	0.171210	-0.369095	-0.369732
C35	C	0.171205	-0.282406	-0.283313
C36	C	0.236641	-0.282424	-0.283288
C37	C	0.269357	-0.325783	-0.326481
C38	C	0.945487	-0.612209	-0.283174
C39	C	0.945513	-0.682897	-0.283189
C40	C	0.905433	-0.718261	-0.326426
C41	C	0.865327	-0.682933	-0.369657
C42	C	0.865304	-0.612246	-0.369645
C43	C	0.865420	-0.968006	-0.369707
C44	C	0.865444	-1.038698	-0.369714
C45	C	0.945629	-1.038658	-0.283251
C46	C	0.945606	-0.967971	-0.283239
C47	C	0.905503	-0.932648	-0.326472
C48	C	0.905475	-0.856000	-0.326456
C49	C	0.905456	-0.794908	-0.326439
C50	C	1.068850	-0.325762	-0.326503
C51	C	1.138491	-0.325747	-0.326537
C52	C	0.905461	-0.325755	-0.502966
C53	C	0.905476	-0.325737	-0.578198
C54	C	0.905514	-0.149255	-0.326471
C55	C	0.905552	-0.074023	-0.326492
C56	C	0.945572	-0.282435	-0.613575
C57	C	0.945579	-0.282416	-0.684263
C58	C	0.905492	-0.325701	-0.719574
C59	C	0.865392	-0.369005	-0.684193
C60	C	0.865383	-0.369020	-0.613506
C61	C	0.865427	-0.368941	-0.969266
C62	C	0.865441	-0.368924	-1.039958
C63	C	0.945623	-0.282337	-1.040024
C64	C	0.945614	-0.282353	-0.969337
C65	C	0.905512	-0.325653	-0.933962
C66	C	0.905504	-0.325673	-0.857313
C67	C	0.905502	-0.325685	-0.796221
C68	C	0.905427	-0.325791	-0.150568
C69	C	0.905534	-0.325619	-0.075336
H70	H	0.666922	-0.404508	-0.404713
H71	H	0.346484	-0.335626	-0.437074
H72	H	0.263286	-0.404418	-0.404874
O73	O	0.822209	-1.076839	-0.416352
H74	H	0.828958	-1.131926	-0.409088
H75	H	0.978259	-0.247107	-0.940590
O76	O	0.539553	-0.235740	-0.236571
H77	H	0.573294	-0.205601	-0.206520
O78	O	0.988861	-0.235612	-1.078177
H79	H	0.982126	-0.242859	-1.133263
H80	H	0.978285	-1.067426	-0.248051
O81	O	0.988719	-0.574067	-0.236541
H82	H	1.016615	-0.610509	-0.206492
H83	H	0.978169	-0.711655	-0.247990
O84	O	0.822088	-0.721070	-0.416286
H85	H	0.828833	-0.776158	-0.409026
O86	O	0.822154	-0.929925	-0.416331
H87	H	0.850158	-0.897669	-0.450813
H88	H	0.978230	-0.247157	-0.713064
O89	O	0.473641	-0.314561	-0.199661
H90	H	0.503412	-0.359896	-0.192663
H91	H	0.832648	-0.583486	-0.404844
H92	H	0.978241	-0.939180	-0.248028
H93	H	0.978218	-0.247189	-0.584830
H94	H	0.263273	-0.247137	-0.248095
O95	O	0.822196	-0.415605	-1.078048
H96	H	0.794302	-0.445711	-1.041575
O97	O	0.822144	-0.415607	-0.931115
H98	H	0.794265	-0.445693	-0.967546
O99	O	0.822149	-0.415689	-0.722273
H100	H	0.828894	-0.408408	-0.777370
O101	O	0.822126	-0.415716	-0.575350
H102	H	0.832841	-0.468837	-0.588899
O103	O	0.539560	-0.415956	-0.416156
H104	H	0.573303	-0.446118	-0.446175
H105	H	0.465196	-0.335656	-0.437029
H106	H	0.144563	-0.247109	-0.248145
O107	O	0.135925	-0.415929	-0.416254
H108	H	0.169670	-0.446116	-0.446244
H109	H	0.346298	-0.315971	-0.215825
H110	H	0.666913	-0.247214	-0.247945
