data_functionalizedCrystal
_audit_creation_method	'MofGen! by Chris Wilmer'
_symmetry_space_group_name_H-M	'P1'
_symmetry_Int_Tables_number	1
_symmetry_cell_setting	triclinic
loop_
_symmetry_equiv_pos_as_xyz
  x,y,z
_cell_length_a	17.699083
_cell_length_b	13.339070
_cell_length_c	16.176319
_cell_angle_alpha	89.996815
_cell_angle_beta	89.998611
_cell_angle_gamma	99.456154
loop_
_atom_site_label
_atom_site_type_symbol
_atom_site_fract_x
_atom_site_fract_y
_atom_site_fract_z
O1	O	1.031106	0.127864	-0.068625
O2	O	1.531106	0.627864	0.431375
O3	O	0.814244	0.144499	-0.068651
O4	O	1.314244	0.644499	0.431349
O5	O	0.897786	-0.011021	-0.068639
O6	O	1.397786	0.488979	0.431361
O7	O	0.947564	0.283384	-0.068637
O8	O	1.447564	0.783384	0.431363
O9	O	0.897768	-0.011031	0.068855
O10	O	1.397768	0.488969	0.568855
O11	O	0.814226	0.144489	0.068842
O12	O	1.314226	0.644489	0.568842
O13	O	1.031088	0.127854	0.068868
O14	O	1.531088	0.627854	0.568868
Cu15	Cu	0.922655	0.136171	0.081409
Cu16	Cu	1.422655	0.636171	0.581409
Cu17	Cu	0.922677	0.136182	-0.081192
Cu18	Cu	1.422677	0.636182	0.418808
O19	O	0.947546	0.283374	0.068856
O20	O	1.447546	0.783374	0.568856
C21	C	0.785912	0.143898	0.000092
C22	C	1.285912	0.643898	0.500092
C23	C	0.701516	0.142110	0.000082
C24	C	1.201516	0.642110	0.500082
C25	C	0.672191	0.233397	0.000082
C26	C	1.172191	0.733397	0.500082
C27	C	0.592891	0.231710	0.000093
C28	C	1.092891	0.731710	0.500093
C29	C	0.542918	0.138736	0.000097
C30	C	1.042918	0.638736	0.500097
C31	C	0.572248	0.047442	0.000099
C32	C	1.072248	0.547442	0.500099
C33	C	0.651546	0.049129	0.000094
C34	C	1.151546	0.549129	0.500094
C35	C	0.252446	0.040635	0.000119
C36	C	0.752446	0.540635	0.500119
C37	C	0.173143	0.038955	0.000122
C38	C	0.673143	0.538955	0.500122
C39	C	0.193791	0.223216	0.000118
C40	C	0.693791	0.723216	0.500118
C41	C	0.273089	0.224904	0.000113
C42	C	0.773089	0.724904	0.500113
C43	C	0.302412	0.133610	0.000120
C44	C	0.802412	0.633610	0.500120
C45	C	0.388398	0.135440	0.000110
C46	C	0.888398	0.635440	0.500110
C47	C	0.456933	0.136906	0.000101
C48	C	0.956933	0.636906	0.500101
C49	C	0.889369	-0.048694	0.000106
C50	C	1.389369	0.451306	0.500106
C51	C	0.864305	-0.160935	0.000100
C52	C	1.364305	0.339065	0.500100
C53	C	1.059185	-0.526207	0.000124
C54	C	1.559185	-0.026207	0.500124
C55	C	1.082736	-0.420752	0.000134
C56	C	1.582736	0.079248	0.500134
C57	C	1.028130	-0.355792	0.000125
C58	C	1.528130	0.144208	0.500125
C59	C	0.949970	-0.396298	0.000106
C60	C	1.449970	0.103702	0.500106
C61	C	0.926417	-0.501763	0.000102
C62	C	1.426417	-0.001763	0.500102
C63	C	0.895362	-0.331349	0.000104
C64	C	1.395362	0.168651	0.500104
C65	C	0.817202	-0.371855	0.000085
C66	C	1.317202	0.128145	0.500085
C67	C	0.793652	-0.477310	0.000080
C68	C	1.293652	0.022690	0.500080
C69	C	0.848258	-0.542269	0.000089
C70	C	1.348258	-0.042269	0.500089
C71	C	0.918915	-0.225884	0.000108
C72	C	1.418915	0.274116	0.500108
C73	C	0.786147	-0.201441	0.000086
C74	C	1.286147	0.298559	0.500086
C75	C	0.762596	-0.306895	0.000076
C76	C	1.262596	0.193105	0.500076
C77	C	1.059420	0.128455	0.000123
C78	C	1.559420	0.628455	0.500123
C79	C	1.143816	0.130243	0.000128
C80	C	1.643816	0.630243	0.500128
C81	C	0.955963	0.321047	0.000110
C82	C	1.455963	0.821047	0.500110
C83	C	0.981027	0.433288	0.000110
C84	C	1.481027	0.933288	0.500110
N85	N	0.922646	0.136162	0.195775
N86	N	1.422646	0.636162	0.695775
N87	N	0.922691	0.136183	-0.195557
N88	N	1.422691	0.636183	0.304443
C89	C	0.959660	0.067326	0.239044
C90	C	1.459660	0.567326	0.739044
C91	C	0.959663	0.067324	0.325592
C92	C	1.459663	0.567324	0.825592
C93	C	0.922657	0.136165	0.368867
C94	C	1.422657	0.636165	0.868867
C95	C	0.885638	0.205005	0.325591
C96	C	1.385638	0.705005	0.825591
C97	C	0.885631	0.205000	0.239046
C98	C	1.385631	0.705000	0.739046
C99	C	0.885668	0.205024	0.674620
C100	C	1.385668	0.705024	1.174620
C101	C	0.885681	0.205025	0.761171
C102	C	1.385681	0.705025	1.261171
C103	C	0.959701	0.067348	0.761165
C104	C	1.459701	0.567348	1.261165
C105	C	0.959693	0.067343	0.674620
C106	C	1.459693	0.567343	1.174620
C107	C	0.922671	0.136179	0.631352
C108	C	1.422671	0.636179	1.131352
C109	C	0.922667	0.136178	0.537507
C110	C	1.422667	0.636178	1.037507
C111	C	0.922666	0.136172	0.462710
C112	C	1.422666	0.636172	0.962710
H113	H	0.675420	-0.025206	0.000093
H114	H	1.175420	0.474794	0.500093
N115	N	0.326989	0.325182	0.000098
N116	N	0.826989	0.825182	0.500098
H117	H	0.296378	0.382758	0.000099
H118	H	0.796378	0.882758	0.500099
H119	H	0.360344	0.329895	0.051064
H120	H	0.860344	0.829895	0.551064
N121	N	0.999579	-0.006919	0.192371
N122	N	1.499579	0.493081	0.692371
H123	H	1.023027	-0.050527	0.232919
H124	H	1.523027	0.449473	0.732919
H125	H	0.961228	-0.051573	0.156470
H126	H	1.461228	0.448427	0.656470
H127	H	0.569019	0.306046	0.000093
H128	H	1.069019	0.806046	0.500093
H129	H	0.855544	0.261085	0.796405
H130	H	1.355544	0.761085	1.296405
N131	N	0.162175	0.321695	0.000140
N132	N	0.662175	0.821695	0.500140
H133	H	0.180485	0.362276	-0.050827
H134	H	0.680485	0.862276	0.449173
H135	H	0.104361	0.306453	0.000184
H136	H	0.604361	0.806453	0.500184
H137	H	0.741682	-0.148550	0.000083
H138	H	1.241682	0.351450	0.500083
N139	N	0.284064	-0.057828	0.000106
N140	N	0.784064	0.442172	0.500106
H141	H	0.341882	-0.042659	0.000104
H142	H	0.841882	0.457341	0.500104
H143	H	0.265695	-0.098365	0.051074
H144	H	0.765695	0.401635	0.551074
N145	N	0.845753	0.279272	0.627951
N146	N	1.345753	0.779272	1.127951
H147	H	0.804138	0.240689	0.592052
H148	H	1.304138	0.740689	1.092052
H149	H	0.822362	0.322871	0.668546
H150	H	1.322362	0.822871	1.168546
N151	N	0.999597	-0.006900	0.372271
N152	N	1.499597	0.493100	0.872271
H153	H	1.041201	0.031707	0.408170
H154	H	1.541201	0.531707	0.908170
H155	H	0.961243	-0.051604	0.408143
H156	H	1.461243	0.448396	0.908143
N157	N	1.118069	-0.596275	0.000144
N158	N	1.618069	-0.096275	0.500144
H159	H	1.111264	-0.640574	-0.050823
H160	H	1.611264	-0.140574	0.449177
H161	H	1.171131	-0.554551	0.000187
H162	H	1.671131	-0.054551	0.500187
N163	N	0.678296	-0.350583	0.000069
N164	N	1.178296	0.149417	0.500069
H165	H	0.653378	-0.326883	-0.050903
H166	H	1.153378	0.173117	0.449097
H167	H	0.671728	-0.427240	0.000100
H168	H	1.171728	0.072760	0.500100
N169	N	0.999610	-0.006901	0.627944
N170	N	1.499610	0.493099	1.127944
H171	H	1.023059	-0.050512	0.668488
H172	H	1.523059	0.449488	1.168488
H173	H	0.961257	-0.051553	0.592043
H174	H	1.461257	0.448447	1.092043
H175	H	0.132455	-0.036760	0.000126
H176	H	0.632455	0.463240	0.500126
N177	N	0.999632	-0.006901	0.807833
N178	N	1.499632	0.493099	1.307833
H179	H	0.994022	0.003541	0.869226
H180	H	1.494022	0.503541	1.369226
H181	H	0.975835	-0.078617	0.792710
H182	H	1.475835	0.421383	1.292710
H183	H	0.531553	-0.028259	0.000114
H184	H	1.031553	0.471741	0.500114
H185	H	0.855503	0.261053	0.360832
H186	H	1.355503	0.761053	0.860832
H187	H	0.982554	-0.192915	0.000124
H188	H	1.482554	0.307085	0.500124
H189	H	1.047310	-0.269927	0.000134
H190	H	1.547310	0.230073	0.500134
N191	N	0.845704	0.279239	0.192372
N192	N	1.345704	0.779239	0.692372
H193	H	0.822262	0.322851	0.232918
H194	H	1.322262	0.822851	0.732918
H195	H	0.884046	0.323891	0.156453
H196	H	1.384046	0.823891	0.656453
H197	H	0.712875	0.309107	0.000078
H198	H	1.212875	0.809107	0.500078
H199	H	1.146374	-0.387780	0.000151
H200	H	1.646374	0.112220	0.500151
N201	N	0.822855	-0.656013	0.000076
N202	N	1.322855	-0.156013	0.500076
H203	H	0.869309	-0.691013	0.000080
H204	H	1.369309	-0.191013	0.500080
H205	H	0.791096	-0.676539	0.051042
H206	H	1.291096	-0.176539	0.551042
N207	N	0.709351	-0.520988	0.000078
N208	N	1.209351	-0.020988	0.500078
H209	H	0.684433	-0.497287	-0.050893
H210	H	1.184433	0.002713	0.449107
H211	H	0.702775	-0.597645	0.000113
H212	H	1.202775	-0.097645	0.500113
