data_functionalizedCrystal
_audit_creation_method	'MofGen! by Chris Wilmer'
_symmetry_space_group_name_H-M	'P1'
_symmetry_Int_Tables_number	1
_symmetry_cell_setting	triclinic
loop_
_symmetry_equiv_pos_as_xyz
  x,y,z
_cell_length_a	16.120530
_cell_length_b	16.120444
_cell_length_c	16.120297
_cell_angle_alpha	95.615117
_cell_angle_beta	90.128140
_cell_angle_gamma	90.168401
loop_
_atom_site_label
_atom_site_type_symbol
_atom_site_fract_x
_atom_site_fract_y
_atom_site_fract_z
Zn1	Zn	1.224979	-0.422266	-0.554818
Zn2	Zn	1.224872	-0.554951	-0.422125
Zn3	Zn	1.093719	-0.408182	-0.408061
Zn4	Zn	1.078869	-0.554183	-0.554057
O5	O	1.155610	-0.484895	-0.484765
O6	O	1.341001	-0.446082	-0.543421
O7	O	1.213644	-0.529908	-0.303627
O8	O	1.117390	-0.293419	-0.421961
O9	O	1.340922	-0.543565	-0.445931
O10	O	1.213826	-0.303767	-0.529783
O11	O	1.117286	-0.422078	-0.293294
O12	O	0.975713	-0.421333	-0.421223
O13	O	1.092082	-0.542257	-0.670791
O14	O	0.964804	-0.528600	-0.528486
O15	O	1.199428	-0.445338	-0.671350
O16	O	1.199245	-0.671480	-0.445193
O17	O	1.091978	-0.670916	-0.542124
C18	C	0.940172	-0.473356	-0.473247
C19	C	0.848004	-0.468440	-0.468340
C20	C	1.144010	-0.701441	-0.495121
C21	C	1.139122	-0.794086	-0.499584
C22	C	0.679253	-0.459446	-0.459387
C23	C	0.632801	-0.510409	-0.510208
C24	C	0.538902	-0.505404	-0.505226
C25	C	0.773160	-0.464449	-0.464367
C26	C	1.181160	-1.005244	-0.461807
C27	C	1.130213	-0.963704	-0.507740
C28	C	1.135171	-0.869320	-0.503201
C29	C	1.176203	-1.099637	-0.466346
C30	C	1.371889	-0.496481	-0.496330
C31	C	1.464055	-0.501417	-0.501258
C32	C	1.144110	-0.495283	-0.702158
C33	C	1.139210	-0.499710	-0.794797
C34	C	1.167277	-0.267506	-0.474388
C35	C	1.172248	-0.174868	-0.469966
C36	C	1.130233	-0.507771	-0.964409
C37	C	1.181163	-0.461778	-1.005971
C38	C	1.176169	-0.466264	-1.100348
C39	C	1.135227	-0.503287	-0.870023
C40	C	1.167116	-0.474490	-0.268218
C41	C	1.172189	-0.469838	-0.175577
H42	H	0.648503	-0.412062	-0.412140
H43	H	0.663552	-0.557796	-0.557459
O44	O	1.073811	-1.005807	-0.558841
C45	C	1.024516	-1.037195	-0.699676
C46	C	1.088451	-0.989482	-0.641908
H47	H	1.036318	-1.024000	-0.766845
H48	H	1.030523	-1.106927	-0.694374
H49	H	0.959328	-1.015935	-0.680559
H50	H	1.153667	-1.010672	-0.660987
H51	H	1.082370	-0.919759	-0.647218
H52	H	1.228516	-0.419032	-0.970673
H53	H	1.228498	-0.969926	-0.419075
O54	O	1.073820	-0.558751	-1.006643
C55	C	1.017300	-0.609695	-1.140586
C56	C	1.081235	-0.551939	-1.092849
H57	H	1.023262	-0.604193	-1.210290
H58	H	1.029141	-0.676907	-1.127593
H59	H	0.952116	-0.590698	-1.119201
H60	H	1.146444	-0.570861	-1.114205
H61	H	1.069322	-0.484740	-1.105842
