data_functionalizedCrystal
_audit_creation_method	'MofGen! by Chris Wilmer'
_symmetry_space_group_name_H-M	'P1'
_symmetry_Int_Tables_number	1
_symmetry_cell_setting	triclinic
loop_
_symmetry_equiv_pos_as_xyz
  x,y,z
_cell_length_a	6.817900
_cell_length_b	11.102193
_cell_length_c	19.453030
_cell_angle_alpha	94.507800
_cell_angle_beta	101.707737
_cell_angle_gamma	108.604125
loop_
_atom_site_label
_atom_site_type_symbol
_atom_site_fract_x
_atom_site_fract_y
_atom_site_fract_z
V1	V	-4.033130	-0.177163	-0.219001
O2	O	-3.993662	0.007152	-0.214830
O3	O	-4.010437	-0.349974	-0.217506
O4	O	-3.975721	-0.175035	-0.314514
O5	O	-4.028618	-0.168999	-0.117150
V6	V	-4.514595	-0.155046	-0.206819
O7	O	-4.298905	-0.225678	-0.245725
O8	O	-4.699017	-0.106531	-0.180095
O9	O	-4.314081	0.017766	-0.208314
O10	O	-4.671460	-0.339361	-0.210990
O11	O	-4.636504	-0.163210	-0.308670
O12	O	-4.348797	-0.157174	-0.111306
C13	C	-3.861983	-0.392084	-0.214052
C14	C	-3.924656	-0.533363	-0.213466
C15	C	-3.968122	-0.761761	-0.083706
C16	C	-3.901527	-0.676844	-0.019658
C17	C	-3.842642	-0.544100	-0.020210
C18	C	-3.850349	-0.496272	-0.084817
C19	C	-3.916945	-0.581190	-0.148866
C20	C	-3.975833	-0.713935	-0.148307
C21	C	-3.991251	-0.618281	-0.277514
C22	C	-4.050151	-0.751026	-0.276964
C23	C	-3.998959	-0.570453	-0.342121
C24	C	-4.065569	-0.655371	-0.406171
C25	C	-4.124458	-0.788122	-0.405617
C26	C	-4.116747	-0.835943	-0.341012
C27	C	-3.817698	-0.168929	-0.337794
C28	C	-3.852214	-0.168333	-0.415877
C29	C	-3.924987	-0.284501	-0.462584
C30	C	-3.957444	-0.283954	-0.535952
C31	C	-3.917082	-0.167231	-0.562609
C32	C	-3.844309	-0.051048	-0.515892
C33	C	-3.811875	-0.051599	-0.442526
N34	N	-3.811793	-0.075716	-0.668101
N35	N	-3.842603	-0.075201	-0.737797
C36	C	-4.014806	-0.165565	-0.783656
N37	N	-4.155018	-0.256483	-0.757188
N38	N	-4.124197	-0.257002	-0.687487
C39	C	-3.952247	-0.166621	-0.642161
C40	C	-4.122779	-0.281148	-0.909918
C41	C	-4.155246	-0.280597	-0.983287
C42	C	-4.042089	-0.047687	-0.963225
C43	C	-4.009644	-0.048242	-0.889858
C44	C	-4.049983	-0.164976	-0.863209
C45	C	-4.125878	0.059868	-0.211766
C46	C	-4.042444	0.201147	-0.212357
C47	C	-4.170163	-0.163284	-0.088022
C48	C	-4.114885	-0.163873	-0.009939
H49	H	-4.164698	-0.944028	-0.340554
Br50	Br	-4.056221	-0.441622	-0.599352
H51	H	-3.811454	0.043988	-0.537601
Br52	Br	-4.177518	-0.439568	-0.873746
H53	H	-4.214520	-0.375200	-1.021316
Br54	Br	-3.910794	0.109426	-0.826464
H55	H	-3.802376	-0.388183	-0.085261
H56	H	-3.951001	-0.462364	-0.342566
Br57	Br	-3.713081	0.106071	-0.379133
Br58	Br	-4.075990	-0.590454	-0.493842
H59	H	-4.178668	-0.857256	-0.457773
Br60	Br	-3.979762	-0.442925	-0.426420
H61	H	-3.895254	-0.715800	0.032944
Br62	Br	-3.987348	0.110725	-0.999395
Br63	Br	-4.048081	-0.941915	-0.082953
H64	H	-3.788399	-0.474958	0.031944
