data_functionalizedCrystal
_audit_creation_method	'MofGen! by Chris Wilmer'
_symmetry_space_group_name_H-M	'P1'
_symmetry_Int_Tables_number	1
_symmetry_cell_setting	triclinic
loop_
_symmetry_equiv_pos_as_xyz
  x,y,z
_cell_length_a	19.288859
_cell_length_b	10.489716
_cell_length_c	17.766277
_cell_angle_alpha	89.997726
_cell_angle_beta	89.989768
_cell_angle_gamma	83.831431
loop_
_atom_site_label
_atom_site_type_symbol
_atom_site_fract_x
_atom_site_fract_y
_atom_site_fract_z
O1	O	0.922415	0.159074	-0.062602
O2	O	0.720297	0.180546	-0.062600
O3	O	0.825964	-0.015894	-0.062604
O4	O	0.816748	0.355514	-0.062598
O5	O	0.825945	-0.015904	0.062585
O6	O	0.720278	0.180536	0.062589
O7	O	0.922396	0.159064	0.062586
Cu8	Cu	0.821335	0.169799	0.074018
Cu9	Cu	0.821357	0.169811	-0.074032
O10	O	0.816729	0.355505	0.062590
C11	C	0.694406	0.179852	-0.000005
C12	C	0.617288	0.177782	-0.000005
C13	C	0.825262	-0.063415	-0.000012
C14	C	0.823190	-0.204999	-0.000019
C15	C	0.053922	0.279040	-0.000004
C16	C	0.126381	0.280997	-0.000008
C17	C	0.170321	0.165735	-0.000008
C18	C	0.141795	0.048507	-0.000024
C19	C	0.069337	0.046554	-0.000028
C20	C	0.291012	0.079769	0.043852
C21	C	0.363469	0.081727	0.043860
C22	C	0.393807	0.171753	-0.000001
C23	C	0.351678	0.259843	-0.043860
C24	C	0.279219	0.257890	-0.043864
C25	C	0.248891	0.167839	-0.000005
C26	C	0.500893	0.291094	0.000005
C27	C	0.573354	0.293045	-0.000003
C28	C	0.588767	0.060552	-0.000012
C29	C	0.516307	0.058604	-0.000011
C30	C	0.472374	0.173879	0.000002
C31	C	0.887989	-0.304141	-0.000013
C32	C	0.853757	-0.380721	-0.061735
C33	C	0.853723	-0.380695	0.061691
C34	C	0.788986	-0.279715	-0.061792
C35	C	0.788962	-0.279683	0.061690
C36	C	0.754682	-0.356213	-0.000047
C37	C	0.948287	0.159759	-0.000010
C38	C	1.025404	0.161829	-0.000016
C39	C	0.817431	0.403026	-0.000004
C40	C	0.819502	0.544610	-0.000002
N41	N	0.821325	0.169790	0.178148
N42	N	0.821373	0.169810	-0.178162
C43	C	0.868130	0.082849	0.217533
C44	C	0.868134	0.082843	0.296335
C45	C	0.821339	0.169800	0.335749
C46	C	0.774526	0.256748	0.296354
C47	C	0.774518	0.256743	0.217554
C48	C	0.812814	0.286015	0.460589
C49	C	0.812826	0.286022	0.539388
C50	C	0.821358	0.169816	0.578795
C51	C	0.829892	0.053598	0.539395
C52	C	0.829885	0.053593	0.460594
C53	C	0.821342	0.169815	0.421195
C54	C	0.868170	0.082861	0.703626
C55	C	0.868169	0.082853	0.782430
C56	C	0.774564	0.256770	0.782447
C57	C	0.774562	0.256766	0.703645
C58	C	0.821368	0.169813	0.664240
H59	H	0.018156	0.372906	0.000002
Br60	Br	0.612058	0.452133	0.000001
Br61	Br	0.165095	0.440081	0.000007
H62	H	0.624542	-0.033296	-0.000018
H63	H	0.244921	0.329614	-0.079577
H64	H	0.736403	0.327543	0.185486
H65	H	0.376376	0.333154	-0.079574
Br66	Br	0.801305	0.443741	0.407115
H67	H	0.881119	-0.424832	-0.113918
H68	H	0.805882	0.380653	0.571462
Br69	Br	0.441266	0.447533	0.000021
Br70	Br	0.711040	0.374767	0.650188
Br71	Br	0.981930	-0.265136	-0.000113
H72	H	0.736461	0.327567	0.814537
H73	H	0.177575	-0.045340	-0.000027
Br74	Br	0.477601	-0.100478	-0.000032
Br75	Br	0.711013	0.374755	0.349841
H76	H	0.761654	-0.235787	-0.114031
H77	H	0.397765	0.010005	0.079578
Br78	Br	0.660670	-0.394808	-0.000096
H79	H	0.266318	0.006452	0.079571
Br80	Br	0.030631	-0.112531	-0.000048
H81	H	0.761624	-0.235550	0.113875
H82	H	0.881083	-0.424791	0.113871
H83	H	0.906240	0.012044	0.185452
H84	H	0.906249	0.012042	0.328409
H85	H	0.836831	-0.041035	0.428517
Br86	Br	0.841480	-0.104122	0.592866
Br87	Br	0.931689	-0.035149	0.650145
Br88	Br	0.931689	-0.035159	0.835885
