data_functionalizedCrystal
_audit_creation_method	'MofGen! by Chris Wilmer'
_symmetry_space_group_name_H-M	'P1'
_symmetry_Int_Tables_number	1
_symmetry_cell_setting	triclinic
loop_
_symmetry_equiv_pos_as_xyz
  x,y,z
_cell_length_a	10.489741
_cell_length_b	10.489741
_cell_length_c	8.965430
_cell_angle_alpha	90.000707
_cell_angle_beta	89.998843
_cell_angle_gamma	84.539174
loop_
_atom_site_label
_atom_site_type_symbol
_atom_site_fract_x
_atom_site_fract_y
_atom_site_fract_z
O1	O	1.694053	0.179958	-0.123946
O2	O	1.322858	0.196851	-0.123969
O3	O	1.516902	0.002807	-0.123948
O4	O	1.500009	0.374003	-0.123967
O5	O	1.516886	0.002820	0.124130
O6	O	1.322841	0.196864	0.124110
O7	O	1.694037	0.179971	0.124133
Cu8	Cu	1.508438	0.188419	0.146773
Cu9	Cu	1.508457	0.188404	-0.146609
O10	O	1.499993	0.374016	0.124112
C11	C	1.275318	0.195582	0.000067
C12	C	1.133688	0.191765	0.000059
C13	C	1.515618	-0.044718	0.000090
C14	C	1.511801	-0.186348	0.000087
C15	C	1.065548	0.068300	0.000079
C16	C	0.973430	0.126617	-0.122237
C17	C	0.973447	0.126659	0.122349
C18	C	1.043435	0.250133	-0.122358
C19	C	1.043462	0.250158	0.122338
C20	C	0.951371	0.308564	-0.000007
C21	C	1.388336	-0.254488	0.000069
C22	C	1.446652	-0.346604	0.122388
C23	C	1.446697	-0.346591	-0.122198
C24	C	1.570167	-0.276599	0.122508
C25	C	1.570195	-0.276576	-0.122189
C26	C	1.628600	-0.368665	0.000161
C27	C	1.741577	0.181241	0.000093
C28	C	1.883206	0.185058	0.000092
C29	C	1.501277	0.421541	0.000070
C30	C	1.505094	0.563170	0.000063
N31	N	1.508433	0.188429	0.353122
N32	N	1.508471	0.188384	-0.352958
C33	C	1.418666	0.278138	0.450418
C34	C	1.534163	0.303949	0.549838
C35	C	1.392986	0.162629	0.549830
C36	C	1.623988	0.214298	0.450352
C37	C	1.482735	0.072927	0.450336
C38	C	1.598314	0.098690	0.549711
H39	H	1.115238	-0.033196	-0.000069
C40	C	1.085407	0.320683	0.262027
H41	H	1.126361	0.393662	0.232645
H42	H	1.143339	0.264821	0.318623
H43	H	1.012386	0.347093	0.320991
H44	H	1.342824	0.354072	0.406821
C45	C	1.563569	0.435865	0.608892
H46	H	1.639527	0.426451	0.667162
H47	H	1.494252	0.471204	0.668706
H48	H	1.575089	0.491323	0.527225
C49	C	1.700987	-0.003833	0.608245
H50	H	1.661274	-0.064513	0.666566
H51	H	1.760802	0.035808	0.667906
H52	H	1.744216	-0.046060	0.526362
C53	C	1.640670	-0.234551	-0.261877
H54	H	1.713632	-0.193571	-0.232496
H55	H	1.584758	-0.176615	-0.318408
H56	H	1.667099	-0.307527	-0.320905
H57	H	0.901947	0.410168	-0.000079
C58	C	0.931527	0.056041	-0.261920
H59	H	0.970989	-0.029320	-0.261771
H60	H	0.956647	0.099077	-0.348785
H61	H	0.841090	0.054801	-0.261358
C62	C	0.931586	0.056078	0.262050
H63	H	0.874890	0.112399	0.319654
H64	H	1.004799	0.028284	0.320025
H65	H	0.889221	-0.015994	0.232642
H66	H	1.074270	0.302327	-0.225883
H67	H	1.394404	-0.377610	0.225794
H68	H	1.730204	-0.418089	0.000235
C69	C	1.251211	-0.187403	0.000222
H70	H	1.207547	-0.211216	0.087238
H71	H	1.206911	-0.212369	-0.085791
H72	H	1.254586	-0.097225	-0.000653
C73	C	1.755929	0.243922	0.391583
H74	H	1.755095	0.243805	0.285622
H75	H	1.819741	0.180566	0.426371
H76	H	1.774333	0.325698	0.426482
H77	H	1.622355	-0.245761	0.226035
H78	H	1.394447	-0.377561	-0.225620
C79	C	1.453287	-0.058952	0.391230
H80	H	1.371170	-0.077139	0.425228
H81	H	1.516227	-0.122871	0.426703
H82	H	1.454264	-0.058194	0.285278
C83	C	1.261074	0.133159	0.608844
H84	H	1.197387	0.196993	0.574825
H85	H	1.262248	0.132575	0.714788
H86	H	1.242196	0.051736	0.573290
