data_functionalizedCrystal
_audit_creation_method	'MofGen! by Chris Wilmer'
_symmetry_space_group_name_H-M	'P1'
_symmetry_Int_Tables_number	1
_symmetry_cell_setting	triclinic
loop_
_symmetry_equiv_pos_as_xyz
  x,y,z
_cell_length_a	16.974800
_cell_length_b	14.971486
_cell_length_c	14.048226
_cell_angle_alpha	90.002448
_cell_angle_beta	93.648685
_cell_angle_gamma	96.498159
loop_
_atom_site_label
_atom_site_type_symbol
_atom_site_fract_x
_atom_site_fract_y
_atom_site_fract_z
O1	O	1.049256	-0.113938	0.001702
O2	O	0.819064	-0.128472	-0.016040
O3	O	0.940330	0.009011	-0.006687
O4	O	0.927990	-0.251420	-0.007651
O5	O	0.940310	0.009007	0.151633
O6	O	0.819044	-0.128475	0.142280
O7	O	1.049236	-0.113941	0.160022
Zn8	Zn	0.934137	-0.121209	0.176288
Zn9	Zn	0.934163	-0.121204	-0.032306
O10	O	0.927971	-0.251424	0.150669
C11	C	0.789595	-0.127923	0.060849
C12	C	0.701817	-0.126271	0.054084
C13	C	0.660573	-0.125495	0.137208
C14	C	0.578098	-0.123929	0.130854
C15	C	0.536868	-0.123146	0.041375
C16	C	0.578118	-0.123919	-0.041755
C17	C	0.660593	-0.125479	-0.035400
C18	C	0.290208	-0.118475	0.013115
C19	C	0.207727	-0.116918	0.006766
C20	C	0.207713	-0.116926	0.179376
C21	C	0.290188	-0.118491	0.185723
C22	C	0.331432	-0.119260	0.102593
N23	N	0.452565	-0.121548	0.034878
N24	N	0.415734	-0.120851	0.109091
C25	C	0.939768	0.042332	0.072431
C26	C	0.938114	0.141625	0.072302
C27	C	1.078705	-0.114490	0.083131
C28	C	1.166483	-0.116142	0.089890
C29	C	0.928532	-0.284745	0.071549
C30	C	0.930186	-0.384038	0.071671
N31	N	0.934126	-0.121211	0.318647
C32	C	1.009355	0.199028	0.077794
C33	C	1.007796	0.292324	0.077664
C34	C	0.934996	0.328215	0.072050
C35	C	0.863751	0.270804	0.066555
C36	C	0.865310	0.177510	0.066678
C37	C	0.860505	0.465258	0.066301
C38	C	0.858946	0.558558	0.066180
C39	C	1.002992	0.580072	0.077288
C40	C	1.004551	0.486778	0.077411
C41	C	0.933305	0.429374	0.071917
N42	N	0.934181	-0.121195	-0.174665
C43	C	0.987885	-0.060342	0.779633
C44	C	0.987878	-0.060348	0.679975
C45	C	0.934162	-0.121203	0.626020
C46	C	0.880456	-0.182062	0.671729
C47	C	0.880468	-0.182060	0.771385
C48	C	0.880434	-0.182062	0.464013
C49	C	0.880422	-0.182064	0.364349
C50	C	0.987845	-0.060351	0.372603
C51	C	0.987856	-0.060348	0.472259
C52	C	0.934149	-0.121206	0.517961
H53	H	0.544523	-0.123282	0.198542
O54	O	0.330119	-0.119210	0.272719
C55	C	0.276027	-0.118214	0.344726
H56	H	0.220489	-0.088793	0.315152
H57	H	0.304834	-0.075267	0.407311
H58	H	0.259018	-0.189774	0.369943
O59	O	1.040066	-0.001357	0.524782
C60	C	1.088900	-0.049236	0.586155
H61	H	1.057471	-0.119248	0.598661
H62	H	1.101379	-0.011898	0.657196
H63	H	1.147338	-0.055277	0.552237
H64	H	1.068637	0.169814	0.082372
H65	H	0.802489	0.418521	0.061826
O66	O	0.700604	-0.126095	0.224152
C67	C	0.689315	-0.048296	0.275797
H68	H	0.672860	0.006250	0.224032
H69	H	0.746531	-0.023331	0.319355
H70	H	0.639426	-0.064896	0.325764
O71	O	0.788298	0.593573	0.060768
C72	C	0.802204	0.688226	0.061820
H73	H	0.863882	0.710209	0.096555
H74	H	0.755608	0.716815	0.104188
H75	H	0.798365	0.714191	-0.014431
O76	O	0.700532	-0.126277	-0.116242
C77	C	0.646461	-0.125231	-0.196582
H78	H	0.584418	-0.152423	-0.176063
H79	H	0.665315	-0.169086	-0.255490
H80	H	0.645925	-0.053342	-0.223157
O81	O	1.039989	-0.001260	0.832183
C82	C	1.028499	-0.014318	0.929945
H83	H	0.965669	-0.047782	0.938736
H84	H	1.037244	0.053427	0.968491
H85	H	1.073292	-0.059156	0.961660
O86	O	0.796034	0.121873	0.061380
C87	C	0.731443	0.173554	0.056373
H88	H	0.751440	0.243211	0.087892
H89	H	0.681514	0.139072	0.098485
H90	H	0.709147	0.180167	-0.021302
H91	H	1.031608	-0.010799	0.642766
O92	O	0.167606	-0.116033	-0.080107
C93	C	0.128798	-0.037695	-0.088264
H94	H	0.119395	-0.011653	-0.014053
H95	H	0.068807	-0.054014	-0.129414
H96	H	0.166807	0.015928	-0.127919
H97	H	1.031575	-0.010799	0.335387
O98	O	0.793082	0.305772	0.060977
C99	C	0.787873	0.359074	-0.021432
H100	H	0.850175	0.382390	-0.043966
H101	H	0.756294	0.420126	-0.005424
H102	H	0.752939	0.317809	-0.081542
O103	O	0.167633	-0.116011	0.260097
C104	C	0.128798	-0.037690	0.262262
H105	H	0.159868	0.015956	0.215680
H106	H	0.130839	-0.011682	0.338751
H107	H	0.064284	-0.054013	0.234107
H108	H	1.061003	0.626816	0.081757
O109	O	1.077073	0.347958	0.083053
C110	C	1.141661	0.296275	0.088020
H111	H	1.121651	0.226619	0.116451
H112	H	1.191573	0.330756	0.137837
H113	H	1.163988	0.289656	0.013789
O114	O	0.828220	-0.241270	0.312081
C115	C	0.780811	-0.294977	0.373785
H116	H	0.813233	-0.295965	0.447313
H117	H	0.768819	-0.366417	0.344063
H118	H	0.722047	-0.265979	0.379873
H119	H	0.323779	-0.119098	-0.054576
H120	H	0.544543	-0.123275	-0.114611
H121	H	1.063831	0.457560	0.081989
H122	H	0.836702	-0.231622	0.501219
O123	O	0.828355	-0.241301	0.619367
C124	C	0.841274	-0.329839	0.644722
H125	H	0.904579	-0.330240	0.676974
H126	H	0.832210	-0.374735	0.578486
H127	H	0.797480	-0.356136	0.699207
H128	H	0.836737	-0.231613	0.808595
