data_functionalizedCrystal
_audit_creation_method	'MofGen! by Chris Wilmer'
_symmetry_space_group_name_H-M	'P1'
_symmetry_Int_Tables_number	1
_symmetry_cell_setting	triclinic
loop_
_symmetry_equiv_pos_as_xyz
  x,y,z
_cell_length_a	19.188930
_cell_length_b	14.044190
_cell_length_c	12.503552
_cell_angle_alpha	93.836179
_cell_angle_beta	86.474913
_cell_angle_gamma	88.168277
loop_
_atom_site_label
_atom_site_type_symbol
_atom_site_fract_x
_atom_site_fract_y
_atom_site_fract_z
O1	O	-0.937485	-0.112791	0.089682
O2	O	-0.735199	-0.128722	0.089610
O3	O	-0.833302	0.017214	0.089624
O4	O	-0.839382	-0.258728	0.089668
O5	O	-0.825915	0.006229	-0.089020
O6	O	-0.727812	-0.139707	-0.089033
O7	O	-0.930098	-0.123776	-0.088962
Cu8	Cu	-0.828281	-0.132745	-0.105309
Cu9	Cu	-0.837016	-0.119754	0.105958
O10	O	-0.831995	-0.269713	-0.088975
C11	C	-0.705461	-0.133699	0.000279
C12	C	-0.627855	-0.132153	0.000250
C13	C	-0.826950	0.047025	0.000298
C14	C	-0.819018	0.152217	0.000286
C15	C	-0.959836	-0.118799	0.000372
C16	C	-1.037442	-0.120345	0.000407
C17	C	-0.588460	-0.217781	0.000281
C18	C	-0.515543	-0.216326	0.000293
C19	C	-0.482024	-0.129236	0.000295
C20	C	-0.521429	-0.043597	0.000258
C21	C	-0.594344	-0.045056	0.000236
N22	N	-0.372263	-0.058927	0.061128
N23	N	-0.302996	-0.057547	0.061151
C24	C	-0.262335	-0.124837	0.000360
N25	N	-0.293557	-0.193573	-0.060442
N26	N	-0.362830	-0.194955	-0.060461
C27	C	-0.402960	-0.127645	0.000319
C28	C	-0.143874	-0.208894	0.000402
C29	C	-0.070955	-0.207435	0.000407
C30	C	-0.076844	-0.034703	0.000383
C31	C	-0.149760	-0.036165	0.000368
C32	C	-0.183271	-0.123262	0.000382
C33	C	-0.838347	-0.299523	0.000353
C34	C	-0.846279	-0.404715	0.000372
C35	C	-0.860769	0.402680	0.000343
C36	C	-0.804532	0.344816	0.000315
C37	C	-0.812594	0.237644	0.000299
C38	C	-0.852707	0.509862	0.000359
N39	N	-0.822142	-0.141881	-0.253903
C40	C	-0.852187	-0.097167	-0.526332
C41	C	-0.813117	-0.155321	-0.473013
C42	C	-0.818139	-0.147841	-0.351089
C43	C	-0.847165	-0.104645	-0.648267
N44	N	-0.843160	-0.110610	0.254551
H45	H	-0.483460	-0.286057	0.000315
N46	N	-0.736534	0.383632	0.000270
N47	N	-0.692132	0.360330	-0.075060
H48	H	-0.644109	0.387747	-0.075098
N49	N	-0.898842	-0.027652	-0.468677
N50	N	-0.875501	0.034820	-0.405915
H51	H	-0.908439	0.083916	-0.365163
H52	H	-0.615740	-0.288703	0.000295
H53	H	-0.171160	-0.279815	0.000398
N54	N	-0.928754	0.363843	0.000336
N55	N	-0.943751	0.306612	-0.074977
H56	H	-0.991764	0.279171	-0.074987
N57	N	-0.766414	-0.224822	-0.530608
N58	N	-0.718649	-0.198742	-0.593417
H59	H	-0.685667	-0.247826	-0.634097
N60	N	-0.487194	0.045362	0.000240
N61	N	-0.444029	0.060812	-0.075056
H62	H	-0.419851	0.123643	-0.075076
N63	N	-0.634579	0.042424	0.000200
N64	N	-0.604647	0.120179	0.000191
H65	H	-0.633063	0.181964	0.000166
N66	N	-0.030703	-0.294903	0.000414
N67	N	0.013769	-0.317989	-0.074885
H68	H	0.042197	-0.379766	-0.074885
H69	H	-0.181837	0.033563	0.000349
N70	N	-0.042603	0.054248	0.000366
N71	N	0.022500	0.055540	0.000375
H72	H	0.046687	0.118364	0.000356
