data_functionalizedCrystal
_audit_creation_method	'MofGen! by Chris Wilmer'
_symmetry_space_group_name_H-M	'P1'
_symmetry_Int_Tables_number	1
_symmetry_cell_setting	triclinic
loop_
_symmetry_equiv_pos_as_xyz
  x,y,z
_cell_length_a	14.853567
_cell_length_b	15.944551
_cell_length_c	13.930277
_cell_angle_alpha	89.994493
_cell_angle_beta	89.995755
_cell_angle_gamma	83.566834
loop_
_atom_site_label
_atom_site_type_symbol
_atom_site_fract_x
_atom_site_fract_y
_atom_site_fract_z
O1	O	1.196228	0.109664	-0.079767
O2	O	1.696228	0.609664	0.420233
O3	O	0.933751	0.122728	-0.079783
O4	O	1.433751	0.622728	0.420217
O5	O	1.072157	-0.006071	-0.079766
O6	O	1.572157	0.493929	0.420234
O7	O	1.057822	0.238463	-0.079784
O8	O	1.557822	0.738463	0.420216
O9	O	1.072138	-0.006073	0.079896
O10	O	1.572138	0.493927	0.579896
O11	O	0.933732	0.122725	0.079878
O12	O	1.433732	0.622725	0.579878
O13	O	1.196208	0.109662	0.079895
O14	O	1.696208	0.609662	0.579895
Zn15	Zn	1.064967	0.116193	0.105236
Zn16	Zn	1.564967	0.616193	0.605236
Zn17	Zn	1.064993	0.116197	-0.105125
Zn18	Zn	1.564993	0.616197	0.394875
O19	O	1.057803	0.238460	0.079878
O20	O	1.557803	0.738460	0.579878
C21	C	0.900154	0.122135	0.000045
C22	C	1.400154	0.622135	0.500045
C23	C	0.800072	0.120361	0.000039
C24	C	1.300072	0.620361	0.500039
C25	C	0.387646	0.036354	0.000067
C26	C	0.887646	0.536354	0.500067
C27	C	0.366169	0.189369	0.000055
C28	C	0.866169	0.689369	0.500055
C29	C	0.460201	0.191037	0.000051
C30	C	0.960201	0.691037	0.500051
C31	C	0.517960	0.115362	0.000055
C32	C	1.017960	0.615362	0.500055
C33	C	0.481687	0.038019	0.000061
C34	C	0.981687	0.538019	0.500061
C35	C	0.496480	0.268379	0.000035
C36	C	0.996480	0.768379	0.500035
C37	C	0.590517	0.270050	0.000031
C38	C	1.090517	0.770050	0.500031
C39	C	0.648278	0.194374	0.000041
C40	C	1.148278	0.694374	0.500041
C41	C	0.612000	0.117028	0.000049
C42	C	1.112000	0.617028	0.500049
C43	C	0.669759	0.041353	0.000052
C44	C	1.169759	0.541353	0.500052
C45	C	0.633483	-0.035994	0.000066
C46	C	1.133483	0.464006	0.500066
C47	C	0.539448	-0.037657	0.000071
C48	C	1.039448	0.462343	0.500071
C49	C	0.742313	0.196036	0.000036
C50	C	1.242313	0.696036	0.500036
C51	C	0.763800	0.043018	0.000046
C52	C	1.263800	0.543018	0.500046
C53	C	1.071552	-0.037367	0.000065
C54	C	1.571552	0.462633	0.500065
C55	C	1.069768	-0.130615	0.000065
C56	C	1.569768	0.369385	0.500065
C57	C	0.979713	-0.345572	0.000047
C58	C	1.479713	0.154428	0.500047
C59	C	1.021522	-0.406544	0.078772
C60	C	1.521522	0.093456	0.578772
C61	C	1.066541	-0.301344	0.000058
C62	C	1.566541	0.198656	0.500058
C63	C	1.021562	-0.406524	-0.078642
C64	C	1.521562	0.093476	0.421358
C65	C	1.063416	-0.466260	0.000046
C66	C	1.563416	0.033740	0.500046
C67	C	1.108373	-0.361088	0.078848
C68	C	1.608373	0.138912	0.578848
C69	C	1.108401	-0.361062	-0.078636
C70	C	1.608401	0.138938	0.421364
C71	C	1.150273	-0.422017	0.000109
C72	C	1.650273	0.077983	0.500109
C73	C	1.068338	-0.206340	0.000065
C74	C	1.568338	0.293660	0.500065
C75	C	1.061626	-0.561263	0.000046
C76	C	1.561626	-0.061263	0.500046
C77	C	1.229806	0.110255	0.000064
C78	C	1.729806	0.610255	0.500064
C79	C	1.329887	0.112029	0.000064
C80	C	1.829887	0.612029	0.500064
C81	C	1.058407	0.269756	0.000044
C82	C	1.558407	0.769756	0.500044
C83	C	1.060191	0.363004	0.000038
C84	C	1.560191	0.863004	0.500038
N85	N	1.064957	0.116190	0.248803
N86	N	1.564957	0.616190	0.748803
N87	N	1.065010	0.116193	-0.248691
N88	N	1.565010	0.616193	0.251309
C89	C	1.003704	0.173206	0.701064
C90	C	1.503704	0.673206	1.201064
C91	C	1.126306	0.059181	0.701049
C92	C	1.626306	0.559181	1.201049
C93	C	1.126295	0.059178	0.600553
C94	C	1.626295	0.559178	1.100553
C95	C	1.064989	0.116191	0.550308
C96	C	1.564989	0.616191	1.050308
C97	C	1.003693	0.173207	0.600559
C98	C	1.503693	0.673207	1.100559
C99	C	1.187596	0.002169	0.550295
C100	C	1.687596	0.502169	1.050295
C101	C	1.187588	0.002164	0.449793
C102	C	1.687588	0.502164	0.949793
C103	C	1.126277	0.059174	0.399546
C104	C	1.626277	0.559174	0.899546
C105	C	1.064978	0.116192	0.449803
C106	C	1.564978	0.616192	0.949803
C107	C	1.003672	0.173205	0.399558
C108	C	1.503672	0.673205	0.899558
C109	C	0.942368	0.230220	0.449814
C110	C	1.442368	0.730220	0.949814
C111	C	0.942382	0.230217	0.550312
C112	C	1.442382	0.730217	1.050312
C113	C	1.126263	0.059177	0.299047
C114	C	1.626263	0.559177	0.799047
C115	C	1.003661	0.173206	0.299053
C116	C	1.503661	0.673206	0.799053
H117	H	0.509903	-0.100629	0.000105
H118	H	1.009903	0.399371	0.500105
Br119	Br	1.209513	-0.018185	0.769234
Br120	Br	1.709513	0.481815	1.269234
H121	H	0.620045	0.333030	0.000019
H122	H	1.120045	0.833030	0.500019
H123	H	1.237514	-0.044246	0.591208
H124	H	1.737514	0.455754	1.091208
H125	H	0.449447	0.329989	0.000023
H126	H	0.949447	0.829989	0.500023
Br127	Br	0.287782	0.292066	0.000033
Br128	Br	0.787782	0.792066	0.500033
Br129	Br	0.711881	-0.138692	0.000059
Br130	Br	1.211881	0.361308	0.500059
Br131	Br	0.960340	-0.440080	-0.189563
Br132	Br	1.460340	0.059920	0.310437
Br133	Br	0.859192	0.307589	0.618517
Br134	Br	1.359192	0.807589	1.118517
H135	H	1.237504	-0.044260	0.408882
H136	H	1.737504	0.455740	0.908882
Br137	Br	0.859178	0.307600	0.381613
Br138	Br	1.359178	0.807600	0.881613
H139	H	0.771845	0.259011	0.000026
H140	H	1.271845	0.759011	0.500026
Br141	Br	0.859592	-0.290192	0.000160
Br142	Br	1.359592	0.209808	0.500160
Br143	Br	1.169574	-0.327438	-0.189567
Br144	Br	1.669574	0.172562	0.310433
H145	H	0.984790	-0.426694	0.145324
H146	H	1.484790	0.073306	0.645324
H147	H	1.176179	0.012760	0.258134
H148	H	1.676179	0.512760	0.758134
H149	H	1.145059	-0.341058	0.145478
H150	H	1.645059	0.158942	0.645478
H151	H	0.810822	-0.018607	0.000052
H152	H	1.310822	0.481393	0.500052
Br153	Br	1.270499	-0.477152	0.000183
Br154	Br	1.770499	0.022848	0.500183
Br155	Br	0.920503	0.250575	0.769260
Br156	Br	1.420503	0.750575	1.269260
H157	H	0.358106	-0.026620	0.000082
H158	H	0.858106	0.473380	0.500082
Br159	Br	0.920448	0.250579	0.230871
Br160	Br	1.420448	0.750579	0.730871
