data_functionalizedCrystal
_audit_creation_method	'MofGen! by Chris Wilmer'
_symmetry_space_group_name_H-M	'P1'
_symmetry_Int_Tables_number	1
_symmetry_cell_setting	triclinic
loop_
_symmetry_equiv_pos_as_xyz
  x,y,z
_cell_length_a	18.101398
_cell_length_b	18.101395
_cell_length_c	18.215399
_cell_angle_alpha	89.971163
_cell_angle_beta	89.992577
_cell_angle_gamma	90.026661
loop_
_atom_site_label
_atom_site_type_symbol
_atom_site_fract_x
_atom_site_fract_y
_atom_site_fract_z
Zn1	Zn	1.132104	-0.294907	-0.415939
Zn2	Zn	1.132005	-0.418759	-0.292876
Zn3	Zn	1.008268	-0.294926	-0.292907
Zn4	Zn	1.008214	-0.418702	-0.415921
O5	O	1.070148	-0.356824	-0.354411
O6	O	1.235724	-0.311353	-0.399609
O7	O	1.115572	-0.402364	-0.189896
O8	O	1.024759	-0.191291	-0.309247
O9	O	1.235651	-0.402346	-0.309195
O10	O	1.115741	-0.191277	-0.399639
O11	O	1.024663	-0.311385	-0.189918
O12	O	0.904628	-0.311330	-0.309230
O13	O	1.024667	-0.402249	-0.518908
O14	O	0.904588	-0.402267	-0.399608
O15	O	1.115688	-0.311297	-0.518921
O16	O	1.115519	-0.522384	-0.309178
O17	O	1.024571	-0.522343	-0.399579
C18	C	0.877737	-0.356795	-0.354421
C19	C	0.795423	-0.356800	-0.354443
C20	C	0.496332	-0.356844	-0.354412
C21	C	0.527657	-0.414336	-0.410995
C22	C	0.613275	-0.414156	-0.411227
C23	C	0.644715	-0.356823	-0.354427
C24	C	0.613659	-0.278820	-0.375619
C25	C	0.528014	-0.279165	-0.376022
C26	C	0.527883	-0.376667	-0.276501
C27	C	0.613533	-0.378378	-0.276917
C28	C	0.728574	-0.356806	-0.354435
C29	C	0.412473	-0.356855	-0.354406
C30	C	1.070049	-0.549234	-0.354389
C31	C	1.070074	-0.631548	-0.354404
C32	C	1.070236	-0.930639	-0.354444
C33	C	1.013147	-0.899319	-0.411463
C34	C	1.012875	-0.813701	-0.411285
C35	C	1.070156	-0.782257	-0.354425
C36	C	1.049030	-0.813409	-0.276867
C37	C	1.048662	-0.899054	-0.277209
C38	C	1.148577	-0.898989	-0.374300
C39	C	1.148117	-0.813337	-0.376001
C40	C	1.070111	-0.698397	-0.354409
C41	C	1.070279	-1.014499	-0.354454
C42	C	1.263309	-0.356854	-0.354401
C43	C	1.345624	-0.356866	-0.354397
C44	C	1.070183	-0.356765	-0.546364
C45	C	1.070197	-0.356739	-0.628163
C46	C	1.070267	-0.163662	-0.354448
C47	C	1.070318	-0.081348	-0.354465
C48	C	1.022901	-0.309334	-0.816369
C49	C	1.022914	-0.309320	-0.893228
C50	C	1.117582	-0.404056	-0.893194
C51	C	1.117565	-0.404074	-0.816337
C52	C	1.070226	-0.356709	-0.777926
C53	C	1.070256	-0.356676	-0.931642
C54	C	1.070270	-0.356660	-1.014976
C55	C	1.070210	-0.356726	-0.694587
C56	C	1.070155	-0.356829	-0.163204
C57	C	1.070284	-0.356646	-0.081406
H58	H	0.634271	-0.471999	-0.397946
O59	O	0.935958	-0.786638	-0.393862
H60	H	0.935493	-0.725322	-0.393681
O61	O	0.973974	-0.785085	-0.254185
H62	H	0.979215	-0.753154	-0.202441
H63	H	0.506144	-0.401386	-0.468389
H64	H	1.026092	-0.792636	-0.468793
H65	H	0.634934	-0.339545	-0.232494
H66	H	0.991395	-0.919093	-0.260387
H67	H	0.507626	-0.334790	-0.234341
H68	H	0.633837	-0.435777	-0.260934
O69	O	1.030206	-0.926891	-0.487822
H70	H	1.079590	-0.963166	-0.485963
H71	H	0.955431	-0.920901	-0.398477
O72	O	0.640638	-0.220531	-0.322743
H73	H	0.676556	-0.246601	-0.280700
O74	O	1.204962	-0.925982	-0.319415
H75	H	1.177366	-0.961745	-0.278176
H76	H	0.507042	-0.472368	-0.397861
O77	O	1.101337	-0.926512	-0.219009
H78	H	1.126957	-0.878616	-0.190742
H79	H	1.089303	-0.793043	-0.233226
H80	H	1.167839	-0.920537	-0.429891
O81	O	1.169236	-0.786355	-0.451600
H82	H	1.124402	-0.750952	-0.473720
O83	O	0.499247	-0.450717	-0.250984
H84	H	0.468079	-0.443543	-0.198997
O85	O	1.207441	-0.785015	-0.324981
H86	H	1.182173	-0.748180	-0.283262
H87	H	0.984377	-0.270743	-0.924525
H88	H	1.156125	-0.442618	-0.924477
O89	O	1.168619	-0.455165	-0.774864
H90	H	1.201551	-0.488087	-0.814484
O91	O	0.971840	-0.258251	-0.774943
H92	H	0.979783	-0.266214	-0.715040
O93	O	0.642110	-0.256140	-0.450235
H94	H	0.624046	-0.297131	-0.491831
H95	H	0.633775	-0.401039	-0.468955
H96	H	0.507294	-0.234794	-0.336699
O97	O	0.501560	-0.256898	-0.451465
H98	H	0.549939	-0.245989	-0.487320
