data_functionalizedCrystal
_audit_creation_method	'MofGen! by Chris Wilmer'
_symmetry_space_group_name_H-M	'P1'
_symmetry_Int_Tables_number	1
_symmetry_cell_setting	triclinic
loop_
_symmetry_equiv_pos_as_xyz
  x,y,z
_cell_length_a	14.421503
_cell_length_b	13.339070
_cell_length_c	15.944493
_cell_angle_alpha	99.552169
_cell_angle_beta	90.010165
_cell_angle_gamma	89.989668
loop_
_atom_site_label
_atom_site_type_symbol
_atom_site_fract_x
_atom_site_fract_y
_atom_site_fract_z
O1	O	0.077098	-1.342212	-0.421081
O2	O	0.077098	-1.047695	-0.365810
O3	O	0.077106	-1.203026	-0.273049
O4	O	0.077090	-1.186880	-0.513843
O5	O	-0.077118	-1.203001	-0.273062
O6	O	-0.077125	-1.047669	-0.365823
O7	O	-0.077126	-1.342186	-0.421094
Cu8	Cu	-0.091207	-1.194925	-0.393460
Cu9	Cu	0.091180	-1.194956	-0.393444
O10	O	-0.077133	-1.186854	-0.513856
C11	C	-0.000013	-1.009994	-0.356481
C12	C	-0.000012	-0.897698	-0.328651
N13	N	-0.219488	-1.194911	-0.393472
C14	C	-0.000002	-1.202354	-0.241607
C15	C	0.000010	-1.200375	-0.147897
C16	C	-0.469146	-1.123073	-0.436335
C17	C	-0.530950	-1.214476	-0.473942
C18	C	-0.408650	-1.194936	-0.393458
C19	C	-0.530940	-1.103556	-0.355877
C20	C	-0.591371	-1.194951	-0.393444
C21	C	-0.469093	-1.286385	-0.431113
C22	C	-0.469078	-1.175405	-0.313001
C23	C	-0.530854	-1.266874	-0.350590
C24	C	-0.303389	-1.194925	-0.393468
C25	C	-0.696630	-1.194972	-0.393436
N26	N	0.219461	-1.194978	-0.393427
C27	C	-0.000012	-1.379886	-0.430424
C28	C	-0.000007	-1.492183	-0.458253
C29	C	-0.000011	-0.532865	-0.545037
C30	C	-0.000009	-0.638373	-0.571187
C31	C	-0.000010	-0.703209	-0.510555
C32	C	-0.000013	-0.662527	-0.423769
C33	C	-0.000008	-0.557009	-0.397617
C34	C	-0.000007	-0.727353	-0.363135
C35	C	-0.000009	-0.686672	-0.276349
C36	C	-0.000004	-0.581163	-0.250201
C37	C	-0.000003	-0.516327	-0.310833
C38	C	-0.000012	-0.832872	-0.389287
C39	C	-0.000008	-0.857016	-0.241867
C40	C	-0.000010	-0.751508	-0.215718
C41	C	-0.000023	-1.187527	-0.545298
C42	C	-0.000029	-1.189506	-0.639007
C43	C	-0.000008	-1.291807	0.066558
C44	C	0.076032	-1.242514	0.128621
C45	C	-0.000002	-1.196709	0.023678
C46	C	-0.076020	-1.242466	0.128590
C47	C	-0.000017	-1.193175	0.189411
C48	C	0.076101	-1.147442	0.084508
C49	C	-0.076020	-1.147408	0.084469
C50	C	0.000039	-1.098045	0.146516
C51	C	0.000008	-1.198748	-0.071797
C52	C	-0.000019	-1.191129	0.284885
H53	H	-0.442051	-1.062363	-0.472650
O54	O	-0.563539	-1.234230	-0.555051
C55	C	-0.698076	-1.257148	-0.645856
C56	C	-0.661298	-1.234805	-0.553959
H57	H	-0.777118	-1.257599	-0.645004
H58	H	-0.671649	-1.334489	-0.678275
H59	H	-0.672679	-1.195819	-0.682328
H60	H	-0.686680	-1.296070	-0.517416
H61	H	-0.687718	-1.157434	-0.521606
H62	H	0.140456	-1.107314	0.065046
O63	O	0.000045	-0.541475	-0.165933
C64	C	0.000009	-0.389629	-0.060314
C65	C	-0.000028	-0.434437	-0.155773
H66	H	-0.000070	-0.303083	-0.052069
H67	H	0.064568	-0.416271	-0.029075
H68	H	-0.064516	-0.416371	-0.029125
H69	H	0.064454	-0.407715	-0.187036
H70	H	-0.064630	-0.407800	-0.186950
O71	O	0.000248	-1.000233	0.187725
C72	C	0.080576	-0.839635	0.211969
C73	C	0.080462	-0.950386	0.165262
H74	H	0.145413	-0.799295	0.193812
H75	H	0.080019	-0.838750	0.283587
H76	H	0.016335	-0.798847	0.193040
H77	H	0.144693	-0.991240	0.184121
H78	H	0.080971	-0.951198	0.093654
H79	H	-0.442041	-1.363686	-0.462971
O80	O	-0.152686	-1.290521	0.151809
C81	C	-0.239269	-1.446949	0.137122
C82	C	-0.152426	-1.392635	0.110744
H83	H	-0.239078	-1.529523	0.103947
H84	H	-0.304105	-1.407297	0.118043
H85	H	-0.238884	-1.444246	0.208961
H86	H	-0.152721	-1.395322	0.038910
H87	H	-0.087629	-1.432303	0.129885
O88	O	-0.000134	-0.919884	-0.182883
C89	C	-0.080055	-0.972839	-0.064928
C90	C	-0.080021	-0.901560	-0.131661
H91	H	-0.144646	-0.958064	-0.023509
H92	H	-0.015553	-0.958054	-0.023373
H93	H	-0.080016	-1.055231	-0.098546
H94	H	-0.080092	-0.819143	-0.098115
H95	H	-0.144517	-0.916433	-0.173213
O96	O	-0.562941	-1.339588	-0.307459
C97	C	-0.567616	-1.518031	-0.298324
C98	C	-0.531231	-1.435787	-0.347255
H99	H	-0.541977	-1.595825	-0.330469
H100	H	-0.646663	-1.517153	-0.298180
H101	H	-0.541090	-1.501983	-0.230053
H102	H	-0.557688	-1.451778	-0.415547
H103	H	-0.452184	-1.436684	-0.347329
H104	H	-0.441880	-1.158842	-0.244978
O105	O	-0.000129	-0.469990	-0.604007
C106	C	-0.080046	-0.416992	-0.721979
C107	C	-0.080021	-0.488272	-0.655247
H108	H	-0.144641	-0.431733	-0.763413
H109	H	-0.015548	-0.431811	-0.763521
H110	H	-0.079993	-0.334601	-0.688362
H111	H	-0.080106	-0.570689	-0.688794
H112	H	-0.144513	-0.473365	-0.613709
H113	H	-0.140308	-1.107271	0.064853
O114	O	-0.563236	-1.011275	-0.318040
C115	C	-0.568549	-0.831238	-0.320544
C116	C	-0.531900	-0.935681	-0.363459
H117	H	-0.543245	-0.770095	-0.357257
H118	H	-0.542009	-0.813912	-0.252319
H119	H	-0.647590	-0.832402	-0.320316
H120	H	-0.452862	-0.934595	-0.363749
H121	H	-0.558512	-0.952967	-0.431661
H122	H	-0.000013	-0.865984	-0.459949
H123	H	0.000068	-1.373721	0.031842
O124	O	-0.000055	-0.805675	-0.536099
C125	C	-0.000009	-0.943840	-0.654515
C126	C	0.000026	-0.827775	-0.625698
H127	H	0.000076	-0.961744	-0.726957
H128	H	-0.064571	-0.977867	-0.629019
H129	H	0.064513	-0.977837	-0.628890
H130	H	-0.064453	-0.793690	-0.651312
H131	H	0.064631	-0.793821	-0.651184
H132	H	-0.000000	-0.671489	-0.641848
H133	H	-0.000004	-0.718369	-0.145055
O134	O	0.152655	-1.290598	0.151944
C135	C	0.239325	-1.447001	0.137236
C136	C	0.152505	-1.392668	0.110772
H137	H	0.239242	-1.529528	0.103948
H138	H	0.238934	-1.444432	0.209061
H139	H	0.304113	-1.407234	0.118247
H140	H	0.087671	-1.432394	0.129705
H141	H	0.152978	-1.395228	0.038950
H142	H	-0.000005	-0.430413	-0.289546
