data_functionalizedCrystal
_audit_creation_method	'MofGen! by Chris Wilmer'
_symmetry_space_group_name_H-M	'P1'
_symmetry_Int_Tables_number	1
_symmetry_cell_setting	triclinic
loop_
_symmetry_equiv_pos_as_xyz
  x,y,z
_cell_length_a	6.394984
_cell_length_b	10.723024
_cell_length_c	9.798715
_cell_angle_alpha	90.003391
_cell_angle_beta	89.998391
_cell_angle_gamma	94.518389
loop_
_atom_site_label
_atom_site_type_symbol
_atom_site_fract_x
_atom_site_fract_y
_atom_site_fract_z
O1	O	0.293022	-1.660294	-0.113477
O2	O	0.321071	-1.297439	-0.113482
O3	O	0.003055	-1.484020	-0.113475
O4	O	0.611038	-1.473712	-0.113484
O5	O	0.003054	-1.484006	0.113507
O6	O	0.321070	-1.297424	0.113501
O7	O	0.293022	-1.660279	0.113505
Zn8	Zn	0.307045	-1.478850	0.149541
Zn9	Zn	0.307047	-1.478868	-0.149518
O10	O	0.611037	-1.473698	0.113499
C11	C	0.319029	-1.250910	0.000009
C12	C	0.312922	-1.112291	0.000007
N13	N	0.307044	-1.478846	0.353641
C14	C	0.925207	-1.481963	0.000020
C15	C	0.688880	-1.475751	0.000017
C16	C	0.295063	-1.706808	0.000011
C17	C	0.301170	-1.845427	0.000004
N18	N	0.307032	-1.478882	-0.353617
C19	C	0.490867	-1.039195	0.000004
C20	C	0.484559	-0.895925	0.000002
C21	C	0.172929	-1.557180	0.421420
C22	C	0.172922	-1.557200	0.578583
H23	H	0.647881	-1.082681	0.000010
C24	C	0.462161	-1.388259	0.432417
C25	C	0.457180	-1.246023	0.412934
C26	C	0.612303	-1.155433	0.491707
C27	C	0.772408	-1.207080	0.589961
C28	C	0.777396	-1.349323	0.609448
C29	C	0.622273	-1.439913	0.530676
H30	H	0.338655	-1.207785	0.340197
H31	H	0.608610	-1.050135	0.477281
H32	H	0.887240	-1.140020	0.648273
H33	H	0.895921	-1.387561	0.682186
H34	H	0.625966	-1.545211	0.545102
C35	C	0.690368	-0.811073	-0.000002
C36	C	0.738520	-0.718243	-0.117869
C37	C	0.944337	-0.633388	-0.117873
C38	C	1.102002	-0.641362	-0.000009
C39	C	1.053854	-0.734195	0.117867
C40	C	0.848037	-0.819050	0.117871
H41	H	0.621804	-0.712337	-0.205127
H42	H	0.979978	-0.564667	-0.205133
H43	H	1.254359	-0.578547	-0.000012
H44	H	1.170570	-0.740101	0.205125
H45	H	0.812396	-0.887771	0.205131
H46	H	0.058105	-1.624227	0.363100
H47	H	0.155908	-1.068805	-0.000026
H48	H	0.148827	-0.908237	-0.000002
H49	H	0.421867	-1.411817	0.588104
H50	H	0.058109	-1.624270	0.636870
