data_functionalizedCrystal
_audit_creation_method	'MofGen! by Chris Wilmer'
_symmetry_space_group_name_H-M	'P1'
_symmetry_Int_Tables_number	1
_symmetry_cell_setting	triclinic
loop_
_symmetry_equiv_pos_as_xyz
  x,y,z
_cell_length_a	16.992695
_cell_length_b	15.021413
_cell_length_c	16.974813
_cell_angle_alpha	93.653153
_cell_angle_beta	87.024397
_cell_angle_gamma	89.991535
loop_
_atom_site_label
_atom_site_type_symbol
_atom_site_fract_x
_atom_site_fract_y
_atom_site_fract_z
O1	O	1.040197	0.086072	0.167642
O2	O	1.540197	0.586072	0.667642
O3	O	0.811913	0.085949	0.165803
O4	O	1.311913	0.585949	0.665803
O5	O	0.932420	0.077743	0.052022
O6	O	1.432420	0.577743	0.552022
O7	O	0.919690	0.094279	0.281423
O8	O	1.419690	0.594279	0.781423
O9	O	0.932434	-0.070321	0.052030
O10	O	1.432434	0.429679	0.552030
O11	O	0.811927	-0.062115	0.165811
O12	O	1.311927	0.437885	0.665811
O13	O	1.040211	-0.061992	0.167650
O14	O	1.540211	0.438008	0.667650
Zn15	Zn	0.926071	-0.085561	0.166732
Zn16	Zn	1.426071	0.414439	0.666732
Zn17	Zn	0.926053	0.109519	0.166721
Zn18	Zn	1.426053	0.609519	0.666721
O19	O	0.919704	-0.053785	0.281431
O20	O	1.419704	0.446215	0.781431
C21	C	0.782710	0.011748	0.163441
C22	C	1.282710	0.511748	0.663441
C23	C	0.695674	0.011243	0.156381
C24	C	1.195674	0.511243	0.656381
N25	N	0.926090	-0.218698	0.166739
N26	N	1.426090	0.281302	0.666739
C27	C	0.931943	0.001587	0.022537
C28	C	1.431943	0.501587	0.522537
C29	C	0.930492	-0.004741	-0.065331
C30	C	1.430492	0.495259	0.434669
C31	C	1.069414	0.012211	0.170012
C32	C	1.569414	0.512211	0.670012
C33	C	1.156450	0.012722	0.177072
C34	C	1.656450	0.512722	0.677072
C35	C	1.206765	0.007815	0.108956
C36	C	1.706765	0.507815	0.608956
C37	C	1.288544	0.008291	0.115594
C38	C	1.788544	0.508291	0.615594
C39	C	1.320007	0.013679	0.190348
C40	C	1.820007	0.513679	0.690348
C41	C	1.269686	0.018584	0.258469
C42	C	1.769686	0.518584	0.758469
C43	C	1.187908	0.018102	0.251830
C44	C	1.687908	0.518102	0.751830
C45	C	1.563575	0.015666	0.217863
C46	C	2.063575	0.515666	0.717863
C47	C	1.645359	0.016150	0.224496
C48	C	2.145359	0.516150	0.724496
C49	C	1.664212	0.005855	0.081621
C50	C	2.164212	0.505855	0.581621
C51	C	1.582431	0.005379	0.074989
C52	C	2.082431	0.505379	0.574989
C53	C	1.532117	0.010279	0.143110
C54	C	2.032117	0.510279	0.643110
N55	N	1.403599	0.014168	0.197135
N56	N	1.903599	0.514168	0.697135
N57	N	1.448528	0.009784	0.136322
N58	N	1.948528	0.509784	0.636322
C59	C	0.981823	-0.462153	0.114115
C60	C	1.481823	0.037847	0.614115
C61	C	0.910994	-0.522909	0.094283
C62	C	1.410994	-0.022909	0.594283
C63	C	0.926071	-0.400306	0.166728
C64	C	1.426071	0.099694	0.666728
C65	C	0.996883	-0.516296	0.186513
C66	C	1.496883	-0.016296	0.686513
C67	C	0.926060	-0.575731	0.166716
C68	C	1.426060	-0.075731	0.666716
C69	C	0.855206	-0.459758	0.146859
C70	C	1.355206	0.040242	0.646859
C71	C	0.941142	-0.453137	0.239122
C72	C	1.441142	0.046863	0.739122
C73	C	0.870262	-0.513864	0.219318
C74	C	1.370262	-0.013864	0.719318
C75	C	0.926079	-0.299248	0.166733
C76	C	1.426079	0.200752	0.666733
C77	C	0.926044	-0.676787	0.166711
C78	C	1.426044	-0.176787	0.666711
N79	N	0.926041	0.242655	0.166708
N80	N	1.426041	0.742655	0.666708
C81	C	0.929805	0.072995	-0.106612
C82	C	1.429805	0.572995	0.393388
C83	C	0.928436	0.067047	-0.189173
C84	C	1.428436	0.567047	0.310827
C85	C	0.927761	-0.016639	-0.230452
C86	C	1.427761	0.483361	0.269548
C87	C	0.928446	-0.094380	-0.189166
C88	C	1.428446	0.405620	0.310834
C89	C	0.929809	-0.088431	-0.106606
C90	C	1.429809	0.411569	0.393394
C91	C	0.923680	-0.043086	-0.477369
C92	C	1.423680	0.456914	0.022631
C93	C	0.922319	-0.049030	-0.559935
C94	C	1.422319	0.450970	-0.059935
C95	C	0.922308	0.112398	-0.559937
C96	C	1.422308	0.612398	-0.059937
C97	C	0.923676	0.118340	-0.477376
C98	C	1.423676	0.618340	0.022624
C99	C	0.924357	0.040598	-0.436096
C100	C	1.424357	0.540598	0.063904
N101	N	0.926364	-0.022721	-0.314843
N102	N	1.426364	0.477279	0.185157
N103	N	0.925747	0.046681	-0.351706
N104	N	1.425747	0.546681	0.148294
C105	C	0.920181	0.022372	0.310916
C106	C	1.420181	0.522372	0.810916
C107	C	0.921632	0.028706	0.398784
C108	C	1.421632	0.528706	0.898784
H109	H	1.181154	0.003433	0.048084
H110	H	1.681154	0.503433	0.548084
N111	N	0.780065	-0.428682	0.125761
N112	N	1.280065	0.071318	0.625761
N113	N	0.775008	-0.384910	0.066011
N114	N	1.275008	0.115090	0.566011
H115	H	0.721941	-0.362960	0.051108
H116	H	1.221941	0.137040	0.551108
H117	H	1.329508	0.004291	0.060127
H118	H	1.829508	0.504291	0.560127
H119	H	0.927891	-0.162519	-0.222781
H120	H	1.427891	0.337481	0.277219
H121	H	0.953922	-0.422644	0.300332
H122	H	1.453922	0.077356	0.800332
H123	H	1.556821	0.000991	0.014117
H124	H	2.056821	0.500991	0.514117
H125	H	1.705185	0.001864	0.026162
H126	H	2.205185	0.501864	0.526162
H127	H	1.522619	0.019660	0.273332
H128	H	2.022619	0.519660	0.773332
H129	H	0.823059	-0.536527	0.263806
H130	H	1.323059	-0.036527	0.763806
H131	H	1.295310	0.022966	0.319335
H132	H	1.795310	0.522966	0.819335
N133	N	1.136510	0.023098	0.321408
N134	N	1.636510	0.523098	0.821408
N135	N	1.139341	-0.035818	0.369980
N136	N	1.639341	0.464182	0.869980
H137	H	1.103041	-0.032296	0.419121
H138	H	1.603041	0.467704	0.919121
H139	H	1.670973	0.020525	0.285373
H140	H	2.170973	0.520525	0.785373
N141	N	0.924397	-0.122493	-0.435209
N142	N	1.424397	0.377507	0.064791
N143	N	0.980400	-0.137459	-0.392937
N144	N	1.480400	0.362541	0.107063
H145	H	0.980908	-0.193543	-0.363157
H146	H	1.480908	0.306457	0.136843
H147	H	1.028921	-0.439327	0.069592
H148	H	1.528921	0.060673	0.569592
H149	H	0.898236	-0.553384	0.033056
H150	H	1.398236	-0.053384	0.533056
H151	H	1.056772	-0.541179	0.203251
H152	H	1.556772	-0.041179	0.703251
H153	H	0.930359	0.141141	-0.073008
H154	H	1.430359	0.641141	0.426992
H155	H	0.930358	-0.151732	-0.072995
H156	H	1.430358	0.348268	0.427005
N157	N	0.927728	0.146461	-0.231327
N158	N	1.427728	0.646461	0.268673
N159	N	0.928334	0.221175	-0.194462
N160	N	1.428334	0.721175	0.305538
H161	H	0.927832	0.277266	-0.224232
H162	H	1.427832	0.777266	0.275768
H163	H	0.924227	0.186485	-0.443772
H164	H	1.424227	0.686485	0.056228
N165	N	0.921614	0.191795	-0.602116
N166	N	1.421614	0.691795	-0.102116
N167	N	0.920399	0.186477	-0.675829
N168	N	1.420399	0.686477	-0.175829
H169	H	0.919907	0.242555	-0.705619
H170	H	1.419907	0.742555	-0.205619
N171	N	0.921624	-0.134524	-0.602090
N172	N	1.421624	0.365476	-0.102090
N173	N	0.922228	-0.203929	-0.565225
N174	N	1.422228	0.296071	-0.065225
H175	H	0.921736	-0.264308	-0.594996
H176	H	1.421736	0.235692	-0.094996
