data_functionalizedCrystal
_audit_creation_method	'MofGen! by Chris Wilmer'
_symmetry_space_group_name_H-M	'P1'
_symmetry_Int_Tables_number	1
_symmetry_cell_setting	triclinic
loop_
_symmetry_equiv_pos_as_xyz
  x,y,z
_cell_length_a	6.817900
_cell_length_b	11.102188
_cell_length_c	16.255661
_cell_angle_alpha	93.854852
_cell_angle_beta	103.488922
_cell_angle_gamma	108.603875
loop_
_atom_site_label
_atom_site_type_symbol
_atom_site_fract_x
_atom_site_fract_y
_atom_site_fract_z
V1	V	-4.052929	-0.176865	-0.263871
O2	O	-4.013087	0.007443	-0.258848
O3	O	-4.030098	-0.349678	-0.262067
O4	O	-4.004157	-0.174608	-0.378954
O5	O	-4.039208	-0.168839	-0.141151
V6	V	-4.533292	-0.154765	-0.249193
O7	O	-4.321119	-0.225344	-0.296069
O8	O	-4.715300	-0.106287	-0.216995
O9	O	-4.332917	0.018048	-0.250997
O10	O	-4.690531	-0.339073	-0.254216
O11	O	-4.664411	-0.162792	-0.371913
O12	O	-4.358858	-0.157022	-0.134110
C13	C	-3.881331	-0.391792	-0.257904
C14	C	-3.943947	-0.533072	-0.257196
C15	C	-3.930405	-0.580995	-0.179361
C16	C	-3.989264	-0.713744	-0.178699
C17	C	-4.075197	-0.750636	-0.333712
C18	C	-4.016353	-0.617890	-0.334374
C19	C	-4.135732	-0.877166	-0.087394
C20	C	-4.122155	-0.925091	-0.009555
C21	C	-3.947437	-0.861553	0.061374
C22	C	-3.786246	-0.750090	0.054468
C23	C	-3.799809	-0.702171	-0.023372
C24	C	-3.974571	-0.765708	-0.094299
C25	C	-3.869864	-0.454464	-0.425673
C26	C	-3.883412	-0.406543	-0.503513
C27	C	-4.058120	-0.470079	-0.574449
C28	C	-4.219287	-0.581547	-0.567551
C29	C	-4.205739	-0.629468	-0.489710
C30	C	-4.031030	-0.565923	-0.418774
C31	C	-3.848239	-0.168471	-0.407005
C32	C	-3.889815	-0.167769	-0.501086
C33	C	-3.799128	-0.159385	-0.723905
C34	C	-3.971585	-0.267595	-0.793381
C35	C	-3.966004	-0.166453	-0.673335
C36	C	-3.867655	-0.057005	-0.771496
C37	C	-4.039583	-0.165176	-0.839718
C38	C	-4.137957	-0.274760	-0.741581
C39	C	-4.033950	-0.064074	-0.719680
C40	C	-4.206548	-0.172315	-0.789137
C41	C	-3.923612	-0.167190	-0.577485
C42	C	-4.081993	-0.164449	-0.935567
C43	C	-4.145028	0.060155	-0.255158
C44	C	-4.061649	0.201433	-0.255872
C45	C	-4.178119	-0.163164	-0.106055
C46	C	-4.115781	-0.163859	-0.011973
H47	H	-3.752156	-0.315786	-0.509129
O48	O	-4.388862	-0.643446	-0.636473
C49	C	-4.394571	-0.770111	-0.657208
H50	H	-4.227456	-0.775220	-0.631258
H51	H	-4.448380	-0.798998	-0.729732
H52	H	-4.512489	-0.838537	-0.627405
O53	O	-3.859725	-0.498541	-0.104407
C54	C	-3.649195	-0.414467	-0.096141
H55	H	-3.569721	-0.460627	-0.137118
H56	H	-3.552157	-0.394585	-0.026252
H57	H	-3.655463	-0.320207	-0.118369
O58	O	-3.616278	-0.688458	0.123303
C59	C	-3.424252	-0.685213	0.103457
H60	H	-3.461134	-0.766373	0.049143
H61	H	-3.307885	-0.697758	0.162357
H62	H	-3.348459	-0.588885	0.082826
H63	H	-3.727594	-0.402718	-0.367913
H64	H	-3.668566	-0.611424	-0.028996
O65	O	-3.593385	-0.153253	-0.689980
C66	C	-3.560900	-0.260793	-0.727899
H67	H	-3.722024	-0.341928	-0.754437
H68	H	-3.450765	-0.294272	-0.677758
H69	H	-3.483644	-0.233141	-0.782160
H70	H	-3.936387	-0.900583	0.124752
H71	H	-3.753782	0.034998	-0.785106
O72	O	-3.940466	-0.370100	-0.831752
C73	C	-3.778534	-0.326169	-0.874135
H74	H	-3.765652	-0.225420	-0.888890
H75	H	-3.820687	-0.394065	-0.936430
H76	H	-3.618326	-0.323498	-0.831360
H77	H	-4.278027	-0.928899	-0.145142
O78	O	-4.412464	-0.178798	-0.823093
C79	C	-4.449219	-0.177030	-0.911956
H80	H	-4.289560	-0.130621	-0.927350
H81	H	-4.558782	-0.119322	-0.932780
H82	H	-4.529037	-0.279713	-0.947596
H83	H	-4.251829	-0.366887	-0.728114
O84	O	-4.145467	-0.833205	-0.408599
C85	C	-4.194545	-0.960650	-0.391328
H86	H	-4.102077	-0.960674	-0.323162
H87	H	-4.146834	-1.019425	-0.438326
H88	H	-4.374404	-1.004905	-0.398531
O89	O	-4.064425	0.038625	-0.681254
C90	C	-3.872308	0.115077	-0.620401
H91	H	-3.768681	0.053944	-0.599594
H92	H	-3.911805	0.155170	-0.562352
H93	H	-3.781089	0.197938	-0.650047
O94	O	-4.362315	-0.737639	-0.482870
C95	C	-4.457742	-0.708871	-0.419487
H96	H	-4.340964	-0.619502	-0.373265
H97	H	-4.498335	-0.793481	-0.382863
H98	H	-4.611087	-0.690371	-0.451079
O99	O	-4.071179	-0.423706	-0.650126
C100	C	-4.074721	-0.517426	-0.713987
H101	H	-3.998832	-0.586636	-0.682746
H102	H	-3.980153	-0.468388	-0.759080
H103	H	-4.248037	-0.573038	-0.751774
H104	H	-4.253412	-1.015846	-0.003938
