data_functionalizedCrystal
_audit_creation_method	'MofGen! by Chris Wilmer'
_symmetry_space_group_name_H-M	'P1'
_symmetry_Int_Tables_number	1
_symmetry_cell_setting	triclinic
loop_
_symmetry_equiv_pos_as_xyz
  x,y,z
_cell_length_a	22.010155
_cell_length_b	14.044220
_cell_length_c	14.044220
_cell_angle_alpha	93.188878
_cell_angle_beta	90.003727
_cell_angle_gamma	89.995721
loop_
_atom_site_label
_atom_site_type_symbol
_atom_site_fract_x
_atom_site_fract_y
_atom_site_fract_z
O1	O	0.050463	-1.277174	-0.230155
O2	O	0.383796	-0.943840	0.103178
O3	O	0.717130	-0.610507	0.436512
O4	O	0.050478	-1.000502	-0.221849
O5	O	0.383812	-0.667169	0.111484
O6	O	0.717145	-0.333836	0.444817
O7	O	0.050465	-1.134685	-0.087666
O8	O	0.383798	-0.801352	0.245667
O9	O	0.717131	-0.468019	0.579000
O10	O	0.050476	-1.142991	-0.364338
O11	O	0.383810	-0.809658	-0.031004
O12	O	0.717143	-0.476324	0.302329
O13	O	-0.050586	-1.134660	-0.087686
O14	O	0.282748	-0.801327	0.245647
O15	O	0.616081	-0.467994	0.578981
O16	O	-0.050572	-1.000478	-0.221869
O17	O	0.282761	-0.667144	0.111464
O18	O	0.616095	-0.333811	0.444798
O19	O	-0.050587	-1.277149	-0.230175
O20	O	0.282746	-0.943816	0.103159
O21	O	0.616079	-0.610482	0.436492
Cu22	Cu	-0.059806	-1.138811	-0.226024
Cu23	Cu	0.273527	-0.805478	0.107310
Cu24	Cu	0.606860	-0.472144	0.440643
Cu25	Cu	0.059697	-1.138840	-0.226000
Cu26	Cu	0.393031	-0.805507	0.107333
Cu27	Cu	0.726364	-0.472174	0.440666
O28	O	-0.050574	-1.142966	-0.364357
O29	O	0.282759	-0.809633	-0.031024
O30	O	0.616093	-0.476299	0.302309
C31	C	-0.000045	-0.964868	-0.218223
C32	C	0.333288	-0.631535	0.115110
C33	C	0.666622	-0.298201	0.448443
C34	C	-0.000039	-0.858725	-0.207379
C35	C	0.333294	-0.525392	0.125955
C36	C	0.666627	-0.192059	0.459288
N37	N	-0.143859	-1.138797	-0.226040
N38	N	0.189474	-0.805464	0.107293
N39	N	0.522808	-0.472131	0.440627
C40	C	-0.000060	-1.131037	-0.052054
C41	C	0.333273	-0.797704	0.281279
C42	C	0.666606	-0.464371	0.614612
C43	C	-0.000061	-1.120193	0.054088
C44	C	0.333273	-0.786859	0.387422
C45	C	0.666606	-0.453526	0.720755
C46	C	-0.563644	-1.198261	-0.166594
C47	C	-0.230311	-0.864928	0.166740
C48	C	0.103022	-0.531594	0.500073
C49	C	-0.627252	-1.198265	-0.166587
C50	C	-0.293919	-0.864932	0.166746
C51	C	0.039415	-0.531598	0.500079
O52	O	-0.660148	-1.248786	-0.116053
O53	O	-0.326815	-0.915453	0.217280
O54	O	0.006518	-0.582119	0.550614
N55	N	-0.659066	-1.138838	-0.225980
N56	N	-0.325733	-0.805505	0.107353
N57	N	0.007601	-0.472171	0.440686
C58	C	-0.627269	-1.079396	-0.285376
C59	C	-0.293936	-0.746063	0.047957
C60	C	0.039397	-0.412730	0.381291
O61	O	-0.660170	-1.028849	-0.335893
O62	O	-0.326837	-0.695516	-0.002560
O63	O	0.006496	-0.362182	0.330774
C64	C	-0.563663	-1.079388	-0.285377
C65	C	-0.230330	-0.746055	0.047957
C66	C	0.103004	-0.412722	0.381290
C67	C	-0.531852	-1.138826	-0.225987
C68	C	-0.198519	-0.805493	0.107346
C69	C	0.134815	-0.472159	0.440680
C70	C	-0.531833	-1.257693	-0.107208
C71	C	-0.198500	-0.924360	0.226125
C72	C	0.134833	-0.591027	0.559459
C73	C	-0.468230	-1.257691	-0.107216
C74	C	-0.134897	-0.924357	0.226118
C75	C	0.198437	-0.591024	0.559451
C76	C	-0.436438	-1.198256	-0.166609
C77	C	-0.103105	-0.864922	0.166724
C78	C	0.230229	-0.531589	0.500058
C79	C	-0.468249	-1.138823	-0.225995
C80	C	-0.134915	-0.805490	0.107339
C81	C	0.198418	-0.472157	0.440672
C82	C	-0.531867	-1.019942	-0.344767
C83	C	-0.198534	-0.686609	-0.011433
C84	C	0.134799	-0.353276	0.321900
C85	C	-0.468257	-1.019939	-0.344762
C86	C	-0.134923	-0.686605	-0.011428
C87	C	0.198410	-0.353272	0.321905
C88	C	-0.436446	-1.079377	-0.285372
C89	C	-0.103112	-0.746043	0.047961
C90	C	0.230221	-0.412710	0.381295
C91	C	-0.372853	-1.079385	-0.285396
C92	C	-0.039520	-0.746052	0.047938
C93	C	0.293813	-0.412719	0.381271
N94	N	-0.341039	-1.138812	-0.226003
N95	N	-0.007706	-0.805479	0.107331
N96	N	0.325628	-0.472146	0.440664
C97	C	-0.372831	-1.198247	-0.166609
C98	C	-0.039498	-0.864914	0.166724
C99	C	0.293835	-0.531581	0.500057
C100	C	-0.760847	-1.079417	-0.285369
C101	C	-0.427514	-0.746083	0.047964
C102	C	-0.094180	-0.412750	0.381298
C103	C	-0.824452	-1.079429	-0.285374
C104	C	-0.491119	-0.746096	0.047959
C105	C	-0.157786	-0.412762	0.381292
C106	C	-0.824431	-1.198297	-0.166584
C107	C	-0.491097	-0.864963	0.166749
C108	C	-0.157764	-0.531630	0.500083
C109	C	-0.760824	-1.198289	-0.166585
C110	C	-0.427491	-0.864955	0.166749
C111	C	-0.094157	-0.531622	0.500082
C112	C	-0.729033	-1.138844	-0.225976
C113	C	-0.395700	-0.805510	0.107357
C114	C	-0.062366	-0.472177	0.440690
C115	C	-0.239260	-1.198238	-0.166631
C116	C	0.094073	-0.864904	0.166703
C117	C	0.427407	-0.531571	0.500036
C118	C	-0.175651	-1.198232	-0.166647
C119	C	0.157682	-0.864899	0.166687
C120	C	0.491015	-0.531566	0.500020
C121	C	-0.175679	-1.079362	-0.285433
C122	C	0.157655	-0.746028	0.047901
C123	C	0.490988	-0.412695	0.381234
C124	C	-0.239282	-1.079370	-0.285421
C125	C	0.094051	-0.746037	0.047912
C126	C	0.427385	-0.412703	0.381246
C127	C	-0.271071	-1.138811	-0.226012
C128	C	0.062262	-0.805478	0.107321
C129	C	0.395596	-0.472144	0.440654
O130	O	-0.339916	-1.028888	-0.335901
O131	O	-0.006583	-0.695554	-0.002568
O132	O	0.326750	-0.362221	0.330765
O133	O	-0.339923	-1.248777	-0.116092
O134	O	-0.006589	-0.915444	0.217241
O135	O	0.326744	-0.582111	0.550575
N136	N	0.143750	-1.138861	-0.225977
N137	N	0.477083	-0.805528	0.107356
N138	N	0.810416	-0.472194	0.440690
C139	C	-0.000063	-1.312783	-0.233800
C140	C	0.333271	-0.979450	0.099533
C141	C	0.666604	-0.646117	0.432866
C142	C	-0.000064	-1.418926	-0.244645
C143	C	0.333269	-1.085593	0.088688
C144	C	0.666602	-0.752259	0.422022
C145	C	-0.000052	-0.664388	-0.187553
C146	C	0.333281	-0.331054	0.145781
C147	C	0.666614	0.002279	0.479114
C148	C	-0.000052	-0.613258	-0.264467
C149	C	0.333282	-0.279924	0.068866
C150	C	0.666615	0.053409	0.402200
C151	C	-0.000059	-0.505122	-0.253435
C152	C	0.333275	-0.171788	0.079898
C153	C	0.666608	0.161545	0.413231
C154	C	-0.000045	-0.772534	-0.198583
C155	C	0.333288	-0.439200	0.134751
C156	C	0.666622	-0.105867	0.468084
C157	C	-0.000047	-1.146614	-0.399969
C158	C	0.333286	-0.813281	-0.066636
C159	C	0.666619	-0.479948	0.266697
C160	C	-0.000043	-1.157459	-0.506112
C161	C	0.333290	-0.824125	-0.172779
C162	C	0.666623	-0.490792	0.160554
C163	C	-0.000051	-1.100366	0.248426
C164	C	0.333283	-0.767033	0.581759
C165	C	0.666616	-0.433700	0.915093
C166	C	-0.000053	-1.177281	0.299556
C167	C	0.333280	-0.843947	0.632889
C168	C	0.666614	-0.510614	0.966223
C169	C	-0.000048	-1.166249	0.407692
C170	C	0.333286	-0.832916	0.741026
C171	C	0.666619	-0.499582	1.074359
C172	C	-0.000056	-1.111397	0.140280
C173	C	0.333277	-0.778063	0.473613
C174	C	0.666610	-0.444730	0.806947
H175	H	-0.149753	-1.246637	-0.118285
H176	H	0.183581	-0.913304	0.215049
H177	H	0.516914	-0.579970	0.548382
H178	H	-0.000045	-1.026239	0.285863
H179	H	0.333288	-0.692906	0.619196
H180	H	0.666622	-0.359572	0.952530
H181	H	-0.265136	-1.246639	-0.118254
H182	H	0.068198	-0.913305	0.215080
H183	H	0.401531	-0.579972	0.548413
H184	H	-0.442333	-1.306087	-0.058853
H185	H	-0.109000	-0.972754	0.274481
H186	H	0.224333	-0.639420	0.607814
H187	H	-0.000016	-1.251414	0.262117
H188	H	0.333317	-0.918081	0.595450
H189	H	0.666650	-0.584748	0.928783
F190	F	-0.000058	-0.615455	-0.090661
F191	F	0.333275	-0.282122	0.242673
F192	F	0.666609	0.051212	0.576006
F193	F	-0.273136	-1.016120	-0.348642
F194	F	0.060197	-0.682786	-0.015308
F195	F	0.393530	-0.349453	0.318025
H196	H	-0.557759	-0.971542	-0.393126
H197	H	-0.224426	-0.638209	-0.059793
H198	H	0.108908	-0.304876	0.273540
F199	F	-0.726974	-1.261549	-0.103373
F200	F	-0.393641	-0.928215	0.229960
F201	F	-0.060308	-0.594882	0.563293
F202	F	-0.565660	-1.320956	-0.043987
F203	F	-0.232327	-0.987623	0.289346
F204	F	0.101006	-0.654290	0.622680
F205	F	-0.858278	-1.261551	-0.103371
F206	F	-0.524945	-0.928218	0.229962
F207	F	-0.191612	-0.594884	0.563296
F208	F	-0.858302	-1.016181	-0.348597
F209	F	-0.524968	-0.682847	-0.015264
F210	F	-0.191635	-0.349514	0.318069
H211	H	-0.734966	-1.031013	-0.333741
H212	H	-0.401632	-0.697679	-0.000408
H213	H	-0.068299	-0.364346	0.332926
F214	F	-0.434426	-0.956665	-0.407974
F215	F	-0.101093	-0.623332	-0.074641
F216	F	0.232240	-0.289998	0.258692
H217	H	-0.149783	-1.030973	-0.333793
H218	H	0.183550	-0.697640	-0.000460
H219	H	0.516883	-0.364306	0.332874
F220	F	-0.000045	-0.662191	-0.361366
F221	F	0.333288	-0.328857	-0.028032
F222	F	0.666622	0.004476	0.305301
