data_functionalizedCrystal
_audit_creation_method	'MofGen! by Chris Wilmer'
_symmetry_space_group_name_H-M	'P1'
_symmetry_Int_Tables_number	1
_symmetry_cell_setting	triclinic
loop_
_symmetry_equiv_pos_as_xyz
  x,y,z
_cell_length_a	8.559649
_cell_length_b	10.654550
_cell_length_c	9.730223
_cell_angle_alpha	90.000193
_cell_angle_beta	89.999652
_cell_angle_gamma	77.131784
loop_
_atom_site_label
_atom_site_type_symbol
_atom_site_fract_x
_atom_site_fract_y
_atom_site_fract_z
O1	O	-2.119647	0.042562	-0.114268
O2	O	-1.655161	-0.022224	-0.114274
O3	O	-1.898084	0.194011	-0.114266
O4	O	-1.876725	-0.173674	-0.114276
O5	O	-1.898081	0.194006	0.114314
O6	O	-1.655158	-0.022230	0.114306
O7	O	-2.119644	0.042557	0.114312
Zn8	Zn	-1.887401	0.010163	0.150601
Zn9	Zn	-1.887405	0.010170	-0.150563
O10	O	-1.876722	-0.173679	0.114304
C11	C	-1.595684	-0.027137	0.000015
C12	C	-1.418466	-0.041751	0.000013
C13	C	-1.896514	0.240645	0.000023
C14	C	-1.891822	0.379603	0.000018
C15	C	-2.179121	0.047469	0.000020
C16	C	-2.356339	0.062084	0.000014
C17	C	-1.878292	-0.220312	0.000013
C18	C	-1.882984	-0.359271	0.000008
N19	N	-1.887410	0.010160	0.356138
C20	C	-2.034851	0.473864	0.000024
C21	C	-2.030432	0.604428	0.000014
C22	C	-1.739944	0.546458	-0.000002
C23	C	-1.744364	0.415896	-0.000002
C24	C	-2.202562	0.507333	0.000039
C25	C	-2.198144	0.637898	0.000030
N26	N	-1.887408	0.010184	-0.356099
C27	C	-1.995004	0.105883	0.428067
C28	C	-1.995000	0.105898	0.571950
C29	C	-1.779803	-0.085545	0.571961
C30	C	-1.779800	-0.085553	0.428081
C31	C	-2.119251	0.216409	0.428062
C32	C	-2.119247	0.216423	0.571945
H33	H	-1.336069	-0.141836	0.000002
H34	H	-1.619888	0.576024	-0.000019
C35	C	-1.465994	0.195612	0.000231
C36	C	-1.436293	0.262387	0.117813
C37	C	-1.537271	0.385404	0.118050
H38	H	-1.574552	0.188214	0.000302
H39	H	-1.446056	0.241173	-0.079438
H40	H	-1.456242	0.216837	0.197462
H41	H	-1.327754	0.269821	0.117767
H42	H	-1.517333	0.430966	0.038380
H43	H	-1.645823	0.377993	0.118117
H44	H	-1.517122	0.430731	0.197821
C45	C	-2.289995	0.477452	-0.127620
C46	C	-2.339060	0.589702	-0.205709
C47	C	-2.419584	0.562220	-0.323323
H48	H	-2.381158	0.446125	-0.101224
H49	H	-2.220151	0.414002	-0.180844
H50	H	-2.408901	0.653130	-0.152494
H51	H	-2.247928	0.621045	-0.232139
H52	H	-2.349740	0.498770	-0.376547
H53	H	-2.510740	0.530891	-0.296914
H54	H	-2.452871	0.638373	-0.376327
C55	C	-2.273439	0.467344	0.131880
C56	C	-2.315967	0.573956	0.219191
C57	C	-2.381072	0.537128	0.340726
H58	H	-2.196330	0.401888	0.176120
H59	H	-2.365890	0.435518	0.110852
H60	H	-2.223527	0.605763	0.240220
H61	H	-2.393090	0.639424	0.174994
H62	H	-2.473524	0.505302	0.319699
H63	H	-2.303956	0.471671	0.384954
H64	H	-2.409949	0.609460	0.399977
H65	H	-2.248830	0.688779	-0.098664
H66	H	-2.261334	0.686183	0.095689
H67	H	-1.627896	0.339151	-0.000026
C68	C	-1.663232	-0.189519	0.349814
C69	C	-1.749086	-0.258149	0.267195
C70	C	-1.641754	-0.353928	0.195065
H71	H	-1.599111	-0.246644	0.413117
H72	H	-1.596320	-0.150802	0.293601
H73	H	-1.815971	-0.296866	0.323402
H74	H	-1.813202	-0.201060	0.203866
H75	H	-1.574842	-0.315210	0.138853
H76	H	-1.577639	-0.411043	0.258378
H77	H	-1.699990	-0.400497	0.138991
H78	H	-1.692189	-0.163471	0.630553
H79	H	-2.092000	0.310126	0.389011
C80	C	-2.273917	0.191637	0.368809
C81	C	-2.376376	0.175221	0.476220
C82	C	-2.518874	0.152412	0.421687
H83	H	-2.250602	0.116059	0.313884
H84	H	-2.324412	0.262898	0.313896
H85	H	-2.325891	0.103966	0.531109
H86	H	-2.399737	0.250785	0.531154
H87	H	-2.569369	0.223674	0.366774
H88	H	-2.495543	0.076836	0.366762
H89	H	-2.588416	0.141283	0.494556
H90	H	-2.080468	0.303640	0.616563
H91	H	-2.241903	0.207575	0.610997
