data_functionalizedCrystal
_audit_creation_method	'MofGen! by Chris Wilmer'
_symmetry_space_group_name_H-M	'P1'
_symmetry_Int_Tables_number	1
_symmetry_cell_setting	triclinic
loop_
_symmetry_equiv_pos_as_xyz
  x,y,z
_cell_length_a	19.288864
_cell_length_b	14.971496
_cell_length_c	14.048226
_cell_angle_alpha	90.003149
_cell_angle_beta	89.978031
_cell_angle_gamma	96.622815
loop_
_atom_site_label
_atom_site_type_symbol
_atom_site_fract_x
_atom_site_fract_y
_atom_site_fract_z
O1	O	0.921719	-0.111575	-0.079468
O2	O	1.421719	0.388425	0.420532
O3	O	0.719508	-0.126627	-0.079403
O4	O	1.219508	0.373373	0.420597
O5	O	0.826030	0.011128	-0.079429
O6	O	1.326030	0.511128	0.420571
O7	O	0.815197	-0.249330	-0.079442
O8	O	1.315197	0.250670	0.420558
O9	O	0.826013	0.011124	0.078893
O10	O	1.326013	0.511124	0.578893
O11	O	0.719491	-0.126631	0.078918
O12	O	1.219491	0.373369	0.578918
O13	O	0.921702	-0.111579	0.078853
O14	O	1.421702	0.388421	0.578853
Zn15	Zn	0.820594	-0.119105	0.104023
Zn16	Zn	1.320594	0.380895	0.604023
Zn17	Zn	0.820616	-0.119101	-0.104572
Zn18	Zn	1.320616	0.380899	0.395428
O19	O	0.815180	-0.249333	0.078879
O20	O	1.315180	0.250667	0.578879
C21	C	0.693621	-0.126145	-0.000234
C22	C	1.193621	0.373855	0.499766
C23	C	0.616513	-0.124691	-0.000209
C24	C	1.116513	0.375309	0.499791
N25	N	0.820583	-0.119108	0.246383
N26	N	1.320583	0.380892	0.746383
C27	C	0.825536	0.044448	-0.000268
C28	C	1.325536	0.544448	0.499732
C29	C	0.824080	0.143737	-0.000267
C30	C	1.324080	0.643737	0.499733
C31	C	0.572082	-0.205519	-0.000228
C32	C	1.072082	0.294481	0.499772
C33	C	0.499631	-0.204153	-0.000239
C34	C	0.999631	0.295847	0.499761
C35	C	0.471613	-0.121954	-0.000249
C36	C	0.971613	0.378046	0.499751
C37	C	0.516053	-0.041115	-0.000225
C38	C	1.016053	0.458885	0.499775
C39	C	0.588503	-0.042484	-0.000205
C40	C	1.088503	0.457516	0.499795
C41	C	0.363145	-0.057336	-0.055745
C42	C	0.863145	0.442664	0.444255
C43	C	0.290696	-0.055971	-0.055771
C44	C	0.790696	0.444029	0.444229
C45	C	0.248154	-0.117731	-0.000306
C46	C	0.748154	0.382269	0.499694
C47	C	0.278068	-0.180871	0.055171
C48	C	0.778068	0.319129	0.555171
C49	C	0.350518	-0.182239	0.055191
C50	C	0.850518	0.317761	0.555191
C51	C	0.393054	-0.120462	-0.000270
C52	C	0.893054	0.379538	0.499730
C53	C	0.125162	-0.197084	-0.000336
C54	C	0.625162	0.302916	0.499664
C55	C	0.052710	-0.195714	-0.000340
C56	C	0.552710	0.304286	0.499660
C57	C	0.069134	-0.032675	-0.000336
C58	C	0.569134	0.467325	0.499664
C59	C	0.141585	-0.034046	-0.000321
C60	C	0.641585	0.465954	0.499679
C61	C	0.169594	-0.116253	-0.000326
C62	C	0.669594	0.383747	0.499674
C63	C	0.947589	-0.112061	-0.000318
C64	C	1.447589	0.387939	0.499682
C65	C	1.024697	-0.113515	-0.000349
C66	C	1.524697	0.386485	0.499651
C67	C	0.815674	-0.282654	-0.000284
C68	C	1.315674	0.217346	0.499716
C69	C	0.817130	-0.381942	-0.000291
C70	C	1.317130	0.118058	0.499709
C71	C	0.817824	0.571409	-0.086591
C72	C	1.317824	1.071409	0.413409
C73	C	0.819196	0.478117	-0.086587
C74	C	1.319196	0.978117	0.413413
C75	C	0.819867	0.431475	-0.000283
C76	C	1.319867	0.931475	0.499717
C77	C	0.819175	0.478131	0.086024
C78	C	1.319175	0.978131	0.586024
C79	C	0.817808	0.571422	0.086019
C80	C	1.317808	1.071422	0.586019
C81	C	0.822020	0.283683	0.086028
C82	C	1.322020	0.783683	0.586028
C83	C	0.823385	0.190386	0.086033
C84	C	1.323385	0.690386	0.586033
C85	C	0.823408	0.190378	-0.086578
C86	C	1.323408	0.690378	0.413422
C87	C	0.822042	0.283669	-0.086583
C88	C	1.322042	0.783669	0.413417
C89	C	0.821348	0.330318	-0.000276
C90	C	1.321348	0.830318	0.499724
N91	N	0.820632	-0.119091	-0.246933
N92	N	1.320632	0.380909	0.253067
C93	C	0.867807	-0.058118	0.703212
C94	C	1.367807	0.441882	1.203212
C95	C	0.867800	-0.058124	0.603554
C96	C	1.367800	0.441876	1.103554
C97	C	0.820616	-0.119100	0.553753
C98	C	1.320616	0.380900	1.053753
C99	C	0.773439	-0.180079	0.603616
C100	C	1.273439	0.319921	1.103616
C101	C	0.773449	-0.180077	0.703272
C102	C	1.273449	0.319923	1.203272
C103	C	0.773420	-0.180079	0.395902
C104	C	1.273420	0.319921	0.895902
C105	C	0.773409	-0.180081	0.296239
C106	C	1.273409	0.319919	0.796239
C107	C	0.867771	-0.058126	0.296184
C108	C	1.367771	0.441874	0.796184
C109	C	0.867781	-0.058124	0.395840
C110	C	1.367781	0.441876	0.895840
C111	C	0.820604	-0.119102	0.445695
C112	C	1.320604	0.380898	0.945695
H113	H	0.594883	-0.272458	-0.000234
H114	H	1.094883	0.227542	0.499766
N115	N	0.636424	0.044704	-0.000192
N116	N	1.136424	0.544704	0.499808
H117	H	0.666873	0.047772	-0.058875
H118	H	1.166873	0.547772	0.441125
H119	H	0.666781	0.047718	0.058543
H120	H	1.166781	0.547718	0.558543
N121	N	0.485837	0.047541	-0.000246
N122	N	0.985837	0.547541	0.499754
H123	H	0.524981	0.098540	-0.000231
H124	H	1.024981	0.598540	0.499769
H125	H	0.456107	0.051659	0.058436
H126	H	0.956107	0.551659	0.558436
H127	H	0.016534	-0.261537	-0.000350
H128	H	0.516534	0.238463	0.499650
H129	H	0.147969	-0.264022	-0.000325
H130	H	0.647969	0.235978	0.499675
H131	H	0.817242	0.609402	0.156293
H132	H	1.317242	1.109402	0.656293
H133	H	0.735036	-0.229728	0.743863
H134	H	1.235036	0.270272	1.243863
N135	N	0.722523	-0.245853	0.242525
N136	N	1.222523	0.254147	0.742525
H137	H	0.729674	-0.236596	0.171829
H138	H	1.229674	0.263404	0.671829
H139	H	0.673244	-0.235684	0.259981
H140	H	1.173244	0.264316	0.759981
H141	H	0.906227	-0.008461	0.743753
H142	H	1.406227	0.491539	1.243753
N143	N	0.409024	0.009285	-0.115569
N144	N	0.909024	0.509285	0.384431
H145	H	0.395607	0.001191	-0.184785
H146	H	0.895607	0.501191	0.315215
H147	H	0.459443	-0.001194	-0.107058
H148	H	0.959443	0.498806	0.392942
N149	N	0.918683	0.007639	0.549784
N150	N	1.418683	0.507639	1.049784
H151	H	0.949461	-0.026447	0.508421
H152	H	1.449461	0.473553	1.008421
H153	H	0.948525	0.046251	0.596517
H154	H	1.448525	0.546251	1.096517
H155	H	0.046323	0.034253	-0.000403
H156	H	0.546323	0.534253	0.499597
H157	H	0.823910	0.152409	0.156309
H158	H	1.323910	0.652409	0.656309
H159	H	0.906185	-0.008476	0.255586
H160	H	1.406185	0.491524	0.755586
H161	H	0.821456	0.321662	0.156308
H162	H	1.321456	0.821662	0.656308
N163	N	0.189512	0.053133	-0.000301
N164	N	0.689512	0.553133	0.499699
H165	H	0.160771	0.105415	-0.000307
H166	H	0.660771	0.605415	0.499693
H167	H	0.219957	0.056121	-0.058982
H168	H	0.719957	0.556121	0.441018
H169	H	0.819726	0.440149	0.156294
H170	H	1.319726	0.940149	0.656294
H171	H	0.266345	-0.004562	-0.100948
H172	H	0.766345	0.495438	0.399052
N173	N	0.819980	0.427832	-0.179682
N174	N	1.319980	0.927832	0.320318
H175	H	0.863586	0.396577	-0.183522
H176	H	1.363586	0.896577	0.316478
H177	H	0.819329	0.471610	-0.234281
H178	H	1.319329	0.971610	0.265719
H179	H	0.821491	0.321641	-0.156860
H180	H	1.321491	0.821641	0.343140
N181	N	0.918685	0.007630	0.449549
N182	N	1.418685	0.507630	0.949549
H183	H	0.910648	0.071093	0.432221
H184	H	1.410648	0.571093	0.932221
H185	H	0.967956	-0.002611	0.432137
H186	H	1.467956	0.497389	0.932137
H187	H	0.817271	0.609376	-0.156870
H188	H	1.317271	1.109376	0.343130
N189	N	0.824178	0.140074	-0.179669
N190	N	1.324178	0.640074	0.320331
H191	H	0.825157	0.073900	-0.166573
H192	H	1.325157	0.573900	0.333427
H193	H	0.866976	0.163818	-0.217348
H194	H	1.366976	0.663818	0.282652
H195	H	0.735005	-0.229737	0.436491
H196	H	1.235005	0.270263	0.936491
N197	N	0.722544	-0.245849	0.549912
N198	N	1.222544	0.254151	1.049912
H199	H	0.749109	-0.285368	0.508540
H200	H	1.249109	0.214632	1.008540
H201	H	0.691772	-0.211702	0.508647
H202	H	1.191772	0.288298	1.008647
H203	H	0.374871	-0.233647	0.100366
H204	H	0.874871	0.266353	0.600366
N205	N	0.451701	-0.291338	-0.000263
N206	N	0.951701	0.208662	0.499737
H207	H	0.460746	-0.327205	-0.058956
H208	H	0.960746	0.172795	0.441044
H209	H	0.401574	-0.277922	-0.000241
H210	H	0.901574	0.222078	0.499759
N211	N	0.232194	-0.247495	0.114994
N212	N	0.732194	0.252505	0.614994
H213	H	0.181758	-0.237048	0.106569
H214	H	0.681758	0.262952	0.606569
H215	H	0.245674	-0.239376	0.184182
H216	H	0.745674	0.260624	0.684182
