data_functionalizedCrystal
_audit_creation_method	'MofGen! by Chris Wilmer'
_symmetry_space_group_name_H-M	'P1'
_symmetry_Int_Tables_number	1
_symmetry_cell_setting	triclinic
loop_
_symmetry_equiv_pos_as_xyz
  x,y,z
_cell_length_a	6.817900
_cell_length_b	11.102289
_cell_length_c	14.858572
_cell_angle_alpha	93.467184
_cell_angle_beta	104.524003
_cell_angle_gamma	108.605707
loop_
_atom_site_label
_atom_site_type_symbol
_atom_site_fract_x
_atom_site_fract_y
_atom_site_fract_z
V1	V	-4.064547	-0.176639	-0.289960
O2	O	-4.024474	0.007665	-0.284441
O3	O	-4.041646	-0.349454	-0.287977
O4	O	-4.020838	-0.174283	-0.416422
O5	O	-4.045427	-0.168718	-0.155106
V6	V	-4.544264	-0.154551	-0.273830
O7	O	-4.334156	-0.225090	-0.325342
O8	O	-4.724852	-0.106100	-0.238449
O9	O	-4.343959	0.018263	-0.275814
O10	O	-4.701733	-0.338855	-0.279350
O11	O	-4.680781	-0.162472	-0.408684
O12	O	-4.364767	-0.156907	-0.147369
C13	C	-3.892698	-0.391571	-0.283402
C14	C	-3.955291	-0.532852	-0.282624
C15	C	-3.866154	-0.168122	-0.447246
C16	C	-3.911868	-0.167339	-0.550629
C17	C	-4.167953	-0.605712	-0.286897
C18	C	-4.226758	-0.738461	-0.286174
C19	C	-3.860216	-0.725477	-0.276899
C20	C	-3.801418	-0.592732	-0.277630
C21	C	-4.379572	-0.613208	-0.292248
C22	C	-4.438377	-0.745957	-0.291524
C23	C	-4.079186	-0.164478	-0.929197
C24	C	-4.032624	-0.165274	-0.823867
C25	C	-3.995529	-0.165910	-0.739916
C26	C	-3.948964	-0.166703	-0.634580
C27	C	-4.156249	0.060374	-0.280385
C28	C	-4.072895	0.201653	-0.281170
C29	C	-4.182793	-0.163073	-0.116540
C30	C	-4.116316	-0.163849	-0.013156
H31	H	-3.734947	-0.774249	-0.272834
H32	H	-4.559022	-0.804014	-0.360422
H33	H	-4.499978	-0.770751	-0.227998
O34	O	-4.391922	-0.549390	-0.213968
C35	C	-4.201113	-0.386978	-0.077220
C36	C	-4.186827	-0.459179	-0.165828
H37	H	-4.035327	-0.314007	-0.038283
H38	H	-4.257512	-0.458563	-0.029204
H39	H	-4.321139	-0.334849	-0.098615
H40	H	-4.066783	-0.511309	-0.144519
H41	H	-4.130529	-0.387533	-0.213822
H42	H	-3.628259	-0.533416	-0.274160
H43	H	-4.480479	-0.594174	-0.359883
