data_functionalizedCrystal
_audit_creation_method	'MofGen! by Chris Wilmer'
_symmetry_space_group_name_H-M	'P1'
_symmetry_Int_Tables_number	1
_symmetry_cell_setting	triclinic
loop_
_symmetry_equiv_pos_as_xyz
  x,y,z
_cell_length_a	23.532407
_cell_length_b	22.610064
_cell_length_c	23.532407
_cell_angle_alpha	89.999397
_cell_angle_beta	97.151322
_cell_angle_gamma	90.002839
loop_
_atom_site_label
_atom_site_type_symbol
_atom_site_fract_x
_atom_site_fract_y
_atom_site_fract_z
O1	O	0.755263	0.049117	-0.069127
O2	O	1.088597	0.382450	0.264206
O3	O	1.421930	0.715783	0.597540
O4	O	0.589400	0.049135	-0.079130
O5	O	0.922733	0.382468	0.254203
O6	O	1.256067	0.715802	0.587536
O7	O	0.677333	0.049114	0.008803
O8	O	1.010667	0.382448	0.342136
O9	O	1.344000	0.715781	0.675470
O10	O	0.667330	0.049137	-0.157060
O11	O	1.000664	0.382471	0.176273
O12	O	1.333997	0.715804	0.509606
O13	O	0.677318	-0.049255	0.008790
O14	O	1.010651	0.284079	0.342124
O15	O	1.343985	0.617412	0.675457
O16	O	0.589385	-0.049234	-0.079143
O17	O	0.922718	0.284099	0.254190
O18	O	1.256051	0.617432	0.587524
O19	O	0.755248	-0.049252	-0.069140
O20	O	1.088581	0.284081	0.264193
O21	O	1.421915	0.617414	0.597527
Zn22	Zn	0.672314	-0.064862	-0.074144
Zn23	Zn	1.005647	0.268472	0.259190
Zn24	Zn	1.338980	0.601805	0.592523
Zn25	Zn	0.672334	0.064744	-0.074127
Zn26	Zn	1.005668	0.398077	0.259207
Zn27	Zn	1.339001	0.731411	0.592540
O28	O	0.667315	-0.049232	-0.157073
O29	O	1.000648	0.284101	0.176260
O30	O	1.333981	0.617435	0.509593
C31	C	0.568176	-0.000048	-0.078882
C32	C	0.901510	0.333286	0.254451
C33	C	1.234843	0.666619	0.587785
C34	C	0.504959	-0.000041	-0.078116
C35	C	0.838293	0.333292	0.255217
C36	C	1.171626	0.666626	0.588551
N37	N	0.672304	-0.153314	-0.074155
N38	N	1.005637	0.180019	0.259179
N39	N	1.338971	0.513353	0.592512
C40	C	0.105856	-0.000061	-0.125350
C41	C	0.439190	0.333272	0.207984
C42	C	0.772523	0.666605	0.541317
C43	C	0.046456	-0.000065	-0.124638
C44	C	0.379789	0.333268	0.208695
C45	C	0.713123	0.666602	0.542029
O46	O	0.009711	-0.000081	-0.168424
O47	O	0.343045	0.333253	0.164909
O48	O	0.676378	0.666586	0.498243
N49	N	0.023830	-0.000071	-0.072362
N50	N	0.357163	0.333262	0.260972
N51	N	0.690496	0.666595	0.594305
C52	C	0.060607	-0.000080	-0.020794
C53	C	0.393941	0.333254	0.312540
C54	C	0.727274	0.666587	0.645873
O55	O	0.035908	-0.000086	0.023737
O56	O	0.369241	0.333247	0.357070
O57	O	0.702574	0.666581	0.690404
C58	C	0.120006	-0.000080	-0.021506
C59	C	0.453340	0.333253	0.311828
C60	C	0.786673	0.666586	0.645161
C61	C	0.142629	-0.000068	-0.073785
C62	C	0.475962	0.333265	0.259548
C63	C	0.809296	0.666599	0.592881
C64	C	0.128479	-0.000050	-0.177625
C65	C	0.461813	0.333284	0.155708
C66	C	0.795146	0.666617	0.489042
C67	C	0.187876	-0.000045	-0.178336
C68	C	0.521209	0.333288	0.154997
C69	C	0.854542	0.666622	0.488330
C70	C	0.224649	-0.000052	-0.126772
C71	C	0.557982	0.333282	0.206561
C72	C	0.891315	0.666615	0.539895
C73	C	0.202025	-0.000063	-0.074497
C74	C	0.535359	0.333270	0.258837
C75	C	0.868692	0.666603	0.592170
C76	C	0.156783	-0.000093	0.030062
C77	C	0.490116	0.333240	0.363395
C78	C	0.823450	0.666574	0.696729
C79	C	0.216185	-0.000094	0.029345
C80	C	0.549519	0.333239	0.362679
C81	C	0.882852	0.666573	0.696012
C82	C	0.238808	-0.000082	-0.022934
C83	C	0.572141	0.333252	0.310399
C84	C	0.905475	0.666585	0.643732
C85	C	0.298194	-0.000065	-0.023643
C86	C	0.631528	0.333268	0.309690
C87	C	0.964861	0.666602	0.643023
N88	N	0.320820	-0.000059	-0.075920
N89	N	0.654154	0.333274	0.257414
N90	N	0.987487	0.666608	0.590747
C91	C	0.284048	-0.000052	-0.127484
C92	C	0.617381	0.333281	0.205849
C93	C	0.950714	0.666614	0.539183
C94	C	-0.064135	-0.000080	-0.019302
C95	C	0.269198	0.333254	0.314031
C96	C	0.602532	0.666587	0.647365
C97	C	-0.123533	-0.000075	-0.018589
C98	C	0.209800	0.333258	0.314744
C99	C	0.543134	0.666592	0.648077
C100	C	-0.137680	-0.000061	-0.122434
C101	C	0.195653	0.333272	0.210899
C102	C	0.528986	0.666605	0.544232
C103	C	-0.078281	-0.000062	-0.123146
C104	C	0.255052	0.333271	0.210187
C105	C	0.588385	0.666605	0.543520
C106	C	-0.041509	-0.000074	-0.071578
C107	C	0.291824	0.333260	0.261755
C108	C	0.625158	0.666593	0.595088
C109	C	0.408784	-0.000042	-0.128974
C110	C	0.742118	0.333292	0.204360
C111	C	1.075451	0.666625	0.537693
C112	C	0.468186	-0.000034	-0.129680
C113	C	0.801520	0.333299	0.203653
C114	C	1.134853	0.666632	0.536986
C115	C	0.482329	-0.000051	-0.025836
C116	C	0.815662	0.333282	0.307497
C117	C	1.148995	0.666616	0.640831
C118	C	0.422932	-0.000055	-0.025129
C119	C	0.756265	0.333278	0.308204
C120	C	1.089598	0.666611	0.641538
C121	C	0.386160	-0.000052	-0.076702
C122	C	0.719494	0.333281	0.256631
C123	C	1.052827	0.666614	0.589964
O124	O	0.334974	-0.000052	0.020119
O125	O	0.668307	0.333281	0.353453
O126	O	1.001640	0.666615	0.686786
O127	O	0.308755	-0.000054	-0.172007
O128	O	0.642089	0.333279	0.161326
O129	O	0.975422	0.666613	0.494660
C130	C	0.711273	-0.561965	-0.035196
C131	C	1.044606	-0.228631	0.298138
C132	C	1.377940	0.104702	0.631471
C133	C	0.711276	-0.623884	-0.035192
C134	C	1.044609	-0.290551	0.298142
C135	C	1.377942	0.042782	0.631475
O136	O	0.744384	-0.655911	-0.002076
O137	O	1.077718	-0.322578	0.331258
O138	O	1.411051	0.010756	0.664591
N139	N	0.672334	-0.654851	-0.074115
N140	N	1.005667	-0.321518	0.259219
N141	N	1.339001	0.011815	0.592552
C142	C	0.633383	-0.623895	-0.113041
C143	C	0.966716	-0.290562	0.220292
C144	C	1.300049	0.042772	0.553626
O145	O	0.600259	-0.655920	-0.146147
O146	O	0.933593	-0.322587	0.187186
O147	O	1.266926	0.010746	0.520519
C148	C	0.633377	-0.561976	-0.113042
C149	C	0.966711	-0.228643	0.220291
C150	C	1.300044	0.104691	0.553625
C151	C	0.672326	-0.531013	-0.074120
C152	C	1.005659	-0.197679	0.259213
C153	C	1.338992	0.135654	0.592547
C154	C	0.750218	-0.531001	0.003724
C155	C	1.083551	-0.197668	0.337057
C156	C	1.416884	0.135666	0.670390
C157	C	0.750215	-0.469085	0.003719
C158	C	1.083549	-0.135752	0.337052
C159	C	1.416882	0.197581	0.670385
C160	C	0.711268	-0.438133	-0.035206
C161	C	1.044601	-0.104800	0.298128
C162	C	1.377935	0.228533	0.631461
C163	C	0.672323	-0.469097	-0.074125
C164	C	1.005657	-0.135764	0.259208
C165	C	1.338990	0.197570	0.592542
C166	C	0.594424	-0.531021	-0.151965
C167	C	0.927757	-0.197688	0.181369
C168	C	1.261091	0.135646	0.514702
C169	C	0.594422	-0.469098	-0.151962
C170	C	0.927755	-0.135765	0.181371
C171	C	1.261089	0.197569	0.514705
C172	C	0.633370	-0.438134	-0.113040
C173	C	0.966704	-0.104801	0.220293
C174	C	1.300037	0.228532	0.553626
C175	C	0.633374	-0.376229	-0.113054
C176	C	0.966707	-0.042896	0.220279
C177	C	1.300041	0.290437	0.553613
N178	N	0.672316	-0.345262	-0.074131
N179	N	1.005649	-0.011929	0.259202
N180	N	1.338983	0.321404	0.592536
C181	C	0.711263	-0.376214	-0.035207
C182	C	1.044596	-0.042881	0.298127
C183	C	1.377930	0.290452	0.631460
C184	C	0.633396	-0.753928	-0.113035
C185	C	0.966729	-0.420595	0.220298
C186	C	1.300063	-0.087262	0.553631
C187	C	0.633403	-0.815846	-0.113037
C188	C	0.966737	-0.482513	0.220296
C189	C	1.300070	-0.149179	0.553629
C190	C	0.711296	-0.815831	-0.035187
C191	C	1.044629	-0.482498	0.298146
C192	C	1.377962	-0.149165	0.631479
C193	C	0.711291	-0.753913	-0.035188
C194	C	1.044624	-0.420579	0.298145
C195	C	1.377957	-0.087246	0.631479
C196	C	0.672338	-0.722962	-0.074112
C197	C	1.005671	-0.389628	0.259221
C198	C	1.339004	-0.056295	0.592555
C199	C	0.711255	-0.246187	-0.035220
C200	C	1.044589	0.087146	0.298113
C201	C	1.377922	0.420480	0.631446
C202	C	0.711251	-0.184266	-0.035230
C203	C	1.044584	0.149067	0.298103
C204	C	1.377918	0.482401	0.631436
C205	C	0.633357	-0.184286	-0.113078
C206	C	0.966690	0.149047	0.220255
C207	C	1.300023	0.482381	0.553588
C208	C	0.633363	-0.246202	-0.113071
C209	C	0.966696	0.087131	0.220263
C210	C	1.300029	0.420465	0.553596
C211	C	0.672314	-0.277151	-0.074137
C212	C	1.005648	0.056182	0.259196
C213	C	1.338981	0.389516	0.592530
O214	O	0.600281	-0.344163	-0.146152
O215	O	0.933614	-0.010830	0.187182
O216	O	1.266948	0.322503	0.520515
O217	O	0.744376	-0.344182	-0.002101
O218	O	1.077709	-0.010848	0.331233
O219	O	1.411042	0.322485	0.664566
C220	C	0.776472	-0.000069	-0.069388
C221	C	1.109805	0.333265	0.263945
C222	C	1.443138	0.666598	0.597278
C223	C	0.839689	-0.000071	-0.070154
C224	C	1.173022	0.333262	0.263179
C225	C	1.506355	0.666595	0.596513
C226	C	0.677071	-0.000072	0.030013
C227	C	1.010404	0.333262	0.363346
C228	C	1.343738	0.666595	0.696679
C229	C	0.676305	-0.000076	0.093230
C230	C	1.009638	0.333257	0.426563
C231	C	1.342972	0.666591	0.759896
N232	N	0.672349	0.153196	-0.074111
N233	N	1.005682	0.486530	0.259222
N234	N	1.339015	0.819863	0.592556
C235	C	0.667577	-0.000045	-0.178283
C236	C	1.000910	0.333289	0.155051
C237	C	1.334244	0.666622	0.488384
C238	C	0.668343	-0.000036	-0.241500
C239	C	1.001676	0.333297	0.091833
C240	C	1.335010	0.666630	0.425167
C241	C	0.723539	-0.000049	0.492333
C242	C	1.056872	0.333284	0.825666
C243	C	1.390205	0.666618	1.158999
C244	C	0.722827	-0.000044	0.551733
C245	C	1.056160	0.333289	0.885066
C246	C	1.389494	0.666622	1.218400
O247	O	0.766613	-0.000027	0.588478
O248	O	1.099946	0.333306	0.921811
O249	O	1.433280	0.666639	1.255144
N250	N	0.670551	-0.000039	0.574359
N251	N	1.003884	0.333294	0.907693
N252	N	1.337217	0.666628	1.241026
C253	C	0.618983	-0.000032	0.537582
C254	C	0.952316	0.333301	0.870915
C255	C	1.285649	0.666634	1.204248
O256	O	0.574452	-0.000027	0.562281
O257	O	0.907785	0.333307	0.895615
O258	O	1.241119	0.666640	1.228948
C259	C	0.619695	-0.000033	0.478182
C260	C	0.953028	0.333301	0.811516
C261	C	1.286361	0.666634	1.144849
C262	C	0.671974	-0.000044	0.455560
C263	C	1.005308	0.333289	0.788893
C264	C	1.338641	0.666623	1.122227
C265	C	0.775814	-0.000060	0.469710
C266	C	1.109147	0.333274	0.803043
C267	C	1.442481	0.666607	1.136376
C268	C	0.776525	-0.000065	0.410313
C269	C	1.109859	0.333268	0.743647
C270	C	1.443192	0.666601	1.076980
C271	C	0.724961	-0.000060	0.373540
C272	C	1.058294	0.333273	0.706874
C273	C	1.391628	0.666606	1.040207
C274	C	0.672685	-0.000050	0.396164
C275	C	1.006019	0.333284	0.729497
C276	C	1.339352	0.666617	1.062830
C277	C	0.568127	-0.000022	0.441406
C278	C	0.901460	0.333312	0.774739
C279	C	1.234794	0.666645	1.108073
C280	C	0.568844	-0.000021	0.382004
C281	C	0.902177	0.333312	0.715337
C282	C	1.235510	0.666645	1.048670
C283	C	0.621123	-0.000033	0.359381
C284	C	0.954457	0.333301	0.692714
C285	C	1.287790	0.666634	1.026048
C286	C	0.621832	-0.000050	0.299995
C287	C	0.955166	0.333283	0.633328
C288	C	1.288499	0.666616	0.966661
N289	N	0.674109	-0.000056	0.277368
N290	N	1.007442	0.333278	0.610702
N291	N	1.340775	0.666611	0.944035
C292	C	0.725673	-0.000061	0.314141
C293	C	1.059006	0.333273	0.647475
C294	C	1.392340	0.666606	0.980808
C295	C	0.617491	-0.000031	0.662324
C296	C	0.950824	0.333303	0.995657
C297	C	1.284158	0.666636	1.328991
C298	C	0.616778	-0.000034	0.721722
C299	C	0.950112	0.333299	1.055055
C300	C	1.283445	0.666632	1.388389
C301	C	0.720623	-0.000045	0.735869
C302	C	1.053957	0.333288	1.069203
C303	C	1.387290	0.666621	1.402536
C304	C	0.721335	-0.000046	0.676470
C305	C	1.054669	0.333288	1.009804
C306	C	1.388002	0.666621	1.343137
C307	C	0.669767	-0.000036	0.639698
C308	C	1.003101	0.333298	0.973031
C309	C	1.336434	0.666631	1.306365
C310	C	0.727163	-0.000073	0.189405
C311	C	1.060496	0.333260	0.522738
C312	C	1.393829	0.666594	0.856071
C313	C	0.727869	-0.000081	0.130003
C314	C	1.061203	0.333252	0.463336
C315	C	1.394536	0.666586	0.796669
C316	C	0.624025	-0.000067	0.115860
C317	C	0.957358	0.333266	0.449194
C318	C	1.290692	0.666600	0.782527
C319	C	0.623318	-0.000062	0.175257
C320	C	0.956651	0.333271	0.508591
C321	C	1.289985	0.666605	0.841924
C322	C	0.674891	-0.000063	0.212029
C323	C	1.008225	0.333270	0.545362
C324	C	1.341558	0.666604	0.878695
O325	O	0.578070	-0.000065	0.263215
O326	O	0.911403	0.333268	0.596549
O327	O	1.244736	0.666602	0.929882
O328	O	0.770196	-0.000058	0.289433
O329	O	1.103529	0.333275	0.622767
O330	O	1.436863	0.666608	0.956100
H331	H	0.486602	-0.000024	-0.172255
H332	H	0.819935	0.333309	0.161079
H333	H	1.153269	0.666643	0.494412
Br334	Br	0.358890	-0.000039	-0.198967
Br335	Br	0.692223	0.333294	0.134366
Br336	Br	1.025556	0.666628	0.467700
Br337	Br	-0.047586	-0.000046	-0.194099
Br338	Br	0.285748	0.333288	0.139234
Br339	Br	0.619081	0.666621	0.472567
Br340	Br	0.218568	-0.000031	-0.249291
Br341	Br	0.551901	0.333302	0.084042
Br342	Br	0.885235	0.666636	0.417376
Br343	Br	0.126097	-0.000097	0.101018
Br344	Br	0.459430	0.333237	0.434351
Br345	Br	0.792763	0.666570	0.767684
Br346	Br	0.266088	-0.000113	0.099335
Br347	Br	0.599421	0.333221	0.432668
Br348	Br	0.932755	0.666554	0.766001
H349	H	-0.167632	-0.000059	-0.164421
H350	H	0.165701	0.333275	0.168913
H351	H	0.499035	0.666608	0.502246
Br352	Br	-0.154227	-0.000074	0.052364
Br353	Br	0.179106	0.333260	0.385698
Br354	Br	0.512439	0.666593	0.719031
Br355	Br	-0.014235	-0.000090	0.050690
Br356	Br	0.319099	0.333243	0.384023
Br357	Br	0.652432	0.666576	0.717357
Br358	Br	0.078583	-0.000041	-0.247615
Br359	Br	0.411917	0.333293	0.085718
Br360	Br	0.745250	0.666626	0.419052
H361	H	0.562700	-0.443901	-0.183658
H362	H	0.896033	-0.110567	0.149675
H363	H	1.229367	0.222766	0.483009
Br364	Br	0.580510	-0.288222	-0.165902
Br365	Br	0.913844	0.045111	0.167431
Br366	Br	1.247177	0.378444	0.500764
Br367	Br	0.392228	-0.000074	0.045822
Br368	Br	0.725562	0.333260	0.379156
Br369	Br	1.058895	0.666593	0.712489
H370	H	0.770443	-0.000092	0.111587
H371	H	1.103777	0.333241	0.444920
H372	H	1.437110	0.666575	0.778254
Br373	Br	0.498854	-0.000005	0.332101
Br374	Br	0.832188	0.333328	0.665434
Br375	Br	1.165521	0.666661	0.998768
Br376	Br	0.552367	-0.000060	0.205961
Br377	Br	0.885700	0.333273	0.539294
Br378	Br	1.219033	0.666606	0.872627
Br379	Br	0.803080	-0.572997	0.056557
Br380	Br	1.136414	-0.239663	0.389890
Br381	Br	1.469747	0.093670	0.723224
H382	H	0.512280	-0.000054	0.016146
H383	H	0.845613	0.333279	0.349480
H384	H	1.178946	0.666612	0.682813
Br385	Br	0.764115	-0.142247	0.017593
Br386	Br	1.097448	0.191086	0.350927
Br387	Br	1.430782	0.524420	0.684260
H388	H	0.742973	-0.271379	-0.003516
H389	H	1.076306	0.061954	0.329817
H390	H	1.409639	0.395288	0.663150
H391	H	0.762610	-0.000047	0.765821
H392	H	1.095943	0.333286	1.099154
H393	H	1.429276	0.666620	1.432488
H394	H	0.817806	-0.000061	0.499645
H395	H	1.151140	0.333272	0.832978
H396	H	1.484473	0.666605	1.166312
H397	H	0.743005	-0.728706	-0.003494
H398	H	1.076339	-0.395372	0.329839
H399	H	1.409672	-0.062039	0.663172
Br400	Br	0.803072	-0.427070	0.056546
Br401	Br	1.136406	-0.093737	0.389879
Br402	Br	1.469739	0.239597	0.723212
Br403	Br	0.797156	-0.000074	0.239299
Br404	Br	1.130489	0.333260	0.572633
Br405	Br	1.463823	0.666593	0.905966
H406	H	0.819097	-0.000072	0.391900
H407	H	1.152430	0.333261	0.725233
H408	H	1.485763	0.666595	1.058567
H409	H	0.582043	-0.000065	0.085909
H410	H	0.915376	0.333268	0.419243
H411	H	1.248709	0.666602	0.752576
H412	H	0.743008	-0.841044	-0.003492
H413	H	1.076341	-0.507710	0.329841
H414	H	1.409675	-0.174377	0.663175
H415	H	0.763906	-0.000054	0.658056
H416	H	1.097239	0.333279	0.991389
H417	H	1.430573	0.666612	1.324722
H418	H	0.601694	-0.841052	-0.144737
H419	H	0.935027	-0.507719	0.188596
H420	H	1.268361	-0.174386	0.521930
Br421	Br	0.580530	-0.711929	-0.165869
Br422	Br	0.913863	-0.378596	0.167464
Br423	Br	1.247196	-0.045263	0.500798
Br424	Br	0.541563	-0.573030	-0.204790
Br425	Br	0.874896	-0.239697	0.128544
Br426	Br	1.208230	0.093636	0.461877
H427	H	0.574207	-0.000035	0.740136
H428	H	0.907540	0.333298	1.073469
H429	H	1.240874	0.666631	1.406802
H430	H	0.601648	-0.159075	-0.144772
H431	H	0.934981	0.174258	0.188562
H432	H	1.268315	0.507591	0.521895
H433	H	0.575496	-0.000028	0.632386
H434	H	0.908829	0.333306	0.965720
H435	H	1.242162	0.666639	1.299053
H436	H	0.525555	-0.000009	0.459814
H437	H	0.858889	0.333325	0.793148
H438	H	1.192222	0.666658	1.126481
