data_functionalizedCrystal
_audit_creation_method	'MofGen! by Chris Wilmer'
_symmetry_space_group_name_H-M	'P1'
_symmetry_Int_Tables_number	1
_symmetry_cell_setting	triclinic
loop_
_symmetry_equiv_pos_as_xyz
  x,y,z
_cell_length_a	19.805407
_cell_length_b	25.639239
_cell_length_c	19.805399
_cell_angle_alpha	89.971274
_cell_angle_beta	89.980427
_cell_angle_gamma	90.038686
loop_
_atom_site_label
_atom_site_type_symbol
_atom_site_fract_x
_atom_site_fract_y
_atom_site_fract_z
Zn1	Zn	1.034678	-0.208163	-0.382714
Zn2	Zn	1.368011	0.125170	-0.049381
Zn3	Zn	1.701345	0.458504	0.283952
Zn4	Zn	1.034569	-0.295597	-0.269524
Zn5	Zn	1.367902	0.037736	0.063810
Zn6	Zn	1.701235	0.371070	0.397143
Zn7	Zn	0.921493	-0.208177	-0.269539
Zn8	Zn	1.254826	0.125156	0.063795
Zn9	Zn	1.588159	0.458489	0.397128
Zn10	Zn	0.921432	-0.295569	-0.382670
Zn11	Zn	1.254765	0.037764	-0.049337
Zn12	Zn	1.588099	0.371098	0.283996
O13	O	0.978043	-0.251877	-0.326112
O14	O	1.311376	0.081457	0.007222
O15	O	1.644709	0.414790	0.340555
O16	O	1.129380	-0.219767	-0.367711
O17	O	1.462713	0.113567	-0.034378
O18	O	1.796047	0.446900	0.298955
O19	O	1.019548	-0.284018	-0.174809
O20	O	1.352882	0.049315	0.158524
O21	O	1.686215	0.382648	0.491858
O22	O	0.936578	-0.135010	-0.284576
O23	O	1.269911	0.198323	0.048757
O24	O	1.603245	0.531656	0.382090
O25	O	1.129300	-0.284004	-0.284551
O26	O	1.462633	0.049329	0.048783
O27	O	1.795966	0.382662	0.382116
O28	O	1.019735	-0.135000	-0.367726
O29	O	1.353068	0.198334	-0.034393
O30	O	1.686402	0.531667	0.298941
O31	O	0.936472	-0.219791	-0.174820
O32	O	1.269805	0.113542	0.158513
O33	O	1.603139	0.446875	0.491846
O34	O	0.826768	-0.219764	-0.284534
O35	O	1.160101	0.113569	0.048799
O36	O	1.493435	0.446902	0.382133
O37	O	0.936475	-0.283957	-0.477393
O38	O	1.269808	0.049376	-0.144060
O39	O	1.603141	0.382710	0.189274
O40	O	0.826723	-0.283971	-0.367651
O41	O	1.160057	0.049362	-0.034318
O42	O	1.493390	0.382696	0.299015
O43	O	1.019676	-0.219740	-0.477425
O44	O	1.353009	0.113593	-0.144092
O45	O	1.686343	0.446927	0.189242
O46	O	1.019489	-0.368758	-0.284508
O47	O	1.352823	-0.035425	0.048825
O48	O	1.686156	0.297908	0.382158
O49	O	0.936368	-0.368738	-0.367637
O50	O	1.269702	-0.035405	-0.034303
O51	O	1.603035	0.297929	0.299030
C52	C	0.802187	-0.251867	-0.326090
C53	C	1.135520	0.081467	0.007243
C54	C	1.468853	0.414800	0.340577
C55	C	0.726955	-0.251875	-0.326097
C56	C	1.060288	0.081458	0.007237
C57	C	1.393621	0.414792	0.340570
C58	C	0.691605	-0.285357	-0.369306
C59	C	1.024938	0.047976	-0.035972
C60	C	1.358272	0.381309	0.297361
C61	C	0.620917	-0.285358	-0.369315
C62	C	0.954250	0.047975	-0.035982
C63	C	1.287583	0.381308	0.297351
C64	C	0.585579	-0.251879	-0.326112
C65	C	0.918912	0.081454	0.007222
C66	C	1.252246	0.414788	0.340555
C67	C	0.620934	-0.218393	-0.282901
C68	C	0.954267	0.114941	0.050433
C69	C	1.287600	0.448274	0.383766
C70	C	0.691621	-0.218390	-0.282895
C71	C	1.024954	0.114944	0.050438
C72	C	1.358288	0.448277	0.383772
C73	C	0.335860	-0.218404	-0.282923
C74	C	0.669194	0.114929	0.050410
C75	C	1.002527	0.448262	0.383744
C76	C	0.265168	-0.218411	-0.282931
C77	C	0.598502	0.114922	0.050403
C78	C	0.931835	0.448256	0.383736
C79	C	0.265156	-0.285373	-0.369343
C80	C	0.598489	0.047960	-0.036010
C81	C	0.931823	0.381294	0.297323
C82	C	0.335843	-0.285370	-0.369338
C83	C	0.669177	0.047963	-0.036004
C84	C	1.002510	0.381297	0.297329
C85	C	0.371192	-0.251882	-0.326129
C86	C	0.704525	0.081451	0.007204
C87	C	1.037858	0.414785	0.340537
C88	C	0.447840	-0.251881	-0.326121
C89	C	0.781174	0.081453	0.007213
C90	C	1.114507	0.414786	0.340546
C91	C	0.508932	-0.251883	-0.326117
C92	C	0.842265	0.081451	0.007217
C93	C	1.175599	0.414784	0.340550
C94	C	0.977929	-0.387719	-0.326081
C95	C	1.311262	-0.054386	0.007253
C96	C	1.644596	0.278947	0.340586
C97	C	0.977942	-0.445833	-0.326090
C98	C	1.311275	-0.112500	0.007243
C99	C	1.644609	0.220833	0.340576
C100	C	1.021437	-0.806194	-0.282901
C101	C	1.354770	-0.472861	0.050433
C102	C	1.688103	-0.139528	0.383766
C103	C	1.021463	-0.860799	-0.282910
C104	C	1.354796	-0.527465	0.050424
C105	C	1.688130	-0.194132	0.383757
O106	O	1.058326	-0.889034	-0.246154
O107	O	1.391659	-0.555700	0.087179
O108	O	1.724992	-0.222367	0.420512
N109	N	0.978162	-0.888116	-0.326157
N110	N	1.311495	-0.554782	0.007177
N111	N	1.644828	-0.221449	0.340510
C112	C	0.934836	-0.860825	-0.369402
C113	C	1.268169	-0.527492	-0.036069
C114	C	1.601503	-0.194159	0.297264
O115	O	0.898008	-0.889075	-0.406189
O116	O	1.231341	-0.555741	-0.072855
O117	O	1.564675	-0.222408	0.260478
C118	C	0.934814	-0.806222	-0.369396
C119	C	1.268147	-0.472889	-0.036063
C120	C	1.601481	-0.139556	0.297271
C121	C	0.978113	-0.778908	-0.326141
C122	C	1.311446	-0.445575	0.007192
C123	C	1.644780	-0.112241	0.340525
C124	C	1.064733	-0.778880	-0.239650
C125	C	1.398066	-0.445547	0.093683
C126	C	1.731400	-0.112213	0.427017
C127	C	1.064706	-0.724279	-0.239640
C128	C	1.398039	-0.390946	0.093693
C129	C	1.731372	-0.057613	0.427026
C130	C	1.021382	-0.696993	-0.282881
C131	C	1.354716	-0.363660	0.050452
C132	C	1.688049	-0.030327	0.383786
C133	C	0.978086	-0.724307	-0.326132
C134	C	1.311419	-0.390974	0.007202
C135	C	1.644753	-0.057641	0.340535
C136	C	0.891492	-0.778933	-0.412645
C137	C	1.224826	-0.445600	-0.079311
C138	C	1.558159	-0.112266	0.254022
C139	C	0.891474	-0.724326	-0.412635
C140	C	1.224807	-0.390993	-0.079302
C141	C	1.558141	-0.057659	0.254031
C142	C	0.934773	-0.697012	-0.369381
C143	C	1.268107	-0.363679	-0.036047
C144	C	1.601440	-0.030345	0.297286
C145	C	0.934735	-0.642421	-0.369363
C146	C	1.268068	-0.309087	-0.036029
C147	C	1.601402	0.024246	0.297304
N148	N	0.978036	-0.615104	-0.326116
N149	N	1.311370	-0.281770	0.007218
N150	N	1.644703	0.051563	0.340551
C151	C	1.021360	-0.642390	-0.282875
C152	C	1.354693	-0.309057	0.050458
C153	C	1.688027	0.024277	0.383792
C154	C	0.934887	-0.975496	-0.369413
C155	C	1.268220	-0.642163	-0.036079
C156	C	1.601554	-0.308829	0.297254
C157	C	0.934906	-1.030098	-0.369416
C158	C	1.268239	-0.696765	-0.036083
C159	C	1.601572	-0.363432	0.297251
C160	C	1.021533	-1.030068	-0.282924
C161	C	1.354867	-0.696734	0.050409
C162	C	1.688200	-0.363401	0.383743
C163	C	1.021511	-0.975464	-0.282918
C164	C	1.354845	-0.642131	0.050415
C165	C	1.688178	-0.308798	0.383749
C166	C	0.978188	-0.948179	-0.326166
C167	C	1.311522	-0.614846	0.007168
C168	C	1.644855	-0.281512	0.340501
C169	C	1.021299	-0.527725	-0.282857
C170	C	1.354632	-0.194392	0.050476
C171	C	1.687966	0.138942	0.383809
C172	C	1.021266	-0.473119	-0.282849
C173	C	1.354599	-0.139786	0.050484
C174	C	1.687932	0.193547	0.383817
C175	C	0.934641	-0.473155	-0.369343
C176	C	1.267974	-0.139822	-0.036010
C177	C	1.601307	0.193512	0.297323
C178	C	0.934671	-0.527756	-0.369349
C179	C	1.268004	-0.194422	-0.036016
C180	C	1.601338	0.138911	0.297317
C181	C	0.978006	-0.555039	-0.326104
C182	C	1.311339	-0.221706	0.007230
C183	C	1.644672	0.111628	0.340563
O184	O	0.897893	-0.614151	-0.406101
O185	O	1.231226	-0.280818	-0.072768
O186	O	1.564560	0.052516	0.260565
O187	O	1.058188	-0.614134	-0.246101
O188	O	1.391522	-0.280801	0.087232
O189	O	1.724855	0.052533	0.420566
C190	C	1.154585	-0.251887	-0.326134
C191	C	1.487919	0.081446	0.007199
C192	C	1.821252	0.414780	0.340532
C193	C	1.229817	-0.251891	-0.326144
C194	C	1.563151	0.081442	0.007190
C195	C	1.896484	0.414775	0.340523
C196	C	0.978081	-0.251844	-0.502655
C197	C	1.311414	0.081490	-0.169321
C198	C	1.644747	0.414823	0.164012
C199	C	0.978097	-0.251830	-0.577887
C200	C	1.311430	0.081504	-0.244553
C201	C	1.644764	0.414837	0.088780
C202	C	0.978175	-0.115504	-0.326158
C203	C	1.311509	0.217830	0.007176
C204	C	1.644842	0.551163	0.340509
C205	C	0.978232	-0.057389	-0.326177
C206	C	1.311565	0.275944	0.007156
C207	C	1.644899	0.609277	0.340489
C208	C	1.021421	-0.218390	-0.613249
C209	C	1.354754	0.114943	-0.279915
C210	C	1.688087	0.448276	0.053418
C211	C	1.021428	-0.218375	-0.683937
C212	C	1.354761	0.114958	-0.350604
C213	C	1.688094	0.448292	-0.017270
C214	C	0.978114	-0.251802	-0.719262
C215	C	1.311447	0.081531	-0.385929
C216	C	1.644780	0.414864	-0.052596
C217	C	0.934785	-0.285243	-0.683895
C218	C	1.268118	0.048090	-0.350562
C219	C	1.601452	0.381423	-0.017229
C220	C	0.934775	-0.285255	-0.613208
C221	C	1.268108	0.048078	-0.279875
C222	C	1.601442	0.381411	0.053459
C223	C	0.934823	-0.285194	-0.968969
C224	C	1.268157	0.048139	-0.635635
C225	C	1.601490	0.381472	-0.302302
C226	C	0.934838	-0.285181	-1.039661
C227	C	1.268171	0.048152	-0.706328
C228	C	1.601504	0.381486	-0.372994
C229	C	1.021476	-0.218314	-1.039698
C230	C	1.354809	0.115019	-0.706364
C231	C	1.688143	0.448353	-0.373031
C232	C	1.021466	-0.218326	-0.969011
C233	C	1.354799	0.115007	-0.635677
C234	C	1.688133	0.448340	-0.302344
C235	C	0.978135	-0.251765	-0.933650
C236	C	1.311468	0.081568	-0.600316
C237	C	1.644802	0.414902	-0.266983
C238	C	0.978127	-0.251780	-0.857001
C239	C	1.311460	0.081553	-0.523668
C240	C	1.644794	0.414886	-0.190335
C241	C	0.978125	-0.251790	-0.795909
C242	C	1.311458	0.081543	-0.462576
C243	C	1.644791	0.414877	-0.129243
C244	C	0.978044	-0.251872	-0.150256
C245	C	1.311377	0.081462	0.183078
C246	C	1.644711	0.414795	0.516411
C247	C	0.978159	-0.251738	-0.075024
C248	C	1.311492	0.081595	0.258309
C249	C	1.644826	0.414928	0.591642
H250	H	1.056525	-0.450882	-0.247624
H251	H	1.389858	-0.117549	0.085710
H252	H	1.723192	0.215785	0.419043
H253	H	1.056587	-0.549933	-0.247644
H254	H	1.389921	-0.216599	0.085689
H255	H	1.723254	0.116734	0.419022
H256	H	0.236367	-0.312639	-0.404528
H257	H	0.569700	0.020695	-0.071195
H258	H	0.903034	0.354028	0.262139
C259	C	1.069100	-0.181606	-0.722836
C260	C	1.402433	0.151728	-0.389502
C261	C	1.735766	0.485061	-0.056169
H262	H	1.062903	-0.186384	-0.769994
H263	H	1.396236	0.146949	-0.436660
H264	H	1.729569	0.480283	-0.103327
H265	H	1.114562	-0.189275	-0.711251
H266	H	1.447895	0.144058	-0.377917
H267	H	1.781229	0.477392	-0.044584
H268	H	1.059239	-0.146472	-0.711267
H269	H	1.392573	0.186862	-0.377934
H270	H	1.725906	0.520195	-0.044601
C271	C	0.887141	-0.322013	-0.722751
C272	C	1.220474	0.011320	-0.389418
C273	C	1.553808	0.344654	-0.056084
H274	H	0.893356	-0.317221	-0.769915
H275	H	1.226690	0.016112	-0.436581
H276	H	1.560023	0.349446	-0.103248
H277	H	0.841669	-0.314362	-0.711162
H278	H	1.175003	0.018972	-0.377828
H279	H	1.508336	0.352305	-0.044495
H280	H	0.897016	-0.357147	-0.711154
H281	H	1.230350	-0.023813	-0.377821
H282	H	1.563683	0.309520	-0.044487
H283	H	1.056756	-0.191085	-1.068497
H284	H	1.390089	0.142249	-0.735164
H285	H	1.723422	0.475582	-0.401830
C286	C	1.112383	-0.808889	-0.192073
C287	C	1.445717	-0.475556	0.141260
C288	C	1.779050	-0.142222	0.474593
H289	H	1.106204	-0.845322	-0.198263
H290	H	1.439537	-0.511989	0.135070
H291	H	1.772871	-0.178656	0.468403
H292	H	1.102491	-0.799960	-0.146591
H293	H	1.435824	-0.466627	0.186742
H294	H	1.769157	-0.133294	0.520076
H295	H	1.157855	-0.799901	-0.202017
H296	H	1.491188	-0.466567	0.131316
H297	H	1.824521	-0.133234	0.464649
C298	C	0.887167	-0.321978	-0.930078
C299	C	1.220501	0.011355	-0.596744
C300	C	1.553834	0.344688	-0.263411
H301	H	0.893357	-0.317197	-0.882919
H302	H	1.226690	0.016137	-0.549586
H303	H	1.560023	0.349470	-0.216253
H304	H	0.897041	-0.357106	-0.941652
H305	H	1.230374	-0.023772	-0.608319
H306	H	1.563708	0.309561	-0.274986
H307	H	0.841698	-0.314318	-0.941659
H308	H	1.175031	0.019015	-0.608326
H309	H	1.508364	0.352348	-0.274992
C310	C	0.226298	-0.181578	-0.235410
C311	C	0.559631	0.151755	0.097923
C312	C	0.892965	0.485089	0.431257
H313	H	0.257474	-0.161629	-0.209681
H314	H	0.590807	0.171704	0.123652
H315	H	0.924140	0.505038	0.456986
H316	H	0.198694	-0.201547	-0.205872
H317	H	0.532028	0.131786	0.127461
H318	H	0.865361	0.465120	0.460794
H319	H	0.198753	-0.158827	-0.261368
H320	H	0.532086	0.174507	0.071966
H321	H	0.865419	0.507840	0.405299
H322	H	0.899563	-0.312402	-1.068421
H323	H	1.232897	0.020931	-0.735087
H324	H	1.566230	0.354264	-0.401754
H325	H	1.056769	-0.953228	-0.247697
H326	H	1.390103	-0.619895	0.085637
H327	H	1.723436	-0.286562	0.418970
C328	C	1.069109	-0.181555	-0.930156
C329	C	1.402442	0.151779	-0.596823
C330	C	1.735775	0.485112	-0.263490
H331	H	1.094908	-0.161633	-0.961341
H332	H	1.428241	0.171701	-0.628008
H333	H	1.761575	0.505034	-0.294675
H334	H	1.098577	-0.201559	-0.902578
H335	H	1.431910	0.131774	-0.569244
H336	H	1.765243	0.465108	-0.235911
H337	H	1.043228	-0.158776	-0.902587
H338	H	1.376561	0.174557	-0.569254
H339	H	1.709894	0.507891	-0.235920
H340	H	0.899365	-0.450930	-0.404548
H341	H	1.232698	-0.117597	-0.071214
H342	H	1.566032	0.215737	0.262119
C343	C	0.374735	-0.181578	-0.235384
C344	C	0.708068	0.151755	0.097949
C345	C	1.041402	0.485088	0.431282
H346	H	0.343563	-0.161647	-0.209649
H347	H	0.676897	0.171687	0.123685
H348	H	1.010230	0.505020	0.457018
H349	H	0.402342	-0.158819	-0.261318
H350	H	0.735676	0.174515	0.072015
H351	H	1.069009	0.507848	0.405349
H352	H	0.402278	-0.201555	-0.205843
H353	H	0.735611	0.131778	0.127490
H354	H	1.068944	0.465112	0.460823
C355	C	0.582065	-0.181568	-0.235376
C356	C	0.915398	0.151766	0.097958
C357	C	1.248731	0.485099	0.431291
H358	H	0.534903	-0.186369	-0.241561
H359	H	0.868236	0.146965	0.091772
H360	H	1.201569	0.480298	0.425106
H361	H	0.593679	-0.146447	-0.245360
H362	H	0.927012	0.186886	0.087973
H363	H	1.260346	0.520220	0.421307
H364	H	0.593627	-0.189178	-0.189878
H365	H	0.926960	0.144155	0.143455
H366	H	1.260293	0.477489	0.476788
H367	H	0.364612	-0.312634	-0.404516
H368	H	0.697945	0.020699	-0.071183
H369	H	1.031278	0.354033	0.262151
C370	C	0.730506	-0.181558	-0.235366
C371	C	1.063839	0.151775	0.097967
C372	C	1.397172	0.485109	0.431300
H373	H	0.699337	-0.161622	-0.209633
H374	H	1.032671	0.171712	0.123700
H375	H	1.366004	0.505045	0.457034
H376	H	0.758108	-0.158803	-0.261312
H377	H	1.091442	0.174530	0.072021
H378	H	1.424775	0.507863	0.405354
H379	H	0.758053	-0.201528	-0.205822
H380	H	1.091387	0.131806	0.127511
H381	H	1.424720	0.465139	0.460844
H382	H	1.099966	-0.702043	-0.204421
H383	H	1.433299	-0.368710	0.128913
H384	H	1.766632	-0.035377	0.462246
C385	C	0.887120	-0.322038	-0.574307
C386	C	1.220454	0.011295	-0.240973
C387	C	1.553787	0.344629	0.092360
H388	H	0.893313	-0.317254	-0.527149
H389	H	1.226646	0.016079	-0.193816
H390	H	1.559979	0.349413	0.139517
H391	H	0.896990	-0.357167	-0.585879
H392	H	1.230323	-0.023833	-0.252545
H393	H	1.563657	0.309500	0.080788
H394	H	0.841651	-0.314376	-0.585886
H395	H	1.174984	0.018957	-0.252553
H396	H	1.508318	0.352291	0.080780
H397	H	0.720372	-0.312622	-0.404485
H398	H	1.053705	0.020711	-0.071152
H399	H	1.387038	0.354045	0.262182
C400	C	1.069187	-1.060090	-0.235357
C401	C	1.402521	-0.726756	0.097976
C402	C	1.735854	-0.393423	0.431309
H403	H	1.062999	-1.096521	-0.241563
H404	H	1.396332	-0.763187	0.091771
H405	H	1.729666	-0.429854	0.425104
H406	H	1.059304	-1.051171	-0.189870
H407	H	1.392637	-0.717838	0.143464
H408	H	1.725971	-0.384505	0.476797
H409	H	1.114659	-1.051105	-0.245305
H410	H	1.447993	-0.717771	0.088028
H411	H	1.781326	-0.384438	0.421361
H412	H	0.899641	-1.052333	-0.404632
H413	H	1.232974	-0.719000	-0.071299
H414	H	1.566307	-0.385666	0.262035
H415	H	0.899603	-0.953283	-0.404628
H416	H	1.232936	-0.619950	-0.071295
H417	H	1.566270	-0.286616	0.262038
C418	C	1.069064	-0.181617	-0.574397
C419	C	1.402397	0.151716	-0.241064
C420	C	1.735731	0.485050	0.092270
H421	H	1.094861	-0.161696	-0.605584
H422	H	1.428195	0.171638	-0.272251
H423	H	1.761528	0.504971	0.061083
H424	H	1.098533	-0.201620	-0.546818
H425	H	1.431867	0.131713	-0.213485
H426	H	1.765200	0.465047	0.119848
H427	H	1.043183	-0.158838	-0.546828
H428	H	1.376516	0.174495	-0.213495
H429	H	1.709850	0.507829	0.119839
C430	C	0.843867	-0.808967	-0.460231
C431	C	1.177200	-0.475634	-0.126897
C432	C	1.510534	-0.142300	0.206436
H433	H	0.818073	-0.784888	-0.485985
H434	H	1.151406	-0.451555	-0.152651
H435	H	1.484739	-0.118222	0.180682
H436	H	0.814394	-0.830305	-0.434326
H437	H	1.147727	-0.496972	-0.100992
H438	H	1.481061	-0.163639	0.232341
H439	H	0.869757	-0.830230	-0.489753
H440	H	1.203091	-0.496896	-0.156420
H441	H	1.536424	-0.163563	0.176914
H442	H	0.856196	-0.702113	-0.447855
H443	H	1.189529	-0.368780	-0.114522
H444	H	1.522863	-0.035446	0.218812
H445	H	0.899415	-0.549996	-0.404573
H446	H	1.232749	-0.216663	-0.071239
H447	H	1.566082	0.116671	0.262094
H448	H	0.592138	-0.312624	-0.404500
H449	H	0.925471	0.020710	-0.071167
H450	H	1.258805	0.354043	0.262167
