data_functionalizedCrystal
_audit_creation_method	'MofGen! by Chris Wilmer'
_symmetry_space_group_name_H-M	'P1'
_symmetry_Int_Tables_number	1
_symmetry_cell_setting	triclinic
loop_
_symmetry_equiv_pos_as_xyz
  x,y,z
_cell_length_a	14.908571
_cell_length_b	21.395361
_cell_length_c	21.395355
_cell_angle_alpha	90.019049
_cell_angle_beta	86.683490
_cell_angle_gamma	93.273486
loop_
_atom_site_label
_atom_site_type_symbol
_atom_site_fract_x
_atom_site_fract_y
_atom_site_fract_z
Zn1	Zn	1.379191	0.304881	-0.409428
Zn2	Zn	1.712525	0.638214	-0.076095
Zn3	Zn	2.045858	0.971547	0.257239
Zn4	Zn	1.379052	0.409635	-0.304644
Zn5	Zn	1.712385	0.742968	0.028689
Zn6	Zn	2.045718	1.076301	0.362023
Zn7	Zn	1.228315	0.298823	-0.298629
Zn8	Zn	1.561648	0.632157	0.034704
Zn9	Zn	1.894982	0.965490	0.368037
Zn10	Zn	1.228271	0.403565	-0.403353
Zn11	Zn	1.561604	0.736899	-0.070019
Zn12	Zn	1.894938	1.070232	0.263314
O13	O	1.303707	0.354226	-0.354014
O14	O	1.637041	0.687559	-0.020680
O15	O	1.970374	1.020893	0.312653
O16	O	1.505417	0.323851	-0.400588
O17	O	1.838751	0.657185	-0.067254
O18	O	2.172084	0.990518	0.266079
O19	O	1.359016	0.394941	-0.216167
O20	O	1.692349	0.728274	0.117167
O21	O	2.025682	1.061607	0.450500
O22	O	1.248406	0.211952	-0.313353
O23	O	1.581739	0.545285	0.019981
O24	O	1.915073	0.878619	0.353314
O25	O	1.505315	0.400814	-0.323603
O26	O	1.838648	0.734147	0.009730
O27	O	2.171981	1.067480	0.343063
O28	O	1.359254	0.216402	-0.394756
O29	O	1.692588	0.549736	-0.061422
O30	O	2.025921	0.883069	0.271911
O31	O	1.248270	0.313528	-0.211748
O32	O	1.581604	0.646861	0.121586
O33	O	1.914937	0.980195	0.454919
O34	O	1.102065	0.307643	-0.307462
O35	O	1.435398	0.640976	0.025872
O36	O	1.768731	0.974309	0.359205
O37	O	1.248331	0.390469	-0.491838
O38	O	1.581664	0.723803	-0.158505
O39	O	1.914998	1.057136	0.174829
O40	O	1.102032	0.384596	-0.384401
O41	O	1.435366	0.717929	-0.051068
O42	O	1.768699	1.051263	0.282265
O43	O	1.359212	0.317966	-0.496302
O44	O	1.692545	0.651299	-0.162968
O45	O	2.025878	0.984633	0.170365
O46	O	1.358973	0.496504	-0.317712
O47	O	1.692307	0.829838	0.015621
O48	O	2.025640	1.163171	0.348954
O49	O	1.248195	0.492045	-0.390233
O50	O	1.581529	0.825379	-0.056900
O51	O	1.914862	1.158712	0.276433
C52	C	1.069315	0.344804	-0.344620
C53	C	1.402648	0.678137	-0.011287
C54	C	1.735981	1.011471	0.322047
C55	C	0.969040	0.340788	-0.340616
C56	C	1.302374	0.674122	-0.007283
C57	C	1.635707	1.007455	0.326050
C58	C	1.303589	0.517009	-0.353981
C59	C	1.636922	0.850342	-0.020648
C60	C	1.970256	1.183676	0.312686
C61	C	1.303621	0.586651	-0.353991
C62	C	1.636954	0.919985	-0.020658
C63	C	1.970287	1.253318	0.312675
C64	C	1.303782	0.354216	-0.517440
C65	C	1.637115	0.687550	-0.184107
C66	C	1.970449	1.020883	0.149227
C67	C	1.303814	0.354212	-0.587082
C68	C	1.637147	0.687546	-0.253749
C69	C	1.970481	1.020879	0.079584
C70	C	0.780629	0.413498	-0.413103
C71	C	1.113963	0.746832	-0.079769
C72	C	1.447296	1.080165	0.253564
C73	C	0.686413	0.409727	-0.409343
C74	C	1.019746	0.743060	-0.076010
C75	C	1.353079	1.076394	0.257324
C76	C	0.686389	0.329472	-0.329341
C77	C	1.019722	0.662806	0.003992
C78	C	1.353056	0.996139	0.337326
C79	C	0.780606	0.333243	-0.333101
C80	C	1.113939	0.666577	0.000233
C81	C	1.447272	0.999910	0.333566
C82	C	0.827722	0.375258	-0.374982
C83	C	1.161056	0.708592	-0.041649
C84	C	1.494389	1.041925	0.291685
C85	C	0.921941	0.379032	-0.378738
C86	C	1.255274	0.712366	-0.045405
C87	C	1.588607	1.045699	0.287928
C88	C	0.921915	0.298775	-0.298740
C89	C	1.255249	0.632108	0.034594
C90	C	1.588582	0.965441	0.367927
C91	C	0.827699	0.295003	-0.294980
C92	C	1.161032	0.628337	0.038353
C93	C	1.494365	0.961670	0.371686
C94	C	1.539015	0.363685	-0.363444
C95	C	1.872348	0.697019	-0.030111
C96	C	2.205682	1.030352	0.303223
C97	C	1.639289	0.367716	-0.367463
C98	C	1.972623	0.701050	-0.034129
C99	C	2.305956	1.034383	0.299204
C100	C	1.361354	0.621668	-0.316274
C101	C	1.694687	0.955001	0.017059
C102	C	2.028021	1.288334	0.350393
C103	C	1.361396	0.687105	-0.316293
C104	C	1.694730	1.020438	0.017041
C105	C	2.028063	1.353771	0.350374
C106	C	1.303689	0.717522	-0.354021
C107	C	1.637022	1.050856	-0.020688
C108	C	1.970356	1.384189	0.312646
C109	C	1.245952	0.682498	-0.391746
C110	C	1.579285	1.015831	-0.058413
C111	C	1.912619	1.349165	0.274921
C112	C	1.245918	0.617063	-0.391731
C113	C	1.579251	0.950396	-0.058398
C114	C	1.912584	1.283729	0.274936
C115	C	1.222460	0.817977	-0.355686
C116	C	1.555793	1.151310	-0.022353
C117	C	1.889127	1.484643	0.310980
C118	C	1.222493	0.883411	-0.355697
C119	C	1.555826	1.216744	-0.022363
C120	C	1.889159	1.550078	0.310970
C121	C	1.303795	0.919347	-0.354071
C122	C	1.637128	1.252681	-0.020737
C123	C	1.970462	1.586014	0.312596
C124	C	1.385067	0.889842	-0.352421
C125	C	1.718401	1.223175	-0.019088
C126	C	2.051734	1.556508	0.314245
C127	C	1.385033	0.824406	-0.352406
C128	C	1.718367	1.157740	-0.019073
C129	C	2.051700	1.491073	0.314260
C130	C	1.303720	0.788476	-0.354042
C131	C	1.637054	1.121809	-0.020708
C132	C	1.970387	1.455143	0.312625
C133	C	1.361579	1.025318	-0.316372
C134	C	1.694912	1.358652	0.016962
C135	C	2.028246	1.691985	0.350295
C136	C	1.361623	1.090757	-0.316395
C137	C	1.694956	1.424090	0.016939
C138	C	2.028289	1.757423	0.350272
C139	C	1.246170	1.086148	-0.391844
C140	C	1.579504	1.419482	-0.058511
C141	C	1.912837	1.752815	0.274822
C142	C	1.246135	1.020712	-0.391825
C143	C	1.579468	1.354045	-0.058492
C144	C	1.912801	1.687378	0.274842
C145	C	1.303838	0.990300	-0.354085
C146	C	1.637171	1.323634	-0.020752
C147	C	1.970504	1.656967	0.312581
C148	C	1.303852	1.190808	-0.354072
C149	C	1.637185	1.524142	-0.020738
C150	C	1.970518	1.857475	0.312595
C151	C	1.303916	1.121170	-0.354124
C152	C	1.637250	1.454503	-0.020791
C153	C	1.970583	1.787836	0.312542
C154	C	1.361547	0.316458	-0.622121
C155	C	1.694880	0.649791	-0.288787
C156	C	2.028214	0.983125	0.044546
C157	C	1.361546	0.316431	-0.687556
C158	C	1.694879	0.649764	-0.354223
C159	C	2.028213	0.983098	-0.020889
C160	C	1.303821	0.354170	-0.717951
C161	C	1.637154	0.687503	-0.384618
C162	C	1.970488	1.020836	-0.051284
C163	C	1.246077	0.391926	-0.682905
C164	C	1.579410	0.725260	-0.349571
C165	C	1.912743	1.058593	-0.016238
C166	C	1.246073	0.391948	-0.617470
C167	C	1.579407	0.725281	-0.284137
C168	C	1.912740	1.058614	0.049196
C169	C	1.296657	0.410297	-0.821330
C170	C	1.629990	0.743631	-0.487996
C171	C	1.963323	1.076964	-0.154663
C172	C	1.296666	0.410278	-0.886763
C173	C	1.630000	0.743611	-0.553430
C174	C	1.963333	1.076944	-0.220096
C175	C	1.303827	0.354104	-0.919772
C176	C	1.637160	0.687437	-0.586439
C177	C	1.970493	1.020770	-0.253106
C178	C	1.310996	0.297949	-0.887341
C179	C	1.644329	0.631282	-0.554007
C180	C	1.977663	0.964616	-0.220674
C181	C	1.310992	0.297970	-0.821906
C182	C	1.644326	0.631303	-0.488573
C183	C	1.977659	0.964637	-0.155240
C184	C	1.303818	0.354151	-0.788903
C185	C	1.637151	0.687484	-0.455570
C186	C	1.970485	1.020817	-0.122237
C187	C	1.361561	0.316317	-1.025763
C188	C	1.694895	0.649650	-0.692430
C189	C	2.028228	0.982984	-0.359096
C190	C	1.361554	0.316289	-1.091199
C191	C	1.694887	0.649622	-0.757866
C192	C	2.028221	0.982955	-0.424533
C193	C	1.246090	0.391790	-1.086547
C194	C	1.579423	0.725123	-0.753214
C195	C	1.912756	1.058457	-0.419880
C196	C	1.246092	0.391812	-1.021112
C197	C	1.579426	0.725146	-0.687778
C198	C	1.912759	1.058479	-0.354445
C199	C	1.303833	0.354077	-0.990724
C200	C	1.637167	0.687410	-0.657390
C201	C	1.970500	1.020744	-0.324057
C202	C	1.303685	0.354193	-0.191225
C203	C	1.637018	0.687526	0.142108
C204	C	1.970351	1.020859	0.475442
C205	C	1.303827	0.354027	-0.121590
C206	C	1.637161	0.687360	0.211743
C207	C	1.970494	1.020694	0.545077
H208	H	0.960302	0.413244	-0.412839
H209	H	1.293635	0.746578	-0.079506
H210	H	1.626968	1.079911	0.253827
Cl211	Cl	1.434118	0.987084	-0.268928
Cl212	Cl	1.767451	1.320417	0.064405
Cl213	Cl	2.100785	1.653751	0.397738
Cl214	Cl	1.173630	1.124382	-0.439280
Cl215	Cl	1.506963	1.457715	-0.105946
Cl216	Cl	1.840296	1.791048	0.227387
H217	H	0.818993	0.447712	-0.447201
H218	H	1.152326	0.781045	-0.113867
H219	H	1.485659	1.114379	0.219466
Cl220	Cl	1.434112	0.268951	-0.731612
Cl221	Cl	1.767445	0.602285	-0.398279
Cl222	Cl	2.100779	0.935618	-0.064945
H223	H	1.199119	0.992199	-0.422535
H224	H	1.532452	1.325533	-0.089202
H225	H	1.865786	1.658866	0.244132
Cl226	Cl	1.434130	0.269015	-0.583922
Cl227	Cl	1.767463	0.602349	-0.250589
Cl228	Cl	2.100797	0.935682	0.082745
H229	H	1.408413	0.715621	-0.285579
H230	H	1.741746	1.048954	0.047754
H231	H	2.075079	1.382287	0.381088
H232	H	0.960269	0.267638	-0.267698
H233	H	1.293602	0.600972	0.065635
H234	H	1.626935	0.934305	0.398969
H235	H	0.648010	0.295262	-0.295247
H236	H	0.981344	0.628595	0.038086
H237	H	1.314677	0.961928	0.371420
H238	H	1.451207	0.800384	-0.351065
H239	H	1.784540	1.133718	-0.017732
H240	H	2.117874	1.467051	0.315602
Cl241	Cl	1.173489	0.439415	-0.573420
Cl242	Cl	1.506822	0.772748	-0.240087
Cl243	Cl	1.840156	1.106081	0.093247
Cl244	Cl	1.319998	0.227379	-0.781137
Cl245	Cl	1.653331	0.560712	-0.447804
Cl246	Cl	1.986665	0.894045	-0.114471
H247	H	1.156315	0.907429	-0.357034
H248	H	1.489649	1.240762	-0.023700
H249	H	1.822982	1.574096	0.309633
Cl250	Cl	1.320002	0.227326	-0.928831
Cl251	Cl	1.653335	0.560659	-0.595497
Cl252	Cl	1.986668	0.893992	-0.262164
H253	H	1.408642	1.119266	-0.285682
H254	H	1.741975	1.452600	0.047651
H255	H	2.075308	1.785933	0.380984
H256	H	1.156248	0.788723	-0.357013
H257	H	1.489582	1.122056	-0.023679
H258	H	1.822915	1.455389	0.309654
H259	H	1.408572	0.285587	-1.001020
H260	H	1.741906	0.618920	-0.667686
H261	H	2.075239	0.952254	-0.334353
H262	H	1.408566	0.285541	-1.119727
H263	H	1.741899	0.618874	-0.786393
H264	H	2.075232	0.952208	-0.453060
Cl265	Cl	0.768458	0.242185	-0.242335
Cl266	Cl	1.101791	0.575518	0.090999
Cl267	Cl	1.435124	0.908852	0.424332
Cl268	Cl	1.287662	0.480872	-0.927527
Cl269	Cl	1.620996	0.814205	-0.594194
Cl270	Cl	1.954329	1.147539	-0.260861
Cl271	Cl	1.173410	0.720737	-0.439179
Cl272	Cl	1.506743	1.054070	-0.105846
Cl273	Cl	1.840077	1.387403	0.227488
Cl274	Cl	1.487283	0.935012	-0.350371
Cl275	Cl	1.820616	1.268345	-0.017037
Cl276	Cl	2.153950	1.601679	0.316296
Cl277	Cl	1.433908	0.583440	-0.268840
Cl278	Cl	1.767242	0.916774	0.064494
Cl279	Cl	2.100575	1.250107	0.397827
Cl280	Cl	0.627213	0.457801	-0.457269
Cl281	Cl	0.960546	0.791134	-0.123936
Cl282	Cl	1.293879	1.124468	0.209397
Cl283	Cl	1.173332	0.573040	-0.439150
Cl284	Cl	1.506665	0.906373	-0.105817
Cl285	Cl	1.839998	1.239706	0.227516
Cl286	Cl	1.173512	0.439228	-1.124751
Cl287	Cl	1.506845	0.772561	-0.791418
Cl288	Cl	1.840179	1.105894	-0.458085
H289	H	1.199085	0.422560	-0.992583
H290	H	1.532419	0.755893	-0.659250
H291	H	1.865752	1.089227	-0.325917
H292	H	1.290585	0.456019	-0.794449
H293	H	1.623918	0.789353	-0.461116
H294	H	1.957251	1.122686	-0.127783
H295	H	1.199074	0.422652	-0.707656
H296	H	1.532407	0.755985	-0.374323
H297	H	1.865741	1.089318	-0.040990
