data_functionalizedCrystal
_audit_creation_method	'MofGen! by Chris Wilmer'
_symmetry_space_group_name_H-M	'P1'
_symmetry_Int_Tables_number	1
_symmetry_cell_setting	triclinic
loop_
_symmetry_equiv_pos_as_xyz
  x,y,z
_cell_length_a	16.109302
_cell_length_b	10.654545
_cell_length_c	15.186229
_cell_angle_alpha	89.998599
_cell_angle_beta	89.994701
_cell_angle_gamma	83.973604
loop_
_atom_site_label
_atom_site_type_symbol
_atom_site_fract_x
_atom_site_fract_y
_atom_site_fract_z
O1	O	1.104090	0.161423	-0.073264
O2	O	0.862148	0.181511	-0.073256
O3	O	0.988681	-0.011348	-0.073259
O4	O	0.977557	0.354282	-0.073260
O5	O	0.988673	-0.011350	0.073198
O6	O	0.862140	0.181508	0.073201
O7	O	1.104082	0.161421	0.073194
Zn8	Zn	0.983109	0.171464	0.096451
Zn9	Zn	0.983121	0.171467	-0.096513
O10	O	0.977549	0.354279	0.073197
C11	C	0.831164	0.180695	-0.000027
C12	C	0.738854	0.178255	-0.000024
C13	C	0.526475	0.172612	0.079801
C14	C	0.439741	0.170306	0.079798
C15	C	0.439761	0.170315	-0.079878
C16	C	0.526494	0.172612	-0.079874
C17	C	0.569848	0.173767	-0.000032
C18	C	0.396382	0.169164	-0.000039
C19	C	0.302341	0.166664	-0.000042
C20	C	0.663895	0.176265	-0.000027
C21	C	0.987860	-0.058136	-0.000032
C22	C	0.985416	-0.197546	-0.000037
C23	C	0.985435	-0.197552	-0.159710
C24	C	0.984299	-0.263049	-0.239545
C25	C	0.982003	-0.394037	-0.239546
C26	C	0.980840	-0.459530	-0.159703
C27	C	0.981975	-0.394032	-0.079867
C28	C	0.984274	-0.263042	-0.079875
C29	C	0.981950	-0.394026	0.079803
C30	C	0.984252	-0.263039	0.079806
C31	C	0.980786	-0.459518	0.159646
C32	C	0.981928	-0.394022	0.239484
C33	C	0.984226	-0.263027	0.239482
C34	C	0.985388	-0.197542	0.159642
C35	C	1.135066	0.162236	-0.000038
C36	C	1.227376	0.164676	-0.000046
C37	C	0.978370	0.401067	-0.000032
C38	C	0.980814	0.540477	-0.000033
N39	N	0.983108	0.171461	0.228143
N40	N	0.983129	0.171461	-0.228206
C41	C	1.039156	0.086092	0.453865
C42	C	1.039159	0.086089	0.546054
C43	C	0.927074	0.256834	0.546066
C44	C	0.927068	0.256830	0.453878
C45	C	0.983114	0.171460	0.407780
C46	C	0.983123	0.171461	0.592158
C47	C	0.983125	0.171459	0.692114
C48	C	0.983111	0.171461	0.307818
H49	H	0.404431	0.169366	0.144806
O50	O	1.093565	0.002993	0.590724
C51	C	1.079323	-0.121332	0.568217
H52	H	1.047274	-0.121190	0.501287
H53	H	1.037721	-0.160189	0.620108
C54	C	1.202620	-0.205011	0.646148
C55	C	1.163263	-0.204839	0.563941
H56	H	1.254397	-0.256525	0.643515
H57	H	1.212213	-0.121252	0.661315
H58	H	1.167943	-0.237389	0.689383
H59	H	1.197935	-0.172446	0.520711
H60	H	1.153677	-0.288595	0.548767
O61	O	0.985180	-0.199316	0.317011
C62	C	0.914642	-0.109272	0.321767
H63	H	0.863720	-0.138786	0.276456
H64	H	0.932640	-0.013223	0.300318
C65	C	0.944608	-0.064542	0.472797
C66	C	0.882062	-0.100797	0.417150
H67	H	0.924512	-0.059308	0.531633
H68	H	0.992132	-0.125203	0.469592
H69	H	0.959600	0.015496	0.454912
H70	H	0.867078	-0.180840	0.435028
H71	H	0.834534	-0.040149	0.420360
H72	H	0.881444	0.326341	0.583609
H73	H	0.881428	0.326347	0.416354
O74	O	0.568499	0.173789	-0.157507
C75	C	0.511639	0.172257	-0.227978
H76	H	0.446595	0.210355	-0.204580
H77	H	0.510561	0.071325	-0.252529
C78	C	0.618736	0.208671	-0.332140
C79	C	0.538849	0.255473	-0.303403
H80	H	0.635521	0.259997	-0.378668
H81	H	0.657045	0.209698	-0.284663
H82	H	0.617827	0.124561	-0.352592
H83	H	0.539761	0.339574	-0.282941
H84	H	0.500540	0.254461	-0.350879
H85	H	0.561772	0.173552	0.144814
O86	O	0.397511	0.169257	-0.157353
C87	C	0.311660	0.166954	-0.140240
H88	H	0.296592	0.206369	-0.071627
H89	H	0.295188	0.065614	-0.144029
C90	C	0.278989	0.199680	-0.293387
C91	C	0.260482	0.248100	-0.209117
H92	H	0.247420	0.249729	-0.335875
H93	H	0.336830	0.201227	-0.304917
H94	H	0.265263	0.115231	-0.296532
H95	H	0.274218	0.332541	-0.205970
H96	H	0.202643	0.246569	-0.197587
H97	H	0.985245	-0.209710	-0.304552
O98	O	0.980917	-0.457476	-0.317175
C99	C	0.982399	-0.371584	-0.387647
H100	H	1.010328	-0.283428	-0.364258
H101	H	0.916058	-0.344435	-0.412175
C102	C	1.001603	-0.541791	-0.491816
C103	C	1.035913	-0.433521	-0.463091
H104	H	1.034610	-0.579997	-0.538355
H105	H	1.000602	-0.599659	-0.444338
H106	H	0.946320	-0.519152	-0.512249
H107	H	1.091190	-0.456164	-0.442648
H108	H	1.036925	-0.375658	-0.510567
H109	H	0.987314	-0.090897	-0.159717
H110	H	1.084791	0.016577	0.416334
H111	H	0.978959	-0.566185	-0.159711
H112	H	0.978912	-0.566175	0.159640
H113	H	0.980975	-0.447356	0.304486
H114	H	0.987263	-0.090886	0.159632
