data_functionalizedCrystal
_audit_creation_method	'MofGen! by Chris Wilmer'
_symmetry_space_group_name_H-M	'P1'
_symmetry_Int_Tables_number	1
_symmetry_cell_setting	triclinic
loop_
_symmetry_equiv_pos_as_xyz
  x,y,z
_cell_length_a	15.995350
_cell_length_b	17.019294
_cell_length_c	15.072220
_cell_angle_alpha	86.119892
_cell_angle_beta	89.991149
_cell_angle_gamma	83.443443
loop_
_atom_site_label
_atom_site_type_symbol
_atom_site_fract_x
_atom_site_fract_y
_atom_site_fract_z
O1	O	1.110876	0.101674	-0.081474
O2	O	1.610876	0.601674	0.418526
O3	O	0.867085	0.114230	-0.082451
O4	O	1.367085	0.614230	0.417549
O5	O	0.995780	-0.006880	-0.073185
O6	O	1.495780	0.493120	0.426815
O7	O	0.982181	0.222784	-0.090741
O8	O	1.482181	0.722784	0.409259
O9	O	0.995748	-0.006873	0.074380
O10	O	1.495748	0.493127	0.574380
O11	O	0.867054	0.114237	0.065113
O12	O	1.367054	0.614237	0.565113
O13	O	1.110844	0.101681	0.066091
O14	O	1.610844	0.601681	0.566091
Zn15	Zn	0.988944	0.107960	0.089031
Zn16	Zn	1.488944	0.607960	0.589031
Zn17	Zn	0.988986	0.107951	-0.105392
Zn18	Zn	1.488986	0.607951	0.394608
O19	O	0.982149	0.222791	0.056824
O20	O	1.482149	0.722791	0.556824
C21	C	0.835875	0.113714	-0.008632
C22	C	1.335875	0.613714	0.491368
C23	C	0.742927	0.112158	-0.008520
C24	C	1.242927	0.612158	0.491480
C25	C	0.995248	-0.036266	0.002842
C26	C	1.495248	0.463734	0.502842
C27	C	0.993700	-0.123836	0.009530
C28	C	1.493700	0.376164	0.509530
C29	C	0.405186	0.106569	-0.008074
C30	C	0.905186	0.606569	0.491926
C31	C	0.452722	0.020317	-0.001151
C32	C	0.952722	0.520317	0.498849
C33	C	0.549410	0.021873	-0.001609
C34	C	1.049410	0.521873	0.498391
C35	C	0.572743	0.109342	-0.008295
C36	C	1.072743	0.609342	0.491705
C37	C	0.531624	0.151880	-0.095810
C38	C	1.031624	0.651880	0.404190
C39	C	0.434991	0.149714	-0.095709
C40	C	0.934991	0.649714	0.404291
C41	C	0.434614	0.151503	0.071964
C42	C	0.934614	0.651503	0.571964
C43	C	0.531559	0.151483	0.073073
C44	C	1.031559	0.651483	0.573073
C45	C	0.667439	0.110913	-0.008423
C46	C	1.167439	0.610913	0.491577
C47	C	0.310490	0.105001	-0.007952
C48	C	0.810490	0.605001	0.492048
C49	C	0.992992	-0.164976	-0.067765
C50	C	1.492992	0.335024	0.432235
C51	C	0.991532	-0.247256	-0.061478
C52	C	1.491532	0.252744	0.438522
C53	C	0.990786	-0.288396	0.022105
C54	C	1.490786	0.211604	0.522105
C55	C	0.991491	-0.247250	0.099405
C56	C	1.491491	0.252750	0.599405
C57	C	0.992945	-0.164971	0.093118
C58	C	1.492945	0.335029	0.593118
C59	C	0.986389	-0.536828	0.045114
C60	C	1.486389	-0.036828	0.545114
C61	C	0.984937	-0.619114	0.051396
C62	C	1.484937	-0.119114	0.551396
C63	C	0.984976	-0.619113	-0.109488
C64	C	1.484976	-0.119113	0.390512
C65	C	0.986435	-0.536833	-0.115768
C66	C	1.486435	-0.036833	0.384232
C67	C	0.987136	-0.495693	-0.038468
C68	C	1.487136	0.004307	0.461532
C69	C	0.989296	-0.372501	0.028533
C70	C	1.489296	0.127499	0.528533
C71	C	0.988620	-0.411590	-0.044897
C72	C	1.488620	0.088410	0.455103
C73	C	1.142054	0.102196	-0.007731
C74	C	1.642054	0.602196	0.492269
C75	C	1.235002	0.103753	-0.007849
C76	C	1.735002	0.603753	0.492151
C77	C	0.982681	0.252177	-0.019205
C78	C	1.482681	0.752177	0.480795
C79	C	0.984229	0.339747	-0.025899
C80	C	1.484229	0.839747	0.474101
N81	N	0.988921	0.107965	0.221719
N82	N	1.488921	0.607965	0.721719
N83	N	0.989015	0.107939	-0.238080
N84	N	1.489015	0.607939	0.261920
C85	C	0.988984	0.107948	0.580922
C86	C	1.488984	0.607948	1.080922
C87	C	0.919891	0.172534	0.538373
C88	C	1.419891	0.672534	1.038373
C89	C	0.920049	0.172770	0.435530
C90	C	1.420049	0.672770	0.935530
C91	C	0.988952	0.107957	0.402717
C92	C	1.488952	0.607957	0.902717
C93	C	1.076296	0.125934	0.438641
C94	C	1.576296	0.625934	0.938641
C95	C	1.075908	0.126393	0.541464
C96	C	1.575908	0.626393	1.041464
C97	C	0.971512	0.025193	0.549347
C98	C	1.471512	0.525193	1.049347
C99	C	0.969507	0.025745	0.446441
C100	C	1.469507	0.525745	0.946441
C101	C	0.988940	0.107960	0.302004
C102	C	1.488940	0.607960	0.802004
C103	C	0.989002	0.107946	0.681636
C104	C	1.489002	0.607946	1.181636
H105	H	0.577866	-0.011565	0.061351
H106	H	1.077866	0.488435	0.561351
H107	H	0.402668	0.213038	-0.104373
H108	H	0.902668	0.713038	0.395627
H109	H	0.545673	0.216141	-0.103855
H110	H	1.045673	0.716141	0.396145
H111	H	0.988691	-0.406006	0.096586
H112	H	1.488691	0.093994	0.596586
F113	F	0.551537	0.234857	0.073353
F114	F	1.051537	0.734857	0.573353
F115	F	0.993791	-0.121199	-0.156725
F116	F	1.493791	0.378801	0.343275
H117	H	0.930883	0.233600	0.559545
H118	H	1.430883	0.733600	1.059545
H119	H	1.128923	0.081206	0.569796
H120	H	1.628923	0.581206	1.069796
H121	H	1.128934	0.080144	0.417676
H122	H	1.628934	0.580144	0.917676
H123	H	0.414098	0.123308	0.137989
H124	H	0.914098	0.623308	0.637989
F125	F	0.835173	0.158810	0.403635
F126	F	1.335173	0.658810	0.903635
H127	H	0.560047	0.122329	-0.156262
H128	H	1.060047	0.622329	0.343738
H129	H	0.984404	-0.652618	-0.172422
H130	H	1.484404	-0.152618	0.327578
H131	H	1.092077	0.185598	0.408312
H132	H	1.592077	0.685598	0.908312
F133	F	0.990779	-0.291037	-0.143746
F134	F	1.490779	0.208963	0.356254
H135	H	0.984326	-0.652607	0.119462
H136	H	1.484326	-0.152607	0.619462
F137	F	0.567211	0.110831	0.157660
F138	F	1.067211	0.610831	0.657660
H139	H	1.016569	-0.024569	0.424582
H140	H	1.516569	0.475431	0.924582
H141	H	0.402777	0.215097	0.067673
H142	H	0.902777	0.715097	0.567673
F143	F	0.987124	-0.493053	0.127385
F144	F	1.487124	0.006947	0.627385
F145	F	0.989416	-0.367804	-0.133849
F146	F	1.489416	0.132196	0.366151
H147	H	0.931196	0.234181	0.406222
H148	H	1.431196	0.734181	0.906222
H149	H	0.987044	-0.503342	-0.183830
H150	H	1.487044	-0.003342	0.316170
H151	H	1.091319	0.186745	0.560833
H152	H	1.591319	0.686745	1.060833
F153	F	0.834747	0.158756	0.571768
F154	F	1.334747	0.658756	1.071768
F155	F	0.990688	-0.291036	0.188361
F156	F	1.490688	0.208964	0.688361
F157	F	0.890064	0.002610	0.585013
F158	F	1.390064	0.502610	1.085013
F159	F	0.993698	-0.121187	0.175386
F160	F	1.493698	0.378813	0.675386
H161	H	0.905257	0.012102	0.423107
H162	H	1.405257	0.512102	0.923107
H163	H	0.433182	-0.014004	-0.058623
H164	H	0.933182	0.485996	0.441377
F165	F	0.428545	-0.024744	0.081278
F166	F	0.928545	0.475256	0.581278
F167	F	1.037371	-0.037629	0.585939
F168	F	1.537371	0.462371	1.085939
H169	H	0.577321	-0.011796	-0.059544
H170	H	1.077321	0.488204	0.440456
H171	H	0.416733	0.118687	-0.156326
H172	H	0.916733	0.618687	0.343674
