data_functionalizedCrystal
_audit_creation_method	'MofGen! by Chris Wilmer'
_symmetry_space_group_name_H-M	'P1'
_symmetry_Int_Tables_number	1
_symmetry_cell_setting	triclinic
loop_
_symmetry_equiv_pos_as_xyz
  x,y,z
_cell_length_a	12.759401
_cell_length_b	13.032721
_cell_length_c	12.759393
_cell_angle_alpha	97.149226
_cell_angle_beta	89.979062
_cell_angle_gamma	97.205831
loop_
_atom_site_label
_atom_site_type_symbol
_atom_site_fract_x
_atom_site_fract_y
_atom_site_fract_z
Zn1	Zn	1.553113	-0.415945	-0.647098
Zn2	Zn	2.053113	0.084055	-0.147098
Zn3	Zn	1.530669	-0.590725	-0.493722
Zn4	Zn	2.030669	-0.090725	0.006278
Zn5	Zn	1.377404	-0.416001	-0.471441
Zn6	Zn	1.877404	0.083999	0.028559
Zn7	Zn	1.355078	-0.590652	-0.669350
Zn8	Zn	1.855078	-0.090652	-0.169350
O9	O	1.454066	-0.503331	-0.570403
O10	O	1.954066	-0.003331	-0.070403
O11	O	1.697156	-0.439137	-0.626765
O12	O	2.197156	0.060863	-0.126765
O13	O	1.510289	-0.567601	-0.343752
O14	O	2.010289	-0.067601	0.156248
O15	O	1.419449	-0.269756	-0.476105
O16	O	1.919449	0.230244	0.023895
O17	O	1.680666	-0.567547	-0.514080
O18	O	2.180666	-0.067547	-0.014080
O19	O	1.548541	-0.269715	-0.605160
O20	O	2.048541	0.230285	-0.105160
O21	O	1.397686	-0.439232	-0.327382
O22	O	1.897686	0.060768	0.172618
O23	O	1.227423	-0.439161	-0.497681
O24	O	1.727423	0.060839	0.002319
O25	O	1.381397	-0.567423	-0.813412
O26	O	1.881397	-0.067423	-0.313412
O27	O	1.211019	-0.567477	-0.643084
O28	O	1.711019	-0.067477	-0.143084
O29	O	1.526892	-0.439067	-0.797064
O30	O	2.026892	0.060933	-0.297064
O31	O	1.488640	-0.736953	-0.535656
O32	O	1.988640	-0.236953	-0.035656
O33	O	1.359634	-0.736899	-0.664689
O34	O	1.859634	-0.236899	-0.164689
C35	C	1.181100	-0.503318	-0.570380
C36	C	1.681100	-0.003318	-0.070380
C37	C	1.064321	-0.503338	-0.570399
C38	C	1.564321	-0.003338	-0.070399
C39	C	1.419307	-0.774844	-0.605028
C40	C	1.919307	-0.274844	-0.105028
C41	C	1.404533	-0.890999	-0.619876
C42	C	1.904533	-0.390999	-0.119876
C43	C	1.000932	-0.570253	-0.646017
C44	C	1.500932	-0.070253	-0.146017
C45	C	0.891208	-0.570257	-0.646038
C46	C	1.391208	-0.070257	-0.146038
C47	C	0.908271	-0.436427	-0.494813
C48	C	1.408271	0.063573	0.005187
C49	C	1.017994	-0.436419	-0.494797
C50	C	1.517994	0.063581	0.005203
C51	C	1.461832	-0.942776	-0.562700
C52	C	1.961832	-0.442776	-0.062700
C53	C	1.446564	-1.062828	-0.578045
C54	C	1.946564	-0.562828	-0.078045
C55	C	1.728097	-0.503344	-0.570426
C56	C	2.228097	-0.003344	-0.070426
C57	C	1.844873	-0.503350	-0.570436
C58	C	2.344873	-0.003350	-0.070436
C59	C	1.454157	-0.503230	-0.844423
C60	C	1.954157	-0.003230	-0.344423
C61	C	1.454196	-0.503188	-0.961194
C62	C	1.954196	-0.003188	-0.461194
C63	C	1.488989	-0.230757	-0.535665
C64	C	1.988989	0.269243	-0.035665
C65	C	1.503872	-0.114602	-0.520862
C66	C	2.003872	0.385398	-0.020862
C67	C	1.529962	-0.436342	-1.007544
C68	C	2.029962	0.063658	-0.507544
C69	C	1.529986	-0.436297	-1.117263
C70	C	2.029986	0.063703	-0.617263
C71	C	1.378473	-0.569952	-1.134273
C72	C	1.878473	-0.069952	-0.634273
C73	C	1.378446	-0.569991	-1.024556
C74	C	1.878446	-0.069991	-0.524556
C75	C	1.454045	-0.503355	-0.297438
C76	C	1.954045	-0.003355	0.202562
C77	C	1.454247	-0.503104	-0.180630
C78	C	1.954247	-0.003104	0.319370
H79	H	1.038649	-0.624740	-0.707579
H80	H	1.538649	-0.124740	-0.207579
C81	C	1.585422	-1.054441	-0.439382
C82	C	2.085422	-0.554441	0.060618
H83	H	1.619395	-1.102496	-0.405507
H84	H	2.119395	-0.602496	0.094493
H85	H	1.550629	-1.011928	-0.388174
H86	H	2.050629	-0.511928	0.111826
H87	H	1.636568	-1.011796	-0.474208
H88	H	2.136568	-0.511796	0.025792
C89	C	1.543376	-0.882604	-0.481226
C90	C	2.043376	-0.382604	0.018774
H91	H	1.542936	-0.809809	-0.481597
H92	H	2.042936	-0.309809	0.018403
H93	H	1.611715	-0.900368	-0.498917
H94	H	2.111715	-0.400368	0.001083
H95	H	1.525769	-0.900504	-0.412889
H96	H	2.025769	-0.400504	0.087111
H97	H	1.344178	-0.935548	-0.680190
H98	H	1.844178	-0.435548	-0.180190
H99	H	1.591640	-0.381943	-0.955958
H100	H	2.091640	0.118057	-0.455958
H101	H	1.316802	-0.624344	-1.185875
H102	H	1.816802	-0.124344	-0.685875
C103	C	1.295101	-0.643523	-0.973562
C104	C	1.795101	-0.143523	-0.473562
H105	H	1.305929	-0.633968	-0.899143
H106	H	1.805929	-0.133968	-0.399143
H107	H	1.301478	-0.713734	-1.000489
H108	H	1.801478	-0.213734	-0.500489
H109	H	1.226473	-0.628208	-0.989580
H110	H	1.726473	-0.128208	-0.489580
H111	H	0.839601	-0.624745	-0.707616
H112	H	1.339601	-0.124745	-0.207616
C113	C	1.613336	-0.362780	-1.168250
C114	C	2.113336	0.137220	-0.668250
H115	H	1.602502	-0.372317	-1.242668
H116	H	2.102502	0.127683	-0.742668
H117	H	1.681957	-0.378096	-1.152229
H118	H	2.181957	0.121904	-0.652229
H119	H	1.606959	-0.292564	-1.141319
H120	H	2.106959	0.207436	-0.641319
C121	C	0.857311	-0.362827	-0.411652
C122	C	1.357311	0.137173	0.088348
H123	H	0.910782	-0.322966	-0.366620
H124	H	1.410782	0.177034	0.133380
H125	H	0.809375	-0.402749	-0.370905
H126	H	1.309375	0.097251	0.129095
H127	H	0.820352	-0.317342	-0.446129
H128	H	1.320352	0.182658	0.053871
C129	C	1.087731	-0.362808	-0.411617
C130	C	1.587731	0.137192	0.088383
H131	H	1.159713	-0.372380	-0.422445
H132	H	1.659713	0.127620	0.077555
H133	H	1.067773	-0.378013	-0.342940
H134	H	1.567773	0.121987	0.157060
H135	H	1.078741	-0.292611	-0.418170
H136	H	1.578741	0.207389	0.081830
C137	C	1.365018	-1.122996	-0.659526
C138	C	1.865018	-0.622996	-0.159526
H139	H	1.365449	-1.195791	-0.659146
H140	H	1.865449	-0.695791	-0.159146
H141	H	1.382615	-1.105093	-0.727858
H142	H	1.882615	-0.605093	-0.227858
H143	H	1.296674	-1.105235	-0.641824
H144	H	1.796674	-0.605235	-0.141824
