data_functionalizedCrystal
_audit_creation_method	'MofGen! by Chris Wilmer'
_symmetry_space_group_name_H-M	'P1'
_symmetry_Int_Tables_number	1
_symmetry_cell_setting	triclinic
loop_
_symmetry_equiv_pos_as_xyz
  x,y,z
_cell_length_a	29.839131
_cell_length_b	10.686220
_cell_length_c	29.839125
_cell_angle_alpha	94.355402
_cell_angle_beta	90.011606
_cell_angle_gamma	85.576533
loop_
_atom_site_label
_atom_site_type_symbol
_atom_site_fract_x
_atom_site_fract_y
_atom_site_fract_z
Zn1	Zn	-0.126172	-1.928877	0.201392
Zn2	Zn	-0.201282	-1.928681	0.126268
Zn3	Zn	-0.131933	-1.717882	0.132030
Zn4	Zn	-0.207052	-1.717742	0.207123
O5	O	-0.166610	-1.823296	0.166703
O6	O	-0.131309	-2.105432	0.186617
O7	O	-0.192078	-1.900695	0.064166
O8	O	-0.068298	-1.746012	0.141245
O9	O	-0.186492	-2.105288	0.131423
O10	O	-0.064065	-1.901030	0.192205
O11	O	-0.141129	-1.745822	0.068399
O12	O	-0.146724	-1.541283	0.146801
O13	O	-0.196327	-1.745773	0.269229
O14	O	-0.201914	-1.541179	0.201971
O15	O	-0.136905	-1.900893	0.265019
O16	O	-0.264918	-1.900558	0.136980
O17	O	-0.269158	-1.745582	0.196384
C18	C	-0.175571	-1.495445	0.175634
C19	C	-0.179415	-1.355190	0.179465
C20	C	-0.283339	-1.823068	0.166687
C21	C	-0.333273	-1.823086	0.166692
C22	C	-0.166617	-1.823339	0.283880
C23	C	-0.166620	-1.823358	0.333814
C24	C	-0.640686	-1.904138	0.135810
C25	C	-0.828355	-1.904294	0.135823
O26	O	-0.850728	-1.973027	0.109553
N27	N	-0.854045	-1.823557	0.166730
C28	C	-0.832815	-1.742781	0.197638
O29	O	-0.858971	-1.674122	0.223930
C30	C	-0.645146	-1.742633	0.197627
C31	C	-0.619459	-1.823366	0.166714
C32	C	-0.614999	-1.984866	0.104900
C33	C	-0.568084	-1.984821	0.104896
C34	C	-0.546857	-1.904049	0.135800
C35	C	-0.572545	-1.823322	0.166710
C36	C	-0.623917	-1.661865	0.228536
C37	C	-0.576997	-1.661837	0.228531
C38	C	-0.551309	-1.742570	0.197619
C39	C	-0.504404	-1.742505	0.197610
N40	N	-0.478714	-1.823242	0.166703
C41	C	-0.499941	-1.904014	0.135798
C42	C	-0.931343	-1.742863	0.197641
C43	C	-0.978260	-1.742899	0.197644
C44	C	-0.973797	-1.904413	0.135829
C45	C	-0.926879	-1.904371	0.135825
C46	C	-0.905653	-1.823600	0.166734
C47	C	-0.401418	-1.903913	0.135790
C48	C	-0.354499	-1.903858	0.135787
C49	C	-0.358967	-1.742348	0.197604
C50	C	-0.405881	-1.742399	0.197605
C51	C	-0.427105	-1.823191	0.166697
O52	O	-0.482000	-1.673818	0.223869
O53	O	-0.473775	-1.972682	0.109517
C54	C	-0.687600	-1.904183	0.135814
C55	C	-0.713287	-1.823455	0.166723
C56	C	-0.692061	-1.742683	0.197628
C57	C	-0.760204	-1.823491	0.166726
C58	C	-0.781431	-1.904263	0.135821
C59	C	-0.755741	-1.985000	0.104914
C60	C	-0.708827	-1.984955	0.104909
C61	C	-0.717751	-1.661946	0.228535
C62	C	-0.764665	-1.661996	0.228537
C63	C	-0.785892	-1.742769	0.197632
C64	C	-0.049424	-1.823559	0.166728
C65	C	0.000513	-1.823671	0.166739
C66	C	-0.157614	-2.152426	0.157738
C67	C	-0.153781	-2.292682	0.153918
C68	C	-0.166568	-1.823325	0.049980
C69	C	-0.166432	-1.823551	0.000040
C70	C	-0.197456	-1.742674	0.692592
C71	C	-0.197509	-1.742629	0.504920
O72	O	-0.223815	-1.673904	0.482520
N73	N	-0.166578	-1.823386	0.479259
C74	C	-0.135629	-1.904154	0.500519
O75	O	-0.109319	-1.972833	0.474387
C76	C	-0.135575	-1.904192	0.688190
C77	C	-0.166511	-1.823439	0.713848
C78	C	-0.228389	-1.661926	0.718250
C79	C	-0.228377	-1.661943	0.765165
C80	C	-0.197432	-1.742708	0.786422
C81	C	-0.166499	-1.823456	0.760763
C82	C	-0.104624	-1.984953	0.709449
C83	C	-0.104613	-1.984953	0.756370
C84	C	-0.135549	-1.904200	0.782029
C85	C	-0.135541	-1.904237	0.828935
N86	N	-0.166473	-1.823480	0.854596
C87	C	-0.197418	-1.742716	0.833339
C88	C	-0.135661	-1.904130	0.401989
C89	C	-0.135675	-1.904122	0.355071
C90	C	-0.197554	-1.742595	0.359475
C91	C	-0.197542	-1.742610	0.406394
C92	C	-0.166592	-1.823373	0.427650
C93	C	-0.197391	-1.742758	0.931864
C94	C	-0.197377	-1.742786	0.978783
C95	C	-0.135497	-1.904308	0.974375
C96	C	-0.135511	-1.904286	0.927460
C97	C	-0.166460	-1.823500	0.906206
O98	O	-0.109246	-1.972916	0.851365
O99	O	-0.223718	-1.674027	0.859480
C100	C	-0.197468	-1.742657	0.645677
C101	C	-0.166535	-1.823405	0.620018
C102	C	-0.135589	-1.904169	0.641275
C103	C	-0.166549	-1.823397	0.573101
C104	C	-0.197494	-1.742632	0.551844
C105	C	-0.228425	-1.661875	0.577505
C106	C	-0.228413	-1.661892	0.624420
C107	C	-0.104658	-1.984927	0.615614
C108	C	-0.104673	-1.984904	0.568699
C109	C	-0.135618	-1.904139	0.547443
H110	H	-0.333586	-1.969600	0.110613
H111	H	-0.204307	-1.301399	0.204267
O112	O	-0.908458	-1.655708	0.230974
H113	H	-0.916861	-1.677263	0.265654
O114	O	-0.230741	-1.655670	1.006457
H115	H	-0.265414	-1.677220	0.996863
H116	H	-0.110488	-1.969893	0.334183
H117	H	-0.222588	-1.676964	0.914565
O118	O	-0.651613	-1.574792	0.261882
H119	H	-0.674771	-1.510625	0.243513
H120	H	-0.253588	-1.596150	0.700948
H121	H	-0.079458	-2.050696	0.632917
H122	H	-0.253567	-1.596182	0.786052
H123	H	-0.222732	-1.676852	0.427282
H124	H	-0.222751	-1.676835	0.342160
H125	H	-0.418692	-1.969705	0.110623
O126	O	-0.120809	-1.363910	0.121063
H127	H	-0.122858	-1.466589	0.123112
O128	O	-0.261792	-1.574738	0.554571
H129	H	-0.283301	-1.518575	0.580292
O130	O	-0.102281	-1.991256	0.424913
H131	H	-0.080782	-2.047412	0.399182
O132	O	-0.071257	-2.072050	0.681781
H133	H	-0.049736	-2.128193	0.704453
H134	H	-0.559717	-1.596065	0.253703
H135	H	-0.079407	-2.050716	0.773674
H136	H	-0.426796	-1.676663	0.222778
O137	O	-0.102147	-1.991383	0.899781
H138	H	-0.080626	-2.047542	0.922447
O139	O	-0.102108	-1.991380	0.997306
H140	H	-0.107292	-1.977792	1.034242
H141	H	-0.773032	-2.050764	0.079749
O142	O	-0.261775	-1.574780	0.652092
H143	H	-0.283289	-1.518614	0.629423
H144	H	-0.079482	-2.050675	0.547812
H145	H	-0.547172	-2.050565	0.079726
H146	H	-0.632276	-2.050647	0.079733
O147	O	-0.336068	-1.655237	0.230938
H148	H	-0.299129	-1.668790	0.225743
H149	H	-0.991087	-1.970181	0.110665
H150	H	-0.905967	-1.970111	0.110654
O151	O	-1.005965	-1.655815	0.230981
H152	H	-0.983317	-1.599657	0.252472
H153	H	-0.687915	-2.050696	0.079738
H154	H	-0.785576	-1.596243	0.253710
H155	H	-0.700471	-1.596173	0.253702
