data_functionalizedCrystal
_audit_creation_method	'MofGen! by Chris Wilmer'
_symmetry_space_group_name_H-M	'P1'
_symmetry_Int_Tables_number	1
_symmetry_cell_setting	triclinic
loop_
_symmetry_equiv_pos_as_xyz
  x,y,z
_cell_length_a	11.026607
_cell_length_b	8.559649
_cell_length_c	7.088929
_cell_angle_alpha	84.674985
_cell_angle_beta	82.408099
_cell_angle_gamma	90.817659
loop_
_atom_site_label
_atom_site_type_symbol
_atom_site_fract_x
_atom_site_fract_y
_atom_site_fract_z
O1	O	-0.026458	-2.096118	-0.158957
O2	O	0.034577	-1.648469	-0.158966
O3	O	-0.169136	-1.835194	-0.158955
O4	O	0.177256	-1.909394	-0.158968
O5	O	-0.196415	-1.860132	0.159021
O6	O	0.007298	-1.673407	0.159011
O7	O	-0.053737	-2.121056	0.159019
Cu8	Cu	-0.025710	-1.899509	0.188049
Cu9	Cu	0.006551	-1.870017	-0.187995
O10	O	0.149977	-1.934332	0.159009
C11	C	0.025563	-1.602739	0.000021
C12	C	0.039332	-1.429319	0.000018
C13	C	-0.226711	-1.833974	0.000030
C14	C	-0.357621	-1.793166	0.000023
C15	C	-0.044723	-2.166786	0.000028
C16	C	-0.058490	-2.340205	0.000019
C17	C	-0.441927	-1.905841	0.000022
C18	C	-0.577231	-1.863667	0.000014
C19	C	0.207551	-1.935551	0.000019
C20	C	0.338463	-1.976358	0.000014
N21	N	-0.048402	-1.920263	0.452538
N22	N	0.029232	-1.849272	-0.452485
H23	H	-0.605215	-1.735971	-0.000001
H24	H	0.133621	-1.372932	0.000004
C25	C	-0.184208	-1.415250	-0.000371
C26	C	-0.233057	-1.355425	-0.163986
C27	C	-0.348860	-1.424545	-0.164423
H28	H	-0.236720	-1.392253	0.110386
H29	H	-0.177107	-1.525728	-0.000473
H30	H	-0.240165	-1.244972	-0.163866
H31	H	-0.180580	-1.378420	-0.274768
H32	H	-0.341760	-1.535022	-0.164525
H33	H	-0.401362	-1.401542	-0.053660
H34	H	-0.382015	-1.383974	-0.275442
H35	H	-0.128853	-1.993858	0.534198
C36	C	-0.624278	-2.146628	-0.000372
C37	C	-0.656530	-2.207618	-0.163985
C38	C	-0.622212	-2.364455	-0.164418
H39	H	-0.665094	-2.205858	0.110385
H40	H	-0.538290	-2.152409	-0.000471
H41	H	-0.742502	-2.201849	-0.163868
H42	H	-0.615718	-2.148433	-0.274769
H43	H	-0.536224	-2.370237	-0.164517
H44	H	-0.663031	-2.423671	-0.053653
H45	H	-0.644080	-2.405853	-0.275435
C46	C	0.136672	-1.751397	0.438758
C47	C	0.246270	-1.814045	0.487266
C48	C	0.345271	-1.723936	0.387085
H49	H	0.130972	-1.646357	0.471405
H50	H	0.135194	-1.752839	0.305233
H51	H	0.247747	-1.812586	0.620761
H52	H	0.252010	-1.919075	0.454613
H53	H	0.343793	-1.725379	0.253561
H54	H	0.339559	-1.618901	0.419741
H55	H	0.419645	-1.766438	0.419970
H56	H	-0.385611	-1.665478	0.000008
H57	H	-0.413937	-2.033528	0.000036
