data_functionalizedCrystal
_audit_creation_method	'MofGen! by Chris Wilmer'
_symmetry_space_group_name_H-M	'P1'
_symmetry_Int_Tables_number	1
_symmetry_cell_setting	triclinic
loop_
_symmetry_equiv_pos_as_xyz
  x,y,z
_cell_length_a	23.532407
_cell_length_b	23.532407
_cell_length_c	22.010155
_cell_angle_alpha	89.983144
_cell_angle_beta	90.012768
_cell_angle_gamma	82.848674
loop_
_atom_site_label
_atom_site_type_symbol
_atom_site_fract_x
_atom_site_fract_y
_atom_site_fract_z
O1	O	-0.755249	-0.069141	0.050457
O2	O	-0.589386	-0.079144	0.050476
O3	O	-0.677319	0.008789	0.050453
O4	O	-0.667316	-0.157074	0.050480
O5	O	-0.677333	0.008804	-0.050597
O6	O	-0.589399	-0.079129	-0.050574
O7	O	-0.755263	-0.069126	-0.050593
Cu8	Cu	-0.672332	-0.074126	-0.059810
Cu9	Cu	-0.672316	-0.074144	0.059693
O10	O	-0.667329	-0.157059	-0.050570
C11	C	-0.677071	0.030013	-0.000074
C12	C	-0.676305	0.093230	-0.000081
C13	C	-0.776472	-0.069388	-0.000069
C14	C	-0.839689	-0.070154	-0.000072
C15	C	-0.568176	-0.078882	-0.000047
C16	C	-0.504959	-0.078116	-0.000040
C17	C	-0.723539	0.492333	-0.000063
C18	C	-0.722827	0.551733	-0.000059
O19	O	-0.766613	0.588478	-0.000043
N20	N	-0.670551	0.574359	-0.000054
C21	C	-0.618983	0.537582	-0.000047
O22	O	-0.574452	0.562281	-0.000042
C23	C	-0.619695	0.478183	-0.000045
C24	C	-0.671974	0.455560	-0.000057
C25	C	-0.775814	0.469710	-0.000073
C26	C	-0.776525	0.410313	-0.000077
C27	C	-0.724961	0.373540	-0.000071
C28	C	-0.672686	0.396164	-0.000061
C29	C	-0.568127	0.441406	-0.000033
C30	C	-0.568844	0.382004	-0.000032
C31	C	-0.621123	0.359381	-0.000043
C32	C	-0.621832	0.299995	-0.000059
N33	N	-0.674109	0.277369	-0.000064
C34	C	-0.725673	0.314141	-0.000070
C35	C	-0.617491	0.662324	-0.000048
C36	C	-0.616779	0.721722	-0.000053
C37	C	-0.720623	0.735869	-0.000065
C38	C	-0.721335	0.676470	-0.000064
C39	C	-0.669767	0.639698	-0.000053
C40	C	-0.727163	0.189405	-0.000080
C41	C	-0.727869	0.130003	-0.000087
C42	C	-0.624025	0.115860	-0.000072
C43	C	-0.623318	0.175257	-0.000068
C44	C	-0.674891	0.212029	-0.000070
O45	O	-0.578070	0.263215	-0.000073
O46	O	-0.770196	0.289434	-0.000067
C47	C	-0.105856	-0.125350	-0.000060
C48	C	-0.046456	-0.124638	-0.000064
O49	O	-0.009711	-0.168424	-0.000079
N50	N	-0.023830	-0.072362	-0.000071
C51	C	-0.060607	-0.020794	-0.000081
O52	O	-0.035908	0.023737	-0.000089
C53	C	-0.120006	-0.021506	-0.000082
C54	C	-0.142629	-0.073785	-0.000068
C55	C	-0.128479	-0.177625	-0.000047
C56	C	-0.187876	-0.178336	-0.000042
C57	C	-0.224649	-0.126772	-0.000050
C58	C	-0.202025	-0.074496	-0.000063
C59	C	-0.156783	0.030062	-0.000096
C60	C	-0.216185	0.029345	-0.000097
C61	C	-0.238808	-0.022934	-0.000083
C62	C	-0.298194	-0.023643	-0.000066
N63	N	-0.320820	-0.075920	-0.000059
C64	C	-0.284048	-0.127484	-0.000050
C65	C	0.064135	-0.019302	-0.000081
C66	C	0.123533	-0.018589	-0.000077
C67	C	0.137680	-0.122434	-0.000060
C68	C	0.078281	-0.123146	-0.000060
C69	C	0.041509	-0.071578	-0.000074
C70	C	-0.408784	-0.128974	-0.000039
C71	C	-0.468186	-0.129680	-0.000032
C72	C	-0.482329	-0.025836	-0.000052
C73	C	-0.422932	-0.025129	-0.000056
C74	C	-0.386160	-0.076702	-0.000052
O75	O	-0.334974	0.020119	-0.000054
O76	O	-0.308755	-0.172007	-0.000051
C77	C	-0.667577	0.821717	-0.000048
C78	C	-0.668343	0.758500	-0.000056
N79	N	-0.672305	-0.074153	0.143746
N80	N	-0.672348	-0.074113	-0.143863
C81	C	-0.711350	-0.035273	0.563515
C82	C	-0.711354	-0.035271	0.627123
O83	O	-0.744543	-0.002237	0.660005
N84	N	-0.672344	-0.074126	0.658953
C85	C	-0.633331	-0.112991	0.627172
O86	O	-0.600151	-0.146040	0.660087
C87	C	-0.633331	-0.112995	0.563566
C88	C	-0.672339	-0.074134	0.531739
C89	C	-0.750356	0.003585	0.531688
C90	C	-0.750351	0.003583	0.468085
C91	C	-0.711340	-0.035277	0.436308
C92	C	-0.672334	-0.074136	0.468136
C93	C	-0.594321	-0.151862	0.531787
C94	C	-0.594324	-0.151864	0.468176
C95	C	-0.633332	-0.113002	0.436349
C96	C	-0.633319	-0.112998	0.372756
N97	N	-0.672328	-0.074142	0.340926
C98	C	-0.711339	-0.035282	0.372702
C99	C	-0.633337	-0.112978	0.760750
C100	C	-0.633335	-0.112971	0.824355
C101	C	-0.711358	-0.035252	0.824301
C102	C	-0.711357	-0.035257	0.760695
C103	C	-0.672347	-0.074123	0.728920
C104	C	-0.711326	-0.035289	0.239131
C105	C	-0.711316	-0.035293	0.175522
C106	C	-0.633295	-0.113013	0.175582
C107	C	-0.633302	-0.113008	0.239185
C108	C	-0.672323	-0.074143	0.270958
O109	O	-0.600148	-0.146017	0.339833
O110	O	-0.744519	-0.002243	0.339779
H111	H	-0.770444	0.111587	-0.000097
Br112	Br	-0.554048	0.065943	-0.000064
H113	H	0.167632	-0.164421	-0.000056
Br114	Br	-0.845804	0.519606	-0.000081
H115	H	-0.404512	0.017441	-0.000058
Br116	Br	-0.792289	0.645775	-0.000080
H117	H	-0.246123	0.071339	-0.000108
Br118	Br	-0.218568	-0.249291	-0.000026
H119	H	-0.762610	0.765821	-0.000068
Br120	Br	-0.764257	0.017454	0.132331
H121	H	-0.574207	0.740136	-0.000055
Br122	Br	-0.078583	-0.247615	-0.000036
H123	H	-0.575496	0.632387	-0.000044
H124	H	-0.782116	0.035226	0.442175
H125	H	-0.743122	-0.003613	0.734785
H126	H	-0.769159	0.219337	-0.000079
H127	H	-0.601531	-0.144651	0.149700
H128	H	-0.378851	-0.170970	-0.000038
H129	H	0.034197	0.022693	-0.000087
H130	H	-0.601532	-0.144647	0.265099
Br131	Br	-0.580386	-0.165726	0.717633
Br132	Br	0.047586	-0.194099	-0.000042
H133	H	-0.743100	-0.003642	0.264993
H134	H	-0.819097	0.391900	-0.000084
Br135	Br	-0.497171	0.472092	-0.000016
H136	H	-0.512280	0.016146	-0.000056
Br137	Br	-0.498854	0.332101	-0.000014
Br138	Br	-0.552367	0.205961	-0.000067
H139	H	-0.486602	-0.172255	-0.000020
H140	H	0.141947	0.023982	-0.000078
H141	H	-0.138375	0.072634	-0.000108
Br142	Br	-0.803307	0.056329	0.574802
H143	H	-0.743124	-0.003611	0.850185
Br144	Br	-0.580383	-0.165705	0.867542
Br145	Br	-0.541379	-0.204605	0.574968
H146	H	-0.562557	-0.183515	0.442308
