data_functionalizedCrystal
_audit_creation_method	'MofGen! by Chris Wilmer'
_symmetry_space_group_name_H-M	'P1'
_symmetry_Int_Tables_number	1
_symmetry_cell_setting	triclinic
loop_
_symmetry_equiv_pos_as_xyz
  x,y,z
_cell_length_a	18.101398
_cell_length_b	12.759394
_cell_length_c	12.759387
_cell_angle_alpha	90.031660
_cell_angle_beta	89.971778
_cell_angle_gamma	89.989896
loop_
_atom_site_label
_atom_site_type_symbol
_atom_site_fract_x
_atom_site_fract_y
_atom_site_fract_z
Zn1	Zn	1.132233	0.418344	-0.594215
Zn2	Zn	1.132156	0.594061	-0.418533
Zn3	Zn	1.008384	0.418382	-0.418528
Zn4	Zn	1.008378	0.593967	-0.594148
O5	O	1.070288	0.506188	-0.506356
O6	O	1.235856	0.441676	-0.570940
O7	O	1.115707	0.570812	-0.271511
O8	O	1.024847	0.271356	-0.441859
O9	O	1.235799	0.570775	-0.441867
O10	O	1.115839	0.271328	-0.570936
O11	O	1.024772	0.441741	-0.271508
O12	O	0.904750	0.441650	-0.441795
O13	O	1.024838	0.570615	-0.741178
O14	O	0.904746	0.570652	-0.570822
O15	O	1.115834	0.441585	-0.741227
O16	O	1.115702	0.741069	-0.441803
O17	O	1.024763	0.741000	-0.570826
C18	C	0.877877	0.506146	-0.506301
C19	C	0.795563	0.506153	-0.506303
C20	C	1.070243	0.779156	-0.506331
C21	C	1.070292	0.895932	-0.506355
C22	C	1.070344	0.506085	-0.780390
C23	C	1.070367	0.506041	-0.897166
C24	C	0.496472	0.506218	-0.506391
C25	C	0.527775	0.424648	-0.425607
C26	C	0.613393	0.424867	-0.425262
C27	C	0.644855	0.506185	-0.506347
C28	C	0.613757	0.616861	-0.476100
C29	C	0.528112	0.616408	-0.475538
C30	C	0.528086	0.478074	-0.617613
C31	C	0.613737	0.475610	-0.617006
C32	C	0.728714	0.506173	-0.506324
C33	C	0.412613	0.506238	-0.506411
C34	C	1.263450	0.506232	-0.506412
C35	C	1.345764	0.506250	-0.506435
C36	C	1.070353	0.232155	-0.506405
C37	C	1.070380	0.115378	-0.506425
C38	C	1.165058	0.895951	-0.372103
C39	C	1.212460	0.950821	-0.304989
C40	C	1.212504	1.060543	-0.305018
C41	C	1.165141	1.115397	-0.372170
C42	C	1.117739	1.060527	-0.439283
C43	C	1.117699	0.950802	-0.439245
C44	C	1.022978	1.060508	-0.573539
C45	C	1.022930	0.950786	-0.573507
C46	C	0.975616	1.115362	-0.640690
C47	C	0.928208	1.060492	-0.707800
C48	C	0.928166	0.950764	-0.707768
C49	C	0.975527	0.895916	-0.640620
C50	C	1.165128	0.371692	-0.897237
C51	C	1.212518	0.304501	-0.952134
C52	C	1.212536	0.304463	-1.061855
C53	C	1.165157	0.371620	-1.116683
C54	C	1.117767	0.438811	-1.061787
C55	C	1.117755	0.438844	-0.952063
C56	C	1.023004	0.573153	-1.061716
C57	C	1.022988	0.573199	-0.951994
C58	C	0.975625	0.640311	-1.116544
C59	C	0.928237	0.707508	-1.061648
C60	C	0.928221	0.707544	-0.951919
C61	C	0.975598	0.640389	-0.897098
C62	C	1.070275	0.506215	-0.233389
C63	C	1.070394	0.505963	-0.116612
H64	H	0.634418	0.342796	-0.444221
N65	N	1.263652	0.231992	-1.121062
H66	H	1.297964	0.274688	-1.166590
H67	H	1.233525	0.183294	-1.166524
H68	H	0.975640	0.640271	-1.205885
N69	N	0.975565	0.640400	-0.778756
H70	H	0.938350	0.693146	-0.752295
H71	H	1.026378	0.659701	-0.752403
H72	H	1.165170	0.371574	-1.206024
N73	N	1.263624	0.232080	-0.892996
H74	H	1.293647	0.189511	-0.944423
H75	H	1.233490	0.183462	-0.847468
N76	N	1.263620	1.119739	-0.232628
H77	H	1.297941	1.165196	-0.275381
H78	H	1.293569	1.068285	-0.190093
N79	N	0.640652	0.367721	-0.647221
H80	H	0.672870	0.338764	-0.589479
H81	H	0.670181	0.372358	-0.714238
N82	N	1.263539	0.891664	-0.232555
H83	H	1.316455	0.910692	-0.248946
H84	H	1.256259	0.813848	-0.242744
N85	N	0.877034	0.891595	-0.780157
H86	H	0.842707	0.846146	-0.737403
H87	H	0.907146	0.846057	-0.828859
N88	N	0.499493	0.373036	-0.654052
H89	H	0.465751	0.342629	-0.598825
H90	H	0.542457	0.323982	-0.666150
H91	H	0.889660	0.762176	-1.106297
N92	N	0.877095	0.780009	-0.892724
H93	H	0.888571	0.855074	-0.911811
H94	H	0.884289	0.769762	-0.814913
H95	H	0.506226	0.443044	-0.343672
N96	N	0.500500	0.315602	-0.450422
H97	H	0.467587	0.318013	-0.514271
H98	H	0.471613	0.287568	-0.388777
H99	H	1.165187	1.204738	-0.372196
N100	N	0.877129	1.119647	-0.780224
H101	H	0.907229	1.165094	-0.828966
H102	H	0.842853	1.165186	-0.737421
N103	N	0.975481	0.777575	-0.640576
H104	H	1.026269	0.751078	-0.659943
H105	H	0.938234	0.751218	-0.693271
N106	N	0.640486	0.449511	-0.316094
H107	H	0.621613	0.520684	-0.294040
H108	H	0.696279	0.449695	-0.315485
H109	H	0.508101	0.640274	-0.394230
H110	H	1.165125	0.371726	-0.807896
H111	H	0.634137	0.679266	-0.533098
N112	N	0.500676	0.699633	-0.550077
H113	H	0.544219	0.736456	-0.583150
H114	H	0.469723	0.752172	-0.510308
N115	N	0.975662	1.233704	-0.640730
H116	H	1.012875	1.260143	-0.588023
H117	H	0.924849	1.260114	-0.621395
N118	N	1.165001	0.777609	-0.372059
H119	H	1.202193	0.751186	-0.319335
H120	H	1.178559	0.751180	-0.444174
H121	H	0.635173	0.641141	-0.395670
H122	H	0.507845	0.537487	-0.677805
N123	N	0.642101	0.548569	-0.701014
H124	H	0.675673	0.602720	-0.668385
H125	H	0.599021	0.584764	-0.735904
