data_functionalizedCrystal
_audit_creation_method	'MofGen! by Chris Wilmer'
_symmetry_space_group_name_H-M	'P1'
_symmetry_Int_Tables_number	1
_symmetry_cell_setting	triclinic
loop_
_symmetry_equiv_pos_as_xyz
  x,y,z
_cell_length_a	19.077105
_cell_length_b	12.759400
_cell_length_c	19.077174
_cell_angle_alpha	92.275311
_cell_angle_beta	85.483752
_cell_angle_gamma	87.711168
loop_
_atom_site_label
_atom_site_type_symbol
_atom_site_fract_x
_atom_site_fract_y
_atom_site_fract_z
Zn1	Zn	1.093766	-0.510482	-0.441863
Zn2	Zn	1.088970	-0.678821	-0.323981
Zn3	Zn	0.971149	-0.495796	-0.319260
Zn4	Zn	0.975864	-0.678752	-0.437099
O5	O	1.032437	-0.590963	-0.380551
O6	O	1.191780	-0.538988	-0.430195
O7	O	1.069361	-0.648424	-0.224705
O8	O	0.987448	-0.350726	-0.335541
O9	O	1.188257	-0.662665	-0.343588
O10	O	1.077534	-0.361516	-0.425617
O11	O	0.982798	-0.513957	-0.221236
O12	O	0.873124	-0.513890	-0.330922
O13	O	0.995484	-0.662548	-0.536381
O14	O	0.876588	-0.648307	-0.417498
O15	O	1.082106	-0.538921	-0.539881
O16	O	1.073933	-0.825829	-0.338969
O17	O	0.990835	-0.825779	-0.422076
C18	C	0.849277	-0.579498	-0.373181
C19	C	0.770921	-0.574620	-0.370045
C20	C	0.735928	-0.642409	-0.413576
C21	C	0.662304	-0.637812	-0.410633
C22	C	0.623674	-0.565430	-0.364154
C23	C	0.658672	-0.497634	-0.320621
C24	C	0.732294	-0.502227	-0.323569
C25	C	0.403291	-0.544174	-0.350517
C26	C	0.329663	-0.539588	-0.347571
C27	C	0.333300	-0.679766	-0.437584
C28	C	0.406924	-0.684356	-0.440525
C29	C	0.441915	-0.616557	-0.396994
N30	N	0.548418	-0.560732	-0.361143
N31	N	0.517170	-0.621251	-0.400009
C32	C	1.032395	-0.863926	-0.380534
C33	C	1.032442	-0.980707	-0.380554
C34	C	1.075764	-1.035567	-0.337331
C35	C	1.075808	-1.145295	-0.337355
C36	C	0.989203	-1.145294	-0.423824
C37	C	0.989163	-1.035568	-0.423804
C38	C	1.119043	-0.980706	-0.294081
C39	C	1.162367	-1.035566	-0.250855
C40	C	1.162411	-1.145294	-0.250878
C41	C	1.119131	-1.200162	-0.294128
C42	C	1.216313	-0.602473	-0.387950
C43	C	1.294670	-0.607377	-0.391103
C44	C	1.039856	-0.602365	-0.564425
C45	C	1.043018	-0.607224	-0.642781
C46	C	1.032500	-0.316935	-0.380583
C47	C	1.032526	-0.200161	-0.380597
C48	C	0.999436	-0.539498	-0.677787
C49	C	1.002404	-0.544073	-0.751410
C50	C	1.048957	-0.616368	-0.790028
C51	C	1.092540	-0.684101	-0.755017
C52	C	1.089569	-0.679532	-0.681395
C53	C	1.062675	-0.637548	-1.010410
C54	C	1.065645	-0.642110	-1.084038
C55	C	0.975507	-0.502082	-1.080426
C56	C	0.972542	-0.497515	-1.006802
C57	C	1.016123	-0.565251	-0.971798
N58	N	1.051993	-0.621043	-0.865283
N59	N	1.013082	-0.560581	-0.896543
C60	C	1.025088	-0.579531	-0.197394
C61	C	1.022063	-0.574385	-0.119043
H62	H	0.431771	-0.488974	-0.315066
O63	O	0.942433	-0.976385	-0.470414
H64	H	0.912336	-1.032964	-0.500483
H65	H	0.767375	-0.701354	-0.451422
O66	O	0.617011	-0.419587	-0.270471
H67	H	0.559937	-0.427797	-0.275722
O68	O	0.295562	-0.752880	-0.484542
H69	H	0.237878	-0.737522	-0.474691
H70	H	0.934632	-0.438647	-0.975364
O71	O	0.770042	-0.429125	-0.276609
H72	H	0.730813	-0.378031	-0.243787
O73	O	0.942523	-1.204474	-0.470464
H74	H	0.912395	-1.147892	-0.500521
H75	H	1.197693	-1.189958	-0.215687
O76	O	0.624554	-0.711118	-0.457449
H77	H	0.663782	-0.762300	-0.490207
H78	H	1.197609	-0.990887	-0.215647
H79	H	1.125063	-0.734674	-0.652895
H80	H	1.119176	-1.289511	-0.294149
O81	O	1.109694	-0.710577	-0.972659
H82	H	1.142574	-0.761599	-1.011884
O83	O	0.448590	-0.762416	-0.490661
H84	H	0.411888	-0.808775	-0.520444
O85	O	0.949228	-0.461518	-0.636136
H86	H	0.919418	-0.415198	-0.672849
O87	O	1.142755	-0.762079	-0.796664
H88	H	1.137506	-0.753872	-0.853740
H89	H	1.103557	-0.700984	-1.115478
H90	H	0.966913	-0.488927	-0.779908
H91	H	0.298212	-0.480635	-0.309727
H92	H	1.119010	-0.891360	-0.294055
O93	O	0.928511	-0.429015	-1.118178
H94	H	0.938396	-0.444334	-1.175861
