data_functionalizedCrystal
_audit_creation_method	'MofGen! by Chris Wilmer'
_symmetry_space_group_name_H-M	'P1'
_symmetry_Int_Tables_number	1
_symmetry_cell_setting	triclinic
loop_
_symmetry_equiv_pos_as_xyz
  x,y,z
_cell_length_a	18.050589
_cell_length_b	13.032831
_cell_length_c	18.050583
_cell_angle_alpha	82.810084
_cell_angle_beta	90.028091
_cell_angle_gamma	97.166814
loop_
_atom_site_label
_atom_site_type_symbol
_atom_site_fract_x
_atom_site_fract_y
_atom_site_fract_z
Zn1	Zn	-0.440027	-1.597555	0.563869
Zn2	Zn	-0.564219	-1.597419	0.439676
Zn3	Zn	-0.424265	-1.422804	0.423948
Zn4	Zn	-0.548379	-1.422741	0.548087
O5	O	-0.494223	-1.510130	0.493895
O6	O	-0.469727	-1.743774	0.560581
O7	O	-0.545687	-1.574226	0.333662
O8	O	-0.322439	-1.446069	0.442532
O9	O	-0.560970	-1.743674	0.469337
O10	O	-0.334019	-1.574457	0.545331
O11	O	-0.442864	-1.445937	0.322107
O12	O	-0.427504	-1.276559	0.427229
O13	O	-0.533973	-1.445961	0.654108
O14	O	-0.518690	-1.276513	0.518433
O15	O	-0.454367	-1.574396	0.665703
O16	O	-0.666035	-1.574164	0.454034
O17	O	-0.654398	-1.445829	0.533683
C18	C	-0.469668	-1.238618	0.469412
C19	C	-0.459182	-1.122464	0.458956
C20	C	-0.687164	-1.510004	0.493871
C21	C	-0.769713	-1.510045	0.493895
C22	C	-0.494162	-1.510187	0.687606
C23	C	-0.494136	-1.510211	0.770154
C24	C	-0.962868	-1.440325	0.537196
C25	C	-1.010012	-1.414853	0.467134
C26	C	-0.920853	-1.510148	0.493913
C27	C	-1.020796	-1.535671	0.563988
C28	C	-1.066847	-1.510245	0.493938
C29	C	-0.966904	-1.484626	0.423811
C30	C	-0.977688	-1.605488	0.520714
C31	C	-1.024812	-1.580052	0.450609
C32	C	-0.836749	-1.510089	0.493900
C33	C	-1.150948	-1.510304	0.493943
C34	C	-0.300531	-1.510285	0.493938
C35	C	-0.217991	-1.510351	0.493956
C36	C	-0.518874	-1.782702	0.518474
C37	C	-0.529378	-1.898855	0.528948
C38	C	-0.499696	-1.070684	0.499352
C39	C	-0.488859	-0.950633	0.488546
C40	C	-0.494236	-1.510133	0.300943
C41	C	-0.494071	-1.510312	0.218414
C42	C	-0.450802	-1.580119	1.025291
C43	C	-0.520870	-1.605619	0.978179
C44	C	-0.494094	-1.510278	1.067280
C45	C	-0.424055	-1.484794	0.967311
C46	C	-0.494111	-1.510248	0.921292
C47	C	-0.564203	-1.535828	1.021261
C48	C	-0.467338	-1.414959	1.010393
C49	C	-0.537450	-1.440422	0.963301
C50	C	-0.494084	-1.510298	1.151381
C51	C	-0.494129	-1.510227	0.837194
H52	H	-0.935870	-1.381192	0.573732
O53	O	-0.550556	-1.123933	0.550204
C54	C	-0.513993	-1.187098	0.603900
H55	H	-0.459136	-1.203351	0.579256
H56	H	-0.502140	-1.145135	0.655199
C57	C	-0.631540	-1.270865	0.656814
C58	C	-0.564168	-1.290834	0.626544
H59	H	-0.662491	-1.334853	0.670785
H60	H	-0.656174	-1.228308	0.620640
H61	H	-0.621653	-1.235893	0.699560
H62	H	-0.574055	-1.325794	0.583794
H63	H	-0.539536	-1.333401	0.662712
H64	H	-0.446144	-0.906091	0.445961
H65	H	-0.574117	-1.381347	0.936424
O66	O	-0.634933	-1.561475	1.049287
C67	C	-0.680571	-1.488210	1.016916
H68	H	-0.644323	-1.412121	0.995901
H69	H	-0.711999	-1.519968	0.968162
C70	C	-0.781454	-1.561518	1.101614
C71	C	-0.736934	-1.468061	1.075808
H72	H	-0.816224	-1.549091	1.137939
H73	H	-0.750709	-1.610881	1.123421
H74	H	-0.807637	-1.587973	1.060979
H75	H	-0.710745	-1.441614	1.116441
H76	H	-0.767677	-1.418693	1.054009
O77	O	-0.408276	-1.069452	0.408054
C78	C	-0.426812	-1.095980	0.336381
H79	H	-0.462467	-1.175238	0.341882
H80	H	-0.459455	-1.034539	0.305811
C81	C	-0.311010	-1.003545	0.285197
C82	C	-0.354796	-1.100895	0.291954
H83	H	-0.266588	-1.006572	0.257790
H84	H	-0.298523	-0.985668	0.333484
H85	H	-0.338221	-0.952354	0.259724
H86	H	-0.327589	-1.152081	0.317434
H87	H	-0.367278	-1.118780	0.243670
H88	H	-0.444678	-1.334386	1.024847
H89	H	-0.364817	-1.463254	0.943690
H90	H	-0.572086	-0.943396	0.571541
H91	H	-1.044389	-1.557220	0.623240
H92	H	-0.414239	-1.639239	1.052308
O93	O	-0.547765	-1.701830	0.960993
C94	C	-0.501965	-1.775250	0.992790
H95	H	-0.444134	-1.733736	1.002924
H96	H	-0.527713	-1.815811	1.048113
C97	C	-0.566306	-1.907725	0.926652
C98	C	-0.495274	-1.856738	0.939094
H99	H	-0.562180	-1.957994	0.893532
H100	H	-0.597164	-1.858262	0.905232
H101	H	-0.587754	-1.941517	0.972759
H102	H	-0.473831	-1.822936	0.892989
H103	H	-0.464412	-1.906197	0.960505
H104	H	-0.943392	-1.462984	0.364535
O105	O	-1.027253	-1.318656	0.440214
C106	C	-0.995479	-1.245219	0.485981
H107	H	-0.985311	-1.286722	0.543823
H108	H	-0.940179	-1.204639	0.460206
C109	C	-1.061698	-1.112783	0.421616
C110	C	-1.049215	-1.163755	0.492660
H111	H	-1.094843	-1.062529	0.425734
H112	H	-1.083103	-1.162256	0.390780
H113	H	-1.015611	-1.078974	0.400145
H114	H	-1.095300	-1.197573	0.514126
H115	H	-1.027819	-1.114285	0.523501
H116	H	-1.051670	-1.639141	0.413968
H117	H	-0.963189	-1.686050	0.543394
