data_functionalizedCrystal
_audit_creation_method	'MofGen! by Chris Wilmer'
_symmetry_space_group_name_H-M	'P1'
_symmetry_Int_Tables_number	1
_symmetry_cell_setting	triclinic
loop_
_symmetry_equiv_pos_as_xyz
  x,y,z
_cell_length_a	21.295417
_cell_length_b	13.897449
_cell_length_c	13.897441
_cell_angle_alpha	89.976606
_cell_angle_beta	89.963577
_cell_angle_gamma	90.031333
loop_
_atom_site_label
_atom_site_type_symbol
_atom_site_fract_x
_atom_site_fract_y
_atom_site_fract_z
Zn1	Zn	-0.250575	1.474617	-0.545411
Zn2	Zn	-0.355854	1.474475	-0.384096
Zn3	Zn	-0.250604	1.313306	-0.384121
Zn4	Zn	-0.355812	1.313252	-0.545341
O5	O	-0.303211	1.393912	-0.464742
O6	O	-0.264546	1.609580	-0.524030
O7	O	-0.341922	1.453059	-0.249117
O8	O	-0.162511	1.334786	-0.405557
O9	O	-0.341894	1.609475	-0.405513
O10	O	-0.162490	1.453301	-0.524055
O11	O	-0.264596	1.334649	-0.249136
O12	O	-0.264555	1.178317	-0.405489
O13	O	-0.341822	1.334694	-0.680332
O14	O	-0.341851	1.178277	-0.523936
O15	O	-0.264505	1.453248	-0.680383
O16	O	-0.443938	1.453006	-0.405445
O17	O	-0.443907	1.334556	-0.523911
C18	C	-0.303202	1.143298	-0.464708
C19	C	-0.303213	1.036084	-0.464717
C20	C	-0.303215	0.949014	-0.464733
C21	C	-0.303219	0.839782	-0.464762
C22	C	-0.466763	1.393786	-0.464689
C23	C	-0.536731	1.393820	-0.464698
C24	C	-0.569593	1.455552	-0.403076
C25	C	-0.635336	1.455597	-0.403098
C26	C	-0.668214	1.393893	-0.464731
C27	C	-0.635344	1.332157	-0.526365
C28	C	-0.569603	1.332120	-0.526349
N29	N	-0.771480	1.309512	-0.472074
N30	N	-0.833931	1.309550	-0.472084
C31	C	-0.866288	1.394001	-0.464787
N32	N	-0.833835	1.478416	-0.457460
N33	N	-0.771378	1.478377	-0.457445
C34	C	-0.739499	1.393926	-0.464757
C35	C	-0.970436	1.455787	-0.403185
C36	C	-1.036179	1.455834	-0.403213
C37	C	-1.036187	1.332386	-0.526476
C38	C	-0.970444	1.332347	-0.526453
C39	C	-0.937573	1.394047	-0.464802
C40	C	-0.139021	1.394065	-0.464817
C41	C	-0.069053	1.394131	-0.464849
C42	C	-0.303222	1.645505	-0.464776
C43	C	-0.303226	1.752719	-0.464791
C44	C	-0.303156	1.393981	-0.716335
C45	C	-0.303132	1.394010	-0.823549
C46	C	-0.303090	1.394036	-1.019845
C47	C	-0.303115	1.394018	-0.910612
C48	C	-0.303221	1.393900	-0.214128
C49	C	-0.303068	1.394057	-0.106914
H50	H	-0.542831	1.505793	-0.352879
O51	O	-0.938421	1.272463	-0.586274
C52	C	-0.873347	1.285643	-0.573025
H53	H	-0.864340	1.360096	-0.541503
H54	H	-0.848327	1.279046	-0.645264
H55	H	-0.854752	1.228446	-0.521598
H56	H	-1.062955	1.282149	-0.576664
O57	O	-0.667348	1.272351	-0.586283
C58	C	-0.705300	1.327257	-0.648658
H59	H	-0.715123	1.400380	-0.614707
H60	H	-0.751546	1.287986	-0.661558
H61	H	-0.679922	1.337805	-0.720145
H62	H	-1.062935	1.506109	-0.353035
H63	H	-0.542846	1.281850	-0.576530
O64	O	-0.938597	1.515813	-0.343274
C65	C	-0.981703	1.570299	-0.288875
H66	H	-1.028541	1.573651	-0.328404
H67	H	-0.962666	1.646291	-0.278647
H68	H	-0.988759	1.535017	-0.215587
O69	O	-0.667169	1.515593	-0.343140
C70	C	-0.624059	1.570060	-0.288743
H71	H	-0.577219	1.530532	-0.285358
H72	H	-0.643088	1.580389	-0.212758
H73	H	-0.617009	1.643301	-0.324124
