data_functionalizedCrystal
_audit_creation_method	'MofGen! by Chris Wilmer'
_symmetry_space_group_name_H-M	'P1'
_symmetry_Int_Tables_number	1
_symmetry_cell_setting	triclinic
loop_
_symmetry_equiv_pos_as_xyz
  x,y,z
_cell_length_a	14.560438
_cell_length_b	14.560438
_cell_length_c	14.560438
_cell_angle_alpha	59.996693
_cell_angle_beta	90.001334
_cell_angle_gamma	60.001327
loop_
_atom_site_label
_atom_site_type_symbol
_atom_site_fract_x
_atom_site_fract_y
_atom_site_fract_z
Zr1	Zr	0.884769	1.005307	-0.120581
O2	O	0.738118	1.196919	-0.267244
O3	O	0.929724	0.813698	-0.075612
O4	O	0.929720	1.005310	-0.267229
O5	O	0.738126	1.005306	0.075514
O6	O	1.080861	1.005308	-0.267227
O7	O	0.738122	1.005308	-0.075627
O8	O	1.080867	0.662550	0.075540
O9	O	0.738119	1.348063	-0.267253
O10	O	1.061692	0.892508	-0.056443
O11	O	0.948901	0.892507	0.056350
O12	O	0.948897	1.118105	-0.169253
O13	O	0.836105	1.118104	-0.056460
Zr14	Zr	1.125826	1.005301	0.120474
Zr15	Zr	1.125820	1.005305	-0.120578
Zr16	Zr	0.884775	1.005303	0.120471
Zr17	Zr	0.884770	1.246364	-0.120596
Zr18	Zr	1.125824	0.764244	0.120489
O19	O	1.080871	1.196910	0.075505
O20	O	1.080862	1.196916	-0.267240
O21	O	0.738127	1.196914	0.075502
O22	O	1.272476	0.813689	0.267136
O23	O	1.272468	0.813695	-0.075609
O24	O	0.929733	0.813692	0.267133
O25	O	1.272469	1.005303	-0.075621
O26	O	1.080874	1.005299	0.267122
O27	O	0.929734	1.005301	0.267120
O28	O	1.272473	1.005301	0.075520
O29	O	0.929723	1.348061	-0.267251
O30	O	1.080872	0.662547	0.267144
O31	O	1.272475	0.662545	0.267146
O32	O	1.272470	0.662549	0.075542
O33	O	0.738124	1.348060	-0.075649
O34	O	0.929728	1.348058	-0.075647
O35	O	1.061698	0.892504	0.169146
O36	O	1.174489	0.892505	0.056353
O37	O	1.061694	1.118102	-0.056458
O38	O	0.948903	1.118101	0.056336
C39	C	1.005295	0.703779	-0.000034
C40	C	1.005294	0.601444	-0.000028
C41	C	0.922026	0.636660	-0.083311
C42	C	0.922031	0.540520	-0.083340
C43	C	1.088577	0.373949	0.083208
C44	C	1.088576	0.470088	0.083231
C45	C	0.703779	1.005307	-0.000057
C46	C	0.601446	1.005308	-0.000058
C47	C	0.553368	1.005312	-0.083325
C48	C	0.457220	1.005304	-0.083318
C49	C	0.457235	1.005292	0.083226
C50	C	0.553386	1.005292	0.083223
C51	C	1.306816	1.005301	-0.000050
C52	C	1.409148	1.005301	-0.000049
C53	C	1.005290	1.005309	-0.301573
C54	C	1.005287	1.005311	-0.403906
C55	C	1.005300	1.306830	-0.000073
C56	C	1.005300	1.409165	-0.000080
C57	C	0.946410	1.123068	-0.510868
C58	C	0.946423	1.123062	-0.607017
C59	C	1.064192	0.887531	-0.489228
C60	C	1.064185	0.887539	-0.393081
C61	C	1.005305	1.005299	0.301466
C62	C	1.005308	1.005298	0.403799
C63	C	1.306814	0.703776	-0.000031
C64	C	1.409145	0.601440	-0.000023
C65	C	1.005303	0.703774	0.301485
C66	C	1.005305	0.601437	0.403825
C67	C	1.306821	0.703771	0.301489
C68	C	1.409156	0.601433	0.403829
C69	C	0.703774	1.306838	-0.301596
C70	C	0.601439	1.409175	-0.403936
C71	C	0.703781	1.306833	-0.000076
C72	C	0.601449	1.409169	-0.000084
C73	C	1.005292	1.306835	-0.301592
C74	C	1.005290	1.409172	-0.403932
C75	C	1.398345	0.553361	-0.058895
C76	C	1.494501	0.457214	-0.058892
C77	C	1.612253	0.457228	0.058865
C78	C	1.516099	0.553380	0.058854
C79	C	1.064183	0.553356	0.510782
C80	C	1.064172	0.457208	0.606937
C81	C	0.946402	0.457229	0.489163
C82	C	0.946407	0.553381	0.393011
C83	C	1.516108	0.553353	0.393035
C84	C	1.612259	0.457204	0.489199
C85	C	1.494489	0.457221	0.606948
C86	C	1.398342	0.553374	0.510785
H87	H	1.156389	0.441402	0.151053
H88	H	1.311250	0.592525	0.519583
O89	O	0.889371	1.237384	-0.521237
C90	C	0.964957	1.244452	-0.469165
H91	H	1.042453	1.142207	-0.403625
H92	H	0.922237	1.294300	-0.426484
H93	H	0.991302	1.302562	-0.535279
H94	H	1.524919	0.592482	0.305950
O95	O	0.599948	1.005258	-0.164267
C96	C	0.536875	1.005290	-0.237773
H97	H	0.488786	0.964391	-0.192906
H98	H	0.596011	0.942568	-0.264647
H99	H	0.474828	1.108931	-0.315203
O100	O	1.484190	0.410343	0.710928
C101	C	1.591986	0.315185	0.793491
H102	H	1.655723	0.273127	0.756030
H103	H	1.590920	0.234295	0.867640
H104	H	1.616481	0.361182	0.823567
H105	H	0.854206	0.743612	-0.151100
O106	O	1.121469	0.410601	0.710752
C107	C	1.173425	0.473664	0.699669
H108	H	1.185086	0.513282	0.613868
H109	H	1.258953	0.401524	0.768639
H110	H	1.118253	0.557177	0.707541
H111	H	0.418079	1.005305	-0.151120
H112	H	0.854226	0.569206	-0.151159
H113	H	1.156381	0.266990	0.150996
H114	H	0.418094	1.005282	0.151030
H115	H	0.898481	1.218952	-0.694107
H116	H	1.699342	0.418062	0.480402
O117	O	1.294512	0.599831	-0.116012
C118	C	1.282185	0.497221	-0.072693
H119	H	1.368742	0.401034	-0.029567
H120	H	1.231614	0.511721	-0.144352
H121	H	1.236232	0.495936	-0.009136
O122	O	0.599923	1.005348	0.164165
C123	C	0.536898	1.005314	0.237682
H124	H	0.447905	1.046216	0.192825
H125	H	0.533329	1.068030	0.264556
H126	H	0.578494	0.901671	0.315111
H127	H	1.112143	0.791645	-0.480428
H128	H	1.485697	0.418074	-0.106834
O129	O	1.121398	0.773026	-0.289253
C130	C	1.173399	0.669076	-0.300313
H131	H	1.127225	0.703586	-0.386114
H132	H	1.170233	0.586715	-0.231342
H133	H	1.264786	0.632869	-0.292428
H134	H	1.112137	0.592485	0.519594
H135	H	1.524901	0.592530	0.106795
O136	O	1.716231	0.410350	0.116046
C137	C	1.798786	0.315193	0.103412
H138	H	1.761321	0.273136	0.081734
H139	H	1.872931	0.234303	0.185372
H140	H	1.828863	0.361191	0.032918
O141	O	0.889128	0.410548	0.478811
C142	C	0.806474	0.434062	0.530877
H143	H	0.831213	0.446036	0.596403
H144	H	0.799356	0.348647	0.573576
H145	H	0.722017	0.526515	0.464758
O146	O	0.889193	0.599909	0.289187
C147	C	0.837192	0.536893	0.300258
H148	H	0.883368	0.439425	0.386062
H149	H	0.840357	0.520336	0.231292
H150	H	0.745806	0.599957	0.292372
