data_functionalizedCrystal
_audit_creation_method	'MofGen! by Chris Wilmer'
_symmetry_space_group_name_H-M	'P1'
_symmetry_Int_Tables_number	1
_symmetry_cell_setting	triclinic
loop_
_symmetry_equiv_pos_as_xyz
  x,y,z
_cell_length_a	19.077212
_cell_length_b	12.827892
_cell_length_c	19.076919
_cell_angle_alpha	87.724465
_cell_angle_beta	90.114942
_cell_angle_gamma	92.307656
loop_
_atom_site_label
_atom_site_type_symbol
_atom_site_fract_x
_atom_site_fract_y
_atom_site_fract_z
Zn1	Zn	1.058332	-0.379361	0.440602
Zn2	Zn	1.558332	0.120639	0.940602
Zn3	Zn	1.062989	-0.546831	0.323103
Zn4	Zn	1.562989	-0.046831	0.823103
Zn5	Zn	0.945547	-0.378811	0.318377
Zn6	Zn	1.445547	0.121189	0.818377
Zn7	Zn	0.940810	-0.560770	0.435837
Zn8	Zn	1.440810	-0.060770	0.935837
O9	O	1.001920	-0.466443	0.379480
O10	O	1.501920	0.033557	0.879480
O11	O	1.157283	-0.395973	0.428987
O12	O	1.657283	0.104027	0.928987
O13	O	1.051342	-0.518479	0.224145
O14	O	1.551342	-0.018479	0.724145
O15	O	0.960542	-0.232647	0.334607
O16	O	1.460542	0.267353	0.834607
O17	O	1.160705	-0.519012	0.342661
O18	O	1.660705	-0.019012	0.842661
O19	O	1.043404	-0.233051	0.424405
O20	O	1.543404	0.266949	0.924405
O21	O	0.965058	-0.395035	0.220673
O22	O	1.465058	0.104965	0.720673
O23	O	0.846586	-0.408551	0.329987
O24	O	1.346586	0.091449	0.829987
O25	O	0.952468	-0.542769	0.534800
O26	O	1.452468	-0.042769	1.034800
O27	O	0.843105	-0.542236	0.416284
O28	O	1.343105	-0.042236	0.916284
O29	O	1.038811	-0.409489	0.538301
O30	O	1.538811	0.090511	1.038301
O31	O	1.046749	-0.694917	0.338041
O32	O	1.546749	-0.194917	0.838041
O33	O	0.956984	-0.705158	0.420866
O34	O	1.456984	-0.205158	0.920866
C35	C	0.819349	-0.476847	0.372106
C36	C	1.319349	0.023153	0.872106
C37	C	0.741243	-0.481324	0.368968
C38	C	1.241243	0.018676	0.868968
C39	C	0.301783	-0.513393	0.346495
C40	C	0.801783	-0.013393	0.846495
C41	C	0.375172	-0.509180	0.349438
C42	C	0.875172	-0.009180	0.849438
C43	C	0.410084	-0.443128	0.395928
C44	C	0.910084	0.056872	0.895928
C45	C	0.371603	-0.381276	0.439473
C46	C	0.871603	0.118724	0.939473
C47	C	0.298216	-0.385484	0.436526
C48	C	0.798216	0.114516	0.936526
C49	C	0.629376	-0.423681	0.409566
C50	C	1.129376	0.076319	0.909566
C51	C	0.702768	-0.419480	0.412511
C52	C	1.202768	0.080520	0.912511
C53	C	0.706332	-0.547383	0.322475
C54	C	1.206332	-0.047383	0.822475
C55	C	0.632943	-0.551589	0.319535
C56	C	1.132943	-0.051589	0.819535
C57	C	0.594469	-0.489734	0.363077
C58	C	1.094469	0.010266	0.863077
N59	N	0.485098	-0.438823	0.398939
N60	N	0.985098	0.061177	0.898939
N61	N	0.519456	-0.494034	0.360062
N62	N	1.019456	0.005966	0.860062
C63	C	1.001876	-0.737955	0.379466
C64	C	1.501876	-0.237955	0.879466
C65	C	1.001921	-0.854106	0.379486
C66	C	1.501921	-0.354106	0.879486
C67	C	1.046388	-0.900789	0.338551
C68	C	1.546388	-0.400789	0.838551
C69	C	1.046435	-1.020838	0.338570
C70	C	1.546435	-0.520838	0.838570
C71	C	1.185204	-0.455999	0.386883
C72	C	1.685204	0.044001	0.886883
C73	C	1.263308	-0.451548	0.390038
C74	C	1.763308	0.048452	0.890038
C75	C	0.994591	-0.477745	0.562759
C76	C	1.494591	0.022255	1.062759
C77	C	0.991468	-0.482562	0.640862
C78	C	1.491468	0.017438	1.140862
C79	C	1.001982	-0.193871	0.379510
C80	C	1.501982	0.306129	0.879510
C81	C	1.002008	-0.077717	0.379523
C82	C	1.502008	0.422283	0.879523
C83	C	1.009260	-0.455107	0.196915
C84	C	1.509260	0.044893	0.696915
C85	C	1.012519	-0.449988	0.118818
C86	C	1.512519	0.050012	0.618818
C87	C	1.034953	-0.415436	0.679379
C88	C	1.534953	0.084564	1.179379
C89	C	1.032010	-0.419958	0.752764
C90	C	1.532010	0.080042	1.252764
C91	C	0.985586	-0.491612	0.787632
C92	C	1.485586	0.008388	1.287632
C93	C	0.942096	-0.558740	0.749110
C94	C	1.442096	-0.058740	1.249110
C95	C	0.945036	-0.554213	0.675726
C96	C	1.445036	-0.054213	1.175726
C97	C	0.971970	-0.512589	1.006912
C98	C	1.471970	-0.012589	1.506912
C99	C	0.969035	-0.517114	1.080302
C100	C	1.469035	-0.017114	1.580302
C101	C	1.058948	-0.378330	1.083950
C102	C	1.558948	0.121670	1.583950
C103	C	1.061886	-0.373813	1.010565
C104	C	1.561886	0.126187	1.510565
C105	C	1.018395	-0.440938	0.972049
C106	C	1.518395	0.059062	1.472049
N107	N	0.982578	-0.496238	0.862644
N108	N	1.482578	0.003762	1.362644
N109	N	1.021399	-0.436306	0.897039
N110	N	1.521399	0.063694	1.397039
H111	H	0.273364	-0.567185	0.308641
H112	H	0.773364	-0.067185	0.808641
H113	H	0.963933	-1.037559	0.414568
H114	H	1.463933	-0.537559	0.914568
H115	H	1.099692	-0.315467	0.982181
H116	H	1.599692	0.184533	1.482181
H117	H	0.936566	-0.567262	0.975562
H118	H	1.436566	-0.067262	1.475562
F119	F	0.892685	-0.634996	0.786221
F120	F	1.392685	-0.134996	1.286221
F121	F	1.096194	-1.073333	0.292757
F122	F	1.596194	-0.573333	0.792757
H123	H	1.072759	-0.357091	0.650995
H124	H	1.572759	0.142909	1.150995
F125	F	1.105230	-0.306893	1.124946
F126	F	1.605230	0.193107	1.624946
F127	F	0.739922	-0.349173	0.461993
F128	F	1.239922	0.150827	0.961993
F129	F	1.096108	-0.836867	0.292726
F130	F	1.596108	-0.336867	0.792726
H131	H	0.931228	-0.575466	1.108689
H132	H	1.431228	-0.075466	1.608689
H133	H	0.909619	-0.608864	0.644366
H134	H	1.409619	-0.108864	1.144366
F135	F	0.952208	-0.918028	0.425318
F136	F	1.452208	-0.418028	0.925318
F137	F	0.595794	-0.621867	0.270038
F138	F	1.095794	-0.121867	0.770038
F139	F	0.408761	-0.310975	0.488949
F140	F	0.908761	0.189025	0.988949
F141	F	1.078317	-0.348547	0.793754
F142	F	1.578317	0.151453	1.293754
H143	H	0.737665	-0.597741	0.287025
H144	H	1.237665	-0.097741	0.787025
F145	F	0.416117	-0.574983	0.303079
F146	F	0.916117	-0.074983	0.803079
H147	H	0.598059	-0.373319	0.445024
H148	H	1.098059	0.126681	0.945024
F149	F	0.257268	-0.319656	0.482867
F150	F	0.757268	0.180344	0.982867
