data_functionalizedCrystal
_audit_creation_method	'MofGen! by Chris Wilmer'
_symmetry_space_group_name_H-M	'P1'
_symmetry_Int_Tables_number	1
_symmetry_cell_setting	triclinic
loop_
_symmetry_equiv_pos_as_xyz
  x,y,z
_cell_length_a	27.731993
_cell_length_b	10.489741
_cell_length_c	9.565339
_cell_angle_alpha	89.999484
_cell_angle_beta	90.008024
_cell_angle_gamma	96.420217
loop_
_atom_site_label
_atom_site_type_symbol
_atom_site_fract_x
_atom_site_fract_y
_atom_site_fract_z
O1	O	0.641900	-0.151415	-0.115883
O2	O	0.501249	-0.174562	-0.115968
O3	O	0.574775	0.022752	-0.115915
O4	O	0.568374	-0.348729	-0.115936
O5	O	0.574769	0.022739	0.116605
O6	O	0.501243	-0.174575	0.116552
O7	O	0.641894	-0.151427	0.116637
Zn8	Zn	0.571568	-0.163003	0.153512
Zn9	Zn	0.571575	-0.162987	-0.152843
O10	O	0.568368	-0.348741	0.116584
C11	C	0.483235	-0.174093	0.000281
C12	C	0.429570	-0.172663	0.000249
C13	C	0.046348	-0.162285	-0.126430
C14	C	0.248040	-0.167739	-0.126468
O15	O	0.274119	-0.168387	-0.234264
N16	N	0.273261	-0.168428	0.000276
C17	C	0.248057	-0.167745	0.127038
O18	O	0.274138	-0.168443	0.234841
C19	C	0.046366	-0.162282	0.127075
C20	C	0.021147	-0.161606	0.000323
C21	C	0.021128	-0.161608	-0.253171
C22	C	-0.029292	-0.160251	-0.253161
C23	C	-0.054493	-0.159572	-0.126408
C24	C	-0.029273	-0.160250	0.000334
C25	C	0.021163	-0.161590	0.253836
C26	C	-0.029262	-0.160221	0.253834
C27	C	-0.054482	-0.159545	0.127082
C28	C	-0.104895	-0.158215	0.127097
N29	N	-0.130116	-0.157525	0.000353
C30	C	-0.104915	-0.158204	-0.126399
C31	C	0.353947	-0.170616	0.127010
C32	C	0.404369	-0.171984	0.127001
C33	C	0.404349	-0.171975	-0.126506
C34	C	0.353925	-0.170616	-0.126495
C35	C	0.328726	-0.169927	0.000266
C36	C	-0.210801	-0.155357	-0.126367
C37	C	-0.261226	-0.154006	-0.126345
C38	C	-0.261201	-0.154008	0.127161
C39	C	-0.210781	-0.155366	0.127140
C40	C	-0.185582	-0.156036	0.000365
O41	O	-0.131005	-0.157551	0.234836
O42	O	-0.131003	-0.157478	-0.234186
C43	C	0.096768	-0.163641	-0.126441
C44	C	0.121987	-0.164319	0.000301
C45	C	0.096786	-0.163640	0.127054
C46	C	0.172410	-0.165687	0.000292
C47	C	0.197611	-0.166366	-0.126460
C48	C	0.172389	-0.165677	-0.253204
C49	C	0.121969	-0.164320	-0.253193
C50	C	0.122008	-0.164329	0.253798
C51	C	0.172428	-0.165687	0.253776
C52	C	0.197629	-0.166366	0.127024
C53	C	0.574288	0.070256	0.000343
C54	C	0.572842	0.211821	0.000340
C55	C	0.659907	-0.151896	0.000385
C56	C	0.713573	-0.153327	0.000408
C57	C	0.568854	-0.396245	0.000322
C58	C	0.570301	-0.537810	0.000316
N59	N	0.571566	-0.163013	0.362591
C60	C	0.526060	0.277880	0.000302
C61	C	0.548156	0.370980	0.114959
C62	C	0.548173	0.370967	-0.114287
C63	C	0.594958	0.303055	0.115093
C64	C	0.594968	0.303033	-0.114257
C65	C	0.617099	0.396106	0.000429
N66	N	0.571581	-0.162966	-0.361923
C67	C	0.537552	-0.254234	0.453770
C68	C	0.581316	-0.278099	0.546974
C69	C	0.527821	-0.139158	0.546943
C70	C	0.615352	-0.186934	0.453744
C71	C	0.561829	-0.047944	0.453704
C72	C	0.605623	-0.071759	0.546866
H73	H	0.333395	-0.170066	-0.229708
H74	H	0.553569	0.049315	0.412704
H75	H	-0.281758	-0.153459	-0.229566
C76	C	-0.183090	-0.156102	-0.265826
N77	N	-0.162219	-0.156672	-0.370867
C78	C	0.498732	-0.358543	0.398531
N79	N	0.469495	-0.437111	0.356921
H80	H	0.528375	0.401055	-0.211231
H81	H	0.101440	-0.163770	-0.356408
H82	H	0.655598	0.447242	0.000516
H83	H	-0.049821	-0.159695	-0.356375
H84	H	0.424898	-0.172555	0.230216
H85	H	0.487595	0.226519	0.000394
C86	C	0.477836	-0.111920	0.602243
N87	N	0.440185	-0.091413	0.643890
C88	C	0.621672	0.262587	0.246199
N89	N	0.641790	0.232103	0.344949
C90	C	0.621690	0.262282	-0.245189
N91	N	0.641814	0.231585	-0.343818
C92	C	0.048841	-0.162352	-0.392622
N93	N	0.069711	-0.162921	-0.497665
C94	C	0.521411	0.411686	0.245879
N95	N	0.501263	0.442342	0.344483
C96	C	0.592453	-0.409531	0.602336
N97	N	0.600837	-0.508528	0.644034
C98	C	0.665348	-0.214330	0.398674
N99	N	0.703004	-0.234970	0.357193
H100	H	0.424876	-0.172532	-0.229713
C101	C	-0.056979	-0.159470	0.393285
N102	N	-0.077854	-0.158910	0.498320
C103	C	0.326233	-0.169885	0.266467
N104	N	0.305360	-0.169347	0.371508
C105	C	-0.183039	-0.156119	0.266573
N106	N	-0.162147	-0.156674	0.371596
H107	H	0.041688	-0.162137	0.357051
C108	C	0.200120	-0.166419	-0.392632
N109	N	0.221010	-0.166969	-0.497644
H110	H	-0.281729	-0.153460	0.230360
C111	C	0.644534	0.032480	0.601765
N112	N	0.673843	0.110984	0.643125
H113	H	0.192957	-0.166248	0.357001
H114	H	0.101495	-0.163770	0.357017
