data_functionalizedCrystal
_audit_creation_method	'MofGen! by Chris Wilmer'
_symmetry_space_group_name_H-M	'P1'
_symmetry_Int_Tables_number	1
_symmetry_cell_setting	triclinic
loop_
_symmetry_equiv_pos_as_xyz
  x,y,z
_cell_length_a	10.540535
_cell_length_b	9.016244
_cell_length_c	10.540539
_cell_angle_alpha	89.995353
_cell_angle_beta	95.475433
_cell_angle_gamma	89.999975
loop_
_atom_site_label
_atom_site_type_symbol
_atom_site_fract_x
_atom_site_fract_y
_atom_site_fract_z
O1	O	1.685886	0.123252	-0.178877
O2	O	1.316473	0.123272	-0.195739
O3	O	1.509607	0.123259	-0.002602
O4	O	1.492751	0.123264	-0.372015
O5	O	1.509599	-0.123421	-0.002587
O6	O	1.316464	-0.123409	-0.195725
O7	O	1.685878	-0.123429	-0.178863
Cu8	Cu	1.501170	-0.145943	-0.187292
Cu9	Cu	1.501180	0.145785	-0.187310
O10	O	1.492743	-0.123417	-0.372000
C11	C	1.269165	-0.000066	-0.194469
C12	C	1.128217	-0.000058	-0.190689
C13	C	1.091546	-0.000066	-0.049675
C14	C	0.944946	-0.000641	-0.045698
C15	C	0.918876	-0.140668	-0.255051
C16	C	1.065642	-0.140771	-0.258052
C17	C	1.065535	0.139761	-0.260120
C18	C	0.919189	0.141594	-0.253598
N19	N	1.501173	-0.351129	-0.187280
C20	C	1.604873	-0.586122	-0.084320
C21	C	1.604593	-0.414231	-0.083927
C22	C	1.368468	-0.413547	-0.157151
C23	C	1.369084	-0.585492	-0.156428
C24	C	1.529015	-0.585633	-0.320727
C25	C	1.532010	-0.413678	-0.319855
C26	C	1.733185	-0.000088	-0.180133
C27	C	1.874134	-0.000086	-0.183913
C28	C	1.508339	-0.000078	0.044709
C29	C	1.504557	-0.000070	0.185657
N30	N	1.501188	0.350972	-0.187312
C31	C	1.494011	-0.000076	-0.419311
C32	C	1.497793	-0.000074	-0.560259
C33	C	1.359640	0.000491	0.369081
C34	C	1.363474	-0.000064	0.222463
C35	C	1.572448	-0.140941	0.247324
C36	C	1.567633	-0.141059	0.393868
C37	C	1.570512	0.139463	0.394370
C38	C	1.571812	0.141325	0.247388
H39	H	0.890590	0.245598	-0.201829
H40	H	0.916490	-0.102012	0.009677
N41	N	1.428882	-0.639512	-0.422275
H42	H	1.365790	-0.704666	-0.382128
H43	H	1.471041	-0.698269	-0.488203
H44	H	1.289401	-0.372675	-0.230114
N45	N	1.286105	-0.132568	0.409077
H46	H	1.208042	-0.098178	0.449353
H47	H	1.341988	-0.193154	0.472729
N48	N	0.856138	-0.147077	-0.389845
H49	H	0.804711	-0.241382	-0.402071
H50	H	0.923764	-0.145380	-0.451562
N51	N	0.854245	0.153418	-0.387228
H52	H	0.794434	0.066709	-0.404569
H53	H	0.920591	0.152467	-0.450313
H54	H	1.587223	-0.629349	0.014101
H55	H	1.087720	0.141122	-0.363871
H56	H	1.703810	-0.627467	-0.102166
H57	H	1.107998	0.246354	-0.216124
H58	H	1.623782	-0.628991	-0.349391
N59	N	0.906078	0.132804	0.028011
H60	H	0.845714	0.196439	-0.028822
H61	H	0.984308	0.192418	0.058193
H62	H	1.669099	-0.147455	0.441839
H63	H	1.629639	-0.372882	-0.342690
H64	H	1.344740	-0.625612	-0.059093
H65	H	1.525281	-0.245767	0.204730
H66	H	1.309672	-0.101208	0.180712
H67	H	1.310053	0.100918	0.179853
H68	H	1.674672	0.149826	0.223168
N69	N	1.438581	-0.356790	-0.426259
H70	H	1.374652	-0.289369	-0.389868
H71	H	1.392636	-0.443301	-0.470798
H72	H	1.524854	0.246233	0.425916
N73	N	1.285807	0.134296	0.406952
H74	H	1.341190	0.195849	0.470284
H75	H	1.207406	0.100561	0.446985
N76	N	1.335459	-0.356539	-0.029673
H77	H	1.406269	-0.290295	0.008735
H78	H	1.324557	-0.443071	0.029161
H79	H	1.586688	-0.373113	0.015060
H80	H	0.887971	-0.245693	-0.206233
H81	H	1.133519	0.100733	0.004470
H82	H	1.517452	-0.246357	0.422073
N83	N	1.709704	-0.147870	0.217768
H84	H	1.729240	-0.059552	0.163983
H85	H	1.724264	-0.242270	0.169661
H86	H	1.522136	0.245537	0.206523
H87	H	1.105810	-0.246262	-0.209997
N88	N	1.705499	0.140723	0.456911
H89	H	1.704185	0.144573	0.552540
H90	H	1.751666	0.230611	0.427297
N91	N	1.149101	-0.133403	0.020873
H92	H	1.198825	-0.193803	-0.038114
H93	H	1.078894	-0.196318	0.051600
H94	H	1.088672	-0.146777	-0.361425
N95	N	1.735206	-0.358314	-0.107922
H96	H	1.793482	-0.445362	-0.118850
H97	H	1.770984	-0.296256	-0.033137
H98	H	1.289549	-0.627107	-0.228528
