data_functionalizedCrystal
_audit_creation_method	'MofGen! by Chris Wilmer'
_symmetry_space_group_name_H-M	'P1'
_symmetry_Int_Tables_number	1
_symmetry_cell_setting	triclinic
loop_
_symmetry_equiv_pos_as_xyz
  x,y,z
_cell_length_a	17.699077
_cell_length_b	17.699083
_cell_length_c	16.176319
_cell_angle_alpha	89.995661
_cell_angle_beta	89.994578
_cell_angle_gamma	83.281795
loop_
_atom_site_label
_atom_site_type_symbol
_atom_site_fract_x
_atom_site_fract_y
_atom_site_fract_z
O1	O	1.004080	0.095688	-0.068737
O2	O	0.783701	0.108145	-0.068741
O3	O	0.900117	-0.008273	-0.068732
O4	O	0.887665	0.212106	-0.068747
O5	O	0.900104	-0.008273	0.068761
O6	O	0.783688	0.108145	0.068752
O7	O	1.004067	0.095688	0.068756
Cu8	Cu	0.893876	0.101916	0.081308
Cu9	Cu	0.893892	0.101917	-0.081294
O10	O	0.887651	0.212106	0.068746
C11	C	0.755498	0.107700	0.000005
C12	C	0.671479	0.106363	0.000003
C13	C	0.632004	0.105733	0.074952
C14	C	0.553062	0.104464	0.074953
C15	C	0.513595	0.103832	0.000004
C16	C	0.553076	0.104460	-0.074950
C17	C	0.632017	0.105722	-0.074950
C18	C	0.234712	0.099366	-0.074951
C19	C	0.155765	0.098106	-0.074945
C20	C	0.155757	0.098108	0.074952
C21	C	0.234699	0.099371	0.074951
C22	C	0.274173	0.099995	-0.000002
C23	C	0.359772	0.101369	-0.000002
C24	C	0.427997	0.102464	0.000004
C25	C	0.899664	-0.036470	0.000015
C26	C	0.898326	-0.120488	0.000015
C27	C	0.966659	-0.169110	0.000018
C28	C	0.965397	-0.248054	0.000010
C29	C	0.895800	-0.278373	0.000006
C30	C	0.827461	-0.229744	0.000001
C31	C	0.828724	-0.150803	0.000003
C32	C	0.822366	-0.548107	-0.000005
C33	C	0.821108	-0.627055	-0.000004
C34	C	0.959039	-0.645358	0.000002
C35	C	0.960302	-0.566417	0.000003
C36	C	0.891963	-0.517795	-0.000006
C37	C	0.893333	-0.432196	0.000000
C38	C	0.894430	-0.363971	0.000006
C39	C	1.032271	0.096133	0.000008
C40	C	1.116289	0.097470	0.000004
C41	C	0.888104	0.240303	-0.000002
C42	C	0.889443	0.324321	-0.000008
N43	N	0.893870	0.101916	0.195673
N44	N	0.893904	0.101911	-0.195659
C45	C	0.939685	0.147763	0.238932
C46	C	0.939693	0.147760	0.325479
C47	C	0.893882	0.101913	0.368766
C48	C	0.848065	0.056060	0.325502
C49	C	0.848062	0.056060	0.238956
C50	C	0.848079	0.056061	0.674530
C51	C	0.848084	0.056067	0.761081
C52	C	0.939711	0.147762	0.761052
C53	C	0.939707	0.147761	0.674507
C54	C	0.893894	0.101906	0.631250
C55	C	0.893887	0.101908	0.537406
C56	C	0.893884	0.101914	0.462608
H57	H	0.664157	0.106237	-0.135981
H58	H	0.664132	0.106254	0.135984
H59	H	0.520927	0.103939	0.135983
C60	C	1.043222	-0.135767	0.000022
N61	N	1.100892	-0.110656	0.000022
C62	C	0.744543	-0.660404	-0.000015
N63	N	0.686877	-0.685522	-0.000024
H64	H	0.977009	0.185098	0.639267
H65	H	0.770794	-0.254436	-0.000007
H66	H	1.021041	-0.287639	0.000014
C67	C	1.036863	-0.533070	0.000008
N68	N	1.094531	-0.507955	0.000007
H69	H	1.014683	-0.684956	0.000005
C70	C	0.797670	0.005630	0.373121
N71	N	0.759709	-0.032353	0.408987
C72	C	0.747192	-0.494633	-0.000020
N73	N	0.690566	-0.454354	-0.000034
C74	C	0.990114	0.198198	0.808643
N75	N	1.028076	0.236185	0.844486
H76	H	0.773080	-0.111214	0.000001
H77	H	0.977002	0.185093	0.360696
H78	H	0.976986	0.185102	0.203693
C79	C	0.797689	0.005626	0.808696
N80	N	0.759734	-0.032364	0.844559
C81	C	0.112329	0.097413	0.157403
N82	N	0.079621	0.096891	0.219504
H83	H	0.266828	0.099890	0.135982
C84	C	0.112354	0.097401	-0.157398
N85	N	0.079657	0.096869	-0.219499
C86	C	0.278125	0.100046	-0.157403
N87	N	0.310826	0.100555	-0.219509
C88	C	0.797676	0.005625	0.626959
N89	N	0.759708	-0.032363	0.591125
H90	H	0.520936	0.103939	-0.135974
C91	C	0.797660	0.005626	0.191372
N92	N	0.759697	-0.032364	0.155534
