data_functionalizedCrystal
_audit_creation_method	'MofGen! by Chris Wilmer'
_symmetry_space_group_name_H-M	'P1'
_symmetry_Int_Tables_number	1
_symmetry_cell_setting	triclinic
loop_
_symmetry_equiv_pos_as_xyz
  x,y,z
_cell_length_a	19.188920
_cell_length_b	19.188928
_cell_length_c	17.666332
_cell_angle_alpha	89.973946
_cell_angle_beta	89.983083
_cell_angle_gamma	83.142693
loop_
_atom_site_label
_atom_site_type_symbol
_atom_site_fract_x
_atom_site_fract_y
_atom_site_fract_z
O1	O	-0.087161	-0.926148	0.063258
O2	O	-0.098897	-0.722836	0.063198
O3	O	0.008627	-0.830362	0.063205
O4	O	-0.194685	-0.818622	0.063251
O5	O	0.008632	-0.830344	-0.062692
O6	O	-0.098892	-0.722818	-0.062699
O7	O	-0.087156	-0.926129	-0.062638
Cu8	Cu	-0.093023	-0.824472	-0.074164
Cu9	Cu	-0.093030	-0.824494	0.074724
O10	O	-0.194680	-0.818604	-0.062645
C11	C	-0.098515	-0.696816	0.000241
C12	C	-0.097375	-0.619311	0.000217
C13	C	-0.160466	-0.574386	0.000241
C14	C	-0.159395	-0.501562	0.000245
C15	C	-0.095229	-0.473667	0.000241
C16	C	-0.032129	-0.518603	0.000212
C17	C	-0.033202	-0.591425	0.000201
N18	N	-0.046185	-0.365694	0.043102
N19	N	-0.045170	-0.296516	0.043115
C20	C	-0.091993	-0.254258	0.000275
N21	N	-0.139879	-0.283791	-0.042570
N22	N	-0.140896	-0.352976	-0.042579
C23	C	-0.094059	-0.394704	0.000253
C24	C	-0.153927	-0.130368	0.000302
C25	C	-0.152853	-0.057543	0.000302
C26	C	-0.025586	-0.074585	0.000276
C27	C	-0.026661	-0.147409	0.000269
C28	C	-0.090834	-0.175295	0.000286
C29	C	0.034641	-0.829974	0.000252
C30	C	0.112146	-0.828835	0.000237
C31	C	0.673917	-0.884304	0.000158
C32	C	0.601094	-0.885380	0.000167
C33	C	0.556159	-0.822287	0.000157
C34	C	0.584052	-0.758114	0.000119
C35	C	0.656874	-0.757040	0.000103
N36	N	0.435476	-0.776616	0.043019
N37	N	0.366298	-0.777641	0.043036
C38	C	0.336749	-0.825519	0.000203
N39	N	0.378992	-0.872345	-0.042638
N40	N	0.448176	-0.871322	-0.042651
C41	C	0.477194	-0.823445	0.000173
C42	C	0.229901	-0.890855	0.000245
C43	C	0.157076	-0.891928	0.000248
C44	C	0.140035	-0.764661	0.000208
C45	C	0.212859	-0.763589	0.000197
C46	C	0.257788	-0.826689	0.000219
C47	C	0.779307	-0.818994	0.000258
C48	C	0.701803	-0.820139	0.000125
C49	C	-0.087540	0.047850	0.000306
C50	C	-0.088687	-0.029653	0.000296
N51	N	-0.093018	-0.824461	-0.178883
C52	C	-0.045429	-0.872089	-0.218490
C53	C	-0.045426	-0.872093	-0.297738
C54	C	-0.093023	-0.824476	-0.337376
C55	C	-0.140615	-0.776839	-0.297759
C56	C	-0.140613	-0.776832	-0.218513
N57	N	-0.154831	-0.815398	-0.461782
N58	N	-0.154831	-0.815409	-0.537062
C59	C	-0.093033	-0.824494	-0.576140
N60	N	-0.031232	-0.833582	-0.537093
N61	N	-0.031233	-0.833574	-0.461805
C62	C	-0.093031	-0.824478	-0.423305
C63	C	-0.045437	-0.872129	-0.701675
C64	C	-0.045433	-0.872128	-0.780925
C65	C	-0.140628	-0.776878	-0.780945
C66	C	-0.140626	-0.776875	-0.701697
C67	C	-0.093031	-0.824505	-0.662067
N68	N	-0.093029	-0.824510	0.179443
H69	H	-0.206180	-0.153074	0.000305
H70	H	-0.179380	-0.738105	-0.813217
H71	H	0.026660	-0.051874	0.000319
H72	H	-0.179366	-0.738047	-0.186265
H73	H	0.024715	-0.183989	0.000254
H74	H	0.266484	-0.942234	0.000262
O75	O	0.717459	-0.945661	0.000137
C76	C	0.726672	-1.072003	0.000223
C77	C	0.677279	-1.002570	0.000233
H78	H	0.694206	-1.118033	0.000317
H79	H	0.761180	-1.074725	-0.052485
H80	H	0.761204	-1.074651	0.052890
H81	H	0.642703	-0.999876	-0.052398
H82	H	0.642819	-0.999877	0.052976
H83	H	0.103450	-0.713289	0.000193
H84	H	0.578384	-0.937632	0.000194
O85	O	-0.186927	-0.730588	-0.663336
C86	C	-0.281319	-0.636088	-0.671722
C87	C	-0.228931	-0.688485	-0.715259
H88	H	-0.315283	-0.602024	-0.713682
H89	H	-0.316172	-0.666082	-0.634611
H90	H	-0.251245	-0.601333	-0.634632
H91	H	-0.258947	-0.723253	-0.752390
H92	H	-0.194079	-0.658447	-0.752322
O93	O	0.000867	-0.918415	-0.663291
C94	C	0.095260	-1.012914	-0.671633
C95	C	0.042870	-0.960524	-0.715194
H96	H	0.129224	-1.046984	-0.713578
H97	H	0.130113	-0.982914	-0.634581
H98	H	0.065189	-1.047665	-0.634482
H99	H	0.072884	-0.925761	-0.752386
H100	H	0.008018	-0.990568	-0.752198
H101	H	-0.006677	-0.910911	-0.813173
H102	H	0.547461	-0.706744	0.000108
O103	O	0.683932	-0.694689	0.000210
C104	C	0.691606	-0.585578	0.065372
C105	C	0.660929	-0.656172	0.065351
H106	H	0.673009	-0.554410	0.118025
H107	H	0.751375	-0.595607	0.065415
H108	H	0.673106	-0.554433	0.012653
H109	H	0.679375	-0.687353	0.118062
H110	H	0.601164	-0.646094	0.065269
H111	H	0.134373	-0.944181	0.000271
H112	H	0.235563	-0.711339	0.000175
O113	O	0.000875	-0.918376	-0.180112
C114	C	0.095264	-1.012879	-0.188459
C115	C	0.042872	-0.960489	-0.232018
H116	H	0.129223	-1.046951	-0.230406
H117	H	0.130122	-0.982879	-0.151412
H118	H	0.065194	-1.047627	-0.151303
H119	H	0.072885	-0.925728	-0.269215
H120	H	0.008015	-0.990532	-0.269017
O121	O	-0.220749	-0.458010	0.000309
C122	C	-0.347092	-0.448786	0.000312
C123	C	-0.277663	-0.498185	0.000254
H124	H	-0.393125	-0.481248	0.000251
H125	H	-0.349812	-0.414313	0.053021
H126	H	-0.349736	-0.414219	-0.052354
H127	H	-0.274972	-0.532796	0.052884
H128	H	-0.274972	-0.532610	-0.052490
O129	O	0.000869	-0.918265	-0.336260
C130	C	0.096219	-0.933438	-0.425806
C131	C	0.043843	-0.881073	-0.382215
H132	H	0.130967	-0.903388	-0.462983
H133	H	0.130291	-0.967470	-0.383908
H134	H	0.066136	-0.968229	-0.462840
H135	H	0.073869	-0.846235	-0.345180
H136	H	0.009772	-0.847090	-0.424155
H137	H	-0.179369	-0.738068	-0.330036
H138	H	-0.212720	-0.597086	0.000256
H139	H	0.020115	-0.495886	0.000219
H140	H	0.018176	-0.628004	0.000181
H141	H	-0.204232	-0.020964	0.000317
