data_functionalizedCrystal
_audit_creation_method	'MofGen! by Chris Wilmer'
_symmetry_space_group_name_H-M	'P1'
_symmetry_Int_Tables_number	1
_symmetry_cell_setting	triclinic
loop_
_symmetry_equiv_pos_as_xyz
  x,y,z
_cell_length_a	19.188930
_cell_length_b	19.188930
_cell_length_c	17.666332
_cell_angle_alpha	89.988397
_cell_angle_beta	89.976766
_cell_angle_gamma	83.144779
loop_
_atom_site_label
_atom_site_type_symbol
_atom_site_fract_x
_atom_site_fract_y
_atom_site_fract_z
O1	O	0.926150	0.087169	-0.063200
O2	O	1.259483	0.420502	0.270133
O3	O	1.592816	0.753835	0.603467
O4	O	0.722838	0.098903	-0.063149
O5	O	1.056172	0.432236	0.270184
O6	O	1.389505	0.765570	0.603517
O7	O	0.830361	-0.008620	-0.063161
O8	O	1.163694	0.324714	0.270172
O9	O	1.497028	0.658047	0.603505
O10	O	0.818627	0.194692	-0.063188
O11	O	1.151960	0.528025	0.270145
O12	O	1.485294	0.861358	0.603479
O13	O	0.830342	-0.008625	0.062735
O14	O	1.163676	0.324708	0.396069
O15	O	1.497009	0.658041	0.729402
O16	O	0.722820	0.098897	0.062747
O17	O	1.056153	0.432231	0.396081
O18	O	1.389486	0.765564	0.729414
O19	O	0.926131	0.087163	0.062697
O20	O	1.259464	0.420496	0.396030
O21	O	1.592797	0.753830	0.729363
Cu22	Cu	0.824473	0.093030	0.074217
Cu23	Cu	1.157807	0.426363	0.407551
Cu24	Cu	1.491140	0.759696	0.740884
Cu25	Cu	0.824496	0.093036	-0.074670
Cu26	Cu	1.157829	0.426370	0.258663
Cu27	Cu	1.491162	0.759703	0.591997
O28	O	0.818608	0.194686	0.062709
O29	O	1.151941	0.528019	0.396042
O30	O	1.485275	0.861353	0.729375
C31	C	0.696818	0.098520	-0.000194
C32	C	1.030151	0.431854	0.333139
C33	C	1.363485	0.765187	0.666472
C34	C	0.619313	0.097380	-0.000174
C35	C	0.952647	0.430713	0.333159
C36	C	1.285980	0.764046	0.666492
C37	C	0.574389	0.160470	-0.000194
C38	C	0.907723	0.493804	0.333139
C39	C	1.241056	0.827137	0.666472
C40	C	0.501566	0.159399	-0.000203
C41	C	0.834899	0.492732	0.333131
C42	C	1.168232	0.826065	0.666464
C43	C	0.473669	0.095233	-0.000206
C44	C	0.807002	0.428566	0.333128
C45	C	1.140336	0.761899	0.666461
C46	C	0.518603	0.032133	-0.000181
C47	C	0.851936	0.365467	0.333152
C48	C	1.185270	0.698800	0.666485
C49	C	0.591425	0.033207	-0.000166
C50	C	0.924758	0.366540	0.333168
C51	C	1.258092	0.699874	0.666501
N52	N	0.365695	0.046188	-0.043078
N53	N	0.699029	0.379521	0.290255
N54	N	1.032362	0.712854	0.623589
N55	N	0.296517	0.045172	-0.043095
N56	N	0.629850	0.378505	0.290239
N57	N	0.963183	0.711839	0.623572
C58	C	0.254260	0.091994	-0.000252
C59	C	0.587594	0.425328	0.333082
C60	C	0.920927	0.758661	0.666415
N61	N	0.283795	0.139881	0.042599
N62	N	0.617128	0.473215	0.375932
N63	N	0.950461	0.806548	0.709266
N64	N	0.352979	0.140899	0.042612
N65	N	0.686313	0.474232	0.375946
N66	N	1.019646	0.807565	0.709279
C67	C	0.394707	0.094062	-0.000222
C68	C	0.728040	0.427395	0.333111
C69	C	1.061373	0.760728	0.666444
C70	C	0.130372	0.153928	-0.000280
C71	C	0.463705	0.487261	0.333054
C72	C	0.797039	0.820594	0.666387
C73	C	0.057547	0.152853	-0.000283
C74	C	0.390881	0.486187	0.333050
C75	C	0.724214	0.819520	0.666384
C76	C	0.074586	0.025586	-0.000270
C77	C	0.407919	0.358920	0.333064
C78	C	0.741253	0.692253	0.666397
C79	C	0.147409	0.026662	-0.000258
C80	C	0.480743	0.359996	0.333075
C81	C	0.814076	0.693329	0.666408
C82	C	0.175298	0.090835	-0.000267
C83	C	0.508631	0.424168	0.333066
C84	C	0.841964	0.757502	0.666400
C85	C	0.829972	-0.034634	-0.000211
C86	C	1.163305	0.298700	0.333123
C87	C	1.496638	0.632033	0.666456
C88	C	0.828831	-0.112138	-0.000204
C89	C	1.162164	0.221195	0.333129
C90	C	1.495498	0.554529	0.666463
C91	C	0.891922	-0.157062	-0.000216
C92	C	1.225255	0.176271	0.333117
C93	C	1.558589	0.509605	0.666451
C94	C	0.890850	-0.229886	-0.000228
C95	C	1.224184	0.103448	0.333105
C96	C	1.557517	0.436781	0.666439
C97	C	0.826684	-0.257782	-0.000212
C98	C	1.160017	0.075551	0.333121
C99	C	1.493351	0.408884	0.666454
C100	C	0.763585	-0.212849	-0.000205
C101	C	1.096918	0.120485	0.333129
C102	C	1.430252	0.453818	0.666462
C103	C	0.764658	-0.140026	-0.000200
C104	C	1.097992	0.193307	0.333133
C105	C	1.431325	0.526640	0.666466
N106	N	0.777630	-0.365789	0.042645
N107	N	1.110964	-0.032456	0.375978
N108	N	1.444297	0.300877	0.709311
N109	N	0.776615	-0.434968	0.042642
N110	N	1.109948	-0.101635	0.375976
N111	N	1.443282	0.231699	0.709309
C112	C	0.823446	-0.477191	-0.000227
C113	C	1.156779	-0.143858	0.333106
C114	C	1.490113	0.189476	0.666440
N115	N	0.871341	-0.447624	-0.043084
N116	N	1.204675	-0.114290	0.290249
N117	N	1.538008	0.219043	0.623582
N118	N	0.872359	-0.378439	-0.043079
N119	N	1.205692	-0.045106	0.290255
N120	N	1.539026	0.288228	0.623588
C121	C	0.825513	-0.336745	-0.000218
C122	C	1.158846	-0.003412	0.333116
C123	C	1.492180	0.329922	0.666449
C124	C	0.885379	-0.601079	-0.000253
C125	C	1.218712	-0.267746	0.333080
C126	C	1.552046	0.065587	0.666414
C127	C	0.884305	-0.673904	-0.000270
C128	C	1.217638	-0.340571	0.333064
C129	C	1.550971	-0.007238	0.666397
C130	C	0.757038	-0.656865	-0.000239
C131	C	1.090371	-0.323532	0.333095
C132	C	1.423704	0.009801	0.666428
C133	C	0.758114	-0.584042	-0.000230
C134	C	1.091447	-0.250709	0.333104
C135	C	1.424781	0.082624	0.666437
C136	C	0.822287	-0.556154	-0.000233
C137	C	1.155620	-0.222821	0.333100
C138	C	1.488953	0.110513	0.666433
C139	C	0.952151	0.087546	-0.000260
C140	C	1.285485	0.420879	0.333073
C141	C	1.618818	0.754213	0.666407
C142	C	1.029656	0.088687	-0.000285
C143	C	1.362989	0.422020	0.333048
C144	C	1.696322	0.755353	0.666382
C145	C	0.818997	0.220700	-0.000244
C146	C	1.152331	0.554033	0.333090
C147	C	1.485664	0.887366	0.666423
C148	C	0.820138	0.298204	-0.000255
C149	C	1.153471	0.631538	0.333078
C150	C	1.486805	0.964871	0.666411
N151	N	0.824463	0.093025	0.178937
N152	N	1.157796	0.426358	0.512270
N153	N	1.491130	0.759691	0.845603
N154	N	0.824512	0.093036	-0.179390
N155	N	1.157845	0.426369	0.153944
N156	N	1.491178	0.759703	0.487277
C157	C	0.872089	0.045437	0.218541
C158	C	1.205423	0.378770	0.551875
C159	C	1.538756	0.712103	0.885208
C160	C	0.872093	0.045433	0.297789
C161	C	1.205427	0.378767	0.631122
C162	C	1.538760	0.712100	0.964455
C163	C	0.824478	0.093030	0.337429
C164	C	1.157811	0.426363	0.670762
C165	C	1.491144	0.759697	1.004096
C166	C	0.776842	0.140621	0.297815
C167	C	1.110176	0.473955	0.631148
C168	C	1.443509	0.807288	0.964482
C169	C	0.776835	0.140619	0.218569
C170	C	1.110168	0.473952	0.551902
C171	C	1.443502	0.807285	0.885236
N172	N	0.815401	0.154837	0.461841
N173	N	1.148735	0.488171	0.795174
N174	N	1.482068	0.821504	1.128508
N175	N	0.815413	0.154837	0.537121
N176	N	1.148746	0.488171	0.870455
N177	N	1.482079	0.821504	1.203788
C178	C	0.824496	0.093040	0.576193
C179	C	1.157829	0.426373	0.909526
C180	C	1.491163	0.759706	1.242860
N181	N	0.833582	0.031239	0.537140
N182	N	1.166915	0.364573	0.870474
N183	N	1.500248	0.697906	1.203807
N184	N	0.833574	0.031240	0.461853
N185	N	1.166907	0.364573	0.795186
N186	N	1.500241	0.697906	1.128520
C187	C	0.824480	0.093038	0.423358
C188	C	1.157813	0.426371	0.756691
C189	C	1.491147	0.759704	1.090025
C190	C	0.872130	0.045444	0.701727
C191	C	1.205463	0.378777	1.035060
C192	C	1.538796	0.712111	1.368393
C193	C	0.872129	0.045440	0.780976
C194	C	1.205462	0.378773	1.114309
C195	C	1.538795	0.712106	1.447642
C196	C	0.776881	0.140634	0.781000
C197	C	1.110214	0.473967	1.114334
C198	C	1.443548	0.807301	1.447667
C199	C	0.776878	0.140632	0.701753
C200	C	1.110212	0.473966	1.035086
C201	C	1.443545	0.807299	1.368420
C202	C	0.824506	0.093038	0.662121
C203	C	1.157840	0.426371	0.995454
C204	C	1.491173	0.759705	1.328787
H205	H	0.183988	-0.024713	-0.000246
H206	H	0.517321	0.308620	0.333087
H207	H	0.850654	0.641954	0.666420
Cl208	Cl	0.609445	0.241144	-0.000202
Cl209	Cl	0.942779	0.574478	0.333132
Cl210	Cl	1.276112	0.907811	0.666465
Cl211	Cl	0.685337	-0.083547	-0.000185
Cl212	Cl	1.018671	0.249786	0.333149
Cl213	Cl	1.352004	0.583119	0.666482
H214	H	0.944176	-0.134360	-0.000222
H215	H	1.277509	0.198973	0.333112
H216	H	1.610843	0.532306	0.666445
H217	H	0.738099	0.179386	0.669505
H218	H	1.071433	0.512719	1.002838
H219	H	1.404766	0.846052	1.336172
H220	H	0.910869	0.006681	0.186275
H221	H	1.244202	0.340015	0.519608
H222	H	1.577536	0.673348	0.852942
Cl223	Cl	0.931973	-0.014396	0.347586
Cl224	Cl	1.265306	0.318937	0.680919
Cl225	Cl	1.598639	0.652270	1.014252
Cl226	Cl	0.716979	0.200455	0.347646
Cl227	Cl	1.050313	0.533788	0.680980
Cl228	Cl	1.383646	0.867121	1.014313
Cl229	Cl	0.963627	-0.730382	-0.000290
Cl230	Cl	1.296960	-0.397049	0.333043
Cl231	Cl	1.630294	-0.063715	0.666377
H232	H	0.153080	0.206181	-0.000276
H233	H	0.486413	0.539514	0.333058
H234	H	0.819746	0.872847	0.666391
H235	H	0.738109	0.179385	0.813275
H236	H	1.071442	0.512719	1.146608
H237	H	1.404775	0.846052	1.479942
Cl238	Cl	0.678795	-0.527563	-0.000211
Cl239	Cl	1.012128	-0.194230	0.333122
Cl240	Cl	1.345462	0.139103	0.666456
H241	H	0.020970	0.204232	-0.000295
H242	H	0.354303	0.537565	0.333038
H243	H	0.687637	0.870898	0.666372
H244	H	0.738051	0.179371	0.186322
H245	H	1.071384	0.512705	0.519656
H246	H	1.404718	0.846038	0.852989
H247	H	0.910910	0.006684	0.813222
H248	H	1.244243	0.340018	1.146556
H249	H	1.577576	0.673351	1.479889
Cl250	Cl	0.445079	0.238719	-0.000226
Cl251	Cl	0.778413	0.572052	0.333107
Cl252	Cl	1.111746	0.905386	0.666441
H253	H	0.942228	-0.266470	-0.000241
H254	H	1.275561	0.066863	0.333092
H255	H	1.608895	0.400197	0.666426
H256	H	0.495885	-0.020111	-0.000194
H257	H	0.829218	0.313222	0.333139
H258	H	1.162552	0.646556	0.666472
Cl259	Cl	0.682919	-0.247918	-0.000191
Cl260	Cl	1.016252	0.085416	0.333142
Cl261	Cl	1.349586	0.418749	0.666475
Cl262	Cl	0.039523	-0.055081	-0.000265
Cl263	Cl	0.372856	0.278253	0.333069
Cl264	Cl	0.706190	0.611586	0.666402
H265	H	0.628003	-0.018171	-0.000150
H266	H	0.961336	0.315162	0.333184
H267	H	1.294670	0.648496	0.666517
H268	H	0.704792	-0.679578	-0.000230
H269	H	1.038126	-0.346245	0.333104
H270	H	1.371459	-0.012911	0.666437
H271	H	0.937632	-0.578372	-0.000259
H272	H	1.270966	-0.245038	0.333074
H273	H	1.604299	0.088295	0.666407
H274	H	0.910909	0.006688	0.669457
H275	H	1.244242	0.340021	1.002790
H276	H	1.577576	0.673355	1.336124
