data_functionalizedCrystal
_audit_creation_method	'MofGen! by Chris Wilmer'
_symmetry_space_group_name_H-M	'P1'
_symmetry_Int_Tables_number	1
_symmetry_cell_setting	triclinic
loop_
_symmetry_equiv_pos_as_xyz
  x,y,z
_cell_length_a	15.944551
_cell_length_b	22.010155
_cell_length_c	15.944493
_cell_angle_alpha	89.989874
_cell_angle_beta	83.486891
_cell_angle_gamma	90.003973
loop_
_atom_site_label
_atom_site_type_symbol
_atom_site_fract_x
_atom_site_fract_y
_atom_site_fract_z
O1	O	1.114508	0.050454	0.108323
O2	O	0.869955	0.050468	0.121680
O3	O	0.998935	0.050465	-0.007277
O4	O	0.985528	0.050456	0.237280
O5	O	0.998912	-0.050585	-0.007257
O6	O	0.869932	-0.050582	0.121699
O7	O	1.114484	-0.050597	0.108343
Cu8	Cu	0.992206	-0.059816	0.115023
Cu9	Cu	0.992234	0.059687	0.115000
O10	O	0.985505	-0.050594	0.237299
C11	C	0.838650	-0.000055	0.121135
C12	C	0.745404	-0.000050	0.119473
N13	N	0.992193	-0.143869	0.115038
C14	C	0.530565	-0.000058	0.035566
C15	C	0.469548	0.049764	0.074520
C16	C	0.574679	-0.000057	0.116465
C17	C	0.469547	-0.049864	0.074558
C18	C	0.409767	-0.000066	0.113555
C19	C	0.514890	0.049806	0.155442
C20	C	0.514896	-0.049866	0.155468
C21	C	0.453897	-0.000032	0.194481
C22	C	0.669681	-0.000051	0.118140
C23	C	0.314766	-0.000068	0.111886
C24	C	1.049349	-0.563649	0.057906
C25	C	1.049353	-0.627257	0.057900
O26	O	1.097916	-0.660149	0.009335
N27	N	0.992233	-0.659076	0.114982
C28	C	0.935100	-0.627284	0.172068
O29	O	0.886515	-0.660189	0.220620
C30	C	0.935093	-0.563678	0.172069
C31	C	0.992222	-0.531862	0.114989
C32	C	1.106473	-0.531833	0.000830
C33	C	1.106470	-0.468230	0.000837
C34	C	1.049343	-0.436443	0.057920
C35	C	0.992219	-0.468259	0.114996
C36	C	0.877956	-0.531887	0.229150
C37	C	0.877953	-0.468276	0.229146
C38	C	0.935083	-0.436460	0.172066
C39	C	0.935089	-0.372868	0.172086
N40	N	0.992209	-0.341049	0.115004
C41	C	1.049336	-0.372836	0.057921
C42	C	0.935118	-0.760862	0.172060
C43	C	0.935129	-0.824467	0.172064
C44	C	1.049381	-0.824435	0.057895
C45	C	1.049374	-0.760829	0.057896
C46	C	0.992238	-0.729043	0.114978
C47	C	1.049326	-0.239265	0.057941
C48	C	1.049320	-0.175656	0.057955
C49	C	0.935065	-0.175693	0.172121
C50	C	0.935073	-0.239297	0.172110
C51	C	0.992207	-0.271081	0.115013
O52	O	0.886548	-0.339935	0.220624
O53	O	1.097906	-0.339923	0.009370
C54	C	1.145790	-0.000072	0.108888
C55	C	1.239036	-0.000074	0.110550
C56	C	0.998375	-0.000057	-0.038562
C57	C	0.996733	-0.000049	-0.131810
N58	N	0.992254	0.143740	0.114978
C59	C	1.072653	-0.000065	-0.367570
C60	C	1.031723	0.049760	-0.418148
C61	C	0.993688	-0.000057	-0.302531
C62	C	1.031682	-0.049868	-0.418105
C63	C	0.990754	-0.000066	-0.467441
C64	C	0.952780	0.049810	-0.351881
C65	C	0.952750	-0.049863	-0.351834
C66	C	0.911763	-0.000025	-0.402379
C67	C	0.995381	-0.000050	-0.207531
C68	C	0.989055	-0.000068	-0.562438
C69	C	0.986064	-0.000070	0.268584
C70	C	0.987707	-0.000074	0.361833
H71	H	0.563912	0.000006	-0.031574
C72	C	0.598804	-0.140696	0.146877
C73	C	0.542065	-0.106731	0.201632
H74	H	0.615583	-0.175803	0.175375
H75	H	0.572273	-0.152654	0.099082
H76	H	0.647044	-0.116667	0.129052
H77	H	0.493822	-0.130758	0.219453
H78	H	0.568595	-0.094773	0.249443
H79	H	0.888594	-0.734984	0.218551
H80	H	0.534881	0.091972	0.189625
C81	C	1.098733	-0.843998	-0.087498
C82	C	1.112175	-0.859382	-0.004860
H83	H	1.137502	-0.865571	-0.126236
H84	H	1.042685	-0.854425	-0.096648
H85	H	1.106912	-0.801562	-0.095658
H86	H	1.103990	-0.901817	0.003302
H87	H	1.168237	-0.848959	0.004293
C88	C	1.178972	-0.052208	-0.300014
C89	C	1.164471	-0.000007	-0.346464
H90	H	1.235656	-0.052171	-0.286988
H91	H	1.141617	-0.052590	-0.249183
H92	H	1.169488	-0.087267	-0.332377
H93	H	1.173949	0.035052	-0.314098
H94	H	1.201837	0.000380	-0.397303
C95	C	0.481523	-0.106618	-0.054833
C96	C	0.442428	-0.106725	0.028363
H97	H	0.464785	-0.141721	-0.083353
H98	H	0.465233	-0.071240	-0.083020
H99	H	0.541067	-0.106829	-0.054547
H100	H	0.382883	-0.106509	0.028077
H101	H	0.458712	-0.142112	0.056558
C102	C	1.163639	-0.689241	0.039664
C103	C	1.112115	-0.725839	-0.004879
H104	H	1.202361	-0.667640	0.000897
H105	H	1.129614	-0.661221	0.073674
H106	H	1.193897	-0.714046	0.074620
H107	H	1.081853	-0.701034	-0.039830
H108	H	1.146145	-0.753863	-0.038904
C109	C	1.162253	-0.182024	-0.054903
C110	C	1.112117	-0.140685	-0.004796
H111	H	1.201015	-0.160434	-0.093645
H112	H	1.192458	-0.206834	-0.019919
H113	H	1.127286	-0.206831	-0.085138
H114	H	1.147083	-0.115881	0.025444
H115	H	1.081910	-0.115864	-0.039783
C116	C	0.778742	0.052226	-0.389512
C117	C	0.819874	0.000014	-0.423268
H118	H	0.722016	0.052253	-0.402415
H119	H	0.779312	0.052557	-0.330011
H120	H	0.806997	0.087278	-0.413232
H121	H	0.791622	-0.035038	-0.399544
H122	H	0.819299	-0.000323	-0.482781
C123	C	0.823975	-0.107237	-0.331192
C124	C	0.907758	-0.106725	-0.312723
H125	H	0.796207	-0.142348	-0.307050
H126	H	0.795852	-0.071873	-0.308402
H127	H	0.823049	-0.107848	-0.390652
H128	H	0.908685	-0.106110	-0.253262
H129	H	0.935889	-0.142099	-0.335509
H130	H	1.095848	-0.265137	0.011446
C131	C	1.144539	-0.089071	-0.515591
C132	C	1.076703	-0.106733	-0.457143
H133	H	1.172339	-0.124175	-0.539686
H134	H	1.124172	-0.065461	-0.558859
H135	H	1.183120	-0.065605	-0.487861
H136	H	1.038118	-0.130195	-0.484875
H137	H	1.097069	-0.130353	-0.413869
C138	C	1.106780	0.141432	-0.393475
C139	C	1.076754	0.106619	-0.457240
H140	H	1.134588	0.176530	-0.417609
H141	H	1.060764	0.153411	-0.353837
H142	H	1.145363	0.117966	-0.365743
H143	H	1.038167	0.130083	-0.484968
H144	H	1.122776	0.094640	-0.496893
C145	C	0.822195	-0.818093	0.284912
C146	C	0.872335	-0.859435	0.234813
H147	H	0.783422	-0.839681	0.323644
H148	H	0.857153	-0.793290	0.315149
H149	H	0.791996	-0.793279	0.249916
H150	H	0.902539	-0.884246	0.269808
H151	H	0.837373	-0.884248	0.204573
C152	C	0.765011	-0.525502	0.341982
C153	C	0.815152	-0.566847	0.291892
H154	H	0.726233	-0.547086	0.380714
H155	H	0.799967	-0.500698	0.372220
H156	H	0.734817	-0.500688	0.306980
H157	H	0.845351	-0.591658	0.326894
H158	H	0.780192	-0.591662	0.261651
C159	C	1.155671	-0.448856	-0.144596
C160	C	1.169257	-0.433365	-0.062040
H161	H	1.194430	-0.427361	-0.183453
H162	H	1.163756	-0.491302	-0.152623
H163	H	1.099613	-0.438399	-0.153701
H164	H	1.225313	-0.443826	-0.052933
H165	H	1.161179	-0.390908	-0.054009
C166	C	0.481496	0.106540	-0.054881
C167	C	0.442412	0.106626	0.028320
H168	H	0.464741	0.141642	-0.083405
H169	H	0.541034	0.106766	-0.054605
H170	H	0.465207	0.071158	-0.083061
H171	H	0.458706	0.142007	0.056502
H172	H	0.382862	0.106406	0.028049
C173	C	0.431978	0.052208	0.327344
C174	C	0.409105	-0.000000	0.285206
H175	H	0.404319	0.052230	0.383350
H176	H	0.491352	0.052539	0.328882
H177	H	0.415760	0.087262	0.298381
H178	H	0.425328	-0.035055	0.314166
H179	H	0.349717	-0.000337	0.283673
H180	H	1.152993	-0.557709	-0.045658
H181	H	0.831424	-0.442399	0.275629
H182	H	0.888561	-0.265201	0.218598
H183	H	0.888555	-0.149802	0.218600
H184	H	0.919461	0.091978	-0.323069
