data_functionalizedCrystal
_audit_creation_method	'MofGen! by Chris Wilmer'
_symmetry_space_group_name_H-M	'P1'
_symmetry_Int_Tables_number	1
_symmetry_cell_setting	triclinic
loop_
_symmetry_equiv_pos_as_xyz
  x,y,z
_cell_length_a	14.908520
_cell_length_b	19.077267
_cell_length_c	19.076919
_cell_angle_alpha	85.333063
_cell_angle_beta	95.429006
_cell_angle_gamma	89.109236
loop_
_atom_site_label
_atom_site_type_symbol
_atom_site_fract_x
_atom_site_fract_y
_atom_site_fract_z
Zn1	Zn	-0.432178	-1.041395	-0.375572
Zn2	Zn	-0.577214	-1.039251	-0.264491
Zn3	Zn	-0.420548	-0.928797	-0.261890
Zn4	Zn	-0.577162	-0.916684	-0.387067
O5	O	-0.501775	-0.981532	-0.322255
O6	O	-0.456306	-1.139527	-0.357115
O7	O	-0.551586	-1.028771	-0.165271
O8	O	-0.295849	-0.949700	-0.271071
O9	O	-0.562863	-1.137952	-0.275504
O10	O	-0.304394	-1.032425	-0.354593
O11	O	-0.436484	-0.947621	-0.163360
O12	O	-0.436434	-0.828773	-0.282217
O13	O	-0.562776	-0.929055	-0.484417
O14	O	-0.551498	-0.819874	-0.374184
O15	O	-0.456257	-1.020680	-0.475971
O16	O	-0.703448	-1.017026	-0.286650
O17	O	-0.703411	-0.926976	-0.376706
C18	C	-0.492699	-0.798805	-0.329166
C19	C	-0.488839	-0.720632	-0.332140
C20	C	-0.542406	-0.683091	-0.290976
C21	C	-0.538780	-0.609639	-0.293780
C22	C	-0.481580	-0.573730	-0.337745
C23	C	-0.428011	-0.611276	-0.378914
C24	C	-0.431643	-0.684727	-0.376114
C25	C	-0.464784	-0.354144	-0.350689
C26	C	-0.461154	-0.280688	-0.353485
C27	C	-0.571925	-0.279055	-0.268351
C28	C	-0.575548	-0.352508	-0.265551
C29	C	-0.521982	-0.390048	-0.306723
N30	N	-0.477870	-0.498650	-0.340610
N31	N	-0.525697	-0.465126	-0.303861
C32	C	-0.736164	-0.970472	-0.333222
C33	C	-0.836441	-0.965805	-0.337935
C34	C	-1.024858	-1.050891	-0.253086
C35	C	-1.119077	-1.046507	-0.257511
C36	C	-1.119100	-0.952658	-0.351216
C37	C	-1.024881	-0.957042	-0.346790
C38	C	-0.977763	-1.006159	-0.297722
C39	C	-0.883542	-1.010538	-0.293293
C40	C	-0.883567	-0.916693	-0.387001
C41	C	-0.977786	-0.912310	-0.391427
C42	C	-0.266473	-0.992653	-0.311260
C43	C	-0.166201	-0.997392	-0.306574
C44	C	-0.510808	-0.973755	-0.506548
C45	C	-0.514657	-0.970442	-0.585083
C46	C	-0.510876	-0.164973	-0.315307
C47	C	-0.514722	-0.243147	-0.312320
C48	C	-0.461009	-1.016586	-0.617583
C49	C	-0.464622	-1.013464	-0.691375
C50	C	-0.521888	-0.964200	-0.732665
C51	C	-0.575538	-0.918051	-0.700160
C52	C	-0.571920	-0.921170	-0.626369
C53	C	-0.538651	-0.949753	-0.953827
C54	C	-0.542267	-0.946639	-1.027623
C55	C	-0.431349	-1.042051	-1.018832
C56	C	-0.427740	-1.045169	-0.945041
C57	C	-0.481386	-0.999017	-0.912542
N58	N	-0.525584	-0.961009	-0.808092
N59	N	-0.477685	-1.002205	-0.837116
C60	C	-0.492715	-0.989321	-0.138674
C61	C	-0.488619	-0.992783	-0.060123
H62	H	-0.421168	-0.384700	-0.384215
Cl63	Cl	-0.639265	-0.231858	-0.216598
Cl64	Cl	-0.389236	-0.235547	-0.408756
H65	H	-1.157480	-0.912674	-0.391168
H66	H	-0.582347	-0.912183	-0.927376
Cl67	Cl	-0.356109	-0.566133	-0.434191
H68	H	-0.615596	-0.883588	-0.599909
H69	H	-0.622162	-0.877937	-0.733785
Cl70	Cl	-0.824309	-1.072282	-0.231607
H71	H	-0.381110	-1.085287	-0.911427
Cl72	Cl	-0.364300	-0.731922	-0.427868
H73	H	-0.986494	-1.090879	-0.213128
Cl74	Cl	-0.614316	-0.728226	-0.235700
Cl75	Cl	-0.363909	-1.100065	-1.059692
H76	H	-1.157418	-1.082934	-0.221165
H77	H	-0.582400	-0.579076	-0.260259
H78	H	-0.622125	-0.381740	-0.229749
Cl79	Cl	-1.037029	-0.850568	-0.453110
H80	H	-0.845212	-0.880267	-0.423345
Cl81	Cl	-0.389018	-1.078525	-0.565682
H82	H	-0.420938	-1.051042	-0.717833
Cl83	Cl	-0.614259	-0.884699	-1.079530
