data_functionalizedCrystal
_audit_creation_method	'MofGen! by Chris Wilmer'
_symmetry_space_group_name_H-M	'P1'
_symmetry_Int_Tables_number	1
_symmetry_cell_setting	triclinic
loop_
_symmetry_equiv_pos_as_xyz
  x,y,z
_cell_length_a	16.974829
_cell_length_b	16.974813
_cell_length_c	17.766277
_cell_angle_alpha	86.339073
_cell_angle_beta	86.335324
_cell_angle_gamma	83.162295
loop_
_atom_site_label
_atom_site_type_symbol
_atom_site_fract_x
_atom_site_fract_y
_atom_site_fract_z
O1	O	1.049048	0.100810	-0.132635
O2	O	1.382381	0.434143	0.200698
O3	O	1.715714	0.767477	0.534032
O4	O	0.818826	0.113639	-0.119394
O5	O	1.152160	0.446973	0.213939
O6	O	1.485493	0.780306	0.547272
O7	O	0.940354	-0.007886	-0.119390
O8	O	1.273688	0.325448	0.213943
O9	O	1.607021	0.658781	0.547276
O10	O	0.927520	0.222335	-0.132639
O11	O	1.260853	0.555668	0.200694
O12	O	1.594186	0.889002	0.534028
O13	O	0.940333	-0.007892	0.005800
O14	O	1.273666	0.325441	0.339133
O15	O	1.607000	0.658775	0.672467
O16	O	0.818805	0.113633	0.005796
O17	O	1.152138	0.446967	0.339129
O18	O	1.485472	0.780300	0.672463
O19	O	1.049026	0.100804	-0.007445
O20	O	1.382360	0.434137	0.325888
O21	O	1.715693	0.767470	0.659222
Cu22	Cu	0.933914	0.107218	0.010606
Cu23	Cu	1.267247	0.440551	0.343940
Cu24	Cu	1.600580	0.773885	0.677273
Cu25	Cu	0.933939	0.107225	-0.137446
Cu26	Cu	1.267272	0.440559	0.195888
Cu27	Cu	1.600606	0.773892	0.529221
O28	O	0.927498	0.222329	-0.007449
O29	O	1.260832	0.555662	0.325884
O30	O	1.594165	0.888996	0.659218
C31	C	0.789358	0.113147	-0.054975
C32	C	1.122691	0.446481	0.278358
C33	C	1.456024	0.779814	0.611692
C34	C	0.701582	0.111680	-0.049540
C35	C	1.034916	0.445014	0.283794
C36	C	1.368249	0.778347	0.617127
C37	C	0.939855	-0.037347	-0.054972
C38	C	1.273188	0.295987	0.278362
C39	C	1.606522	0.629320	0.611695
C40	C	0.938390	-0.125122	-0.049538
C41	C	1.271723	0.208211	0.283796
C42	C	1.605057	0.541544	0.617129
C43	C	0.207494	0.103449	-0.011619
C44	C	0.540828	0.436782	0.321714
C45	C	0.874161	0.770116	0.655048
C46	C	0.289969	0.104827	-0.016728
C47	C	0.623302	0.438160	0.316606
C48	C	0.956635	0.771494	0.649939
C49	C	0.331218	0.105514	-0.087524
C50	C	0.664552	0.438847	0.245809
C51	C	0.997885	0.772180	0.579142
C52	C	0.289988	0.104830	-0.153217
C53	C	0.623322	0.438163	0.180117
C54	C	0.956655	0.771497	0.513450
C55	C	0.207515	0.103457	-0.148107
C56	C	0.540848	0.436791	0.185226
C57	C	0.874182	0.770124	0.518559
C58	C	0.577879	0.109624	-0.110123
C59	C	0.911212	0.442957	0.223211
C60	C	1.244545	0.776291	0.556544
C61	C	0.660358	0.110994	-0.115227
C62	C	0.993692	0.444328	0.218107
C63	C	1.327025	0.777661	0.551440
C64	C	0.660333	0.110993	0.021263
C65	C	0.993666	0.444326	0.354596
C66	C	1.326999	0.777660	0.687929
C67	C	0.577858	0.109615	0.026366
C68	C	0.911191	0.442949	0.359699
C69	C	1.244525	0.776282	0.693032
C70	C	0.536635	0.108936	-0.039327
C71	C	0.869968	0.442269	0.294007
C72	C	1.203301	0.775603	0.627340
N73	N	0.415521	0.106920	-0.092748
N74	N	0.748854	0.440253	0.240586
N75	N	1.082187	0.773587	0.573919
N76	N	0.452333	0.107535	-0.034103
N77	N	0.785667	0.440869	0.299231
N78	N	1.119000	0.774202	0.632564
C79	C	0.937715	-0.166351	-0.115226
C80	C	1.271049	0.166982	0.218108
C81	C	1.604382	0.500315	0.551441
C82	C	0.936334	-0.248825	-0.110117
C83	C	1.269667	0.084508	0.223216
C84	C	1.603000	0.417842	0.556549
C85	C	0.935633	-0.290069	-0.039321
C86	C	1.268966	0.043265	0.294013
C87	C	1.602299	0.376598	0.627346
C88	C	0.936305	-0.248834	0.026372
C89	C	1.269638	0.084500	0.359706
C90	C	1.602972	0.417833	0.693039
C91	C	0.937681	-0.166361	0.021264
C92	C	1.271014	0.166973	0.354597
C93	C	1.604348	0.500306	0.687930
C94	C	0.931511	-0.536726	-0.016724
C95	C	1.264844	-0.203393	0.316610
C96	C	1.598178	0.129940	0.649943
C97	C	0.930137	-0.619205	-0.011620
C98	C	1.263471	-0.285872	0.321713
C99	C	1.596804	0.047461	0.655047
C100	C	0.930165	-0.619191	-0.148110
C101	C	1.263498	-0.285858	0.185223
C102	C	1.596831	0.047476	0.518556
C103	C	0.931545	-0.536717	-0.153213
C104	C	1.264879	-0.203384	0.180120
C105	C	1.598212	0.129949	0.513454
C106	C	0.932213	-0.495489	-0.087520
C107	C	1.265547	-0.162155	0.245813
C108	C	1.598880	0.171178	0.579147
N109	N	0.934223	-0.374370	-0.034098
N110	N	1.267556	-0.041037	0.299236
N111	N	1.600890	0.292296	0.632569
N112	N	0.933617	-0.411188	-0.092743
N113	N	1.266951	-0.077854	0.240590
N114	N	1.600284	0.255479	0.573923
C115	C	1.078495	0.101296	-0.071866
C116	C	1.411828	0.434629	0.261468
C117	C	1.745162	0.767963	0.594801
C118	C	1.166270	0.102763	-0.077306
C119	C	1.499604	0.436096	0.256027
C120	C	1.832937	0.769430	0.589360
C121	C	0.927998	0.251790	-0.071869
C122	C	1.261331	0.585123	0.261464
C123	C	1.594664	0.918457	0.594798
C124	C	0.929463	0.339565	-0.077308
C125	C	1.262796	0.672899	0.256025
C126	C	1.596129	1.006232	0.589359
N127	N	0.933902	0.107212	0.114738
N128	N	1.267235	0.440546	0.448071
N129	N	1.600568	0.773879	0.781404
N130	N	0.933957	0.107225	-0.241577
N131	N	1.267291	0.440558	0.091756
N132	N	1.600624	0.773891	0.425090
C133	C	0.987732	0.053427	0.154124
C134	C	1.321065	0.386761	0.487457
C135	C	1.654398	0.720094	0.820790
C136	C	0.987736	0.053424	0.232926
C137	C	1.321070	0.386757	0.566259
C138	C	1.654403	0.720090	0.899592
C139	C	0.933918	0.107219	0.272337
C140	C	1.267252	0.440552	0.605670
C141	C	1.600585	0.773885	0.939004
C142	C	0.880078	0.161008	0.232942
C143	C	1.213412	0.494341	0.566275
C144	C	1.546745	0.827674	0.899608
C145	C	0.880070	0.161004	0.154142
C146	C	1.213403	0.494338	0.487476
C147	C	1.546737	0.827671	0.820809
C148	C	0.923480	0.179242	0.393421
C149	C	1.256814	0.512575	0.726755
C150	C	1.590147	0.845908	1.060088
C151	C	0.923494	0.179246	0.472219
C152	C	1.256828	0.512579	0.805552
C153	C	1.590161	0.845913	1.138886
C154	C	0.933940	0.107228	0.515381
C155	C	1.267273	0.440561	0.848715
C156	C	1.600606	0.773895	1.182048
C157	C	0.944388	0.035203	0.479736
C158	C	1.277721	0.368536	0.813069
C159	C	1.611054	0.701870	1.146402
C160	C	0.944379	0.035200	0.400936
C161	C	1.277713	0.368533	0.734269
C162	C	1.611046	0.701867	1.067603
C163	C	0.933921	0.107228	0.357782
C164	C	1.267254	0.440561	0.691115
C165	C	1.600588	0.773894	1.024449
C166	C	0.987777	0.053435	0.640213
C167	C	1.321111	0.386768	0.973547
C168	C	1.654444	0.720101	1.306880
C169	C	0.987776	0.053430	0.719017
C170	C	1.321110	0.386763	1.052350
C171	C	1.654443	0.720097	1.385684
C172	C	0.880122	0.161021	0.719031
C173	C	1.213456	0.494354	1.052364
C174	C	1.546789	0.827688	1.385698
C175	C	0.880119	0.161019	0.640230
C176	C	1.213453	0.494352	0.973563
C177	C	1.546786	0.827685	1.306896
C178	C	0.933951	0.107227	0.600825
C179	C	1.267285	0.440560	0.934159
C180	C	1.600618	0.773893	1.267492
H181	H	0.173914	0.102893	0.046031
H182	H	0.507248	0.436227	0.379364
H183	H	0.840581	0.769560	0.712698
F184	F	0.935616	-0.292701	-0.180032
F185	F	1.268950	0.040633	0.153301
F186	F	1.602283	0.373966	0.486635
H187	H	0.544325	0.109068	-0.163614
H188	H	0.877658	0.442401	0.169719
H189	H	1.210992	0.775735	0.503053
F190	F	0.333891	0.105562	-0.228564
F191	F	0.667225	0.438896	0.104769
F192	F	1.000558	0.772229	0.438103
F193	F	0.932293	-0.492829	-0.228565
F194	F	1.265626	-0.159495	0.104769
F195	F	1.598960	0.173838	0.438102
F196	F	0.929453	-0.663075	-0.218020
F197	F	1.262786	-0.329742	0.115313
F198	F	1.596119	0.003591	0.448646
F199	F	0.912420	0.255900	0.347488
F200	F	1.245753	0.589233	0.680821
F201	F	1.579087	0.922567	1.014155
H202	H	0.173951	0.102901	-0.201597
H203	H	0.507284	0.436234	0.131736
H204	H	0.840618	0.769568	0.465070
F205	F	0.938467	-0.122465	-0.190578
F206	F	1.271800	0.210868	0.142755
F207	F	1.605134	0.544202	0.476088
F208	F	0.938398	-0.122482	0.091178
F209	F	1.271732	0.210852	0.424511
F210	F	1.605065	0.544185	0.757845
H211	H	0.693905	0.111548	0.074745
H212	H	1.027239	0.444881	0.408079
H213	H	1.360572	0.778214	0.741412
H214	H	0.929562	-0.652783	0.046034
H215	H	1.262896	-0.319450	0.379368
H216	H	1.596229	0.013883	0.712701
H217	H	1.031609	0.009628	0.751086
H218	H	1.364942	0.342961	1.084419
H219	H	1.698276	0.676294	1.417753
H220	H	1.031563	0.009625	0.122043
H221	H	1.364896	0.342958	0.455377
H222	H	1.698229	0.676291	0.788710
F223	F	1.045033	-0.003825	0.274850
F224	F	1.378366	0.329509	0.608183
F225	F	1.711699	0.662842	0.941517
H226	H	0.952885	-0.023445	0.371917
H227	H	1.286218	0.309888	0.705250
H228	H	1.619551	0.643221	1.038583
F229	F	0.932212	-0.492857	0.053194
F230	F	1.265545	-0.159524	0.386527
F231	F	1.598879	0.173810	0.719861
H232	H	0.323530	0.105384	0.036762
H233	H	0.656863	0.438717	0.370095
H234	H	0.990196	0.772050	0.703429
H235	H	0.693941	0.111560	-0.172881
H236	H	1.027274	0.444893	0.160452
H237	H	1.360607	0.778226	0.493786
F238	F	0.935550	-0.292729	0.101720
F239	F	1.268883	0.040604	0.435054
F240	F	1.602217	0.373938	0.768387
H241	H	0.836258	0.204807	0.265035
H242	H	1.169591	0.538140	0.598368
H243	H	1.502924	0.871474	0.931701
F244	F	0.955510	-0.041450	0.525666
F245	F	1.288844	0.291884	0.858999
F246	F	1.622177	0.625217	1.192332
H247	H	1.031608	0.009631	0.608129
H248	H	1.364942	0.342965	0.941463
H249	H	1.698275	0.676298	1.274796
F250	F	0.533961	0.108899	0.101716
F251	F	0.867294	0.442232	0.435050
F252	F	1.200628	0.775566	0.768383
H253	H	0.836234	0.204803	0.122073
H254	H	1.169568	0.538137	0.455407
H255	H	1.502901	0.871470	0.788740
F256	F	0.822841	0.218269	0.760972
F257	F	1.156174	0.551602	1.094306
F258	F	1.489507	0.884935	1.427639
F259	F	0.822830	0.218268	0.598308
F260	F	1.156163	0.551601	0.931642
F261	F	1.489496	0.884934	1.264975
F262	F	0.912380	0.255901	0.510148
F263	F	1.245713	0.589234	0.843482
F264	F	1.579047	0.922567	1.176815
