data_functionalizedCrystal
_audit_creation_method	'MofGen! by Chris Wilmer'
_symmetry_space_group_name_H-M	'P1'
_symmetry_Int_Tables_number	1
_symmetry_cell_setting	triclinic
loop_
_symmetry_equiv_pos_as_xyz
  x,y,z
_cell_length_a	14.044191
_cell_length_b	15.995292
_cell_length_c	12.503572
_cell_angle_alpha	93.525692
_cell_angle_beta	86.162165
_cell_angle_gamma	88.330196
loop_
_atom_site_label
_atom_site_type_symbol
_atom_site_fract_x
_atom_site_fract_y
_atom_site_fract_z
O1	O	1.263124	0.197461	-0.089254
O2	O	1.763124	0.697461	0.410746
O3	O	0.987157	0.190170	-0.089268
O4	O	1.487157	0.690170	0.410732
O5	O	1.132713	0.072490	-0.089262
O6	O	1.632713	0.572490	0.410738
O7	O	1.117568	0.315140	-0.089260
O8	O	1.617568	0.815140	0.410740
O9	O	1.121766	0.081356	0.089379
O10	O	1.621766	0.581356	0.589379
O11	O	0.976210	0.199036	0.089373
O12	O	1.476210	0.699036	0.589373
O13	O	1.252177	0.206327	0.089387
O14	O	1.752177	0.706327	0.589387
Cu15	Cu	1.113194	0.203491	0.105692
Cu16	Cu	1.613194	0.703491	0.605692
Cu17	Cu	1.126140	0.193006	-0.105573
Cu18	Cu	1.626140	0.693006	0.394427
O19	O	1.106621	0.324007	0.089382
O20	O	1.606621	0.824007	0.589382
C21	C	0.946370	0.191413	0.000051
C22	C	1.446370	0.691413	0.500051
C23	C	0.841146	0.181900	0.000045
C24	C	1.341146	0.681900	0.500045
C25	C	0.590847	0.231979	0.000056
C26	C	1.090847	0.731979	0.500056
C27	C	0.648493	0.164521	0.000054
C28	C	1.148493	0.664521	0.500054
C29	C	0.755695	0.174193	0.000049
C30	C	1.255695	0.674193	0.500049
C31	C	0.483635	0.222309	0.000061
C32	C	0.983635	0.722309	0.500061
C33	C	1.126623	0.045681	0.000056
C34	C	1.626623	0.545681	0.500056
C35	C	1.124776	-0.047410	0.000047
C36	C	1.624776	0.452590	0.500047
C37	C	1.117982	-0.385656	0.000057
C38	C	1.617982	0.114344	0.500057
C39	C	1.223016	-0.354474	0.000461
C40	C	1.723016	0.145526	0.500461
C41	C	1.225037	-0.257669	0.000055
C42	C	1.725037	0.242331	0.500055
C43	C	1.121353	-0.217848	0.000053
C44	C	1.621353	0.282152	0.500053
C45	C	1.075080	-0.255936	-0.101960
C46	C	1.575080	0.244064	0.398040
C47	C	1.073820	-0.352825	-0.102041
C48	C	1.573820	0.147175	0.397959
C49	C	1.059226	-0.342760	0.101108
C50	C	1.559226	0.157240	0.601108
C51	C	1.063037	-0.245910	0.102452
C52	C	1.563037	0.254090	0.602452
C53	C	1.123253	-0.123010	0.000047
C54	C	1.623253	0.376990	0.500047
C55	C	1.116079	-0.480494	0.000056
C56	C	1.616079	0.019506	0.500056
C57	C	1.292964	0.205083	0.000066
C58	C	1.792964	0.705083	0.500066
C59	C	1.398188	0.214597	0.000065
C60	C	1.898188	0.714597	0.500065
C61	C	1.112711	0.350815	0.000061
C62	C	1.612711	0.850815	0.500061
C63	C	1.114559	0.443906	0.000062
C64	C	1.614559	0.943906	0.500062
N65	N	1.104096	0.210866	0.254284
N66	N	1.604096	0.710866	0.754284
N67	N	1.135246	0.185625	-0.254164
N68	N	1.635246	0.685625	0.245836
C69	C	1.090711	0.221721	0.473398
C70	C	1.590711	0.721721	0.973398
C71	C	1.148627	0.174772	0.526728
C72	C	1.648627	0.674772	1.026728
C73	C	1.141180	0.180812	0.648651
C74	C	1.641180	0.680812	1.148651
C75	C	1.098157	0.215682	0.351464
C76	C	1.598157	0.715682	0.851464
H77	H	1.259027	-0.375815	0.073619
H78	H	1.759027	0.124185	0.573619
O79	O	0.956740	-0.368909	0.102023
O80	O	1.456740	0.131091	0.602023
H81	H	0.909094	-0.312584	0.099393
H82	H	1.409094	0.187416	0.599393
O83	O	1.221714	0.115518	0.465920
O84	O	1.721714	0.615518	0.965920
H85	H	1.294339	0.132681	0.487430
H86	H	1.794339	0.632681	0.987430
O87	O	1.017640	0.280980	0.534208
O88	O	1.517640	0.780980	1.034208
H89	H	1.031133	0.346088	0.512691
H90	H	1.531133	0.846088	1.012691
O91	O	0.607231	0.078394	0.000042
O92	O	1.107231	0.578394	0.500042
H93	H	0.528284	0.084211	0.000034
H94	H	1.028284	0.584211	0.500034
H95	H	0.622006	0.296990	0.000054
H96	H	1.122006	0.796990	0.500054
H97	H	0.986980	-0.218289	0.108611
H98	H	1.486980	0.281711	0.608611
H99	H	1.261692	-0.231942	0.073180
H100	H	1.761692	0.268058	0.573180
H101	H	1.267743	-0.384093	-0.072282
H102	H	1.767743	0.115907	0.427718
H103	H	1.270904	-0.239809	-0.073195
H104	H	1.770904	0.260191	0.426805
H105	H	1.114869	-0.380709	-0.178296
H106	H	1.614869	0.119291	0.321704
H107	H	0.997073	-0.373360	-0.106665
H108	H	1.497073	0.126640	0.393335
H109	H	0.999014	-0.229957	-0.105754
H110	H	1.499014	0.270043	0.394246
H111	H	1.116206	-0.236919	-0.177875
H112	H	1.616206	0.263081	0.322125
H113	H	1.096658	-0.220742	0.177920
H114	H	1.596658	0.279258	0.677920
O115	O	1.096543	-0.371837	0.203535
O116	O	1.596543	0.128163	0.703535
H117	H	1.157391	-0.417192	0.183558
H118	H	1.657391	0.082808	0.683558
