data_functionalizedCrystal
_audit_creation_method	'MofGen! by Chris Wilmer'
_symmetry_space_group_name_H-M	'P1'
_symmetry_Int_Tables_number	1
_symmetry_cell_setting	triclinic
loop_
_symmetry_equiv_pos_as_xyz
  x,y,z
_cell_length_a	11.792254
_cell_length_b	19.188924
_cell_length_c	17.666332
_cell_angle_alpha	90.006629
_cell_angle_beta	90.005772
_cell_angle_gamma	83.670281
loop_
_atom_site_label
_atom_site_type_symbol
_atom_site_fract_x
_atom_site_fract_y
_atom_site_fract_z
O1	O	1.505466	0.095737	0.062951
O2	O	1.174979	0.105590	0.062953
O3	O	1.349763	-0.000938	0.062943
O4	O	1.330681	0.202265	0.062961
O5	O	1.349744	-0.000941	-0.062953
O6	O	1.174959	0.105587	-0.062943
O7	O	1.505446	0.095734	-0.062945
Cu8	Cu	1.340201	0.100660	-0.074440
Cu9	Cu	1.340224	0.100664	0.074448
O10	O	1.330661	0.202262	-0.062935
C11	C	1.132687	0.104968	0.000005
C12	C	1.006702	0.103110	0.000006
C13	C	0.904388	0.101601	0.000009
C14	C	0.776030	0.099713	0.000009
C15	C	1.349137	-0.026954	-0.000006
C16	C	1.347286	-0.104470	-0.000008
C17	C	1.346433	-0.140872	0.068619
C18	C	1.344677	-0.213705	0.068625
C19	C	1.343798	-0.250134	0.000000
C20	C	1.344645	-0.213722	-0.068636
C21	C	1.346389	-0.140890	-0.068639
N22	N	1.405637	-0.369446	-0.051076
N23	N	1.403983	-0.438634	-0.051068
C24	C	1.338541	-0.469573	0.000007
N25	N	1.274830	-0.428712	0.051085
N26	N	1.276489	-0.359518	0.051079
C27	C	1.341906	-0.329108	-0.000003
C28	C	1.335782	-0.584949	0.068645
C29	C	1.334020	-0.657782	0.068648
C30	C	1.333999	-0.657799	-0.068614
C31	C	1.335750	-0.584966	-0.068615
C32	C	1.336647	-0.548546	0.000016
C33	C	1.547737	0.096356	0.000005
C34	C	1.673722	0.098214	0.000009
C35	C	1.331288	0.228278	0.000015
C36	C	1.333139	0.305794	0.000022
N37	N	1.340193	0.100658	-0.179159
C38	C	1.417637	0.053503	-0.781214
C39	C	1.417639	0.053505	-0.701966
C40	C	1.340225	0.100657	-0.662341
C41	C	1.262823	0.147824	-0.701969
C42	C	1.262830	0.147826	-0.781215
N43	N	1.239748	0.109134	-0.537927
N44	N	1.239744	0.109128	-0.462646
C45	C	1.340198	0.100656	-0.423577
N46	N	1.440660	0.092176	-0.462631
N47	N	1.440663	0.092179	-0.537918
C48	C	1.340208	0.100661	-0.576411
C49	C	1.417603	0.053497	-0.298028
C50	C	1.417607	0.053504	-0.218779
C51	C	1.262780	0.147820	-0.218784
C52	C	1.262786	0.147817	-0.298031
C53	C	1.340197	0.100652	-0.337649
N54	N	1.340241	0.100661	0.179167
H55	H	1.347160	-0.111223	0.124504
C56	C	1.333138	-0.697829	0.144146
N57	N	1.332498	-0.727995	0.201014
C58	C	1.336752	-0.544882	0.144140
N59	N	1.337479	-0.514706	0.201004
H60	H	1.480667	0.015102	-0.669702
C61	C	1.502754	0.001624	-0.175198
N62	N	1.566886	-0.037455	-0.142372
H63	H	1.480639	0.015095	-0.330286
H64	H	1.333275	-0.687459	-0.124490
C65	C	1.177624	0.199689	-0.175200
N66	N	1.113484	0.238760	-0.142370
C67	C	1.343675	-0.253796	-0.144123
N68	N	1.342940	-0.283979	-0.200982
C69	C	1.502776	0.001611	-0.824788
N70	N	1.566897	-0.037479	-0.857610
H71	H	1.347079	-0.111251	-0.124525
C72	C	1.336701	-0.544923	-0.144111
N73	N	1.337415	-0.514763	-0.200978
C74	C	1.343732	-0.253755	0.144122
N75	N	1.343018	-0.283918	0.200987
C76	C	1.177631	0.199687	-0.341614
N77	N	1.113488	0.238759	-0.374440
H78	H	1.199792	0.186217	-0.669702
H79	H	1.199804	0.186228	-0.813474
