data_functionalizedCrystal
_audit_creation_method	'MofGen! by Chris Wilmer'
_symmetry_space_group_name_H-M	'P1'
_symmetry_Int_Tables_number	1
_symmetry_cell_setting	triclinic
loop_
_symmetry_equiv_pos_as_xyz
  x,y,z
_cell_length_a	19.077105
_cell_length_b	21.295417
_cell_length_c	19.077174
_cell_angle_alpha	92.268346
_cell_angle_beta	85.483752
_cell_angle_gamma	87.726672
loop_
_atom_site_label
_atom_site_type_symbol
_atom_site_fract_x
_atom_site_fract_y
_atom_site_fract_z
Zn1	Zn	1.093669	-0.305856	-0.441813
Zn2	Zn	1.088842	-0.406716	-0.323916
Zn3	Zn	0.971055	-0.297057	-0.319212
Zn4	Zn	0.975736	-0.406675	-0.437034
O5	O	1.032326	-0.354076	-0.380494
O6	O	1.191679	-0.322935	-0.430143
O7	O	1.069238	-0.388505	-0.224642
O8	O	0.987382	-0.210138	-0.335507
O9	O	1.188132	-0.397037	-0.343524
O10	O	1.077466	-0.216603	-0.425582
O11	O	0.982701	-0.307938	-0.221186
O12	O	0.873027	-0.307898	-0.330872
O13	O	0.995359	-0.396967	-0.536317
O14	O	0.876465	-0.388434	-0.417435
O15	O	1.082004	-0.322895	-0.539829
O16	O	1.073777	-0.494797	-0.338889
O17	O	0.990679	-0.494767	-0.421997
C18	C	0.849167	-0.347207	-0.373125
C19	C	0.770812	-0.344285	-0.369989
C20	C	0.735806	-0.384900	-0.413514
C21	C	0.662183	-0.382146	-0.410571
C22	C	0.623567	-0.338778	-0.364100
C23	C	0.658578	-0.298158	-0.320573
C24	C	0.732200	-0.300910	-0.323520
C25	C	0.403188	-0.326043	-0.350464
C26	C	0.329561	-0.323295	-0.347519
C27	C	0.333172	-0.407283	-0.437519
C28	C	0.406795	-0.410033	-0.440459
C29	C	0.441799	-0.369411	-0.396935
N30	N	0.548312	-0.335963	-0.361089
N31	N	0.517052	-0.372223	-0.399949
C32	C	1.032232	-0.517623	-0.380451
C33	C	1.032257	-0.587592	-0.380459
C34	C	1.075568	-0.620457	-0.337233
C35	C	1.075602	-0.686201	-0.337250
C36	C	1.032311	-0.719078	-0.380485
C37	C	0.988997	-0.686205	-0.423720
C38	C	0.988970	-0.620462	-0.423707
N39	N	0.970858	-0.820236	-0.383378
N40	N	0.970886	-0.882688	-0.383387
C41	C	1.032392	-0.917157	-0.380529
N42	N	1.093870	-0.886813	-0.377648
N43	N	1.093842	-0.824354	-0.377636
C44	C	1.032337	-0.790365	-0.380505
C45	C	1.075744	-1.021309	-0.337319
C46	C	1.075779	-1.087055	-0.337341
C47	C	0.989168	-1.087057	-0.423807
C48	C	0.989139	-1.021313	-0.423789
C49	C	1.032426	-0.988443	-0.380541
C50	C	1.216199	-0.360972	-0.387892
C51	C	1.294555	-0.363911	-0.391044
C52	C	1.039742	-0.360908	-0.564367
C53	C	1.042903	-0.363819	-0.642723
C54	C	1.032440	-0.189892	-0.380553
C55	C	1.032489	-0.119927	-0.380578
C56	C	0.999334	-0.323241	-0.677734
C57	C	1.002301	-0.325982	-0.751358
C58	C	1.048841	-0.369298	-0.789968
C59	C	1.092411	-0.409880	-0.754951
C60	C	1.089440	-0.407142	-0.681329
C61	C	1.062554	-0.381988	-1.010348
C62	C	1.065523	-0.384721	-1.083976
C63	C	0.975412	-0.300823	-1.080377
C64	C	0.972448	-0.298087	-1.006754
C65	C	1.016016	-0.338671	-0.971743
N66	N	1.051876	-0.372099	-0.865223
N67	N	1.012976	-0.335873	-0.896489
C68	C	1.024979	-0.347227	-0.197338
C69	C	1.021955	-0.344143	-0.118988
H70	H	0.304663	-0.440354	-0.472954
H71	H	1.098022	-0.415041	-0.981851
C72	C	0.942019	-0.722008	-0.470586
C73	C	0.951297	-0.786617	-0.461331
C74	C	0.908026	-0.819616	-0.504489
H75	H	0.954161	-0.713428	-0.518398
H76	H	0.894224	-0.709152	-0.458316
H77	H	0.999081	-0.799467	-0.473605
H78	H	0.939150	-0.795216	-0.413528
H79	H	0.860231	-0.806761	-0.492219
H80	H	0.920172	-0.811031	-0.552299
H81	H	0.914311	-0.863456	-0.498211
H82	H	1.110817	-0.593696	-0.302020
H83	H	0.760700	-0.267833	-0.288081
H84	H	0.939941	-0.267782	-1.108891
H85	H	0.966820	-0.292941	-0.779861
H86	H	0.953868	-0.994552	-0.458985
C87	C	0.942142	-1.122631	-0.470827
C88	C	0.904214	-1.079775	-0.508691
C89	C	0.860895	-1.112526	-0.552022
H90	H	0.910311	-1.146166	-0.442682
H91	H	0.970321	-1.150380	-0.502692
H92	H	0.876037	-1.052037	-0.476830
H93	H	0.936027	-1.056239	-0.536848
H94	H	0.889074	-1.140275	-0.583887
H95	H	0.829068	-1.136060	-0.523872
H96	H	0.835160	-1.083454	-0.577722
H97	H	0.431679	-0.292970	-0.315019
H98	H	0.438231	-0.445349	-0.478299
H99	H	1.103425	-0.419996	-1.115411
C100	C	0.777606	-0.432008	-0.464043
C101	C	0.731188	-0.466975	-0.501545
C102	C	0.769666	-0.510370	-0.548108
H103	H	0.805222	-0.459527	-0.438250
H104	H	0.807571	-0.410201	-0.495996
H105	H	0.701235	-0.488781	-0.469596
H106	H	0.703571	-0.439473	-0.527353
H107	H	0.799631	-0.488563	-0.580061
H108	H	0.797280	-0.537885	-0.522308
H109	H	0.738178	-0.534096	-0.573563
C110	C	0.624148	-0.426146	-0.457912
C111	C	0.583752	-0.390677	-0.501500
C112	C	0.548715	-0.431191	-0.545129
H113	H	0.594263	-0.451471	-0.429818
H114	H	0.657674	-0.452359	-0.486046
H115	H	0.550231	-0.364475	-0.473370
H116	H	0.613620	-0.365354	-0.529610
H117	H	0.582240	-0.457403	-0.573263
H118	H	0.518834	-0.456513	-0.517029
H119	H	0.521307	-0.407131	-0.574713
H120	H	0.961440	-0.287965	-0.646303
H121	H	1.111052	-1.113812	-0.302143
C122	C	0.941986	-0.584862	-0.470753
C123	C	0.960089	-0.603985	-0.541133
C124	C	0.916815	-0.571209	-0.584491
H125	H	0.948127	-0.540993	-0.464645
H126	H	0.894205	-0.593537	-0.458538
H127	H	1.007858	-0.595306	-0.553345
H128	H	0.953945	-0.647850	-0.547264
H129	H	0.869034	-0.579884	-0.572275
H130	H	0.922960	-0.527341	-0.578376
H131	H	0.929088	-0.584183	-0.632247
H132	H	1.130301	-0.445152	-0.786394
C133	C	1.122818	-0.985732	-0.290346
C134	C	1.160774	-1.028590	-0.252510
C135	C	1.204152	-0.995842	-0.209238
H136	H	1.094699	-0.957971	-0.258459
H137	H	1.154626	-0.962212	-0.318551
H138	H	1.128970	-1.052099	-0.224308
H139	H	1.188907	-1.056352	-0.284379
H140	H	1.235960	-0.972323	-0.237442
H141	H	1.176027	-0.968082	-0.177355
H142	H	1.229915	-1.024916	-0.183566
H143	H	0.298121	-0.287973	-0.309681
H144	H	0.934549	-0.262816	-0.975322
H145	H	1.124924	-0.440181	-0.652824
H146	H	0.627131	-0.262845	-0.282738
H147	H	1.110874	-0.712965	-0.302050
