data_functionalizedCrystal
_audit_creation_method	'MofGen! by Chris Wilmer'
_symmetry_space_group_name_H-M	'P1'
_symmetry_Int_Tables_number	1
_symmetry_cell_setting	triclinic
loop_
_symmetry_equiv_pos_as_xyz
  x,y,z
_cell_length_a	19.188930
_cell_length_b	19.188924
_cell_length_c	8.140239
_cell_angle_alpha	89.994423
_cell_angle_beta	89.983403
_cell_angle_gamma	83.143372
loop_
_atom_site_label
_atom_site_type_symbol
_atom_site_fract_x
_atom_site_fract_y
_atom_site_fract_z
O1	O	0.926141	0.087167	-0.137149
O2	O	0.722829	0.098901	-0.137037
O3	O	0.830355	-0.008622	-0.137077
O4	O	0.818616	0.194690	-0.137109
O5	O	0.830349	-0.008623	0.136150
O6	O	0.722824	0.098900	0.136190
O7	O	0.926135	0.087166	0.136078
Zn8	Zn	0.824478	0.093033	0.179515
Zn9	Zn	0.824486	0.093034	-0.180474
O10	O	0.818610	0.194689	0.136118
C11	C	0.696815	0.098521	-0.000409
C12	C	0.619311	0.097380	-0.000366
C13	C	0.574385	0.160471	-0.000402
C14	C	0.501562	0.159399	-0.000420
C15	C	0.473667	0.095233	-0.000435
C16	C	0.518602	0.032134	-0.000390
C17	C	0.591424	0.033207	-0.000355
N18	N	0.365690	0.046186	-0.093484
N19	N	0.296511	0.045171	-0.093520
C20	C	0.254258	0.091995	-0.000535
N21	N	0.283796	0.139883	0.092468
N22	N	0.352980	0.140901	0.092497
C23	C	0.394704	0.094062	-0.000471
C24	C	0.130368	0.153928	-0.000588
C25	C	0.057543	0.152854	-0.000595
C26	C	0.074585	0.025586	-0.000582
C27	C	0.147409	0.026663	-0.000558
C28	C	0.175295	0.090835	-0.000568
C29	C	0.829973	-0.034634	-0.000462
C30	C	0.828834	-0.112138	-0.000457
C31	C	0.828306	-0.148537	-0.149393
C32	C	0.827226	-0.221359	-0.149405
C33	C	0.826688	-0.257783	-0.000472
C34	C	0.827212	-0.221375	0.148484
C35	C	0.828285	-0.148553	0.148491
N36	N	0.864733	-0.377447	0.110354
N37	N	0.863716	-0.446625	0.110337
C38	C	0.823454	-0.477192	-0.000486
N39	N	0.784257	-0.435969	-0.111316
N40	N	0.785278	-0.366785	-0.111303
C41	C	0.825524	-0.336746	-0.000464
C42	C	0.821754	-0.592553	-0.149445
C43	C	0.820669	-0.665376	-0.149451
C44	C	0.820663	-0.665392	0.148442
C45	C	0.821741	-0.592569	0.148443
C46	C	0.822289	-0.556154	-0.000505
C47	C	0.952149	0.087546	-0.000554
C48	C	1.029654	0.088687	-0.000608
C49	C	0.818992	0.220700	-0.000501
C50	C	0.820131	0.298205	-0.000517
N51	N	0.824478	0.093031	0.425197
N52	N	0.824492	0.093030	-0.426156
H53	H	0.051874	-0.026659	-0.000696
Cl54	Cl	0.647905	-0.046114	-0.000312
Cl55	Cl	0.828949	-0.102793	0.335742
Cl56	Cl	0.822437	-0.546770	-0.336690
Cl57	Cl	0.203890	-0.052657	-0.000522
H58	H	0.828750	-0.118892	-0.270678
H59	H	0.464976	0.210777	-0.000444
Cl60	Cl	0.609439	0.241145	-0.000407
H61	H	0.153075	0.206181	-0.000572
Cl62	Cl	0.826561	-0.267127	-0.336653
Cl63	Cl	0.001064	0.232176	-0.000632
H64	H	0.826773	-0.251036	0.269746
Cl65	Cl	0.820000	-0.711134	-0.336703
Cl66	Cl	0.819983	-0.711174	0.335674
H67	H	0.822177	-0.562934	0.269723
H68	H	0.495885	-0.020111	-0.000424
