data_functionalizedCrystal
_audit_creation_method	'MofGen! by Chris Wilmer'
_symmetry_space_group_name_H-M	'P1'
_symmetry_Int_Tables_number	1
_symmetry_cell_setting	triclinic
loop_
_symmetry_equiv_pos_as_xyz
  x,y,z
_cell_length_a	16.120484
_cell_length_b	10.685940
_cell_length_c	10.685314
_cell_angle_alpha	89.649531
_cell_angle_beta	96.993167
_cell_angle_gamma	97.507982
loop_
_atom_site_label
_atom_site_type_symbol
_atom_site_fract_x
_atom_site_fract_y
_atom_site_fract_z
Zn1	Zn	-0.282874	1.840294	-0.876159
Zn2	Zn	-0.411881	1.845618	-0.675454
Zn3	Zn	-0.281298	1.646709	-0.650223
Zn4	Zn	-0.433235	1.618095	-0.870592
O5	O	-0.352322	1.737679	-0.768107
O6	O	-0.291710	2.017236	-0.862424
O7	O	-0.384963	1.833436	-0.495886
O8	O	-0.163931	1.682136	-0.671964
O9	O	-0.386491	2.021147	-0.714967
O10	O	-0.165089	1.824362	-0.837958
O11	O	-0.289024	1.687298	-0.477349
O12	O	-0.309730	1.466678	-0.666566
O13	O	-0.422885	1.633367	-1.047552
O14	O	-0.421357	1.445655	-0.828471
O15	O	-0.312416	1.796616	-1.051641
O16	O	-0.532290	1.805690	-0.709569
O17	O	-0.547978	1.638529	-0.852936
C18	C	-0.570620	1.719614	-0.783416
C19	C	-0.664006	1.711998	-0.790016
C20	C	-0.367690	1.410471	-0.744177
C21	C	-0.374286	1.270485	-0.733972
C22	C	-0.370208	1.711205	-1.096566
C23	C	-0.377830	1.699924	-1.236536
C24	C	-0.834983	1.698097	-0.802092
C25	C	-0.868811	1.777485	-0.734159
C26	C	-0.963948	1.769751	-0.740878
C27	C	-0.739837	1.705830	-0.795375
C28	C	-0.133171	1.755847	-0.752768
C29	C	-0.039782	1.763589	-0.746231
C30	C	-0.336894	2.066165	-0.792131
C31	C	-0.330320	2.206146	-0.802368
C32	C	-0.334441	1.764127	-0.440926
C33	C	-0.326571	1.775672	-0.300959
H34	H	-0.826321	1.851258	-0.670951
C35	C	-0.842612	1.526587	-0.948931
C36	C	-0.892335	1.598504	-0.887412
H37	H	-0.878027	1.465109	-1.001606
H38	H	-0.807709	1.485611	-0.888140
H39	H	-0.808387	1.580271	-0.998787
H40	H	-0.926555	1.544821	-0.837548
H41	H	-0.927252	1.639483	-0.948211
C42	C	-0.204750	1.814319	-1.146278
C43	C	-0.259438	1.874867	-1.230865
H44	H	-0.163308	1.875557	-1.103003
H45	H	-0.177960	1.758035	-1.191342
H46	H	-0.235893	1.768317	-1.087111
H47	H	-0.228296	1.920862	-1.290039
H48	H	-0.286230	1.931173	-1.185799
H49	H	-0.416955	2.218479	-0.667579
C50	C	-0.189494	2.253736	-0.856704
C51	C	-0.272711	2.276350	-0.892001
H52	H	-0.153930	2.297083	-0.912035
H53	H	-0.186510	2.165730	-0.861355
H54	H	-0.171600	2.283078	-0.772785
H55	H	-0.290606	2.246998	-0.975916
H56	H	-0.275697	2.364374	-0.887361
H57	H	-0.427546	1.626440	-1.288462
