data_functionalizedCrystal
_audit_creation_method	'MofGen! by Chris Wilmer'
_symmetry_space_group_name_H-M	'P1'
_symmetry_Int_Tables_number	1
_symmetry_cell_setting	triclinic
loop_
_symmetry_equiv_pos_as_xyz
  x,y,z
_cell_length_a	17.052862
_cell_length_b	12.970454
_cell_length_c	12.970454
_cell_angle_alpha	60.000046
_cell_angle_beta	50.259371
_cell_angle_gamma	89.999615
loop_
_atom_site_label
_atom_site_type_symbol
_atom_site_fract_x
_atom_site_fract_y
_atom_site_fract_z
Zr1	Zr	0.914394	0.046017	0.765889
O2	O	0.762836	-0.148657	1.041083
O3	O	0.960854	0.105694	0.532375
O4	O	0.960855	-0.109395	0.747465
O5	O	0.762835	0.236099	0.825992
O6	O	1.117056	-0.078423	0.685520
O7	O	0.762835	0.066432	0.825993
O8	O	1.117054	0.306331	0.300764
O9	O	0.762837	-0.148655	1.210748
O10	O	1.097240	0.154261	0.566757
O11	O	0.980669	0.257767	0.612986
O12	O	0.980670	0.004528	0.866226
O13	O	0.864099	0.108035	0.912454
Zr14	Zr	1.163516	0.366013	0.667093
Zr15	Zr	1.163517	0.095413	0.667094
Zr16	Zr	0.914394	0.316617	0.765888
Zr17	Zr	0.914395	0.046019	1.036486
Zr18	Zr	1.163515	0.366011	0.396496
O19	O	1.117056	0.306337	0.900607
O20	O	1.117057	-0.078421	0.900609
O21	O	0.762836	0.236101	1.041081
O22	O	1.315074	0.560687	0.391900
O23	O	1.315074	0.175929	0.391901
O24	O	0.960853	0.490452	0.532373
O25	O	1.315075	0.175931	0.606990
O26	O	1.117055	0.521426	0.685517
O27	O	0.960854	0.490454	0.747462
O28	O	1.315075	0.345598	0.606989
O29	O	0.960856	-0.109392	1.132219
O30	O	1.117054	0.521422	0.300763
O31	O	1.315073	0.560686	0.222234
O32	O	1.315074	0.345595	0.222235
O33	O	0.762837	0.066436	1.210747
O34	O	0.960856	0.105699	1.132218
O35	O	1.097240	0.407502	0.566756
O36	O	1.213811	0.303995	0.520528
O37	O	1.097241	0.154263	0.819997
O38	O	0.980670	0.257770	0.866225
C39	C	0.727341	0.144228	0.840069
C40	C	0.621582	0.123258	0.882010
C41	C	1.038954	0.206012	0.378015
C42	C	1.038954	0.206011	0.263139
C43	C	1.038955	0.544494	0.716489
C44	C	1.038954	0.659371	0.716489
C45	C	0.566863	0.376784	0.374941
C46	C	0.666232	0.396481	0.335530
C47	C	0.655075	0.328177	0.472146
C48	C	0.544538	0.240172	0.648181
C49	C	0.445161	0.220464	0.687596
C50	C	0.533372	0.171858	0.784801
C51	C	0.422836	0.083853	0.960836
C52	C	0.323469	0.064150	1.000244
C53	C	0.334626	0.132453	0.863628
C54	C	0.632750	0.191566	0.745386
C55	C	0.511047	0.035247	1.058041
C56	C	0.411679	0.015549	1.097452
C57	C	1.350570	0.267803	0.592914
C58	C	1.456329	0.288773	0.550972
C59	C	1.038956	-0.132464	0.716493
C60	C	1.038956	-0.247341	0.716493
C61	C	1.038956	0.206018	1.054967
C62	C	1.038957	0.206019	1.169843
C63	C	1.350569	0.267799	0.254438
C64	C	1.456327	0.288768	0.097621
C65	C	1.038954	0.544491	0.378014
C66	C	1.038953	0.659367	0.263137
C67	C	1.350568	0.606279	0.254436
C68	C	1.456327	0.742124	0.097619
C69	C	0.727342	-0.194248	1.178546
C70	C	0.621584	-0.330094	1.335363
C71	C	0.727342	0.144231	1.178544
C72	C	0.621583	0.123262	1.335361
C73	C	1.038957	-0.132461	1.054969
C74	C	1.038957	-0.247337	1.169845
C75	C	1.445144	0.220444	0.048109
C76	C	1.544506	0.240120	-0.099218
C77	C	1.655050	0.328127	-0.197039
C78	C	1.666231	0.396453	-0.147515
C79	C	1.566870	0.376769	-0.000183
C80	C	1.566851	0.751891	-0.000159
C81	C	1.666232	0.879525	-0.147494
C82	C	1.655086	0.997389	-0.197056
C83	C	1.544549	0.987617	-0.099263
C84	C	1.445171	0.859986	0.048077
C85	C	0.511059	-0.339861	1.433154
C86	C	0.411678	-0.467494	1.580523
C87	C	0.422824	-0.585358	1.630090
C88	C	0.533361	-0.575587	1.532290
C89	C	0.632739	-0.447955	1.384932
C90	C	0.632766	0.191575	1.384884
C91	C	0.533404	0.171869	1.532241
C92	C	0.422860	0.083858	1.630065
C93	C	0.411679	0.015538	1.580537
C94	C	0.511040	0.035236	1.433190
H95	H	0.735988	0.344221	0.440046
H96	H	0.501961	-0.243904	1.392811
C97	C	1.848609	0.960371	-0.429334
C98	C	1.787732	0.890263	-0.254976
H99	H	1.923619	0.967009	-0.495683
H100	H	1.807329	0.912835	-0.430664
H101	H	1.856182	1.048828	-0.479910
H102	H	1.780151	0.801803	-0.204396
H103	H	1.829022	0.937798	-0.253638
H104	H	1.535491	1.083600	-0.139639
C105	C	0.437916	-0.180078	1.312404
C106	C	0.498772	-0.039837	1.208222
H107	H	0.430353	-0.226426	1.405103
H108	H	0.362922	-0.204404	1.361070
H109	H	0.479214	-0.204515	1.241694
H110	H	0.457469	-0.015399	1.278929
H111	H	0.573779	-0.015501	1.159555
C112	C	0.313692	0.010084	1.916110
C113	C	0.313653	0.062227	1.792023
H114	H	0.246280	-0.003254	2.016085
H115	H	0.313674	-0.074127	1.951501
H116	H	0.381144	0.072285	1.864900
H117	H	0.246205	0.000021	1.843228
H118	H	0.313660	0.146450	1.756630
H119	H	1.355180	0.852051	0.127674
C120	C	0.313568	-0.797620	1.916205
C121	C	0.313579	-0.725648	1.792062
H122	H	0.246118	-0.884223	2.016198
H123	H	0.380976	-0.808682	1.865069
H124	H	0.313584	-0.748774	1.951561
H125	H	0.313571	-0.774491	1.756696
H126	H	0.246153	-0.714592	1.843207
H127	H	1.756250	0.468108	-0.227182
H128	H	0.542423	-0.671567	1.572668
H129	H	1.575949	0.655934	0.040169
H130	H	0.321684	-0.475425	1.660131
C131	C	0.767027	-0.500838	1.386633
C132	C	0.754220	-0.437254	1.277456
H133	H	0.842019	-0.494250	1.320292
H134	H	0.758346	-0.457689	1.432140
H135	H	0.709409	-0.593707	1.481494
H136	H	0.811833	-0.344382	1.182602
H137	H	0.762913	-0.480400	1.231922
H138	H	1.735947	0.344144	-0.317003
C139	C	0.229334	-0.009109	1.686093
C140	C	0.290161	-0.081190	1.688067
H141	H	0.154316	-0.068820	1.752466
H142	H	0.221789	0.028749	1.736667
H143	H	0.270640	0.061614	1.567802
H144	H	0.248860	-0.151907	1.806357
H145	H	0.297702	-0.119069	1.637498
C146	C	0.872593	0.496089	0.136297
C147	C	0.787727	0.493220	0.142044
H148	H	0.947602	0.555812	0.016839
H149	H	0.863875	0.527002	0.194060
H150	H	0.863867	0.407399	0.194073
H151	H	0.796447	0.581908	0.084279
H152	H	0.796449	0.462313	0.084257
H153	H	0.575932	0.432381	0.263727
H154	H	1.575992	0.432417	0.040109
H155	H	1.736016	1.101306	-0.317033
H156	H	0.722768	0.263249	1.305245
C157	C	0.380720	-0.121240	1.495732
C158	C	0.498734	-0.039845	1.378749
H159	H	0.373120	-0.167588	1.462119
H160	H	0.344508	-0.185470	1.611980
H161	H	0.344503	-0.065857	1.492409
H162	H	0.534951	-0.095229	1.382081
H163	H	0.534962	0.024393	1.262471
H164	H	0.542531	0.227513	1.572540
H165	H	0.253717	0.116427	0.895706
C166	C	0.839115	0.291181	0.546138
C167	C	0.754243	0.288303	0.551897
H168	H	0.914121	0.350902	0.426677
H169	H	0.830401	0.322098	0.603894
H170	H	0.830390	0.202492	0.603916
H171	H	0.762961	0.376991	0.494131
H172	H	0.762960	0.257391	0.494117
H173	H	0.321668	-0.056107	1.240781
C174	C	0.189140	-0.163304	1.278888
C175	C	0.201969	-0.032590	1.193745
H176	H	0.114135	-0.223021	1.398350
H177	H	0.197843	-0.194216	1.221133
H178	H	0.246735	-0.161323	1.274948
H179	H	0.144380	-0.034569	1.197673
H180	H	0.193254	-0.001670	1.251516
C181	C	1.310815	0.169262	0.046469
C182	C	1.323641	0.123696	0.155620
H183	H	1.235808	0.109521	0.112841
H184	H	1.319522	0.257932	0.000917
H185	H	1.368407	0.171213	-0.048363
H186	H	1.266054	0.121754	0.250445
H187	H	1.314921	0.035002	0.201199
H188	H	1.535379	0.184477	-0.139517
