data_functionalizedCrystal
_audit_creation_method	'MofGen! by Chris Wilmer'
_symmetry_space_group_name_H-M	'P1'
_symmetry_Int_Tables_number	1
_symmetry_cell_setting	triclinic
loop_
_symmetry_equiv_pos_as_xyz
  x,y,z
_cell_length_a	12.594516
_cell_length_b	16.120530
_cell_length_c	16.120297
_cell_angle_alpha	89.871860
_cell_angle_beta	87.122232
_cell_angle_gamma	87.111852
loop_
_atom_site_label
_atom_site_type_symbol
_atom_site_fract_x
_atom_site_fract_y
_atom_site_fract_z
Zn1	Zn	-0.539249	1.247493	0.534603
Zn2	Zn	-0.039249	1.747493	1.034603
Zn3	Zn	-0.708692	1.254461	0.395557
Zn4	Zn	-0.208692	1.754461	0.895557
Zn5	Zn	-0.521263	1.115482	0.388519
Zn6	Zn	-0.021263	1.615482	0.888519
Zn7	Zn	-0.707712	1.108417	0.527526
Zn8	Zn	-0.207712	1.608417	1.027526
O9	O	-0.619229	1.181463	0.461551
O10	O	-0.119229	1.681463	0.961551
O11	O	-0.569664	1.364785	0.522065
O12	O	-0.069664	1.864785	1.022065
O13	O	-0.676712	1.241897	0.278258
O14	O	-0.176712	1.741897	0.778258
O15	O	-0.374707	1.133034	0.407914
O16	O	0.125293	1.633034	0.907914
O17	O	-0.694153	1.369904	0.419909
O18	O	-0.194153	1.869904	0.919909
O19	O	-0.387921	1.230022	0.515241
O20	O	0.112079	1.730022	1.015241
O21	O	-0.539009	1.139790	0.273087
O22	O	-0.039009	1.639790	0.773087
O23	O	-0.538058	0.998178	0.401052
O24	O	-0.038058	1.498178	0.901052
O25	O	-0.692482	1.120993	0.644831
O26	O	-0.192482	1.620993	1.144831
O27	O	-0.675042	0.992987	0.503180
O28	O	-0.175042	1.492987	1.003180
O29	O	-0.568713	1.223172	0.650030
O30	O	-0.068713	1.723172	1.150030
O31	O	-0.857504	1.235047	0.413047
O32	O	-0.357504	1.735047	0.913047
O33	O	-0.856784	1.127749	0.510004
O34	O	-0.356784	1.627749	1.010004
C35	C	-0.604493	0.965410	0.450585
C36	C	-0.104493	1.465410	0.950585
C37	C	-0.598215	0.872980	0.445913
C38	C	-0.098215	1.372980	0.945913
C39	C	-0.586730	0.703749	0.437391
C40	C	-0.086730	1.203749	0.937391
C41	C	-0.651810	0.660015	0.485772
C42	C	-0.151810	1.160015	0.985772
C43	C	-0.645420	0.565849	0.481031
C44	C	-0.145420	1.065849	0.981031
C45	C	-0.593119	0.797924	0.442132
C46	C	-0.093119	1.297924	0.942132
C47	C	-0.895766	1.181409	0.461540
C48	C	-0.395766	1.681409	0.961540
C49	C	-1.014076	1.181461	0.461567
C50	C	-0.514076	1.681461	0.961567
C51	C	-1.082974	1.123098	0.514263
C52	C	-0.582974	1.623098	1.014263
C53	C	-1.147787	1.106686	0.437359
C54	C	-0.647787	1.606686	0.937359
C55	C	-1.160068	1.197948	0.538488
C56	C	-0.660068	1.697948	1.038488
C57	C	-1.077326	1.165010	0.384621
C58	C	-0.577326	1.665010	0.884621
C59	C	-1.089606	1.256305	0.485803
C60	C	-0.589606	1.756305	0.985803
C61	C	-1.154387	1.239924	0.408848
C62	C	-0.654387	1.739924	0.908848
C63	C	-0.341615	1.181539	0.461582
C64	C	0.158385	1.681539	0.961582
C65	C	-0.223313	1.181572	0.461595
C66	C	0.276687	1.681572	0.961595
C67	C	-0.632495	1.170517	0.678446
C68	C	-0.132495	1.670517	1.178446
C69	C	-0.638148	1.165853	0.770874
C70	C	-0.138148	1.665853	1.270874
C71	C	-0.634024	1.398360	0.472561
C72	C	-0.134024	1.898360	0.972561
C73	C	-0.640328	1.490789	0.477253
C74	C	-0.140328	1.990789	0.977253
C75	C	-0.605942	1.192414	0.245502
C76	C	-0.105942	1.692414	0.745502
C77	C	-0.600000	1.197240	0.153083
C78	C	-0.100000	1.697240	0.653083
C79	C	-0.648443	1.157306	0.940100
C80	C	-0.148443	1.657306	1.440100
C81	C	-0.589708	1.205784	0.983863
C82	C	-0.089708	1.705784	1.483863
C83	C	-0.595436	1.201029	1.078026
C84	C	-0.095436	1.701029	1.578026
C85	C	-0.642716	1.162061	0.845928
C86	C	-0.142716	1.662061	1.345928
H87	H	-0.526218	0.670473	0.392412
H88	H	-0.026218	1.170473	0.892412
C89	C	-0.515973	1.266682	0.938950
C90	C	-0.015973	1.766682	1.438950
H91	H	-0.521755	1.261937	0.880636
H92	H	-0.021755	1.761937	1.380636
H93	H	-0.444473	1.253838	0.952513
H94	H	0.055527	1.753838	1.452513
H95	H	-0.536223	1.321849	0.955981
H96	H	-0.036223	1.821849	1.455981
C97	C	-0.722190	1.096426	0.985014
C98	C	-0.222190	1.596426	1.485014
H99	H	-0.716419	1.101186	1.043327
H100	H	-0.216419	1.601186	1.543327
H101	H	-0.701969	1.041256	0.967990
H102	H	-0.201969	1.541256	1.467990
H103	H	-0.793691	1.109290	0.971449
H104	H	-0.293691	1.609290	1.471449
H105	H	-0.712326	0.693293	0.530755
H106	H	-0.212326	1.193293	1.030755
C107	C	-1.040607	1.056320	0.574363
C108	C	-0.540607	1.556320	1.074363
H109	H	-1.060361	1.003213	0.557015
H110	H	-0.560361	1.503213	1.057015
H111	H	-1.070083	1.067470	0.628833
H112	H	-0.570083	1.567470	1.128833
H113	H	-0.965228	1.057070	0.574304
H114	H	-0.465228	1.557070	1.074304
H115	H	-1.173578	1.043442	0.416881
H116	H	-0.673578	1.543442	0.916881
H117	H	-1.185534	1.289330	0.364243
H118	H	-0.685534	1.789330	0.864243
C119	C	-1.028673	1.146124	0.296731
C120	C	-0.528673	1.646124	0.796731
H121	H	-0.953281	1.146168	0.297264
H122	H	-0.453281	1.646168	0.797264
H123	H	-1.053679	1.187372	0.259262
H124	H	-0.553679	1.687372	0.759262
H125	H	-1.049029	1.093163	0.279452
H126	H	-0.549029	1.593163	0.779452
H127	H	-1.063819	1.319532	0.506317
H128	H	-0.563819	1.819532	1.006317
C129	C	-1.208893	1.216732	0.626349
C130	C	-0.708893	1.716732	1.126349
H131	H	-1.184409	1.175174	0.663706
H132	H	-0.684409	1.675174	1.163706
H133	H	-1.284290	1.217142	0.625635
H134	H	-0.784290	1.717142	1.125635
H135	H	-1.188078	1.269463	0.643916
H136	H	-0.688078	1.769463	1.143916
