data_functionalizedCrystal
_audit_creation_method	'MofGen! by Chris Wilmer'
_symmetry_space_group_name_H-M	'P1'
_symmetry_Int_Tables_number	1
_symmetry_cell_setting	triclinic
loop_
_symmetry_equiv_pos_as_xyz
  x,y,z
_cell_length_a	17.639762
_cell_length_b	12.594516
_cell_length_c	17.640968
_cell_angle_alpha	78.769692
_cell_angle_beta	92.140373
_cell_angle_gamma	101.240598
loop_
_atom_site_label
_atom_site_type_symbol
_atom_site_fract_x
_atom_site_fract_y
_atom_site_fract_z
Zn1	Zn	1.247826	-0.030449	-0.195070
Zn2	Zn	1.222087	-0.250038	-0.068091
Zn3	Zn	1.095163	-0.099699	-0.093718
Zn4	Zn	1.120822	-0.236039	-0.220673
O5	O	1.171475	-0.154056	-0.144388
O6	O	1.350682	-0.036455	-0.156786
O7	O	1.183740	-0.264935	0.034782
O8	O	1.115447	0.058445	-0.107173
O9	O	1.331771	-0.197786	-0.063495
O10	O	1.227608	0.109323	-0.181635
O11	O	1.090489	-0.154482	0.015954
O12	O	0.992297	-0.140907	-0.131999
O13	O	1.159180	-0.173927	-0.323550
O14	O	1.011149	-0.241075	-0.225273
O15	O	1.252489	-0.022881	-0.304739
O16	O	1.208621	-0.397139	-0.088321
O17	O	1.134222	-0.386853	-0.200423
C18	C	0.974168	-0.196987	-0.184196
C19	C	0.889764	-0.215373	-0.201244
C20	C	0.780618	-0.293559	-0.273751
C21	C	0.859928	-0.276277	-0.257726
C22	C	0.840295	-0.171722	-0.160767
C23	C	0.760982	-0.188991	-0.176786
C24	C	0.731150	-0.249911	-0.233279
C25	C	0.711515	-0.145343	-0.136314
C26	C	0.632208	-0.162615	-0.152329
C27	C	0.602370	-0.223536	-0.208817
C28	C	0.651844	-0.267184	-0.249294
C29	C	0.741347	-0.084429	-0.079818
C30	C	0.691880	-0.040781	-0.039345
C31	C	0.612572	-0.058047	-0.055364
C32	C	0.582734	-0.118967	-0.111853
C33	C	0.563098	-0.014399	-0.014888
C34	C	0.483792	-0.031671	-0.030903
C35	C	0.503428	-0.136240	-0.127868
C36	C	1.171437	-0.430609	-0.144382
C37	C	1.171495	-0.548896	-0.144391
C38	C	1.212030	-0.623674	-0.083461
C39	C	1.244600	-0.667644	-0.149034
C40	C	1.139029	-0.715690	-0.078843
C41	C	1.204108	-0.591288	-0.209993
C42	C	1.098495	-0.639351	-0.139762
C43	C	1.131048	-0.683278	-0.205388
C44	C	1.369551	-0.110958	-0.104425
C45	C	1.453960	-0.092592	-0.087396
C46	C	1.211568	-0.089117	-0.342470
C47	C	1.228654	-0.061444	-0.426880
C48	C	1.171537	0.123587	-0.144407
C49	C	1.171563	0.241902	-0.144415
C50	C	1.041969	-0.363642	-0.753459
C51	C	1.058040	-0.337622	-0.832773
C52	C	1.155194	-0.180351	-0.813176
C53	C	1.139129	-0.206355	-0.733860
C54	C	1.082517	-0.298002	-0.704008
C55	C	1.179677	-0.140715	-0.684409
C56	C	1.163616	-0.166721	-0.605099
C57	C	1.107007	-0.258366	-0.575241
C58	C	1.066456	-0.324008	-0.624698
C59	C	1.236293	-0.049073	-0.714262
C60	C	1.276840	0.016567	-0.664810
C61	C	1.260776	-0.009434	-0.585500
C62	C	1.204167	-0.101079	-0.555641
C63	C	1.301327	0.056208	-0.536042
C64	C	1.285266	0.030203	-0.456732
C65	C	1.188106	-0.127084	-0.476332
C66	C	1.131581	-0.218656	0.052932
C67	C	1.114642	-0.245997	0.137372
H68	H	0.537793	-0.237600	-0.221855
Br69	Br	1.111265	-0.251454	-0.435812
Br70	Br	1.353673	0.140936	-0.705330
Br71	Br	0.740126	-0.376219	-0.350432
H72	H	1.111543	-0.769444	-0.023400
Br73	Br	1.378167	0.180569	-0.576563
H74	H	0.443514	0.003879	0.002049
H75	H	1.096808	-0.709425	-0.256974
Br76	Br	0.965128	-0.488012	-0.712940
H77	H	0.587399	0.035193	0.031114
H78	H	1.025017	-0.391081	-0.873035
H79	H	1.201290	-0.105735	-0.837492
H80	H	1.249370	-0.027905	-0.778841
Br81	Br	1.340300	0.119280	-0.389614
H82	H	1.246325	-0.597289	-0.031972
H83	H	1.306366	-0.680770	-0.152966
Br84	Br	0.462936	-0.218899	-0.204549
Br85	Br	0.927062	-0.335527	-0.312656
H86	H	0.627555	-0.316779	-0.295303
H87	H	1.093935	-0.279541	-0.510660
H88	H	1.020338	-0.398615	-0.600395
Br89	Br	0.995565	-0.617445	-0.133173
Br90	Br	1.250050	-0.501886	-0.302403
H91	H	0.864595	-0.122124	-0.114769
H92	H	0.805924	-0.070370	-0.066779
H93	H	0.716180	0.008817	0.006653
