data_functionalizedCrystal
_audit_creation_method	'MofGen! by Chris Wilmer'
_symmetry_space_group_name_H-M	'P1'
_symmetry_Int_Tables_number	1
_symmetry_cell_setting	triclinic
loop_
_symmetry_equiv_pos_as_xyz
  x,y,z
_cell_length_a	29.839131
_cell_length_b	19.121102
_cell_length_c	19.120904
_cell_angle_alpha	90.088173
_cell_angle_beta	92.409150
_cell_angle_gamma	87.595578
loop_
_atom_site_label
_atom_site_type_symbol
_atom_site_fract_x
_atom_site_fract_y
_atom_site_fract_z
Zn1	Zn	-0.219753	1.054749	-0.442036
Zn2	Zn	0.280247	1.554749	0.057964
Zn3	Zn	-0.291816	1.059636	-0.324791
Zn4	Zn	0.208184	1.559636	0.175209
Zn5	Zn	-0.213364	0.942520	-0.319821
Zn6	Zn	0.286636	1.442520	0.180179
Zn7	Zn	-0.291514	0.937448	-0.436994
Zn8	Zn	0.208486	1.437448	0.063006
O9	O	-0.254112	0.998588	-0.380911
O10	O	0.245888	1.498588	0.119089
O11	O	-0.232113	1.153501	-0.430674
O12	O	0.267887	1.653501	0.069326
O13	O	-0.278861	1.048269	-0.226027
O14	O	0.221139	1.548269	0.273973
O15	O	-0.151347	0.957485	-0.336063
O16	O	0.348653	1.457485	0.163937
O17	O	-0.285057	1.157092	-0.344535
O18	O	0.214943	1.657092	0.155465
O19	O	-0.156042	1.039939	-0.425855
O20	O	0.343958	1.539939	0.074145
O21	O	-0.221223	0.962224	-0.222376
O22	O	0.278777	1.462224	0.277624
O23	O	-0.220930	0.843743	-0.331174
O24	O	0.279070	1.343743	0.168826
O25	O	-0.284542	0.948840	-0.535767
O26	O	0.215458	1.448840	-0.035767
O27	O	-0.278346	0.840017	-0.417260
O28	O	0.221654	1.340017	0.082740
O29	O	-0.231820	1.035020	-0.539472
O30	O	0.268180	1.535020	-0.039472
O31	O	-0.354640	1.043351	-0.339645
O32	O	0.145360	1.543351	0.160355
O33	O	-0.354418	0.953579	-0.422080
O34	O	0.145582	1.453579	0.077920
C35	C	-0.248912	0.816443	-0.373131
C36	C	0.251088	1.316443	0.126869
C37	C	-0.246699	0.738519	-0.369819
C38	C	0.253301	1.238519	0.130181
C39	C	-0.370830	0.998463	-0.380870
C40	C	0.129170	1.498463	0.119130
C41	C	-0.420765	0.998473	-0.380879
C42	C	0.079235	1.498473	0.119121
C43	C	-0.275595	0.699992	-0.413013
C44	C	0.224405	1.199992	0.086987
C45	C	-0.273510	0.626774	-0.409905
C46	C	0.226490	1.126774	0.090095
C47	C	-0.242531	0.592086	-0.363599
C48	C	0.257469	1.092086	0.136401
C49	C	-0.213632	0.630619	-0.320403
C50	C	0.286368	1.130619	0.179597
C51	C	-0.215716	0.703835	-0.323515
C52	C	0.284284	1.203835	0.176485
C53	C	-0.234741	0.371117	-0.351966
C54	C	0.265259	0.871117	0.148034
C55	C	-0.232660	0.297896	-0.348855
C56	C	0.267340	0.797896	0.151145
C57	C	-0.292537	0.294056	-0.438359
C58	C	0.207463	0.794056	0.061641
C59	C	-0.294620	0.367274	-0.441464
C60	C	0.205380	0.867274	0.058536
C61	C	-0.265720	0.405800	-0.398271
C62	C	0.234280	0.905800	0.101729
C63	C	-0.240400	0.517246	-0.360419
C64	C	0.259600	1.017246	0.139581
C65	C	-0.267849	0.480639	-0.401455
C66	C	0.232151	0.980639	0.098545
C67	C	-0.730519	1.045411	-0.338056
C68	C	-0.230519	1.545411	0.161944
C69	C	-0.918195	1.045496	-0.338087
C70	C	-0.418195	1.545496	0.161913
O71	O	-0.942551	1.085306	-0.301646
O72	O	-0.442551	1.585306	0.198354
N73	N	-0.941559	0.998731	-0.380970
N74	N	-0.441559	1.498731	0.119030
C75	C	-0.918001	0.951945	-0.423851
C76	C	-0.418001	1.451945	0.076149
O77	O	-0.942181	0.912175	-0.460332
O78	O	-0.442181	1.412175	0.039668
C79	C	-0.730326	0.951864	-0.423824
C80	C	-0.230326	1.451864	0.076176
C81	C	-0.706964	0.998627	-0.380933
C82	C	-0.206964	1.498627	0.119067
C83	C	-0.707157	1.092171	-0.295169
C84	C	-0.207157	1.592171	0.204831
C85	C	-0.660241	1.092146	-0.295159
C86	C	-0.160241	1.592146	0.204841
C87	C	-0.636686	1.045362	-0.338036
C88	C	-0.136686	1.545362	0.161964
C89	C	-0.660048	0.998602	-0.380923
C90	C	-0.160048	1.498602	0.119077
C91	C	-0.706770	0.905081	-0.466708
C92	C	-0.206770	1.405081	0.033292
C93	C	-0.659848	0.905066	-0.466699
C94	C	-0.159848	1.405066	0.033301
C95	C	-0.636486	0.951829	-0.423808
C96	C	-0.136486	1.451829	0.076192
C97	C	-0.589577	0.951794	-0.423789
C98	C	-0.089577	1.451794	0.076211
N99	N	-0.566213	0.998559	-0.380906
N100	N	-0.066213	1.498559	0.119094
C101	C	-0.589768	1.045343	-0.338030
C102	C	-0.089768	1.545343	0.161970
C103	C	-1.016534	0.951990	-0.423862
C104	C	-0.516534	1.451990	0.076138
C105	C	-1.063452	0.952010	-0.423868
C106	C	-0.563452	1.452010	0.076132
C107	C	-1.063642	1.045562	-0.338104
C108	C	-0.563642	1.545562	0.161896
C109	C	-1.016723	1.045539	-0.338095
C110	C	-0.516723	1.545539	0.161905
C111	C	-0.993169	0.998755	-0.380979
C112	C	-0.493169	1.498755	0.119021
C113	C	-0.491240	1.045288	-0.338011
C114	C	0.008760	1.545288	0.161989
C115	C	-0.444319	1.045257	-0.338003
C116	C	0.055681	1.545257	0.161997
C117	C	-0.444133	0.951708	-0.423769
C118	C	0.055867	1.451708	0.076231
C119	C	-0.491049	0.951735	-0.423775
C120	C	0.008951	1.451735	0.076225
C121	C	-0.514602	0.998531	-0.380894
C122	C	-0.014602	1.498531	0.119106
O123	O	-0.565193	0.912011	-0.460217
O124	O	-0.065193	1.412011	0.039783
O125	O	-0.565581	1.085117	-0.301566
O126	O	-0.065581	1.585117	0.198434
C127	C	-0.777435	1.045435	-0.338066
C128	C	-0.277435	1.545435	0.161934
C129	C	-0.800797	0.998676	-0.380953
C130	C	-0.300797	1.498676	0.119047
C131	C	-0.777243	0.951891	-0.423830
C132	C	-0.277243	1.451891	0.076170
C133	C	-0.847716	0.998695	-0.380959
C134	C	-0.347716	1.498695	0.119041
C135	C	-0.871270	1.045479	-0.338082
C136	C	-0.371270	1.545479	0.161918
C137	C	-0.847906	1.092244	-0.295199
C138	C	-0.347906	1.592244	0.204801
C139	C	-0.800990	1.092220	-0.295189
C140	C	-0.300990	1.592220	0.204811
C141	C	-0.800607	0.905126	-0.466712
C142	C	-0.300607	1.405126	0.033288
C143	C	-0.847523	0.905154	-0.466718
C144	C	-0.347523	1.405154	0.033282
C145	C	-0.871078	0.951938	-0.423842
C146	C	-0.371078	1.451938	0.076158
C147	C	-0.136939	0.998732	-0.380967
C148	C	0.363061	1.498732	0.119033
C149	C	-0.087007	0.998794	-0.380991
C150	C	0.412993	1.498794	0.119009
C151	C	-0.258860	0.990819	-0.563768
C152	C	0.241140	1.490819	-0.063768
C153	C	-0.260884	0.987508	-0.641691
C154	C	0.239116	1.487508	-0.141691
C155	C	-0.259331	1.181445	-0.388721
C156	C	0.240669	1.681445	0.111279
C157	C	-0.261556	1.259368	-0.392050
C158	C	0.238444	1.759368	0.107950
C159	C	-0.234387	1.030820	-0.680230
C160	C	0.265613	1.530820	-0.180230
C161	C	-0.236286	1.027700	-0.753446
C162	C	0.263714	1.527700	-0.253446
C163	C	-0.264686	0.981272	-0.788123
C164	C	0.235314	1.481272	-0.288123
C165	C	-0.291184	0.937956	-0.749580
C166	C	0.208816	1.437956	-0.249580
C167	C	-0.289282	0.941072	-0.676364
C168	C	0.210718	1.441072	-0.176364
C169	C	-0.271800	0.969615	-1.009090
C170	C	0.228200	1.469615	-0.509090
C171	C	-0.273701	0.966503	-1.082311
C172	C	0.226299	1.466503	-0.582311
C173	C	-0.218802	1.056247	-1.086172
C174	C	0.281198	1.556247	-0.586172
C175	C	-0.216905	1.059362	-1.012955
C176	C	0.283095	1.559362	-0.512955
C177	C	-0.243401	1.016043	-0.974418
C178	C	0.256599	1.516043	-0.474418
C179	C	-0.266629	0.978084	-0.862963
C180	C	0.233371	1.478084	-0.362963
C181	C	-0.241455	1.019228	-0.899580
C182	C	0.258545	1.519228	-0.399580
C183	C	-0.249350	1.006368	-0.198766
C184	C	0.250650	1.506368	0.301234
C185	C	-0.247204	1.009815	-0.120849
C186	C	0.252796	1.509815	0.379151
H187	H	-0.297040	0.595408	-0.445078
H188	H	0.202960	1.095408	0.054922
H189	H	-0.510072	0.913659	-0.458702
H190	H	-0.010072	1.413659	0.041298
N191	N	-0.419121	1.095702	-0.291747
N192	N	0.080879	1.595702	0.208253
H193	H	-0.398027	1.068614	-0.258013
H194	H	0.101973	1.568614	0.241987
H195	H	-0.441195	1.125333	-0.264637
H196	H	0.058805	1.625333	0.235363
N197	N	-0.190218	1.102955	-1.127739
N198	N	0.309782	1.602955	-0.627739
H199	H	-0.171938	1.132837	-1.094661
H200	H	0.328062	1.632837	-0.594661
H201	H	-0.210216	1.134085	-1.159498
H202	H	0.289784	1.634085	-0.659498
N203	N	-0.210829	1.069309	-0.862184
N204	N	0.289171	1.569309	-0.362184
H205	H	-0.219572	1.118846	-0.877067
H206	H	0.280428	1.618846	-0.377067
H207	H	-0.178761	1.057866	-0.874486
H208	H	0.321239	1.557866	-0.374486
N209	N	-0.321805	0.887871	-0.786989
N210	N	0.178195	1.387871	-0.286989
H211	H	-0.344227	0.915037	-0.818578
H212	H	0.155773	1.415037	-0.318578
H213	H	-0.338272	0.860909	-0.751426
H214	H	0.161728	1.360909	-0.251426
H215	H	-0.211211	0.402476	-0.316789
H216	H	0.288789	0.902476	0.183211
H217	H	-0.867092	1.130336	-0.260286
H218	H	-0.367092	1.630336	0.239714
N219	N	-0.775796	1.142661	-0.248933
N220	N	-0.275796	1.642661	0.251067
H221	H	-0.797843	1.172300	-0.221778
H222	H	-0.297843	1.672300	0.278222
H223	H	-0.757969	1.173861	-0.278879
H224	H	-0.257969	1.673861	0.221121
N225	N	-0.516639	1.095759	-0.291763
N226	N	-0.016639	1.595759	0.208237
H227	H	-0.494714	1.125373	-0.264595
H228	H	0.005286	1.625373	0.235405
H229	H	-0.534476	1.068639	-0.258080
H230	H	-0.034476	1.568639	0.241920
N231	N	-0.418723	0.901245	-0.470008
N232	N	0.081277	1.401245	0.029992
H233	H	-0.385456	0.908331	-0.463491
H234	H	0.114544	1.408331	0.036509
H235	H	-0.428513	0.909993	-0.520553
H236	H	0.071487	1.409993	-0.020553
N237	N	-0.301264	0.518051	-0.451392
N238	N	0.198736	1.018051	0.048608
H239	H	-0.319257	0.482537	-0.478284
H240	H	0.180743	0.982537	0.021716
H241	H	-0.284720	0.547075	-0.485181
H242	H	0.215280	1.047075	0.014819
N243	N	-0.872718	0.854707	-0.512976
N244	N	-0.372718	1.354707	-0.012976
H245	H	-0.850672	0.825069	-0.540134
H246	H	-0.350672	1.325069	-0.040134
H247	H	-0.893812	0.881847	-0.546666
H248	H	-0.393812	1.381847	-0.046666
H249	H	-0.781432	0.867030	-0.501629
H250	H	-0.281432	1.367030	-0.001629
N251	N	-0.207704	1.074422	-0.795001
N252	N	0.292296	1.574422	-0.295001
H253	H	-0.227674	1.105596	-0.826761
H254	H	0.272326	1.605596	-0.326761
H255	H	-0.186860	1.044622	-0.824123
H256	H	0.313140	1.544622	-0.324123
N257	N	-0.184546	0.745387	-0.276928
N258	N	0.315454	1.245387	0.223072
H259	H	-0.189808	0.734759	-0.226274
H260	H	0.310192	1.234759	0.273726
H261	H	-0.190579	0.797017	-0.285985
H262	H	0.309421	1.297017	0.214015
N263	N	-0.991531	1.095984	-0.291840
N264	N	-0.491531	1.595984	0.208160
H265	H	-0.973705	1.127232	-0.321741
H266	H	-0.473705	1.627232	0.178259
H267	H	-0.970458	1.068850	-0.258114
H268	H	-0.470458	1.568850	0.241886
N269	N	-0.309011	0.737403	-0.462954
N270	N	0.190989	1.237403	0.037046
H271	H	-0.326999	0.701883	-0.489846
H272	H	0.173001	1.201883	0.010154
H273	H	-0.292466	0.766427	-0.496742
H274	H	0.207534	1.266427	0.003258
N275	N	-0.304335	0.916427	-1.119715
N276	N	0.195665	1.416427	-0.619715
H277	H	-0.320832	0.889457	-1.084193
H278	H	0.179168	1.389457	-0.584193
H279	H	-0.285911	0.882718	-1.148718
H280	H	0.214089	1.382718	-0.648718
H281	H	-0.211262	1.068629	-0.652001
H282	H	0.288738	1.568629	-0.152001
N283	N	-0.300383	0.922887	-0.967549
N284	N	0.199617	1.422887	-0.467549
H285	H	-0.321230	0.952631	-0.938377
H286	H	0.178770	1.452631	-0.438377
H287	H	-0.280382	0.891712	-0.935837
H288	H	0.219618	1.391712	-0.435837
N289	N	-0.635047	1.142594	-0.248909
N290	N	-0.135047	1.642594	0.251091
H291	H	-0.657094	1.172235	-0.221756
H292	H	-0.157094	1.672235	0.278244
H293	H	-0.617222	1.173791	-0.278862
H294	H	-0.117222	1.673791	0.221138
H295	H	-0.188407	0.602369	-0.282702
H296	H	0.311593	1.102369	0.217298
N297	N	-0.317857	0.894351	-0.634794
N298	N	0.182143	1.394351	-0.134794
H299	H	-0.336136	0.864465	-0.667870
H300	H	0.163864	1.364465	-0.167870
H301	H	-0.338672	0.924149	-0.605622
H302	H	0.161328	1.424149	-0.105622
N303	N	-0.732558	1.142636	-0.248920
N304	N	-0.232558	1.642636	0.251080
H305	H	-0.710632	1.172250	-0.221756
H306	H	-0.210632	1.672250	0.278244
H307	H	-0.750392	1.115514	-0.215235
H308	H	-0.250392	1.615514	0.284765
H309	H	-0.193780	1.097171	-0.984727
H310	H	0.306220	1.597171	-0.484727
H311	H	-0.319847	0.395512	-0.479171
H312	H	0.180153	0.895512	0.020829
N313	N	-0.323707	0.252504	-0.484944
N314	N	0.176293	0.752504	0.015056
H315	H	-0.317688	0.200858	-0.475948
H316	H	0.182312	0.700858	0.024052
H317	H	-0.318429	0.263192	-0.535578
H318	H	0.181571	0.763192	-0.035578
H319	H	-0.207429	0.269654	-0.311151
H320	H	0.292571	0.769654	0.188849
H321	H	-0.640673	0.866970	-0.501623
H322	H	-0.140673	1.366970	-0.001623
N323	N	-0.297258	0.928017	-0.900380
N324	N	0.202742	1.428017	-0.400380
H325	H	-0.329338	0.939404	-0.888099
H326	H	0.170662	1.439404	-0.388099
H327	H	-0.288484	0.878494	-0.885491
H328	H	0.211516	1.378494	-0.385491
H329	H	-1.082829	1.083656	-0.303192
H330	H	-0.582829	1.583656	0.196808
H331	H	-0.997359	0.913892	-0.458784
H332	H	-0.497359	1.413892	0.041216
N333	N	-0.206993	0.479829	-0.310466
N334	N	0.293007	0.979829	0.189534
H335	H	-0.189004	0.515343	-0.283569
H336	H	0.310996	1.015343	0.216431
H337	H	-0.186110	0.448264	-0.337772
H338	H	0.313890	0.948264	0.162228
N339	N	-1.088646	0.901561	-0.470116
N340	N	-0.588646	1.401561	0.029884
H341	H	-1.066601	0.871923	-0.497275
H342	H	-0.566601	1.371923	0.002725
H343	H	-1.109744	0.928696	-0.503806
H344	H	-0.609744	1.428696	-0.003806
H345	H	-0.725783	0.866998	-0.501631
H346	H	-0.225783	1.366998	-0.001631
