data_functionalizedCrystal
_audit_creation_method	'MofGen! by Chris Wilmer'
_symmetry_space_group_name_H-M	'P1'
_symmetry_Int_Tables_number	1
_symmetry_cell_setting	triclinic
loop_
_symmetry_equiv_pos_as_xyz
  x,y,z
_cell_length_a	6.817900
_cell_length_b	15.300992
_cell_length_c	14.125286
_cell_angle_alpha	95.720699
_cell_angle_beta	100.396688
_cell_angle_gamma	104.175078
loop_
_atom_site_label
_atom_site_type_symbol
_atom_site_fract_x
_atom_site_fract_y
_atom_site_fract_z
V1	V	-3.994748	-0.124061	-0.300279
O2	O	-3.979346	0.006678	-0.294264
O3	O	-3.949874	-0.246682	-0.298512
O4	O	-3.930838	-0.121838	-0.431110
O5	O	-3.998513	-0.119029	-0.160748
V6	V	-4.479929	-0.108460	-0.283555
O7	O	-4.252370	-0.158283	-0.336964
O8	O	-4.672504	-0.074239	-0.246870
O9	O	-4.301596	0.014160	-0.285322
O10	O	-4.612728	-0.239200	-0.289569
O11	O	-4.593560	-0.113492	-0.423085
O12	O	-4.320632	-0.110683	-0.152724
C13	C	-3.796234	-0.276584	-0.293849
C14	C	-3.840728	-0.376825	-0.293276
C15	C	-3.831439	-0.411246	-0.204867
C16	C	-3.873265	-0.505435	-0.204332
C17	C	-3.924365	-0.565201	-0.292207
C18	C	-3.933660	-0.530774	-0.380623
C19	C	-3.891848	-0.436587	-0.381157
C20	C	-4.020800	-0.727088	-0.379504
C21	C	-4.062611	-0.821281	-0.378970
C22	C	-4.002217	-0.795935	-0.202679
C23	C	-3.960406	-0.701749	-0.203213
C24	C	-3.969699	-0.667329	-0.291629
C25	C	-3.771951	-0.117333	-0.462989
C26	C	-3.801005	-0.116327	-0.569946
C27	C	-4.039827	-0.118154	-0.818072
C28	C	-3.854230	-0.114366	-0.765749
C29	C	-3.824617	-0.115457	-0.656794
C30	C	-4.069448	-0.117063	-0.927037
C31	C	-4.118578	0.044057	-0.289982
C32	C	-4.053322	0.144298	-0.290561
C33	C	-4.142861	-0.115192	-0.120839
C34	C	-4.093046	-0.116193	-0.013881
H35	H	-3.865703	-0.533455	-0.132341
N36	N	-3.901338	-0.401409	-0.471457
N37	N	-4.025232	-0.355219	-0.495138
H38	H	-4.031944	-0.330374	-0.558915
H39	H	-3.975283	-0.579443	-0.452173
N40	N	-3.908186	-0.640710	-0.113444
N41	N	-3.899893	-0.671451	-0.034509
H42	H	-3.863015	-0.628343	0.028893
N43	N	-4.114769	-0.882336	-0.468725
N44	N	-3.989829	-0.876764	-0.524083
H45	H	-4.026657	-0.919887	-0.587473
N46	N	-3.779217	-0.350187	-0.115112
N47	N	-3.608662	-0.291263	-0.092023
H48	H	-3.571783	-0.248140	-0.028631
H49	H	-3.717576	-0.110301	-0.802781
N50	N	-4.211230	-0.123249	-0.771609
N51	N	-4.186542	-0.124141	-0.681882
H52	H	-4.307589	-0.127742	-0.649056
H53	H	-4.028405	-0.699068	-0.451502
N54	N	-3.992723	-0.831104	-0.112371
N55	N	-4.030063	-0.915200	-0.111902
H56	H	-4.023352	-0.940043	-0.048125
