data_functionalizedCrystal
_audit_creation_method	'MofGen! by Chris Wilmer'
_symmetry_space_group_name_H-M	'P1'
_symmetry_Int_Tables_number	1
_symmetry_cell_setting	triclinic
loop_
_symmetry_equiv_pos_as_xyz
  x,y,z
_cell_length_a	12.811438
_cell_length_b	19.188924
_cell_length_c	11.892110
_cell_angle_alpha	93.874216
_cell_angle_beta	91.498492
_cell_angle_gamma	83.596248
loop_
_atom_site_label
_atom_site_type_symbol
_atom_site_fract_x
_atom_site_fract_y
_atom_site_fract_z
O1	O	1.388759	0.096340	0.048380
O2	O	1.085359	0.105092	0.017270
O3	O	1.245817	-0.000853	0.033736
O4	O	1.228300	0.202285	0.031914
O5	O	1.232437	0.007968	0.220371
O6	O	1.071978	0.113913	0.203904
O7	O	1.375378	0.105161	0.235014
Zn8	Zn	1.221554	0.110937	0.249092
Zn9	Zn	1.239183	0.099316	0.003193
O10	O	1.214920	0.211106	0.218548
C11	C	1.039852	0.108741	0.106607
C12	C	0.924193	0.106463	0.094748
C13	C	0.768466	0.098446	-0.023689
C14	C	0.877139	0.100585	-0.012555
C15	C	0.862566	0.110201	0.190925
C16	C	0.753893	0.108062	0.179792
C17	C	0.706847	0.102185	0.072482
C18	C	0.598171	0.100051	0.061349
C19	C	0.583601	0.109663	0.264829
C20	C	0.692274	0.111802	0.275962
C21	C	1.238561	-0.022459	0.126996
C22	C	1.236861	-0.099981	0.126825
C23	C	1.243361	-0.141196	0.025009
C24	C	1.241750	-0.214034	0.024835
C25	C	1.233660	-0.245657	0.126486
C26	C	1.227152	-0.204432	0.228314
C27	C	1.228753	-0.131594	0.228484
N28	N	1.285010	-0.361184	0.208024
N29	N	1.283492	-0.430377	0.207856
C30	C	1.228834	-0.465114	0.125980
N31	N	1.175766	-0.428045	0.044262
N32	N	1.177289	-0.358845	0.044427
C33	C	1.231923	-0.324637	0.126313
C34	C	1.233587	-0.585310	0.023968
C35	C	1.231969	-0.658149	0.023798
C36	C	1.217382	-0.648546	0.227281
C37	C	1.218989	-0.575708	0.227447
C38	C	1.227097	-0.544094	0.125788
C39	C	1.420885	0.101512	0.145675
C40	C	1.536544	0.103789	0.157527
C41	C	1.222177	0.232712	0.125285
C42	C	1.223877	0.310233	0.125449
N43	N	1.209530	0.118869	0.416912
C44	C	1.334865	0.036161	0.666422
C45	C	1.326468	0.041710	0.783902
C46	C	1.184335	0.135512	0.769354
C47	C	1.192732	0.129963	0.651874
C48	C	1.268000	0.080287	0.600412
C49	C	1.276402	0.074741	0.482930
C50	C	1.134264	0.168539	0.468384
C51	C	1.125868	0.174088	0.585864
N52	N	1.251207	0.091384	0.835372
H53	H	0.900892	0.114978	0.278292
F54	F	0.518013	0.113648	0.367187
H55	H	1.240183	-0.559568	-0.058809
F56	F	1.208765	-0.682196	0.335465
H57	H	0.559868	0.095269	-0.026028
H58	H	1.213704	-0.542150	0.310358
F59	F	1.251985	-0.107554	-0.083186
F60	F	1.045762	0.226953	0.640643
H61	H	0.927306	0.097539	-0.090867
H62	H	0.730595	0.116584	0.363331
H63	H	1.337691	0.034295	0.441032
H64	H	1.396158	-0.004282	0.624522
F65	F	0.718392	0.092200	-0.137894
F66	F	1.397632	-0.005256	0.854150
H67	H	1.079822	0.204471	0.414626
F68	F	1.104224	0.188371	0.824135
H69	H	1.247038	-0.247598	-0.058079
F70	F	1.218535	-0.238088	0.336497
F71	F	1.221832	-0.087728	0.336855
H72	H	1.237258	-0.691706	-0.059117
