data_functionalizedCrystal
_audit_creation_method	'MofGen! by Chris Wilmer'
_symmetry_space_group_name_H-M	'P1'
_symmetry_Int_Tables_number	1
_symmetry_cell_setting	triclinic
loop_
_symmetry_equiv_pos_as_xyz
  x,y,z
_cell_length_a	12.827893
_cell_length_b	21.295417
_cell_length_c	12.827885
_cell_angle_alpha	89.961900
_cell_angle_beta	89.980728
_cell_angle_gamma	90.030477
loop_
_atom_site_label
_atom_site_type_symbol
_atom_site_fract_x
_atom_site_fract_y
_atom_site_fract_z
Zn1	Zn	1.597560	-0.250579	-0.590788
Zn2	Zn	1.930893	0.082754	-0.257455
Zn3	Zn	2.264227	0.416087	0.075878
Zn4	Zn	1.597408	-0.355861	-0.416023
Zn5	Zn	1.930741	-0.022528	-0.082690
Zn6	Zn	2.264074	0.310805	0.250643
Zn7	Zn	1.422801	-0.250610	-0.416062
Zn8	Zn	1.756135	0.082723	-0.082729
Zn9	Zn	2.089468	0.416057	0.250605
Zn10	Zn	1.422740	-0.355814	-0.590723
Zn11	Zn	1.756074	-0.022481	-0.257390
Zn12	Zn	2.089407	0.310852	0.075943
O13	O	1.510127	-0.303216	-0.503399
O14	O	1.843461	0.030117	-0.170066
O15	O	2.176794	0.363450	0.163268
O16	O	1.743776	-0.264552	-0.567616
O17	O	2.077109	0.068781	-0.234283
O18	O	2.410442	0.402115	0.099050
O19	O	1.574208	-0.341932	-0.269792
O20	O	1.907541	-0.008599	0.063541
O21	O	2.240874	0.324735	0.396874
O22	O	1.446072	-0.162516	-0.439283
O23	O	1.779406	0.170817	-0.105950
O24	O	2.112739	0.504150	0.227384
O25	O	1.743664	-0.341902	-0.439217
O26	O	2.076997	-0.008569	-0.105884
O27	O	2.410331	0.324764	0.227449
O28	O	1.574467	-0.162494	-0.567654
O29	O	1.907800	0.170839	-0.234321
O30	O	2.241133	0.504173	0.099013
O31	O	1.445925	-0.264604	-0.269821
O32	O	1.779258	0.068729	0.063513
O33	O	2.112592	0.402063	0.396846
O34	O	1.276557	-0.264559	-0.439220
O35	O	1.609890	0.068775	-0.105887
O36	O	1.943224	0.402108	0.227447
O37	O	1.445969	-0.341822	-0.736968
O38	O	1.779302	-0.008489	-0.403635
O39	O	2.112635	0.324844	-0.070301
O40	O	1.276512	-0.341852	-0.567543
O41	O	1.609846	-0.008519	-0.234210
O42	O	1.943179	0.324815	0.099124
O43	O	1.574408	-0.264506	-0.737016
O44	O	1.907741	0.068827	-0.403682
O45	O	2.241075	0.402160	-0.070349
O46	O	1.574149	-0.443944	-0.439154
O47	O	1.907482	-0.110611	-0.105821
O48	O	2.240815	0.222722	0.227513
O49	O	1.445821	-0.443910	-0.567505
O50	O	1.779155	-0.110577	-0.234172
O51	O	2.112488	0.222757	0.099161
C52	C	1.238617	-0.303204	-0.503379
C53	C	1.571951	0.030129	-0.170046
C54	C	1.905284	0.363463	0.163287
C55	C	1.122464	-0.303214	-0.503396
C56	C	1.455798	0.030119	-0.170062
C57	C	1.789131	0.363453	0.163271
C58	C	1.070685	-0.341521	-0.566796
C59	C	1.404018	-0.008188	-0.233462
C60	C	1.737352	0.325146	0.099871
C61	C	0.950635	-0.341532	-0.566814
C62	C	1.283968	-0.008199	-0.233481
C63	C	1.617301	0.325134	0.099853
C64	C	1.509990	-0.466768	-0.503341
C65	C	1.843324	-0.133435	-0.170008
C66	C	2.176657	0.199899	0.163325
C67	C	1.510027	-0.536736	-0.503351
C68	C	1.843361	-0.203403	-0.170018
C69	C	2.176694	0.129931	0.163315
C70	C	1.576907	-0.569600	-0.436587
C71	C	1.910240	-0.236266	-0.103254
C72	C	2.243573	0.097067	0.230079
C73	C	1.576956	-0.635342	-0.436611
C74	C	1.910289	-0.302009	-0.103278
C75	C	2.243622	0.031325	0.230056
C76	C	1.510107	-0.668218	-0.503387
C77	C	1.843440	-0.334885	-0.170054
C78	C	2.176773	-0.001552	0.163279
C79	C	1.443222	-0.635347	-0.570165
C80	C	1.776556	-0.302014	-0.236831
C81	C	2.109889	0.031320	0.096502
C82	C	1.443183	-0.569606	-0.570147
C83	C	1.776516	-0.236272	-0.236813
C84	C	2.109850	0.097061	0.096520
N85	N	1.418690	-0.771484	-0.511347
N86	N	1.752023	-0.438150	-0.178014
N87	N	2.085357	-0.104817	0.155319
N88	N	1.418731	-0.833935	-0.511358
N89	N	1.752064	-0.500602	-0.178025
N90	N	2.085397	-0.167268	0.155308
C91	C	1.510224	-0.866293	-0.503447
C92	C	1.843557	-0.532960	-0.170114
C93	C	2.176890	-0.199626	0.163219
N94	N	1.601676	-0.833840	-0.495504
N95	N	1.935010	-0.500507	-0.162171
N96	N	2.268343	-0.167174	0.171162
N97	N	1.601635	-0.771383	-0.495488
N98	N	1.934968	-0.438050	-0.162155
N99	N	2.268301	-0.104717	0.171179
C100	C	1.510143	-0.739504	-0.503415
C101	C	1.843476	-0.406170	-0.170082
C102	C	2.176809	-0.072837	0.163252
C103	C	1.577162	-0.970442	-0.436705
C104	C	1.910495	-0.637109	-0.103372
C105	C	2.243829	-0.303776	0.229961
C106	C	1.577213	-1.036186	-0.436736
C107	C	1.910546	-0.702853	-0.103403
C108	C	2.243879	-0.369519	0.229931
C109	C	1.443470	-1.036189	-0.570284
C110	C	1.776803	-0.702856	-0.236951
C111	C	2.110137	-0.369523	0.096382
C112	C	1.443429	-0.970447	-0.570259
C113	C	1.776762	-0.637114	-0.236926
C114	C	2.110095	-0.303780	0.096408
C115	C	1.510273	-0.937577	-0.503464
C116	C	1.843606	-0.604244	-0.170130
C117	C	2.176940	-0.270911	0.163203
C118	C	1.782697	-0.303229	-0.503420
C119	C	2.116031	0.030104	-0.170086
C120	C	2.449364	0.363438	0.163247
C121	C	1.898851	-0.303234	-0.503428
C122	C	2.232184	0.030099	-0.170095
C123	C	2.565517	0.363432	0.163238
C124	C	1.510198	-0.303156	-0.775969
C125	C	1.843532	0.030178	-0.442636
C126	C	2.176865	0.363511	-0.109303
C127	C	1.510229	-0.303130	-0.892123
C128	C	1.843562	0.030203	-0.558789
C129	C	2.176895	0.363537	-0.225456
C130	C	1.510293	-0.139026	-0.503480
C131	C	1.843627	0.194307	-0.170147
C132	C	2.176960	0.527641	0.163187
C133	C	1.510364	-0.069058	-0.503515
C134	C	1.843697	0.264276	-0.170181
C135	C	2.177031	0.597609	0.163152
C136	C	1.573791	-0.264864	-0.943931
C137	C	1.907125	0.068469	-0.610598
C138	C	2.240458	0.401802	-0.277264
C139	C	1.573824	-0.264837	-1.063982
C140	C	1.907158	0.068497	-0.730648
C141	C	2.240491	0.401830	-0.397315
C142	C	1.510117	-0.303231	-0.231889
C143	C	1.843450	0.030102	0.101444
C144	C	2.176783	0.363436	0.434777
C145	C	1.510289	-0.303079	-0.115737
C146	C	1.843622	0.030254	0.217597
C147	C	2.176955	0.363587	0.550930
H148	H	1.077918	-0.270424	-0.449134
H149	H	1.411251	0.062909	-0.115801
H150	H	1.744584	0.396243	0.217533
H151	H	0.906106	-0.374330	-0.621090
H152	H	1.239439	-0.040997	-0.287757
H153	H	1.572772	0.292337	0.045576
H154	H	1.389045	-1.062957	-0.624660
H155	H	1.722378	-0.729623	-0.291326
H156	H	2.055711	-0.396290	0.042007
H157	H	1.455871	-0.335844	-1.071189
H158	H	1.789205	-0.002511	-0.737856
H159	H	2.122538	0.330822	-0.404523
F160	F	1.128905	-0.384380	-0.637725
F161	F	1.462239	-0.051047	-0.304391
F162	F	1.795572	0.282286	0.028942
F163	F	0.957043	-0.260367	-0.432470
F164	F	1.290376	0.072966	-0.099137
F165	F	1.623709	0.406299	0.234196
H166	H	1.631338	-0.542839	-0.382202
H167	H	1.964671	-0.209506	-0.048868
H168	H	2.298005	0.123828	0.284465
F169	F	1.372081	-0.670337	-0.641237
F170	F	1.705414	-0.337004	-0.307903
F171	F	2.038748	-0.003670	0.025430
F172	F	1.648140	-0.670325	-0.365548
F173	F	1.981473	-0.336992	-0.032214
F174	F	2.314807	-0.003659	0.301119
F175	F	1.371997	-0.534629	-0.641209
F176	F	1.705331	-0.201295	-0.307876
F177	F	2.038664	0.132038	0.025458
H178	H	1.631594	-0.943679	-0.382320
H179	H	1.964928	-0.610345	-0.048986
H180	H	2.298261	-0.277012	0.284347
H181	H	1.631680	-1.062942	-0.382371
H182	H	1.965014	-0.729609	-0.049037
H183	H	2.298347	-0.396276	0.284296
H184	H	1.628182	-0.232122	-0.899409
H185	H	1.961515	0.101212	-0.566076
H186	H	2.294848	0.434545	-0.232743
F187	F	1.372241	-0.935470	-0.641315
F188	F	1.705575	-0.602136	-0.307982
F189	F	2.038908	-0.268803	0.025351
F190	F	1.644961	-0.222017	-1.122213
F191	F	1.978294	0.111316	-0.788880
F192	F	2.311628	0.444649	-0.455546
F193	F	1.439124	-0.345923	-0.950310
F194	F	1.772457	-0.012589	-0.616977
F195	F	2.105791	0.320744	-0.283644
