data_functionalizedCrystal
_audit_creation_method	'MofGen! by Chris Wilmer'
_symmetry_space_group_name_H-M	'P1'
_symmetry_Int_Tables_number	1
_symmetry_cell_setting	triclinic
loop_
_symmetry_equiv_pos_as_xyz
  x,y,z
_cell_length_a	14.519709
_cell_length_b	23.532416
_cell_length_c	13.596369
_cell_angle_alpha	90.002050
_cell_angle_beta	89.999684
_cell_angle_gamma	83.266196
loop_
_atom_site_label
_atom_site_type_symbol
_atom_site_fract_x
_atom_site_fract_y
_atom_site_fract_z
O1	O	-1.222991	-0.074649	0.081658
O2	O	-0.722991	0.425351	0.581658
O3	O	-0.954410	-0.083440	0.081687
O4	O	-0.454410	0.416560	0.581687
O5	O	-1.096795	0.003850	0.081671
O6	O	-0.596795	0.503850	0.581671
O7	O	-1.080606	-0.161939	0.081674
O8	O	-0.580606	0.338061	0.581674
O9	O	-1.096778	0.003845	-0.081912
O10	O	-0.596778	0.503845	0.418088
O11	O	-0.954393	-0.083445	-0.081896
O12	O	-0.454393	0.416555	0.418104
O13	O	-1.222973	-0.074654	-0.081925
O14	O	-0.722973	0.425346	0.418075
Zn15	Zn	-1.088680	-0.079050	-0.107883
Zn16	Zn	-0.588680	0.420950	0.392117
Zn17	Zn	-1.088703	-0.079044	0.107645
Zn18	Zn	-0.588703	0.420956	0.607645
O19	O	-1.080588	-0.161944	-0.081909
O20	O	-0.580588	0.338056	0.418091
C21	C	-0.920046	-0.083033	-0.000100
C22	C	-0.420046	0.416967	0.499900
C23	C	-0.817680	-0.081805	-0.000089
C24	C	-0.317680	0.418195	0.499911
C25	C	-1.096373	0.025066	-0.000118
C26	C	-0.596373	0.525066	0.499882
C27	C	-1.095130	0.088288	-0.000112
C28	C	-0.595130	0.588288	0.499888
N29	N	-1.088671	-0.079054	-0.254975
N30	N	-0.588671	0.420946	0.245025
C31	C	-1.257337	-0.075061	-0.000135
C32	C	-0.757337	0.424939	0.499865
C33	C	-1.359704	-0.076289	-0.000140
C34	C	-0.859704	0.423711	0.499860
C35	C	-0.442837	-0.077285	-0.000134
C36	C	0.057163	0.422715	0.499866
C37	C	-0.547130	-0.078540	-0.000121
C38	C	-0.047130	0.421460	0.499879
C39	C	-0.630255	-0.079545	-0.000110
C40	C	-0.130255	0.420455	0.499890
C41	C	-0.734555	-0.080800	-0.000099
C42	C	-0.234555	0.419200	0.499901
C43	C	-1.089851	0.361559	0.089057
C44	C	-0.589851	0.861559	0.589057
C45	C	-1.091006	0.302153	0.089058
C46	C	-0.591006	0.802153	0.589058
O47	O	-1.091644	0.271428	0.164891
O48	O	-0.591644	0.771428	0.664891
N49	N	-1.091568	0.272446	-0.000112
N50	N	-0.591568	0.772446	0.499888
C51	C	-1.090985	0.302148	-0.089289
C52	C	-0.590985	0.802148	0.410711
O53	O	-1.091570	0.271425	-0.165135
O54	O	-0.591570	0.771425	0.334865
C55	C	-1.089837	0.361553	-0.089289
C56	C	-0.589837	0.861553	0.410711
C57	C	-1.089265	0.391256	-0.000113
C58	C	-0.589265	0.891256	0.499887
C59	C	-1.089281	0.391262	0.178226
C60	C	-0.589281	0.891262	0.678226
C61	C	-1.088125	0.450663	0.178224
C62	C	-0.588125	0.950663	0.678224
C63	C	-1.087539	0.480361	0.089054
C64	C	-0.587539	0.980361	0.589054
C65	C	-1.088109	0.450657	-0.000115
C66	C	-0.588109	0.950657	0.499885
C67	C	-1.089260	0.391254	-0.178465
C68	C	-0.589260	0.891254	0.321535
C69	C	-1.088113	0.450663	-0.178458
C70	C	-0.588113	0.950663	0.321542
C71	C	-1.087541	0.480366	-0.089282
C72	C	-0.587541	0.980366	0.410718
C73	C	-1.086367	0.539756	-0.089286
C74	C	-0.586367	1.039756	0.410714
N75	N	-1.085805	0.569463	-0.000116
N76	N	-0.585805	1.069463	0.499884
C77	C	-1.086391	0.539765	0.089054
C78	C	-0.586391	1.039765	0.589054
C79	C	-1.093397	0.177394	-0.089282
C80	C	-0.593397	0.677394	0.410718
C81	C	-1.094539	0.117990	-0.089283
C82	C	-0.594539	0.617990	0.410717
C83	C	-1.094562	0.118000	0.089065
C84	C	-0.594562	0.618000	0.589065
C85	C	-1.093414	0.177405	0.089065
C86	C	-0.593414	0.677405	0.589065
C87	C	-1.092835	0.207102	-0.000112
C88	C	-0.592835	0.707102	0.499888
C89	C	-1.083962	0.664512	0.089044
C90	C	-0.583962	1.164512	0.589044
C91	C	-1.082801	0.723918	0.089034
C92	C	-0.582801	1.223918	0.589034
C93	C	-1.082783	0.723903	-0.089313
C94	C	-0.582783	1.223903	0.410687
C95	C	-1.083939	0.664502	-0.089304
C96	C	-0.583939	1.164502	0.410696
C97	C	-1.084531	0.634808	-0.000118
C98	C	-0.584531	1.134808	0.499882
O99	O	-1.085733	0.570519	-0.165080
O100	O	-0.585733	1.070519	0.334920
O101	O	-1.085818	0.570497	0.164887
O102	O	-0.585818	1.070497	0.664887
C103	C	-1.081001	0.816840	-0.000122
C104	C	-0.581001	1.316840	0.499878
C105	C	-1.082215	0.753615	-0.000136
C106	C	-0.582215	1.253615	0.499864
C107	C	-1.088676	-0.079055	-0.343972
C108	C	-0.588676	0.420945	0.156028
C109	C	-1.088685	-0.079051	-0.455624
C110	C	-0.588685	0.420949	0.044376
C111	C	-1.088697	-0.079045	-0.544614
C112	C	-0.588697	0.420955	-0.044614
C113	C	-1.088707	-0.079042	-0.656273
C114	C	-0.588707	0.420958	-0.156273
N115	N	-1.088720	-0.079035	0.254737
N116	N	-0.588720	0.420965	0.754737
H117	H	-1.082333	0.748099	0.161655
H118	H	-0.582333	1.248099	0.661655
N119	N	-1.084602	0.632490	0.185234
N120	N	-0.584602	1.132490	0.685234
H121	H	-1.084064	0.660328	0.241715
H122	H	-0.584064	1.160328	0.741715
H123	H	-1.027905	0.603290	0.189130
H124	H	-0.527905	1.103290	0.689130
N125	N	-1.084545	0.632454	-0.185477
N126	N	-0.584545	1.132454	0.314523
H127	H	-1.027164	0.638234	-0.224457
H128	H	-0.527164	1.138234	0.275543
H129	H	-1.141550	0.647362	-0.224392
H130	H	-0.641550	1.147362	0.275608
N131	N	-1.089916	0.359237	0.274410
N132	N	-0.589916	0.859237	0.774410
H133	H	-1.089381	0.387077	0.330888
H134	H	-0.589381	0.887077	0.830888
H135	H	-1.033215	0.330041	0.278307
H136	H	-0.533215	0.830041	0.778307
H137	H	-1.087666	0.474843	0.250840
H138	H	-0.587666	0.974843	0.750840
H139	H	-1.092947	0.201585	0.161680
H140	H	-0.592947	0.701585	0.661680
H141	H	-1.095036	0.093809	0.161672
H142	H	-0.595036	0.593809	0.661672
H143	H	-1.094986	0.093809	-0.161899
H144	H	-0.594986	0.593809	0.338101
H145	H	-1.092918	0.201569	-0.161904
H146	H	-0.592918	0.701569	0.338096
N147	N	-1.082166	0.755941	-0.185486
N148	N	-0.582166	1.255941	0.314514
H149	H	-1.081358	0.798080	-0.171947
H150	H	-0.581358	1.298080	0.328053
H151	H	-1.139549	0.750107	-0.224415
H152	H	-0.639549	1.250107	0.275585
N153	N	-1.089884	0.359227	-0.274649
N154	N	-0.589884	0.859227	0.225351
H155	H	-1.089346	0.387063	-0.331128
H156	H	-0.589346	0.887063	0.168872
H157	H	-1.147542	0.339136	-0.278535
H158	H	-0.647542	0.839136	0.221465
N159	N	-1.087494	0.482693	-0.274643
N160	N	-0.587494	0.982693	0.225357
H161	H	-1.088031	0.454858	-0.331128
H162	H	-0.588031	0.954858	0.168872
H163	H	-1.029839	0.502787	-0.278529
H164	H	-0.529839	1.002787	0.221471
