data_functionalizedCrystal
_audit_creation_method	'MofGen! by Chris Wilmer'
_symmetry_space_group_name_H-M	'P1'
_symmetry_Int_Tables_number	1
_symmetry_cell_setting	triclinic
loop_
_symmetry_equiv_pos_as_xyz
  x,y,z
_cell_length_a	19.805407
_cell_length_b	19.805405
_cell_length_c	19.805399
_cell_angle_alpha	89.972514
_cell_angle_beta	89.978936
_cell_angle_gamma	90.026712
loop_
_atom_site_label
_atom_site_type_symbol
_atom_site_fract_x
_atom_site_fract_y
_atom_site_fract_z
Zn1	Zn	-1.034729	0.269497	0.382747
Zn2	Zn	-0.534729	0.769497	0.882747
Zn3	Zn	-1.034642	0.382686	0.269559
Zn4	Zn	-0.534642	0.882686	0.769559
Zn5	Zn	-0.921544	0.269514	0.269569
Zn6	Zn	-0.421544	0.769514	0.769569
Zn7	Zn	-0.921505	0.382648	0.382703
Zn8	Zn	-0.421505	0.882648	0.882703
O9	O	-0.978105	0.326086	0.326144
O10	O	-0.478105	0.826086	0.826144
O11	O	-1.129434	0.284521	0.367747
O12	O	-0.629434	0.784521	0.867747
O13	O	-1.019619	0.367696	0.174844
O14	O	-0.519619	0.867696	0.674844
O15	O	-0.936611	0.174795	0.284605
O16	O	-0.436611	0.674795	0.784605
O17	O	-1.129370	0.367680	0.284588
O18	O	-0.629370	0.867680	0.784588
O19	O	-1.019768	0.174783	0.367756
O20	O	-0.519768	0.674783	0.867756
O21	O	-0.936526	0.284549	0.174851
O22	O	-0.436526	0.784549	0.674851
O23	O	-0.826822	0.284512	0.284562
O24	O	-0.326822	0.784512	0.784562
O25	O	-0.936545	0.367615	0.477425
O26	O	-0.436545	0.867615	0.977425
O27	O	-0.826794	0.367631	0.367681
O28	O	-0.326794	0.867631	0.867681
O29	O	-1.019730	0.284484	0.477458
O30	O	-0.519730	0.784484	0.977458
O31	O	-1.019581	0.477397	0.284545
O32	O	-0.519581	0.977397	0.784545
O33	O	-0.936460	0.477369	0.367671
O34	O	-0.436460	0.977369	0.867671
C35	C	-0.802249	0.326070	0.326118
C36	C	-0.302249	0.826070	0.826118
C37	C	-0.727017	0.326079	0.326123
C38	C	-0.227017	0.826079	0.826123
C39	C	-0.978025	0.501942	0.326117
C40	C	-0.478025	1.001942	0.826117
C41	C	-0.978053	0.577174	0.326128
C42	C	-0.478053	1.077174	0.826128
C43	C	-0.691676	0.369424	0.369332
C44	C	-0.191676	0.869424	0.869332
C45	C	-0.620987	0.369424	0.369339
C46	C	-0.120987	0.869424	0.869339
C47	C	-0.585642	0.326082	0.326134
C48	C	-0.085642	0.826082	0.826134
C49	C	-0.620988	0.282733	0.282923
C50	C	-0.120988	0.782733	0.782923
C51	C	-0.691675	0.282730	0.282919
C52	C	-0.191675	0.782730	0.782919
C53	C	-0.335915	0.282743	0.282938
C54	C	0.164085	0.782743	0.782938
C55	C	-0.265222	0.282750	0.282944
C56	C	0.234778	0.782750	0.782944
C57	C	-0.265227	0.369437	0.369358
C58	C	0.234773	0.869437	0.869358
C59	C	-0.335914	0.369434	0.369354
C60	C	0.164086	0.869434	0.869354
C61	C	-0.371254	0.326082	0.326146
C62	C	0.128746	0.826082	0.826146
C63	C	-0.447903	0.326082	0.326139
C64	C	0.052097	0.826082	0.826139
C65	C	-0.508994	0.326085	0.326137
C66	C	-0.008994	0.826085	0.826137
C67	C	-0.154648	0.326098	0.326165
C68	C	0.345352	0.826098	0.826165
C69	C	-0.229880	0.326092	0.326157
C70	C	0.270120	0.826092	0.826157
C71	C	-1.021375	0.612510	0.282891
C72	C	-0.521375	1.112510	0.782891
C73	C	-1.021402	0.683199	0.282908
C74	C	-0.521402	1.183199	0.782908
C75	C	-0.978103	0.718550	0.326160
C76	C	-0.478103	1.218550	0.826160
C77	C	-0.934779	0.683208	0.369402
C78	C	-0.434779	1.183208	0.869402
C79	C	-0.934755	0.612521	0.369388
C80	C	-0.434755	1.112521	0.869388
C81	C	-0.934872	0.968282	0.369461
C82	C	-0.434872	1.468282	0.869461
C83	C	-0.934897	1.038974	0.369471
C84	C	-0.434897	1.538974	0.869471
C85	C	-1.021518	1.038959	0.282981
C86	C	-0.521518	1.538959	0.782981
C87	C	-1.021495	0.968272	0.282967
C88	C	-0.521495	1.468272	0.782967
C89	C	-0.978174	0.932937	0.326212
C90	C	-0.478174	1.432937	0.826212
C91	C	-0.978146	0.856289	0.326193
C92	C	-0.478146	1.356289	0.826193
C93	C	-0.978127	0.795197	0.326175
C94	C	-0.478127	1.295197	0.826175
C95	C	-0.978143	0.326043	0.502687
C96	C	-0.478143	0.826043	1.002687
C97	C	-0.978159	0.326025	0.577919
C98	C	-0.478159	0.826025	1.077919
C99	C	-0.978198	1.149543	0.326194
C100	C	-0.478198	1.649543	0.826194
C101	C	-0.978223	1.074311	0.326236
C102	C	-0.478223	1.574311	0.826236
C103	C	-0.978106	0.326080	0.150288
C104	C	-0.478106	0.826080	0.650288
C105	C	-0.978221	0.325907	0.075057
C106	C	-0.478221	0.825907	0.575057
C107	C	-1.021475	0.282737	0.613281
C108	C	-0.521475	0.782737	1.113281
C109	C	-1.021482	0.282717	0.683970
C110	C	-0.521482	0.782717	1.183970
C111	C	-0.978176	0.325990	0.719295
C112	C	-0.478176	0.825990	1.219295
C113	C	-0.934856	0.369280	0.683928
C114	C	-0.434856	0.869280	1.183928
C115	C	-0.934846	0.369296	0.613241
C116	C	-0.434846	0.869296	1.113241
C117	C	-0.934894	0.369217	0.969001
C118	C	-0.434894	0.869217	1.469001
C119	C	-0.934908	0.369200	1.039693
C120	C	-0.434908	0.869200	1.539693
C121	C	-1.021530	0.282638	1.039730
C122	C	-0.521530	0.782638	1.539730
C123	C	-1.021520	0.282654	0.969043
C124	C	-0.521520	0.782654	1.469043
C125	C	-0.978197	0.325942	0.933682
C126	C	-0.478197	0.825942	1.433682
C127	C	-0.978189	0.325961	0.857034
C128	C	-0.478189	0.825961	1.357034
C129	C	-0.978187	0.325974	0.795942
C130	C	-0.478187	0.825974	1.295942
H131	H	-0.720449	0.404720	0.404512
H132	H	-0.220449	0.904720	0.904512
C133	C	-1.068459	0.574254	0.235903
C134	C	-0.568459	1.074254	0.735903
C135	C	-1.106417	0.620334	0.198054
C136	C	-0.606417	1.120334	0.698054
C137	C	-1.149806	0.585120	0.154768
C138	C	-0.649806	1.085120	0.654768
H139	H	-1.042651	0.546718	0.206321
H140	H	-0.542651	1.046718	0.706321
H141	H	-1.097963	0.546652	0.261801
H142	H	-0.597963	1.046652	0.761801
H143	H	-1.076917	0.647925	0.172158
H144	H	-0.576917	1.147925	0.672158
H145	H	-1.132239	0.647872	0.227619
H146	H	-0.632239	1.147872	0.727619
H147	H	-1.179310	0.557518	0.180667
H148	H	-0.679310	1.057518	0.680667
H149	H	-1.123993	0.557585	0.125191
H150	H	-0.623993	1.057585	0.625191
H151	H	-1.175570	0.616379	0.129087
H152	H	-0.675570	1.116379	0.629087
C153	C	-0.730015	0.235758	0.235890
C154	C	-0.230015	0.735758	0.735890
C155	C	-0.712800	0.250422	0.168895
C156	C	-0.212800	0.750422	0.668895
C157	C	-0.748112	0.207169	0.125553
C158	C	-0.248112	0.707169	0.625553
H159	H	-0.718484	0.190269	0.245786
H160	H	-0.218484	0.690269	0.745786
H161	H	-0.777181	0.241970	0.242031
H162	H	-0.277181	0.741970	0.742031
H163	H	-0.665644	0.244205	0.162757
H164	H	-0.165644	0.744205	0.662757
H165	H	-0.724332	0.295903	0.158978
H166	H	-0.224332	0.795903	0.658978
H167	H	-0.795278	0.213381	0.131694
H168	H	-0.295278	0.713381	0.631694
H169	H	-0.736578	0.161683	0.135455
H170	H	-0.236578	0.661683	0.635455
H171	H	-0.736442	0.217117	0.080092
H172	H	-0.236442	0.717117	0.580092
H173	H	-0.236444	0.404733	0.404543
H174	H	0.263556	0.904733	0.904543
C175	C	-1.068523	0.721685	0.236149
C176	C	-0.568523	1.221685	0.736149
C177	C	-1.059344	0.791156	0.245482
C178	C	-0.559344	1.291156	0.745482
C179	C	-1.102800	0.826630	0.202476
C180	C	-0.602800	1.326630	0.702476
H181	H	-1.058790	0.710283	0.190594
H182	H	-0.558790	1.210283	0.690594
H183	H	-1.113966	0.710034	0.246209
H184	H	-0.613966	1.210034	0.746209
H185	H	-1.013912	0.802803	0.235417
H186	H	-0.513912	1.302803	0.735417
H187	H	-1.069082	0.802579	0.291028
H188	H	-0.569082	1.302579	0.791028
H189	H	-1.148243	0.814979	0.212536
H190	H	-0.648243	1.314979	0.712536
H191	H	-1.093064	0.815222	0.156923
H192	H	-0.593064	1.315222	0.656923
H193	H	-1.096583	0.873770	0.208807
H194	H	-0.596583	1.373770	0.708807
C195	C	-1.068674	0.235716	1.078089
C196	C	-0.568674	0.735716	1.578089
C197	C	-1.135632	0.250479	1.060920
C198	C	-0.635632	0.750479	1.560920
C199	C	-1.179080	0.207277	1.096247
C200	C	-0.679080	0.707277	1.596247
H201	H	-1.058884	0.190216	1.066540
H202	H	-0.558884	0.690216	1.566540
H203	H	-1.062524	0.241906	1.125253
H204	H	-0.562524	0.741906	1.625253
H205	H	-1.141780	0.244284	1.013766
H206	H	-0.641780	0.744284	1.513766
H207	H	-1.145444	0.295971	1.072471
H208	H	-0.645444	0.795971	1.572471
H209	H	-1.172930	0.213467	1.143411
H210	H	-0.672930	0.713467	1.643411
H211	H	-1.169284	0.161780	1.084695
H212	H	-0.669284	0.661780	1.584695
H213	H	-1.224516	0.217292	1.084607
H214	H	-0.724516	0.717292	1.584607
C215	C	-1.068581	0.930014	0.235983
C216	C	-0.568581	1.430014	0.735983
C217	C	-1.106542	0.976090	0.198133
C218	C	-0.606542	1.476090	0.698133
C219	C	-1.149933	0.940873	0.154853
C220	C	-0.649933	1.440873	0.654853
H221	H	-1.042775	0.902476	0.206401
H222	H	-0.542775	1.402476	0.706401
H223	H	-1.098083	0.902413	0.261885
H224	H	-0.598083	1.402413	0.761885
H225	H	-1.077043	1.003679	0.172233
H226	H	-0.577043	1.503679	0.672233
H227	H	-1.132362	1.003630	0.227697
H228	H	-0.632362	1.503630	0.727697
H229	H	-1.179435	0.913272	0.180755
H230	H	-0.679435	1.413272	0.680755
H231	H	-1.124122	0.913336	0.125275
H232	H	-0.624122	1.413336	0.625275
H233	H	-1.175699	0.972130	0.129171
H234	H	-0.675699	1.472130	0.629171
C235	C	-0.374325	0.416572	0.416153
C236	C	0.125675	0.916572	0.916153
C237	C	-0.414861	0.459914	0.377751
C238	C	0.085139	0.959914	0.877751
C239	C	-0.450248	0.503350	0.420841
C240	C	0.049752	1.003350	0.920841
H241	H	-0.401978	0.390792	0.445700
H242	H	0.098022	0.890792	0.945700
H243	H	-0.343175	0.442426	0.441879
H244	H	0.156825	0.942426	0.941879
H245	H	-0.446008	0.434063	0.352037
H246	H	0.053992	0.934063	0.852037
H247	H	-0.387226	0.485709	0.348206
H248	H	0.112774	0.985709	0.848206
H249	H	-0.419097	0.529204	0.446567
H250	H	0.080903	1.029204	0.946567
H251	H	-0.477896	0.477566	0.450386
H252	H	0.022104	0.977566	0.950386
H253	H	-0.477751	0.532768	0.394792
H254	H	0.022249	1.032768	0.894792
C255	C	-1.068422	0.235621	0.930611
C256	C	-0.568422	0.735621	1.430611
C257	C	-1.030106	0.192258	0.890026
C258	C	-0.530106	0.692258	1.390026
C259	C	-1.073285	0.148920	0.854610
C260	C	-0.573285	0.648920	1.354610
H261	H	-1.094230	0.209771	0.961723
H262	H	-0.594230	0.709771	1.461723
H263	H	-1.097889	0.261492	0.902992
H264	H	-0.597889	0.761492	1.402992
H265	H	-1.000650	0.166389	0.917643
H266	H	-0.500650	0.666389	1.417643
H267	H	-1.004299	0.218089	0.858902
H268	H	-0.504299	0.718089	1.358902
H269	H	-1.102753	0.174791	0.826991
H270	H	-0.602753	0.674791	1.326991
H271	H	-1.099091	0.123075	0.885726
H272	H	-0.599091	0.623075	1.385726
H273	H	-1.047295	0.119497	0.827064
H274	H	-0.547295	0.619497	1.327064
H275	H	-0.899641	0.404439	1.068453
H276	H	-0.399641	0.904439	1.568453
C277	C	-0.887832	0.574116	0.416414
C278	C	-0.387832	1.074116	0.916414
C279	C	-0.926123	0.533490	0.459835
C280	C	-0.426123	1.033490	0.959835
C281	C	-0.882923	0.498108	0.503175
C282	C	-0.382923	0.998108	1.003175
H283	H	-0.858334	0.546525	0.390569
H284	H	-0.358334	1.046525	0.890569
H285	H	-0.862058	0.605269	0.442216
H286	H	-0.362058	1.105269	0.942216
H287	H	-0.951885	0.502340	0.434036
H288	H	-0.451885	1.002340	0.934036
H289	H	-0.955619	0.561064	0.485696
H290	H	-0.455619	1.061064	0.985696
H291	H	-0.857149	0.529261	0.528977
H292	H	-0.357149	1.029261	1.028977
H293	H	-0.853427	0.470521	0.477324
H294	H	-0.353427	0.970521	0.977324
H295	H	-0.908897	0.470544	0.532645
H296	H	-0.408897	0.970544	1.032645
C297	C	-0.887934	0.416324	0.930659
C298	C	-0.387934	0.916324	1.430659
C299	C	-0.902639	0.483294	0.947826
C300	C	-0.402639	0.983294	1.447826
C301	C	-0.859392	0.526707	0.912513
C302	C	-0.359392	1.026707	1.412513
H303	H	-0.842445	0.406491	0.942220
H304	H	-0.342445	0.906491	1.442220
H305	H	-0.894122	0.410187	0.883493
H306	H	-0.394122	0.910187	1.383493
H307	H	-0.896445	0.489428	0.994982
H308	H	-0.396445	0.989428	1.494982
H309	H	-0.948119	0.493148	0.936263
H310	H	-0.448119	0.993148	1.436263
H311	H	-0.865579	0.520569	0.865346
H312	H	-0.365579	1.020569	1.365346
H313	H	-0.813905	0.516867	0.924076
H314	H	-0.313905	1.016867	1.424076
H315	H	-0.869367	0.572151	0.924151
H316	H	-0.369367	1.072151	1.424151
H317	H	-1.056795	1.067737	0.247772
H318	H	-0.556795	1.567737	0.747772
H319	H	-0.592204	0.247440	0.247747
H320	H	-0.092204	0.747440	0.747747
H321	H	-0.899593	0.404511	0.712695
H322	H	-0.399593	0.904511	1.212695
C323	C	-0.887795	0.929834	0.416293
C324	C	-0.387795	1.429834	0.916293
C325	C	-0.844436	0.889299	0.377918
C326	C	-0.344436	1.389299	0.877918
C327	C	-0.801064	0.853859	0.421037
C328	C	-0.301064	1.353859	0.921037
H329	H	-0.861943	0.960932	0.442068
H330	H	-0.361943	1.460932	0.942068
H331	H	-0.913641	0.902179	0.445795
H332	H	-0.413641	1.402179	0.945795
H333	H	-0.818593	0.916951	0.348428
H334	H	-0.318593	1.416951	0.848428
H335	H	-0.870269	0.858188	0.352144
H336	H	-0.370269	1.358188	0.852144
H337	H	-0.826910	0.826205	0.450538
H338	H	-0.326910	1.326205	0.950538
H339	H	-0.775217	0.884962	0.446810
H340	H	-0.275217	1.384962	0.946810
H341	H	-0.771644	0.826348	0.395006
H342	H	-0.271644	1.326348	0.895006
H343	H	-1.056755	0.247469	0.712759
H344	H	-0.556755	0.747469	1.212759
H345	H	-0.899638	1.067755	0.404696
H346	H	-0.399638	1.567755	0.904696
H347	H	-0.592215	0.404720	0.404524
H348	H	-0.092215	0.904720	0.904524
C349	C	-0.226967	0.235613	0.236010
C350	C	0.273033	0.735613	0.736010
C351	C	-0.273045	0.197632	0.198183
C352	C	0.226955	0.697632	0.698183
C353	C	-0.237830	0.154199	0.154950
C354	C	0.262170	0.654199	0.654950
H355	H	-0.199367	0.261390	0.206413
H356	H	0.300633	0.761390	0.706413
H357	H	-0.199429	0.206125	0.261946
H358	H	0.300571	0.706125	0.761946
H359	H	-0.300572	0.227116	0.172249
H360	H	0.199428	0.727116	0.672249
H361	H	-0.300647	0.171841	0.227763
H362	H	0.199353	0.671841	0.727763
H363	H	-0.210291	0.124712	0.180886
H364	H	0.289709	0.624712	0.680886
H365	H	-0.210231	0.179982	0.125357
H366	H	0.289769	0.679982	0.625357
H367	H	-0.269088	0.128420	0.129283
H368	H	0.230912	0.628420	0.629283
H369	H	-0.899527	0.711997	0.404621
H370	H	-0.399527	1.211997	0.904621
C371	C	-1.068520	0.235679	0.575054
C372	C	-0.568520	0.735679	1.075054
C373	C	-1.106441	0.197752	0.621156
C374	C	-0.606441	0.697752	1.121156
C375	C	-1.149779	0.154386	0.585968
C376	C	-0.649779	0.654386	1.085968
H377	H	-1.098054	0.261503	0.547476
H378	H	-0.598054	0.761503	1.047476
H379	H	-1.042655	0.206155	0.547495
H380	H	-0.542655	0.706155	1.047495
H381	H	-1.132304	0.227272	0.648703
H382	H	-0.632304	0.727272	1.148703
H383	H	-1.076925	0.171914	0.648735
H384	H	-0.576925	0.671914	1.148735
H385	H	-1.123914	0.124862	0.558409
H386	H	-0.623914	0.624862	1.058409
H387	H	-1.179308	0.180215	0.558392
H388	H	-0.679308	0.680215	1.058392
H389	H	-1.175509	0.128643	0.617243
H390	H	-0.675509	0.628643	1.117243
H391	H	-0.364680	0.247448	0.247750
H392	H	0.135320	0.747448	0.747750
H393	H	-0.899567	0.404539	0.584450
H394	H	-0.399567	0.904539	1.084450
