data_functionalizedCrystal
_audit_creation_method	'MofGen! by Chris Wilmer'
_symmetry_space_group_name_H-M	'P1'
_symmetry_Int_Tables_number	1
_symmetry_cell_setting	triclinic
loop_
_symmetry_equiv_pos_as_xyz
  x,y,z
_cell_length_a	12.837943
_cell_length_b	9.730223
_cell_length_c	10.654550
_cell_angle_alpha	89.995747
_cell_angle_beta	89.656935
_cell_angle_gamma	89.997877
loop_
_atom_site_label
_atom_site_type_symbol
_atom_site_fract_x
_atom_site_fract_y
_atom_site_fract_z
O1	O	1.377801	-0.114265	0.326750
O2	O	1.075880	-0.114273	0.310609
O3	O	1.233782	-0.114260	0.136698
O4	O	1.219899	-0.114278	0.500662
O5	O	1.233772	0.114320	0.136692
O6	O	1.075869	0.114307	0.310603
O7	O	1.377791	0.114315	0.326744
Zn8	Zn	1.226829	0.150603	0.318672
Zn9	Zn	1.226842	-0.150561	0.318681
O10	O	1.219888	0.114302	0.500655
C11	C	1.037215	0.000016	0.305153
C12	C	0.922021	0.000013	0.288891
N13	N	1.226827	0.356139	0.318667
N14	N	1.226852	-0.356098	0.318677
C15	C	0.682468	0.000023	0.484395
C16	C	0.574232	0.000021	0.469121
C17	C	0.597312	0.000018	0.243070
C18	C	0.705547	0.000019	0.258344
C19	C	0.748121	0.000020	0.379010
C20	C	0.856359	0.000012	0.394284
C21	C	0.879436	0.000018	0.168233
C22	C	0.771201	0.000016	0.152959
C23	C	1.416456	0.000023	0.332200
C24	C	1.531650	0.000017	0.348462
C25	C	1.232758	0.000029	0.089786
C26	C	1.229708	0.000027	-0.049990
C27	C	1.296770	0.428071	0.241698
C28	C	1.296781	0.571954	0.241699
C29	C	1.156901	0.571961	0.395650
C30	C	1.156886	0.428080	0.395641
C31	C	1.322678	0.000029	-0.119331
C32	C	1.319806	0.000012	-0.250665
C33	C	1.130985	-0.000003	-0.243307
C34	C	1.133858	0.000004	-0.111975
C35	C	1.220913	0.000010	0.547568
C36	C	1.223963	0.000003	0.687344
H37	H	0.891020	0.000015	0.492536
F38	F	0.504362	0.000029	0.581287
F39	F	1.034901	-0.000008	-0.038173
F40	F	0.949318	-0.000002	0.056068
F41	F	0.551983	0.000033	0.114658
F42	F	0.727781	0.000007	0.612816
F43	F	0.725878	0.000020	0.024544
H44	H	1.052948	-0.000019	-0.293791
H45	H	1.353719	0.369500	0.179019
H46	H	1.099958	0.630550	0.458322
F47	F	1.371221	0.648504	0.159776
F48	F	1.424690	0.000051	-0.053367
F49	F	1.082436	0.351519	0.477561
H50	H	1.395513	0.000010	-0.307116
