data_functionalizedCrystal
_audit_creation_method	'MofGen! by Chris Wilmer'
_symmetry_space_group_name_H-M	'P1'
_symmetry_Int_Tables_number	1
_symmetry_cell_setting	triclinic
loop_
_symmetry_equiv_pos_as_xyz
  x,y,z
_cell_length_a	12.837943
_cell_length_b	17.666332
_cell_length_c	12.811415
_cell_angle_alpha	95.437308
_cell_angle_beta	89.411917
_cell_angle_gamma	90.008016
loop_
_atom_site_label
_atom_site_type_symbol
_atom_site_fract_x
_atom_site_fract_y
_atom_site_fract_z
O1	O	1.376641	0.081671	0.272981
O2	O	1.074777	0.080750	0.259496
O3	O	1.233302	0.070771	0.114205
O4	O	1.218117	0.091651	0.418272
O5	O	1.233274	-0.055127	0.114194
O6	O	1.074750	-0.045147	0.259485
O7	O	1.376613	-0.044226	0.272970
Cu8	Cu	1.225679	-0.056182	0.266226
Cu9	Cu	1.225712	0.092706	0.266240
O10	O	1.218089	-0.034247	0.418261
C11	C	1.036123	0.017489	0.254935
C12	C	0.920987	0.016558	0.241349
N13	N	1.225663	-0.160902	0.266217
C14	C	0.680735	0.027763	0.404680
C15	C	0.572554	0.026888	0.391919
C16	C	0.596442	0.013928	0.203068
C17	C	0.704623	0.014803	0.215829
C18	C	0.746766	0.021722	0.316638
C19	C	0.854949	0.022602	0.329398
C20	C	0.878834	0.009637	0.140547
C21	C	0.770653	0.008762	0.127787
C22	C	1.295881	-0.204928	0.201919
C23	C	1.295887	-0.284176	0.201915
C24	C	1.225685	-0.319394	0.266227
C25	C	1.155454	-0.275358	0.330529
C26	C	1.155443	-0.196112	0.330524
N27	N	1.212886	-0.437523	0.357821
N28	N	1.212903	-0.512803	0.357823
C29	C	1.225713	-0.558157	0.266245
N30	N	1.238526	-0.525386	0.174663
N31	N	1.238514	-0.450099	0.174662
C32	C	1.225689	-0.405322	0.266239
C33	C	1.295941	-0.688113	0.201937
C34	C	1.295939	-0.767362	0.201930
C35	C	1.155512	-0.758542	0.330554
C36	C	1.155508	-0.679294	0.330551
C37	C	1.225728	-0.644084	0.266244
C38	C	1.415268	0.019036	0.277531
C39	C	1.530404	0.019972	0.291117
C40	C	1.232436	0.005133	0.075010
C41	C	1.229887	-0.002881	-0.041764
N42	N	1.225736	0.197426	0.266242
C43	C	1.225107	0.119329	-0.261171
C44	C	1.222711	0.111803	-0.370891
C45	C	1.222691	-0.025459	-0.370923
C46	C	1.225087	-0.017933	-0.261204
C47	C	1.226296	0.054464	-0.206332
C48	C	1.228700	0.061989	-0.096611
C49	C	1.228673	-0.075272	-0.096645
C50	C	1.226277	-0.082798	-0.206364
C51	C	1.218954	0.031393	0.457456
C52	C	1.221504	0.039412	0.574230
H53	H	0.889259	0.028235	0.411481
H54	H	1.098293	-0.304036	0.382891
C55	C	1.016641	-0.195355	0.457664
C56	C	1.078262	-0.147713	0.401214
H57	H	0.968999	-0.165472	0.501310
H58	H	0.979154	-0.229528	0.410202
H59	H	1.059982	-0.223366	0.499777
H60	H	1.034921	-0.119706	0.359094
H61	H	1.115751	-0.113527	0.448681
C62	C	1.226499	-0.217719	-0.195375
C63	C	1.224948	-0.162374	-0.266684
H64	H	1.225674	-0.266846	-0.232614
H65	H	1.287835	-0.212060	-0.154547
H66	H	1.167028	-0.211791	-0.150613
H67	H	1.284424	-0.168298	-0.311441
H68	H	1.163605	-0.168035	-0.307530
C69	C	0.646262	0.040493	0.590070
C70	C	0.727066	0.035371	0.515485
H71	H	0.674866	0.045186	0.658476
H72	H	0.604576	0.083783	0.581170
H73	H	0.604553	-0.004025	0.581156
H74	H	0.768771	0.079892	0.524394
H75	H	0.768769	-0.007923	0.524389
C76	C	1.232337	-0.124688	0.071530
C77	C	1.229977	-0.146579	-0.036363
H78	H	1.233138	-0.168710	0.108744
H79	H	1.293134	-0.095395	0.087547
H80	H	1.172326	-0.095123	0.091473
H81	H	1.289992	-0.176139	-0.056306
H82	H	1.169174	-0.175885	-0.052387
H83	H	1.353115	-0.659444	0.149570
H84	H	0.518795	0.031806	0.463613
C85	C	1.014358	0.067826	0.045348
C86	C	0.951418	0.002997	0.043762
H87	H	1.059170	0.063726	-0.014399
H88	H	0.971663	0.111647	0.044302
H89	H	1.054939	0.072063	0.107212
H90	H	0.910831	-0.001237	-0.018098
H91	H	0.994118	-0.040836	0.044799
H92	H	0.736326	0.003120	0.045711
C93	C	0.441208	0.006820	0.099666
C94	C	0.550106	0.006316	0.092266
H95	H	0.412604	0.002123	0.031259
H96	H	0.418579	-0.034561	0.136365
H97	H	0.418588	0.053246	0.136377
H98	H	0.572726	-0.040113	0.055561
H99	H	0.572744	0.047700	0.055551
C100	C	1.093151	-0.553900	0.387661
C101	C	1.078335	-0.630893	0.401244
H102	H	1.045500	-0.524022	0.431302
H103	H	1.162402	-0.539646	0.406024
H104	H	1.081580	-0.545817	0.316443
H105	H	1.089914	-0.638978	0.472460
H106	H	1.009068	-0.645152	0.382888
C107	C	1.356092	-0.803816	0.026279
C108	C	1.373133	-0.815757	0.131248
H109	H	1.403755	-0.833689	-0.017354
H110	H	1.286847	-0.818082	0.007910
H111	H	1.366135	-0.751577	0.017092
H112	H	1.363082	-0.867995	0.140437
H113	H	1.442395	-0.801495	0.149624
C114	C	1.434699	-0.284943	0.074782
C115	C	1.373072	-0.332583	0.131230
H116	H	1.482350	-0.314827	0.031148
H117	H	1.391370	-0.256937	0.032666
H118	H	1.472184	-0.250764	0.122253
H119	H	1.335581	-0.366758	0.083759
H120	H	1.416407	-0.360601	0.173349
C121	C	0.976257	-0.779968	0.374153
C122	C	1.078340	-0.797243	0.401246
H123	H	0.928613	-0.803868	0.417792
H124	H	0.966211	-0.726477	0.383359
H125	H	0.964711	-0.797857	0.302937
H126	H	1.089888	-0.779350	0.472460
H127	H	1.088391	-0.850746	0.392049
H128	H	1.353056	-0.176263	0.149554
H129	H	1.226100	0.178277	-0.216494
H130	H	1.229687	0.120938	-0.051936
H131	H	1.221738	0.164624	-0.415537
H132	H	1.221698	-0.084400	-0.415618
