data_functionalizedCrystal
_audit_creation_method	'MofGen! by Chris Wilmer'
_symmetry_space_group_name_H-M	'P1'
_symmetry_Int_Tables_number	1
_symmetry_cell_setting	triclinic
loop_
_symmetry_equiv_pos_as_xyz
  x,y,z
_cell_length_a	18.101398
_cell_length_b	18.101397
_cell_length_c	16.120256
_cell_angle_alpha	92.870774
_cell_angle_beta	92.872617
_cell_angle_gamma	90.018196
loop_
_atom_site_label
_atom_site_type_symbol
_atom_site_fract_x
_atom_site_fract_y
_atom_site_fract_z
Zn1	Zn	1.110945	-0.316142	-0.471493
Zn2	Zn	1.117141	-0.433702	-0.332075
Zn3	Zn	0.993381	-0.309874	-0.332083
Zn4	Zn	0.987080	-0.439938	-0.471426
O5	O	1.052137	-0.374914	-0.401770
O6	O	1.215398	-0.331750	-0.453024
O7	O	1.105955	-0.412043	-0.215414
O8	O	1.009020	-0.207074	-0.350608
O9	O	1.219951	-0.418121	-0.350594
O10	O	1.095393	-0.211679	-0.453032
O11	O	1.015029	-0.321067	-0.215420
O12	O	0.888914	-0.327115	-0.350543
O13	O	0.998281	-0.428750	-0.588098
O14	O	0.884284	-0.422672	-0.452917
O15	O	1.089284	-0.337797	-0.588147
O16	O	1.099845	-0.538161	-0.350529
O17	O	1.004290	-0.542743	-0.452909
C18	C	0.859728	-0.374890	-0.401724
C19	C	0.777414	-0.374899	-0.401725
C20	C	1.052075	-0.567323	-0.401729
C21	C	1.052116	-0.649638	-0.401740
C22	C	0.626704	-0.374916	-0.401762
C23	C	0.598233	-0.314716	-0.337458
C24	C	0.512606	-0.314510	-0.337669
C25	C	0.478320	-0.374932	-0.401798
C26	C	0.505495	-0.358066	-0.489758
C27	C	0.591158	-0.357624	-0.489365
C28	C	0.596145	-0.452164	-0.378882
C29	C	0.510580	-0.451665	-0.376965
C30	C	0.394459	-0.374943	-0.401823
C31	C	0.710565	-0.374903	-0.401743
C32	C	1.052207	-0.948732	-0.401816
C33	C	1.112176	-0.914485	-0.337228
C34	C	1.112366	-0.828874	-0.337396
C35	C	1.052162	-0.800348	-0.401777
C36	C	1.069360	-0.835318	-0.489655
C37	C	1.069818	-0.920947	-0.489303
C38	C	0.974852	-0.916222	-0.379287
C39	C	0.975328	-0.830484	-0.377325
C40	C	1.052135	-0.716487	-0.401761
C41	C	1.052235	-1.032592	-0.401838
C42	C	1.245297	-0.374939	-0.401816
C43	C	1.327610	-0.374949	-0.401835
C44	C	1.042388	-0.384668	-0.619217
C45	C	1.038234	-0.388825	-0.711880
C46	C	1.052218	-0.181755	-0.401828
C47	C	1.052253	-0.099442	-0.401853
C48	C	1.073800	-0.353219	-0.922848
C49	C	1.030624	-0.396383	-0.881532
C50	C	1.034860	-0.392176	-0.787129
C51	C	1.069566	-0.357425	-1.017260
C52	C	1.061890	-0.365145	-0.185168
C53	C	1.066188	-0.360780	-0.092505
H54	H	0.494487	-0.324567	-0.272459
H55	H	0.619095	-0.257716	-0.352454
N56	N	0.627717	-0.327129	-0.255385
N57	N	0.670061	-0.380485	-0.243324
H58	H	0.690888	-0.389255	-0.185358
N59	N	1.124173	-0.302915	-0.878289
N60	N	1.192081	-0.308266	-0.887958
H61	H	1.227660	-0.272741	-0.856480
N62	N	0.486072	-0.242608	-0.356738
N63	N	0.500187	-0.216055	-0.424293
H64	H	0.481450	-0.165270	-0.437764
N65	N	0.615141	-0.286948	-0.513633
N66	N	0.568619	-0.238291	-0.530740
H67	H	0.585553	-0.188374	-0.547880
N68	N	1.140596	-0.947037	-0.513239
N69	N	1.145359	-0.989413	-0.576380
H70	H	1.195347	-1.007837	-0.593284
H71	H	1.027836	-0.943917	-0.539085
N72	N	1.183664	-0.942280	-0.356124
N73	N	1.209183	-0.931289	-0.425088
H74	H	1.259631	-0.950933	-0.438587
H75	H	0.609679	-0.399797	-0.538936
N76	N	0.477205	-0.411595	-0.551545
N77	N	0.493086	-0.407068	-0.625697
H78	H	0.473105	-0.444872	-0.669335
H79	H	0.930220	-0.938607	-0.426328
N80	N	1.099434	-0.798870	-0.255665
N81	N	1.146630	-0.757552	-0.217857
H82	H	1.137490	-0.736358	-0.160135
N83	N	0.980255	-0.446701	-0.926089
N84	N	0.930934	-0.422770	-0.974681
H85	H	0.895362	-0.458307	-1.006152
N86	N	0.477493	-0.288205	-0.514442
N87	N	0.437525	-0.250722	-0.467406
H88	H	0.417748	-0.201381	-0.484835
N89	N	0.626749	-0.472448	-0.299751
N90	N	0.616426	-0.432219	-0.236102
H91	H	0.638038	-0.446536	-0.180211
H92	H	0.958441	-0.935042	-0.316317
N93	N	0.488690	-0.467718	-0.295762
N94	N	0.449476	-0.422851	-0.256278
H95	H	0.434007	-0.434187	-0.198930
H96	H	1.102043	-0.932181	-0.271873
N97	N	0.958943	-0.801406	-0.296207
N98	N	0.899913	-0.818753	-0.265026
H99	H	0.888340	-0.798211	-0.207736
H100	H	1.026846	-0.817186	-0.539072
H101	H	1.125129	-0.814688	-0.509060
N102	N	0.481311	-0.510511	-0.431406
N103	N	0.436001	-0.496792	-0.489658
H104	H	0.415329	-0.538350	-0.528114
N105	N	0.618953	-0.508360	-0.437635
N106	N	0.657543	-0.491692	-0.496127
H107	H	0.673655	-0.531375	-0.537625
H108	H	1.169746	-0.809005	-0.352303
N109	N	0.916666	-0.806115	-0.432019
N110	N	0.930594	-0.765965	-0.490174
H111	H	0.889166	-0.748756	-0.528810
