data_functionalizedCrystal
_audit_creation_method	'MofGen! by Chris Wilmer'
_symmetry_space_group_name_H-M	'P1'
_symmetry_Int_Tables_number	1
_symmetry_cell_setting	triclinic
loop_
_symmetry_equiv_pos_as_xyz
  x,y,z
_cell_length_a	10.686220
_cell_length_b	13.032721
_cell_length_c	13.032328
_cell_angle_alpha	103.288501
_cell_angle_beta	100.919786
_cell_angle_gamma	100.973619
loop_
_atom_site_label
_atom_site_type_symbol
_atom_site_fract_x
_atom_site_fract_y
_atom_site_fract_z
Zn1	Zn	1.792164	-0.368522	-0.523920
Zn2	Zn	2.292164	0.131478	-0.023920
Zn3	Zn	1.792024	-0.523620	-0.368880
Zn4	Zn	2.292024	-0.023620	0.131120
Zn5	Zn	1.607733	-0.359455	-0.359748
Zn6	Zn	2.107733	0.140545	0.140252
Zn7	Zn	1.544911	-0.564091	-0.564383
Zn8	Zn	2.044911	-0.064091	-0.064383
O9	O	1.684208	-0.453922	-0.454233
O10	O	2.184208	0.046078	0.045767
O11	O	1.972747	-0.375954	-0.490242
O12	O	2.472747	0.124046	0.009758
O13	O	1.793810	-0.481111	-0.217143
O14	O	2.293810	0.018889	0.282857
O15	O	1.658548	-0.210108	-0.360771
O16	O	2.158548	0.289892	0.139229
O17	O	1.972644	-0.489903	-0.376334
O18	O	2.472644	0.010097	0.123666
O19	O	1.794049	-0.216770	-0.481387
O20	O	2.294049	0.283230	0.018613
O21	O	1.658412	-0.360500	-0.210434
O22	O	2.158412	0.139500	0.289566
O23	O	1.418798	-0.399743	-0.400006
O24	O	1.918798	0.100257	0.099994
O25	O	1.551477	-0.558880	-0.709541
O26	O	2.051477	-0.058880	-0.209541
O27	O	1.372643	-0.550088	-0.550350
O28	O	1.872643	-0.050088	-0.050350
O29	O	1.733133	-0.415197	-0.679813
O30	O	2.233133	0.084803	-0.179813
O31	O	1.732894	-0.679538	-0.415569
O32	O	2.232894	-0.179538	0.084431
O33	O	1.551341	-0.709272	-0.559205
O34	O	2.051341	-0.209272	-0.059205
C35	C	1.348892	-0.478324	-0.478579
C36	C	1.848892	0.021676	0.021421
C37	C	1.205433	-0.488793	-0.489023
C38	C	1.705433	0.011207	0.010977
C39	C	1.635316	-0.733441	-0.492790
C40	C	2.135316	-0.233441	0.007210
C41	C	1.614512	-0.853017	-0.509312
C42	C	2.114512	-0.353017	-0.009312
C43	C	1.695126	-0.891583	-0.445653
C44	C	2.195126	-0.391583	0.054347
C45	C	1.673626	-1.015171	-0.462728
C46	C	2.173626	-0.515171	0.037272
C47	C	2.020833	-0.429426	-0.429793
C48	C	2.520833	0.070574	0.070207
C49	C	2.164283	-0.418987	-0.419378
C50	C	2.664283	0.081013	0.080622
C51	C	1.635313	-0.492564	-0.734798
C52	C	2.135313	0.007436	-0.234798
C53	C	1.614477	-0.509031	-0.854359
C54	C	2.114477	-0.009031	-0.354359
C55	C	1.733322	-0.173312	-0.415547
C56	C	2.233322	0.326688	0.084453
C57	C	1.754251	-0.053732	-0.399061
C58	C	2.254251	0.446268	0.100939
C59	C	1.673549	-0.462304	-1.016525
C60	C	2.173549	0.037696	-0.516525
C61	C	1.695079	-0.445277	-0.892953
C62	C	2.195079	0.054723	-0.392953
C63	C	1.733001	-0.415347	-0.174743
C64	C	2.233001	0.084653	0.325257
C65	C	1.754140	-0.398559	-0.055123
C66	C	2.254140	0.101441	0.444877
H67	H	1.238802	-0.351215	-0.351761
H68	H	1.738802	0.148785	0.148239
H69	H	1.130906	-0.556575	-0.556638
H70	H	1.630906	-0.056575	-0.056638
F71	F	1.806150	-0.815154	-0.357899
F72	F	2.306150	-0.315154	0.142101
H73	H	1.588690	-1.073646	-0.529878
H74	H	2.088690	-0.573646	-0.029878
F75	F	1.865154	-0.310741	-0.978745
F76	F	2.365154	0.189259	-0.478745
H77	H	1.839196	-0.995259	-0.331919
H78	H	2.339196	-0.495259	0.168081
F79	F	1.503500	-0.929447	-0.597077
F80	F	2.003500	-0.429447	-0.097077
H81	H	1.588610	-0.529482	-1.074963
H82	H	2.088610	-0.029482	-0.574963
H83	H	1.780016	-0.378087	-0.834517
H84	H	2.280016	0.121913	-0.334517
H85	H	1.529523	-0.576207	-0.912792
H86	H	2.029523	-0.076207	-0.412792
