data_functionalizedCrystal
_audit_creation_method	'MofGen! by Chris Wilmer'
_symmetry_space_group_name_H-M	'P1'
_symmetry_Int_Tables_number	1
_symmetry_cell_setting	triclinic
loop_
_symmetry_equiv_pos_as_xyz
  x,y,z
_cell_length_a	10.489711
_cell_length_b	10.489716
_cell_length_c	9.730223
_cell_angle_alpha	89.999635
_cell_angle_beta	89.995178
_cell_angle_gamma	84.528072
loop_
_atom_site_label
_atom_site_type_symbol
_atom_site_fract_x
_atom_site_fract_y
_atom_site_fract_z
O1	O	1.694058	0.179789	-0.114326
O2	O	1.322856	0.196721	-0.114317
O3	O	1.516920	0.002654	-0.114327
O4	O	1.499994	0.373856	-0.114316
O5	O	1.516907	0.002649	0.114253
O6	O	1.322843	0.196716	0.114263
O7	O	1.694045	0.179783	0.114254
Zn8	Zn	1.508442	0.188249	0.150550
Zn9	Zn	1.508459	0.188256	-0.150613
O10	O	1.499981	0.373850	0.114264
C11	C	1.275317	0.195448	-0.000026
C12	C	1.133686	0.191646	-0.000023
C13	C	0.951289	0.308352	-0.000035
C14	C	1.043446	0.250058	-0.112737
C15	C	1.043407	0.250022	0.112625
C16	C	0.973506	0.126514	-0.112847
C17	C	0.973457	0.126495	0.112616
C18	C	1.065587	0.068111	-0.000112
C19	C	1.515642	-0.044880	-0.000041
C20	C	1.511837	-0.186511	-0.000053
C21	C	1.630843	-0.284198	-0.000044
C22	C	1.567964	-0.361549	-0.112740
C23	C	1.567924	-0.361518	0.112622
C24	C	1.449007	-0.261997	-0.112843
C25	C	1.448985	-0.261961	0.112620
C26	C	1.386018	-0.339263	-0.000104
C27	C	1.741584	0.181057	-0.000040
C28	C	1.883215	0.184859	-0.000052
C29	C	1.501259	0.421385	-0.000025
C30	C	1.505064	0.563016	-0.000022
N31	N	1.508440	0.188243	0.356087
N32	N	1.508471	0.188251	-0.356150
C33	C	1.594401	0.102347	0.428008
C34	C	1.594414	0.102348	0.571891
C35	C	1.422500	0.274152	0.571919
C36	C	1.422483	0.274144	0.428038
H37	H	0.942434	0.074283	0.207900
C38	C	1.770679	-0.250862	-0.000194
C39	C	1.820713	-0.172956	0.119048
C40	C	1.960545	-0.139618	0.118890
C41	C	2.050341	-0.184185	-0.000510
C42	C	2.000308	-0.262095	-0.119761
C43	C	1.860477	-0.295433	-0.119603
H44	H	1.754239	-0.139961	0.207443
H45	H	1.997582	-0.081944	0.207168
H46	H	2.153853	-0.159506	-0.000627
H47	H	2.066782	-0.295090	-0.208156
H48	H	1.823439	-0.353108	-0.207881
H49	H	1.352517	0.344092	0.630516
C50	C	1.381173	-0.203149	0.241340
C51	C	1.239231	-0.221226	0.267495
C52	C	1.171432	-0.162411	0.396226
C53	C	1.245573	-0.085519	0.498804
C54	C	1.387522	-0.067438	0.472652
C55	C	1.455322	-0.126253	0.343920
H56	H	1.184340	-0.278149	0.191558
H57	H	1.066351	-0.175796	0.415585
H58	H	1.195383	-0.041980	0.594099
H59	H	1.442413	-0.010515	0.548588
H60	H	1.560402	-0.112868	0.324561
H61	H	0.901590	0.409854	-0.000144
H62	H	1.352477	0.344092	0.369476
H63	H	1.664391	0.032400	0.369429
H64	H	1.074442	0.302317	-0.208011
H65	H	0.942707	0.074313	-0.208239
H66	H	1.115053	-0.033485	-0.000172
H67	H	1.074353	0.302293	0.207907
C68	C	1.635803	-0.420247	0.241342
C69	C	1.695918	-0.333366	0.345819
C70	C	1.763807	-0.392092	0.474531
C71	C	1.771582	-0.537699	0.498766
C72	C	1.711465	-0.624589	0.394286
C73	C	1.643575	-0.565863	0.265574
H74	H	1.690165	-0.225571	0.327881
H75	H	1.808310	-0.327770	0.551874
H76	H	1.821837	-0.581172	0.594047
H77	H	1.717218	-0.732384	0.412224
H78	H	1.599073	-0.630186	0.188231
C79	C	1.246076	-0.372267	-0.000175
C80	C	1.156304	-0.327438	-0.119488
C81	C	1.016365	-0.360446	-0.119567
C82	C	0.966199	-0.438283	-0.000333
C83	C	1.055972	-0.483116	0.118988
C84	C	1.195911	-0.450109	0.119067
H85	H	1.193439	-0.269815	-0.207759
H86	H	0.949909	-0.327257	-0.207897
H87	H	0.862608	-0.462717	-0.000391
H88	H	1.018837	-0.540740	0.207260
H89	H	1.262367	-0.483298	0.207397
H90	H	1.664410	0.032402	0.630446
H91	H	1.618206	-0.405047	-0.208022
H92	H	1.398803	-0.218685	-0.208225
