data_functionalizedCrystal
_audit_creation_method	'MofGen! by Chris Wilmer'
_symmetry_space_group_name_H-M	'P1'
_symmetry_Int_Tables_number	1
_symmetry_cell_setting	triclinic
loop_
_symmetry_equiv_pos_as_xyz
  x,y,z
_cell_length_a	17.038272
_cell_length_b	15.995350
_cell_length_c	14.472310
_cell_angle_alpha	89.998838
_cell_angle_beta	89.992377
_cell_angle_gamma	92.698035
loop_
_atom_site_label
_atom_site_type_symbol
_atom_site_fract_x
_atom_site_fract_y
_atom_site_fract_z
O1	O	1.037422	-0.181818	-0.076718
O2	O	0.809790	-0.178931	-0.076745
O3	O	0.929828	-0.058930	-0.076730
O4	O	0.917383	-0.301819	-0.076733
O5	O	0.929797	-0.058936	0.076952
O6	O	0.809759	-0.178937	0.076937
O7	O	1.037391	-0.181824	0.076964
Cu8	Cu	0.923572	-0.180381	0.090983
Cu9	Cu	0.923609	-0.180374	-0.090764
O10	O	0.917353	-0.301825	0.076949
C11	C	0.780646	-0.176308	0.000092
C12	C	0.693851	-0.168474	0.000082
C13	C	0.929298	-0.027702	0.000109
C14	C	0.927756	0.065359	0.000104
C15	C	0.917882	-0.333053	0.000108
C16	C	0.919425	-0.426114	0.000107
C17	C	0.643754	-0.240402	0.000082
C18	C	0.562202	-0.233036	0.000094
C19	C	0.530748	-0.153741	0.000101
C20	C	0.580851	-0.081807	0.000104
C21	C	0.662402	-0.089174	0.000098
C22	C	0.284984	-0.127714	0.000126
C23	C	0.203426	-0.120353	0.000129
C24	C	0.184783	-0.271583	0.000122
C25	C	0.266336	-0.278943	0.000110
C26	C	0.316432	-0.207009	0.000118
C27	C	0.447389	-0.146209	0.000111
C28	C	0.399790	-0.214541	0.000114
C29	C	1.066535	-0.184447	0.000125
C30	C	1.153330	-0.192281	0.000129
N31	N	0.923552	-0.180385	0.218814
C32	C	0.922217	0.403501	0.000106
C33	C	0.836728	0.362156	-0.000249
C34	C	0.838270	0.265356	0.000098
C35	C	0.924964	0.235744	0.000105
C36	C	0.967113	0.273815	0.087868
C37	C	0.964965	0.370604	0.087941
C38	C	0.966766	0.370842	-0.086824
C39	C	0.966746	0.273898	-0.087984
C40	C	0.926522	0.140936	0.000107
C41	C	0.920662	0.498309	0.000110
N42	N	0.923635	-0.180364	-0.218595
C43	C	0.923608	-0.180371	0.592905
C44	C	0.859162	-0.244335	0.553731
C45	C	0.859311	-0.244596	0.446643
C46	C	0.923579	-0.180378	0.407314
C47	C	1.005158	-0.205271	0.446161
C48	C	1.004796	-0.205732	0.553282
C49	C	0.907202	-0.091363	0.553433
C50	C	0.905331	-0.091815	0.446305
C51	C	0.923569	-0.180380	0.302426
C52	C	0.923624	-0.180371	0.697793
H53	H	0.521416	-0.291608	0.000093
C54	C	0.129677	-0.350706	0.000123
C55	C	0.071051	-0.366437	-0.079673
C56	C	0.015944	-0.445564	-0.079667
C57	C	0.019463	-0.508959	0.000135
C58	C	0.078091	-0.493230	0.079937
C59	C	0.133198	-0.414103	0.079931
H60	H	0.068443	-0.319507	-0.138752
H61	H	-0.027457	-0.457208	-0.138742
H62	H	-0.021330	-0.567534	0.000140
H63	H	0.080699	-0.540160	0.139017
H64	H	0.176599	-0.402459	0.139007
H65	H	0.555235	-0.017242	0.000122
C66	C	1.053155	0.248603	0.092295
C67	C	1.086225	0.193020	0.016087
C68	C	1.172266	0.167806	0.020512
C69	C	1.225238	0.198175	0.101146
C70	C	1.192169	0.253762	0.177361
C71	C	1.106127	0.278976	0.172935
H72	H	1.047011	0.170536	-0.043609
H73	H	1.196746	0.126657	-0.035907
H74	H	1.288931	0.179511	0.104423
H75	H	1.231382	0.276246	0.237056
H76	H	1.081648	0.320125	0.229355
H77	H	0.805138	0.239297	-0.062815
H78	H	0.804890	0.239866	0.063110
H79	H	1.029797	0.398113	-0.087409
H80	H	0.798672	-0.228907	0.420380
C81	C	1.024322	-0.293664	0.587033
C82	C	1.028033	-0.312287	0.691296
C83	C	1.047557	-0.400222	0.725041
C84	C	1.063370	-0.469534	0.654522
C85	C	1.059660	-0.450913	0.550252
C86	C	1.040135	-0.362978	0.516507
H87	H	1.016326	-0.260977	0.743504
H88	H	1.050303	-0.414006	0.802229
H89	H	1.077823	-0.534628	0.679502
H90	H	1.071366	-0.502223	0.498044
H91	H	1.037389	-0.349194	0.439319
C92	C	0.873104	-0.332909	0.590048
C93	C	0.888184	-0.404159	0.521681
C94	C	0.902123	-0.492738	0.557985
C95	C	0.900983	-0.510066	0.662656
C96	C	0.885903	-0.438814	0.731030
C97	C	0.871963	-0.350235	0.694726
H98	H	0.889028	-0.391334	0.444191
H99	H	0.913286	-0.545484	0.507370
H100	H	0.911302	-0.575638	0.689531
H101	H	0.885058	-0.451640	0.808519
H102	H	0.860800	-0.297489	0.745341
C103	C	0.873468	-0.333662	0.412007
C104	C	0.945413	-0.349632	0.351205
C105	C	0.959575	-0.438702	0.316571
C106	C	0.901793	-0.511802	0.342741
C107	C	0.829843	-0.495834	0.403547
C108	C	0.815681	-0.406764	0.438180
H109	H	0.988192	-0.295517	0.331830
H110	H	1.012837	-0.450522	0.271559
H111	H	0.912276	-0.577737	0.317103
H112	H	0.787065	-0.549949	0.422922
H113	H	0.762419	-0.394944	0.483193
C114	C	0.828567	-0.060986	0.589954
C115	C	0.778244	-0.116622	0.656099
C116	C	0.699606	-0.086256	0.692621
C117	C	0.671291	-0.000254	0.662999
C118	C	0.721616	0.055387	0.596850
C119	C	0.800254	0.025021	0.560328
H120	H	0.799204	-0.180290	0.678030
H121	H	0.662353	-0.127445	0.741588
H122	H	0.613079	0.022225	0.690035
H123	H	0.700656	0.119056	0.574919
H124	H	0.837507	0.066211	0.511361
C125	C	0.925121	0.240060	-0.175698
C126	C	0.955056	0.268242	-0.271689
C127	C	0.913403	0.234434	-0.359401
C128	C	0.841814	0.172444	-0.351122
C129	C	0.811876	0.144259	-0.255127
C130	C	0.853529	0.178067	-0.167415
H131	H	1.008053	0.314134	-0.277822
H132	H	0.935565	0.255300	-0.430463
H133	H	0.810980	0.147418	-0.416051
H134	H	0.758879	0.098367	-0.248995
H135	H	0.831367	0.157202	-0.096353
H136	H	0.669358	-0.304973	0.000076
H137	H	0.291940	-0.343514	0.000094
C138	C	0.340078	-0.048586	0.000121
C139	C	0.336544	0.014809	0.079921
C140	C	0.391641	0.093943	0.079913
C141	C	0.450274	0.109682	0.000106
C142	C	0.453811	0.046285	-0.079699
C143	C	0.398713	-0.032848	-0.079692
H144	H	0.293138	0.003159	0.139004
H145	H	0.389022	0.140873	0.138990
H146	H	0.491060	0.168261	0.000100
H147	H	0.497217	0.057935	-0.138783
H148	H	0.401332	-0.079779	-0.138769
H149	H	0.934204	0.391093	0.153541
C150	C	0.824264	-0.066475	0.411998
C151	C	0.808441	-0.058764	0.307657
C152	C	0.727374	-0.033429	0.273338
C153	C	0.662130	-0.015805	0.343360
C154	C	0.677950	-0.023516	0.447707
C155	C	0.759017	-0.048851	0.482026
H156	H	0.856740	-0.071810	0.255817
H157	H	0.715663	-0.027721	0.196093
H158	H	0.602119	0.002950	0.317955
H159	H	0.629651	-0.010469	0.499548
H160	H	0.770728	-0.054559	0.559272
C161	C	1.052156	0.247062	-0.095139
C162	C	1.111148	0.269825	-0.017494
C163	C	1.196561	0.242987	-0.024640
C164	C	1.222981	0.193387	-0.109430
C165	C	1.163988	0.170622	-0.187080
C166	C	1.078575	0.197459	-0.179935
H167	H	1.091591	0.306544	0.045278
H168	H	1.240231	0.259840	0.032842
H169	H	1.286209	0.173520	-0.114720
H170	H	1.183545	0.133902	-0.249853
H171	H	1.034905	0.180607	-0.237417
C172	C	0.927531	0.238301	0.176097
C173	C	0.857022	0.174806	0.168692
C174	C	0.817434	0.139294	0.256918
C175	C	0.848355	0.167276	0.352549
C176	C	0.918868	0.230774	0.359958
C177	C	0.958456	0.266286	0.271732
H178	H	0.834128	0.154089	0.097896
H179	H	0.765235	0.092288	0.251433
H180	H	0.819050	0.140988	0.417859
H181	H	0.941761	0.251491	0.430753
H182	H	1.010654	0.313292	0.277217
H183	H	0.954199	-0.043694	0.578765
H184	H	1.019961	-0.269656	0.419325
H185	H	0.802571	0.383124	-0.063186
C186	C	0.717512	-0.010051	0.000096
C187	C	0.713984	0.053337	0.079902
C188	C	0.769094	0.132461	0.079905
C189	C	0.827732	0.148197	0.000102
C190	C	0.831262	0.084807	-0.079710
C191	C	0.776152	0.005683	-0.079713
H192	H	0.670575	0.041690	0.138982
H193	H	0.766481	0.179387	0.138988
H194	H	0.868528	0.206770	0.000105
H195	H	0.874671	0.096454	-0.138790
H196	H	0.778765	-0.041243	-0.138796
H197	H	0.798327	-0.228820	0.579512
H198	H	1.054250	-0.161292	0.579194
C199	C	0.434388	-0.301764	0.000103
C200	C	0.487887	-0.327629	0.079897
C201	C	0.522494	-0.414852	0.079880
C202	C	0.503601	-0.476210	0.000070
C203	C	0.450099	-0.450347	-0.079730
C204	C	0.415492	-0.363124	-0.079713
H205	H	0.501875	-0.282206	0.138983
H206	H	0.562100	-0.433997	0.138954
H207	H	0.529219	-0.540778	0.000058
H208	H	0.436111	-0.495769	-0.138816
H209	H	0.375886	-0.343979	-0.138787
H210	H	0.421769	-0.081646	0.000142
C211	C	1.071498	-0.144344	0.411742
C212	C	1.052321	-0.071103	0.347809
C213	C	1.118659	-0.010176	0.313388
C214	C	1.204176	-0.022490	0.342900
C215	C	1.223357	-0.095734	0.406836
C216	C	1.157018	-0.156661	0.441257
H217	H	0.989013	-0.061985	0.325959
H218	H	1.104459	0.044044	0.266058
H219	H	1.253283	0.022612	0.317419
H220	H	1.286665	-0.104852	0.428686
H221	H	1.171218	-0.210881	0.488587
H222	H	0.949221	-0.041536	0.419537
H223	H	1.027729	0.398381	0.091928
H224	H	0.177820	-0.055778	0.000134
H225	H	0.802698	0.384171	0.062330
H226	H	0.938829	0.393375	-0.153343
