data_functionalizedCrystal
_audit_creation_method	'MofGen! by Chris Wilmer'
_symmetry_space_group_name_H-M	'P1'
_symmetry_Int_Tables_number	1
_symmetry_cell_setting	triclinic
loop_
_symmetry_equiv_pos_as_xyz
  x,y,z
_cell_length_a	15.298068
_cell_length_b	16.625545
_cell_length_c	15.296720
_cell_angle_alpha	80.355801
_cell_angle_beta	91.645182
_cell_angle_gamma	99.685208
loop_
_atom_site_label
_atom_site_type_symbol
_atom_site_fract_x
_atom_site_fract_y
_atom_site_fract_z
Zn1	Zn	1.253364	-0.239865	0.727359
Zn2	Zn	1.278620	-0.348155	0.580888
Zn3	Zn	1.132245	-0.232030	0.555526
Zn4	Zn	1.106846	-0.393358	0.701911
O5	O	1.192769	-0.303352	0.641421
O6	O	1.379291	-0.238591	0.729194
O7	O	1.280402	-0.310555	0.454963
O8	O	1.148371	-0.120233	0.578357
O9	O	1.397846	-0.318152	0.621582
O10	O	1.237357	-0.125990	0.704602
O11	O	1.172860	-0.225238	0.436329
O12	O	1.006299	-0.269069	0.553680
O13	O	1.105083	-0.395193	0.827848
O14	O	0.987639	-0.387596	0.661228
O15	O	1.212729	-0.282422	0.846545
O16	O	1.255774	-0.466988	0.596906
O17	O	1.129573	-0.500198	0.685821
C18	C	0.965186	-0.332388	0.601941
C19	C	0.867821	-0.344833	0.585072
C20	C	0.554665	-0.214609	0.761988
C21	C	0.646143	-0.202920	0.777843
C22	C	0.701567	-0.238397	0.729651
C23	C	0.665504	-0.285566	0.665603
C24	C	0.574016	-0.297262	0.649752
C25	C	0.720918	-0.321049	0.617415
C26	C	0.684855	-0.368218	0.553367
C27	C	0.593376	-0.379912	0.537518
C28	C	0.537952	-0.344435	0.585710
C29	C	0.812406	-0.309353	0.633266
C30	C	0.831757	-0.392006	0.521030
C31	C	0.740279	-0.403695	0.505175
C32	C	1.192678	-0.512850	0.641377
C33	C	1.192715	-0.602469	0.641401
C34	C	1.192746	-0.675251	0.641425
C35	C	1.192793	-0.766556	0.641453
C36	C	1.192837	-0.839329	0.641472
C37	C	1.192884	-0.930640	0.641499
C38	C	1.421240	-0.274203	0.681056
C39	C	1.518601	-0.261782	0.697946
C40	C	1.153256	-0.344724	0.869864
C41	C	1.136418	-0.362354	0.967212
C42	C	1.192880	-0.093036	0.641489
C43	C	1.192927	-0.003412	0.641518
C44	C	1.232178	-0.262077	0.413876
C45	C	1.249186	-0.244198	0.316558
C46	C	1.313144	-0.177201	1.280561
C47	C	1.328970	-0.160637	1.189098
C48	C	1.280833	-0.211065	1.133622
C49	C	1.216869	-0.278059	1.169618
C50	C	1.201046	-0.294629	1.261091
C51	C	1.168735	-0.328492	1.114152
C52	C	1.104770	-0.395487	1.150148
C53	C	1.088951	-0.412053	1.241611
C54	C	1.137087	-0.361625	1.297087
C55	C	1.184557	-0.311923	1.022679
C56	C	1.072459	-0.429351	1.003209
C57	C	1.056634	-0.445914	1.094672
H58	H	0.776052	-0.228873	0.742561
C59	C	1.298237	-0.192836	1.033009
N60	N	1.311344	-0.179100	0.957224
H61	H	1.352335	-0.136154	1.325738
H62	H	1.381052	-0.106092	1.159797
C63	C	0.986272	-0.519606	1.134279
N64	N	0.933275	-0.575109	1.164112
H65	H	1.124206	-0.375108	1.371565
H66	H	1.033264	-0.470414	0.958040
H67	H	0.675498	-0.164517	0.829993
H68	H	0.841759	-0.270947	0.685414
H69	H	0.509530	-0.185734	0.801224
C70	C	0.437320	-0.357289	0.568272
N71	N	0.361522	-0.366970	0.555140
C72	C	0.892721	-0.431031	0.468014
N73	N	0.938643	-0.460423	0.428086
H74	H	1.036873	-0.466610	1.270917
H75	H	0.564016	-0.418327	0.485373
H76	H	0.710904	-0.442102	0.453028
H77	H	1.236637	-0.257375	0.993381
