data_functionalizedCrystal
_audit_creation_method	'MofGen! by Chris Wilmer'
_symmetry_space_group_name_H-M	'P1'
_symmetry_Int_Tables_number	1
_symmetry_cell_setting	triclinic
loop_
_symmetry_equiv_pos_as_xyz
  x,y,z
_cell_length_a	9.130313
_cell_length_b	16.109301
_cell_length_c	16.109301
_cell_angle_alpha	96.538519
_cell_angle_beta	89.997330
_cell_angle_gamma	89.997515
loop_
_atom_site_label
_atom_site_type_symbol
_atom_site_fract_x
_atom_site_fract_y
_atom_site_fract_z
O1	O	-0.121711	-1.103127	0.106863
O2	O	-0.121735	-0.861065	0.120163
O3	O	-0.121708	-0.988746	-0.007518
O4	O	-0.121739	-0.975447	0.234544
O5	O	0.121891	-0.988744	-0.007514
O6	O	0.121864	-0.861064	0.120166
O7	O	0.121887	-1.103126	0.106867
Cu8	Cu	0.144118	-0.982094	0.113517
Cu9	Cu	-0.143966	-0.982096	0.113513
O10	O	0.121860	-0.975445	0.234548
C11	C	0.000061	-0.830090	0.119626
C12	C	0.000053	-0.737794	0.118011
N13	N	0.346741	-0.982099	0.113519
N14	N	-0.346588	-0.982098	0.113504
C15	C	0.423405	-1.038651	0.057001
C16	C	0.576742	-1.038648	0.056991
C17	C	0.576737	-0.925541	0.170024
C18	C	0.423403	-0.925540	0.170030
C19	C	0.346743	-1.095210	0.000491
C20	C	0.423407	-1.151767	-0.056031
C21	C	0.576744	-1.151764	-0.056041
C22	C	0.653416	-1.095206	0.000471
C23	C	0.000092	-0.988206	-0.038491
C24	C	0.000094	-0.986591	-0.130786
C25	C	0.000088	-1.134101	0.107404
C26	C	0.000087	-1.226397	0.109019
C27	C	0.000060	-0.515522	0.190018
C28	C	0.000070	-0.428801	0.188494
C29	C	0.000083	-0.448676	0.037006
C30	C	0.000084	-0.535394	0.038530
C31	C	0.000065	-0.568815	0.115039
C32	C	0.000074	-0.395376	0.111990
C33	C	0.000084	-0.301350	0.110337
C34	C	0.000058	-0.662847	0.116693
C35	C	0.000078	-1.058599	-0.353059
C36	C	0.000066	-1.057075	-0.439779
C37	C	0.000057	-0.905586	-0.419905
C38	C	0.000058	-0.907111	-0.333186
C39	C	0.000077	-0.983620	-0.299766
C40	C	0.000063	-0.980571	-0.473205
C41	C	0.000050	-0.978918	-0.567231
C42	C	0.000087	-0.985273	-0.205734
C43	C	0.000057	-0.975984	0.265521
C44	C	0.000045	-0.977600	0.357816
H45	H	0.221888	-1.095219	0.000495
O46	O	0.000093	-0.592885	-0.042343
H47	H	0.000086	-0.555079	-0.095801
O48	O	0.000068	-1.141114	-0.317007
H49	H	0.000048	-1.192995	-0.368638
O50	O	0.818803	-1.095204	0.000466
H51	H	0.859234	-1.081934	-0.061651
H52	H	0.000069	-0.385413	0.249550
H53	H	0.000064	-1.118130	-0.483168
O54	O	0.000069	-0.823067	-0.455950
H55	H	0.000089	-0.834602	-0.525205
O56	O	0.000093	-0.412631	-0.045513
H57	H	0.000078	-0.343376	-0.033979
H58	H	0.000053	-0.846050	-0.289792
H59	H	0.000056	-0.542730	0.252317
H60	H	0.639163	-1.197809	-0.102069
O61	O	0.340724	-1.212748	-0.117002
H62	H	0.221221	-1.203249	-0.107503
H63	H	0.639173	-0.879494	0.216035
O64	O	0.340697	-0.864552	0.230991
H65	H	0.419763	-0.825232	0.270295
