data_functionalizedCrystal
_audit_creation_method	'MofGen! by Chris Wilmer'
_symmetry_space_group_name_H-M	'P1'
_symmetry_Int_Tables_number	1
_symmetry_cell_setting	triclinic
loop_
_symmetry_equiv_pos_as_xyz
  x,y,z
_cell_length_a	11.792241
_cell_length_b	10.540539
_cell_length_c	10.868271
_cell_angle_alpha	89.997005
_cell_angle_beta	89.999893
_cell_angle_gamma	84.359454
loop_
_atom_site_label
_atom_site_type_symbol
_atom_site_fract_x
_atom_site_fract_y
_atom_site_fract_z
O1	O	1.507361	0.173992	-0.102197
O2	O	2.007361	0.673992	0.397803
O3	O	1.177067	0.191924	-0.102225
O4	O	1.677067	0.691924	0.397775
O5	O	1.349750	-0.001773	-0.102208
O6	O	1.849750	0.498227	0.397792
O7	O	1.334679	0.367689	-0.102213
O8	O	1.834679	0.867689	0.397787
O9	O	1.349735	-0.001781	0.102436
O10	O	1.849735	0.498219	0.602436
O11	O	1.177053	0.191916	0.102420
O12	O	1.677053	0.691916	0.602420
O13	O	1.507347	0.173984	0.102448
O14	O	2.007347	0.673984	0.602448
Zn15	Zn	1.342198	0.182949	0.134926
Zn16	Zn	1.842198	0.682949	0.634926
Zn17	Zn	1.342216	0.182959	-0.134702
Zn18	Zn	1.842216	0.682959	0.365298
O19	O	1.334664	0.367681	0.102432
O20	O	1.834664	0.867681	0.602432
C21	C	1.134766	0.190793	0.000094
C22	C	1.634766	0.690793	0.500094
C23	C	1.008743	0.187422	0.000083
C24	C	1.508743	0.687422	0.500083
C25	C	0.778015	0.181223	0.000119
C26	C	1.278015	0.681223	0.500119
C27	C	0.906409	0.184667	0.000099
C28	C	1.406409	0.684667	0.500099
C29	C	1.348612	-0.049076	0.000112
C30	C	1.848612	0.450924	0.500112
C31	C	1.345231	-0.190014	0.000105
C32	C	1.845231	0.309986	0.500105
C33	C	1.215660	-0.373018	-0.000366
C34	C	1.715660	0.126982	0.499634
C35	C	1.219087	-0.226411	0.000095
C36	C	1.719087	0.273589	0.500095
C37	C	1.405929	-0.251873	0.116972
C38	C	1.905929	0.248127	0.616972
C39	C	1.401623	-0.398404	0.117070
C40	C	1.901623	0.101596	0.617070
C41	C	1.404205	-0.398922	-0.115649
C42	C	1.904205	0.101078	0.384351
C43	C	1.405367	-0.251943	-0.117194
C44	C	1.905367	0.248057	0.382806
C45	C	1.549648	0.175114	0.000127
C46	C	2.049648	0.675114	0.500127
C47	C	1.675671	0.178486	0.000130
C48	C	2.175671	0.678486	0.500130
C49	C	1.335802	0.414984	0.000109
C50	C	1.835802	0.914984	0.500109
C51	C	1.339183	0.555921	0.000108
C52	C	1.839183	1.055921	0.500108
N53	N	1.342193	0.182941	0.318940
N54	N	1.842193	0.682941	0.818940
N55	N	1.342230	0.182957	-0.318716
N56	N	1.842230	0.682957	0.181284
C57	C	1.342211	0.182956	0.569946
C58	C	1.842211	0.682956	1.069946
C59	C	1.342197	0.182952	0.430268
C60	C	1.842197	0.682952	0.930268
H61	H	1.171327	-0.183649	-0.083680
H62	H	1.671327	0.316351	0.416320
H63	H	1.492344	-0.446668	0.122379
H64	H	1.992344	0.053332	0.622379
H65	H	1.498564	-0.229821	0.121325
H66	H	1.998564	0.270179	0.621325
N67	N	1.149645	-0.410681	-0.111368
N68	N	1.649645	0.089319	0.388632
H69	H	1.190265	-0.387647	-0.188836
H70	H	1.690265	0.112353	0.311164
H71	H	1.143819	-0.505621	-0.109640
H72	H	1.643819	-0.005621	0.390360
N73	N	1.346619	-0.197511	-0.231712
N74	N	1.846619	0.302489	0.268288
H75	H	1.402779	-0.154603	-0.283607
H76	H	1.902779	0.345397	0.216393
H77	H	1.316385	-0.268504	-0.280440
H78	H	1.816385	0.231496	0.219560
N79	N	1.524899	-0.461851	-0.116675
N80	N	2.024899	0.038149	0.383325
H81	H	1.566260	-0.432472	-0.191235
H82	H	2.066260	0.067528	0.308765
H83	H	1.565472	-0.437738	-0.039552
H84	H	2.065472	0.062262	0.460448
N85	N	1.149906	-0.412808	0.110011
N86	N	1.649906	0.087192	0.610011
H87	H	1.199785	-0.476665	0.160320
H88	H	1.699785	0.023335	0.660320
H89	H	1.125780	-0.335493	0.162098
H90	H	1.625780	0.164507	0.662098
N91	N	1.155379	-0.170880	0.111242
N92	N	1.655379	0.329120	0.611242
H93	H	1.073646	-0.191682	0.107642
H94	H	1.573646	0.308318	0.607642
H95	H	1.192554	-0.208474	0.188498
H96	H	1.692554	0.291526	0.688498
H97	H	1.363385	-0.430338	-0.204226
H98	H	1.863385	0.069662	0.295774
N99	N	1.342190	-0.435582	0.232774
N100	N	1.842190	0.064418	0.732774
H101	H	1.319026	-0.356818	0.283234
H102	H	1.819026	0.143182	0.783234
H103	H	1.272184	-0.478439	0.210025
H104	H	1.772184	0.021561	0.710025
N105	N	1.350067	-0.195254	0.232158
N106	N	1.850067	0.304746	0.732158
H107	H	1.267168	-0.211865	0.233311
H108	H	1.767168	0.288135	0.733311
H109	H	1.389803	-0.235685	0.306802
H110	H	1.889803	0.264315	0.806802
H111	H	1.497336	-0.228021	-0.124243
H112	H	1.997336	0.271979	0.375757
