data_functionalizedCrystal
_audit_creation_method	'MofGen! by Chris Wilmer'
_symmetry_space_group_name_H-M	'P1'
_symmetry_Int_Tables_number	1
_symmetry_cell_setting	triclinic
loop_
_symmetry_equiv_pos_as_xyz
  x,y,z
_cell_length_a	10.654550
_cell_length_b	14.519709
_cell_length_c	9.130313
_cell_angle_alpha	89.997798
_cell_angle_beta	89.996220
_cell_angle_gamma	84.082524
loop_
_atom_site_label
_atom_site_type_symbol
_atom_site_fract_x
_atom_site_fract_y
_atom_site_fract_z
O1	O	1.666589	0.129528	-0.121923
O2	O	1.300991	0.141869	-0.121900
O3	O	1.493483	0.001510	-0.121899
O4	O	1.474097	0.269887	-0.121924
O5	O	1.493481	0.001514	0.121700
O6	O	1.300989	0.141873	0.121699
O7	O	1.666586	0.129532	0.121676
Cu8	Cu	1.483787	0.135703	0.143930
Cu9	Cu	1.483790	0.135698	-0.144154
O10	O	1.474094	0.269891	0.121675
C11	C	1.254201	0.140965	-0.000098
C12	C	1.114784	0.138254	-0.000088
C13	C	1.034504	0.220895	-0.000117
C14	C	0.903507	0.218342	-0.000143
C15	C	0.933085	0.050500	-0.000116
C16	C	1.064078	0.053054	-0.000080
C17	C	1.085209	0.306095	-0.000126
C18	C	1.004928	0.388743	-0.000157
C19	C	0.873931	0.386190	-0.000182
C20	C	0.823217	0.300989	-0.000176
C21	C	1.492579	-0.032852	-0.000099
C22	C	1.489871	-0.135247	-0.000098
C23	C	1.479904	-0.510195	-0.000136
C24	C	1.482672	-0.405873	-0.000125
C25	C	1.484887	-0.322725	-0.000116
C26	C	1.487656	-0.218396	-0.000108
C27	C	1.713377	0.130436	-0.000130
C28	C	1.852794	0.133147	-0.000149
C29	C	1.474999	0.304253	-0.000128
C30	C	1.477707	0.406648	-0.000139
N31	N	1.483795	0.135705	0.346552
N32	N	1.483793	0.135688	-0.346777
C33	C	1.569052	0.073576	0.423205
C34	C	1.569048	0.073565	0.576542
C35	C	1.398527	0.197821	0.576560
C36	C	1.398525	0.197827	0.423226
C37	C	1.654321	0.011454	0.346531
C38	C	1.739586	-0.050679	0.423184
C39	C	1.739583	-0.050691	0.576520
C40	C	1.654315	0.011432	0.653205
H41	H	0.808569	0.453485	-0.000192
H42	H	1.809002	-0.101263	0.360739
H43	H	0.716549	0.298917	-0.000174
H44	H	1.329100	0.248417	0.360815
N45	N	1.311440	0.261266	0.654909
N46	N	1.311454	0.261251	0.791813
H47	H	1.249949	0.306061	0.847149
H48	H	1.191871	0.308183	-0.000112
N49	N	1.826668	-0.114171	0.654798
N50	N	1.902785	-0.169631	0.586316
H51	H	1.964296	-0.214465	0.641596
N52	N	0.881263	-0.036517	-0.000106
N53	N	0.764303	-0.038784	-0.000136
H54	H	0.727703	-0.100241	-0.000132
H55	H	1.654311	0.011412	0.778062
H56	H	1.654334	0.011460	0.221677
N57	N	1.056746	0.475760	-0.000139
N58	N	1.173705	0.478031	-0.000111
H59	H	1.210302	0.539488	-0.000095
H60	H	1.129445	-0.014240	-0.000060
