data_functionalizedCrystal
_audit_creation_method	'MofGen! by Chris Wilmer'
_symmetry_space_group_name_H-M	'P1'
_symmetry_Int_Tables_number	1
_symmetry_cell_setting	triclinic
loop_
_symmetry_equiv_pos_as_xyz
  x,y,z
_cell_length_a	17.052862
_cell_length_b	12.970454
_cell_length_c	17.052862
_cell_angle_alpha	90.000106
_cell_angle_beta	118.506230
_cell_angle_gamma	50.258923
loop_
_atom_site_label
_atom_site_type_symbol
_atom_site_fract_x
_atom_site_fract_y
_atom_site_fract_z
Zr1	Zr	0.564455	-0.045482	-1.017428
O2	O	0.767270	-0.273035	-0.902892
O3	O	0.392357	0.042094	-1.032474
O4	O	0.550876	-0.198692	-1.061411
O5	O	0.608750	0.137419	-0.873955
O6	O	0.505223	-0.160319	-1.209278
O7	O	0.608751	-0.032249	-0.873955
O8	O	0.221661	0.270405	-1.157516
O9	O	0.892313	-0.293304	-0.925718
O10	O	0.417696	0.086554	-1.173486
O11	O	0.451766	0.184537	-1.063133
O12	O	0.638402	-0.098958	-1.097203
O13	O	0.672472	-0.000975	-0.986850
Zr14	Zr	0.491642	0.286320	-1.253260
Zr15	Zr	0.491643	0.015720	-1.253260
Zr16	Zr	0.564454	0.225118	-1.017428
Zr17	Zr	0.763883	-0.077809	-1.053832
Zr18	Zr	0.292214	0.318647	-1.216856
O19	O	0.663741	0.198744	-1.238214
O20	O	0.663742	-0.186015	-1.238215
O21	O	0.767269	0.111723	-0.902891
O22	O	0.288827	0.513873	-1.367796
O23	O	0.288828	0.129115	-1.367796
O24	O	0.392355	0.426853	-1.032473
O25	O	0.447347	0.103419	-1.396733
O26	O	0.505221	0.439531	-1.209277
O27	O	0.550874	0.401157	-1.061409
O28	O	0.447347	0.273087	-1.396732
O29	O	0.834437	-0.244657	-1.113172
O30	O	0.221660	0.485496	-1.157515
O31	O	0.163785	0.534143	-1.344970
O32	O	0.163785	0.319052	-1.344971
O33	O	0.892312	-0.078214	-0.925717
O34	O	0.834437	-0.029566	-1.113172
O35	O	0.417695	0.339796	-1.173485
O36	O	0.383625	0.241813	-1.283837
O37	O	0.604331	0.056301	-1.207554
O38	O	0.638401	0.154284	-1.097202
C39	C	0.278594	0.160855	-1.089808
C40	C	0.193932	0.174579	-1.074354
C41	C	0.619124	0.043865	-0.840354
C42	C	0.650035	0.017884	-0.740237
C43	C	0.528047	0.458898	-1.135343
C44	C	0.528047	0.573775	-1.135343
C45	C	-0.115845	0.008659	-1.261198
C46	C	-0.036295	-0.004245	-1.275716
C47	C	0.021265	0.040461	-1.225377
C48	C	-0.000732	0.098071	-1.160517
C49	C	-0.080281	0.110966	-1.145992
C50	C	0.056829	0.142767	-1.110171
C51	C	0.034832	0.200378	-1.045310
C52	C	-0.044711	0.213271	-1.030789
C53	C	-0.102271	0.168565	-1.081128
C54	C	0.136378	0.129872	-1.124696
C55	C	0.171942	0.232179	-1.009489
C56	C	0.092392	0.245083	-0.994971
C57	C	0.777503	0.079983	-1.180880
C58	C	0.862165	0.066259	-1.196334
C59	C	0.528050	-0.218060	-1.135345
C60	C	0.528050	-0.332937	-1.135345
C61	C	0.276329	0.331991	-0.617304
C62	C	0.247283	0.356398	-0.711370
C63	C	0.347968	0.271772	-0.718592
C64	C	0.477705	0.162734	-0.631738
C65	C	0.506753	0.138317	-0.537662
C66	C	0.578393	0.078098	-0.638950
C67	C	0.708129	-0.030940	-0.552096
C68	C	0.737172	-0.055352	-0.458031
C69	C	0.636487	0.029274	-0.450809
C70	C	0.549344	0.102515	-0.733026
C71	C	0.779768	-0.091159	-0.653384
C72	C	0.808814	-0.115566	-0.559318
C73	C	0.436973	0.196971	-0.430334
C74	C	0.406063	0.222948	-0.530450
C75	C	0.187519	0.237409	-1.384798
C76	C	0.071946	0.277115	-1.469460
C77	C	0.278593	0.499335	-1.089807
C78	C	0.193930	0.627935	-1.074353
C79	C	0.187517	0.575889	-1.384797
C80	C	0.071944	0.730471	-1.469459
C81	C	0.868580	-0.335050	-0.885891
C82	C	0.984153	-0.489633	-0.801229
C83	C	0.868579	0.003429	-0.885890
C84	C	0.984151	-0.036276	-0.801228
C85	C	0.777504	-0.258497	-1.180880
C86	C	0.862167	-0.387097	-1.196335
C87	C	0.035456	0.214706	-1.451616
C88	C	-0.073123	0.251984	-1.531158
C89	C	-0.145216	0.351679	-1.628543
C90	C	-0.108718	0.414088	-1.646386
C91	C	-0.000135	0.376801	-1.566846
C92	C	0.136387	0.769382	-1.124697
C93	C	0.056850	0.890224	-1.110174
C94	C	0.034850	0.869617	-1.045311
C95	C	0.092403	0.728155	-0.994960
C96	C	0.171946	0.607314	-1.009479
C97	C	-0.000117	0.751921	-1.566830
C98	C	-0.108702	0.897157	-1.646390
C99	C	-0.145229	1.020943	-1.628576
C100	C	-0.073156	0.999486	-1.531196
C101	C	0.035432	0.854251	-1.451639
C102	C	1.056224	-0.511084	-0.703859
C103	C	1.164834	-0.656325	-0.624304
C104	C	1.201365	-0.780111	-0.642119
C105	C	1.129287	-0.758654	-0.739498
C106	C	1.020685	-0.613416	-0.819053
C107	C	1.020649	0.026120	-0.819073
C108	C	1.129250	-0.011192	-0.739535
C109	C	1.201346	-0.110891	-0.642151
C110	C	1.164844	-0.173294	-0.624307
C111	C	1.056251	-0.135991	-0.703845
C112	C	0.884138	-0.366443	-1.261205
C113	C	0.963671	-0.487260	-1.275746
C114	C	1.021238	-0.628731	-1.225411
C115	C	0.999260	-0.649381	-1.160538
C116	C	0.919721	-0.528564	-1.146003
H117	H	0.154281	0.082965	-1.177505
H118	H	1.086002	-0.727096	-1.237254
H119	H	0.009996	1.005398	-1.151182
H120	H	-0.029922	0.968026	-1.033498
H121	H	1.046143	-0.764583	-1.119558
H122	H	-0.102913	1.100293	-1.516706
H123	H	-0.167432	0.495262	-1.725687
H124	H	-0.233651	1.139195	-1.693366
H125	H	0.194365	0.400876	-0.611411
H126	H	0.086037	0.029950	-1.237202
H127	H	0.901844	-0.545402	-1.093176
H128	H	1.158950	0.039638	-0.754083
H129	H	-0.018387	-0.051153	-1.328524
H130	H	0.218788	0.492147	-0.968483
H131	H	1.026492	-0.410307	-0.689334
H132	H	0.961956	0.107310	-0.898361
H133	H	-0.167375	0.914602	-1.725675
H134	H	-0.167056	0.179078	-1.069316
H135	H	0.029560	0.427636	-1.581388
H136	H	0.074472	0.291988	-0.942161
H137	H	0.074478	0.711398	-0.942148
H138	H	0.842813	-0.144149	-0.387313
H139	H	-0.162706	-0.027745	-1.302173
H140	H	1.223505	-0.673767	-0.545020
H141	H	1.026541	-0.186803	-0.689300
H142	H	0.981556	-0.470418	-1.328569
H143	H	0.094153	0.133512	-1.372328
H144	H	0.837277	-0.251261	-1.302197
H145	H	1.289768	-0.141253	-0.577394
H146	H	0.094095	0.836806	-1.372356
H147	H	-0.062606	0.260166	-0.977967
H148	H	0.218812	0.268577	-0.968496
H149	H	0.443711	0.191304	-0.803735
H150	H	0.324311	0.291651	-0.795187
H151	H	0.141651	0.445162	-0.782081
H152	H	0.962004	-0.595965	-0.898333
H153	H	1.223561	-0.254473	-0.545006
H154	H	0.660129	0.009414	-0.374216
H155	H	1.289798	-0.898365	-0.577331
H156	H	1.159044	-0.859458	-0.753992
H157	H	0.914447	-0.204347	-0.488589
H158	H	-0.102823	0.201156	-1.516610
H159	H	-0.233629	0.382029	-1.693301
H160	H	0.861755	-0.160071	-0.659261
H161	H	0.154288	0.786188	-1.177515
H162	H	0.029604	0.651145	-1.581353
