data_functionalizedCrystal
_audit_creation_method	'MofGen! by Chris Wilmer'
_symmetry_space_group_name_H-M	'P1'
_symmetry_Int_Tables_number	1
_symmetry_cell_setting	triclinic
loop_
_symmetry_equiv_pos_as_xyz
  x,y,z
_cell_length_a	19.188925
_cell_length_b	19.188930
_cell_length_c	9.730223
_cell_angle_alpha	89.993564
_cell_angle_beta	89.998856
_cell_angle_gamma	83.143665
loop_
_atom_site_label
_atom_site_type_symbol
_atom_site_fract_x
_atom_site_fract_y
_atom_site_fract_z
O1	O	0.926143	0.087146	-0.114335
O2	O	0.722831	0.098885	-0.114333
O3	O	0.830354	-0.008640	-0.114307
O4	O	0.818620	0.194671	-0.114361
O5	O	0.830353	-0.008637	0.114273
O6	O	0.722830	0.098887	0.114247
O7	O	0.926142	0.087149	0.114245
Zn8	Zn	0.824486	0.093019	0.150538
Zn9	Zn	0.824487	0.093015	-0.150626
O10	O	0.818619	0.194674	0.114219
C11	C	0.696820	0.098507	-0.000043
C12	C	0.619315	0.097367	-0.000041
C13	C	0.057545	0.152831	-0.000059
C14	C	0.130368	0.153908	-0.000066
C15	C	0.175302	0.090816	-0.000047
C16	C	0.147408	0.026642	-0.000056
C17	C	0.074586	0.025568	-0.000062
N18	N	0.295979	0.045140	0.077775
N19	N	0.365156	0.046166	0.077784
C20	C	0.394712	0.094050	-0.000032
N21	N	0.352475	0.140881	-0.077839
N22	N	0.283291	0.139857	-0.077842
C23	C	0.254267	0.091974	-0.000041
C24	C	0.501561	0.159386	-0.000041
C25	C	0.574385	0.160460	-0.000058
C26	C	0.591425	0.033193	-0.000033
C27	C	0.518601	0.032121	-0.000031
C28	C	0.473673	0.095220	-0.000028
C29	C	0.829974	-0.034650	-0.000013
C30	C	0.828833	-0.112154	-0.000001
C31	C	0.891924	-0.157079	0.000005
C32	C	0.890852	-0.229903	-0.000017
C33	C	0.826686	-0.257799	-0.000018
C34	C	0.763587	-0.212864	-0.000032
C35	C	0.764660	-0.140041	-0.000023
N36	N	0.777638	-0.365802	0.077773
N37	N	0.776623	-0.434980	0.077768
C38	C	0.823448	-0.477207	-0.000046
N39	N	0.871338	-0.447644	-0.077837
N40	N	0.872355	-0.378459	-0.077826
C41	C	0.825515	-0.336761	-0.000028
C42	C	0.885381	-0.601097	-0.000065
C43	C	0.884307	-0.673922	-0.000096
C44	C	0.757040	-0.656880	-0.000096
C45	C	0.758116	-0.584057	-0.000080
C46	C	0.822289	-0.556170	-0.000058
C47	C	0.952154	0.087527	-0.000049
C48	C	1.029658	0.088666	-0.000059
C49	C	0.819000	0.220684	-0.000078
C50	C	0.820140	0.298188	-0.000099
N51	N	0.824490	0.093021	0.356074
N52	N	0.824489	0.093008	-0.356162
C53	C	0.872113	0.045425	0.428012
C54	C	0.872111	0.045416	0.571895
C55	C	0.776861	0.140606	0.571890
C56	C	0.776860	0.140611	0.428010
C57	C	0.919743	-0.002165	0.356076
C58	C	0.967371	-0.049765	0.428014
C59	C	0.967369	-0.049773	0.571897
C60	C	0.919740	-0.002182	0.643842
H61	H	0.495896	-0.020129	-0.000023
Cl62	Cl	0.682921	-0.247931	-0.000043
H63	H	0.704794	-0.679592	-0.000104
H64	H	0.713282	-0.103462	-0.000028
H65	H	0.937635	-0.578390	-0.000054
H66	H	0.738080	0.179367	0.369438
H67	H	0.183999	-0.024728	-0.000044
Cl68	Cl	0.716990	0.200433	0.662335
Cl69	Cl	0.001068	0.232156	-0.000074
H70	H	0.628010	-0.018178	-0.000028
Cl71	Cl	0.678797	-0.527576	-0.000081
H72	H	0.935686	-0.710500	-0.000099
Cl73	Cl	0.972598	-0.122025	-0.000007
H74	H	0.919750	-0.002161	0.238920
Cl75	Cl	1.027238	-0.109596	0.337573
H76	H	0.942230	-0.266488	-0.000018
H77	H	0.919738	-0.002198	0.761002
Cl78	Cl	0.165434	0.234579	-0.000061
Cl79	Cl	0.039528	-0.055104	-0.000066
H80	H	1.006144	-0.088535	0.630467
Cl81	Cl	0.609442	0.241132	-0.000071
H82	H	0.464978	0.210765	-0.000042
