data_functionalizedCrystal
_audit_creation_method	'MofGen! by Chris Wilmer'
_symmetry_space_group_name_H-M	'P1'
_symmetry_Int_Tables_number	1
_symmetry_cell_setting	triclinic
loop_
_symmetry_equiv_pos_as_xyz
  x,y,z
_cell_length_a	14.519731
_cell_length_b	14.044209
_cell_length_c	13.596369
_cell_angle_alpha	90.008322
_cell_angle_beta	90.006374
_cell_angle_gamma	91.561597
loop_
_atom_site_label
_atom_site_type_symbol
_atom_site_fract_x
_atom_site_fract_y
_atom_site_fract_z
O1	O	1.233871	-0.124370	-0.081800
O2	O	1.483871	0.125630	0.168200
O3	O	1.733871	0.375630	0.418200
O4	O	1.983871	0.625630	0.668200
O5	O	0.966576	-0.138983	-0.081803
O6	O	1.216576	0.111017	0.168197
O7	O	1.466576	0.361017	0.418197
O8	O	1.716576	0.611017	0.668197
O9	O	1.096212	0.006315	-0.081787
O10	O	1.346212	0.256315	0.168213
O11	O	1.596212	0.506315	0.418213
O12	O	1.846212	0.756315	0.668213
O13	O	1.104234	-0.269668	-0.081815
O14	O	1.354234	-0.019668	0.168185
O15	O	1.604234	0.230332	0.418185
O16	O	1.854234	0.480332	0.668185
O17	O	1.096229	0.006323	0.081795
O18	O	1.346229	0.256323	0.331795
O19	O	1.596229	0.506323	0.581795
O20	O	1.846229	0.756323	0.831795
O21	O	0.966592	-0.138975	0.081780
O22	O	1.216592	0.111025	0.331780
O23	O	1.466592	0.361025	0.581780
O24	O	1.716592	0.611025	0.831780
O25	O	1.233888	-0.124362	0.081783
O26	O	1.483888	0.125638	0.331783
O27	O	1.733888	0.375638	0.581783
O28	O	1.983888	0.625638	0.831783
Zn29	Zn	1.100243	-0.131667	0.107754
Zn30	Zn	1.350243	0.118333	0.357754
Zn31	Zn	1.600243	0.368333	0.607754
Zn32	Zn	1.850243	0.618333	0.857754
Zn33	Zn	1.100221	-0.131678	-0.107774
Zn34	Zn	1.350221	0.118322	0.142226
Zn35	Zn	1.600221	0.368322	0.392226
Zn36	Zn	1.850221	0.618322	0.642226
O37	O	1.104251	-0.269661	0.081768
O38	O	1.354251	-0.019661	0.331768
O39	O	1.604251	0.230339	0.581768
O40	O	1.854251	0.480339	0.831768
C41	C	0.932169	-0.138295	-0.000011
C42	C	1.182169	0.111705	0.249989
C43	C	1.432169	0.361705	0.499989
C44	C	1.682169	0.611705	0.749989
C45	C	0.829624	-0.136243	-0.000012
C46	C	1.079624	0.113757	0.249988
C47	C	1.329624	0.363757	0.499988
C48	C	1.579624	0.613757	0.749988
C49	C	0.746345	-0.134576	-0.000015
C50	C	0.996345	0.115424	0.249985
C51	C	1.246345	0.365424	0.499985
C52	C	1.496345	0.615424	0.749985
C53	C	0.641868	-0.132492	-0.000015
C54	C	0.891868	0.117508	0.249985
C55	C	1.141868	0.367508	0.499985
C56	C	1.391868	0.617508	0.749985
C57	C	0.558596	-0.130839	-0.000015
C58	C	0.808596	0.119161	0.249985
C59	C	1.058596	0.369161	0.499985
C60	C	1.308596	0.619161	0.749985
C61	C	0.454112	-0.128756	-0.000017
C62	C	0.704112	0.121244	0.249983
C63	C	0.954112	0.371244	0.499983
C64	C	1.204112	0.621244	0.749983
C65	C	1.092709	0.041640	0.000006
C66	C	1.342709	0.291640	0.250006
C67	C	1.592709	0.541640	0.500006
C68	C	1.842709	0.791640	0.750006
C69	C	1.082232	0.146884	0.000010
C70	C	1.332232	0.396884	0.250010
C71	C	1.582232	0.646884	0.500010
C72	C	1.832232	0.896884	0.750010
C73	C	1.063079	0.339580	0.000002
C74	C	1.313079	0.589580	0.250002
C75	C	1.563079	0.839580	0.500002
C76	C	1.813079	1.089580	0.750002
C77	C	1.137388	0.397081	0.000001
C78	C	1.387388	0.647081	0.250001
C79	C	1.637388	0.897081	0.500001
C80	C	1.887388	1.147081	0.750001
C81	C	1.126731	0.504304	-0.000004
C82	C	1.376731	0.754304	0.249996
C83	C	1.626731	1.004304	0.499996
C84	C	1.876731	1.254304	0.749996
C85	C	1.073735	0.232347	0.000006
C86	C	1.323735	0.482347	0.250006
C87	C	1.573735	0.732347	0.500006
C88	C	1.823735	0.982347	0.750006
C89	C	1.268294	-0.125051	-0.000011
C90	C	1.518294	0.124949	0.249989
C91	C	1.768294	0.374949	0.499989
C92	C	2.018294	0.624949	0.749989
C93	C	1.370840	-0.127102	-0.000017
C94	C	1.620840	0.122898	0.249983
C95	C	1.870840	0.372898	0.499983
C96	C	2.120840	0.622898	0.749983
C97	C	1.107757	0.695015	-0.000020
C98	C	1.357757	0.945015	0.249980
C99	C	1.607757	1.195015	0.499980
C100	C	1.857757	1.445015	0.749980
C101	C	1.118239	0.589771	-0.000007
C102	C	1.368239	0.839771	0.249993
C103	C	1.618239	1.089771	0.499993
C104	C	1.868239	1.339771	0.749993
N105	N	1.100206	-0.131678	-0.254866
N106	N	1.350206	0.118322	-0.004866
N107	N	1.600206	0.368322	0.245134
N108	N	1.850206	0.618322	0.495134
C109	C	1.100209	-0.131679	-0.343863
C110	C	1.350209	0.118321	-0.093863
C111	C	1.600209	0.368321	0.156137
C112	C	1.850209	0.618321	0.406137
C113	C	1.100222	-0.131677	-0.455515
C114	C	1.350222	0.118323	-0.205515
C115	C	1.600222	0.368323	0.044485
C116	C	1.850222	0.618323	0.294485
C117	C	1.100237	-0.131670	-0.544505
C118	C	1.350237	0.118330	-0.294505
C119	C	1.600237	0.368330	-0.044505
C120	C	1.850237	0.618330	0.205495
C121	C	1.100249	-0.131666	-0.656164
C122	C	1.350249	0.118334	-0.406164
C123	C	1.600249	0.368334	-0.156164
C124	C	1.850249	0.618334	0.093836
N125	N	1.100265	-0.131660	0.254846
N126	N	1.350265	0.118340	0.504846
N127	N	1.600265	0.368340	0.754846
N128	N	1.850265	0.618340	1.004846
H129	H	1.209009	0.365783	-0.000066
H130	H	1.459009	0.615783	0.249934
H131	H	1.709009	0.865783	0.499934
H132	H	1.959009	1.115783	0.749934
H133	H	0.991464	0.370876	-0.000000
H134	H	1.241464	0.620876	0.250000
H135	H	1.491464	0.870876	0.500000
H136	H	1.741464	1.120876	0.750000
