data_functionalizedCrystal
_audit_creation_method	'MofGen! by Chris Wilmer'
_symmetry_space_group_name_H-M	'P1'
_symmetry_Int_Tables_number	1
_symmetry_cell_setting	triclinic
loop_
_symmetry_equiv_pos_as_xyz
  x,y,z
_cell_length_a	6.817900
_cell_length_b	11.102288
_cell_length_c	15.301140
_cell_angle_alpha	93.594860
_cell_angle_beta	104.177739
_cell_angle_gamma	108.605689
loop_
_atom_site_label
_atom_site_type_symbol
_atom_site_fract_x
_atom_site_fract_y
_atom_site_fract_z
V1	V	-4.060643	-0.176699	-0.281145
O2	O	-4.020645	0.007606	-0.275793
O3	O	-4.037769	-0.349514	-0.279222
O4	O	-4.015231	-0.174370	-0.403762
O5	O	-4.043338	-0.168751	-0.150391
V6	V	-4.540577	-0.154608	-0.265506
O7	O	-4.329776	-0.225158	-0.315451
O8	O	-4.721642	-0.106150	-0.231200
O9	O	-4.340245	0.018206	-0.267429
O10	O	-4.697973	-0.338914	-0.270858
O11	O	-4.675279	-0.162557	-0.396260
O12	O	-4.362783	-0.156938	-0.142889
C13	C	-3.888882	-0.391630	-0.274787
C14	C	-3.951486	-0.532911	-0.274032
C15	C	-3.860132	-0.168215	-0.433649
C16	C	-3.904455	-0.167454	-0.533889
C17	C	-4.164091	-0.605772	-0.278176
C18	C	-4.222906	-0.738521	-0.277474
C19	C	-3.856488	-0.725535	-0.268480
C20	C	-3.797679	-0.592790	-0.269189
C21	C	-4.108458	-0.173459	-0.585576
C22	C	-4.150092	-0.172743	-0.679761
C23	C	-3.987724	-0.166031	-0.722260
C24	C	-3.783701	-0.160021	-0.670566
C25	C	-3.742066	-0.160728	-0.576381
C26	C	-3.870497	-0.158551	-0.866878
C27	C	-3.912136	-0.157846	-0.961070
C28	C	-4.278523	-0.170566	-0.970259
C29	C	-4.236888	-0.171273	-0.876073
C30	C	-4.032868	-0.165266	-0.824386
C31	C	-4.152474	0.060316	-0.271861
C32	C	-4.069109	0.201595	-0.272622
C33	C	-4.181224	-0.163097	-0.112997
C34	C	-4.116139	-0.163852	-0.012756
H35	H	-4.289333	-0.557022	-0.282119
H36	H	-4.396025	-0.797839	-0.280851
O37	O	-3.707077	-0.783727	-0.263606
C38	C	-3.687202	-0.842665	-0.184480
H39	H	-3.743410	-0.794122	-0.132411
H40	H	-3.511410	-0.832561	-0.154157
H41	H	-3.790709	-0.948967	-0.202888
O42	O	-4.266446	-0.180156	-0.544418
C43	C	-4.442996	-0.294483	-0.582447
H44	H	-4.439455	-0.329041	-0.653602
H45	H	-4.599647	-0.275395	-0.587126
H46	H	-4.432652	-0.371459	-0.537366
O47	O	-4.348268	-0.178745	-0.730078
C48	C	-4.438303	-0.289347	-0.797054
H49	H	-4.303816	-0.320596	-0.811263
H50	H	-4.532773	-0.266658	-0.862474
H51	H	-4.551122	-0.370219	-0.771587
H52	H	-3.624547	-0.533465	-0.265817
H53	H	-4.369109	-0.176748	-0.841475
H54	H	-4.444645	-0.175460	-1.012347
O55	O	-3.754134	-0.151241	-1.002202
C56	C	-3.565140	-0.146103	-0.936389
H57	H	-3.569086	-0.108048	-0.866125
H58	H	-3.418264	-0.079421	-0.953531
H59	H	-3.555243	-0.246681	-0.936293
O60	O	-3.672482	-0.152882	-0.816586
C61	C	-3.692373	-0.263538	-0.774074
H62	H	-3.863512	-0.306050	-0.768039
H63	H	-3.573215	-0.236457	-0.703144
H64	H	-3.656476	-0.337585	-0.816661
H65	H	-3.651498	-0.154548	-0.705175
O66	O	-3.543825	-0.154681	-0.526104
C67	C	-3.453847	-0.044111	-0.459101
H68	H	-3.531928	0.029815	-0.481544
H69	H	-3.272905	-0.001372	-0.449856
H70	H	-3.483945	-0.071365	-0.391722
