data_functionalizedCrystal
_audit_creation_method	'MofGen! by Chris Wilmer'
_symmetry_space_group_name_H-M	'P1'
_symmetry_Int_Tables_number	1
_symmetry_cell_setting	triclinic
loop_
_symmetry_equiv_pos_as_xyz
  x,y,z
_cell_length_a	10.268362
_cell_length_b	12.837943
_cell_length_c	12.811415
_cell_angle_alpha	90.588083
_cell_angle_beta	95.436139
_cell_angle_gamma	89.996663
loop_
_atom_site_label
_atom_site_type_symbol
_atom_site_fract_x
_atom_site_fract_y
_atom_site_fract_z
O1	O	0.140512	-1.376632	0.272979
O2	O	0.640512	-0.876632	0.772979
O3	O	0.138927	-1.074768	0.259494
O4	O	0.638927	-0.574768	0.759494
O5	O	0.121758	-1.233294	0.114203
O6	O	0.621758	-0.733294	0.614203
O7	O	0.157681	-1.218107	0.418270
O8	O	0.657681	-0.718107	0.918270
O9	O	-0.094843	-1.233280	0.114195
O10	O	0.405157	-0.733280	0.614195
O11	O	-0.077674	-1.074755	0.259486
O12	O	0.422326	-0.574755	0.759486
O13	O	-0.076090	-1.376618	0.272971
O14	O	0.423910	-0.876618	0.772971
Cu15	Cu	-0.096659	-1.225685	0.266228
Cu16	Cu	0.403341	-0.725685	0.766228
Cu17	Cu	0.159497	-1.225702	0.266237
Cu18	Cu	0.659497	-0.725702	0.766237
O19	O	-0.058920	-1.218093	0.418262
O20	O	0.441080	-0.718093	0.918262
C21	C	0.030090	-1.036121	0.254935
C22	C	0.530090	-0.536121	0.754935
C23	C	0.028488	-0.920986	0.241349
C24	C	0.528488	-0.420986	0.741349
N25	N	-0.276826	-1.225681	0.266221
N26	N	0.223174	-0.725681	0.766221
C27	C	0.008830	-1.232436	0.075010
C28	C	0.508830	-0.732436	0.575010
C29	C	-0.004957	-1.229887	-0.041764
C30	C	0.495043	-0.729887	0.458236
C31	C	-0.542495	-1.225696	0.266235
C32	C	-0.042495	-0.725696	0.766235
C33	C	-0.394658	-1.225685	0.266230
C34	C	0.105342	-0.725685	0.766230
N35	N	0.339663	-1.225714	0.266236
N36	N	0.839663	-0.725714	0.766236
C37	C	0.032751	-1.415266	0.277530
C38	C	0.532751	-0.915266	0.777530
C39	C	0.034361	-1.530401	0.291116
C40	C	0.534361	-1.030401	0.791116
C41	C	0.047766	-0.680732	0.404679
C42	C	0.547766	-0.180732	0.904679
C43	C	0.046260	-0.572551	0.391919
C44	C	0.546260	-0.072551	0.891919
C45	C	0.023963	-0.596441	0.203068
C46	C	0.523963	-0.096441	0.703068
C47	C	0.025468	-0.704622	0.215829
C48	C	0.525468	-0.204622	0.715829
C49	C	0.037372	-0.746763	0.316637
C50	C	0.537372	-0.246763	0.816637
C51	C	0.038886	-0.854946	0.329397
C52	C	0.538886	-0.354946	0.829397
C53	C	0.016580	-0.878833	0.140547
C54	C	0.516580	-0.378833	0.640547
C55	C	0.015074	-0.770652	0.127787
C56	C	0.515074	-0.270652	0.627787
C57	C	0.205301	-1.225093	-0.261175
C58	C	0.705301	-0.725093	0.238825
C59	C	0.192353	-1.222698	-0.370894
C60	C	0.692353	-0.722698	0.129106
C61	C	-0.043800	-1.222694	-0.370922
C62	C	0.456200	-0.722694	0.129078
C63	C	-0.030852	-1.225089	-0.261203
C64	C	0.469148	-0.725089	0.238797
C65	C	0.093703	-1.226290	-0.206333
C66	C	0.593703	-0.726290	0.293667
C67	C	0.106650	-1.228693	-0.096613
C68	C	0.606650	-0.728693	0.403387
C69	C	-0.129503	-1.228681	-0.096643
C70	C	0.370497	-0.728681	0.403357
C71	C	-0.142451	-1.226286	-0.206362
C72	C	0.357549	-0.726286	0.293638
C73	C	0.054010	-1.218951	0.457455
C74	C	0.554010	-0.718951	0.957455
C75	C	0.067806	-1.221500	0.574229
C76	C	0.567806	-0.721500	1.074229
H77	H	0.048577	-0.889255	0.411481
H78	H	0.548577	-0.389255	0.911481
H79	H	0.208068	-1.229674	-0.051939
H80	H	0.708068	-0.729674	0.448061
Cl81	Cl	0.361879	-1.226619	-0.192192
Cl82	Cl	0.861879	-0.726619	0.307808
Cl83	Cl	0.008982	-0.543444	0.076348
Cl84	Cl	0.508982	-0.043444	0.576348
H85	H	-0.220374	-1.229660	-0.051980
H86	H	0.279626	-0.729660	0.448020
H87	H	0.283228	-1.221719	-0.415541
H88	H	0.783228	-0.721719	0.084459
Cl89	Cl	0.059323	-0.489543	0.502605
Cl90	Cl	0.559323	0.010457	1.002605
Cl91	Cl	0.000108	-0.717664	0.001063
Cl92	Cl	0.500108	-0.217664	0.501063
Cl93	Cl	-0.200370	-1.221154	-0.439918
Cl94	Cl	0.299630	-0.721154	0.060082
H95	H	-0.243860	-1.225304	-0.251052
H96	H	0.256140	-0.725304	0.248948
Cl97	Cl	0.062748	-0.733714	0.531406
Cl98	Cl	0.562748	-0.233714	1.031406
Cl99	Cl	0.003533	-0.961851	0.029859
Cl100	Cl	0.503533	-0.461851	0.529859
