data_functionalizedCrystal
_audit_creation_method	'MofGen! by Chris Wilmer'
_symmetry_space_group_name_H-M	'P1'
_symmetry_Int_Tables_number	1
_symmetry_cell_setting	triclinic
loop_
_symmetry_equiv_pos_as_xyz
  x,y,z
_cell_length_a	15.297475
_cell_length_b	19.121063
_cell_length_c	15.296720
_cell_angle_alpha	101.616247
_cell_angle_beta	91.617114
_cell_angle_gamma	83.156694
loop_
_atom_site_label
_atom_site_type_symbol
_atom_site_fract_x
_atom_site_fract_y
_atom_site_fract_z
Zn1	Zn	1.219315	-0.545242	-0.750522
Zn2	Zn	1.238271	-0.646121	-0.608463
Zn3	Zn	1.100653	-0.505885	-0.577035
Zn4	Zn	1.066927	-0.639234	-0.729290
O5	O	1.156291	-0.584120	-0.666328
O6	O	1.343197	-0.577977	-0.753716
O7	O	1.242063	-0.613929	-0.481124
O8	O	1.122575	-0.413080	-0.595782
O9	O	1.357124	-0.652092	-0.649346
O10	O	1.209755	-0.441996	-0.723241
O11	O	1.140956	-0.510898	-0.458034
O12	O	0.974811	-0.504221	-0.575194
O13	O	1.065095	-0.640355	-0.855277
O14	O	0.950033	-0.602192	-0.687055
O15	O	1.177053	-0.571299	-0.870876
O16	O	1.209361	-0.743232	-0.628758
O17	O	1.083475	-0.738173	-0.717529
C18	C	0.930952	-0.548189	-0.625411
C19	C	0.834547	-0.532837	-0.607928
C20	C	0.511335	-0.693852	-0.791283
C21	C	0.601913	-0.708281	-0.807706
C22	C	0.660075	-0.664421	-0.757763
C23	C	0.627652	-0.606129	-0.691393
C24	C	0.537065	-0.591702	-0.674963
C25	C	0.685806	-0.562271	-0.641444
C26	C	0.653382	-0.503980	-0.575074
C27	C	0.562804	-0.489555	-0.558647
C28	C	0.504642	-0.533415	-0.608590
C29	C	0.776392	-0.576699	-0.657874
C30	C	0.802123	-0.474549	-0.541555
C31	C	0.711545	-0.460120	-0.525131
C32	C	1.144835	-0.766125	-0.674274
C33	C	1.140009	-0.844004	-0.677717
C34	C	1.203317	-0.883214	-0.633171
C35	C	1.198782	-0.956391	-0.636415
C36	C	1.130934	-0.990354	-0.684201
C37	C	1.067622	-0.951139	-0.728752
C38	C	1.072161	-0.877965	-0.725513
C39	C	1.113949	-1.211161	-0.696297
C40	C	1.109413	-1.284340	-0.699531
C41	C	1.240575	-1.289587	-0.607195
C42	C	1.245105	-1.216411	-0.603955
C43	C	1.181796	-1.177203	-0.648510
C44	C	1.126295	-1.065151	-0.687516
C45	C	1.186440	-1.102408	-0.645200
C46	C	1.382510	-0.620193	-0.707405
C47	C	1.478911	-0.635564	-0.724910
C48	C	1.115197	-0.609449	-0.895906
C49	C	1.097685	-0.620243	-0.993739
C50	C	1.167812	-0.401410	-0.658374
C51	C	1.172722	-0.323550	-0.654985
C52	C	1.281492	-0.506860	-1.302001
C53	C	1.297950	-0.496721	-1.210084
C54	C	1.247885	-0.527600	-1.155993
C55	C	1.181359	-0.568621	-1.193829
C56	C	1.164903	-0.578765	-1.285757
C57	C	1.131297	-0.599506	-1.139748
C58	C	1.064771	-0.640526	-1.177584
C59	C	1.048318	-0.650669	-1.269503
C60	C	1.098383	-0.619789	-1.323594
C61	C	1.147753	-0.589361	-1.047821
C62	C	1.031165	-0.661267	-1.031576
C63	C	1.014706	-0.671406	-1.123494
C64	C	1.197279	-0.558848	-0.437649
C65	C	1.214971	-0.547884	-0.339838
H66	H	0.685132	-0.412659	-0.471092
H67	H	1.261290	-0.519342	-1.081150
H68	H	1.258564	-0.855565	-0.594254
H69	H	1.071051	-1.092812	-0.726421
H70	H	0.960539	-0.704805	-1.154313
C71	C	0.527141	-0.425434	-0.485637
N72	N	0.500281	-0.377135	-0.430647
C73	C	1.371120	-0.451592	-1.168469
N74	N	1.426232	-0.417595	-1.137124
H75	H	0.430884	-0.521668	-0.595223
C76	C	1.319726	-1.179051	-0.551360
N77	N	1.375923	-1.150908	-0.511733
H78	H	1.322252	-0.481727	-1.346050
C79	C	0.992985	-0.988500	-0.781314
N80	N	0.936764	-1.016639	-0.820900
C81	C	1.080293	-0.630952	-1.424713
N82	N	1.066675	-0.639363	-1.500879
H83	H	1.241685	-1.074754	-0.606296
C84	C	0.866099	-0.426298	-0.486616
N85	N	0.914290	-0.389959	-0.445239
H86	H	1.062399	-1.179243	-0.732574
H87	H	1.201919	-0.555961	-1.017024
H88	H	1.020610	-0.846041	-0.761788
C89	C	0.975140	-0.695796	-1.311121
N90	N	0.920021	-0.729785	-1.342465
H91	H	0.802783	-0.624160	-0.711914
C92	C	0.759716	-0.680306	-0.775818
N93	N	0.834768	-0.692275	-0.789416
H94	H	0.628306	-0.755743	-0.861743
H95	H	0.463972	-0.729560	-0.831934
C96	C	0.976088	-0.695235	-0.972080
N97	N	0.934608	-0.720818	-0.927262
H98	H	1.292119	-1.321518	-0.570922
C99	C	1.268423	-0.999517	-0.587404
N100	N	1.320878	-1.032000	-0.550485
H101	H	1.054170	-1.311994	-0.738461
