data_functionalizedCrystal
_audit_creation_method	'MofGen! by Chris Wilmer'
_symmetry_space_group_name_H-M	'P1'
_symmetry_Int_Tables_number	1
_symmetry_cell_setting	triclinic
loop_
_symmetry_equiv_pos_as_xyz
  x,y,z
_cell_length_a	16.109301
_cell_length_b	19.188930
_cell_length_c	14.586319
_cell_angle_alpha	89.991095
_cell_angle_beta	89.999213
_cell_angle_gamma	83.303131
loop_
_atom_site_label
_atom_site_type_symbol
_atom_site_fract_x
_atom_site_fract_y
_atom_site_fract_z
O1	O	1.102833	0.089744	-0.076193
O2	O	1.352833	0.339744	0.173807
O3	O	1.602833	0.589744	0.423807
O4	O	1.852833	0.839744	0.673807
O5	O	0.860734	0.100912	-0.076209
O6	O	1.110734	0.350912	0.173791
O7	O	1.360734	0.600912	0.423791
O8	O	1.610734	0.850912	0.673791
O9	O	0.988770	-0.006311	-0.076182
O10	O	1.238770	0.243689	0.173818
O11	O	1.488770	0.493689	0.423818
O12	O	1.738770	0.743689	0.673818
O13	O	0.974797	0.196968	-0.076219
O14	O	1.224797	0.446968	0.173781
O15	O	1.474797	0.696968	0.423781
O16	O	1.724797	0.946968	0.673781
O17	O	0.988762	-0.006313	0.076298
O18	O	1.238762	0.243687	0.326298
O19	O	1.488762	0.493687	0.576298
O20	O	1.738762	0.743687	0.826298
O21	O	0.860726	0.100911	0.076272
O22	O	1.110726	0.350911	0.326272
O23	O	1.360726	0.600911	0.576272
O24	O	1.610726	0.850911	0.826272
O25	O	1.102825	0.089742	0.076288
O26	O	1.352825	0.339742	0.326288
O27	O	1.602825	0.589742	0.576288
O28	O	1.852825	0.839742	0.826288
Cu29	Cu	0.981774	0.095326	0.090203
Cu30	Cu	1.231774	0.345326	0.340203
Cu31	Cu	1.481774	0.595326	0.590203
Cu32	Cu	1.731774	0.845326	0.840203
Cu33	Cu	0.981785	0.095328	-0.090124
Cu34	Cu	1.231785	0.345328	0.159876
Cu35	Cu	1.481785	0.595328	0.409876
Cu36	Cu	1.731785	0.845328	0.659876
O37	O	0.974789	0.196966	0.076262
O38	O	1.224789	0.446966	0.326262
O39	O	1.474789	0.696966	0.576262
O40	O	1.724789	0.946966	0.826262
C41	C	0.829757	0.100459	0.000030
C42	C	1.079757	0.350459	0.250030
C43	C	1.329757	0.600459	0.500030
C44	C	1.579757	0.850459	0.750030
C45	C	0.737466	0.099103	0.000025
C46	C	0.987466	0.349103	0.250025
C47	C	1.237466	0.599103	0.500025
C48	C	1.487466	0.849103	0.750025
C49	C	0.988313	-0.032324	0.000061
C50	C	1.238313	0.217676	0.250061
C51	C	1.488313	0.467676	0.500061
C52	C	1.738313	0.717676	0.750061
C53	C	0.986955	-0.109832	0.000068
C54	C	1.236955	0.140168	0.250068
C55	C	1.486955	0.390168	0.500068
C56	C	1.736955	0.640168	0.750068
C57	C	0.514993	0.159573	0.000024
C58	C	0.764993	0.409573	0.250024
C59	C	1.014993	0.659573	0.500024
C60	C	1.264993	0.909573	0.750024
C61	C	0.428277	0.158294	0.000030
C62	C	0.678277	0.408294	0.250030
C63	C	0.928277	0.658294	0.500030
C64	C	1.178277	0.908294	0.750030
C65	C	0.448573	0.031076	0.000050
C66	C	0.698573	0.281076	0.250050
C67	C	0.948573	0.531076	0.500050
C68	C	1.198573	0.781076	0.750050
C69	C	0.535287	0.032357	0.000050
C70	C	0.785287	0.282357	0.250050
C71	C	1.035287	0.532357	0.500050
C72	C	1.285287	0.782357	0.750050
C73	C	0.568495	0.096608	0.000033
C74	C	0.818495	0.346608	0.250033
C75	C	1.068495	0.596608	0.500033
C76	C	1.318495	0.846608	0.750033
C77	C	0.395064	0.094047	0.000038
C78	C	0.645064	0.344047	0.250038
C79	C	0.895064	0.594047	0.500038
C80	C	1.145064	0.844047	0.750038
C81	C	0.301043	0.092659	0.000045
C82	C	0.551043	0.342659	0.250045
C83	C	0.801043	0.592659	0.500045
C84	C	1.051043	0.842659	0.750045
C85	C	0.662522	0.097996	0.000028
C86	C	0.912522	0.347996	0.250028
C87	C	1.162522	0.597996	0.500028
C88	C	1.412522	0.847996	0.750028
C89	C	1.062082	-0.154580	0.000078
C90	C	1.312082	0.095420	0.250078
C91	C	1.562082	0.345420	0.500078
C92	C	1.812082	0.595420	0.750078
C93	C	1.060806	-0.227407	0.000063
C94	C	1.310806	0.022593	0.250063
C95	C	1.560806	0.272593	0.500063
C96	C	1.810806	0.522593	0.750063
C97	C	0.984399	-0.255482	0.000057
C98	C	1.234399	-0.005482	0.250057
C99	C	1.484399	0.244518	0.500057
C100	C	1.734399	0.494518	0.750057
C101	C	0.909261	-0.210724	0.000043
C102	C	1.159261	0.039276	0.250043
C103	C	1.409261	0.289276	0.500043
C104	C	1.659261	0.539276	0.750043
C105	C	0.910540	-0.137899	0.000048
C106	C	1.160540	0.112101	0.250048
C107	C	1.410540	0.362101	0.500048
C108	C	1.660540	0.612101	0.750048
N109	N	0.925991	-0.363624	0.051945
N110	N	1.175991	-0.113624	0.301945
N111	N	1.425991	0.136376	0.551945
N112	N	1.675991	0.386376	0.801945
N113	N	0.924782	-0.432805	0.051942
N114	N	1.174782	-0.182805	0.301942
N115	N	1.424782	0.067195	0.551942
N116	N	1.674782	0.317195	0.801942
C117	C	0.980543	-0.474900	0.000038
C118	C	1.230543	-0.224900	0.250038
C119	C	1.480543	0.025100	0.500038
C120	C	1.730543	0.275100	0.750038
N121	N	1.037571	-0.445200	-0.051850
N122	N	1.287571	-0.195200	0.198150
N123	N	1.537571	0.054800	0.448150
N124	N	1.787571	0.304800	0.698150
N125	N	1.038783	-0.376013	-0.051843
N126	N	1.288783	-0.126013	0.198157
N127	N	1.538783	0.123987	0.448157
N128	N	1.788783	0.373987	0.698157
C129	C	0.983004	-0.334448	0.000051
C130	C	1.233004	-0.084448	0.250051
C131	C	1.483004	0.165552	0.500051
C132	C	1.733004	0.415552	0.750051
C133	C	1.054292	-0.598616	0.000030
C134	C	1.304292	-0.348616	0.250030
C135	C	1.554292	-0.098616	0.500030
C136	C	1.804292	0.151384	0.750030
C137	C	1.053012	-0.671443	0.000010
C138	C	1.303012	-0.421443	0.250010
C139	C	1.553012	-0.171443	0.500010
C140	C	1.803012	0.078557	0.750010
C141	C	0.901465	-0.654759	-0.000001
C142	C	1.151465	-0.404759	0.249999
C143	C	1.401465	-0.154759	0.499999
C144	C	1.651465	0.095241	0.749999
C145	C	0.902747	-0.581933	0.000010
C146	C	1.152747	-0.331933	0.250010
C147	C	1.402747	-0.081933	0.500010
C148	C	1.652747	0.168067	0.750010
C149	C	0.979162	-0.553866	0.000030
C150	C	1.229162	-0.303866	0.250030
C151	C	1.479162	-0.053866	0.500030
C152	C	1.729162	0.196134	0.750030
C153	C	1.133802	0.090196	0.000047
C154	C	1.383802	0.340196	0.250047
C155	C	1.633802	0.590196	0.500047
C156	C	1.883802	0.840196	0.750047
C157	C	1.226093	0.091552	0.000046
C158	C	1.476093	0.341552	0.250046
C159	C	1.726093	0.591552	0.500046
C160	C	1.976093	0.841552	0.750046
C161	C	0.975246	0.222979	0.000017
C162	C	1.225246	0.472979	0.250017
C163	C	1.475246	0.722979	0.500017
C164	C	1.725246	0.972979	0.750017
C165	C	0.976604	0.300486	0.000003
C166	C	1.226604	0.550486	0.250003
C167	C	1.476604	0.800486	0.500003
C168	C	1.726604	1.050486	0.750003
N169	N	0.981773	0.095325	0.217034
N170	N	1.231773	0.345325	0.467034
N171	N	1.481773	0.595325	0.717034
N172	N	1.731773	0.845325	0.967034
N173	N	0.981793	0.095325	-0.216955
N174	N	1.231793	0.345325	0.033045
N175	N	1.481793	0.595325	0.283045
N176	N	1.731793	0.845325	0.533045
C177	C	1.038486	0.047862	0.452052
C178	C	1.288486	0.297862	0.702052
C179	C	1.538486	0.547862	0.952052
C180	C	1.788486	0.797862	1.202052
C181	C	1.038488	0.047860	0.548034
C182	C	1.288488	0.297860	0.798034
C183	C	1.538488	0.547860	1.048034
C184	C	1.788488	0.797860	1.298034
C185	C	0.925074	0.142790	0.548020
C186	C	1.175074	0.392790	0.798020
C187	C	1.425074	0.642790	1.048020
C188	C	1.675074	0.892790	1.298020
C189	C	0.925068	0.142787	0.452040
C190	C	1.175068	0.392787	0.702040
C191	C	1.425068	0.642787	0.952040
C192	C	1.675068	0.892787	1.202040
C193	C	0.981779	0.095324	0.404059
C194	C	1.231779	0.345324	0.654059
C195	C	1.481779	0.595324	0.904059
C196	C	1.731779	0.845324	1.154059
C197	C	0.981787	0.095325	0.596020
C198	C	1.231787	0.345325	0.846020
C199	C	1.481787	0.595325	1.096020
C200	C	1.731787	0.845325	1.346020
C201	C	0.981789	0.095323	0.700087
C202	C	1.231789	0.345323	0.950087
C203	C	1.481789	0.595323	1.200087
C204	C	1.731789	0.845323	1.450087
C205	C	0.981776	0.095325	0.299985
C206	C	1.231776	0.345325	0.549985
C207	C	1.481776	0.595325	0.799985
C208	C	1.731776	0.845325	1.049985
H209	H	0.542027	0.211890	0.000017
H210	H	0.792027	0.461890	0.250017
H211	H	1.042027	0.711890	0.500017
H212	H	1.292027	0.961890	0.750017
Br213	Br	1.115449	-0.016553	0.386938
Br214	Br	1.365449	0.233447	0.636938
Br215	Br	1.615449	0.483447	0.886938
Br216	Br	1.865449	0.733447	1.136938
H217	H	1.084663	0.009211	0.587107
H218	H	1.334663	0.259211	0.837107
H219	H	1.584663	0.509211	1.087107
H220	H	1.834663	0.759211	1.337107
Br221	Br	1.154980	-0.732176	0.000013
Br222	Br	1.404980	-0.482176	0.250013
Br223	Br	1.654980	-0.232176	0.500013
Br224	Br	1.904980	0.017824	0.750013
Br225	Br	0.797767	-0.692853	-0.000018
Br226	Br	1.047767	-0.442853	0.249982
Br227	Br	1.297767	-0.192853	0.499982
Br228	Br	1.547767	0.057147	0.749982
Br229	Br	0.848097	0.207199	0.386899
Br230	Br	1.098097	0.457199	0.636899
Br231	Br	1.348097	0.707199	0.886899
Br232	Br	1.598097	0.957199	1.136899
Br233	Br	0.848113	0.207203	0.613140
Br234	Br	1.098113	0.457203	0.863140
Br235	Br	1.348113	0.707203	1.113140
Br236	Br	1.598113	0.957203	1.363140
Br237	Br	0.800782	-0.521198	-0.000001
Br238	Br	1.050782	-0.271198	0.249999
Br239	Br	1.300782	-0.021198	0.499999
Br240	Br	1.550782	0.228802	0.749999
Br241	Br	0.355670	0.243751	0.000023
Br242	Br	0.605670	0.493751	0.250023
Br243	Br	0.855670	0.743751	0.500023
Br244	Br	1.105670	0.993751	0.750023
Br245	Br	0.805564	-0.248823	0.000023
Br246	Br	1.055564	0.001177	0.250023
Br247	Br	1.305564	0.251177	0.500023
Br248	Br	1.555564	0.501177	0.750023
Br249	Br	0.808573	-0.077164	0.000033
Br250	Br	1.058573	0.172836	0.250033
Br251	Br	1.308573	0.422836	0.500033
Br252	Br	1.558573	0.672836	0.750033
Br253	Br	0.403500	-0.056116	0.000070
Br254	Br	0.653500	0.193884	0.250070
Br255	Br	0.903500	0.443884	0.500070
Br256	Br	1.153500	0.693884	0.750070
H257	H	0.578851	-0.018920	0.000059
H258	H	0.828851	0.231080	0.250059
H259	H	1.078851	0.481080	0.500059
H260	H	1.328851	0.731080	0.750059
H261	H	1.121986	-0.263848	0.000067
H262	H	1.371986	-0.013848	0.250067
H263	H	1.621986	0.236152	0.500067
H264	H	1.871986	0.486152	0.750067
Br265	Br	1.165788	-0.116492	0.000079
Br266	Br	1.415788	0.133508	0.250079
Br267	Br	1.665788	0.383508	0.500079
Br268	Br	1.915788	0.633508	0.750079
H269	H	1.116514	-0.575763	0.000042
H270	H	1.366514	-0.325763	0.250042
H271	H	1.616514	-0.075763	0.500042
H272	H	1.866514	0.174237	0.750042
