data_functionalizedCrystal
_audit_creation_method	'MofGen! by Chris Wilmer'
_symmetry_space_group_name_H-M	'P1'
_symmetry_Int_Tables_number	1
_symmetry_cell_setting	triclinic
loop_
_symmetry_equiv_pos_as_xyz
  x,y,z
_cell_length_a	11.792254
_cell_length_b	16.776229
_cell_length_c	11.792254
_cell_angle_alpha	89.993192
_cell_angle_beta	84.198598
_cell_angle_gamma	89.993139
loop_
_atom_site_label
_atom_site_type_symbol
_atom_site_fract_x
_atom_site_fract_y
_atom_site_fract_z
O1	O	1.506911	-0.066284	0.155638
O2	O	1.176573	-0.066287	0.171656
O3	O	1.349751	-0.066280	-0.001522
O4	O	1.333733	-0.066291	0.328816
O5	O	1.349728	0.066297	-0.001533
O6	O	1.176550	0.066290	0.171645
O7	O	1.506888	0.066293	0.155627
Zn8	Zn	1.341715	0.087341	0.163634
Zn9	Zn	1.341746	-0.087335	0.163649
O10	O	1.333710	0.066285	0.328805
C11	C	1.134271	0.000001	0.170642
C12	C	1.008257	0.000000	0.167621
C13	C	1.348730	0.000008	-0.043818
C14	C	1.345710	0.000008	-0.169832
C15	C	1.549190	0.000003	0.156642
C16	C	1.675204	-0.000002	0.159662
C17	C	1.777540	-0.000003	0.162116
C18	C	1.905927	-0.000001	0.165184
N19	N	1.341703	0.206552	0.163624
N20	N	1.341767	-0.206546	0.163650
C21	C	1.418410	0.248272	0.086973
C22	C	1.418416	0.331724	0.086972
C23	C	1.341720	0.373455	0.163629
C24	C	1.265005	0.331729	0.240284
C25	C	1.264994	0.248278	0.240278
C26	C	1.265046	0.668276	0.240306
C27	C	1.265065	0.751732	0.240308
C28	C	1.418468	0.751722	0.087000
C29	C	1.418457	0.668271	0.086994
C30	C	1.341738	0.626553	0.163645
C31	C	1.341731	0.536064	0.163643
C32	C	1.341732	0.463942	0.163636
C33	C	1.343256	0.000005	-0.272168
C34	C	1.340188	-0.000003	-0.400555
C35	C	1.334731	-0.000004	0.371102
C36	C	1.337751	-0.000009	0.497115
H37	H	1.480869	0.214301	0.024555
C38	C	1.110722	0.574456	0.263905
C39	C	1.180736	0.622421	0.324572
H40	H	1.058671	0.546148	0.315935
H41	H	1.156393	0.537665	0.218256
H42	H	1.069605	0.607030	0.216393
H43	H	1.221860	0.589847	0.372078
H44	H	1.135060	0.659216	0.370241
H45	H	1.480914	0.634297	0.024577
H46	H	1.202551	0.365710	0.302695
H47	H	1.202530	0.214310	0.302694
H48	H	1.480876	0.365692	0.024556
H49	H	1.480933	0.785698	0.024583
H50	H	1.202605	0.785708	0.302733
