data_functionalizedCrystal
_audit_creation_method	'MofGen! by Chris Wilmer'
_symmetry_space_group_name_H-M	'P1'
_symmetry_Int_Tables_number	1
_symmetry_cell_setting	triclinic
loop_
_symmetry_equiv_pos_as_xyz
  x,y,z
_cell_length_a	15.995292
_cell_length_b	14.044220
_cell_length_c	13.101039
_cell_angle_alpha	86.332523
_cell_angle_beta	86.641931
_cell_angle_gamma	91.671253
loop_
_atom_site_label
_atom_site_type_symbol
_atom_site_fract_x
_atom_site_fract_y
_atom_site_fract_z
O1	O	1.124339	-0.116681	-0.085245
O2	O	0.881688	-0.131826	-0.085242
O3	O	0.999371	0.013730	-0.085233
O4	O	1.006656	-0.262236	-0.085254
O5	O	0.990928	0.003269	0.085196
O6	O	0.873246	-0.142287	0.085187
O7	O	1.115896	-0.127141	0.085184
Zn8	Zn	0.993231	-0.136375	0.112245
Zn9	Zn	1.004354	-0.122592	-0.112303
O10	O	0.998214	-0.272697	0.085175
C11	C	0.846225	-0.136440	-0.000027
C12	C	0.753134	-0.134592	-0.000025
C13	C	0.414889	-0.127798	-0.000036
C14	C	0.446067	-0.232832	-0.000424
C15	C	0.542873	-0.234853	-0.000036
C16	C	0.582696	-0.131169	-0.000031
C17	C	0.544850	-0.084618	0.097293
C18	C	0.447961	-0.083358	0.097370
C19	C	0.457546	-0.069317	-0.096440
C20	C	0.554393	-0.073132	-0.097722
C21	C	0.677534	-0.133069	-0.000025
C22	C	0.320051	-0.125895	-0.000035
C23	C	0.991961	0.043813	-0.000018
C24	C	0.982450	0.149037	-0.000017
C25	C	1.151359	-0.122527	-0.000034
C26	C	1.244451	-0.124375	-0.000042
C27	C	1.005624	-0.302780	-0.000042
C28	C	1.015135	-0.408003	-0.000050
N29	N	0.985645	-0.145780	0.265493
C30	C	0.965062	0.341695	-0.000031
C31	C	1.032519	0.399344	-0.000036
C32	C	1.022844	0.506546	-0.000044
C33	C	0.974736	0.234483	-0.000023
N34	N	1.011945	-0.113179	-0.265551
C35	C	0.975326	-0.158586	0.474535
C36	C	1.022262	-0.100377	0.525414
C37	C	1.016520	-0.107502	0.641732
C38	C	0.981067	-0.151462	0.358206
H39	H	0.568427	-0.271700	-0.069804
H40	H	1.097540	0.368193	-0.000105
N41	N	1.081213	-0.027285	0.467412
H42	H	1.065549	0.038843	0.486021
H43	H	1.076993	-0.032574	0.391354
H44	H	0.564046	-0.125539	0.169717
N45	N	0.878942	0.382954	-0.000032
H46	H	0.884152	0.454797	-0.000034
H47	H	0.844408	0.356917	0.063154
N48	N	0.916398	-0.231693	0.532536
H49	H	0.857037	-0.219757	0.513946
H50	H	0.920672	-0.226451	0.608592
H51	H	0.416619	-0.277362	0.068973
N52	N	0.417476	-0.280731	-0.092874
H53	H	0.354247	-0.282460	-0.091445
H54	H	0.438141	-0.348039	-0.091677
N55	N	0.566758	-0.295350	0.092529
H56	H	0.543536	-0.267223	0.156918
H57	H	0.629817	-0.296906	0.093077
N58	N	0.411262	-0.137457	0.193731
H59	H	0.430195	-0.205489	0.195372
H60	H	0.348090	-0.137110	0.194689
N61	N	0.420756	0.018305	0.103240
H62	H	0.446393	0.058570	0.042073
H63	H	0.439988	0.044469	0.168286
N64	N	0.579277	0.016149	0.102108
H65	H	0.619835	0.032633	0.041100
H66	H	0.609288	0.021344	0.167336
H67	H	0.579386	-0.106956	-0.169721
N68	N	0.428212	-0.106910	-0.194153
H69	H	0.443171	-0.176072	-0.197368
H70	H	0.456363	-0.068318	-0.254979
N71	N	0.590956	0.027595	-0.105511
H72	H	0.654142	0.025913	-0.109849
H73	H	0.571461	0.061195	-0.042940
N74	N	0.431412	0.033170	-0.097312
H75	H	0.392137	0.041721	-0.035598
H76	H	0.401997	0.049779	-0.161919
