data_functionalizedCrystal
_audit_creation_method	'MofGen! by Chris Wilmer'
_symmetry_space_group_name_H-M	'P1'
_symmetry_Int_Tables_number	1
_symmetry_cell_setting	triclinic
loop_
_symmetry_equiv_pos_as_xyz
  x,y,z
_cell_length_a	18.050589
_cell_length_b	16.120530
_cell_length_c	16.120256
_cell_angle_alpha	90.128265
_cell_angle_beta	92.877403
_cell_angle_gamma	87.123928
loop_
_atom_site_label
_atom_site_type_symbol
_atom_site_fract_x
_atom_site_fract_y
_atom_site_fract_z
Zn1	Zn	-0.376262	1.247404	-0.534589
Zn2	Zn	-0.494483	1.254344	-0.395538
Zn3	Zn	-0.363709	1.115396	-0.388506
Zn4	Zn	-0.493803	1.108300	-0.527508
O5	O	-0.432065	1.181361	-0.461535
O6	O	-0.397483	1.364690	-0.522050
O7	O	-0.472167	1.241786	-0.278239
O8	O	-0.261454	1.132972	-0.407905
O9	O	-0.484340	1.369789	-0.419890
O10	O	-0.270677	1.229958	-0.515232
O11	O	-0.376088	1.139701	-0.273073
O12	O	-0.375428	0.998089	-0.401038
O13	O	-0.483180	1.120879	-0.644814
O14	O	-0.471007	0.992875	-0.503162
O15	O	-0.396823	1.223078	-0.650016
O16	O	-0.598314	1.234905	-0.413024
O17	O	-0.597814	1.127608	-0.509981
C18	C	-0.421782	0.965310	-0.450569
C19	C	-0.417402	0.872881	-0.445898
C20	C	-0.409388	0.703652	-0.437376
C21	C	-0.454798	0.659907	-0.485756
C22	C	-0.450339	0.565742	-0.481014
C23	C	-0.413846	0.797826	-0.442116
C24	C	-0.625011	1.181261	-0.461516
C25	C	-0.707560	1.181293	-0.461540
C26	C	-0.906767	1.123000	-0.514249
C27	C	-0.951987	1.106577	-0.437343
C28	C	-0.858694	1.181374	-0.461555
C29	C	-0.960558	1.197838	-0.538472
C30	C	-1.004684	1.181451	-0.461576
C31	C	-0.902823	1.164914	-0.384607
C32	C	-0.911394	1.256206	-0.485789
C33	C	-0.956591	1.239815	-0.408832
C34	C	-0.774593	1.181328	-0.461544
C35	C	-1.088783	1.181498	-0.461579
C36	C	-0.238366	1.181483	-0.461574
C37	C	-0.155823	1.181535	-0.461590
C38	C	-0.441326	1.170413	-0.678431
C39	C	-0.445273	1.165747	-0.770859
C40	C	-0.442388	1.398256	-0.472545
C41	C	-0.446787	1.490683	-0.477236
C42	C	-0.411464	1.205689	-0.983841
C43	C	-0.452447	1.157201	-0.940079
C44	C	-0.448454	1.161958	-0.845916
C45	C	-0.415455	1.200934	-1.078013
C46	C	-0.422788	1.192314	-0.245486
C47	C	-0.418639	1.197141	-0.153067
H48	H	-0.884892	1.073570	-0.558741
O49	O	-0.353462	0.659589	-0.377795
H50	H	-0.320879	0.706158	-0.343084
H51	H	-0.373382	1.250770	-0.950590
H52	H	-0.497023	0.693175	-0.530737
O53	O	-0.975802	1.022800	-0.410189
H54	H	-0.955853	0.974416	-0.454013
H55	H	-0.877689	1.150945	-0.319546
O56	O	-0.985384	1.305255	-0.349754
H57	H	-0.962028	1.291422	-0.285995
O58	O	-0.887723	1.340064	-0.512868
H59	H	-0.910987	1.353594	-0.576725
H60	H	-0.985778	1.211732	-0.603511
H61	H	-0.490527	1.112113	-0.973333
