data_functionalizedCrystal
_audit_creation_method	'MofGen! by Chris Wilmer'
_symmetry_space_group_name_H-M	'P1'
_symmetry_Int_Tables_number	1
_symmetry_cell_setting	triclinic
loop_
_symmetry_equiv_pos_as_xyz
  x,y,z
_cell_length_a	19.077236
_cell_length_b	19.077068
_cell_length_c	11.169409
_cell_angle_alpha	92.259065
_cell_angle_beta	87.675582
_cell_angle_gamma	94.708605
loop_
_atom_site_label
_atom_site_type_symbol
_atom_site_fract_x
_atom_site_fract_y
_atom_site_fract_z
Zn1	Zn	1.066490	-0.237380	-0.768037
Zn2	Zn	1.566490	0.262620	-0.268037
Zn3	Zn	1.061653	-0.355294	-0.575071
Zn4	Zn	1.561653	0.144706	-0.075071
Zn5	Zn	0.948590	-0.242148	-0.559595
Zn6	Zn	1.448590	0.257852	-0.059595
Zn7	Zn	0.943826	-0.359959	-0.767937
Zn8	Zn	1.443826	0.140041	-0.267937
O9	O	1.005140	-0.298695	-0.667660
O10	O	1.505140	0.201305	-0.167660
O11	O	1.164501	-0.249073	-0.748958
O12	O	1.664501	0.250927	-0.248958
O13	O	1.046624	-0.340328	-0.405069
O14	O	1.546624	0.159672	0.094931
O15	O	0.968248	-0.142864	-0.580810
O16	O	1.468248	0.357136	-0.080810
O17	O	1.160947	-0.335704	-0.607187
O18	O	1.660947	0.164296	-0.107187
O19	O	1.054868	-0.139361	-0.733952
O20	O	1.554868	0.360639	-0.233952
O21	O	0.963557	-0.257201	-0.393699
O22	O	1.463557	0.242799	0.106301
O23	O	0.849306	-0.261724	-0.580713
O24	O	1.349306	0.238276	-0.080713
O25	O	0.960129	-0.343656	-0.935899
O26	O	1.460129	0.156344	-0.435899
O27	O	0.845806	-0.348279	-0.733781
O28	O	1.345806	0.151721	-0.233781
O29	O	1.050249	-0.253597	-0.935973
O30	O	1.550249	0.246403	-0.435973
O31	O	1.042005	-0.454564	-0.607090
O32	O	1.542005	0.045436	-0.107090
O33	O	0.955438	-0.457992	-0.748788
O34	O	1.455438	0.042008	-0.248788
C35	C	0.821976	-0.306026	-0.655558
C36	C	1.321976	0.193974	-0.155558
C37	C	0.743617	-0.309179	-0.650410
C38	C	1.243617	0.190821	-0.150410
C39	C	0.708652	-0.265628	-0.721926
C40	C	1.208652	0.234372	-0.221926
C41	C	0.635026	-0.268587	-0.717079
C42	C	1.135026	0.231413	-0.217079
C43	C	0.596366	-0.315102	-0.640720
C44	C	1.096366	0.184898	-0.140720
C45	C	0.631336	-0.358655	-0.569196
C46	C	1.131336	0.141345	-0.069196
C47	C	0.704961	-0.355692	-0.574038
C48	C	1.204961	0.144308	-0.074038
C49	C	0.375972	-0.328790	-0.618305
C50	C	0.875972	0.171210	-0.118305
C51	C	0.302342	-0.331752	-0.613471
C52	C	0.802342	0.168248	-0.113471
C53	C	0.306037	-0.241683	-0.761353
C54	C	0.806037	0.258317	-0.261353
C55	C	0.379663	-0.238727	-0.766193
C56	C	0.879663	0.261273	-0.266193
C57	C	0.414627	-0.282277	-0.694664
C58	C	0.914627	0.217723	-0.194664
N59	N	0.521108	-0.318129	-0.635767
N60	N	1.021108	0.181871	-0.135767
N61	N	0.489884	-0.279245	-0.699613
N62	N	0.989884	0.220755	-0.199613
C63	C	0.997699	-0.481857	-0.679634
C64	C	1.497699	0.018143	-0.179634
C65	C	0.994580	-0.560211	-0.684802
C66	C	1.494580	-0.060211	-0.184802
C67	C	1.038221	-0.595213	-0.613521
C68	C	1.538221	-0.095213	-0.113521
C69	C	1.035291	-0.668835	-0.618388
C70	C	1.535291	-0.168835	-0.118388
C71	C	0.988718	-0.707455	-0.694531
C72	C	1.488718	-0.207455	-0.194531
C73	C	0.945076	-0.672448	-0.765820
C74	C	1.445076	-0.172448	-0.265820
C75	C	0.948009	-0.598827	-0.760958
C76	C	1.448009	-0.098827	-0.260958
C77	C	0.975112	-0.927833	-0.716982
C78	C	1.475112	-0.427833	-0.216982
C79	C	0.972180	-1.001459	-0.721836
C80	C	1.472180	-0.501459	-0.221836
C81	C	1.062397	-0.997841	-0.574405
C82	C	1.562397	-0.497841	-0.074405
C83	C	1.065323	-0.924219	-0.569544
C84	C	1.565323	-0.424219	-0.069544
C85	C	1.021684	-0.889218	-0.640838
C86	C	1.521684	-0.389218	-0.140838
N87	N	0.985721	-0.782709	-0.699505
N88	N	1.485721	-0.282709	-0.199505
N89	N	1.024685	-0.813966	-0.635869
N90	N	1.524685	-0.313966	-0.135869
C91	C	1.189019	-0.291337	-0.679810
C92	C	1.689019	0.208663	-0.179810
C93	C	1.267377	-0.288201	-0.684987
C94	C	1.767377	0.211799	-0.184987
C95	C	1.005197	-0.298615	-0.980701
C96	C	1.505197	0.201385	-0.480701
C97	C	1.005222	-0.298581	-1.114100
C98	C	1.505222	0.201419	-0.614100
C99	C	1.012629	-0.114818	-0.655666
C100	C	1.512629	0.385182	-0.155666
C101	C	1.015821	-0.036461	-0.650555
C102	C	1.515821	0.463539	-0.150555
C103	C	1.005125	-0.298723	-0.355836
C104	C	1.505125	0.201277	0.144164
C105	C	1.005246	-0.298553	-0.222433
C106	C	1.505246	0.201447	0.277567
H107	H	0.411135	-0.200852	-0.828377
H108	H	0.911135	0.299148	-0.328377
H109	H	0.939577	-0.899341	-0.775029
H110	H	1.439577	-0.399341	-0.275029
N111	N	1.109472	-1.035593	-0.497532
N112	N	1.609472	-0.535593	0.002468
H113	H	1.139422	-0.999956	-0.448561
H114	H	1.639422	-0.499956	0.051439
H115	H	1.079577	-1.067342	-0.442074
H116	H	1.579577	-0.567342	0.057926
H117	H	1.076143	-0.563774	-0.551512
H118	H	1.576143	-0.063774	-0.051512
N119	N	0.900942	-0.561071	-0.837843
N120	N	1.400942	-0.061071	-0.337843
H121	H	0.870992	-0.596706	-0.886816
H122	H	1.370992	-0.096706	-0.386816
H123	H	0.869547	-0.531882	-0.784779
H124	H	1.369547	-0.031882	-0.284779
H125	H	0.270866	-0.369633	-0.551291
H126	H	0.770866	0.130367	-0.051291
N127	N	0.894844	-0.714098	-0.847951
N128	N	1.394844	-0.214098	-0.347951
H129	H	0.899605	-0.766048	-0.840213
H130	H	1.399605	-0.266048	-0.340213
H131	H	0.845012	-0.703296	-0.825028
H132	H	1.345012	-0.203296	-0.325028
H133	H	0.277561	-0.206226	-0.819586
H134	H	0.777561	0.293774	-0.319586
N135	N	0.750347	-0.215463	-0.804293
N136	N	1.250347	0.284537	-0.304293
H137	H	0.717022	-0.188322	-0.848860
H138	H	1.217022	0.311678	-0.348860
H139	H	0.782205	-0.181577	-0.755405
H140	H	1.282205	0.318423	-0.255405
H141	H	0.606561	-0.233125	-0.775317
H142	H	1.106561	0.266875	-0.275317
H143	H	0.404431	-0.364253	-0.560062
H144	H	0.904431	0.135747	-0.060062
N145	N	0.589643	-0.408818	-0.486824
N146	N	1.089643	0.091182	0.013176
H147	H	0.537695	-0.404088	-0.494608
H148	H	1.037695	0.095912	0.005392
H149	H	0.600477	-0.458661	-0.509496
H150	H	1.100477	0.041339	-0.009496
H151	H	0.934263	-1.032901	-0.783862
H152	H	1.434263	-0.532901	-0.283862
H153	H	0.733429	-0.391155	-0.515801
H154	H	1.233429	0.108845	-0.015801
N155	N	1.082360	-0.706588	-0.541507
N156	N	1.582360	-0.206588	-0.041507
H157	H	1.112306	-0.670952	-0.492527
H158	H	1.612306	-0.170952	0.007473
H159	H	1.052459	-0.738337	-0.486056
H160	H	1.552459	-0.238337	0.013944
H161	H	1.103247	-0.892776	-0.507543
H162	H	1.603247	-0.392776	-0.007543
