data_functionalizedCrystal
_audit_creation_method	'MofGen! by Chris Wilmer'
_symmetry_space_group_name_H-M	'P1'
_symmetry_Int_Tables_number	1
_symmetry_cell_setting	triclinic
loop_
_symmetry_equiv_pos_as_xyz
  x,y,z
_cell_length_a	9.065218
_cell_length_b	7.540329
_cell_length_c	9.065215
_cell_angle_alpha	90.002642
_cell_angle_beta	85.015325
_cell_angle_gamma	90.005135
loop_
_atom_site_label
_atom_site_type_symbol
_atom_site_fract_x
_atom_site_fract_y
_atom_site_fract_z
O1	O	-1.960396	-0.147569	-0.216356
O2	O	-1.627063	0.185764	0.116977
O3	O	-1.293729	0.519097	0.450311
O4	O	-1.531111	-0.147553	-0.234102
O5	O	-1.197778	0.185781	0.099231
O6	O	-0.864444	0.519114	0.432564
O7	O	-1.754629	-0.147554	-0.010587
O8	O	-1.421296	0.185780	0.322747
O9	O	-1.087962	0.519113	0.656080
O10	O	-1.736878	-0.147568	-0.439872
O11	O	-1.403545	0.185765	-0.106539
O12	O	-1.070211	0.519098	0.226795
O13	O	-1.754616	0.147411	-0.010584
O14	O	-1.421282	0.480745	0.322750
O15	O	-1.087949	0.814078	0.656083
O16	O	-1.531098	0.147412	-0.234099
O17	O	-1.197764	0.480746	0.099234
O18	O	-0.864431	0.814079	0.432567
O19	O	-1.960383	0.147396	-0.216353
O20	O	-1.627049	0.480729	0.116980
O21	O	-1.293716	0.814062	0.450314
Cu22	Cu	-1.745739	0.174337	-0.225226
Cu23	Cu	-1.412406	0.507670	0.108107
Cu24	Cu	-1.079072	0.841003	0.441441
Cu25	Cu	-1.745755	-0.174494	-0.225229
Cu26	Cu	-1.412421	0.158840	0.108104
Cu27	Cu	-1.079088	0.492173	0.441437
O28	O	-1.736865	0.147397	-0.439869
O29	O	-1.403531	0.480730	-0.106536
O30	O	-1.070198	0.814063	0.226798
C31	C	-1.476118	-0.000068	-0.232395
C32	C	-1.142784	0.333265	0.100938
C33	C	-0.809451	0.666599	0.434271
C34	C	-1.312275	-0.000062	-0.227296
C35	C	-0.978942	0.333272	0.106038
C36	C	-0.645608	0.666605	0.439371
C37	C	-1.752917	-0.000073	0.044402
C38	C	-1.419584	0.333260	0.377735
C39	C	-1.086251	0.666594	0.711068
C40	C	-1.747819	-0.000078	0.208245
C41	C	-1.414486	0.333255	0.541578
C42	C	-1.081153	0.666588	0.874911
N43	N	-1.745738	0.419685	-0.225223
N44	N	-1.412405	0.753019	0.108111
N45	N	-1.079072	1.086352	0.441444
C46	C	-1.015376	-0.000082	-0.218060
C47	C	-0.682043	0.333252	0.115273
C48	C	-0.348709	0.666585	0.448607
C49	C	-1.179219	-0.000067	-0.223159
C50	C	-0.845885	0.333266	0.110174
C51	C	-0.512552	0.666600	0.443507
N52	N	-1.745767	-0.419842	-0.225221
N53	N	-1.412433	-0.086509	0.108112
N54	N	-1.079100	0.246825	0.441446
C55	C	-1.738576	-0.000088	-0.494857
C56	C	-1.405243	0.333245	-0.161524
C57	C	-1.071910	0.666579	0.171810
C58	C	-1.743674	-0.000094	-0.658700
C59	C	-1.410341	0.333239	-0.325367
C60	C	-1.077008	0.666572	0.007966
