data_functionalizedCrystal
_audit_creation_method	'MofGen! by Chris Wilmer'
_symmetry_space_group_name_H-M	'P1'
_symmetry_Int_Tables_number	1
_symmetry_cell_setting	triclinic
loop_
_symmetry_equiv_pos_as_xyz
  x,y,z
_cell_length_a	13.897449
_cell_length_b	13.033615
_cell_length_c	13.033429
_cell_angle_alpha	105.197869
_cell_angle_beta	82.838309
_cell_angle_gamma	97.186198
loop_
_atom_site_label
_atom_site_type_symbol
_atom_site_fract_x
_atom_site_fract_y
_atom_site_fract_z
Zn1	Zn	1.370042	-0.346479	0.546888
Zn2	Zn	1.369962	-0.546694	0.346728
Zn3	Zn	1.226901	-0.369099	0.369286
Zn4	Zn	1.190574	-0.524059	0.524300
O5	O	1.289370	-0.446583	0.446800
O6	O	1.505011	-0.373045	0.520348
O7	O	1.366154	-0.542074	0.201079
O8	O	1.261126	-0.217456	0.411739
O9	O	1.504952	-0.520141	0.373292
O10	O	1.366291	-0.200838	0.542222
O11	O	1.261048	-0.411596	0.217652
O12	O	1.087103	-0.389648	0.389836
O13	O	1.199212	-0.481564	0.675938
O14	O	1.060414	-0.503497	0.503725
O15	O	1.331066	-0.351097	0.692533
O16	O	1.330929	-0.692333	0.351390
O17	O	1.199133	-0.675703	0.481851
C18	C	1.261104	-0.722556	0.411745
C19	C	1.249097	-0.840615	0.396784
C20	C	1.038759	-0.446572	0.446778
C21	C	0.931542	-0.446589	0.446790
C22	C	1.261096	-0.411283	0.723854
C23	C	1.249047	-0.396240	0.841918
C24	C	0.735244	-0.446589	0.446818
C25	C	0.844479	-0.446586	0.446800
C26	C	1.540959	-0.446595	0.446823
C27	C	1.648171	-0.446600	0.446833
C28	C	1.317770	-0.169528	0.482016
C29	C	1.329872	-0.051464	0.497023
C30	C	1.283234	-0.007050	0.439153
C31	C	1.295741	0.114975	0.454662
C32	C	1.317597	-0.481669	0.170834
C33	C	1.329863	-0.496413	0.052809
C34	C	1.283232	-0.438559	1.008374
C35	C	1.295685	-0.454101	0.886349
H36	H	1.234042	-0.059364	0.378130
Cl37	Cl	1.405745	-0.590646	0.972077
Cl38	Cl	1.371684	0.195733	0.548895
H39	H	1.199898	0.107077	0.335759
H40	H	1.344836	-0.515138	0.834058
H41	H	1.379056	0.000849	0.558053
Cl42	Cl	1.173173	-0.301989	0.922645
H43	H	1.234092	-0.377519	1.060670
