data_functionalizedCrystal
_audit_creation_method	'MofGen! by Chris Wilmer'
_symmetry_space_group_name_H-M	'P1'
_symmetry_Int_Tables_number	1
_symmetry_cell_setting	triclinic
loop_
_symmetry_equiv_pos_as_xyz
  x,y,z
_cell_length_a	23.204063
_cell_length_b	23.204065
_cell_length_c	23.204116
_cell_angle_alpha	59.997987
_cell_angle_beta	89.998953
_cell_angle_gamma	60.000253
loop_
_atom_site_label
_atom_site_type_symbol
_atom_site_fract_x
_atom_site_fract_y
_atom_site_fract_z
O1	O	-0.491197	-0.412484	0.017135
O2	O	-0.407392	-0.294473	-0.017070
O3	O	-0.407389	-0.412483	0.100940
O4	O	-0.491200	-0.294474	-0.100875
O5	O	-0.311538	-0.508333	0.100940
O6	O	-0.311541	-0.390323	-0.017071
O7	O	-0.395346	-0.508335	0.017135
Cu8	Cu	-0.344692	-0.458081	0.000032
Cu9	Cu	-0.458046	-0.344727	0.000033
O10	O	-0.395349	-0.390324	-0.100876
C11	C	-0.310652	-0.181456	-0.024838
C12	C	-0.346214	-0.110333	-0.019942
C13	C	-0.241294	-0.215971	-0.025323
C14	C	-0.310655	-0.285810	-0.024846
C15	C	-0.346219	-0.326263	-0.019957
C16	C	-0.241297	-0.320167	-0.025331
C17	C	-0.206293	-0.285815	-0.024838
C18	C	-0.130274	-0.326273	-0.019941
C19	C	-0.345497	-0.215967	-0.025331
C20	C	-0.658540	-0.590043	0.035860
C21	C	-0.734559	-0.549588	0.030967
C22	C	-0.623539	-0.659889	0.036349
C23	C	-0.554183	-0.590040	0.035855
C24	C	-0.518621	-0.549582	0.030958
C25	C	-0.519339	-0.659886	0.036344
C26	C	-0.554182	-0.694402	0.035859
C27	C	-0.518619	-0.765527	0.030967
C28	C	-0.623539	-0.555686	0.036345
C29	C	-0.489889	-0.822989	0.027012
C30	C	-0.795974	-0.516903	0.027013
C31	C	-0.489891	-0.516895	0.027000
C32	C	-0.453845	-0.895077	0.022052
C33	C	-0.873022	-0.475899	0.022054
C34	C	-0.453848	-0.475888	0.022036
C35	C	-0.554187	-0.212776	-0.445775
C36	C	-0.518624	-0.253233	-0.481336
C37	C	-0.623545	-0.142931	-0.480619
C38	C	-0.554188	-0.212775	-0.341416
C39	C	-0.518626	-0.253231	-0.265397
C40	C	-0.623546	-0.142930	-0.376419
C41	C	-0.658547	-0.108416	-0.445777
C42	C	-0.734566	-0.037291	-0.481340
C43	C	-0.519344	-0.247131	-0.376417
C44	C	-0.795982	0.020169	-0.510072
C45	C	-0.489893	-0.285920	-0.510065
C46	C	-0.489896	-0.285917	-0.203980
C47	C	-0.873032	0.092257	-0.546117
C48	C	-0.453848	-0.326925	-0.546108
C49	C	-0.453852	-0.326922	-0.126930
O50	O	0.100922	-0.508345	0.017151
O51	O	-0.100892	-0.390333	-0.017055
O52	O	0.017109	-0.508348	0.100956
O53	O	-0.017080	-0.390330	-0.100860
O54	O	0.017112	-0.412502	0.100963
O55	O	-0.100890	-0.294486	-0.017048
O56	O	0.100924	-0.412499	0.017158
Cu57	Cu	0.000018	-0.344741	0.000056
Cu58	Cu	0.000014	-0.458090	0.000048
O59	O	-0.017077	-0.294483	-0.100853
O60	O	-0.395342	0.083766	0.017156
O61	O	-0.311534	-0.083842	-0.017048
O62	O	-0.311538	-0.083852	0.100962
O63	O	-0.395338	0.083777	-0.100854
O64	O	-0.407391	-0.083849	0.100954
O65	O	-0.407387	-0.083839	-0.017056
O66	O	-0.491195	0.083770	0.017149
Cu67	Cu	-0.458043	-0.000034	0.000046
Cu68	Cu	-0.344686	-0.000038	0.000055
O69	O	-0.491191	0.083780	-0.100861
O70	O	-1.100901	0.281028	-0.592582
O71	O	-0.899087	0.113413	-0.508770
O72	O	-1.017091	0.113409	-0.508767
O73	O	-0.982897	0.281032	-0.592584
O74	O	-1.017088	0.113407	-0.604617
O75	O	-0.899085	0.113411	-0.604619
O76	O	-1.100898	0.281026	-0.688432
Cu77	Cu	-0.999991	0.197218	-0.655277
Cu78	Cu	-0.999994	0.197221	-0.541924
O79	O	-0.982895	0.281030	-0.688434
O80	O	-0.407389	-0.412483	-0.688416
O81	O	-0.491197	-0.294477	-0.604610
O82	O	-0.491195	-0.412486	-0.604605
O83	O	-0.407390	-0.294474	-0.688421
O84	O	-0.395343	-0.508338	-0.508754
O85	O	-0.395345	-0.390329	-0.508759
O86	O	-0.311537	-0.508334	-0.592565
Cu87	Cu	-0.344689	-0.458084	-0.541910
Cu88	Cu	-0.458045	-0.344728	-0.655265
O89	O	-0.311539	-0.390326	-0.592570
C90	C	-0.206294	-0.621360	0.310702
C91	C	-0.130275	-0.692485	0.346265
C92	C	-0.241296	-0.586846	0.345545
C93	C	-0.310654	-0.517001	0.206342
C94	C	-0.346216	-0.476544	0.130323
C95	C	-0.345497	-0.482645	0.241343
C96	C	-0.310653	-0.517001	0.310701
C97	C	-0.346216	-0.476544	0.346263
C98	C	-0.241296	-0.586846	0.241345
C99	C	0.024887	-0.517030	0.310724
C100	C	0.019993	-0.476577	0.346290
C101	C	0.025371	-0.586874	0.345565
C102	C	0.024889	-0.517022	0.206362
C103	C	0.019998	-0.476562	0.130342
C104	C	0.025374	-0.586867	0.241361
C105	C	0.024884	-0.621384	0.310718
C106	C	0.019987	-0.692509	0.346278
C107	C	0.025377	-0.482671	0.241366
C108	C	-0.310656	-0.285855	0.310709
C109	C	-0.346220	-0.326314	0.346266
C110	C	-0.241298	-0.320218	0.345555
C111	C	-0.310655	-0.181484	0.206357
C112	C	-0.346217	-0.110348	0.130340
C113	C	-0.241296	-0.216005	0.241362
C114	C	-0.206295	-0.285860	0.310717
C115	C	-0.130275	-0.326323	0.346282
C116	C	-0.345499	-0.216001	0.241354
C117	C	-0.035774	-0.108410	-0.445754
C118	C	-0.030877	-0.037285	-0.481314
C119	C	-0.036262	-0.142920	-0.480600
C120	C	-0.035780	-0.212771	-0.341397
C121	C	-0.030889	-0.253231	-0.265377
C122	C	-0.036268	-0.247124	-0.376401
C123	C	-0.035777	-0.212765	-0.445759
C124	C	-0.030883	-0.253218	-0.481324
C125	C	-0.036265	-0.142927	-0.376396
C126	C	-0.026928	-0.285901	-0.510056
C127	C	-0.026920	0.020175	-0.510042
C128	C	-0.026936	-0.285920	-0.203961
C129	C	-0.021967	-0.326903	-0.546103
C130	C	-0.021955	0.092262	-0.546083
C131	C	-0.021978	-0.326928	-0.126911
O132	O	-0.017120	-0.390358	0.491266
O133	O	0.017098	-0.508368	0.407461
O134	O	-0.100916	-0.390357	0.407446
O135	O	0.100893	-0.508369	0.491281
O136	O	-0.100904	-0.294507	0.311599
O137	O	0.017110	-0.412518	0.311614
O138	O	-0.017109	-0.294509	0.395420
Cu139	Cu	0.000001	-0.344761	0.344766
Cu140	Cu	-0.000012	-0.458115	0.458115
O141	O	0.100905	-0.412519	0.395435
C142	C	-0.658539	0.410016	-0.445751
C143	C	-0.734559	0.450479	-0.481316
C144	C	-0.623536	0.444375	-0.480590
C145	C	-0.554179	0.305641	-0.341392
C146	C	-0.518616	0.234505	-0.265374
C147	C	-0.519335	0.340158	-0.376388
C148	C	-0.554178	0.410013	-0.445743
C149	C	-0.518614	0.450471	-0.481300
C150	C	-0.623537	0.340162	-0.376396
C151	C	-0.489883	0.483159	-0.510025
C152	C	-0.795975	0.483170	-0.510049
C153	C	-0.489886	0.177036	-0.203959
C154	C	-0.453838	0.524167	-0.546063
C155	C	-0.873025	0.524182	-0.546095
C156	C	-0.453842	0.104937	-0.126912
H157	H	-0.402486	-0.187075	-0.026121
O158	O	-0.451395	-0.694292	0.037157
C159	C	-0.370474	-0.733756	-0.022240
C160	C	-0.447448	-0.694759	-0.023259
H161	H	-0.367255	-0.734162	-0.071073
H162	H	-0.351457	-0.697059	-0.022031
H163	H	-0.335712	-0.798976	0.027175
H164	H	-0.482264	-0.629543	-0.072667
H165	H	-0.466407	-0.731517	-0.023430
H166	H	-0.213192	-0.615736	0.402533
O167	O	-0.657164	-0.488569	0.037180
C168	C	-0.755962	-0.348207	-0.022292
C169	C	-0.717967	-0.424160	-0.023313
H170	H	-0.805120	-0.296107	-0.071202
H171	H	-0.771878	-0.362749	0.027057
H172	H	-0.718978	-0.329520	-0.021994
H173	H	-0.754912	-0.442886	-0.023637
H174	H	-0.702039	-0.409576	-0.072657
O175	O	-0.656959	-0.108548	-0.342807
C176	C	-0.649171	-0.115005	-0.235932
C177	C	-0.611242	-0.154014	-0.273916
H178	H	-0.612230	-0.151757	-0.180223
H179	H	-0.664994	-0.049779	-0.266350
H180	H	-0.698395	-0.114629	-0.233092
H181	H	-0.561994	-0.154448	-0.276765
H182	H	-0.595472	-0.219219	-0.243485
H183	H	-0.402481	-0.426435	0.213235
O184	O	-0.656960	-0.108554	-0.548612
C185	C	-0.649095	-0.114868	-0.649099
C186	C	-0.611188	-0.153917	-0.572085
H187	H	-0.612100	-0.151516	-0.668106
H188	H	-0.698308	-0.114501	-0.652425
H189	H	-0.664928	-0.049632	-0.683801
H190	H	-0.595308	-0.219167	-0.537337
H191	H	-0.562006	-0.154220	-0.568816
O192	O	-0.451349	-0.314158	-0.343002
C193	C	-0.350931	-0.413245	-0.350789
C194	C	-0.427925	-0.337331	-0.388719
H195	H	-0.331973	-0.432013	-0.387730
H196	H	-0.316122	-0.398650	-0.334969
H197	H	-0.347715	-0.465309	-0.301563
H198	H	-0.431209	-0.285233	-0.437971
H199	H	-0.462698	-0.351992	-0.404487
O200	O	-0.657165	-0.694244	0.037278
C201	C	-0.763992	-0.687880	0.038751
C202	C	-0.726008	-0.648870	0.037669
H203	H	-0.819653	-0.651222	0.039083
H204	H	-0.766939	-0.688220	-0.010110
H205	H	-0.733480	-0.753124	0.088139
H206	H	-0.756489	-0.583612	-0.011687
H207	H	-0.723053	-0.648595	0.086563
H208	H	-0.037054	-0.303326	-0.348299
H209	H	-0.213184	-0.615720	0.213239
H210	H	0.026169	-0.615754	0.213258
O211	O	-0.037117	-0.108409	-0.548559
C212	C	-0.038419	-0.000216	-0.648967
C213	C	-0.037466	-0.039203	-0.572013
H214	H	-0.038717	0.055754	-0.667958
H215	H	0.010474	-0.046188	-0.652172
H216	H	-0.087776	0.018678	-0.683761
H217	H	0.011858	-0.058096	-0.537173
H218	H	-0.086392	0.006795	-0.568864
O219	O	-0.207698	-0.181607	-0.026183
C220	C	-0.108937	-0.199408	0.033222
C221	C	-0.146878	-0.238456	0.034289
H222	H	-0.059765	-0.245347	0.082115
H223	H	-0.093049	-0.180493	-0.016143
H224	H	-0.145945	-0.143446	0.032924
H225	H	-0.109910	-0.294445	0.034612
H226	H	-0.162779	-0.257313	0.083649
O227	O	-0.451381	0.305688	-0.342761
C228	C	-0.370480	0.266330	-0.243952
C229	C	-0.447458	0.305359	-0.281949
H230	H	-0.367286	0.266067	-0.194787
H231	H	-0.335680	0.201068	-0.228044
H232	H	-0.351492	0.303015	-0.280932
H233	H	-0.466512	0.268739	-0.245009
H234	H	-0.482211	0.370628	-0.297869
O235	O	0.026173	-0.621228	0.413507
C236	C	-0.033257	-0.603290	0.494410
C237	C	-0.034257	-0.564292	0.417441
H238	H	-0.082102	-0.557270	0.497619
H239	H	-0.033040	-0.659218	0.513421
H240	H	0.016145	-0.622243	0.529185
H241	H	-0.083652	-0.545289	0.382612
H242	H	-0.034437	-0.508399	0.398488
H243	H	0.026162	-0.426467	0.213269
H244	H	-0.213195	-0.187119	0.213260
O245	O	-0.207875	-0.387209	0.413569
C246	C	-0.207634	-0.444968	0.533533
C247	C	-0.245566	-0.369053	0.456537
H248	H	-0.238083	-0.430311	0.568297
H249	H	-0.204759	-0.497077	0.536809
H250	H	-0.151940	-0.463704	0.552502
H251	H	-0.301276	-0.350244	0.437520
H252	H	-0.248384	-0.316992	0.453306
H253	H	-0.402486	-0.187114	0.213252
O254	O	-0.037239	-0.108344	-0.342983
C255	C	-0.038582	-0.000131	-0.350772
C256	C	-0.037491	-0.039200	-0.388700
H257	H	-0.038772	0.055769	-0.387713
H258	H	-0.087989	0.018856	-0.334956
H259	H	0.010261	-0.046139	-0.301543
H260	H	-0.086301	0.006764	-0.437953
H261	H	0.011947	-0.058205	-0.404463
H262	H	-0.651648	0.311288	-0.348296
O263	O	-0.207809	-0.387279	-0.026173
C264	C	-0.166252	-0.527638	0.033283
C265	C	-0.204205	-0.451692	0.034315
H266	H	-0.163314	-0.579740	0.082190
H267	H	-0.196714	-0.513086	-0.016069
H268	H	-0.110582	-0.546325	0.032984
H269	H	-0.259876	-0.432965	0.034640
H270	H	-0.173690	-0.466286	0.083662
O271	O	-0.657181	0.511473	-0.548553
C272	C	-0.764051	0.610563	-0.648978
C273	C	-0.726034	0.534576	-0.572016
H274	H	-0.819720	0.629254	-0.667976
H275	H	-0.766976	0.662669	-0.652195
H276	H	-0.733574	0.595982	-0.683757
H277	H	-0.756480	0.549078	-0.537190
H278	H	-0.723101	0.482493	-0.568854
