data_functionalizedCrystal
_audit_creation_method	'MofGen! by Chris Wilmer'
_symmetry_space_group_name_H-M	'P1'
_symmetry_Int_Tables_number	1
_symmetry_cell_setting	triclinic
loop_
_symmetry_equiv_pos_as_xyz
  x,y,z
_cell_length_a	15.297476
_cell_length_b	15.299816
_cell_length_c	15.296720
_cell_angle_alpha	69.242954
_cell_angle_beta	88.383492
_cell_angle_gamma	72.651764
loop_
_atom_site_label
_atom_site_type_symbol
_atom_site_fract_x
_atom_site_fract_y
_atom_site_fract_z
Zn1	Zn	1.356903	-0.745280	0.873603
Zn2	Zn	1.856903	-0.245280	1.373603
Zn3	Zn	1.401316	-0.883172	0.754315
Zn4	Zn	1.901316	-0.383172	1.254315
Zn5	Zn	1.228310	-0.691484	0.691232
Zn6	Zn	1.728310	-0.191484	1.191232
Zn7	Zn	1.228236	-0.873760	0.873586
Zn8	Zn	1.728236	-0.373760	1.373586
O9	O	1.303691	-0.798424	0.798184
O10	O	1.803691	-0.298424	1.298184
O11	O	1.489046	-0.790025	0.884187
O12	O	1.989046	-0.290025	1.384187
O13	O	1.396985	-0.839169	0.619709
O14	O	1.896985	-0.339169	1.119709
O15	O	1.226812	-0.564630	0.689031
O16	O	1.726812	-0.064630	1.189031
O17	O	1.521676	-0.891333	0.796546
O18	O	2.021676	-0.391333	1.296546
O19	O	1.321289	-0.604153	0.823018
O20	O	1.821289	-0.104153	1.323018
O21	O	1.269878	-0.698337	0.573362
O22	O	1.769878	-0.198337	1.073362
O23	O	1.102049	-0.689211	0.689014
O24	O	1.602049	-0.189211	1.189014
O25	O	1.226686	-0.875292	0.999826
O26	O	1.726686	-0.375292	1.499826
O27	O	1.101994	-0.823128	0.822989
O28	O	1.601994	-0.323128	1.322989
O29	O	1.321217	-0.780898	0.999838
O30	O	1.821217	-0.280898	1.499838
O31	O	1.396912	-1.015914	0.796530
O32	O	1.896912	-0.515914	1.296530
O33	O	1.269751	-1.008999	0.884157
O34	O	1.769751	-0.508999	1.384157
C35	C	1.069286	-0.749311	0.749155
C36	C	1.569286	-0.249311	1.249155
C37	C	0.969006	-0.728327	0.728206
C38	C	1.469006	-0.228327	1.228206
C39	C	0.921873	-0.648653	0.648678
C40	C	1.421873	-0.148653	1.148678
C41	C	0.827655	-0.628934	0.628993
C42	C	1.327655	-0.128934	1.128993
C43	C	0.780560	-0.688884	0.688838
C44	C	1.280560	-0.188884	1.188838
C45	C	0.827691	-0.768556	0.768371
C46	C	1.327691	-0.268556	1.268371
C47	C	0.921920	-0.788281	0.788054
C48	C	1.421920	-0.288281	1.288054
C49	C	0.780607	-0.828512	0.828215
C50	C	1.280607	-0.328512	1.328215
C51	C	0.827738	-0.908184	0.907748
C52	C	1.327738	-0.408184	1.407748
C53	C	0.921957	-0.927904	0.927428
C54	C	1.421957	-0.427904	1.427428
C55	C	0.969053	-0.867955	0.867583
C56	C	1.469053	-0.367955	1.367583
C57	C	0.686378	-0.808787	0.808532
C58	C	1.186378	-0.308787	1.308532
C59	C	0.686425	-0.948415	0.947909
C60	C	1.186425	-0.448415	1.447909
C61	C	0.780643	-0.968133	0.967594
C62	C	1.280643	-0.468133	1.467594
C63	C	1.338165	-1.047207	0.847212
C64	C	1.838165	-0.547207	1.347212
C65	C	1.352990	-1.153659	0.868234
C66	C	1.852990	-0.653659	1.368234
C67	C	1.198275	-1.371746	0.648368
C68	C	1.698275	-0.871746	1.148368
C69	C	1.184340	-1.271728	0.628618
C70	C	1.684340	-0.771728	1.128618
C71	C	1.226502	-1.242206	0.688520
C72	C	1.726502	-0.742206	1.188520
C73	C	1.282600	-1.312711	0.768176
C74	C	1.782600	-0.812711	1.268176
C75	C	1.296530	-1.412739	0.787931
C76	C	1.796530	-0.912739	1.287931
C77	C	1.324757	-1.283198	0.828084
C78	C	1.824757	-0.783198	1.328084
C79	C	1.380855	-1.353704	0.907739
C80	C	1.880855	-0.853704	1.407739
C81	C	1.394783	-1.453721	0.927491
C82	C	1.894783	-0.953721	1.427491
C83	C	1.352622	-1.483243	0.867589
C84	C	1.852622	-0.983243	1.367589
C85	C	1.310827	-1.183171	0.808328
C86	C	1.810827	-0.683171	1.308328
C87	C	1.409082	-1.224164	0.947892
C88	C	1.909082	-0.724164	1.447892
C89	C	1.423017	-1.324182	0.967641
C90	C	1.923017	-0.824182	1.467641
C91	C	1.539012	-0.847729	0.847405
C92	C	2.039012	-0.347729	1.347405
C93	C	1.639292	-0.868740	0.868380
C94	C	2.139292	-0.368740	1.368380
C95	C	1.268989	-0.833046	1.033479
C96	C	1.768989	-0.333046	1.533479
C97	C	1.254201	-0.847800	1.133748
C98	C	1.754201	-0.347800	1.633748
C99	C	1.269105	-0.548678	0.748989
C100	C	1.769105	-0.048678	1.248989
C101	C	1.254366	-0.442251	0.728025
C102	C	1.754366	0.057749	1.228025
C103	C	1.338301	-0.763878	0.563801
C104	C	1.838301	-0.263878	1.063801
C105	C	1.353226	-0.748891	0.463516
C106	C	1.853226	-0.248891	0.963516
C107	C	1.409394	-0.692815	1.416419
C108	C	1.909394	-0.192815	1.916419
C109	C	1.423294	-0.678956	1.322213
C110	C	1.923294	-0.178956	1.822213
C111	C	1.381022	-0.721165	1.275092
C112	C	1.881022	-0.221165	1.775092
C113	C	1.324848	-0.777237	1.322187
C114	C	1.824848	-0.277237	1.822187
C115	C	1.310952	-0.791104	1.416404
C116	C	1.810952	-0.291104	1.916404
C117	C	1.282580	-0.819454	1.275077
C118	C	1.782580	-0.319454	1.775077
C119	C	1.226405	-0.875526	1.322172
C120	C	1.726405	-0.375526	1.822172
C121	C	1.212511	-0.889390	1.416380
C122	C	1.712511	-0.389390	1.916380
C123	C	1.254784	-0.847180	1.463501
C124	C	1.754784	-0.347180	1.963501
C125	C	1.296475	-0.805587	1.180860
C126	C	1.796475	-0.305587	1.680860
C127	C	1.198033	-0.903876	1.180845
C128	C	1.698033	-0.403876	1.680845
C129	C	1.184133	-0.917736	1.275051
C130	C	1.684133	-0.417736	1.775051
H131	H	0.648080	-0.997231	0.996639
H132	H	1.148080	-0.497231	1.496639
H133	H	1.392343	-0.709878	1.198385
H134	H	1.892343	-0.209878	1.698385
F135	F	1.453955	-1.192750	1.011649
F136	F	1.953955	-0.692750	1.511649
H137	H	1.045772	-0.884004	0.883607
H138	H	1.545772	-0.384004	1.383607
F139	F	1.153045	-0.948807	1.130702
F140	F	1.653045	-0.448807	1.630702
F141	F	1.211384	-1.135742	0.667695
F142	F	1.711384	-0.635742	1.167695
F143	F	0.972119	-1.012708	1.012067
F144	F	1.472119	-0.512708	1.512067
H145	H	1.163948	-1.395794	0.599607
H146	H	1.663948	-0.895794	1.099607
F147	F	0.636228	-0.723996	0.723889
F148	F	1.136228	-0.223996	1.223889
H149	H	1.265151	-1.125774	0.743472
H150	H	1.765151	-0.625774	1.243472
F151	F	0.830816	-1.052927	1.052233
F152	F	1.330816	-0.552927	1.552233
F153	F	1.124629	-1.196698	0.543852
F154	F	1.624629	-0.696698	1.043852
H155	H	1.469034	-0.633305	1.283876
H156	H	1.969034	-0.133305	1.783876
F157	F	1.152740	-0.949083	1.466505
F158	F	1.652740	-0.449083	1.966505
F159	F	1.454385	-0.647909	1.466577
F160	F	1.954385	-0.147909	1.966577
F161	F	1.356258	-0.745913	1.130749
F162	F	1.856258	-0.245913	1.630749
F163	F	1.239997	-0.861932	1.563769
F164	F	1.739997	-0.361932	2.063769
F165	F	1.124350	-0.977411	1.325184
F166	F	1.624350	-0.477411	1.825184
H167	H	0.960228	-0.599855	0.599956
H168	H	1.460228	-0.099855	1.099956
F169	F	1.454471	-1.528755	1.012280
F170	F	1.954471	-1.028755	1.512280
F171	F	0.680284	-0.667893	0.667887
F172	F	1.180284	-0.167893	1.167887
F173	F	0.777500	-0.544142	0.544353
F174	F	1.277500	-0.044142	1.044353
H175	H	1.363968	-1.564685	0.883663
H176	H	1.863968	-1.064685	1.383663
H177	H	1.468692	-1.381601	1.032498
H178	H	1.968692	-0.881601	1.532498
