data_functionalizedCrystal
_audit_creation_method	'MofGen! by Chris Wilmer'
_symmetry_space_group_name_H-M	'P1'
_symmetry_Int_Tables_number	1
_symmetry_cell_setting	triclinic
loop_
_symmetry_equiv_pos_as_xyz
  x,y,z
_cell_length_a	17.038272
_cell_length_b	15.538191
_cell_length_c	14.750522
_cell_angle_alpha	72.474743
_cell_angle_beta	76.695267
_cell_angle_gamma	69.191825
loop_
_atom_site_label
_atom_site_type_symbol
_atom_site_fract_x
_atom_site_fract_y
_atom_site_fract_z
O1	O	-0.990377	-0.219003	0.079698
O2	O	-0.490377	0.280997	0.579698
O3	O	-0.763650	-0.215833	0.079726
O4	O	-0.263650	0.284167	0.579726
O5	O	-0.921148	-0.083825	0.079711
O6	O	-0.421148	0.416175	0.579711
O7	O	-0.832879	-0.351011	0.079713
O8	O	-0.332879	0.148989	0.579713
O9	O	-0.901654	-0.045776	-0.079943
O10	O	-0.401654	0.454224	0.420057
O11	O	-0.744156	-0.177784	-0.079928
O12	O	-0.244156	0.322216	0.420072
O13	O	-0.970882	-0.180953	-0.079956
O14	O	-0.470882	0.319047	0.420044
Zn15	Zn	-0.854424	-0.173327	-0.105290
Zn16	Zn	-0.354424	0.326673	0.394710
Zn17	Zn	-0.880109	-0.223459	0.105061
Zn18	Zn	-0.380109	0.276541	0.605061
O19	O	-0.813384	-0.312961	-0.079941
O20	O	-0.313384	0.187039	0.420059
C21	C	-0.725594	-0.193921	-0.000097
C22	C	-0.225594	0.306079	0.499903
C23	C	-0.641247	-0.185306	-0.000086
C24	C	-0.141247	0.314694	0.499914
C25	C	-0.920637	-0.030446	-0.000114
C26	C	-0.420637	0.469554	0.499886
C27	C	-0.948146	0.071922	-0.000108
C28	C	-0.448146	0.571922	0.499892
C29	C	-1.008939	-0.202866	-0.000131
C30	C	-0.508939	0.297134	0.499869
C31	C	-1.093287	-0.211483	-0.000135
C32	C	-0.593287	0.288517	0.499865
C33	C	-0.568695	-0.264429	-0.000086
C34	C	-0.068695	0.235571	0.499914
C35	C	-0.489441	-0.256323	-0.000099
C36	C	0.010559	0.243677	0.499901
C37	C	-0.482740	-0.169094	-0.000106
C38	C	0.017260	0.330906	0.499894
C39	C	-0.555299	-0.089964	-0.000108
C40	C	-0.055299	0.410036	0.499892
C41	C	-0.634551	-0.098069	-0.000102
C42	C	-0.134551	0.401931	0.499898
C43	C	-0.245098	-0.140458	-0.000131
C44	C	0.254902	0.359542	0.499869
C45	C	-0.165838	-0.132359	-0.000135
C46	C	0.334162	0.367641	0.499865
C47	C	-0.099985	-0.298719	-0.000128
C48	C	0.400015	0.201281	0.499872
C49	C	-0.179242	-0.306818	-0.000116
C50	C	0.320758	0.193182	0.499884
C51	C	-0.251793	-0.227687	-0.000123
C52	C	0.248207	0.272313	0.499877
C53	C	-0.401731	-0.160807	-0.000116
C54	C	0.098269	0.339193	0.499884
C55	C	-0.332800	-0.235973	-0.000120
C56	C	0.167200	0.264027	0.499880
C57	C	-0.813896	-0.366341	-0.000114
C58	C	-0.313896	0.133659	0.499886
C59	C	-0.786387	-0.468711	-0.000113
C60	C	-0.286387	0.031289	0.499887
N61	N	-0.836900	-0.139114	-0.248849
N62	N	-0.336900	0.360886	0.251151
C63	C	-0.674853	0.381611	-0.000094
C64	C	-0.174853	0.881611	0.499906
C65	C	-0.700720	0.477805	-0.000099
C66	C	-0.200720	0.977805	0.499901
C67	C	-0.846221	0.488592	-0.000117
C68	C	-0.346221	0.988592	0.499883
C69	C	-0.820366	0.392396	-0.000107
C70	C	-0.320366	0.892396	0.499893
C71	C	-0.734681	0.338913	-0.000097
C72	C	-0.234681	0.838913	0.499903
C73	C	-0.880194	0.349697	-0.000110
C74	C	-0.380194	0.849697	0.499890
C75	C	-0.854341	0.253511	-0.000105
C76	C	-0.354341	0.753511	0.499895
C77	C	-0.768659	0.200022	-0.000097
C78	C	-0.268659	0.700022	0.499903
C79	C	-0.708827	0.242726	-0.000092
C80	C	-0.208827	0.742726	0.499908
C81	C	-0.965878	0.403183	-0.000127
C82	C	-0.465878	0.903183	0.499873
C83	C	-1.025706	0.360485	-0.000130
C84	C	-0.525706	0.860485	0.499870
C85	C	-0.999854	0.264295	-0.000118
C86	C	-0.499854	0.764295	0.499882
C87	C	-0.914172	0.210807	-0.000110
C88	C	-0.414172	0.710807	0.499890
C89	C	-1.059685	0.221591	-0.000123
C90	C	-0.559685	0.721591	0.499877
C91	C	-1.033832	0.125405	-0.000118
C92	C	-0.533832	0.625405	0.499882
C93	C	-0.888318	0.114620	-0.000105
C94	C	-0.388318	0.614620	0.499895
C95	C	-0.946511	-0.353240	-0.600647
C96	C	-0.446511	0.146760	-0.100647
C97	C	-0.934253	-0.329253	-0.701148
C98	C	-0.434253	0.170747	-0.201148
C99	C	-0.873266	-0.210042	-0.701122
C100	C	-0.373266	0.289958	-0.201122
C101	C	-0.885514	-0.234023	-0.600619
C102	C	-0.385514	0.265977	-0.100619
C103	C	-0.922138	-0.305622	-0.550389
C104	C	-0.422138	0.194378	-0.050389
C105	C	-0.861142	-0.186404	-0.550361
C106	C	-0.361142	0.313596	-0.050361
C107	C	-0.873393	-0.210380	-0.449866
C108	C	-0.373393	0.289620	0.050134
C109	C	-0.910018	-0.281974	-0.399630
C110	C	-0.410018	0.218026	0.100370
C111	C	-0.934390	-0.329597	-0.449894
C112	C	-0.434390	0.170403	0.050106
C113	C	-0.824524	-0.114801	-0.600593
C114	C	-0.324524	0.385199	-0.100593
C115	C	-0.800151	-0.067182	-0.550335
C116	C	-0.300151	0.432818	-0.050335
C117	C	-0.812397	-0.091162	-0.449839
C118	C	-0.312397	0.408838	0.050161
C119	C	-0.849021	-0.162757	-0.399602
C120	C	-0.349021	0.337243	0.100398
C121	C	-0.788025	-0.043539	-0.399574
C122	C	-0.288025	0.456461	0.100426
C123	C	-0.800277	-0.067515	-0.299079
C124	C	-0.300277	0.432485	0.200921
C125	C	-0.861273	-0.186732	-0.299107
C126	C	-0.361273	0.313268	0.200893
N127	N	-0.897640	-0.257666	0.248620
N128	N	-0.397640	0.242334	0.748620
H129	H	-0.574141	-0.335460	-0.000080
H130	H	-0.074141	0.164540	0.499920
H131	H	-0.780428	-0.028740	-0.258158
H132	H	-0.280428	0.471260	0.241842
H133	H	-1.082550	0.090640	-0.000121
H134	H	-0.582550	0.590640	0.499879
Br135	Br	-0.619514	0.535753	-0.000106
Br136	Br	-0.119514	1.035753	0.499894
Br137	Br	-0.910986	-0.283896	-0.230928
Br138	Br	-0.410986	0.216104	0.269072
H139	H	-0.758214	0.014764	-0.440486
H140	H	-0.258214	0.514764	0.059514
Br141	Br	-0.343550	-0.033064	-0.000144
Br142	Br	0.156450	0.466936	0.499856
Br143	Br	-0.984103	-0.426761	-0.381716
Br144	Br	-0.484103	0.073239	0.118284
H145	H	-0.915986	0.532151	-0.000130
H146	H	-0.415986	1.032151	0.499870
Br147	Br	-0.188330	-0.425207	-0.000096
Br148	Br	0.311670	0.074793	0.499904
Br149	Br	-0.750450	0.029986	-0.618512
Br150	Br	-0.250450	0.529986	-0.118512
Br151	Br	-0.390979	-0.363711	-0.000096
Br152	Br	0.109021	0.136289	0.499904
H153	H	-0.040907	-0.363142	-0.000123
H154	H	0.459093	0.136858	0.499877
H155	H	-0.549836	-0.018937	-0.000127
H156	H	-0.049836	0.481063	0.499873
Br157	Br	-0.772031	0.042024	-0.000077
Br158	Br	-0.272031	0.542024	0.499923
Br159	Br	-1.175965	0.294191	-0.000161
Br160	Br	-0.675965	0.794191	0.499839
Br161	Br	-0.156745	-0.013965	-0.000164
Br162	Br	0.343255	0.486035	0.499836
H163	H	-0.976322	-0.411553	-0.559747
H164	H	-0.476322	0.088447	-0.059747
Br165	Br	-0.967344	-0.393879	-0.769354
Br166	Br	-0.467344	0.106121	-0.269354
H167	H	-0.693625	-0.033638	-0.000101
H168	H	-0.193625	0.466362	0.499899
H169	H	-0.396263	-0.089778	-0.000148
H170	H	0.103737	0.410222	0.499852
H171	H	-0.919994	-0.301492	-0.317800
H172	H	-0.419994	0.198508	0.182200
Br173	Br	-0.592540	0.170130	-0.000063
Br174	Br	-0.092540	0.670130	0.499937
H175	H	-0.843450	-0.151743	-0.742033
H176	H	-0.343450	0.348257	-0.242033
H177	H	-0.747610	0.121703	-0.000098
H178	H	-0.247610	0.621703	0.499902
Br179	Br	-0.558566	0.309015	-0.000066
Br180	Br	-0.058566	0.809015	0.499934
H181	H	-0.986926	0.481502	-0.000122
H182	H	-0.486926	0.981502	0.499878
Br183	Br	-1.141988	0.433079	-0.000155
Br184	Br	-0.641988	0.933079	0.499845
Br185	Br	-0.807909	-0.082251	-0.736980
Br186	Br	-0.307909	0.417749	-0.236980
H187	H	-0.338259	-0.306993	-0.000120
H188	H	0.161741	0.193007	0.499880
