data_functionalizedCrystal
_audit_creation_method	'MofGen! by Chris Wilmer'
_symmetry_space_group_name_H-M	'P1'
_symmetry_Int_Tables_number	1
_symmetry_cell_setting	triclinic
loop_
_symmetry_equiv_pos_as_xyz
  x,y,z
_cell_length_a	16.959455
_cell_length_b	12.645330
_cell_length_c	16.959447
_cell_angle_alpha	89.971796
_cell_angle_beta	89.985299
_cell_angle_gamma	90.012074
loop_
_atom_site_label
_atom_site_type_symbol
_atom_site_fract_x
_atom_site_fract_y
_atom_site_fract_z
Zn1	Zn	1.208425	-0.422035	-0.446928
Zn2	Zn	1.708425	0.077965	0.053072
Zn3	Zn	1.208364	-0.599326	-0.314755
Zn4	Zn	1.708364	-0.099326	0.185245
Zn5	Zn	1.076253	-0.422076	-0.314765
Zn6	Zn	1.576253	0.077924	0.185235
Zn7	Zn	1.076235	-0.599255	-0.446892
Zn8	Zn	1.576235	-0.099255	0.053108
O9	O	1.142319	-0.510673	-0.380835
O10	O	1.642319	-0.010673	0.119165
O11	O	1.319027	-0.445566	-0.429406
O12	O	1.819027	0.054434	0.070594
O13	O	1.190822	-0.575861	-0.204145
O14	O	1.690822	-0.075861	0.295855
O15	O	1.093819	-0.273723	-0.332316
O16	O	1.593819	0.226277	0.167684
O17	O	1.318983	-0.575821	-0.332299
O18	O	1.818983	-0.075821	0.167701
O19	O	1.190925	-0.273693	-0.429416
O20	O	1.690925	0.226307	0.070584
O21	O	1.093760	-0.445635	-0.204153
O22	O	1.593760	0.054365	0.295847
O23	O	0.965640	-0.445566	-0.332281
O24	O	1.465640	0.054434	0.167719
O25	O	1.093788	-0.575699	-0.557508
O26	O	1.593788	-0.075699	-0.057508
O27	O	0.965626	-0.575739	-0.429355
O28	O	1.465626	-0.075739	0.070645
O29	O	1.190907	-0.445496	-0.557534
O30	O	1.690907	0.054504	-0.057534
O31	O	1.190804	-0.747664	-0.332264
O32	O	1.690804	-0.247664	0.167736
O33	O	1.093729	-0.747611	-0.429345
O34	O	1.593729	-0.247611	0.070655
C35	C	0.936953	-0.510650	-0.380816
C36	C	1.436953	-0.010650	0.119184
C37	C	0.849096	-0.510665	-0.380826
C38	C	1.349096	-0.010665	0.119174
C39	C	0.807797	-0.578387	-0.330195
C40	C	1.307797	-0.078387	0.169805
C41	C	0.807842	-0.442952	-0.431464
C42	C	1.307842	0.057048	0.068536
C43	C	0.725296	-0.442961	-0.431473
C44	C	1.225296	0.057039	0.068527
C45	C	0.683997	-0.510682	-0.380842
C46	C	1.183997	-0.010682	0.119158
C47	C	0.725244	-0.578395	-0.330201
C48	C	1.225244	-0.078395	0.169799
C49	C	0.684043	-0.375241	-0.482107
C50	C	1.184043	0.124759	0.017893
C51	C	0.601492	-0.375246	-0.482118
C52	C	1.101492	0.124754	0.017882
C53	C	0.560191	-0.442974	-0.431490
C54	C	1.060191	0.057026	0.068510
C55	C	0.601443	-0.510690	-0.380848
C56	C	1.101443	-0.010690	0.119152
C57	C	0.560144	-0.578412	-0.330217
C58	C	1.060144	-0.078412	0.169783
C59	C	0.601395	-0.646134	-0.279578
C60	C	1.101395	-0.146134	0.220422
C61	C	0.683943	-0.646123	-0.279573
C62	C	1.183943	-0.146123	0.220427
C63	C	0.477643	-0.442985	-0.431495
C64	C	0.977643	0.057015	0.068505
C65	C	0.477591	-0.578420	-0.330223
C66	C	0.977591	-0.078420	0.169777
C67	C	1.142280	-0.786103	-0.380816
C68	C	1.642280	-0.286103	0.119184
C69	C	1.142335	-0.903933	-0.380835
C70	C	1.642335	-0.403933	0.119165
C71	C	1.203307	-1.071485	-0.319637
C72	C	1.703307	-0.571485	0.180363
C73	C	1.203505	-0.948925	-0.319787
C74	C	1.703505	-0.448925	0.180213
C75	C	1.164917	-0.948313	-0.464154
C76	C	1.664917	-0.448313	0.035846
C77	C	1.165401	-1.070911	-0.463829
C78	C	1.665401	-0.570911	0.036171
C79	C	1.058757	-1.071259	-0.359535
C80	C	1.558757	-0.571259	0.140465
C81	C	1.059158	-0.948655	-0.357666
C82	C	1.559158	-0.448655	0.142334
C83	C	1.348487	-0.510697	-0.380855
C84	C	1.848487	-0.010697	0.119145
C85	C	1.436344	-0.510707	-0.380864
C86	C	1.936344	-0.010707	0.119136
C87	C	1.142352	-0.510585	-0.587003
C88	C	1.642352	-0.010585	-0.087003
C89	C	1.142366	-0.510548	-0.674860
C90	C	1.642366	-0.010548	-0.174860
C91	C	1.142380	-0.234168	-0.380871
C92	C	1.642380	0.265832	0.119129
C93	C	1.142407	-0.116337	-0.380887
C94	C	1.642407	0.383663	0.119113
C95	C	1.091895	-0.578226	-1.046325
C96	C	1.591895	-0.078226	-0.546325
C97	C	1.193026	-0.442645	-1.046347
C98	C	1.693026	0.057355	-0.546347
C99	C	1.193005	-0.442668	-0.963801
C100	C	1.693005	0.057332	-0.463801
C101	C	1.142429	-0.510472	-0.922513
C102	C	1.642429	-0.010472	-0.422513
C103	C	1.091874	-0.578253	-0.963771
C104	C	1.591874	-0.078253	-0.463771
C105	C	1.243565	-0.374895	-0.922537
C106	C	1.743565	0.125105	-0.422537
C107	C	1.243546	-0.374916	-0.839986
C108	C	1.743546	0.125084	-0.339986
C109	C	1.192966	-0.442715	-0.798697
C110	C	1.692966	0.057285	-0.298697
C111	C	1.142408	-0.510498	-0.839960
C112	C	1.642408	-0.010498	-0.339960
C113	C	1.091832	-0.578302	-0.798671
C114	C	1.591832	-0.078302	-0.298671
C115	C	1.041270	-0.646081	-0.839933
C116	C	1.541270	-0.146081	-0.339933
C117	C	1.041293	-0.646053	-0.922481
C118	C	1.541293	-0.146053	-0.422481
C119	C	1.192942	-0.442744	-0.716148
C120	C	1.692942	0.057256	-0.216148
C121	C	1.091811	-0.578329	-0.716118
C122	C	1.591811	-0.078329	-0.216118
C123	C	1.142332	-0.510684	-0.175469
C124	C	1.642332	-0.010684	0.324531
C125	C	1.142471	-0.510422	-0.087613
C126	C	1.642471	-0.010422	0.412387
H127	H	0.841387	-0.633528	-0.288968
H128	H	1.341387	-0.133528	0.211032
Cl129	Cl	1.181775	-1.117121	-0.223972
Cl130	Cl	1.681775	-0.617121	0.276028
Cl131	Cl	0.977740	-0.731258	-0.974357
Cl132	Cl	1.477740	-0.231258	-0.474357
H133	H	0.444060	-0.387839	-0.472718
H134	H	0.944060	0.112161	0.027282
Cl135	Cl	1.099884	-1.116717	-0.536681
Cl136	Cl	1.599884	-0.616717	-0.036681
Cl137	Cl	1.259802	-1.114937	-0.491750
Cl138	Cl	1.759802	-0.614937	0.008250
H139	H	1.234111	-0.387562	-0.682557
H140	H	1.734111	0.112438	-0.182557
H141	H	0.841472	-0.387812	-0.472682
H142	H	1.341472	0.112188	0.027318
H143	H	1.050618	-0.633535	-0.682507
H144	H	1.550618	-0.133535	-0.182507
H145	H	1.189377	-0.918924	-0.258007
H146	H	1.689377	-0.418924	0.241993
Cl147	Cl	1.098514	-0.903326	-0.536501
Cl148	Cl	1.598514	-0.403326	-0.036501
H149	H	1.264931	-1.102216	-0.333602
H150	H	1.764931	-0.602216	0.166398
H151	H	1.234207	-0.387448	-1.079969
H152	H	1.734207	0.112552	-0.579969
Cl153	Cl	0.735806	-0.731247	-0.215916
Cl154	Cl	1.235806	-0.231247	0.284084
Cl155	Cl	1.032862	-0.903882	-0.263002
Cl156	Cl	1.532862	-0.403882	0.236998
Cl157	Cl	0.735964	-0.290112	-0.545753
Cl158	Cl	1.235964	0.209888	-0.045753
Cl159	Cl	0.425679	-0.663566	-0.266572
Cl160	Cl	0.925679	-0.163566	0.233428
Cl161	Cl	1.258253	-0.900784	-0.492546
Cl162	Cl	1.758253	-0.400784	0.007454
H163	H	1.265462	-0.919518	-0.333910
H164	H	1.765462	-0.419518	0.166090
Cl165	Cl	0.549467	-0.731259	-0.215924
Cl166	Cl	1.049467	-0.231259	0.284076
Cl167	Cl	1.027048	-1.119136	-0.267366
Cl168	Cl	1.527048	-0.619136	0.232634
H169	H	0.567913	-0.320104	-0.523352
H170	H	1.067913	0.179896	-0.023352
Cl171	Cl	1.307147	-0.289670	-0.974445
Cl172	Cl	1.807147	0.210330	-0.474445
H173	H	1.011335	-0.918039	-0.399006
H174	H	1.511335	-0.418039	0.100994
H175	H	1.050726	-0.633407	-1.079923
H176	H	1.550726	-0.133407	-0.579923
H177	H	1.013381	-1.100265	-0.404145
H178	H	1.513381	-0.600265	0.095855
H179	H	1.000094	-0.701292	-0.806305
H180	H	1.500094	-0.201292	-0.306305
Cl181	Cl	1.307106	-0.289706	-0.788122
Cl182	Cl	1.807106	0.210294	-0.288122
