data_functionalizedCrystal
_audit_creation_method	'MofGen! by Chris Wilmer'
_symmetry_space_group_name_H-M	'P1'
_symmetry_Int_Tables_number	1
_symmetry_cell_setting	triclinic
loop_
_symmetry_equiv_pos_as_xyz
  x,y,z
_cell_length_a	16.109302
_cell_length_b	10.654559
_cell_length_c	15.186229
_cell_angle_alpha	89.998852
_cell_angle_beta	89.994701
_cell_angle_gamma	83.975233
loop_
_atom_site_label
_atom_site_type_symbol
_atom_site_fract_x
_atom_site_fract_y
_atom_site_fract_z
O1	O	1.104094	0.161423	-0.073263
O2	O	0.862152	0.181510	-0.073256
O3	O	0.988681	-0.011348	-0.073259
O4	O	0.977564	0.354280	-0.073259
O5	O	0.988673	-0.011350	0.073198
O6	O	0.862143	0.181507	0.073202
O7	O	1.104085	0.161420	0.073194
Zn8	Zn	0.983113	0.171463	0.096451
Zn9	Zn	0.983124	0.171467	-0.096513
O10	O	0.977555	0.354277	0.073198
C11	C	0.831168	0.180695	-0.000026
C12	C	0.738858	0.178255	-0.000023
C13	C	0.526478	0.172611	0.079802
C14	C	0.439745	0.170305	0.079799
C15	C	0.439764	0.170315	-0.079877
C16	C	0.526497	0.172612	-0.079873
C17	C	0.569852	0.173766	-0.000031
C18	C	0.396385	0.169163	-0.000038
C19	C	0.302344	0.166663	-0.000042
C20	C	0.663898	0.176265	-0.000027
C21	C	0.987859	-0.058136	-0.000033
C22	C	0.985412	-0.197545	-0.000038
C23	C	0.908613	-0.248043	-0.000038
C24	C	0.906319	-0.379034	-0.000031
C25	C	1.057629	-0.409019	-0.000028
C26	C	1.059923	-0.278030	-0.000029
C27	C	0.834103	-0.167559	-0.000047
C28	C	0.757298	-0.218056	-0.000048
C29	C	0.755004	-0.349047	-0.000041
C30	C	0.829514	-0.429541	-0.000034
C31	C	1.135069	0.162235	-0.000037
C32	C	1.227379	0.164675	-0.000046
C33	C	0.978377	0.401065	-0.000031
C34	C	0.980824	0.540475	-0.000031
N35	N	0.983111	0.171460	0.228144
N36	N	0.983132	0.171460	-0.228205
C37	C	1.039158	0.086091	0.453865
C38	C	1.039160	0.086088	0.546055
C39	C	0.927079	0.256833	0.546067
C40	C	0.927073	0.256829	0.453879
C41	C	0.983117	0.171459	0.407781
C42	C	0.983126	0.171460	0.592158
C43	C	0.983128	0.171458	0.692114
C44	C	0.983114	0.171460	0.307818
H45	H	0.561775	0.173552	0.144814
H46	H	0.835962	-0.060898	-0.000054
H47	H	1.122459	-0.236914	-0.000028
F48	F	1.098804	-0.004774	0.595098
F49	F	0.867421	0.347688	0.404829
H50	H	0.404455	0.169376	-0.144882
H51	H	1.084791	0.016577	0.416334
F52	F	0.572662	0.173833	-0.164847
H53	H	0.881451	0.326340	0.583610
H54	H	0.404434	0.169365	0.144807
H55	H	0.696634	-0.152510	-0.000046
F56	F	0.827069	-0.568954	-0.000016
F57	F	0.673263	-0.402786	-0.000033
F58	F	1.136923	-0.494689	-0.000022
