data_functionalizedCrystal
_audit_creation_method	'MofGen! by Chris Wilmer'
_symmetry_space_group_name_H-M	'P1'
_symmetry_Int_Tables_number	1
_symmetry_cell_setting	triclinic
loop_
_symmetry_equiv_pos_as_xyz
  x,y,z
_cell_length_a	19.288864
_cell_length_b	11.792241
_cell_length_c	18.366186
_cell_angle_alpha	89.993644
_cell_angle_beta	89.977106
_cell_angle_gamma	83.664831
loop_
_atom_site_label
_atom_site_type_symbol
_atom_site_fract_x
_atom_site_fract_y
_atom_site_fract_z
O1	O	0.922157	0.141582	-0.060784
O2	O	0.720005	0.160681	-0.060734
O3	O	0.825987	-0.014113	-0.060755
O4	O	0.816175	0.316377	-0.060763
O5	O	0.825968	-0.014122	0.060345
O6	O	0.719987	0.160673	0.060365
O7	O	0.922139	0.141574	0.060316
Zn8	Zn	0.821060	0.151122	0.079568
Zn9	Zn	0.821084	0.151133	-0.079986
O10	O	0.816157	0.316368	0.060337
C11	C	0.694116	0.160063	-0.000178
C12	C	0.617002	0.158218	-0.000159
C13	C	0.825361	-0.056399	-0.000205
C14	C	0.823517	-0.182385	-0.000206
C15	C	0.572888	0.260779	-0.000173
C16	C	0.500431	0.259046	-0.000181
C17	C	0.472091	0.154746	-0.000189
C18	C	0.516215	0.052171	-0.000171
C19	C	0.588670	0.053907	-0.000156
C20	C	0.363370	0.072757	-0.042638
C21	C	0.290915	0.071025	-0.042658
C22	C	0.248615	0.149387	-0.000233
C23	C	0.278777	0.229500	0.042202
C24	C	0.351232	0.231236	0.042217
C25	C	0.393526	0.152852	-0.000205
C26	C	0.125935	0.250076	-0.000255
C27	C	0.053477	0.248339	-0.000258
C28	C	0.069262	0.041460	-0.000256
C29	C	0.141718	0.043201	-0.000246
C30	C	0.170050	0.147512	-0.000248
C31	C	0.820125	-0.413045	-0.000217
C32	C	0.822009	-0.284689	-0.000211
C33	C	0.948028	0.142192	-0.000242
C34	C	1.025142	0.144037	-0.000266
C35	C	0.816783	0.358654	-0.000214
C36	C	0.818627	0.484640	-0.000219
N37	N	0.821049	0.151113	0.188459
N38	N	0.821101	0.151133	-0.188877
C39	C	0.867993	0.073752	0.226550
C40	C	0.867997	0.073747	0.302778
C41	C	0.821064	0.151123	0.340912
C42	C	0.774111	0.228490	0.302811
C43	C	0.774103	0.228485	0.226585
C44	C	0.812353	0.254534	0.461671
C45	C	0.812366	0.254540	0.537896
C46	C	0.821084	0.151137	0.576019
C47	C	0.829804	0.047723	0.537908
C48	C	0.829796	0.047719	0.461682
C49	C	0.821067	0.151136	0.423566
C50	C	0.868036	0.073764	0.696765
C51	C	0.868035	0.073757	0.772994
C52	C	0.774152	0.228510	0.773026
C53	C	0.774149	0.228507	0.696799
C54	C	0.821095	0.151135	0.658673
H55	H	0.595951	0.345717	-0.000176
H56	H	0.244337	0.293309	0.076749
H57	H	0.735896	0.291488	0.333864
H58	H	0.906226	0.010748	0.333797
H59	H	0.906259	0.010760	0.665722
Cl60	Cl	0.161556	0.381207	-0.000251
Cl61	Cl	0.416540	-0.025765	-0.095978
Cl62	Cl	0.927052	-0.023511	0.820883
Cl63	Cl	0.715145	0.325774	0.820961
H64	H	0.805270	0.338745	0.568920
H65	H	0.493136	-0.032752	-0.000188
Cl66	Cl	0.715134	0.325771	0.648908
Cl67	Cl	0.927005	-0.023518	0.178621
Cl68	Cl	0.840750	-0.082280	0.413773
H69	H	0.735875	0.291483	0.195571
Cl70	Cl	0.840770	-0.082278	0.585826
H71	H	0.017560	0.331860	-0.000265
H72	H	0.805242	0.338743	0.430637
H73	H	0.375787	0.296463	0.076772
Cl74	Cl	0.444964	0.387990	-0.000196
Cl75	Cl	0.033641	-0.089662	-0.000259
H76	H	0.177637	-0.040316	-0.000238
Cl77	Cl	0.253005	-0.029676	-0.096012
H78	H	0.624588	-0.029614	-0.000145
