data_functionalizedCrystal
_audit_creation_method	'MofGen! by Chris Wilmer'
_symmetry_space_group_name_H-M	'P1'
_symmetry_Int_Tables_number	1
_symmetry_cell_setting	triclinic
loop_
_symmetry_equiv_pos_as_xyz
  x,y,z
_cell_length_a	13.032831
_cell_length_b	15.297327
_cell_length_c	13.032268
_cell_angle_alpha	74.619162
_cell_angle_beta	89.113023
_cell_angle_gamma	93.742008
loop_
_atom_site_label
_atom_site_type_symbol
_atom_site_fract_x
_atom_site_fract_y
_atom_site_fract_z
Zn1	Zn	1.363663	-0.605893	0.885100
Zn2	Zn	1.863663	-0.105893	1.385100
Zn3	Zn	1.355662	-0.739564	0.736122
Zn4	Zn	1.855662	-0.239564	1.236122
Zn5	Zn	1.221861	-0.568414	0.684891
Zn6	Zn	1.721861	-0.068414	1.184891
Zn7	Zn	1.162990	-0.734713	0.885413
Zn8	Zn	1.662990	-0.234713	1.385413
O9	O	1.276044	-0.662146	0.797881
O10	O	1.776044	-0.162146	1.297881
O11	O	1.502581	-0.641340	0.886647
O12	O	2.002581	-0.141340	1.386647
O13	O	1.359203	-0.703205	0.583060
O14	O	1.859203	-0.203205	1.083060
O15	O	1.268657	-0.447848	0.689878
O16	O	1.768657	0.052152	1.189878
O17	O	1.496703	-0.739547	0.777194
O18	O	1.996703	-0.239547	1.277194
O19	O	1.372838	-0.475384	0.836970
O20	O	1.872838	0.024616	1.336970
O21	O	1.260899	-0.577463	0.545420
O22	O	1.760899	-0.077463	1.045420
O23	O	1.074072	-0.572759	0.690181
O24	O	1.574072	-0.072759	1.190181
O25	O	1.168320	-0.731280	1.031638
O26	O	1.668320	-0.231280	1.531638
O27	O	1.030820	-0.694938	0.837504
O28	O	1.530820	-0.194938	1.337504
O29	O	1.315754	-0.636636	1.031408
O30	O	1.815754	-0.136636	1.531408
O31	O	1.302118	-0.864458	0.777497
O32	O	1.802118	-0.364458	1.277497
O33	O	1.160562	-0.860894	0.887180
O34	O	1.660562	-0.360894	1.387180
C35	C	1.016151	-0.629256	0.758318
C36	C	1.516151	-0.129256	1.258318
C37	C	0.904960	-0.615209	0.741421
C38	C	1.404960	-0.115209	1.241421
C39	C	0.834008	-0.669477	0.806700
C40	C	1.334008	-0.169477	1.306700
C41	C	0.719086	-0.654961	0.789238
C42	C	1.219086	-0.154961	1.289238
C43	C	1.224108	-0.895233	0.837959
C44	C	1.724108	-0.395233	1.337959
C45	C	1.201976	-0.994963	0.855153
C46	C	1.701976	-0.494963	1.355153
C47	C	1.434586	-1.283427	0.675411
C48	C	1.934586	-0.783427	1.175411
C49	C	1.455381	-1.189725	0.659251
C50	C	1.955381	-0.689725	1.159251
C51	C	1.392032	-1.141030	0.708225
C52	C	1.892032	-0.641030	1.208225
C53	C	1.307884	-1.186046	0.773362
C54	C	1.807884	-0.686046	1.273362
C55	C	1.287082	-1.279756	0.789517
C56	C	1.787082	-0.779756	1.289517
C57	C	1.244528	-1.137359	0.822332
C58	C	1.744528	-0.637359	1.322332
C59	C	1.160380	-1.182375	0.887469
C60	C	1.660380	-0.682375	1.387469
C61	C	1.139583	-1.276076	0.903621
C62	C	1.639583	-0.776076	1.403621
C63	C	1.202932	-1.324771	0.854647
C64	C	1.702932	-0.824771	1.354647
C65	C	1.265329	-1.043649	0.806176
C66	C	1.765329	-0.543649	1.306176
C67	C	1.117825	-1.039978	0.920283
C68	C	1.617825	-0.539978	1.420283
C69	C	1.097031	-1.133680	0.936443
C70	C	1.597031	-0.633680	1.436443
C71	C	1.536951	-0.695165	0.837600
C72	C	2.036951	-0.195165	1.337600
C73	C	1.648135	-0.709236	0.854526
C74	C	2.148135	-0.209236	1.354526
C75	C	1.236363	-0.687598	1.070508
C76	C	1.736363	-0.187598	1.570508
C77	C	1.219453	-0.698444	1.186686
C78	C	1.719453	-0.198444	1.686686
C79	C	1.328207	-0.428155	0.757674
C80	C	1.828207	0.071845	1.257674
C81	C	1.350436	-0.328442	0.740540
C82	C	1.850436	0.171558	1.240540
C83	C	1.315643	-0.636736	0.526313
C84	C	1.815643	-0.136736	1.026313
C85	C	1.332803	-0.625662	0.410122
C86	C	1.832803	-0.125662	0.910122
C87	C	1.284861	-0.656451	1.238367
C88	C	1.784861	-0.156451	1.738367
C89	C	1.267385	-0.667660	1.358443
C90	C	1.767385	-0.167660	1.858443
H91	H	0.858346	-0.726682	0.875518
H92	H	1.358346	-0.226682	1.375518
H93	H	0.694754	-0.597746	0.720421
H94	H	1.194754	-0.097746	1.220421
H95	H	0.672465	-0.766443	0.923352
H96	H	1.172465	-0.266443	1.423352
N97	N	1.180496	-1.425837	0.872074
N98	N	1.680496	-0.925837	1.372074
H99	H	1.183388	-1.457384	0.950467
H100	H	1.683388	-0.957384	1.450467
H101	H	1.233415	-1.449773	0.831108
H102	H	1.733415	-0.949773	1.331108
N103	N	1.424126	-0.567039	1.351006
N104	N	1.924126	-0.067039	1.851006
H105	H	1.399289	-0.516122	1.292379
H106	H	1.899289	-0.016122	1.792379
H107	H	1.468867	-0.605230	1.319100
H108	H	1.968867	-0.105230	1.819100
H109	H	0.880623	-0.557999	0.672609
H110	H	1.380623	-0.057999	1.172609
N111	N	1.356093	-0.995107	0.735941
N112	N	1.856093	-0.495107	1.235941
H113	H	1.359663	-0.928357	0.733135
H114	H	1.859663	-0.428357	1.233135
H115	H	1.347806	-1.002590	0.661747
H116	H	1.847806	-0.502590	1.161747
N117	N	1.414454	-1.039966	0.690797
N118	N	1.914454	-0.539966	1.190797
H119	H	1.477374	-1.018837	0.642104
H120	H	1.977374	-0.518837	1.142104
H121	H	1.427320	-1.026443	0.761451
H122	H	1.927320	-0.526443	1.261451
H123	H	1.523892	-1.153076	0.606215
H124	H	2.023892	-0.653076	1.106215
H125	H	1.486151	-1.323082	0.635536
H126	H	1.986151	-0.823082	1.135536
H127	H	1.150512	-0.742686	1.231332
H128	H	1.650512	-0.242686	1.731332
N129	N	1.048812	-1.324628	0.973855
N130	N	1.548812	-0.824628	1.473855
H131	H	1.011834	-1.279564	1.002428
H132	H	1.511834	-0.779564	1.502428
H133	H	1.073822	-1.373129	1.035147
H134	H	1.573822	-0.873129	1.535147
H135	H	1.066239	-1.000330	0.960160
H136	H	1.566239	-0.500330	1.460160
H137	H	1.353794	-0.612199	1.193718
H138	H	1.853794	-0.112199	1.693718
H139	H	1.028516	-1.170345	0.989478
H140	H	1.528516	-0.670345	1.489478
H141	H	1.198439	-0.711906	1.403086
H142	H	1.698439	-0.211906	1.903086
