data_functionalizedCrystal
_audit_creation_method	'MofGen! by Chris Wilmer'
_symmetry_space_group_name_H-M	'P1'
_symmetry_Int_Tables_number	1
_symmetry_cell_setting	triclinic
loop_
_symmetry_equiv_pos_as_xyz
  x,y,z
_cell_length_a	11.169417
_cell_length_b	16.959454
_cell_length_c	11.169409
_cell_angle_alpha	89.967057
_cell_angle_beta	89.980176
_cell_angle_gamma	90.020954
loop_
_atom_site_label
_atom_site_type_symbol
_atom_site_fract_x
_atom_site_fract_y
_atom_site_fract_z
Zn1	Zn	1.834881	-0.314599	-0.678538
Zn2	Zn	1.834736	-0.446806	-0.477852
Zn3	Zn	1.634167	-0.314647	-0.477872
Zn4	Zn	1.634140	-0.446741	-0.678497
O5	O	1.734481	-0.380698	-0.578190
O6	O	2.002812	-0.332143	-0.651925
O7	O	1.808081	-0.429322	-0.309905
O8	O	1.660864	-0.204030	-0.504516
O9	O	2.002705	-0.429275	-0.504482
O10	O	1.808328	-0.203995	-0.651944
O11	O	1.660724	-0.332225	-0.309920
O12	O	1.466214	-0.332163	-0.504477
O13	O	1.660819	-0.429165	-0.846452
O14	O	1.466194	-0.429212	-0.651875
O15	O	1.808302	-0.332081	-0.846482
O16	O	1.808055	-0.557408	-0.504443
O17	O	1.660678	-0.557361	-0.651856
C18	C	1.422657	-0.380686	-0.578174
C19	C	1.289257	-0.380700	-0.578196
C20	C	1.734381	-0.586065	-0.578169
C21	C	1.734447	-0.673921	-0.578201
C22	C	1.657853	-1.045402	-0.654940
C23	C	1.811443	-1.045391	-0.501562
C24	C	1.811401	-0.962846	-0.501551
C25	C	1.734583	-0.921574	-0.578234
C26	C	1.657807	-0.962849	-0.654928
C27	C	1.888168	-0.921565	-0.424850
C28	C	1.888128	-0.839014	-0.424835
C29	C	1.811315	-0.797741	-0.501525
C30	C	1.734536	-0.839021	-0.578223
C31	C	1.657718	-0.797749	-0.654906
C32	C	1.580944	-0.839027	-0.731611
C33	C	1.580993	-0.921576	-0.731618
C34	C	1.811266	-0.715193	-0.501518
C35	C	1.657671	-0.715196	-0.654895
C36	C	2.047524	-0.380711	-0.578206
C37	C	2.180924	-0.380716	-0.578213
C38	C	1.734573	-0.380611	-0.891232
C39	C	1.734613	-0.380573	-1.024633
C40	C	1.734615	-0.174530	-0.578237
C41	C	1.734672	-0.086674	-0.578257
C42	C	1.734459	-0.380729	-0.266365
C43	C	1.734652	-0.380543	-0.132966
H44	H	1.518393	-0.805415	-0.794042
H45	H	1.518487	-0.955192	-0.794066
O46	O	1.583445	-1.085582	-0.729505
C47	C	1.651765	-1.133245	-0.807112
H48	H	1.742747	-1.145587	-0.764864
H49	H	1.664887	-1.101382	-0.896057
C50	C	1.474019	-1.196523	-0.880694
C51	C	1.585762	-1.211687	-0.828800
H52	H	1.433304	-1.244907	-0.894077
H53	H	1.427990	-1.164409	-0.828412
H54	H	1.484970	-1.169968	-0.954809
H55	H	1.574809	-1.238232	-0.754679
H56	H	1.631788	-1.243807	-0.881070
O57	O	1.886144	-1.085530	-0.427224
C58	C	1.963629	-1.133253	-0.495589
H59	H	1.971046	-1.108332	-0.590113
H60	H	1.926506	-1.195818	-0.499719
C61	C	2.079286	-1.165137	-0.320903
C62	C	2.088404	-1.134526	-0.436997
H63	H	2.156252	-1.165926	-0.284760
H64	H	2.027081	-1.132988	-0.274843
H65	H	2.048346	-1.217273	-0.324361
H66	H	2.119329	-1.082388	-0.433537
H67	H	2.140618	-1.166666	-0.483056
O68	O	1.962651	-0.961583	-0.350144
C69	C	1.936428	-0.941416	-0.230534
H70	H	1.840521	-0.918796	-0.224453
H71	H	2.000719	-0.893451	-0.199232
C72	C	2.068282	-1.042519	-0.157847
C73	C	1.950485	-1.014743	-0.150376
H74	H	2.076958	-1.087748	-0.108400
H75	H	2.085954	-1.056104	-0.238430
H76	H	2.121845	-1.002541	-0.131763
H77	H	1.896926	-1.054717	-0.176474
H78	H	1.932805	-1.001166	-0.069795
H79	H	1.950642	-0.805410	-0.362380
O80	O	1.885659	-0.675059	-0.426888
C81	C	1.817337	-0.627359	-0.349335
H82	H	1.722828	-0.652285	-0.341849
H83	H	1.813152	-0.564783	-0.386436
C84	C	1.992102	-0.595498	-0.233808
C85	C	1.876027	-0.626116	-0.224606
H86	H	2.028306	-0.594728	-0.156871
H87	H	2.038133	-0.627632	-0.286060
H88	H	1.988598	-0.543355	-0.264731
H89	H	1.879534	-0.678262	-0.193699
H90	H	1.829998	-0.593991	-0.172346
O91	O	1.583109	-0.675193	-0.729555
C92	C	1.609316	-0.695282	-0.849199
H93	H	1.655488	-0.755194	-0.851735
H94	H	1.670974	-0.648773	-0.889664
C95	C	1.435574	-0.625537	-0.918692
C96	C	1.492274	-0.699125	-0.921807
H97	H	1.363379	-0.627904	-0.963482
H98	H	1.417919	-0.612000	-0.838086
H99	H	1.486968	-0.586787	-0.952410
H100	H	1.440886	-0.737871	-0.888076
H101	H	1.509917	-0.712668	-1.002409
