data_functionalizedCrystal
_audit_creation_method	'MofGen! by Chris Wilmer'
_symmetry_space_group_name_H-M	'P1'
_symmetry_Int_Tables_number	1
_symmetry_cell_setting	triclinic
loop_
_symmetry_equiv_pos_as_xyz
  x,y,z
_cell_length_a	14.971482
_cell_length_b	10.654541
_cell_length_c	13.448316
_cell_angle_alpha	89.993648
_cell_angle_beta	89.993798
_cell_angle_gamma	84.048268
loop_
_atom_site_label
_atom_site_type_symbol
_atom_site_fract_x
_atom_site_fract_y
_atom_site_fract_z
O1	O	1.187839	0.163637	-0.082679
O2	O	0.927545	0.183241	-0.082683
O3	O	1.063678	-0.009365	-0.082675
O4	O	1.051706	0.356243	-0.082687
O5	O	1.063660	-0.009377	0.082709
O6	O	0.927528	0.183229	0.082701
O7	O	1.187822	0.163625	0.082705
Cu8	Cu	1.057673	0.173426	0.097804
Cu9	Cu	1.057693	0.173440	-0.097782
O10	O	1.051689	0.356231	0.082697
C11	C	0.894207	0.182359	0.000008
C12	C	0.794895	0.179734	0.000006
C13	C	0.748234	0.178491	0.090158
C14	C	0.654922	0.176005	0.090159
C15	C	0.608272	0.174771	0.000008
C16	C	0.654940	0.176010	-0.090151
C17	C	0.748251	0.178487	-0.090151
C18	C	0.460450	0.170849	-0.090145
C19	C	0.367132	0.168374	-0.090145
C20	C	0.367121	0.168368	0.090166
C21	C	0.460432	0.170845	0.090166
C22	C	0.507093	0.172086	0.000007
C23	C	1.062790	-0.056160	0.000017
C24	C	1.060162	-0.195575	0.000015
C25	C	1.222946	-0.225295	0.000030
C26	C	1.303099	-0.305651	0.000040
C27	C	1.300624	-0.436642	0.000037
C28	C	1.217986	-0.487279	0.000021
C29	C	1.137833	-0.406924	0.000011
C30	C	1.140317	-0.275931	0.000018
C31	C	0.975051	-0.377204	-0.000011
C32	C	0.977525	-0.246212	-0.000001
C33	C	0.892414	-0.427841	-0.000027
C34	C	0.812259	-0.347485	-0.000030
C35	C	0.814737	-0.216486	-0.000026
C36	C	0.897371	-0.165856	-0.000011
C37	C	1.221160	0.164507	0.000012
C38	C	1.320471	0.167132	0.000007
C39	C	1.052576	0.403025	0.000003
C40	C	1.055204	0.542441	-0.000002
N41	N	1.057665	0.173415	0.235368
N42	N	1.057708	0.173441	-0.235346
C43	C	1.117964	0.088165	0.287412
C44	C	1.117969	0.088164	0.391515
C45	C	1.057680	0.173420	0.443573
C46	C	0.997375	0.258675	0.391521
C47	C	0.997366	0.258669	0.287420
C48	C	0.997400	0.258683	0.608501
C49	C	0.997410	0.258691	0.712610
C50	C	1.118003	0.088178	0.712597
C51	C	1.117994	0.088172	0.608496
C52	C	1.057690	0.173429	0.556451
H53	H	0.616937	0.174972	0.163570
H54	H	0.744982	-0.388725	-0.000049
H55	H	0.329152	0.167370	-0.163554
H56	H	0.948281	0.328088	0.433912
H57	H	0.749466	-0.151066	-0.000038
Br58	Br	0.523776	0.172527	-0.212505
Br59	Br	0.900742	0.011917	0.000006
Br60	Br	0.915522	0.374363	0.216788
Br61	Br	1.226311	-0.047521	0.000063
Br62	Br	0.523742	0.172540	0.212516
H63	H	1.167062	0.018744	0.245034
Br64	Br	1.409403	-0.545702	0.000037
Br65	Br	1.199801	-0.027540	0.462150
H66	H	0.329125	0.167357	0.163577
H67	H	1.370381	-0.264407	0.000062
H68	H	1.167091	0.018756	0.566111
Br69	Br	1.214628	-0.665055	-0.000061
Br70	Br	0.889053	-0.605616	-0.000105
H71	H	0.616950	0.174996	-0.163554
Br72	Br	1.199847	-0.027520	0.783231
Br73	Br	0.915584	0.374402	0.783251
Br74	Br	0.811535	0.180180	0.212514
Br75	Br	0.811579	0.180162	-0.212505
H76	H	0.948290	0.328104	0.566130
