data_functionalizedCrystal
_audit_creation_method	'MofGen! by Chris Wilmer'
_symmetry_space_group_name_H-M	'P1'
_symmetry_Int_Tables_number	1
_symmetry_cell_setting	triclinic
loop_
_symmetry_equiv_pos_as_xyz
  x,y,z
_cell_length_a	14.044220
_cell_length_b	10.654550
_cell_length_c	9.730223
_cell_angle_alpha	90.000193
_cell_angle_beta	90.004504
_cell_angle_gamma	91.163110
loop_
_atom_site_label
_atom_site_type_symbol
_atom_site_fract_x
_atom_site_fract_y
_atom_site_fract_z
O1	O	1.259693	-0.302980	-0.114137
O2	O	0.983652	-0.292047	-0.114172
O3	O	1.128019	-0.115412	-0.114149
O4	O	1.115326	-0.479615	-0.114161
O5	O	1.128018	-0.115417	0.114431
O6	O	0.983650	-0.292052	0.114408
O7	O	1.259691	-0.302985	0.114443
Zn8	Zn	1.121671	-0.297519	0.150717
Zn9	Zn	1.121673	-0.297513	-0.150447
O10	O	1.115324	-0.479620	0.114419
C11	C	0.948305	-0.287263	0.000113
C12	C	0.842986	-0.272988	0.000100
N13	N	1.121676	-0.297523	0.356254
C14	C	1.127086	-0.068523	0.000139
C15	C	1.124298	0.071201	0.000134
C16	C	0.650153	-0.246889	0.000128
C17	C	0.593185	-0.348137	0.000130
C18	C	0.485886	-0.333615	0.000146
C19	C	0.757461	-0.261409	0.000112
C20	C	1.295038	-0.307769	0.000154
C21	C	1.400358	-0.322044	0.000159
C22	C	1.116257	-0.526509	0.000128
C23	C	1.119045	-0.666233	0.000124
C24	C	1.209299	0.142144	0.000149
C25	C	1.206673	0.273429	0.000139
C26	C	1.034038	0.262814	0.000105
C27	C	1.036664	0.131532	0.000105
C28	C	1.296932	0.081813	0.000178
C29	C	1.381941	0.152758	0.000195
C30	C	1.379315	0.284043	0.000185
C31	C	1.291681	0.344383	0.000158
N32	N	1.121675	-0.297500	-0.355983
C33	C	1.185618	-0.219340	0.428190
C34	C	1.185616	-0.219324	0.572073
C35	C	1.057725	-0.375686	0.572070
C36	C	1.057724	-0.375694	0.428190
C37	C	1.249570	-0.141169	0.356253
C38	C	1.313518	-0.062980	0.428190
C39	C	1.313516	-0.062965	0.572073
C40	C	1.249565	-0.141138	0.644019
H41	H	0.618342	-0.149310	0.000139
O42	O	0.995705	-0.451589	0.642168
C43	C	1.009403	-0.434794	0.784586
H44	H	1.084509	-0.396328	0.804238
H45	H	0.955304	-0.365703	0.825410
C46	C	0.903743	-0.608989	0.834327
C47	C	0.995992	-0.561754	0.858465
H48	H	0.895466	-0.687301	0.879902
H49	H	0.894511	-0.620302	0.738378
H50	H	0.858671	-0.551401	0.868347
H51	H	1.041061	-0.619334	0.824430
H52	H	1.005232	-0.550454	0.954411
O53	O	0.631011	-0.464631	-0.000082
C54	C	0.600480	-0.530253	-0.118492
H55	H	0.531578	-0.488445	-0.157935
H56	H	0.657618	-0.521981	-0.201400
C57	C	0.667651	-0.720936	-0.034120
C58	C	0.583019	-0.669594	-0.082557
H59	H	0.656884	-0.806889	-0.011957
H60	H	0.688224	-0.676725	0.045653
H61	H	0.715257	-0.714031	-0.103218
H62	H	0.535419	-0.676486	-0.013454
H63	H	0.562439	-0.713810	-0.162319
O64	O	0.954007	0.062798	0.000150
C65	C	0.876096	0.144196	0.000100
H66	H	0.899521	0.239334	0.043387
H67	H	0.849285	0.156529	-0.109568
C68	C	0.766797	-0.028917	0.036550
C69	C	0.795566	0.087931	0.089727
H70	H	0.717120	-0.063625	0.091830
H71	H	0.819286	-0.083758	0.036579
H72	H	0.744460	-0.018623	-0.054839
H73	H	0.817913	0.077634	0.181107
H74	H	0.743078	0.142769	0.089715
O75	O	1.249750	-0.141191	0.216488
C76	C	1.339946	-0.176940	0.168441
H77	H	1.395660	-0.157487	0.251365
H78	H	1.338123	-0.281393	0.142925
C79	C	1.297243	-0.125058	-0.063440
C80	C	1.365674	-0.101156	0.038405
H81	H	1.313113	-0.078317	-0.143656
H82	H	1.236475	-0.100979	-0.031072
H83	H	1.295731	-0.212105	-0.084687
H84	H	1.367177	-0.014114	0.059661
H85	H	1.426443	-0.125220	0.006037
H86	H	1.299080	-0.025085	0.000190
H87	H	1.005655	-0.439357	0.369619
H88	H	1.453289	0.103620	0.000182
H89	H	1.365580	0.000674	0.369604
H90	H	1.365579	0.000708	0.630642
H91	H	1.448532	0.341802	0.000184
H92	H	0.962690	0.311954	0.000086
H93	H	1.249562	-0.141109	0.761179
H94	H	1.289550	0.451284	0.000135
