data_functionalizedCrystal
_audit_creation_method	'MofGen! by Chris Wilmer'
_symmetry_space_group_name_H-M	'P1'
_symmetry_Int_Tables_number	1
_symmetry_cell_setting	triclinic
loop_
_symmetry_equiv_pos_as_xyz
  x,y,z
_cell_length_a	23.532407
_cell_length_b	23.532407
_cell_length_c	15.072220
_cell_angle_alpha	89.998656
_cell_angle_beta	89.999587
_cell_angle_gamma	82.848678
loop_
_atom_site_label
_atom_site_type_symbol
_atom_site_fract_x
_atom_site_fract_y
_atom_site_fract_z
O1	O	0.755261	0.069128	-0.073681
O2	O	0.589398	0.079131	-0.073708
O3	O	0.677331	-0.008802	-0.073677
O4	O	0.667328	0.157061	-0.073711
O5	O	0.677320	-0.008791	0.073888
O6	O	0.589387	0.079142	0.073857
O7	O	0.755250	0.069139	0.073884
Zn8	Zn	0.672317	0.074142	0.097300
Zn9	Zn	0.672331	0.074128	-0.097123
O10	O	0.667317	0.157072	0.073854
C11	C	0.568176	0.078882	0.000071
C12	C	0.504959	0.078116	0.000062
C13	C	0.105856	0.125350	0.000092
C14	C	0.046456	0.124638	0.000098
O15	O	0.009711	0.168424	0.000121
N16	N	0.023830	0.072362	0.000107
C17	C	0.060607	0.020794	0.000120
O18	O	0.035908	-0.023737	0.000129
C19	C	0.120006	0.021506	0.000120
C20	C	0.142629	0.073785	0.000102
C21	C	0.128479	0.177625	0.000075
C22	C	0.187876	0.178336	0.000067
C23	C	0.224649	0.126772	0.000078
C24	C	0.202025	0.074497	0.000095
C25	C	0.156783	-0.030062	0.000139
C26	C	0.216185	-0.029345	0.000141
C27	C	0.238808	0.022934	0.000123
C28	C	0.298194	0.023643	0.000098
N29	N	0.320820	0.075920	0.000088
C30	C	0.284048	0.127484	0.000078
C31	C	-0.064135	0.019302	0.000120
C32	C	-0.123533	0.018589	0.000112
C33	C	-0.137680	0.122434	0.000092
C34	C	-0.078281	0.123146	0.000093
C35	C	-0.041509	0.071578	0.000110
C36	C	0.408784	0.128974	0.000062
C37	C	0.468186	0.129680	0.000051
C38	C	0.482329	0.025836	0.000077
C39	C	0.422932	0.025129	0.000083
C40	C	0.386160	0.076702	0.000079
O41	O	0.334974	-0.020119	0.000078
O42	O	0.308755	0.172007	0.000081
C43	C	0.677071	-0.030013	0.000108
C44	C	0.676305	-0.093230	0.000114
C45	C	0.723539	-0.492333	0.000073
C46	C	0.722827	-0.551733	0.000066
O47	O	0.766613	-0.588478	0.000041
N48	N	0.670551	-0.574359	0.000059
C49	C	0.618983	-0.537582	0.000048
O50	O	0.574452	-0.562281	0.000040
C51	C	0.619695	-0.478182	0.000049
C52	C	0.671974	-0.455560	0.000066
C53	C	0.775814	-0.469710	0.000089
C54	C	0.776525	-0.410313	0.000098
C55	C	0.724961	-0.373540	0.000090
C56	C	0.672685	-0.396164	0.000074
C57	C	0.568127	-0.441406	0.000032
C58	C	0.568844	-0.382004	0.000032
C59	C	0.621123	-0.359381	0.000049
C60	C	0.621832	-0.299995	0.000075
N61	N	0.674109	-0.277368	0.000083
C62	C	0.725673	-0.314141	0.000091
C63	C	0.617491	-0.662324	0.000046
C64	C	0.616778	-0.721722	0.000052
C65	C	0.720623	-0.735869	0.000068
C66	C	0.721335	-0.676470	0.000069
C67	C	0.669767	-0.639698	0.000054
C68	C	0.727163	-0.189405	0.000109
C69	C	0.727869	-0.130003	0.000122
C70	C	0.624025	-0.115860	0.000101
C71	C	0.623318	-0.175257	0.000093
C72	C	0.674891	-0.212029	0.000094
O73	O	0.578070	-0.263215	0.000097
O74	O	0.770196	-0.289433	0.000087
C75	C	0.776472	0.069388	0.000103
C76	C	0.839689	0.070154	0.000107
C77	C	0.667577	0.178283	0.000067
C78	C	0.668343	0.241500	0.000054
N79	N	0.672311	0.074152	0.229989
N80	N	0.672342	0.074114	-0.229812
C81	C	0.672321	0.074139	0.410986
C82	C	0.625262	0.121173	0.448639
C83	C	0.625103	0.121046	0.551464
C84	C	0.672331	0.074127	0.589190
C85	C	0.659932	0.014703	0.551858
C86	C	0.659588	0.014986	0.449000
C87	C	0.731927	0.085991	0.448881
C88	C	0.731525	0.087337	0.551746
C89	C	0.672339	0.074116	0.689904
C90	C	0.672313	0.074145	0.310273
H91	H	-0.034198	-0.022693	0.000126
O92	O	0.699734	-0.028125	0.580890
C93	C	0.732444	-0.129309	0.579211
C94	C	0.687336	-0.080863	0.546254
H95	H	0.722430	-0.171961	0.551237
H96	H	0.776761	-0.120905	0.556072
H97	H	0.731514	-0.130929	0.654786
H98	H	0.688214	-0.079216	0.470682
H99	H	0.643040	-0.089287	0.569460
O100	O	-0.173384	0.172541	-0.000067
C101	C	-0.203641	0.261089	-0.076498
C102	C	-0.163183	0.204363	-0.076437
H103	H	-0.195400	0.286839	-0.138226
H104	H	-0.249991	0.251630	-0.076548
H105	H	-0.195455	0.286813	-0.014718
H106	H	-0.171317	0.178612	-0.138206
H107	H	-0.116847	0.213863	-0.076340
H108	H	0.616986	0.003977	0.577636
O109	O	0.633950	0.173671	0.581735
C110	C	0.643919	0.233236	0.709438
C111	C	0.633831	0.173628	0.675283
H112	H	0.643814	0.233224	0.785075
H113	H	0.687021	0.244005	0.684375
H114	H	0.608348	0.266623	0.684140
H115	H	0.669368	0.140202	0.700568
H116	H	0.590710	0.162907	0.700339
O117	O	0.777313	-0.225038	0.000154
C118	C	0.880386	-0.232785	0.000129
C119	C	0.823635	-0.192366	0.000093
H120	H	0.917853	-0.206386	0.000061
H121	H	0.882687	-0.260940	0.061897
H122	H	0.882630	-0.260957	-0.061614
H123	H	0.821354	-0.164158	0.061794
H124	H	0.821358	-0.164250	-0.061716
H125	H	0.817806	-0.499645	0.000092
H126	H	0.632432	0.165500	0.423907
H127	H	0.525555	-0.459814	0.000013
O128	O	0.518801	-0.346203	-0.000018
C129	C	0.473867	-0.248426	0.000036
C130	C	0.530580	-0.288903	0.000069
H131	H	0.483370	-0.202092	0.000126
H132	H	0.448123	-0.256572	-0.061742
H133	H	0.448117	-0.256656	0.061769
H134	H	0.556376	-0.280698	-0.061622
H135	H	0.556281	-0.280750	0.061888
H136	H	0.580748	-0.193677	0.000104
H137	H	0.743979	0.128395	0.422941
O138	O	0.827325	-0.388371	-0.000052
C139	C	0.916319	-0.382338	-0.076467
C140	C	0.858800	-0.407208	-0.076415
H141	H	0.941788	-0.397568	-0.138190
H142	H	0.908016	-0.333565	-0.076524
H143	H	0.941755	-0.397503	-0.014682
H144	H	0.833335	-0.392088	-0.138190
H145	H	0.867143	-0.455979	-0.076312
O146	O	0.770729	-0.771574	0.000224
C147	C	0.859277	-0.801839	0.076647
C148	C	0.802553	-0.761379	0.076592
H149	H	0.885028	-0.793602	0.138374
H150	H	0.849816	-0.848188	0.076696
H151	H	0.885000	-0.793652	0.014865
H152	H	0.776802	-0.769513	0.138362
H153	H	0.812055	-0.715043	0.076496
O154	O	0.772083	-0.654429	-0.000041
C155	C	0.833181	-0.595616	-0.076513
C156	C	0.775681	-0.620524	-0.076485
H157	H	0.836114	-0.568209	-0.138321
H158	H	0.836118	-0.568123	-0.014801
H159	H	0.869900	-0.632117	-0.076462
H160	H	0.738929	-0.584060	-0.076567
H161	H	0.772794	-0.648033	-0.138192
O162	O	0.565944	-0.743599	0.000006
C163	C	0.463020	-0.723281	0.000042
C164	C	0.520552	-0.698433	0.000080
H165	H	0.426306	-0.686777	0.000121
H166	H	0.460053	-0.750711	-0.061732
H167	H	0.460114	-0.750760	0.061779
H168	H	0.523497	-0.670929	-0.061615
H169	H	0.523494	-0.671035	0.061895
H170	H	-0.141947	-0.023982	0.000113
O171	O	0.134912	-0.080897	0.000205
C172	C	0.155239	-0.183820	0.000202
C173	C	0.180082	-0.126286	0.000145
H174	H	0.191747	-0.220532	0.000135
H175	H	0.127808	-0.186783	0.061978
H176	H	0.127763	-0.186736	-0.061534
H177	H	0.207583	-0.123331	0.061838
H178	H	0.207480	-0.123348	-0.061672
O179	O	0.567409	-0.626582	-0.000113
C180	C	0.507954	-0.551288	-0.076537
C181	C	0.564685	-0.591737	-0.076476
H182	H	0.505738	-0.523097	-0.138260
H183	H	0.470451	-0.577639	-0.076598
H184	H	0.505692	-0.523153	-0.014752
H185	H	0.567003	-0.619881	-0.138251
H186	H	0.602162	-0.565351	-0.076368
O187	O	0.251963	-0.079403	0.000036
C188	C	0.327209	-0.138894	-0.076432
C189	C	0.286735	-0.082179	-0.076410
H190	H	0.355324	-0.141162	-0.138241
H191	H	0.355414	-0.141160	-0.014721
H192	H	0.300821	-0.176368	-0.076376
H193	H	0.313078	-0.044673	-0.076497
H194	H	0.258529	-0.079962	-0.138115
O195	O	0.400923	-0.025639	-0.000063
C196	C	0.342036	-0.086701	-0.076450
C197	C	0.366928	-0.029193	-0.076417
H198	H	0.314536	-0.089588	-0.138166
H199	H	0.378501	-0.123457	-0.076504
H200	H	0.314611	-0.089616	-0.014657
H201	H	0.394347	-0.026223	-0.138199
H202	H	0.330437	0.007536	-0.076316
O203	O	0.573901	-0.080190	-0.000030
C204	C	0.485396	-0.049883	-0.076544
C205	C	0.542133	-0.090323	-0.076486
H206	H	0.459702	-0.058053	-0.138361
H207	H	0.459599	-0.058073	-0.014841
H208	H	0.494906	-0.003550	-0.076498
H209	H	0.532676	-0.136671	-0.076563
H210	H	0.567913	-0.082084	-0.138183
O211	O	0.373047	0.179056	0.000209
C212	C	0.297756	0.238528	0.076610
C213	C	0.338204	0.181796	0.076574
H214	H	0.269567	0.240757	0.138335
H215	H	0.324109	0.276031	0.076651
H216	H	0.269620	0.240780	0.014826
H217	H	0.366349	0.179489	0.138347
H218	H	0.311817	0.144321	0.076487
O219	O	0.698896	-0.028030	0.419151
C220	C	0.715894	-0.115006	0.333643
C221	C	0.671318	-0.066328	0.367377
H222	H	0.693613	-0.145990	0.291793
H223	H	0.749260	-0.096259	0.291559
H224	H	0.737810	-0.138829	0.392665
H225	H	0.649359	-0.042487	0.308408
H226	H	0.637989	-0.085111	0.409488
H227	H	0.766940	0.051692	0.424525
H228	H	0.580863	0.113480	0.576082
H229	H	-0.059867	0.165717	0.000083
H230	H	0.770443	-0.111587	0.000138
H231	H	0.616136	0.004525	0.425020
O232	O	0.517997	-0.024289	0.000204
C233	C	0.548298	-0.112800	0.076709
C234	C	0.507862	-0.056060	0.076657
H235	H	0.540127	-0.138497	0.138524
H236	H	0.540106	-0.138592	0.015004
H237	H	0.594632	-0.103293	0.076661
H238	H	0.461513	-0.065514	0.076736
H239	H	0.516104	-0.030284	0.138357
H240	H	0.740942	0.131056	0.576132
H241	H	0.581267	0.113720	0.422803
O242	O	0.775285	0.049164	0.582315
C243	C	0.877012	0.019258	0.581737
C244	C	0.827511	0.062543	0.547074
H245	H	0.919247	0.030053	0.553245
H246	H	0.878507	0.021433	0.657250
H247	H	0.869918	-0.025786	0.560329
H248	H	0.834571	0.107607	0.568418
H249	H	0.826030	0.060318	0.471565
O250	O	0.209752	0.229171	0.000100
C251	C	0.189428	0.332094	0.000039
C252	C	0.164583	0.274561	0.000018
H253	H	0.152922	0.368807	-0.000046
H254	H	0.216860	0.335069	0.061810
H255	H	0.216904	0.334996	-0.061701
H256	H	0.137082	0.271620	0.061717
H257	H	0.137184	0.271611	-0.061794
H258	H	0.486602	0.172255	0.000036
H259	H	0.098544	0.219617	0.000070
