data_functionalizedCrystal
_audit_creation_method	'MofGen! by Chris Wilmer'
_symmetry_space_group_name_H-M	'P1'
_symmetry_Int_Tables_number	1
_symmetry_cell_setting	triclinic
loop_
_symmetry_equiv_pos_as_xyz
  x,y,z
_cell_length_a	8.497374
_cell_length_b	8.497374
_cell_length_c	13.032831
_cell_angle_alpha	97.172717
_cell_angle_beta	82.800456
_cell_angle_gamma	90.000078
loop_
_atom_site_label
_atom_site_type_symbol
_atom_site_fract_x
_atom_site_fract_y
_atom_site_fract_z
Zn1	Zn	-0.935200	1.197946	1.597718
Zn2	Zn	-1.198948	0.934189	1.597730
Zn3	Zn	-0.901617	0.900723	1.423005
Zn4	Zn	-1.165374	1.164467	1.423000
O5	O	-1.050285	1.049331	1.510363
O6	O	-0.998292	1.190975	1.743963
O7	O	-1.159503	0.708989	1.574559
O8	O	-0.685309	0.940155	1.446178
O9	O	-1.192067	0.997194	1.743972
O10	O	-0.709982	1.158524	1.574539
O11	O	-0.941054	0.684401	1.446189
O12	O	-0.908499	0.907692	1.276761
O13	O	-1.134845	1.389669	1.446170
O14	O	-1.102281	1.101464	1.276758
O15	O	-0.965737	1.414266	1.574534
O16	O	-1.415258	0.964731	1.574555
O17	O	-1.390591	1.133915	1.446182
C18	C	-0.998104	0.997315	1.238840
C19	C	-0.975818	0.975099	1.122681
C20	C	-0.460164	1.049325	1.510360
C21	C	-0.638809	1.049335	1.510364
C22	C	-1.061916	1.060926	1.070920
C23	C	-1.038885	1.037967	0.950864
C24	C	-1.050286	1.460810	1.510355
C25	C	-1.050303	1.639455	1.510358
C26	C	-1.102671	1.101552	1.782947
C27	C	-1.124995	1.123806	1.899105
H28	H	-1.152672	1.151407	1.115486
O29	O	-0.855584	0.855245	1.063669
H30	H	-0.886426	0.735360	1.084561
H31	H	-1.215754	1.214298	0.943666
H32	H	-0.948111	0.947491	0.906302
