data_functionalizedCrystal
_audit_creation_method	'MofGen! by Chris Wilmer'
_symmetry_space_group_name_H-M	'P1'
_symmetry_Int_Tables_number	1
_symmetry_cell_setting	triclinic
loop_
_symmetry_equiv_pos_as_xyz
  x,y,z
_cell_length_a	12.759401
_cell_length_b	13.032721
_cell_length_c	12.759393
_cell_angle_alpha	82.850774
_cell_angle_beta	90.020938
_cell_angle_gamma	97.205831
loop_
_atom_site_label
_atom_site_type_symbol
_atom_site_fract_x
_atom_site_fract_y
_atom_site_fract_z
Zn1	Zn	1.553113	-0.415945	0.647098
Zn2	Zn	1.530669	-0.590725	0.493722
Zn3	Zn	1.377404	-0.416001	0.471441
Zn4	Zn	1.355078	-0.590652	0.669350
O5	O	1.454066	-0.503331	0.570403
O6	O	1.697156	-0.439137	0.626765
O7	O	1.510289	-0.567601	0.343752
O8	O	1.419449	-0.269756	0.476105
O9	O	1.680666	-0.567547	0.514080
O10	O	1.548541	-0.269715	0.605160
O11	O	1.397686	-0.439232	0.327382
O12	O	1.227423	-0.439161	0.497681
O13	O	1.381397	-0.567423	0.813412
O14	O	1.211019	-0.567477	0.643084
O15	O	1.526892	-0.439067	0.797064
O16	O	1.488640	-0.736953	0.535656
O17	O	1.359634	-0.736899	0.664689
C18	C	1.181100	-0.503318	0.570380
C19	C	1.064321	-0.503338	0.570399
C20	C	1.419307	-0.774844	0.605028
C21	C	1.404533	-0.890999	0.619876
C22	C	1.000932	-0.570253	0.646017
C23	C	0.891208	-0.570257	0.646038
C24	C	0.908271	-0.436427	0.494813
C25	C	1.017994	-0.436419	0.494797
C26	C	1.461832	-0.942776	0.562700
C27	C	1.446564	-1.062828	0.578045
C28	C	1.728097	-0.503344	0.570426
C29	C	1.844873	-0.503350	0.570436
C30	C	1.454157	-0.503230	0.844423
C31	C	1.454196	-0.503188	0.961194
C32	C	1.488989	-0.230757	0.535665
C33	C	1.503872	-0.114602	0.520862
C34	C	1.454045	-0.503355	0.297438
C35	C	1.454247	-0.503104	0.180630
C36	C	1.529962	-0.436342	1.007544
C37	C	1.529986	-0.436297	1.117263
C38	C	1.378473	-0.569952	1.134273
C39	C	1.378446	-0.569991	1.024556
H40	H	1.038649	-0.624740	0.707579
H41	H	1.522197	-0.898229	0.502394
C42	C	1.295095	-0.643519	0.973557
C43	C	1.330081	-0.725587	0.908579
C44	C	1.246730	-0.799103	0.857576
C45	C	1.128393	-0.790551	0.871551
C46	C	1.093402	-0.708480	0.936533
C47	C	1.176753	-0.634964	0.987536
H48	H	1.417686	-0.731920	0.898231
H49	H	1.272633	-0.859857	0.809472
H50	H	1.066691	-0.844972	0.833796
H51	H	1.005797	-0.702147	0.946881
H52	H	1.150849	-0.574209	1.035639
H53	H	0.870537	-0.381946	0.433260
C54	C	1.613333	-0.362768	1.168247
C55	C	1.690029	-0.408029	1.249464
C56	C	1.773380	-0.334495	1.300446
C57	C	1.780035	-0.215700	1.270211
C58	C	1.703336	-0.170433	1.188990
C59	C	1.619985	-0.243967	1.138008
H60	H	1.685105	-0.495973	1.271849
H61	H	1.830157	-0.368005	1.360571
H62	H	1.841736	-0.161266	1.307951
H63	H	1.708260	-0.082489	1.166605
H64	H	1.563208	-0.210457	1.077882
C65	C	1.295159	-0.643442	1.203974
C66	C	1.295188	-0.643408	1.324659
C67	C	1.211873	-0.716902	1.394358
C68	C	1.128530	-0.790429	1.343371
C69	C	1.128497	-0.790466	1.222679
C70	C	1.211812	-0.716972	1.152980
H71	H	1.356887	-0.588975	1.362409
H72	H	1.211898	-0.716874	1.483702
H73	H	1.066855	-0.844834	1.394966
H74	H	1.066799	-0.844898	1.184929
H75	H	1.211788	-0.717000	1.063635
H76	H	1.069608	-0.381922	0.433219
C77	C	0.821480	-0.643868	0.729218
C78	C	0.872443	-0.717471	0.812374
C79	C	0.802715	-0.791083	0.895559
C80	C	0.682024	-0.791093	0.895589
C81	C	0.631054	-0.717487	0.812430
C82	C	0.700782	-0.643875	0.729245
H83	H	0.961792	-0.717466	0.812355
H84	H	0.840447	-0.845571	0.957119
H85	H	0.630407	-0.845585	0.957168
H86	H	0.541706	-0.717492	0.812450
H87	H	0.663050	-0.589387	0.667686
C88	C	1.365014	-1.122995	0.659528
C89	C	1.273063	-1.198165	0.623469
C90	C	1.191515	-1.258333	0.704950
C91	C	1.201919	-1.243333	0.822490
C92	C	1.293874	-1.168160	0.858555
C93	C	1.375422	-1.107991	0.777074
H94	H	1.265357	-1.209272	0.536454
H95	H	1.123443	-1.313981	0.678252
H96	H	1.141552	-1.287873	0.882808
H97	H	1.301579	-1.157052	0.945571
H98	H	1.443494	-1.052343	0.803772
C99	C	1.585420	-1.054440	0.439374
C100	C	1.549402	-0.979482	0.347333
C101	C	1.630947	-0.919321	0.265845
C102	C	1.748510	-0.934118	0.276398
C103	C	1.784534	-1.009079	0.368443
C104	C	1.702989	-1.069240	0.449931
H105	H	1.462369	-0.968526	0.339518
H106	H	1.604279	-0.863830	0.197708
H107	H	1.808875	-0.889583	0.216076
H108	H	1.871567	-1.020035	0.376258
H109	H	1.729657	-1.124731	0.518068
C110	C	1.322987	-0.951170	0.701355
C111	C	1.231035	-1.026340	0.665296
C112	C	1.149488	-1.086508	0.746777
C113	C	1.159892	-1.071507	0.864317
C114	C	1.251847	-0.996335	0.900382
C115	C	1.333395	-0.936166	0.818901
H116	H	1.223330	-1.037447	0.578280
H117	H	1.081416	-1.142156	0.720079
H118	H	1.099525	-1.116048	0.924634
H119	H	1.259552	-0.985227	0.987397
H120	H	1.401467	-0.880518	0.845599
C121	C	1.613277	-0.362852	0.937844
C122	C	1.619925	-0.244046	0.937789
C123	C	1.703240	-0.170552	0.868091
C124	C	1.779907	-0.215862	0.798450
C125	C	1.773262	-0.334674	0.798503
C126	C	1.689947	-0.408169	0.868200
H127	H	1.563169	-0.210499	0.989344
H128	H	1.708158	-0.082599	0.868052
H129	H	1.841581	-0.161457	0.746856
H130	H	1.830018	-0.368221	0.746948
H131	H	1.685028	-0.496121	0.868239
