data_functionalizedCrystal
_audit_creation_method	'MofGen! by Chris Wilmer'
_symmetry_space_group_name_H-M	'P1'
_symmetry_Int_Tables_number	1
_symmetry_cell_setting	triclinic
loop_
_symmetry_equiv_pos_as_xyz
  x,y,z
_cell_length_a	19.188930
_cell_length_b	14.519709
_cell_length_c	13.596369
_cell_angle_alpha	90.006934
_cell_angle_beta	90.019208
_cell_angle_gamma	83.412462
loop_
_atom_site_label
_atom_site_type_symbol
_atom_site_fract_x
_atom_site_fract_y
_atom_site_fract_z
O1	O	-0.926555	-0.115137	-0.082110
O2	O	-0.676555	0.134863	0.167890
O3	O	-0.426555	0.384863	0.417890
O4	O	-0.176555	0.634863	0.667890
O5	O	-0.723299	-0.130636	-0.082043
O6	O	-0.473299	0.119364	0.167957
O7	O	-0.223299	0.369364	0.417957
O8	O	0.026701	0.619364	0.667957
O9	O	-0.830316	0.011385	-0.082069
O10	O	-0.580316	0.261385	0.167931
O11	O	-0.330316	0.511385	0.417931
O12	O	-0.080316	0.761385	0.667931
O13	O	-0.819538	-0.257158	-0.082083
O14	O	-0.569538	-0.007158	0.167917
O15	O	-0.319538	0.242842	0.417917
O16	O	-0.069538	0.492842	0.667917
O17	O	-0.830306	0.011393	0.081514
O18	O	-0.580306	0.261393	0.331514
O19	O	-0.330306	0.511393	0.581514
O20	O	-0.080306	0.761393	0.831514
O21	O	-0.723289	-0.130629	0.081540
O22	O	-0.473289	0.119371	0.331540
O23	O	-0.223289	0.369371	0.581540
O24	O	0.026711	0.619371	0.831540
O25	O	-0.926545	-0.115130	0.081473
O26	O	-0.676545	0.134870	0.331473
O27	O	-0.426545	0.384870	0.581473
O28	O	-0.176545	0.634870	0.831473
Zn29	Zn	-0.824915	-0.122878	0.107479
Zn30	Zn	-0.574915	0.127122	0.357479
Zn31	Zn	-0.324915	0.377122	0.607479
Zn32	Zn	-0.074915	0.627122	0.857479
Zn33	Zn	-0.824929	-0.122888	-0.108049
Zn34	Zn	-0.574929	0.127112	0.141951
Zn35	Zn	-0.324929	0.377112	0.391951
Zn36	Zn	-0.074929	0.627112	0.641951
O37	O	-0.819528	-0.257151	0.081500
O38	O	-0.569528	-0.007151	0.331500
O39	O	-0.319528	0.242849	0.581500
O40	O	-0.069528	0.492849	0.831500
C41	C	-0.829809	0.045746	-0.000277
C42	C	-0.579809	0.295746	0.249723
C43	C	-0.329809	0.545746	0.499723
C44	C	-0.079809	0.795746	0.749723
C45	C	-0.828304	0.148118	-0.000276
C46	C	-0.578304	0.398118	0.249724
C47	C	-0.328304	0.648118	0.499724
C48	C	-0.078304	0.898118	0.749724
C49	C	-0.697281	-0.130131	-0.000242
C50	C	-0.447281	0.119869	0.249758
C51	C	-0.197281	0.369869	0.499758
C52	C	0.052719	0.619869	0.749758
C53	C	-0.619771	-0.128624	-0.000217
C54	C	-0.369771	0.121376	0.249783
C55	C	-0.119771	0.371376	0.499783
C56	C	0.130229	0.621376	0.749783
C57	C	-0.952563	-0.115635	-0.000329
C58	C	-0.702563	0.134365	0.249671
C59	C	-0.452563	0.384365	0.499671
C60	C	-0.202563	0.634365	0.749671
C61	C	-1.030073	-0.117142	-0.000361
C62	C	-0.780073	0.132858	0.249639
C63	C	-0.530073	0.382858	0.499639
C64	C	-0.280073	0.632858	0.749639
C65	C	-0.575144	-0.211957	-0.000236
C66	C	-0.325144	0.038043	0.249764
C67	C	-0.075144	0.288043	0.499764
C68	C	0.174856	0.538043	0.749764
C69	C	-0.502315	-0.210542	-0.000247
C70	C	-0.252315	0.039458	0.249753
C71	C	-0.002315	0.289458	0.499753
C72	C	0.247685	0.539458	0.749753
C73	C	-0.474117	-0.125788	-0.000258
C74	C	-0.224117	0.124212	0.249742
C75	C	0.025883	0.374212	0.499742
C76	C	0.275883	0.624212	0.749742
C77	C	-0.518754	-0.042444	-0.000232
C78	C	-0.268754	0.207556	0.249768
C79	C	-0.018754	0.457556	0.499768
C80	C	0.231246	0.707556	0.749768
C81	C	-0.591581	-0.043861	-0.000212
C82	C	-0.341581	0.206139	0.249788
C83	C	-0.091581	0.456139	0.499788
C84	C	0.158419	0.706139	0.749788
N85	N	-0.365910	-0.061007	-0.055968
N86	N	-0.115910	0.188993	0.194032
N87	N	0.134090	0.438993	0.444032
N88	N	0.384090	0.688993	0.694032
N89	N	-0.296726	-0.059666	-0.055990
N90	N	-0.046726	0.190334	0.194010
N91	N	0.203274	0.440334	0.444010
N92	N	0.453274	0.690334	0.694010
C93	C	-0.254693	-0.121511	-0.000318
C94	C	-0.004693	0.128489	0.249682
C95	C	0.245307	0.378489	0.499682
C96	C	0.495307	0.628489	0.749682
N97	N	-0.284455	-0.184762	0.055365
N98	N	-0.034455	0.065238	0.305365
N99	N	0.215545	0.315238	0.555365
N100	N	0.465545	0.565238	0.805365
N101	N	-0.353645	-0.186106	0.055382
N102	N	-0.103645	0.063894	0.305382
N103	N	0.146355	0.313894	0.555382
N104	N	0.396355	0.563894	0.805382
C105	C	-0.395149	-0.124241	-0.000280
C106	C	-0.145149	0.125759	0.249720
C107	C	0.104851	0.375759	0.499720
C108	C	0.354851	0.625759	0.749720
C109	C	-0.131096	-0.203315	-0.000348
C110	C	0.118904	0.046685	0.249652
C111	C	0.368904	0.296685	0.499652
C112	C	0.618904	0.546685	0.749652
C113	C	-0.058266	-0.201896	-0.000352
C114	C	0.191734	0.048104	0.249648
C115	C	0.441734	0.298104	0.499648
C116	C	0.691734	0.548104	0.749648
C117	C	-0.074706	-0.033796	-0.000348
C118	C	0.175294	0.216204	0.249652
C119	C	0.425294	0.466204	0.499652
C120	C	0.675294	0.716204	0.749652
C121	C	-0.147535	-0.035217	-0.000333
C122	C	0.102465	0.214783	0.249667
C123	C	0.352465	0.464783	0.499667
C124	C	0.602465	0.714783	0.749667
C125	C	-0.175725	-0.119980	-0.000338
C126	C	0.074275	0.130020	0.249662
C127	C	0.324275	0.380020	0.499662
C128	C	0.574275	0.630020	0.749662
C129	C	-0.820035	-0.291511	-0.000294
C130	C	-0.570035	-0.041511	0.249706
C131	C	-0.320035	0.208489	0.499706
C132	C	-0.070035	0.458489	0.749706
C133	C	-0.821541	-0.393883	-0.000302
C134	C	-0.571541	-0.143883	0.249698
C135	C	-0.321541	0.106117	0.499698
C136	C	-0.071541	0.356117	0.749698
N137	N	-0.824911	-0.122871	0.254571
N138	N	-0.574911	0.127129	0.504571
N139	N	-0.324911	0.377129	0.754571
N140	N	-0.074911	0.627129	1.004571
C141	C	-0.822762	0.522979	-0.000300
C142	C	-0.572762	0.772979	0.249700
C143	C	-0.322762	1.022979	0.499700
C144	C	-0.072762	1.272979	0.749700
C145	C	-0.824301	0.418681	-0.000293
C146	C	-0.574301	0.668681	0.249707
C147	C	-0.324301	0.918681	0.499707
C148	C	-0.074301	1.168681	0.749707
C149	C	-0.825533	0.335552	-0.000287
C150	C	-0.575533	0.585552	0.249713
C151	C	-0.325533	0.835552	0.499713
C152	C	-0.075533	1.085552	0.749713
C153	C	-0.827072	0.231247	-0.000282
C154	C	-0.577072	0.481247	0.249718
C155	C	-0.327072	0.731247	0.499718
C156	C	-0.077072	0.981247	0.749718
N157	N	-0.824939	-0.122888	-0.255140
N158	N	-0.574939	0.127112	-0.005140
N159	N	-0.324939	0.377112	0.244860
N160	N	-0.074939	0.627112	0.494860
C161	C	-0.824928	-0.122889	0.655862
C162	C	-0.574928	0.127111	0.905862
C163	C	-0.324928	0.377111	1.155862
C164	C	-0.074928	0.627111	1.405862
C165	C	-0.824921	-0.122887	0.544210
C166	C	-0.574921	0.127113	0.794210
C167	C	-0.324921	0.377113	1.044210
C168	C	-0.074921	0.627113	1.294210
C169	C	-0.824920	-0.122880	0.455220
C170	C	-0.574920	0.127120	0.705220
C171	C	-0.324920	0.377120	0.955220
C172	C	-0.074920	0.627120	1.205220
C173	C	-0.824912	-0.122877	0.343561
C174	C	-0.574912	0.127123	0.593561
C175	C	-0.324912	0.377123	0.843561
C176	C	-0.074912	0.627123	1.093561
H177	H	-0.598091	-0.280978	-0.000242
H178	H	-0.348091	-0.030978	0.249758
H179	H	-0.098091	0.219022	0.499758
H180	H	0.151909	0.469022	0.749758
H181	H	-0.465973	-0.278404	-0.000261
H182	H	-0.215973	-0.028404	0.249739
H183	H	0.034027	0.221596	0.499739
H184	H	0.284027	0.471596	0.749739
F185	F	-0.161101	-0.293526	-0.000345
F186	F	0.088899	-0.043526	0.249655
F187	F	0.338899	0.206474	0.499655
F188	F	0.588899	0.456474	0.749655
H189	H	-0.495790	0.026564	-0.000255
H190	H	-0.245790	0.276564	0.249745
H191	H	0.004210	0.526564	0.499745
H192	H	0.254210	0.776564	0.749745
H193	H	-0.627917	0.024001	-0.000196
H194	H	-0.377917	0.274001	0.249804
H195	H	-0.127917	0.524001	0.499804
H196	H	0.122083	0.774001	0.749804
F197	F	-0.010770	-0.290597	-0.000368
F198	F	0.239230	-0.040597	0.249632
F199	F	0.489230	0.209403	0.499632
F200	F	0.739230	0.459403	0.749632
H201	H	-0.051748	0.035213	-0.000417
H202	H	0.198252	0.285213	0.249583
H203	H	0.448252	0.535213	0.499583
H204	H	0.698252	0.785213	0.749583
H205	H	-0.183871	0.032642	-0.000322
H206	H	0.066129	0.282642	0.249678
H207	H	0.316129	0.532642	0.499678
H208	H	0.566129	0.782642	0.749678
