data_functionalizedCrystal
_audit_creation_method	'MofGen! by Chris Wilmer'
_symmetry_space_group_name_H-M	'P1'
_symmetry_Int_Tables_number	1
_symmetry_cell_setting	triclinic
loop_
_symmetry_equiv_pos_as_xyz
  x,y,z
_cell_length_a	18.050591
_cell_length_b	21.295417
_cell_length_c	18.050591
_cell_angle_alpha	90.009154
_cell_angle_beta	90.008268
_cell_angle_gamma	90.026512
loop_
_atom_site_label
_atom_site_type_symbol
_atom_site_fract_x
_atom_site_fract_y
_atom_site_fract_z
Zn1	Zn	1.135188	-0.250826	0.420010
Zn2	Zn	1.135121	-0.356055	0.295811
Zn3	Zn	1.011035	-0.250796	0.295821
Zn4	Zn	1.010950	-0.356054	0.419946
O5	O	1.073073	-0.303432	0.357897
O6	O	1.239104	-0.264797	0.403557
O7	O	1.118668	-0.342080	0.191887
O8	O	1.027567	-0.162710	0.312326
O9	O	1.239055	-0.342109	0.312308
O10	O	1.118782	-0.162732	0.403567
O11	O	1.027502	-0.264747	0.191895
O12	O	0.907099	-0.264746	0.312264
O13	O	1.027423	-0.342107	0.523879
O14	O	0.907037	-0.342078	0.403458
O15	O	1.118700	-0.264796	0.523926
O16	O	1.118586	-0.444144	0.312246
O17	O	1.027358	-0.444143	0.403448
C18	C	0.880121	-0.303409	0.357856
C19	C	0.797576	-0.303414	0.357856
C20	C	0.598137	-0.261312	0.308378
C21	C	0.548719	-0.318722	0.290097
C22	C	0.646445	-0.303433	0.357889
C23	C	0.548782	-0.246043	0.376168
C24	C	0.500460	-0.303447	0.357920
C25	C	0.598114	-0.360873	0.339573
C26	C	0.598182	-0.288156	0.425675
C27	C	0.548785	-0.345605	0.407420
C28	C	0.730543	-0.303425	0.357869
C29	C	0.416364	-0.303462	0.357940
C30	C	1.072976	-0.466984	0.357856
C31	C	1.073002	-0.536952	0.357863
C32	C	1.120547	-0.569798	0.310423
C33	C	1.120582	-0.635541	0.310439
C34	C	1.073059	-0.668435	0.357888
C35	C	1.025511	-0.635581	0.405338
C36	C	1.025483	-0.569839	0.405325
N37	N	1.008090	-0.771698	0.363536
N38	N	1.008119	-0.834150	0.363544
C39	C	1.073142	-0.866509	0.357931
N40	N	1.138136	-0.834058	0.352295
N41	N	1.138106	-0.771601	0.352284
C42	C	1.073084	-0.739720	0.357908
C43	C	1.120728	-0.970641	0.310506
C44	C	1.120764	-1.036385	0.310528
C45	C	1.025687	-1.036423	0.405423
C46	C	1.025657	-0.970681	0.405405
C47	C	1.073177	-0.937794	0.357943
C48	C	1.266779	-0.303456	0.357938
C49	C	1.349325	-0.303467	0.357956
C50	C	1.073060	-0.303455	0.551602
C51	C	1.073054	-0.303465	0.634148
C52	C	1.073191	-0.139242	0.357954
C53	C	1.073242	-0.069274	0.357979
C54	C	1.023411	-0.345501	0.833573
C55	C	1.091155	-0.360905	0.882970
C56	C	1.073057	-0.303456	0.785278
C57	C	1.005318	-0.288072	0.882963
C58	C	1.073054	-0.303449	0.931263
C59	C	1.140836	-0.318890	0.833588
C60	C	1.054954	-0.246031	0.833577
C61	C	1.122744	-0.261413	0.882951
C62	C	1.073058	-0.303462	0.701180
C63	C	1.073061	-0.303443	1.015360
C64	C	1.073074	-0.303430	1.164945
C65	C	1.073059	-0.303438	1.082399
H66	H	0.619925	-0.275206	0.482970
H67	H	0.526993	-0.331654	0.232785
H68	H	0.986939	-0.943936	0.444032
C69	C	0.627264	-0.426466	0.318609
N70	N	0.649222	-0.475869	0.302815
H71	H	1.159242	-0.543023	0.271778
C72	C	0.519687	-0.393790	0.463998
N73	N	0.497768	-0.430084	0.506609
C74	C	1.173011	-0.934463	0.258309
N75	N	1.212394	-0.907215	0.218995
H76	H	0.986819	-0.662367	0.443972
H77	H	0.527073	-0.197510	0.391590
C78	C	1.173069	-1.072515	0.258337
N79	N	1.212465	-1.099729	0.219024
H80	H	1.159301	-0.662289	0.271808
H81	H	1.198138	-0.331953	0.811991
C82	C	0.973187	-0.533707	0.457524
N83	N	0.933800	-0.506492	0.496845
H84	H	0.981481	-0.381087	0.811893
H85	H	0.986996	-1.063205	0.444060
C86	C	1.111844	-0.426506	0.912286
N87	N	1.127422	-0.475919	0.934364
H88	H	1.164775	-0.225854	0.904495
H89	H	1.039619	-0.197485	0.811864
H90	H	0.948033	-0.275064	0.904652
C91	C	0.627417	-0.213244	0.251754
N92	N	0.649472	-0.177043	0.209104
