data_functionalizedCrystal
_audit_creation_method	'MofGen! by Chris Wilmer'
_symmetry_space_group_name_H-M	'P1'
_symmetry_Int_Tables_number	1
_symmetry_cell_setting	triclinic
loop_
_symmetry_equiv_pos_as_xyz
  x,y,z
_cell_length_a	10.654550
_cell_length_b	15.944551
_cell_length_c	9.730223
_cell_angle_alpha	89.997716
_cell_angle_beta	89.996251
_cell_angle_gamma	83.991820
loop_
_atom_site_label
_atom_site_type_symbol
_atom_site_fract_x
_atom_site_fract_y
_atom_site_fract_z
O1	O	1.666308	0.117973	-0.114406
O2	O	1.300684	0.129213	-0.114384
O3	O	1.493480	0.001376	-0.114384
O4	O	1.473511	0.245810	-0.114407
O5	O	1.493478	0.001379	0.114196
O6	O	1.300681	0.129216	0.114196
O7	O	1.666305	0.117976	0.114174
Zn8	Zn	1.483493	0.123597	0.150477
Zn9	Zn	1.483496	0.123592	-0.150687
O10	O	1.473509	0.245813	0.114173
C11	C	1.253895	0.128389	-0.000092
C12	C	1.114484	0.125920	-0.000083
C13	C	1.034024	0.201188	-0.000110
C14	C	0.903034	0.198863	-0.000134
C15	C	0.932975	0.045995	-0.000108
C16	C	1.063963	0.048321	-0.000075
C17	C	1.084545	0.278788	-0.000118
C18	C	1.004084	0.354062	-0.000147
C19	C	0.873094	0.351737	-0.000170
C20	C	0.822564	0.274137	-0.000165
C21	C	1.492650	-0.029921	-0.000093
C22	C	1.490165	-0.123182	-0.000092
C23	C	1.364720	-0.338765	-0.000104
C24	C	1.422971	-0.399443	0.112596
C25	C	1.485668	-0.293934	-0.000103
C26	C	1.423002	-0.399430	-0.112765
C27	C	1.481317	-0.458872	-0.000119
C28	C	1.543953	-0.353384	0.112691
C29	C	1.543967	-0.353364	-0.112772
C30	C	1.602306	-0.414024	-0.000045
C31	C	1.488172	-0.198917	-0.000092
C32	C	1.478822	-0.553887	-0.000119
C33	C	1.713094	0.118800	-0.000122
C34	C	1.852505	0.121269	-0.000140
C35	C	1.474339	0.277110	-0.000120
C36	C	1.476824	0.370371	-0.000130
N37	N	1.483500	0.123599	0.356013
N38	N	1.483499	0.123583	-0.356224
C39	C	1.568892	0.067012	0.427939
C40	C	1.568889	0.067002	0.571822
C41	C	1.398098	0.180173	0.571840
C42	C	1.398096	0.180178	0.427959
C43	C	1.654296	0.010433	0.355993
C44	C	1.739696	-0.046158	0.427920
C45	C	1.739693	-0.046168	0.571803
C46	C	1.654290	0.010412	0.643759
H47	H	1.264327	-0.306038	0.000015
C48	C	0.678477	0.271581	-0.000195
H49	H	0.637791	0.327522	-0.000219
H50	H	0.654347	0.242826	0.079508
H51	H	0.654399	0.242827	-0.079924
H52	H	1.809222	-0.092229	0.369325
H53	H	0.891822	-0.017184	-0.000127
C54	C	1.059662	0.439414	-0.000151
H55	H	1.149198	0.430021	-0.000146
H56	H	1.032028	0.470443	0.079549
H57	H	1.032061	0.470432	-0.079883
H58	H	1.371831	-0.419804	-0.208051
C59	C	1.613013	-0.325762	-0.241496
H60	H	1.569917	-0.341355	-0.321498
H61	H	1.696939	-0.352571	-0.242312
H62	H	1.614748	-0.266319	-0.240109
H63	H	1.654286	0.010393	0.760918
H64	H	1.654309	0.010437	0.238836
H65	H	1.129476	-0.012970	-0.000056
H66	H	1.371814	-0.419846	0.207881
H67	H	1.809220	-0.092252	0.630364
H68	H	1.328567	0.226239	0.630436
C69	C	1.738038	-0.458043	0.000032
H70	H	1.780793	-0.442282	0.080160
H71	H	1.781321	-0.441570	-0.079271
H72	H	1.735731	-0.517441	-0.000716
C73	C	1.228629	0.281349	-0.000086
H74	H	1.247197	0.338342	-0.000084
H75	H	1.263812	0.253639	-0.079782
H76	H	1.263767	0.253653	0.079650
C77	C	1.612991	-0.325983	0.241553
H78	H	1.614103	-0.266484	0.240798
H79	H	1.697134	-0.352425	0.241880
H80	H	1.570300	-0.342124	0.321487
C81	C	1.304167	0.242419	0.348829
H82	H	1.316390	0.234310	0.252835
H83	H	1.317793	0.298566	0.372401
H84	H	1.220357	0.232763	0.372416
H85	H	0.807585	0.413029	-0.000180
