data_functionalizedCrystal
_audit_creation_method	'MofGen! by Chris Wilmer'
_symmetry_space_group_name_H-M	'P1'
_symmetry_Int_Tables_number	1
_symmetry_cell_setting	triclinic
loop_
_symmetry_equiv_pos_as_xyz
  x,y,z
_cell_length_a	11.792241
_cell_length_b	10.654550
_cell_length_c	9.730223
_cell_angle_alpha	89.999807
_cell_angle_beta	90.003985
_cell_angle_gamma	84.339159
loop_
_atom_site_label
_atom_site_type_symbol
_atom_site_fract_x
_atom_site_fract_y
_atom_site_fract_z
O1	O	1.507300	0.172130	-0.114153
O2	O	1.177000	0.189870	-0.114184
O3	O	1.349744	-0.001761	-0.114163
O4	O	1.334556	0.363761	-0.114174
O5	O	1.349742	-0.001756	0.114417
O6	O	1.176998	0.189875	0.114396
O7	O	1.507298	0.172135	0.114427
Zn8	Zn	1.342148	0.181006	0.150703
Zn9	Zn	1.342150	0.180999	-0.150460
O10	O	1.334554	0.363766	0.114406
C11	C	1.348628	-0.048553	0.000126
C12	C	1.345291	-0.187987	0.000120
C13	C	1.134705	0.188758	0.000102
C14	C	1.008684	0.185423	0.000090
C15	C	1.447000	-0.267760	0.000134
C16	C	1.443858	-0.398772	0.000124
C17	C	1.237290	-0.370224	0.000092
C18	C	1.240433	-0.239215	0.000093
C19	C	1.566261	-0.284243	0.000159
C20	C	1.563120	-0.415255	0.000149
C21	C	0.777958	0.179290	0.000129
C22	C	0.906351	0.182697	0.000107
C23	C	1.549592	0.173247	0.000138
C24	C	1.675614	0.176582	0.000141
C25	C	1.335670	0.410558	0.000114
C26	C	1.339006	0.549992	0.000111
N27	N	1.342154	0.181009	0.356240
N28	N	1.342153	0.180986	-0.355997
C29	C	1.418665	0.096184	0.428175
C30	C	1.418662	0.096169	0.572058
C31	C	1.265633	0.265815	0.572057
C32	C	1.265632	0.265823	0.428177
C33	C	1.507018	-0.001756	0.428177
C34	C	1.507015	-0.001772	0.572060
H35	H	1.157611	-0.174267	0.000062
H36	H	1.594237	0.019500	0.611119
O37	O	1.483688	-0.116799	0.381649
C38	C	1.349579	-0.273382	0.377342
C39	C	1.375848	-0.143071	0.430096
H40	H	1.262401	-0.294676	0.416514
H41	H	1.349491	-0.273434	0.260178
H42	H	1.417449	-0.348554	0.416360
H43	H	1.308007	-0.067827	0.391179
H44	H	1.375976	-0.143126	0.547260
O45	O	1.473945	-0.110401	0.625347
C46	C	1.338578	-0.205743	0.767246
C47	C	1.375888	-0.082631	0.706974
H48	H	1.259310	-0.183331	0.833278
H49	H	1.318596	-0.271539	0.680030
H50	H	1.410271	-0.253499	0.833129
H51	H	1.304242	-0.034768	0.641107
H52	H	1.395908	-0.016924	0.794254
H53	H	1.612910	-0.255019	-0.095490
H54	H	1.151917	-0.411951	0.000069
O55	O	1.605215	0.034529	0.374706
C56	C	1.710787	0.073481	0.169619
C57	C	1.599528	0.032355	0.229993
H58	H	1.706236	0.071711	0.052612
H59	H	1.722688	0.173129	0.205720
H60	H	1.785847	0.005955	0.205848
H61	H	1.524402	0.099792	0.193792
H62	H	1.587727	-0.067319	0.193900
O63	O	1.191149	0.348075	0.641880
C64	C	0.994371	0.420226	0.685826
C65	C	1.078599	0.326975	0.606694
H66	H	0.903357	0.403217	0.657385
H67	H	1.007412	0.405647	0.801034
H68	H	1.010001	0.520923	0.657568
H69	H	1.063021	0.226242	0.634837
H70	H	1.065539	0.341665	0.491505
O71	O	1.611370	-0.242035	0.118108
C72	C	1.692633	-0.296889	0.339902
C73	C	1.641778	-0.344889	0.206284
H74	H	1.717210	-0.380019	0.411241
H75	H	1.771525	-0.247458	0.314699
H76	H	1.626729	-0.227628	0.392727
H77	H	1.707598	-0.414195	0.153393
H78	H	1.562863	-0.394246	0.231576
H79	H	1.203321	0.334884	0.369608
O80	O	1.606208	-0.469648	-0.117638
C81	C	1.690242	-0.437632	-0.339046
C82	C	1.641501	-0.375871	-0.205715
H83	H	1.718767	-0.361839	-0.410305
H84	H	1.766246	-0.508333	-0.313411
H85	H	1.621714	-0.488452	-0.392168
H86	H	1.709947	-0.324984	-0.152528
H87	H	1.565471	-0.305239	-0.231439
O88	O	1.616866	-0.465323	0.114137
C89	C	1.770127	-0.608359	0.203808
C90	C	1.709398	-0.551732	0.074606
H91	H	1.844937	-0.678251	0.171893
H92	H	1.802724	-0.529676	0.267627
H93	H	1.707618	-0.659135	0.267565
H94	H	1.771840	-0.500967	0.010742
H95	H	1.676781	-0.630468	0.010891
