data_functionalizedCrystal
_audit_creation_method	'MofGen! by Chris Wilmer'
_symmetry_space_group_name_H-M	'P1'
_symmetry_Int_Tables_number	1
_symmetry_cell_setting	triclinic
loop_
_symmetry_equiv_pos_as_xyz
  x,y,z
_cell_length_a	12.759401
_cell_length_b	12.759394
_cell_length_c	12.759393
_cell_angle_alpha	90.031574
_cell_angle_beta	89.980324
_cell_angle_gamma	89.977086
loop_
_atom_site_label
_atom_site_type_symbol
_atom_site_fract_x
_atom_site_fract_y
_atom_site_fract_z
Zn1	Zn	1.606209	0.418204	-0.593977
Zn2	Zn	1.606077	0.593919	-0.418294
Zn3	Zn	1.430508	0.418256	-0.418316
Zn4	Zn	1.430476	0.593843	-0.593935
O5	O	1.518318	0.506056	-0.506130
O6	O	1.753213	0.441523	-0.570680
O7	O	1.582745	0.570671	-0.271275
O8	O	1.453884	0.271228	-0.441645
O9	O	1.753115	0.570620	-0.441607
O10	O	1.582971	0.271190	-0.570702
O11	O	1.453756	0.441612	-0.271292
O12	O	1.283483	0.441538	-0.441604
O13	O	1.453830	0.570490	-0.740961
O14	O	1.283459	0.570541	-0.570630
O15	O	1.582940	0.441449	-0.740992
O16	O	1.582714	0.740930	-0.441566
O17	O	1.453701	0.740874	-0.570609
C18	C	1.245350	0.506037	-0.506115
C19	C	1.128574	0.506055	-0.506134
C20	C	1.073763	0.438955	-0.573446
C21	C	0.964039	0.438966	-0.573453
C22	C	0.963946	0.573185	-0.438833
C23	C	1.073668	0.573168	-0.438821
C24	C	1.518218	0.779023	-0.506103
C25	C	1.518272	0.895800	-0.506127
C26	C	1.652589	0.895601	-0.640615
C27	C	1.719773	0.950363	-0.707865
C28	C	1.719819	1.060085	-0.707884
C29	C	1.652672	1.115047	-0.640647
C30	C	1.585488	1.060285	-0.573397
C31	C	1.585452	0.950561	-0.573384
C32	C	1.451167	1.060484	-0.438916
C33	C	1.451124	0.950762	-0.438890
C34	C	1.384019	1.115446	-0.371680
C35	C	1.316839	1.060685	-0.304423
C36	C	1.316797	0.950956	-0.304406
C37	C	1.383941	0.896001	-0.371640
C38	C	1.792351	0.506074	-0.506146
C39	C	1.909128	0.506082	-0.506152
C40	C	1.518408	1.232022	-0.506171
C41	C	1.518350	1.115245	-0.506166
C42	C	1.518396	0.505955	-0.780164
C43	C	1.518430	0.505912	-0.896940
C44	C	1.585663	0.438709	-0.951820
C45	C	1.585680	0.438664	-1.061544
C46	C	1.451230	0.573033	-1.061499
C47	C	1.451207	0.573072	-0.951777
C48	C	1.518300	0.506080	-0.233163
C49	C	1.518470	0.505827	-0.116387
H50	H	1.652569	0.806260	-0.640597
H51	H	1.396451	0.627795	-0.907093
Br52	Br	1.148061	0.664224	-0.347447
Br53	Br	1.810884	0.875768	-0.799123
H54	H	0.919228	0.627827	-0.384030
Br55	Br	1.810991	1.134409	-0.799157
Br56	Br	1.148275	0.347871	-0.664796
H57	H	0.919417	0.384325	-0.628264
Br58	Br	1.652900	1.263956	-0.640510
H59	H	1.640397	0.384020	-0.907175
Br60	Br	1.384238	1.264355	-0.371546
H61	H	1.262169	1.105444	-0.249690
Br62	Br	1.225606	0.876646	-0.213141
Br63	Br	1.383873	0.747092	-0.371639
H64	H	1.396502	0.627714	-1.106161
H65	H	1.640426	0.383939	-1.106223
