data_functionalizedCrystal
_audit_creation_method	'MofGen! by Chris Wilmer'
_symmetry_space_group_name_H-M	'P1'
_symmetry_Int_Tables_number	1
_symmetry_cell_setting	triclinic
loop_
_symmetry_equiv_pos_as_xyz
  x,y,z
_cell_length_a	11.169417
_cell_length_b	12.827892
_cell_length_c	12.827885
_cell_angle_alpha	90.030166
_cell_angle_beta	90.017597
_cell_angle_gamma	90.016641
loop_
_atom_site_label
_atom_site_type_symbol
_atom_site_fract_x
_atom_site_fract_y
_atom_site_fract_z
Zn1	Zn	1.834897	-0.415946	0.590801
Zn2	Zn	1.834776	-0.590724	0.416060
Zn3	Zn	1.634190	-0.416001	0.416079
Zn4	Zn	1.634173	-0.590649	0.590765
O5	O	1.734509	-0.503330	0.503426
O6	O	2.002831	-0.439138	0.567628
O7	O	1.808124	-0.567601	0.269827
O8	O	1.660872	-0.269758	0.439279
O9	O	2.002742	-0.567547	0.439247
O10	O	1.808331	-0.269717	0.567646
O11	O	1.660754	-0.439233	0.269841
O12	O	1.466238	-0.439160	0.439245
O13	O	1.660843	-0.567420	0.737006
O14	O	1.466226	-0.567474	0.567586
O15	O	1.808315	-0.439066	0.737032
O16	O	1.808108	-0.736950	0.439213
O17	O	1.660726	-0.736895	0.567568
C18	C	1.422684	-0.503316	0.503414
C19	C	1.289284	-0.503335	0.503434
C20	C	1.734434	-0.774840	0.503407
C21	C	1.734512	-0.890993	0.503434
C22	C	1.807447	-0.942674	0.567011
C23	C	1.807529	-1.062724	0.567040
C24	C	2.047551	-0.503345	0.503439
C25	C	2.180951	-0.503351	0.503444
C26	C	1.734591	-0.503229	0.775997
C27	C	1.734626	-0.503185	0.892150
C28	C	1.734617	-0.230760	0.503469
C29	C	1.734663	-0.114607	0.503487
C30	C	1.734497	-0.503355	0.231917
C31	C	1.734695	-0.503104	0.115764
C32	C	1.661764	-0.439609	1.063986
C33	C	1.661726	-0.439653	0.943936
H34	H	1.869825	-0.898046	0.621425
O35	O	1.881852	-1.115787	0.632091
C36	C	1.813453	-1.178945	0.699471
H37	H	1.718935	-1.146053	0.705875
H38	H	1.809308	-1.261651	0.667099
C39	C	1.988101	-1.221041	0.800285
C40	C	1.872016	-1.180638	0.808158
H41	H	2.024227	-1.222091	0.867327
H42	H	2.034184	-1.178494	0.754888
H43	H	1.984632	-1.289960	0.773304
H44	H	1.875488	-1.111717	0.835126
H45	H	1.825934	-1.223174	0.853562
H46	H	1.672222	-1.070169	0.449049
H47	H	1.672125	-0.935623	0.449030
O48	O	1.587178	-0.374865	1.117169
C49	C	1.509744	-0.434389	1.180316
H50	H	1.502250	-0.516676	1.147345
H51	H	1.546967	-0.438035	1.262995
C52	C	1.394206	-0.282262	1.222642
C53	C	1.384994	-0.383326	1.182142
H54	H	1.317255	-0.250763	1.223773
H55	H	1.446377	-0.242158	1.180102
H56	H	1.425230	-0.285315	1.291538
H57	H	1.353985	-0.380271	1.113244
H58	H	1.332815	-0.423428	1.224670
O59	O	1.587344	-0.374832	0.890662
C60	C	1.603850	-0.389319	0.782659
H61	H	1.696468	-0.423567	0.767853
H62	H	1.532661	-0.445006	0.751673
C63	C	1.479176	-0.241592	0.744722
C64	C	1.592936	-0.283648	0.726537
H65	H	1.472439	-0.176411	0.710102
H66	H	1.468052	-0.231834	0.817486
H67	H	1.419865	-0.288008	0.718901
H68	H	1.652245	-0.237239	0.752370
H69	H	1.604071	-0.293397	0.653776
O70	O	1.809292	-0.567992	0.945138
C71	C	1.928938	-0.545172	0.918569
H72	H	1.931496	-0.505097	0.839303
H73	H	1.969338	-0.491370	0.979987
C74	C	1.998462	-0.696275	1.011013
C75	C	2.001605	-0.647063	0.913652
H76	H	2.043289	-0.759125	1.007984
H77	H	1.917855	-0.711648	1.028917
H78	H	2.032127	-0.651430	1.062184
H79	H	1.967927	-0.691903	0.862486
H80	H	2.082208	-0.631700	0.895740
H81	H	1.797110	-0.557492	1.071216
