data_functionalizedCrystal
_audit_creation_method	'MofGen! by Chris Wilmer'
_symmetry_space_group_name_H-M	'P1'
_symmetry_Int_Tables_number	1
_symmetry_cell_setting	triclinic
loop_
_symmetry_equiv_pos_as_xyz
  x,y,z
_cell_length_a	11.792241
_cell_length_b	16.109301
_cell_length_c	14.586319
_cell_angle_alpha	90.005214
_cell_angle_beta	89.997362
_cell_angle_gamma	96.172552
loop_
_atom_site_label
_atom_site_type_symbol
_atom_site_fract_x
_atom_site_fract_y
_atom_site_fract_z
O1	O	1.505908	-0.113953	-0.076225
O2	O	2.005908	0.386047	0.423775
O3	O	1.175464	-0.125697	-0.076231
O4	O	1.675464	0.374303	0.423769
O5	O	1.349763	0.001163	-0.076219
O6	O	1.849763	0.501163	0.423781
O7	O	1.331608	-0.240814	-0.076238
O8	O	1.831608	0.259186	0.423762
O9	O	1.349751	0.001165	0.076262
O10	O	1.849751	0.501165	0.576262
O11	O	1.175452	-0.125695	0.076249
O12	O	1.675452	0.374305	0.576249
O13	O	1.505896	-0.113951	0.076255
O14	O	2.005896	0.386049	0.576255
Cu15	Cu	1.340673	-0.119823	0.090175
Cu16	Cu	1.840673	0.380177	0.590175
Cu17	Cu	1.340687	-0.119825	-0.090151
Cu18	Cu	1.840687	0.380175	0.409849
O19	O	1.331596	-0.240812	0.076243
O20	O	1.831596	0.259188	0.576243
C21	C	1.133173	-0.124959	0.000008
C22	C	1.633173	0.375041	0.500008
C23	C	1.007179	-0.122751	0.000006
C24	C	1.507179	0.377249	0.500006
C25	C	1.548186	-0.114690	0.000014
C26	C	2.048186	0.385310	0.500014
C27	C	1.674181	-0.116898	0.000010
C28	C	2.174181	0.383102	0.500010
C29	C	1.349022	0.032142	0.000022
C30	C	1.849022	0.532142	0.500022
C31	C	1.346817	0.124448	0.000023
C32	C	1.846817	0.624448	0.500023
C33	C	1.904857	-0.120958	0.000010
C34	C	2.404857	0.379042	0.500010
C35	C	1.776492	-0.118702	0.000010
C36	C	2.276492	0.381298	0.500010
C37	C	1.332338	-0.271791	0.000000
C38	C	1.832338	0.228209	0.500000
C39	C	1.334542	-0.364097	-0.000007
C40	C	1.834542	0.135903	0.499993
N41	N	1.340671	-0.119821	0.217007
N42	N	1.840671	0.380179	0.717007
C43	C	1.445116	0.346258	0.000010
C44	C	1.945116	0.846258	0.500010
C45	C	1.443036	0.432988	0.000003
C46	C	1.943036	0.932988	0.500003
C47	C	1.236235	0.414087	0.000003
C48	C	1.736235	0.914087	0.500003
C49	C	1.238317	0.327358	0.000004
C50	C	1.738317	0.827358	0.500004
C51	C	1.342761	0.293446	0.000012
C52	C	1.842761	0.793446	0.500012
C53	C	1.338599	0.466905	0.000004
C54	C	1.838599	0.966905	0.500004
C55	C	1.336342	0.560942	-0.000005
C56	C	1.836342	1.060942	0.499995
C57	C	1.345018	0.199404	0.000019
C58	C	1.845018	0.699404	0.500019
N59	N	1.340698	-0.119821	-0.216983
N60	N	1.840698	0.380179	0.283017
C61	C	1.417876	-0.063666	0.452019
C62	C	1.917876	0.436334	0.952019
C63	C	1.417879	-0.063664	0.548000
C64	C	1.917879	0.436336	1.048000
C65	C	1.263484	-0.175978	0.547998
C66	C	1.763484	0.324022	1.047998
C67	C	1.263476	-0.175976	0.452019
C68	C	1.763476	0.324024	0.952019
C69	C	1.340679	-0.119821	0.404032
C70	C	1.840679	0.380179	0.904032
C71	C	1.340690	-0.119821	0.595992
C72	C	1.840690	0.380179	1.095992
C73	C	1.340693	-0.119820	0.700059
C74	C	1.840693	0.380180	1.200059
C75	C	1.340675	-0.119821	0.299958
C76	C	1.840675	0.380179	0.799958
H77	H	1.530161	0.318650	0.000016
H78	H	2.030161	0.818650	0.500016
H79	H	1.200607	-0.221704	0.412945
H80	H	1.700607	0.278296	0.912945
H81	H	1.526384	0.475984	-0.000000
H82	H	2.026384	0.975984	0.500000
H83	H	1.151201	0.441709	-0.000003
H84	H	1.651201	0.941709	0.499997
Br85	Br	1.099396	0.255679	-0.000006
Br86	Br	1.599396	0.755679	0.499994
H87	H	1.480738	-0.017940	0.412950
H88	H	1.980738	0.482060	0.912950
H89	H	1.480739	-0.017937	0.587069
H90	H	1.980739	0.482063	1.087069
H91	H	1.200629	-0.221700	0.587079
H92	H	1.700629	0.278300	1.087079
