data_functionalizedCrystal
_audit_creation_method	'MofGen! by Chris Wilmer'
_symmetry_space_group_name_H-M	'P1'
_symmetry_Int_Tables_number	1
_symmetry_cell_setting	triclinic
loop_
_symmetry_equiv_pos_as_xyz
  x,y,z
_cell_length_a	12.837943
_cell_length_b	11.892095
_cell_length_c	12.837942
_cell_angle_alpha	85.697431
_cell_angle_beta	94.828940
_cell_angle_gamma	94.310562
loop_
_atom_site_label
_atom_site_type_symbol
_atom_site_fract_x
_atom_site_fract_y
_atom_site_fract_z
O1	O	1.408367	0.093982	0.266110
O2	O	1.105234	0.093989	0.252667
O3	O	1.250078	0.093979	0.107822
O4	O	1.263522	0.093992	0.410955
O5	O	1.237999	-0.094028	0.119879
O6	O	1.093155	-0.094018	0.264723
O7	O	1.396288	-0.094025	0.278167
Zn8	Zn	1.242803	-0.123871	0.273359
Zn9	Zn	1.258718	0.123836	0.257474
O10	O	1.251443	-0.094014	0.423011
C11	C	1.060125	-0.000014	0.254153
C12	C	0.943710	-0.000011	0.240609
N13	N	1.231950	-0.292925	0.284200
C14	C	0.718835	-0.000020	0.403439
C15	C	0.609453	-0.000019	0.390717
C16	C	0.615561	-0.000015	0.202446
C17	C	0.724943	-0.000017	0.215167
C18	C	0.776577	-0.000017	0.315667
C19	C	0.885961	-0.000011	0.328387
C20	C	0.892066	-0.000015	0.140117
C21	C	0.782684	-0.000014	0.127395
C22	C	1.345098	-0.529580	0.171130
C23	C	1.337519	-0.647922	0.178716
C24	C	1.209210	-0.647951	0.306952
C25	C	1.216788	-0.529610	0.299366
C26	C	1.284736	-0.470428	0.231454
C27	C	1.292319	-0.352085	0.223874
C28	C	1.164005	-0.352116	0.352104
C29	C	1.156426	-0.470458	0.359690
C30	C	1.441397	-0.000020	0.276680
C31	C	1.557812	-0.000015	0.290224
C32	C	1.239497	-0.000024	0.074781
C33	C	1.225953	-0.000022	-0.041634
N34	N	1.269579	0.292889	0.246626
C35	C	1.388784	-0.000002	-0.266509
C36	C	1.376062	0.000000	-0.375892
C37	C	1.187791	-0.000007	-0.369784
C38	C	1.200512	-0.000009	-0.260402
C39	C	1.301011	-0.000008	-0.208768
C40	C	1.313731	-0.000019	-0.099383
C41	C	1.125461	-0.000018	-0.093278
C42	C	1.112740	-0.000016	-0.202660
C43	C	1.262024	-0.000009	0.456052
C44	C	1.275569	-0.000004	0.572467
H45	H	0.760876	-0.000019	0.485269
H46	H	1.386671	-0.696080	0.129593
N47	N	0.954336	-0.000024	0.045436
H48	H	0.941108	0.069670	-0.002398
H49	H	1.031442	-0.000067	0.068821
N50	N	0.559872	-0.000015	0.094053
H51	H	0.575771	-0.069710	0.059583
H52	H	0.481834	0.000023	0.099393
H53	H	1.153882	-0.696151	0.362237
H54	H	0.740628	-0.000026	0.045572
N55	N	0.941649	-0.000005	0.436780
H56	H	0.916801	-0.069702	0.480183
H57	H	1.019692	0.000041	0.431437
H58	H	1.400430	-0.481394	0.115841
N59	N	0.547170	-0.000066	0.485387
H60	H	0.596481	-0.000080	0.550980
H61	H	0.506114	0.069618	0.479770
N62	N	1.365604	-0.288249	0.150634
H63	H	1.402691	-0.343684	0.113569
H64	H	1.324099	-0.239157	0.097229
N65	N	1.004349	-0.000013	-0.258353
H66	H	1.009607	-0.000010	-0.336409
H67	H	0.960996	-0.069715	-0.233436
N68	N	1.079404	0.000004	-0.425484
H69	H	1.084669	0.000011	-0.503539
H70	H	1.036042	-0.069695	-0.400574
N71	N	1.470731	-0.000010	-0.438168
H72	H	1.447426	-0.000010	-0.515297
H73	H	1.518539	0.069686	-0.424849
H74	H	1.101102	-0.518656	0.414980
H75	H	1.114857	-0.303941	0.401227
H76	H	1.395563	-0.000022	-0.057344
H77	H	1.470613	-0.000012	-0.224468
H78	H	1.053990	-0.000033	-0.046252
