data_functionalizedCrystal
_audit_creation_method	'MofGen! by Chris Wilmer'
_symmetry_space_group_name_H-M	'P1'
_symmetry_Int_Tables_number	1
_symmetry_cell_setting	triclinic
loop_
_symmetry_equiv_pos_as_xyz
  x,y,z
_cell_length_a	15.944551
_cell_length_b	14.421503
_cell_length_c	15.944551
_cell_angle_alpha	89.996660
_cell_angle_beta	83.498738
_cell_angle_gamma	90.003141
loop_
_atom_site_label
_atom_site_type_symbol
_atom_site_fract_x
_atom_site_fract_y
_atom_site_fract_z
O1	O	1.114529	0.077017	0.108320
O2	O	0.869980	0.077040	0.121677
O3	O	0.998933	0.077020	-0.007276
O4	O	0.985576	0.077038	0.237273
O5	O	0.998911	-0.077204	-0.007257
O6	O	0.869958	-0.077183	0.121696
O7	O	1.114508	-0.077206	0.108340
Cu8	Cu	0.992231	-0.091277	0.115020
Cu9	Cu	0.992256	0.091110	0.114997
O10	O	0.985555	-0.077186	0.237293
C11	C	0.838675	-0.000069	0.121132
C12	C	0.745429	-0.000060	0.119470
N13	N	0.992219	-0.219558	0.115035
C14	C	0.530572	-0.000084	0.035565
C15	C	0.469563	0.075959	0.074518
C16	C	0.574703	-0.000071	0.116462
C17	C	0.469564	-0.076093	0.074556
C18	C	0.409790	-0.000086	0.113551
C19	C	0.514922	0.076035	0.155437
C20	C	0.514929	-0.076086	0.155464
C21	C	0.453937	-0.000024	0.194476
C22	C	0.669705	-0.000062	0.118137
C23	C	0.314789	-0.000089	0.111883
C24	C	0.932581	-0.469202	0.174636
C25	C	1.008481	-0.531011	0.190943
C26	C	0.992240	-0.408719	0.115015
C27	C	0.916359	-0.531005	0.098727
C28	C	0.992253	-0.591441	0.114997
C29	C	1.068178	-0.469167	0.131360
C30	C	0.976007	-0.469156	0.039111
C31	C	1.051961	-0.530936	0.055386
C32	C	0.992231	-0.303458	0.115027
C33	C	0.992270	-0.696700	0.114985
C34	C	1.145813	-0.000096	0.108885
C35	C	1.239059	-0.000098	0.110547
C36	C	0.998367	-0.000092	-0.038561
C37	C	0.996705	-0.000093	-0.131807
N38	N	0.992275	0.219392	0.114975
C39	C	0.912801	-0.000072	-0.346663
C40	C	0.951753	-0.076117	-0.407671
C41	C	0.993698	-0.000085	-0.302533
C42	C	0.951793	0.075935	-0.407674
C43	C	0.990787	-0.000074	-0.467445
C44	C	1.032672	-0.076193	-0.362312
C45	C	1.032701	0.075927	-0.362308
C46	C	1.071711	-0.000136	-0.423298
C47	C	0.995372	-0.000092	-0.207530
C48	C	0.989119	-0.000073	-0.562446
C49	C	0.986120	-0.000072	0.268577
C50	C	0.987782	-0.000066	0.361823
H51	H	0.563905	0.000005	-0.031573
C52	C	1.078154	0.161756	-0.335495
C53	C	1.035523	0.241167	-0.358195
C54	C	1.077356	0.320256	-0.333495
H55	H	1.134293	0.162427	-0.362772
H56	H	1.079298	0.160873	-0.276055
H57	H	1.034388	0.242049	-0.417623
H58	H	0.979387	0.240526	-0.330921
H59	H	1.078500	0.319373	-0.274056
H60	H	1.133493	0.320917	-0.360774
H61	H	1.048432	0.374145	-0.348887
C62	C	0.865262	-0.433175	0.241859
C63	C	0.786070	-0.465867	0.225412
C64	C	0.724042	-0.432707	0.287326
H65	H	0.865275	-0.367314	0.241116
H66	H	0.876886	-0.454383	0.295762
H67	H	0.774448	-0.444654	0.171523
H68	H	0.786029	-0.531725	0.226162
H69	H	0.735666	-0.453915	0.341229
H70	H	0.724063	-0.366847	0.286578
H71	H	0.670305	-0.454890	0.276179
C72	C	0.906036	0.161628	-0.434335
C73	C	0.822893	0.161277	-0.395142
C74	C	0.780714	0.240203	-0.419669
H75	H	0.905664	0.161391	-0.493866
H76	H	0.934190	0.215647	-0.418011
H77	H	0.794745	0.107272	-0.411471
H78	H	0.823240	0.161527	-0.335612
H79	H	0.808869	0.294222	-0.403345
H80	H	0.780349	0.239960	-0.479200
H81	H	0.724300	0.239980	-0.393074
H82	H	0.852183	-0.558170	0.084959
H83	H	1.066850	-0.140554	-0.342314
H84	H	0.449469	-0.140379	0.040333
C85	C	0.823332	-0.000105	-0.302091
C86	C	0.826038	0.000735	-0.214630
C87	C	0.743638	0.000715	-0.173543
H88	H	0.794631	-0.054172	-0.317406
H89	H	0.794305	0.053393	-0.318225
H90	H	0.855053	-0.052757	-0.198502
H91	H	0.854722	0.054798	-0.199290
H92	H	0.714611	0.054213	-0.189677
H93	H	0.714944	-0.053352	-0.188864
H94	H	0.745463	0.001294	-0.114197
C95	C	1.119383	-0.566680	-0.011872
C96	C	1.161609	-0.491501	-0.053090
C97	C	1.223732	-0.524394	-0.115040
H98	H	1.093702	-0.602922	-0.051666
H99	H	1.158574	-0.603740	0.013866
H100	H	1.122424	-0.454457	-0.078827
H101	H	1.187308	-0.455252	-0.013318
H102	H	1.262923	-0.561453	-0.089302
H103	H	1.198043	-0.560635	-0.154828
H104	H	1.252394	-0.473390	-0.143008
C105	C	0.957707	-0.432707	-0.046396
C106	C	0.958733	-0.335635	-0.045463
C107	C	0.941879	-0.302023	-0.124219
H108	H	0.903744	-0.453742	-0.057964
H109	H	0.999556	-0.454710	-0.088887
H110	H	0.916886	-0.313640	-0.002985
H111	H	1.012690	-0.314575	-0.033909
H112	H	0.983728	-0.324026	-0.166709
H113	H	0.887916	-0.323064	-0.135780
H114	H	0.942580	-0.236157	-0.123599
C115	C	0.442818	0.161594	0.028730
C116	C	0.481968	0.161229	-0.054429
C117	C	0.457346	0.240090	-0.096642
H118	H	0.459100	0.215662	0.056816
H119	H	0.383271	0.161257	0.028406
H120	H	0.541502	0.161574	-0.054101
H121	H	0.465691	0.107178	-0.082538
H122	H	0.397799	0.239753	-0.096966
H123	H	0.473629	0.294152	-0.068550
H124	H	0.483899	0.239849	-0.153072
H125	H	0.534918	0.140394	0.189620
H126	H	0.917527	-0.140401	-0.427771
C127	C	0.409760	0.000226	0.284103
C128	C	0.432754	0.079986	0.326046
C129	C	0.392064	0.080259	0.408606
H130	H	0.425947	-0.053214	0.313161
H131	H	0.350365	-0.000238	0.282595
H132	H	0.492135	0.080441	0.327558
H133	H	0.416566	0.133439	0.297013
H134	H	0.332670	0.079795	0.407098
H135	H	0.408255	0.026815	0.437656
H136	H	0.407654	0.134379	0.437072
C137	C	1.026640	-0.567196	0.276590
C138	C	0.963979	-0.535943	0.338779
C139	C	0.980667	-0.569265	0.417687
H140	H	1.080105	-0.545135	0.288681
H141	H	1.026986	-0.633068	0.275842
H142	H	0.963642	-0.470085	0.339529
H143	H	0.910508	-0.558002	0.326716
H144	H	0.981012	-0.635137	0.416939
H145	H	1.034133	-0.547201	0.429769
H146	H	0.938150	-0.548072	0.459891
H147	H	0.535052	-0.140373	0.189660
C148	C	1.153678	-0.432929	0.149920
C149	C	1.152646	-0.335850	0.149799
C150	C	1.231376	-0.302433	0.166937
H151	H	1.196187	-0.454442	0.107872
H152	H	1.165270	-0.454590	0.203690
H153	H	1.141064	-0.314198	0.096037
H154	H	1.110154	-0.314312	0.191848
H155	H	1.242968	-0.324094	0.220706
H156	H	1.273879	-0.323952	0.124886
H157	H	1.230684	-0.236562	0.166865
H158	H	1.138919	-0.000186	-0.456457
