data_functionalizedCrystal
_audit_creation_method	'MofGen! by Chris Wilmer'
_symmetry_space_group_name_H-M	'P1'
_symmetry_Int_Tables_number	1
_symmetry_cell_setting	triclinic
loop_
_symmetry_equiv_pos_as_xyz
  x,y,z
_cell_length_a	14.971482
_cell_length_b	14.971487
_cell_length_c	14.048226
_cell_angle_alpha	89.997127
_cell_angle_beta	90.004294
_cell_angle_gamma	96.386495
loop_
_atom_site_label
_atom_site_type_symbol
_atom_site_fract_x
_atom_site_fract_y
_atom_site_fract_z
O1	O	1.186948	-0.116545	0.079147
O2	O	1.686948	0.383455	0.579147
O3	O	0.926547	-0.130508	0.079151
O4	O	1.426547	0.369492	0.579151
O5	O	1.063726	0.006674	0.079144
O6	O	1.563726	0.506674	0.579144
O7	O	1.049768	-0.253727	0.079154
O8	O	1.549768	0.246273	0.579154
O9	O	1.063713	0.006675	-0.079177
O10	O	1.563713	0.506675	0.420823
O11	O	0.926534	-0.130506	-0.079170
O12	O	1.426534	0.369494	0.420830
O13	O	1.186935	-0.116544	-0.079175
O14	O	1.686935	0.383456	0.420825
Zn15	Zn	1.056732	-0.123525	-0.104309
Zn16	Zn	1.556732	0.376475	0.395691
Zn17	Zn	1.056749	-0.123527	0.104286
Zn18	Zn	1.556749	0.376473	0.604286
O19	O	1.049755	-0.253725	-0.079168
O20	O	1.549755	0.246275	0.420832
C21	C	0.893216	-0.129883	-0.000009
C22	C	1.393216	0.370117	0.499991
C23	C	0.793918	-0.128014	-0.000007
C24	C	1.293918	0.371986	0.499993
C25	C	0.747267	-0.127133	-0.086309
C26	C	1.247267	0.372867	0.413691
C27	C	0.653968	-0.125362	-0.086310
C28	C	1.153968	0.374638	0.413690
C29	C	0.607322	-0.124479	-0.000008
C30	C	1.107322	0.375521	0.499992
C31	C	0.653981	-0.125357	0.086300
C32	C	1.153981	0.374643	0.586300
C33	C	0.747279	-0.127121	0.086300
C34	C	1.247279	0.372879	0.586300
C35	C	0.459519	-0.121682	0.086294
C36	C	0.959519	0.378318	0.586294
C37	C	0.366215	-0.119919	0.086294
C38	C	0.866215	0.380081	0.586294
C39	C	0.366209	-0.119922	-0.086317
C40	C	0.866209	0.380078	0.413683
C41	C	0.459506	-0.121687	-0.086317
C42	C	0.959506	0.378313	0.413683
C43	C	0.506158	-0.122567	-0.000008
C44	C	1.006158	0.377433	0.499992
C45	C	1.063096	0.039999	-0.000015
C46	C	1.563096	0.539999	0.499985
C47	C	1.061225	0.139296	-0.000013
C48	C	1.561225	0.639296	0.499987
C49	C	1.220266	-0.117168	-0.000012
C50	C	1.720266	0.382832	0.499988
C51	C	1.319563	-0.119038	-0.000008
C52	C	1.819563	0.380962	0.499992
N53	N	1.056727	-0.123523	-0.246670
N54	N	1.556727	0.376477	0.253330
C55	C	1.141814	0.196522	-0.000014
C56	C	1.641814	0.696522	0.499986
C57	C	1.140050	0.289822	-0.000003
C58	C	1.640050	0.789822	0.499997
C59	C	1.057697	0.325893	0.000003
C60	C	1.557697	0.825893	0.500003
C61	C	0.977102	0.268659	0.000007
C62	C	1.477102	0.768659	0.500007
C63	C	0.978866	0.175362	0.000002
C64	C	1.478866	0.675362	0.500002
C65	C	0.973430	0.463122	0.000014
C66	C	1.473430	0.963122	0.500014
C67	C	0.971665	0.556426	0.000016
C68	C	1.471665	1.056426	0.500016
C69	C	1.134615	0.577582	0.000009
C70	C	1.634615	1.077582	0.500009
C71	C	1.136379	0.484284	0.000004
C72	C	1.636379	0.984284	0.500004
C73	C	1.055783	0.427057	0.000006
C74	C	1.555783	0.927057	0.500006
C75	C	1.050385	0.712949	-0.000001
C76	C	1.550385	1.212949	0.499999
C77	C	1.052255	0.613652	0.000015
C78	C	1.552255	1.113652	0.500015
C79	C	1.111030	-0.177864	-0.296483
C80	C	1.611030	0.322136	0.203517
C81	C	1.111041	-0.177860	-0.396141
C82	C	1.611041	0.322140	0.103859
C83	C	1.056744	-0.123520	-0.445983
C84	C	1.556744	0.376480	0.054017
C85	C	1.002440	-0.069173	-0.396164
C86	C	1.502440	0.430827	0.103836
C87	C	1.002434	-0.069173	-0.296508
C88	C	1.502434	0.430827	0.203492
C89	C	1.002454	-0.069179	-0.603878
C90	C	1.502454	0.430821	-0.103878
C91	C	1.002459	-0.069181	-0.703541
C92	C	1.502459	0.430819	-0.203541
C93	C	1.111062	-0.177866	-0.703511
C94	C	1.611062	0.322134	-0.203511
C95	C	1.111056	-0.177866	-0.603855
C96	C	1.611056	0.322134	-0.103855
C97	C	1.056750	-0.123520	-0.554042
C98	C	1.556750	0.376480	-0.054042
N99	N	1.056762	-0.123521	0.246647
N100	N	1.556762	0.376479	0.746647
H101	H	0.497482	-0.122411	-0.156591
H102	H	0.997482	0.377589	0.343409
F103	F	0.944675	-0.011342	-0.756585
F104	F	1.444675	0.488658	-0.256585
H105	H	0.913242	0.128768	0.000004
H106	H	1.413242	0.628768	0.500004
F107	F	0.889454	0.307051	0.000024
F108	F	1.389454	0.807051	0.500024
F109	F	0.604338	-0.124390	0.178150
F110	F	1.104338	0.375610	0.678150
H111	H	0.785261	-0.127841	0.156576
H112	H	1.285261	0.372159	0.656576
F113	F	0.887650	0.402218	0.000018
F114	F	1.387650	0.902218	0.500018
H115	H	1.155265	-0.222119	-0.563275
H116	H	1.655265	0.277881	-0.063275
F117	F	1.168819	-0.235703	-0.243445
F118	F	1.668819	0.264297	0.256555
H119	H	0.328220	-0.119206	-0.156593
H120	H	0.828220	0.380794	0.343407
H121	H	1.205675	0.336412	-0.000006
H122	H	1.705675	0.836412	0.499994
F123	F	0.944645	-0.011329	-0.243494
F124	F	1.444645	0.488671	0.256506
H125	H	0.958234	-0.024924	-0.563323
H126	H	1.458234	0.475076	-0.063323
H127	H	1.200239	0.624181	0.000010
H128	H	1.700239	1.124181	0.500010
H129	H	1.155262	-0.222108	-0.436694
H130	H	1.655262	0.277892	0.063306
H131	H	1.155277	-0.222120	-0.744073
H132	H	1.655277	0.277880	-0.244073
F133	F	0.316573	-0.118978	0.178146
F134	F	0.816573	0.381022	0.678146
F135	F	0.944655	-0.011338	-0.449213
F136	F	1.444655	0.488662	0.050787
F137	F	0.884016	0.594813	0.000021
F138	F	1.384016	1.094813	0.500021
H139	H	1.203438	0.454918	-0.000007
H140	H	1.703438	0.954918	0.499993
F141	F	1.229467	0.158142	-0.000029
F142	F	1.729467	0.658142	0.499971
F143	F	0.796902	-0.128079	-0.178165
F144	F	1.296902	0.371921	0.321835
H145	H	0.615990	-0.124629	-0.156586
H146	H	1.115990	0.375371	0.343414
F147	F	0.509168	-0.122615	0.178154
F148	F	1.009168	0.377385	0.678154
