data_functionalizedCrystal
_audit_creation_method	'MofGen! by Chris Wilmer'
_symmetry_space_group_name_H-M	'P1'
_symmetry_Int_Tables_number	1
_symmetry_cell_setting	triclinic
loop_
_symmetry_equiv_pos_as_xyz
  x,y,z
_cell_length_a	27.732048
_cell_length_b	27.732048
_cell_length_c	14.048226
_cell_angle_alpha	90.007623
_cell_angle_beta	89.999178
_cell_angle_gamma	82.642655
loop_
_atom_site_label
_atom_site_type_symbol
_atom_site_fract_x
_atom_site_fract_y
_atom_site_fract_z
O1	O	0.640927	0.057515	0.079048
O2	O	0.890927	0.307515	0.329048
O3	O	1.140927	0.557515	0.579048
O4	O	1.390927	0.807515	0.829048
O5	O	0.500134	0.066261	0.079078
O6	O	0.750134	0.316261	0.329078
O7	O	1.000134	0.566261	0.579078
O8	O	1.250134	0.816261	0.829078
O9	O	0.574903	-0.008508	0.079044
O10	O	0.824903	0.241492	0.329044
O11	O	1.074903	0.491492	0.579044
O12	O	1.324903	0.741492	0.829044
O13	O	0.566158	0.132285	0.079082
O14	O	0.816158	0.382285	0.329082
O15	O	1.066158	0.632285	0.579082
O16	O	1.316158	0.882285	0.829082
O17	O	0.574896	-0.008508	-0.079277
O18	O	0.824896	0.241492	0.170723
O19	O	1.074896	0.491492	0.420723
O20	O	1.324896	0.741492	0.670723
O21	O	0.500127	0.066262	-0.079243
O22	O	0.750127	0.316262	0.170757
O23	O	1.000127	0.566262	0.420757
O24	O	1.250127	0.816262	0.670757
O25	O	0.640920	0.057516	-0.079273
O26	O	0.890920	0.307516	0.170727
O27	O	1.140920	0.557516	0.420727
O28	O	1.390920	0.807516	0.670727
Zn29	Zn	0.570523	0.061889	-0.104395
Zn30	Zn	0.820523	0.311889	0.145605
Zn31	Zn	1.070523	0.561889	0.395605
Zn32	Zn	1.320523	0.811889	0.645605
Zn33	Zn	0.570532	0.061888	0.104200
Zn34	Zn	0.820532	0.311888	0.354200
Zn35	Zn	1.070532	0.561888	0.604200
Zn36	Zn	1.320532	0.811888	0.854200
O37	O	0.566151	0.132286	-0.079239
O38	O	0.816151	0.382286	0.170761
O39	O	1.066151	0.632286	0.420761
O40	O	1.316151	0.882286	0.670761
C41	C	0.482124	0.066078	-0.000079
C42	C	0.732124	0.316078	0.249921
C43	C	0.982124	0.566078	0.499921
C44	C	1.232124	0.816078	0.749921
C45	C	0.428469	0.065525	-0.000068
C46	C	0.678469	0.315525	0.249932
C47	C	0.928469	0.565525	0.499932
C48	C	1.178469	0.815525	0.749932
C49	C	0.574716	-0.026515	-0.000119
C50	C	0.824716	0.223485	0.249881
C51	C	1.074716	0.473485	0.499881
C52	C	1.324716	0.723485	0.749881
C53	C	0.574164	-0.080170	-0.000127
C54	C	0.824164	0.169830	0.249873
C55	C	1.074164	0.419830	0.499873
C56	C	1.324164	0.669830	0.749873
C57	C	0.614867	-0.418985	-0.000087
C58	C	0.864867	-0.168985	0.249913
C59	C	1.114867	0.081015	0.499913
C60	C	1.364867	0.331015	0.749913
C61	C	0.612816	-0.620645	-0.000073
C62	C	0.862816	-0.370645	0.249927
C63	C	1.112816	-0.120645	0.499927
C64	C	1.362816	0.129355	0.749927
O65	O	0.650037	-0.651900	-0.000039
O66	O	0.900037	-0.401900	0.249961
O67	O	1.150037	-0.151900	0.499961
O68	O	1.400037	0.098100	0.749961
N69	N	0.568481	-0.639768	-0.000064
N70	N	0.818481	-0.389768	0.249936
N71	N	1.068481	-0.139768	0.499936
N72	N	1.318481	0.110232	0.749936
C73	C	0.524656	-0.608474	-0.000053
C74	C	0.774656	-0.358474	0.249947
C75	C	1.024656	-0.108474	0.499947
C76	C	1.274656	0.141526	0.749947
O77	O	0.486899	-0.629367	-0.000035
O78	O	0.736899	-0.379367	0.249965
O79	O	0.986899	-0.129367	0.499965
O80	O	1.236899	0.120633	0.749965
C81	C	0.526707	-0.406815	-0.000060
C82	C	0.776707	-0.156815	0.249940
C83	C	1.026707	0.093185	0.499940
C84	C	1.276707	0.343185	0.749940
C85	C	0.571045	-0.387694	-0.000078
C86	C	0.821045	-0.137694	0.249922
C87	C	1.071045	0.112306	0.499922
C88	C	1.321045	0.362306	0.749922
C89	C	0.659202	-0.399864	-0.000104
C90	C	0.909202	-0.149864	0.249896
C91	C	1.159202	0.100136	0.499896
C92	C	1.409202	0.350136	0.749896
C93	C	0.659714	-0.349452	-0.000113
C94	C	0.909714	-0.099452	0.249887
C95	C	1.159714	0.150548	0.499887
C96	C	1.409714	0.400548	0.749887
C97	C	0.615892	-0.318161	-0.000104
C98	C	0.865892	-0.068161	0.249896
C99	C	1.115892	0.181839	0.499896
C100	C	1.365892	0.431839	0.749896
C101	C	0.571557	-0.337282	-0.000087
C102	C	0.821557	-0.087282	0.249913
C103	C	1.071557	0.162718	0.499913
C104	C	1.321557	0.412718	0.749913
C105	C	0.482882	-0.375521	-0.000042
C106	C	0.732882	-0.125521	0.249958
C107	C	0.982882	0.124479	0.499958
C108	C	1.232882	0.374479	0.749958
C109	C	0.483399	-0.325104	-0.000041
C110	C	0.733399	-0.075104	0.249959
C111	C	0.983399	0.174896	0.499959
C112	C	1.233399	0.424896	0.749959
C113	C	0.527737	-0.305983	-0.000059
C114	C	0.777737	-0.055983	0.249941
C115	C	1.027737	0.194017	0.499941
C116	C	1.277737	0.444017	0.749941
C117	C	0.528247	-0.255580	-0.000087
C118	C	0.778247	-0.005580	0.249913
C119	C	1.028247	0.244420	0.499913
C120	C	1.278247	0.494420	0.749913
N121	N	0.572583	-0.236456	-0.000095
N122	N	0.822583	0.013544	0.249905
N123	N	1.072583	0.263544	0.499905
N124	N	1.322583	0.513544	0.749905
C125	C	0.616405	-0.267747	-0.000104
C126	C	0.866405	-0.017747	0.249896
C127	C	1.116405	0.232253	0.499896
C128	C	1.366405	0.482253	0.749896
C129	C	0.523582	-0.714348	-0.000051
C130	C	0.773582	-0.464348	0.249949
C131	C	1.023582	-0.214348	0.499949
C132	C	1.273582	0.035652	0.749949
C133	C	0.523069	-0.764762	-0.000051
C134	C	0.773069	-0.514762	0.249949
C135	C	1.023069	-0.264762	0.499949
C136	C	1.273069	-0.014762	0.749949
C137	C	0.611230	-0.776930	-0.000069
C138	C	0.861230	-0.526930	0.249931
C139	C	1.111230	-0.276930	0.499931
C140	C	1.361230	-0.026930	0.749931
C141	C	0.611742	-0.726514	-0.000076
C142	C	0.861742	-0.476514	0.249924
C143	C	1.111742	-0.226514	0.499924
C144	C	1.361742	0.023486	0.749924
C145	C	0.567917	-0.695224	-0.000060
C146	C	0.817917	-0.445224	0.249940
C147	C	1.067917	-0.195224	0.499940
C148	C	1.317917	0.054776	0.749940
C149	C	0.617477	-0.161878	-0.000123
C150	C	0.867477	0.088122	0.249877
C151	C	1.117477	0.338122	0.499877
C152	C	1.367477	0.588122	0.749877
C153	C	0.617986	-0.111461	-0.000135
C154	C	0.867986	0.138539	0.249865
C155	C	1.117986	0.388539	0.499865
C156	C	1.367986	0.638539	0.749865
C157	C	0.529825	-0.099298	-0.000112
C158	C	0.779825	0.150702	0.249888
C159	C	1.029825	0.400702	0.499888
C160	C	1.279825	0.650702	0.749888
C161	C	0.529316	-0.149710	-0.000105
C162	C	0.779316	0.100290	0.249895
C163	C	1.029316	0.350290	0.499895
C164	C	1.279316	0.600290	0.749895
C165	C	0.573147	-0.180999	-0.000107
C166	C	0.823147	0.069001	0.249893
C167	C	1.073147	0.319001	0.499893
C168	C	1.323147	0.569001	0.749893
O169	O	0.491047	-0.224296	-0.000110
O170	O	0.741047	0.025704	0.249890
O171	O	0.991047	0.275704	0.499890
O172	O	1.241047	0.525704	0.749890
O173	O	0.654156	-0.246844	-0.000100
O174	O	0.904156	0.003156	0.249900
O175	O	1.154156	0.253156	0.499900
O176	O	1.404156	0.503156	0.749900
C177	C	0.614355	-0.469397	-0.000078
C178	C	0.864355	-0.219397	0.249922
C179	C	1.114355	0.030603	0.499922
C180	C	1.364355	0.280603	0.749922
C181	C	0.570021	-0.488518	-0.000061
C182	C	0.820021	-0.238518	0.249939
C183	C	1.070021	0.011482	0.499939
C184	C	1.320021	0.261482	0.749939
C185	C	0.526198	-0.457228	-0.000052
C186	C	0.776198	-0.207228	0.249948
C187	C	1.026198	0.042772	0.499948
C188	C	1.276198	0.292772	0.749948
C189	C	0.569508	-0.538933	-0.000061
C190	C	0.819508	-0.288933	0.249939
C191	C	1.069508	-0.038933	0.499939
C192	C	1.319508	0.211067	0.749939
C193	C	0.613330	-0.570223	-0.000069
C194	C	0.863330	-0.320223	0.249931
C195	C	1.113330	-0.070223	0.499931
C196	C	1.363330	0.179777	0.749931
C197	C	0.657665	-0.551100	-0.000078
C198	C	0.907665	-0.301100	0.249922
C199	C	1.157665	-0.051100	0.499922
C200	C	1.407665	0.198900	0.749922
C201	C	0.658177	-0.500688	-0.000087
C202	C	0.908177	-0.250688	0.249913
C203	C	1.158177	-0.000688	0.499913
C204	C	1.408177	0.249312	0.749913
C205	C	0.481863	-0.476351	-0.000044
C206	C	0.731863	-0.226351	0.249956
C207	C	0.981863	0.023649	0.499956
C208	C	1.231863	0.273649	0.749956
C209	C	0.481355	-0.526764	-0.000036
C210	C	0.731355	-0.276764	0.249964
C211	C	0.981355	-0.026764	0.499964
C212	C	1.231355	0.223236	0.749964
C213	C	0.525177	-0.558054	-0.000045
C214	C	0.775177	-0.308054	0.249955
C215	C	1.025177	-0.058054	0.499955
C216	C	1.275177	0.191946	0.749955
C217	C	0.089654	0.106229	-0.000098
C218	C	0.339654	0.356229	0.249902
C219	C	0.589654	0.606229	0.499902
C220	C	0.839654	0.856229	0.749902
C221	C	-0.112006	0.104178	-0.000107
C222	C	0.137994	0.354178	0.249893
C223	C	0.387994	0.604178	0.499893
C224	C	0.637994	0.854178	0.749893
O225	O	-0.143262	0.141398	-0.000138
O226	O	0.106738	0.391398	0.249862
O227	O	0.356738	0.641398	0.499862
O228	O	0.606738	0.891398	0.749862
N229	N	-0.131130	0.059843	-0.000118
N230	N	0.118870	0.309843	0.249882
N231	N	0.368870	0.559843	0.499882
N232	N	0.618870	0.809843	0.749882
C233	C	-0.099835	0.016017	-0.000132
C234	C	0.150165	0.266017	0.249868
C235	C	0.400165	0.516017	0.499868
C236	C	0.650165	0.766017	0.749868
O237	O	-0.120728	-0.021740	-0.000151
O238	O	0.129272	0.228260	0.249849
O239	O	0.379272	0.478260	0.499849
O240	O	0.629272	0.728260	0.749849
C241	C	0.101824	0.018068	-0.000130
C242	C	0.351824	0.268068	0.249870
C243	C	0.601824	0.518068	0.499870
C244	C	0.851824	0.768068	0.749870
C245	C	0.120944	0.062407	-0.000110
C246	C	0.370944	0.312407	0.249890
C247	C	0.620944	0.562407	0.499890
C248	C	0.870944	0.812407	0.749890
C249	C	0.108775	0.150563	-0.000079
C250	C	0.358775	0.400563	0.249921
C251	C	0.608775	0.650563	0.499921
C252	C	0.858775	0.900563	0.749921
C253	C	0.159187	0.151075	-0.000072
C254	C	0.409187	0.401075	0.249928
C255	C	0.659187	0.651075	0.499928
C256	C	0.909187	0.901075	0.749928
C257	C	0.190477	0.107253	-0.000083
C258	C	0.440477	0.357253	0.249917
C259	C	0.690477	0.607253	0.499917
C260	C	0.940477	0.857253	0.749917
C261	C	0.171356	0.062919	-0.000102
C262	C	0.421356	0.312919	0.249898
C263	C	0.671356	0.562919	0.499898
C264	C	0.921356	0.812919	0.749898
C265	C	0.133117	-0.025757	-0.000151
C266	C	0.383117	0.224243	0.249849
C267	C	0.633117	0.474243	0.499849
C268	C	0.883117	0.724243	0.749849
C269	C	0.183535	-0.025240	-0.000153
C270	C	0.433535	0.224760	0.249847
C271	C	0.683535	0.474760	0.499847
C272	C	0.933535	0.724760	0.749847
C273	C	0.202655	0.019098	-0.000133
C274	C	0.452655	0.269098	0.249867
C275	C	0.702655	0.519098	0.499867
C276	C	0.952655	0.769098	0.749867
C277	C	0.253059	0.019609	-0.000106
C278	C	0.503059	0.269609	0.249894
C279	C	0.753059	0.519609	0.499894
C280	C	1.003059	0.769609	0.749894
N281	N	0.272183	0.063944	-0.000096
N282	N	0.522183	0.313944	0.249904
N283	N	0.772183	0.563944	0.499904
N284	N	1.022183	0.813944	0.749904
C285	C	0.240892	0.107766	-0.000084
C286	C	0.490892	0.357766	0.249916
C287	C	0.740892	0.607766	0.499916
C288	C	0.990892	0.857766	0.749916
C289	C	-0.205709	0.014943	-0.000131
C290	C	0.044291	0.264943	0.249869
C291	C	0.294291	0.514943	0.499869
C292	C	0.544291	0.764943	0.749869
C293	C	-0.256124	0.014430	-0.000130
C294	C	-0.006124	0.264430	0.249870
C295	C	0.243876	0.514430	0.499870
C296	C	0.493876	0.764430	0.749870
C297	C	-0.268291	0.102591	-0.000107
C298	C	-0.018291	0.352591	0.249893
C299	C	0.231709	0.602591	0.499893
C300	C	0.481709	0.852591	0.749893
C301	C	-0.217876	0.103104	-0.000102
C302	C	0.032124	0.353104	0.249898
C303	C	0.282124	0.603104	0.499898
C304	C	0.532124	0.853104	0.749898
C305	C	-0.186585	0.059278	-0.000121
C306	C	0.063415	0.309278	0.249879
C307	C	0.313415	0.559278	0.499879
C308	C	0.563415	0.809278	0.749879
C309	C	0.346761	0.108839	-0.000068
C310	C	0.596761	0.358839	0.249932
C311	C	0.846761	0.608839	0.499932
C312	C	1.096761	0.858839	0.749932
C313	C	0.397178	0.109347	-0.000057
C314	C	0.647178	0.359347	0.249943
C315	C	0.897178	0.609347	0.499943
C316	C	1.147178	0.859347	0.749943
C317	C	0.409341	0.021186	-0.000084
C318	C	0.659341	0.271186	0.249916
C319	C	0.909341	0.521186	0.499916
C320	C	1.159341	0.771186	0.749916
C321	C	0.358929	0.020678	-0.000091
C322	C	0.608929	0.270678	0.249909
C323	C	0.858929	0.520678	0.499909
C324	C	1.108929	0.770678	0.749909
C325	C	0.327639	0.064508	-0.000086
C326	C	0.577639	0.314508	0.249914
C327	C	0.827639	0.564508	0.499914
C328	C	1.077639	0.814508	0.749914
O329	O	0.284343	-0.017592	-0.000086
O330	O	0.534343	0.232408	0.249914
O331	O	0.784343	0.482408	0.499914
O332	O	1.034343	0.732408	0.749914
O333	O	0.261794	0.145518	-0.000087
O334	O	0.511794	0.395518	0.249913
O335	O	0.761794	0.645518	0.499913
O336	O	1.011794	0.895518	0.749913
C337	C	0.039242	0.105716	-0.000106
C338	C	0.289242	0.355716	0.249894
C339	C	0.539242	0.605716	0.499894
C340	C	0.789242	0.855716	0.749894
C341	C	0.020120	0.061382	-0.000125
C342	C	0.270120	0.311382	0.249875
C343	C	0.520120	0.561382	0.499875
C344	C	0.770120	0.811382	0.749875
C345	C	0.051411	0.017560	-0.000136
C346	C	0.301411	0.267560	0.249864
C347	C	0.551411	0.517560	0.499864
C348	C	0.801411	0.767560	0.749864
C349	C	-0.030294	0.060869	-0.000123
C350	C	0.219706	0.310869	0.249877
C351	C	0.469706	0.560869	0.499877
C352	C	0.719706	0.810869	0.749877
C353	C	-0.061585	0.104691	-0.000112
C354	C	0.188415	0.354691	0.249888
C355	C	0.438415	0.604691	0.499888
C356	C	0.688415	0.854691	0.749888
C357	C	-0.042461	0.149026	-0.000102
C358	C	0.207539	0.399026	0.249898
C359	C	0.457539	0.649026	0.499898
C360	C	0.707539	0.899026	0.749898
C361	C	0.007951	0.149539	-0.000094
C362	C	0.257951	0.399539	0.249906
C363	C	0.507951	0.649539	0.499906
C364	C	0.757951	0.899539	0.749906
C365	C	0.032287	-0.026775	-0.000146
C366	C	0.282287	0.223225	0.249854
C367	C	0.532287	0.473225	0.499854
C368	C	0.782287	0.723225	0.749854
C369	C	-0.018125	-0.027284	-0.000153
C370	C	0.231875	0.222716	0.249847
C371	C	0.481875	0.472716	0.499847
C372	C	0.731875	0.722716	0.749847
C373	C	-0.049416	0.016538	-0.000141
C374	C	0.200584	0.266538	0.249859
C375	C	0.450584	0.516538	0.499859
C376	C	0.700584	0.766538	0.749859
C377	C	0.658931	0.057699	-0.000114
C378	C	0.908931	0.307699	0.249886
C379	C	1.158931	0.557699	0.499886
C380	C	1.408931	0.807699	0.749886
C381	C	0.712586	0.058252	-0.000119
C382	C	0.962586	0.308252	0.249881
C383	C	1.212586	0.558252	0.499881
C384	C	1.462586	0.808252	0.749881
C385	C	0.566338	0.150292	-0.000074
C386	C	0.816338	0.400292	0.249926
C387	C	1.066338	0.650292	0.499926
C388	C	1.316338	0.900292	0.749926
C389	C	0.566891	0.203947	-0.000060
C390	C	0.816891	0.453947	0.249940
C391	C	1.066891	0.703947	0.499940
C392	C	1.316891	0.953947	0.749940
N393	N	0.570520	0.061889	-0.246756
N394	N	0.820520	0.311889	0.003244
N395	N	1.070520	0.561889	0.253244
N396	N	1.320520	0.811889	0.503244
C397	C	0.541442	0.032767	-0.703625
C398	C	0.791442	0.282767	-0.453625
C399	C	1.041442	0.532767	-0.203625
C400	C	1.291442	0.782767	0.046375
C401	C	0.541441	0.032766	-0.603967
C402	C	0.791441	0.282766	-0.353967
C403	C	1.041441	0.532766	-0.103967
C404	C	1.291441	0.782766	0.146033
C405	C	0.570533	0.061884	-0.554126
C406	C	0.820533	0.311884	-0.304126
C407	C	1.070533	0.561884	-0.054126
C408	C	1.320533	0.811884	0.195874
C409	C	0.599632	0.091002	-0.603947
C410	C	0.849632	0.341002	-0.353947
C411	C	1.099632	0.591002	-0.103947
C412	C	1.349632	0.841002	0.146053
C413	C	0.599636	0.091000	-0.703603
C414	C	0.849636	0.341000	-0.453603
C415	C	1.099636	0.591000	-0.203603
C416	C	1.349636	0.841000	0.046397
C417	C	0.599621	0.091004	-0.396233
C418	C	0.849621	0.341004	-0.146233
C419	C	1.099621	0.591004	0.103767
C420	C	1.349621	0.841004	0.353767
C421	C	0.599616	0.091006	-0.296570
C422	C	0.849616	0.341006	-0.046570
C423	C	1.099616	0.591006	0.203430
C424	C	1.349616	0.841006	0.453430
C425	C	0.541425	0.032769	-0.296597
C426	C	0.791425	0.282769	-0.046597
C427	C	1.041425	0.532769	0.203403
C428	C	1.291425	0.782769	0.453403
C429	C	0.541429	0.032768	-0.396253
C430	C	0.791429	0.282768	-0.146253
C431	C	1.041429	0.532768	0.103747
C432	C	1.291429	0.782768	0.353747
C433	C	0.570528	0.061886	-0.446067
C434	C	0.820528	0.311886	-0.196067
C435	C	1.070528	0.561886	0.053933
C436	C	1.320528	0.811886	0.303933
N437	N	0.570538	0.061884	0.246561
N438	N	0.820538	0.311884	0.496561
N439	N	1.070538	0.561884	0.746561
N440	N	1.320538	0.811884	0.996561
H441	H	0.653168	-0.187348	-0.000121
H442	H	0.903168	0.062652	0.249879
H443	H	1.153168	0.312652	0.499879
H444	H	1.403168	0.562652	0.749879
O445	O	0.510069	0.001346	-0.450017
O446	O	0.760069	0.251346	-0.200017
O447	O	1.010069	0.501346	0.049983
O448	O	1.260069	0.751346	0.299983
H449	H	0.489844	-0.018912	-0.398638
H450	H	0.739844	0.231088	-0.148638
H451	H	0.989844	0.481088	0.101362
H452	H	1.239844	0.731088	0.351362
O453	O	0.510051	0.001368	-0.550239
O454	O	0.760051	0.251368	-0.300239
O455	O	1.010051	0.501368	-0.050239
O456	O	1.260051	0.751368	0.199761
H457	H	0.533414	-0.024776	-0.504842
H458	H	0.783414	0.225224	-0.254842
H459	H	1.033414	0.475224	-0.004842
H460	H	1.283414	0.725224	0.245158
H461	H	-0.180236	-0.020747	-0.000147
H462	H	0.069764	0.229253	0.249853
H463	H	0.319764	0.479253	0.499853
H464	H	0.569764	0.729253	0.749853
O465	O	0.436127	-0.291358	-0.000034
O466	O	0.686127	-0.041358	0.249966
O467	O	0.936127	0.208642	0.499966
O468	O	1.186127	0.458642	0.749966
H469	H	0.434250	-0.268093	0.064496
H470	H	0.684250	-0.018093	0.314496
H471	H	0.934250	0.231907	0.564496
H472	H	1.184250	0.481907	0.814496
H473	H	0.117558	-0.061861	-0.000168
H474	H	0.367558	0.188139	0.249832
H475	H	0.617558	0.438139	0.499832
H476	H	0.867558	0.688139	0.749832
H477	H	0.623304	0.114719	-0.255992
H478	H	0.873304	0.364719	-0.005992
H479	H	1.123304	0.614719	0.244008
H480	H	1.373304	0.864719	0.494008
O481	O	0.704932	-0.584853	-0.000088
O482	O	0.954932	-0.334853	0.249912
O483	O	1.204932	-0.084853	0.499912
O484	O	1.454932	0.165147	0.749912
H485	H	0.697122	-0.623120	-0.000073
H486	H	0.947122	-0.373120	0.249927
H487	H	1.197122	-0.123120	0.499927
H488	H	1.447122	0.126880	0.749927
O489	O	-0.276744	-0.033392	-0.000138
O490	O	-0.026744	0.216608	0.249862
O491	O	0.223256	0.466608	0.499862
O492	O	0.473256	0.716608	0.749862
H493	H	-0.299424	-0.035733	-0.064666
H494	H	-0.049424	0.214267	0.185334
H495	H	0.200576	0.464267	0.435334
H496	H	0.450576	0.714267	0.685334
H497	H	0.445246	-0.542327	-0.000030
H498	H	0.695246	-0.292327	0.249970
H499	H	0.945246	-0.042327	0.499970
H500	H	1.195246	0.207673	0.749970
H501	H	0.623329	0.114710	-0.744160
H502	H	0.873329	0.364710	-0.494160
H503	H	1.123329	0.614710	-0.244160
H504	H	1.373329	0.864710	0.005840
H505	H	0.517731	0.009061	-0.256033
H506	H	0.767731	0.259061	-0.006033
H507	H	1.017731	0.509061	0.243967
H508	H	1.267731	0.759061	0.493967
O509	O	0.434596	-0.442604	-0.000052
O510	O	0.684596	-0.192604	0.249948
O511	O	0.934596	0.057396	0.499948
O512	O	1.184596	0.307396	0.749948
H513	H	0.403684	-0.464377	-0.000055
H514	H	0.653684	-0.214377	0.249945
H515	H	0.903684	0.035623	0.499945
H516	H	1.153684	0.285623	0.749945
H517	H	0.623317	0.114714	-0.436789
H518	H	0.873317	0.364714	-0.186789
H519	H	1.123317	0.614714	0.063211
H520	H	1.373317	0.864714	0.313211
H521	H	0.695819	-0.333889	-0.000124
H522	H	0.945819	-0.083889	0.249876
H523	H	1.195819	0.166111	0.499876
H524	H	1.445819	0.416111	0.749876
H525	H	0.694889	-0.425336	-0.000107
H526	H	0.944889	-0.175336	0.249893
H527	H	1.194889	0.074664	0.499893
H528	H	1.444889	0.324664	0.749893
H529	H	0.654093	-0.095896	-0.000153
H530	H	0.904093	0.154104	0.249847
H531	H	1.154093	0.404104	0.499847
H532	H	1.404093	0.654104	0.749847
H533	H	0.647846	-0.710950	-0.000090
H534	H	0.897846	-0.460950	0.249910
H535	H	1.147846	-0.210950	0.499910
H536	H	1.397846	0.039050	0.749910
O537	O	0.631006	0.122412	-0.550191
O538	O	0.881006	0.372412	-0.300191
O539	O	1.131006	0.622412	-0.050191
O540	O	1.381006	0.872412	0.199809
H541	H	0.657155	0.099064	-0.504778
H542	H	0.907155	0.349064	-0.254778
H543	H	1.157155	0.599064	-0.004778
H544	H	1.407155	0.849064	0.245222
O545	O	0.417802	0.157171	-0.000036
O546	O	0.667802	0.407171	0.249964
O547	O	0.917802	0.657171	0.499964
O548	O	1.167802	0.907171	0.749964
H549	H	0.440485	0.159511	-0.064558
H550	H	0.690485	0.409511	0.185442
H551	H	0.940485	0.659511	0.435442
H552	H	1.190485	0.909511	0.685442
H553	H	0.493213	-0.165279	-0.000116
H554	H	0.743213	0.084721	0.249884
H555	H	0.993213	0.334721	0.499884
H556	H	1.243213	0.584721	0.749884
H557	H	0.646911	-0.802415	-0.000077
H558	H	0.896911	-0.552415	0.249923
H559	H	1.146911	-0.302415	0.499923
H560	H	1.396911	-0.052415	0.749923
H561	H	0.486964	-0.780325	-0.000053
H562	H	0.736964	-0.530325	0.249947
H563	H	0.986964	-0.280325	0.499947
H564	H	1.236964	-0.030325	0.749947
H565	H	0.487892	-0.688875	-0.000038
H566	H	0.737892	-0.438875	0.249962
H567	H	0.987892	-0.188875	0.499962
H568	H	1.237892	0.061125	0.749962
H569	H	-0.067947	0.184708	-0.000088
H570	H	0.182053	0.434708	0.249912
H571	H	0.432053	0.684708	0.499912
H572	H	0.682053	0.934708	0.749912
H573	H	0.517750	0.009058	-0.744199
H574	H	0.767750	0.259058	-0.494199
H575	H	1.017750	0.509058	-0.244199
H576	H	1.267750	0.759058	0.005801
H577	H	0.494146	-0.073812	-0.000108
H578	H	0.744146	0.176188	0.249892
H579	H	0.994146	0.426188	0.499892
H580	H	1.244146	0.676188	0.749892
O581	O	0.435060	-0.396138	-0.000019
O582	O	0.685060	-0.146138	0.249981
O583	O	0.935060	0.103862	0.499981
O584	O	1.185060	0.353862	0.749981
H585	H	0.404679	-0.365902	-0.000001
H586	H	0.654679	-0.115902	0.249999
H587	H	0.904679	0.134098	0.499999
H588	H	1.154679	0.384098	0.749999
O589	O	0.217285	-0.072509	-0.000170
O590	O	0.467285	0.177491	0.249830
O591	O	0.717285	0.427491	0.499830
O592	O	0.967285	0.677491	0.749830
H593	H	0.195515	-0.103423	-0.000177
H594	H	0.445515	0.146577	0.249823
H595	H	0.695515	0.396577	0.499823
H596	H	0.945515	0.646577	0.749823
H597	H	0.694282	-0.485125	-0.000101
H598	H	0.944282	-0.235125	0.249899
H599	H	1.194282	0.014875	0.499899
H600	H	1.444282	0.264875	0.749899
O601	O	0.313017	0.156111	-0.000054
O602	O	0.563017	0.406111	0.249946
O603	O	0.813017	0.656111	0.499946
O604	O	1.063017	0.906111	0.749946
H605	H	0.334790	0.187022	-0.000031
H606	H	0.584790	0.437022	0.249969
H607	H	0.834790	0.687022	0.499969
H608	H	1.084790	0.937022	0.749969
H609	H	0.434827	-0.014492	-0.000090
H610	H	0.684827	0.235508	0.249910
H611	H	0.934827	0.485508	0.499910
H612	H	1.184827	0.735508	0.749910
H613	H	0.174750	0.187180	-0.000055
H614	H	0.424750	0.437180	0.249945
H615	H	0.674750	0.687180	0.499945
H616	H	0.924750	0.937180	0.749945
H617	H	0.083302	0.186251	-0.000073
H618	H	0.333302	0.436251	0.249927
H619	H	0.583302	0.686251	0.499927
H620	H	0.833302	0.936251	0.749927
H621	H	-0.033688	-0.063392	-0.000161
H622	H	0.216312	0.186608	0.249839
H623	H	0.466312	0.436608	0.499839
H624	H	0.716312	0.686608	0.749839
O625	O	-0.197253	0.150924	-0.000098
O626	O	0.052747	0.400924	0.249902
O627	O	0.302747	0.650924	0.499902
O628	O	0.552747	0.900924	0.749902
H629	H	-0.227486	0.181307	-0.000098
H630	H	0.022514	0.431307	0.249902
H631	H	0.272514	0.681307	0.499902
H632	H	0.522514	0.931307	0.749902
H633	H	0.057760	-0.062462	-0.000158
H634	H	0.307760	0.187538	0.249842
H635	H	0.557760	0.437538	0.499842
H636	H	0.807760	0.687538	0.749842
O637	O	-0.302044	0.149859	-0.000109
O638	O	-0.052044	0.399859	0.249891
O639	O	0.197956	0.649859	0.499891
O640	O	0.447956	0.899859	0.749891
H641	H	-0.340311	0.142048	-0.000122
H642	H	-0.090311	0.392048	0.249878
H643	H	0.159689	0.642048	0.499878
H644	H	0.409689	0.892048	0.749878
O645	O	0.338300	-0.027142	-0.000109
O646	O	0.588300	0.222858	0.249891
O647	O	0.838300	0.472858	0.499891
O648	O	1.088300	0.722858	0.749891
H649	H	0.368531	-0.057528	-0.000120
H650	H	0.618531	0.192472	0.249880
H651	H	0.868531	0.442472	0.499880
H652	H	1.118531	0.692472	0.749880
H653	H	0.023514	0.185643	-0.000079
H654	H	0.273514	0.435643	0.249921
H655	H	0.523514	0.685643	0.499921
H656	H	0.773514	0.935643	0.749921
