data_functionalizedCrystal
_audit_creation_method	'MofGen! by Chris Wilmer'
_symmetry_space_group_name_H-M	'P1'
_symmetry_Int_Tables_number	1
_symmetry_cell_setting	triclinic
loop_
_symmetry_equiv_pos_as_xyz
  x,y,z
_cell_length_a	29.839134
_cell_length_b	15.297327
_cell_length_c	15.296720
_cell_angle_alpha	72.680778
_cell_angle_beta	99.652568
_cell_angle_gamma	80.296475
loop_
_atom_site_label
_atom_site_type_symbol
_atom_site_fract_x
_atom_site_fract_y
_atom_site_fract_z
Zn1	Zn	0.596149	0.461371	-0.590063
Zn2	Zn	0.596098	0.589993	-0.461457
Zn3	Zn	0.536751	0.434485	-0.434558
Zn4	Zn	0.505292	0.616813	-0.616866
O5	O	0.558573	0.525666	-0.525736
O6	O	0.659004	0.478461	-0.573043
O7	O	0.601370	0.546888	-0.327770
O8	O	0.557817	0.307918	-0.432711
O9	O	0.658966	0.572959	-0.478557
O10	O	0.601457	0.327671	-0.546960
O11	O	0.557768	0.432637	-0.308007
O12	O	0.469717	0.458643	-0.458701
O13	O	0.504200	0.618670	-0.743430
O14	O	0.446604	0.592599	-0.592643
O15	O	0.570953	0.504468	-0.723737
O16	O	0.570866	0.723684	-0.504547
O17	O	0.504151	0.743389	-0.618726
C18	C	0.534099	0.767282	-0.567484
C19	C	0.523667	0.870652	-0.585376
C20	C	0.441861	0.525615	-0.525662
C21	C	0.391927	0.525619	-0.525656
C22	C	0.534073	0.567560	-0.768265
C23	C	0.523633	0.585412	-0.871617
C24	C	0.070246	0.595492	-0.595422
C25	C	-0.117434	0.595525	-0.595468
O26	O	-0.151926	0.654883	-0.654737
N27	N	-0.128880	0.525712	-0.525812
C28	C	-0.093402	0.455882	-0.456143
O29	O	-0.107443	0.396496	-0.396904
C30	C	0.094277	0.455845	-0.456102
C31	C	0.105719	0.525669	-0.525757
C32	C	0.081689	0.665309	-0.665071
C33	C	0.128606	0.665303	-0.665056
C34	C	0.164080	0.595480	-0.595391
C35	C	0.152637	0.525663	-0.525742
C36	C	0.129754	0.386012	-0.386438
C37	C	0.176676	0.386008	-0.386436
C38	C	0.188118	0.455831	-0.456090
C39	C	0.235028	0.455833	-0.456062
N40	N	0.246474	0.525647	-0.525718
C41	C	0.211000	0.595470	-0.595382
C42	C	-0.191937	0.455907	-0.456169
C43	C	-0.238856	0.455917	-0.456178
C44	C	-0.262886	0.595559	-0.595503
C45	C	-0.215965	0.595553	-0.595490
C46	C	-0.180491	0.525720	-0.525825
C47	C	0.309530	0.595452	-0.595345
C48	C	0.356453	0.595442	-0.595321
C49	C	0.380478	0.455797	-0.455999
C50	C	0.333560	0.455809	-0.456019
C51	C	0.298086	0.525641	-0.525700
O52	O	0.269543	0.396501	-0.396829
O53	O	0.225051	0.654834	-0.654625
C54	C	0.023328	0.595498	-0.595437
C55	C	0.011885	0.525681	-0.525787
C56	C	0.047359	0.455858	-0.456122
C57	C	-0.035035	0.525691	-0.525796
C58	C	-0.070509	0.595514	-0.595461
C59	C	-0.059063	0.665327	-0.665117
C60	C	-0.012146	0.665321	-0.665102
C61	C	0.035913	0.386044	-0.386467
C62	C	-0.011005	0.386057	-0.386487
C63	C	-0.046479	0.455880	-0.456152
C64	C	0.675740	0.525718	-0.525811
C65	C	0.725670	0.525740	-0.525843
C66	C	0.583152	0.283109	-0.483845
C67	C	0.593626	0.179746	-0.465994
C68	C	0.633284	1.120902	-0.398182
C69	C	0.643086	1.023779	-0.381368
C70	C	0.613232	0.985493	-0.432368
C71	C	0.573575	1.044338	-0.500186
C72	C	0.563771	1.141469	-0.516997
C73	C	0.543718	1.006060	-0.551183
C74	C	0.504061	1.064905	-0.619001
C75	C	0.494259	1.162026	-0.635809
C76	C	0.524112	1.200313	-0.584809
C77	C	0.553523	0.908929	-0.534372
C78	C	0.484009	0.929497	-0.653187
C79	C	0.474207	1.026619	-0.670002
C80	C	0.633224	0.397907	-1.121938
C81	C	0.643036	0.381135	-1.024834
C82	C	0.613186	0.432202	-0.986525
C83	C	0.573523	0.500045	-1.045329
C84	C	0.563712	0.516824	-1.142443
C85	C	0.543674	0.551120	-1.007030
C86	C	0.504010	0.618963	-1.065834
C87	C	0.494201	0.635738	-1.162939
C88	C	0.524051	0.584670	-1.201248
C89	C	0.553484	0.534341	-0.909916
C90	C	0.483972	0.653258	-0.930422
C91	C	0.474160	0.670030	-1.027525
C92	C	0.583010	0.483868	-0.284139
C93	C	0.593563	0.465753	-0.180743
H94	H	0.280652	0.652314	-0.652087
O95	O	0.451482	1.225495	-0.708944
H96	H	0.462325	1.277884	-0.763942
H97	H	-0.248167	0.399067	-0.399450
H98	H	0.585779	0.479102	-0.862047
H99	H	0.621215	0.906411	-0.418673
H100	H	0.137917	0.722159	-0.721778
O101	O	0.685813	0.307965	-0.961417
H102	H	0.687623	0.304885	-0.887457
H103	H	0.621177	0.418543	-0.907458
O104	O	0.431429	1.090086	-0.743132
H105	H	0.429627	1.164052	-0.746242
O106	O	0.665408	0.342808	-1.163249
H107	H	0.651917	0.365862	-1.240651
O108	O	0.418746	0.380495	-0.380863
H109	H	0.402910	0.331946	-0.332421
O110	O	0.685859	0.960322	-0.308229
H111	H	0.675014	0.907947	-0.253221
O112	O	0.431381	0.743199	-1.090956
H113	H	0.433566	0.812972	-1.084929
H114	H	0.516064	0.598323	-1.280317
H115	H	0.461907	0.690988	-1.210816
H116	H	0.585812	0.861026	-0.479154
O117	O	0.451770	0.708341	-0.889117
H118	H	0.465252	0.685269	-0.811711
H119	H	-0.087955	0.722182	-0.721838
H120	H	-0.206653	0.652408	-0.652210
H121	H	0.365765	0.652304	-0.652044
O122	O	0.043430	0.740713	-0.740126
H123	H	0.059279	0.789286	-0.788513
O124	O	-0.153677	0.380602	-0.381007
H125	H	-0.169524	0.332076	-0.332569
H126	H	0.657585	1.152083	-0.356659
O127	O	0.513535	1.305069	-0.602939
H128	H	0.540956	1.321800	-0.556077
H129	H	0.120447	0.329156	-0.329716
O130	O	-0.301130	0.670914	-0.670654
H131	H	-0.323087	0.637600	-0.710894
O132	O	0.214938	0.310697	-0.311286
H133	H	0.199095	0.262159	-0.262852
H134	H	0.324243	0.398955	-0.399299
H135	H	-0.020315	0.329198	-0.329758
O136	O	0.451802	0.888224	-0.708204
H137	H	0.471575	0.852113	-0.747901
O138	O	0.000194	0.740622	-0.740237
H139	H	-0.032361	0.789163	-0.788681
H140	H	0.064793	0.329185	-0.329736
