data_functionalizedCrystal
_audit_creation_method	'MofGen! by Chris Wilmer'
_symmetry_space_group_name_H-M	'P1'
_symmetry_Int_Tables_number	1
_symmetry_cell_setting	triclinic
loop_
_symmetry_equiv_pos_as_xyz
  x,y,z
_cell_length_a	25.639239
_cell_length_b	12.759401
_cell_length_c	12.759393
_cell_angle_alpha	89.982105
_cell_angle_beta	89.962948
_cell_angle_gamma	90.041630
loop_
_atom_site_label
_atom_site_type_symbol
_atom_site_fract_x
_atom_site_fract_y
_atom_site_fract_z
Zn1	Zn	-0.208079	1.606080	-0.593924
Zn2	Zn	-0.295526	1.605901	-0.418228
Zn3	Zn	-0.208111	1.430382	-0.418266
Zn4	Zn	-0.295490	1.430297	-0.593871
O5	O	-0.251801	1.518165	-0.506072
O6	O	-0.219681	1.753078	-0.570624
O7	O	-0.283958	1.582579	-0.271212
O8	O	-0.134941	1.453800	-0.441605
O9	O	-0.283927	1.752946	-0.441541
O10	O	-0.134918	1.582884	-0.570661
O11	O	-0.219735	1.453626	-0.271240
O12	O	-0.219700	1.283350	-0.441554
O13	O	-0.283866	1.453655	-0.740899
O14	O	-0.283897	1.283288	-0.570570
O15	O	-0.219646	1.582802	-0.740938
O16	O	-0.368686	1.582496	-0.441489
O17	O	-0.368660	1.453481	-0.570533
C18	C	-0.387644	1.517989	-0.506024
C19	C	-0.445758	1.518009	-0.506039
C20	C	-0.251798	1.245198	-0.506061
C21	C	-0.251809	1.128421	-0.506081
C22	C	-0.251748	1.518239	-0.780106
C23	C	-0.251726	1.518270	-0.896882
C24	C	-0.806122	1.585519	-0.438993
C25	C	-0.860726	1.585560	-0.439007
O26	O	-0.888964	1.642775	-0.381950
N27	N	-0.888040	1.518350	-0.506142
C28	C	-0.860747	1.451103	-0.573274
O29	O	-0.888994	1.393940	-0.630379
C30	C	-0.806144	1.451068	-0.573265
C31	C	-0.778833	1.518275	-0.506118
C32	C	-0.778811	1.652721	-0.371853
C33	C	-0.724210	1.652678	-0.371838
C34	C	-0.696921	1.585434	-0.438963
C35	C	-0.724232	1.518232	-0.506103
C36	C	-0.778851	1.383827	-0.640401
C37	C	-0.724244	1.383799	-0.640387
C38	C	-0.696933	1.451005	-0.573240
C39	C	-0.642342	1.450946	-0.573213
N40	N	-0.615028	1.518155	-0.506078
C41	C	-0.642318	1.585399	-0.438953
C42	C	-0.975418	1.451182	-0.573290
C43	C	-1.030020	1.451210	-0.573295
C44	C	-1.029995	1.585669	-0.439030
C45	C	-0.975392	1.585634	-0.439020
C46	C	-0.948104	1.518392	-0.506156
C47	C	-0.527653	1.585305	-0.438926
C48	C	-0.473047	1.585253	-0.438914
C49	C	-0.473076	1.450799	-0.573183
C50	C	-0.527677	1.450846	-0.573192
C51	C	-0.554964	1.518108	-0.506060
O52	O	-0.614070	1.393762	-0.630244
O53	O	-0.614064	1.642562	-0.381868
C54	C	-0.115428	1.518371	-0.506143
C55	C	-0.057314	1.518459	-0.506174
C56	C	-0.251805	1.792199	-0.506084
C57	C	-0.251806	1.908975	-0.506089
C58	C	-0.218356	1.963907	-0.573290
C59	C	-0.218359	2.073631	-0.573289
C60	C	-0.285263	2.073481	-0.438877
C61	C	-0.285263	1.963759	-0.438885
C62	C	-0.179727	1.963995	-0.650888
C63	C	-0.179730	2.073719	-0.650887
C64	C	-0.218283	1.585526	-0.951767
C65	C	-0.218264	1.585551	-1.061491
C66	C	-0.285135	1.451061	-1.061437
C67	C	-0.285151	1.451032	-0.951715
C68	C	-0.179677	1.663176	-0.951799
C69	C	-0.179658	1.663201	-1.061523
C70	C	-0.251816	1.518152	-0.233105
C71	C	-0.251691	1.518325	-0.116329
H72	H	-0.450812	1.639981	-0.384231
H73	H	-0.312506	1.919038	-0.384172
Cl74	Cl	-0.202099	2.126279	-0.770210
H75	H	-0.450849	1.396046	-0.627832
Cl76	Cl	-0.117221	2.119785	-0.617260
H77	H	-0.801079	1.329095	-0.695074
Cl78	Cl	-0.562012	1.366336	-0.657584
H79	H	-0.953202	1.396416	-0.627957
H80	H	-0.312504	2.118100	-0.384163
H81	H	-0.702029	1.329043	-0.695060
H82	H	-0.190554	1.934234	-0.732256
H83	H	-0.801024	1.707485	-0.317192
Cl84	Cl	-0.327153	1.366538	-1.130376
H85	H	-0.139187	1.641442	-0.922051
Cl86	Cl	-0.561947	1.669861	-0.354528
Cl87	Cl	-0.689885	1.737187	-0.287437
Cl88	Cl	-0.120350	1.911513	-0.605922
H89	H	-0.190501	1.744563	-1.091298
H90	H	-0.312382	1.396262	-0.907032
H91	H	-0.194191	1.740436	-0.917759
H92	H	-0.141186	1.634120	-1.095578
H93	H	-0.953159	1.640360	-0.384344
H94	H	-1.052224	1.640427	-0.384376
H95	H	-1.052252	1.396474	-0.627963
