data_functionalizedCrystal
_audit_creation_method	'MofGen! by Chris Wilmer'
_symmetry_space_group_name_H-M	'P1'
_symmetry_Int_Tables_number	1
_symmetry_cell_setting	triclinic
loop_
_symmetry_equiv_pos_as_xyz
  x,y,z
_cell_length_a	23.196402
_cell_length_b	18.878441
_cell_length_c	18.878441
_cell_angle_alpha	89.999813
_cell_angle_beta	60.001300
_cell_angle_gamma	60.003277
loop_
_atom_site_label
_atom_site_type_symbol
_atom_site_fract_x
_atom_site_fract_y
_atom_site_fract_z
Zr1	Zr	0.631015	-0.092946	0.682402
O2	O	0.751274	-0.206039	0.569303
O3	O	0.510752	-0.058281	0.717069
O4	O	0.631013	-0.206050	0.717074
O5	O	0.631016	0.058298	0.569298
O6	O	0.631016	-0.206054	0.833642
O7	O	0.631013	-0.058270	0.569298
O8	O	0.415891	0.058278	0.833633
O9	O	0.846141	-0.206034	0.569306
O10	O	0.560222	-0.043495	0.818852
O11	O	0.560222	0.043501	0.731858
O12	O	0.701814	-0.130478	0.731864
O13	O	0.701814	-0.043481	0.644870
Zr14	Zr	0.631026	0.092960	0.868313
Zr15	Zr	0.631020	-0.092952	0.868314
Zr16	Zr	0.631020	0.092966	0.682401
Zr17	Zr	0.782317	-0.092938	0.682407
Zr18	Zr	0.479723	0.092952	0.868308
O19	O	0.751289	0.058295	0.833645
O20	O	0.751281	-0.206048	0.833646
O21	O	0.751281	0.058304	0.569302
O22	O	0.510767	0.206053	0.981411
O23	O	0.510759	-0.058290	0.981413
O24	O	0.510759	0.206062	0.717068
O25	O	0.631025	-0.058284	0.981417
O26	O	0.631028	0.206064	0.833640
O27	O	0.631025	0.206068	0.717072
O28	O	0.631028	0.058284	0.981416
O29	O	0.846145	-0.206039	0.717082
O30	O	0.415895	0.206053	0.833633
O31	O	0.415900	0.206048	0.981408
O32	O	0.415895	0.058273	0.981409
O33	O	0.846145	-0.058259	0.569305
O34	O	0.846149	-0.058264	0.717081
O35	O	0.560227	0.130492	0.818851
O36	O	0.560227	0.043496	0.905844
O37	O	0.701819	-0.043487	0.818856
O38	O	0.701819	0.043509	0.731863
C39	C	0.441764	-0.000003	0.775351
C40	C	0.377532	-0.000006	0.775349
C41	C	0.631014	0.000015	0.542809
C42	C	0.631011	0.000018	0.463885
C43	C	0.631027	0.232555	0.775356
C44	C	0.631029	0.311479	0.775356
C45	C	0.347362	-0.045421	0.820752
C46	C	0.287001	-0.045414	0.820761
C47	C	0.256824	-0.000004	0.775348
C48	C	0.286998	0.045420	0.729943
C49	C	0.347352	0.045419	0.729943
C50	C	0.194792	-0.006482	0.699286
C51	C	0.134443	-0.006487	0.699284
C52	C	0.070669	0.000005	0.775349
C53	C	0.067260	0.006484	0.851417
C54	C	0.127614	0.006483	0.851417
C55	C	0.191380	0.000003	0.775344
C56	C	-0.024952	-0.045404	0.820767
C57	C	-0.085318	-0.045391	0.820777
C58	C	-0.085313	0.045437	0.729951
C59	C	-0.024955	0.045430	0.729948
C60	C	0.005225	0.000004	0.775354
C61	C	0.820277	0.000017	0.775364
C62	C	0.884508	0.000020	0.775366
C63	C	0.631014	-0.232541	0.775358
C64	C	0.631011	-0.311465	0.775359
C65	C	0.704938	0.303157	0.729950
C66	C	0.704935	0.377318	0.729946
C67	C	0.631023	0.459801	0.775353
C68	C	0.557109	0.468122	0.820760
C69	C	0.557112	0.393962	0.820758
C70	C	0.557106	0.622692	0.820761
C71	C	0.557103	0.696858	0.820764
C72	C	0.704929	0.606048	0.729949
C73	C	0.704933	0.531888	0.729947
C74	C	0.631018	0.540214	0.775356
C75	C	0.557103	0.045419	0.472210
C76	C	0.557105	0.045419	0.398049
C77	C	0.631018	0.000013	0.315563
C78	C	0.704932	-0.045389	0.307240
C79	C	0.704928	-0.045384	0.381400
C80	C	0.704934	-0.045398	0.152669
C81	C	0.704938	-0.045404	0.078504
C82	C	0.557111	0.045405	0.169319
C83	C	0.557107	0.045410	0.243479
C84	C	0.631022	0.000006	0.235150
C85	C	0.631027	-0.000001	1.007905
C86	C	0.631029	-0.000004	1.086830
C87	C	0.441771	-0.000011	1.007899
C88	C	0.377541	-0.000017	1.086821
C89	C	0.441771	0.232545	0.775350
C90	C	0.377541	0.311466	0.775347
C91	C	0.441778	0.232537	1.007897
C92	C	0.377550	0.311456	1.086819
C93	C	0.820263	-0.232523	0.542817
C94	C	0.884490	-0.311441	0.463895
C95	C	0.820270	0.000025	0.542816
C96	C	0.884499	0.000031	0.463893
C97	C	0.820270	-0.232531	0.775365
C98	C	0.884499	-0.311452	0.775367
C99	C	0.347376	-0.045436	1.078474
C100	C	0.287034	-0.045459	1.152623
C101	C	0.256854	-0.000057	1.235118
C102	C	0.287025	0.045363	1.243463
C103	C	0.347371	0.045380	1.169315
C104	C	0.347381	0.393944	0.820755
C105	C	0.287039	0.468106	0.820749
C106	C	0.256854	0.459788	0.775340
C107	C	0.287020	0.377301	0.729926
C108	C	0.347365	0.303141	0.729928
C109	C	0.347388	0.303105	1.169300
C110	C	0.287049	0.377251	1.243462
C111	C	0.256867	0.459745	1.235143
C112	C	0.287035	0.468094	1.152654
C113	C	0.347378	0.393949	1.078493
C114	C	0.914659	-0.303091	0.381415
C115	C	0.975018	-0.377237	0.307252
C116	C	1.005202	-0.459731	0.315571
C117	C	0.975031	-0.468080	0.398060
C118	C	0.914677	-0.393935	0.472221
C119	C	0.914671	0.045442	0.472240
C120	C	0.975030	0.045444	0.398091
C121	C	1.005212	0.000041	0.315596
C122	C	0.975037	-0.045376	0.307251
C123	C	0.914684	-0.045383	0.381400
C124	C	0.914665	-0.303106	0.820785
C125	C	0.975008	-0.377254	0.820805
C126	C	1.005187	-0.459747	0.775400
C127	C	0.975016	-0.468091	0.729981
C128	C	0.914670	-0.393944	0.729967
H129	H	0.371930	-0.082406	0.857727
H130	H	0.765114	0.599270	0.692973
C131	C	0.881473	-0.212354	0.372242
N132	N	0.856486	-0.144012	0.365326
H133	H	0.765119	0.464728	0.692979
H134	H	0.496917	0.764017	0.857733
C135	C	0.475804	0.095355	0.178480
N136	N	0.414566	0.132974	0.185376
C137	C	0.380566	-0.095390	0.987737
N138	N	0.405566	-0.133023	0.919395
H139	H	0.999615	-0.535255	0.404824
H140	H	0.262475	-0.082445	1.145812
C141	C	0.253804	0.095369	0.679987
N142	N	0.228801	0.132994	0.642361
C143	C	0.253860	0.558833	0.870720
N144	N	0.228868	0.627167	0.908361
C145	C	0.190467	-0.000079	1.316675
N146	N	0.140461	-0.000094	1.378101
C147	C	1.008189	-0.368056	0.870767
N148	N	1.033180	-0.361126	0.908398
H149	H	0.262444	0.082326	1.310640
C150	C	0.380548	0.403149	0.987766
N151	N	0.405529	0.410085	0.919432
H152	H	0.999574	-0.370422	0.240093
C153	C	0.881474	-0.212371	0.870743
N154	N	0.856474	-0.144031	0.908379
C155	C	0.190465	0.541376	0.775357
N156	N	0.140456	0.602830	0.775377
C157	C	-0.118505	0.095390	0.679998
N158	N	-0.143510	0.133017	0.642373
C159	C	1.071587	-0.541284	0.233983
N160	N	1.121584	-0.602707	0.172527
C161	C	1.008204	0.095416	0.407290
N162	N	1.033187	0.133057	0.414221
H163	H	0.890102	0.082421	0.539404
C164	C	0.253804	0.368166	0.679984
N165	N	0.228779	0.361288	0.642373
C166	C	1.008193	-0.558841	0.680075
N167	N	1.033177	-0.627197	0.642496
C168	C	0.475796	0.631856	0.870716
N169	N	0.414554	0.638757	0.908347
C170	C	1.071571	-0.541303	0.775423
N171	N	1.121572	-0.602728	0.775441
H172	H	0.262453	0.535271	1.145893
H173	H	0.890116	-0.400751	0.692978
C174	C	0.380526	0.212417	0.679983
N175	N	0.405499	0.144084	0.642363
H176	H	1.054355	0.000054	0.255227
C177	C	0.253868	0.368048	1.334192
N178	N	0.228876	0.361114	1.402527
H179	H	0.890114	-0.400744	0.539378
H180	H	-0.000382	-0.082389	0.857742
C181	C	0.190482	0.541298	1.316731
N182	N	0.140478	0.602721	1.378187
H183	H	0.371953	0.235941	1.176090
C184	C	0.475800	0.095356	0.334214
N185	N	0.414558	0.132979	0.402557
H186	H	0.262431	-0.082396	0.857736
C187	C	0.786245	-0.095346	0.143503
N188	N	0.847486	-0.132971	0.136599
C189	C	1.008235	-0.095303	0.216499
N190	N	1.033235	-0.132899	0.148142
H191	H	0.124833	0.011761	0.913354
H192	H	0.015328	0.011781	0.913360
H193	H	-0.000387	0.082408	0.692972
C194	C	0.138194	-0.013605	0.615611
N195	N	0.141019	-0.018960	0.552588
C196	C	0.786241	0.368155	0.680002
N197	N	0.847484	0.361252	0.642384
H198	H	-0.109887	-0.082369	0.857756
C199	C	0.264941	-0.013622	0.615603
N200	N	0.317775	-0.018999	0.552575
H201	H	0.890120	-0.082360	0.374591
H202	H	0.765126	0.235999	0.692978
H203	H	0.371918	0.082401	0.692967
H204	H	0.765112	-0.082354	0.240073
H205	H	0.496928	0.400744	0.857730
H206	H	0.496928	0.535286	0.857727
H207	H	0.496915	0.082397	0.539370
H208	H	0.496921	0.082391	0.404836
H209	H	0.765124	-0.082378	0.011342
H210	H	0.765112	-0.082344	0.374615
H211	H	0.371924	0.082370	1.176123
H212	H	0.371951	0.400733	0.857733
