data_functionalizedCrystal
_audit_creation_method	'MofGen! by Chris Wilmer'
_symmetry_space_group_name_H-M	'P1'
_symmetry_Int_Tables_number	1
_symmetry_cell_setting	triclinic
loop_
_symmetry_equiv_pos_as_xyz
  x,y,z
_cell_length_a	16.109301
_cell_length_b	6.394989
_cell_length_c	15.186229
_cell_angle_alpha	90.000778
_cell_angle_beta	89.999362
_cell_angle_gamma	95.020404
loop_
_atom_site_label
_atom_site_type_symbol
_atom_site_fract_x
_atom_site_fract_y
_atom_site_fract_z
O1	O	1.105973	-0.268480	-0.073167
O2	O	0.864264	-0.301892	-0.073180
O3	O	0.988549	0.018881	-0.073174
O4	O	0.981688	-0.589252	-0.073173
O5	O	0.988541	0.018885	0.073283
O6	O	0.864256	-0.301887	0.073277
O7	O	1.105964	-0.268475	0.073290
Zn8	Zn	0.985109	-0.285181	0.096537
Zn9	Zn	0.985120	-0.285187	-0.096427
O10	O	0.981679	-0.589248	0.073284
C11	C	0.833271	-0.300536	0.000047
C12	C	0.740933	-0.296479	0.000041
C13	C	0.520575	-0.477384	0.000052
C14	C	0.433814	-0.473555	0.000057
C15	C	0.449660	-0.092969	0.000053
C16	C	0.536419	-0.096800	0.000054
C17	C	0.571874	-0.289014	0.000049
C18	C	0.398354	-0.281354	0.000054
C19	C	0.304284	-0.277201	0.000060
C20	C	0.665950	-0.293168	0.000044
C21	C	1.136958	-0.269831	0.000061
C22	C	1.229296	-0.273889	0.000061
C23	C	0.987189	0.096703	0.000051
C24	C	0.983042	0.332935	0.000050
N25	N	0.985107	-0.285175	0.228229
N26	N	0.985128	-0.285175	-0.228120
C27	C	1.040160	-0.143185	0.453955
C28	C	1.040163	-0.143180	0.546145
C29	C	0.930069	-0.427172	0.546148
C30	C	0.930063	-0.427166	0.453960
C31	C	0.985113	-0.285175	0.407866
C32	C	0.985122	-0.285176	0.592244
C33	C	0.985124	-0.285172	0.692200
C34	C	0.985110	-0.285176	0.307904
H35	H	0.420781	0.063525	0.000063
H36	H	0.549440	-0.633896	0.000054
H37	H	1.084986	-0.027557	0.583668
O38	O	0.876483	-0.564893	0.590889
C39	C	0.793828	-0.530908	0.568356
H40	H	0.791670	-0.363673	0.543015
H41	H	0.752361	-0.554901	0.628987
H42	H	0.770615	-0.646664	0.514846
O43	O	0.384019	-0.656595	-0.000100
C44	C	0.400415	-0.773316	-0.075941
H45	H	0.428897	-0.663026	-0.128958
H46	H	0.339765	-0.857119	-0.101400
H47	H	0.445838	-0.894185	-0.058795
O48	O	0.586222	0.086251	-0.000107
C49	C	0.569831	0.202970	-0.075949
H50	H	0.541345	0.092682	-0.128965
H51	H	0.630484	0.286756	-0.101409
H52	H	0.524414	0.323853	-0.058803
O53	O	0.876673	-0.565396	0.409225
C54	C	0.892340	-0.772180	0.431760
H55	H	0.958914	-0.773253	0.457097
H56	H	0.883871	-0.876993	0.371130
H57	H	0.846904	-0.833505	0.485272
H58	H	1.084984	-0.027564	0.416427
