data_functionalizedCrystal
_audit_creation_method	'MofGen! by Chris Wilmer'
_symmetry_space_group_name_H-M	'P1'
_symmetry_Int_Tables_number	1
_symmetry_cell_setting	triclinic
loop_
_symmetry_equiv_pos_as_xyz
  x,y,z
_cell_length_a	12.759401
_cell_length_b	16.959453
_cell_length_c	16.959447
_cell_angle_alpha	90.031064
_cell_angle_beta	90.012505
_cell_angle_gamma	90.019073
loop_
_atom_site_label
_atom_site_type_symbol
_atom_site_fract_x
_atom_site_fract_y
_atom_site_fract_z
Zn1	Zn	1.606152	-0.314685	0.446866
Zn2	Zn	1.606049	-0.446878	0.314686
Zn3	Zn	1.430473	-0.314715	0.314708
Zn4	Zn	1.430426	-0.446824	0.446829
O5	O	1.518275	-0.380775	0.380772
O6	O	1.753159	-0.332231	0.429339
O7	O	1.582735	-0.429381	0.204078
O8	O	1.453840	-0.204100	0.332264
O9	O	1.753084	-0.429352	0.332227
O10	O	1.582910	-0.204078	0.429360
O11	O	1.453740	-0.332282	0.204094
O12	O	1.283446	-0.332229	0.332228
O13	O	1.453760	-0.429260	0.557445
O14	O	1.283412	-0.429289	0.429296
O15	O	1.582865	-0.332179	0.557472
O16	O	1.582690	-0.557481	0.332190
O17	O	1.453661	-0.557442	0.429275
C18	C	1.245308	-0.380757	0.380761
C19	C	1.128531	-0.380768	0.380774
C20	C	0.963972	-0.330307	0.431424
C21	C	1.073696	-0.330291	0.431419
C22	C	1.073637	-0.431269	0.330137
C23	C	0.963915	-0.431288	0.330147
C24	C	1.518188	-0.586142	0.380743
C25	C	1.518246	-0.673998	0.380757
C26	C	1.585568	-1.045404	0.431426
C27	C	1.451276	-1.045544	0.330236
C28	C	1.451237	-0.962998	0.330218
C29	C	1.518363	-0.921651	0.380805
C30	C	1.585529	-0.962850	0.431411
C31	C	1.384065	-0.921792	0.279619
C32	C	1.384022	-0.839241	0.279600
C33	C	1.451155	-0.797893	0.330184
C34	C	1.518324	-0.839098	0.380790
C35	C	1.585451	-0.797751	0.431378
C36	C	1.652627	-0.838954	0.481981
C37	C	1.652662	-0.921502	0.481995
C38	C	1.451120	-0.715345	0.330170
C39	C	1.585412	-0.715197	0.431363
C40	C	1.792309	-0.380794	0.380784
C41	C	1.909085	-0.380803	0.380790
C42	C	1.518319	-0.380710	0.586941
C43	C	1.518338	-0.380682	0.674797
C44	C	1.518392	-0.174607	0.380819
C45	C	1.518442	-0.086751	0.380838
C46	C	1.518292	-0.380784	0.175406
C47	C	1.518477	-0.380589	0.087550
C48	C	1.451244	-0.431145	1.046261
C49	C	1.585682	-0.330053	1.046285
C50	C	1.585654	-0.330070	0.963739
C51	C	1.518421	-0.380625	0.922450
C52	C	1.451216	-0.431164	0.963708
C53	C	1.652865	-0.279537	0.922476
C54	C	1.652841	-0.279553	0.839925
C55	C	1.585602	-0.330105	0.798634
C56	C	1.518393	-0.380645	0.839897
C57	C	1.451160	-0.431201	0.798608
C58	C	1.383946	-0.481738	0.839869
C59	C	1.383977	-0.481717	0.922417
C60	C	1.585571	-0.330126	0.716086
C61	C	1.451133	-0.431221	0.716054
H62	H	1.118292	-0.472372	0.288905
H63	H	1.329258	-0.522864	0.956019
O64	O	1.127129	-0.281199	0.480494
C65	C	1.250982	-0.174443	0.491307
C66	C	1.190554	-0.230003	0.435637
H67	H	1.302259	-0.133026	0.455062
H68	H	1.302431	-0.210732	0.532559
H69	H	1.192923	-0.138403	0.527520
H70	H	1.248537	-0.266056	0.399373
H71	H	1.139089	-0.193669	0.394437
H72	H	1.707571	-0.238402	0.806337
H73	H	1.396373	-0.472383	0.682443
O74	O	1.650969	-0.281156	0.675971
C75	C	1.792748	-0.270560	0.582734
C76	C	1.718763	-0.326113	0.628127
H77	H	1.847563	-0.306885	0.544028
H78	H	1.840887	-0.234442	0.626389
H79	H	1.744506	-0.229215	0.544137
H80	H	1.766923	-0.367506	0.666725
H81	H	1.670620	-0.362176	0.584429
O82	O	1.650755	-1.085340	0.480695
C83	C	1.701578	-1.110515	0.615195
C84	C	1.627713	-1.065221	0.559483
H85	H	1.682960	-1.094277	0.678907
H86	H	1.786320	-1.094239	0.601442
H87	H	1.690091	-1.176612	0.606474
H88	H	1.639107	-0.999113	0.568172
H89	H	1.542998	-1.081562	0.573250
O90	O	1.318911	-0.961864	0.230372
C91	C	1.268078	-0.987276	0.095887
C92	C	1.341916	-0.941830	0.151575
H93	H	1.286666	-0.971108	0.032167
H94	H	1.183325	-0.971067	0.109647
H95	H	1.279628	-1.053350	0.104625
H96	H	1.330460	-0.875746	0.142868
H97	H	1.426642	-0.958105	0.137802
O98	O	0.910753	-0.480368	0.280882
C99	C	0.922263	-0.580558	0.180459
C100	C	0.982599	-0.525003	0.236190
H101	H	0.980325	-0.616672	0.144322
H102	H	0.870907	-0.544264	0.139146
H103	H	0.870878	-0.621906	0.216696
H104	H	1.034042	-0.483644	0.200017
H105	H	1.033889	-0.561347	0.277505
H106	H	1.396421	-0.681801	0.288973
H107	H	1.640079	-0.681538	0.472554
O108	O	1.318672	-0.530774	0.799635
C109	C	1.259117	-0.575637	0.672444
C110	C	1.333070	-0.520054	0.717913
H111	H	1.270748	-0.567002	0.606364
H112	H	1.174388	-0.561745	0.688612
H113	H	1.277519	-0.639363	0.688703
H114	H	1.314763	-0.456310	0.701679
H115	H	1.417777	-0.534014	0.701741
H116	H	1.329326	-0.805699	0.238395
O117	O	1.386054	-0.480209	1.086459
C118	C	1.326454	-0.524947	1.213614
C119	C	1.400352	-0.469355	1.168189
H120	H	1.337972	-0.516178	1.279702
H121	H	1.344863	-0.588706	1.197425
H122	H	1.241754	-0.511071	1.197337
H123	H	1.485077	-0.483159	1.184442
H124	H	1.381852	-0.405612	1.184383
O125	O	1.717797	-0.798664	0.531047
C126	C	1.777184	-0.671421	0.575900
C127	C	1.703348	-0.716954	0.520282
H128	H	1.765513	-0.605351	0.567228
H129	H	1.861947	-0.687549	0.562077
H130	H	1.758703	-0.687663	0.639619
H131	H	1.721734	-0.700737	0.456545
H132	H	1.618608	-0.700823	0.534174
H133	H	0.919333	-0.289198	0.472660
H134	H	1.707352	-0.955057	0.523194
H135	H	1.396620	-1.079213	0.289054
O136	O	1.650895	-0.280975	1.086512
C137	C	1.710575	-0.236187	1.213697
C138	C	1.636647	-0.291797	1.168235
H139	H	1.699097	-0.244929	1.279778
H140	H	1.692156	-0.172434	1.197551
H141	H	1.795264	-0.250070	1.197408
H142	H	1.551933	-0.277985	1.184499
H143	H	1.655155	-0.355533	1.184385
H144	H	1.707609	-0.238382	0.956099
