data_functionalizedCrystal
_audit_creation_method	'MofGen! by Chris Wilmer'
_symmetry_space_group_name_H-M	'P1'
_symmetry_Int_Tables_number	1
_symmetry_cell_setting	triclinic
loop_
_symmetry_equiv_pos_as_xyz
  x,y,z
_cell_length_a	6.817900
_cell_length_b	9.514072
_cell_length_c	16.305550
_cell_angle_alpha	91.345430
_cell_angle_beta	103.455250
_cell_angle_gamma	118.843421
loop_
_atom_site_label
_atom_site_type_symbol
_atom_site_fract_x
_atom_site_fract_y
_atom_site_fract_z
V1	V	-4.111542	-0.223563	-0.263696
O2	O	-4.010274	0.009348	-0.257997
O3	O	-4.146313	-0.441947	-0.262547
O4	O	-4.061870	-0.220736	-0.378405
O5	O	-4.095303	-0.213393	-0.141336
V6	V	-4.584558	-0.195632	-0.248982
O7	O	-4.395849	-0.284833	-0.295974
O8	O	-4.750448	-0.134362	-0.216704
O9	O	-4.326580	0.022752	-0.250131
O10	O	-4.803222	-0.428543	-0.254681
O11	O	-4.718194	-0.205802	-0.371342
O12	O	-4.411024	-0.198459	-0.134273
C13	C	-4.011588	-0.495165	-0.258556
C14	C	-4.121296	-0.673700	-0.258381
C15	C	-3.903870	-0.212987	-0.406343
C16	C	-3.945092	-0.212120	-0.500122
C17	C	-4.094898	-0.208764	-0.840858
C18	C	-3.855048	-0.198798	-0.799900
C19	C	-3.812451	-0.200364	-0.702409
C20	C	-4.020575	-0.210428	-0.671815
C21	C	-4.248125	-0.369042	-0.722913
C22	C	-4.289646	-0.368145	-0.820460
C23	C	-4.093423	-0.061383	-0.794576
C24	C	-4.045014	-0.060128	-0.696730
C25	C	-3.978587	-0.211375	-0.576280
C26	C	-4.136900	-0.207829	-0.936394
C27	C	-4.124650	0.075961	-0.254120
C28	C	-3.994181	0.254495	-0.254301
C29	C	-4.232367	-0.206213	-0.106330
C30	C	-4.170381	-0.207072	-0.012550
H31	H	-3.705193	-0.084217	-0.811922
N32	N	-3.849100	-0.331614	-0.839814
N33	N	-3.672247	-0.345708	-0.816212
H34	H	-3.668043	-0.439506	-0.844406
N35	N	-3.837021	0.087067	-0.653179
N36	N	-3.720903	0.188216	-0.694917
H37	H	-3.574003	0.292171	-0.664154
H38	H	-4.314088	-0.748827	-0.261769
H39	H	-3.786891	-0.307473	-0.686435
H40	H	-3.956168	0.058798	-0.807586
N41	N	-4.231992	-0.509051	-0.702261
N42	N	-4.243846	-0.604742	-0.759568
H43	H	-4.232439	-0.703621	-0.744985
H44	H	-4.406279	-0.382143	-0.704039
H45	H	-3.642443	-0.086321	-0.667047
N46	N	-4.297660	-0.508100	-0.858979
N47	N	-4.125404	-0.527785	-0.836948
H48	H	-4.131054	-0.626630	-0.864147
H49	H	-4.267735	-0.067273	-0.821410
H50	H	-4.191549	-0.058154	-0.675376
N51	N	-3.752331	-0.651251	-0.250029
N52	N	-3.660531	-0.501474	-0.250135
H53	H	-3.489715	-0.434895	-0.247117
H54	H	-4.468789	-0.382056	-0.848493
