data_functionalizedCrystal
_audit_creation_method	'MofGen! by Chris Wilmer'
_symmetry_space_group_name_H-M	'P1'
_symmetry_Int_Tables_number	1
_symmetry_cell_setting	triclinic
loop_
_symmetry_equiv_pos_as_xyz
  x,y,z
_cell_length_a	31.640172
_cell_length_b	17.917603
_cell_length_c	17.917559
_cell_angle_alpha	60.139256
_cell_angle_beta	90.007221
_cell_angle_gamma	63.032812
loop_
_atom_site_label
_atom_site_type_symbol
_atom_site_fract_x
_atom_site_fract_y
_atom_site_fract_z
Zr1	Zr	0.431294	0.806767	-0.128958
O2	O	0.370647	0.951809	-0.249506
O3	O	0.446988	0.654537	-0.087303
O4	O	0.454645	0.796383	-0.242708
O5	O	0.360246	0.820659	0.023139
O6	O	0.524202	0.796369	-0.242692
O7	O	0.362989	0.809962	-0.094101
O8	O	0.510503	0.542632	0.035300
O9	O	0.373944	1.074397	-0.254853
O10	O	0.509091	0.719803	-0.075204
O11	O	0.455135	0.727797	0.012279
O12	O	0.464151	0.894803	-0.170691
O13	O	0.410194	0.902796	-0.083208
Zr14	Zr	0.537853	0.823805	0.058052
Zr15	Zr	0.542229	0.806744	-0.128932
Zr16	Zr	0.426919	0.823828	0.058026
Zr17	Zr	0.436553	1.002281	-0.137484
Zr18	Zr	0.532595	0.628291	0.066579
O19	O	0.522160	0.976035	0.016398
O20	O	0.528381	0.951777	-0.249469
O21	O	0.364425	0.976067	0.016361
O22	O	0.598500	0.678763	0.178601
O23	O	0.604722	0.654505	-0.087266
O24	O	0.440766	0.678795	0.178564
O25	O	0.608901	0.809913	-0.094044
O26	O	0.514502	0.834189	0.171803
O27	O	0.444946	0.834203	0.171787
O28	O	0.606158	0.820610	0.023196
O29	O	0.462122	1.074379	-0.254832
O30	O	0.507025	0.556193	0.183927
O31	O	0.595203	0.556175	0.183948
O32	O	0.598681	0.542614	0.035320
O33	O	0.370466	1.087958	-0.106225
O34	O	0.458644	1.087940	-0.106205
O35	O	0.504996	0.735769	0.099786
O36	O	0.558953	0.727776	0.012303
O37	O	0.514012	0.902775	-0.083184
O38	O	0.460056	0.910769	0.004299
C39	C	0.477996	0.570728	-0.024787
C40	C	0.475764	0.487727	-0.021167
C41	C	0.471686	0.335761	-0.014556
C42	C	0.497460	0.294806	-0.056347
C43	C	0.495191	0.210247	-0.052668
C44	C	0.473954	0.420328	-0.018233
C45	C	0.345812	0.815314	-0.035485
C46	C	0.298717	0.815323	-0.035496
C47	C	0.030167	0.723930	0.014409
C48	C	-0.146819	0.723913	0.014427
O49	O	-0.149755	0.646227	0.056848
N50	N	-0.192407	0.815260	-0.035418
C51	C	-0.193748	0.906618	-0.085265
O52	O	-0.236585	0.984315	-0.127653
C53	C	-0.016763	0.906635	-0.085278
C54	C	0.028825	0.815281	-0.035437
C55	C	0.075753	0.632583	0.064246
C56	C	0.119997	0.632588	0.064237
C57	C	0.118655	0.723939	0.014391
C58	C	0.073069	0.815285	-0.035446
C59	C	-0.018104	0.997992	-0.135120
C60	C	0.026147	0.997988	-0.135116
C61	C	0.071735	0.906634	-0.085276
C62	C	0.115970	0.906641	-0.085301
N63	N	0.161559	0.815294	-0.035457
C64	C	0.162901	0.723943	0.014389
C65	C	-0.286666	0.906603	-0.085257
C66	C	-0.330912	0.906600	-0.085255
C67	C	-0.283980	0.723894	0.014439
C68	C	-0.239733	0.723898	0.014431
C69	C	-0.241078	0.815256	-0.035412
C70	C	0.255814	0.723960	0.014366
C71	C	0.300059	0.723972	0.014350
C72	C	0.253123	0.906678	-0.085339
C73	C	0.208882	0.906666	-0.085327
C74	C	0.210230	0.815299	-0.035468
O75	O	0.118944	0.984287	-0.127692
O76	O	0.205742	0.646259	0.056787
C77	C	-0.014077	0.723925	0.014418
C78	C	-0.059662	0.815271	-0.035419
C79	C	-0.061004	0.906622	-0.085265
C80	C	-0.103908	0.815267	-0.035418
C81	C	-0.102566	0.723916	0.014428
C82	C	-0.056978	0.632569	0.064272
C83	C	-0.012734	0.632574	0.064264
C84	C	-0.106593	0.997969	-0.135110
C85	C	-0.150834	0.997957	-0.135098
C86	C	-0.149492	0.906606	-0.085252
C87	C	0.623335	0.815258	-0.035420
C88	C	0.670430	0.815249	-0.035409
C89	C	0.490047	0.793946	-0.269341
C90	C	0.491905	0.786703	-0.348721
C91	C	0.491151	1.059844	-0.046118
C92	C	0.493383	1.142845	-0.049738
C93	C	0.473840	0.857087	-0.576825
C94	C	0.495306	0.773489	-0.494077
C95	C	0.493413	0.780844	-0.413194
C96	C	0.475733	0.849735	-0.657717
C97	C	0.479100	0.836626	0.198436
C98	C	0.477243	0.843869	0.277815
C99	C	0.616758	0.570700	-0.024754
C100	C	0.661620	0.487690	-0.021123
C101	C	0.472523	0.592068	0.209102
C102	C	0.468433	0.516310	0.292101
C103	C	0.611285	0.592040	0.209134
C104	C	0.654289	0.516273	0.292145
C105	C	0.357862	1.038532	-0.280039
C106	C	0.314858	1.114299	-0.363050
C107	C	0.352389	1.059872	-0.046151
C108	C	0.307527	1.142882	-0.049782
C109	C	0.496624	1.038504	-0.280007
C110	C	0.500714	1.114262	-0.363006
C111	C	0.656661	0.444545	-0.065104
C112	C	0.698810	0.366557	-0.061710
C113	C	0.745918	0.331711	-0.014330
C114	C	0.750877	0.374863	0.029651
C115	C	0.708728	0.452855	0.026252
C116	C	0.492540	0.484896	0.376764
C117	C	0.488695	0.413725	0.454758
C118	C	0.460746	0.373964	0.448086
C119	C	0.436637	0.405385	0.363414
C120	C	0.440479	0.476560	0.285423
C121	C	0.702654	0.476519	0.285462
C122	C	0.743066	0.405338	0.363452
C123	C	0.735112	0.373906	0.448123
C124	C	0.686743	0.413667	0.454804
C125	C	0.646332	0.484853	0.376815
C126	C	0.266493	1.154062	-0.356368
C127	C	0.226082	1.225268	-0.434358
C128	C	0.234036	1.256704	-0.519030
C129	C	0.282406	1.216937	-0.525710
C130	C	0.322816	1.145738	-0.447721
C131	C	0.312487	1.186035	-0.005810
C132	C	0.270338	1.264042	-0.009225
C133	C	0.223231	1.298891	-0.056607
C134	C	0.218272	1.255735	-0.100585
C135	C	0.260420	1.177734	-0.097175
C136	C	0.528666	1.154000	-0.356306
C137	C	0.532519	1.225173	-0.434285
C138	C	0.508416	1.256612	-0.518964
C139	C	0.480462	1.216865	-0.525662
C140	C	0.476613	1.145688	-0.447684
H141	H	0.337179	0.649578	0.054939
H142	H	0.521230	0.323250	-0.094887
H143	H	0.548295	1.128415	-0.287364
F144	F	0.606529	0.481618	-0.115537
F145	F	-0.379426	1.003830	-0.138314
F146	F	0.440620	0.298584	0.035819
H147	H	0.515104	0.696395	-0.483979
F148	F	0.374289	1.103420	-0.454846
H149	H	0.694763	0.331431	-0.097525
H150	H	0.256919	0.649560	0.054967
H151	H	0.454041	0.934175	-0.586922
F152	F	0.275626	1.309956	0.037588
H153	H	0.780234	0.268204	-0.011568
H154	H	0.252039	0.981053	-0.125926
H155	H	0.188915	1.362405	-0.059377
H156	H	0.350840	1.157668	0.032780
H157	H	0.789237	0.346480	0.068227
F158	F	0.562269	1.267466	-0.427138
F159	F	0.512516	1.332368	-0.601949
F160	F	0.290863	1.250402	-0.615831
H161	H	0.460839	1.242474	-0.594618
F162	F	0.258017	1.120618	-0.266262
F163	F	0.446857	1.103410	-0.454829
H164	H	0.680274	0.388065	0.523753
F165	F	0.714014	0.498760	0.073071
H166	H	0.515298	0.517262	0.382213
H167	H	0.157113	0.558198	0.104818
H168	H	0.508330	0.388151	0.523693
H169	H	0.457622	0.316009	0.511600
H170	H	0.076854	0.558191	0.104841
H171	H	0.606952	0.517211	0.382268
F172	F	0.174607	1.267575	-0.427230
F173	F	0.414822	0.509981	0.195320
F174	F	-0.191218	0.626668	0.067479
H175	H	-0.282894	0.649512	0.055020
H176	H	-0.287769	0.981002	-0.125851
H177	H	0.413882	0.373001	0.357996
H178	H	0.201127	1.314679	-0.582527
H179	H	0.782448	0.372970	0.357997
F180	F	0.168132	1.292832	-0.151008
H181	H	0.709140	0.502099	0.216526
F182	F	0.778126	0.298142	0.531120
H183	H	0.256375	1.142601	-0.132980
H184	H	-0.055217	1.072383	-0.175704
F185	F	0.035779	0.535342	0.117312
H186	H	0.025046	1.072386	-0.175695
H187	H	-0.055892	0.558187	0.104853
F188	F	-0.199351	1.095195	-0.188152
F189	F	-0.108030	1.095203	-0.188165
F190	F	0.160363	1.003892	-0.138389
