data_functionalizedCrystal
_audit_creation_method	'MofGen! by Chris Wilmer'
_symmetry_space_group_name_H-M	'P1'
_symmetry_Int_Tables_number	1
_symmetry_cell_setting	triclinic
loop_
_symmetry_equiv_pos_as_xyz
  x,y,z
_cell_length_a	16.109318
_cell_length_b	16.109304
_cell_length_c	17.766277
_cell_angle_alpha	89.996447
_cell_angle_beta	89.994221
_cell_angle_gamma	83.465600
loop_
_atom_site_label
_atom_site_type_symbol
_atom_site_fract_x
_atom_site_fract_y
_atom_site_fract_z
O1	O	1.103130	0.106937	-0.062527
O2	O	1.603130	0.606937	0.437473
O3	O	0.861070	0.120221	-0.062541
O4	O	1.361070	0.620221	0.437459
O5	O	0.988748	-0.007451	-0.062534
O6	O	1.488748	0.492549	0.437466
O7	O	0.975451	0.234609	-0.062534
O8	O	1.475451	0.734609	0.437466
O9	O	0.988726	-0.007458	0.062654
O10	O	1.488726	0.492542	0.562654
O11	O	0.861047	0.120215	0.062647
O12	O	1.361047	0.620215	0.562647
O13	O	1.103107	0.106930	0.062662
O14	O	1.603107	0.606930	0.562662
Cu15	Cu	0.982075	0.113572	0.074085
Cu16	Cu	1.482075	0.613572	0.574085
Cu17	Cu	0.982102	0.113580	-0.073965
Cu18	Cu	1.482102	0.613580	0.426035
O19	O	0.975429	0.234603	0.062654
O20	O	1.475429	0.734603	0.562654
C21	C	0.830084	0.119677	0.000051
C22	C	1.330084	0.619677	0.500051
C23	C	0.737789	0.118056	0.000045
C24	C	1.237789	0.618056	0.500045
C25	C	0.988198	-0.038430	0.000058
C26	C	1.488198	0.461570	0.500058
C27	C	0.986582	-0.130725	0.000053
C28	C	1.486582	0.369275	0.500053
C29	C	0.438728	0.112825	-0.068182
C30	C	0.938728	0.612825	0.431818
C31	C	0.525449	0.114342	-0.068187
C32	C	1.025449	0.614342	0.431813
C33	C	0.525443	0.114324	0.068301
C34	C	1.025443	0.614324	0.568301
C35	C	0.438725	0.112801	0.068305
C36	C	0.938725	0.612801	0.568305
C37	C	0.395368	0.112055	0.000061
C38	C	0.895368	0.612055	0.500061
C39	C	0.568809	0.115096	0.000053
C40	C	1.068809	0.615096	0.500053
C41	C	0.662836	0.116741	0.000048
C42	C	1.162836	0.616741	0.500048
C43	C	0.301336	0.110408	0.000065
C44	C	0.801336	0.610408	0.500065
C45	C	0.982861	-0.343059	-0.068185
C46	C	1.482861	0.156941	0.431815
C47	C	0.981334	-0.429779	-0.068184
C48	C	1.481334	0.070221	0.431816
C49	C	0.981314	-0.429783	0.068303
C50	C	1.481314	0.070217	0.568303
C51	C	0.982834	-0.343064	0.068302
C52	C	1.482834	0.156936	0.568302
C53	C	0.983612	-0.299704	0.000056
C54	C	1.483612	0.200296	0.500056
C55	C	0.980565	-0.473144	0.000058
C56	C	1.480565	0.026856	0.500058
C57	C	0.978911	-0.567170	0.000059
C58	C	1.478911	-0.067170	0.500059
C59	C	0.985265	-0.205672	0.000054
C60	C	1.485265	0.294328	0.500054
C61	C	1.134093	0.107474	0.000068
C62	C	1.634093	0.607474	0.500068
C63	C	1.226388	0.109095	0.000069
C64	C	1.726388	0.609095	0.500069
C65	C	0.975979	0.265581	0.000060
C66	C	1.475979	0.765581	0.500060
C67	C	0.977595	0.357876	0.000060
C68	C	1.477595	0.857876	0.500060
N69	N	0.982063	0.113566	0.178215
N70	N	1.482063	0.613566	0.678215
N71	N	0.982121	0.113579	-0.178095
N72	N	1.482121	0.613579	0.321905
C73	C	1.038617	0.057060	0.217606
C74	C	1.538617	0.557060	0.717606
C75	C	1.038622	0.057056	0.296407
C76	C	1.538622	0.557056	0.796407
C77	C	0.982080	0.113573	0.335816
C78	C	1.482080	0.613573	0.835816
C79	C	0.925515	0.170083	0.296416
C80	C	1.425515	0.670083	0.796416
C81	C	0.925507	0.170079	0.217616
C82	C	1.425507	0.670079	0.717616
C83	C	0.971167	0.189294	0.460654
C84	C	1.471167	0.689294	0.960654
C85	C	0.971182	0.189298	0.539452
C86	C	1.471182	0.689298	1.039452
C87	C	0.982102	0.113583	0.578862
C88	C	1.482102	0.613583	1.078862
C89	C	0.993026	0.037859	0.539464
C90	C	1.493026	0.537859	1.039464
C91	C	0.993018	0.037856	0.460663
C92	C	1.493018	0.537856	0.960663
C93	C	0.982083	0.113582	0.421262
C94	C	1.482083	0.613582	0.921262
C95	C	1.038665	0.057068	0.703698
C96	C	1.538665	0.557068	1.203698
C97	C	1.038664	0.057063	0.782502
C98	C	1.538664	0.557063	1.282502
C99	C	0.925562	0.170097	0.782509
C100	C	1.425562	0.670097	1.282509
C101	C	0.925559	0.170094	0.703707
C102	C	1.425559	0.670094	1.203707
C103	C	0.982115	0.113581	0.664307
C104	C	1.482115	0.613581	1.164307
H105	H	0.403430	0.112217	-0.123750
H106	H	0.903430	0.612217	0.376250
H107	H	0.560749	0.114968	-0.123757
H108	H	1.060749	0.614968	0.376243
O109	O	0.864542	0.231046	0.338924
O110	O	1.364542	0.731046	0.838924
H111	H	0.875118	0.295860	0.323782
H112	H	1.375118	0.795860	0.823782
H113	H	0.879452	0.216094	0.185544
H114	H	1.379452	0.716094	0.685544
H115	H	0.980721	-0.465074	-0.123752
H116	H	1.480721	0.034926	0.376248
H117	H	0.560754	0.114932	0.123862
H118	H	1.060754	0.614932	0.623862
O119	O	0.864592	0.231081	0.824994
O120	O	1.364592	0.731081	1.324994
H121	H	0.799779	0.220480	0.809890
H122	H	1.299779	0.720480	1.309890
H123	H	0.980683	-0.465097	0.123867
H124	H	1.480683	0.034903	0.623867
O125	O	0.391948	0.111976	0.141913
O126	O	0.891948	0.611976	0.641913
H127	H	0.436661	0.112764	0.189366
H128	H	0.936661	0.612764	0.689366
O129	O	0.983683	-0.296286	-0.141789
O130	O	1.483683	0.203714	0.358211
H131	H	0.982894	-0.341005	-0.189240
H132	H	1.482894	0.158995	0.310760
O133	O	0.983654	-0.296294	0.141907
O134	O	1.483654	0.203706	0.641907
H135	H	0.982874	-0.341014	0.189363
H136	H	1.482874	0.158986	0.689363
H137	H	1.084676	0.011041	0.328485
H138	H	1.584676	0.511041	0.828485
O139	O	1.099603	-0.003901	0.175107
O140	O	1.599603	0.496099	0.675107
H141	H	1.138924	-0.043200	0.215742
H142	H	1.638924	0.456800	0.715742
H143	H	1.001910	-0.023801	0.428588
H144	H	1.501910	0.476199	0.928588
O145	O	1.004799	-0.043816	0.581956
O146	O	1.504799	0.456184	1.081956
H147	H	1.002959	-0.031097	0.643369
H148	H	1.502959	0.468903	1.143369
H149	H	1.084714	0.011049	0.671617
H150	H	1.584714	0.511049	1.171617
O151	O	1.099673	-0.003876	0.824993
O152	O	1.599673	0.496124	1.324993
H153	H	1.139004	-0.043162	0.784353
H154	H	1.639004	0.456838	1.284353
H155	H	0.962292	0.250957	0.571525
H156	H	1.462292	0.750957	1.071525
O157	O	0.864570	0.231049	0.661214
O158	O	1.364570	0.731049	1.161214
H159	H	0.825258	0.270354	0.701853
H160	H	1.325258	0.770354	1.201853
H161	H	0.962260	0.250955	0.428572
H162	H	1.462260	0.750955	0.928572
