data_functionalizedCrystal
_audit_creation_method	'MofGen! by Chris Wilmer'
_symmetry_space_group_name_H-M	'P1'
_symmetry_Int_Tables_number	1
_symmetry_cell_setting	triclinic
loop_
_symmetry_equiv_pos_as_xyz
  x,y,z
_cell_length_a	7.540329
_cell_length_b	19.188900
_cell_length_c	19.188940
_cell_angle_alpha	83.140602
_cell_angle_beta	90.003617
_cell_angle_gamma	90.009985
loop_
_atom_site_label
_atom_site_type_symbol
_atom_site_fract_x
_atom_site_fract_y
_atom_site_fract_z
O1	O	-0.147828	-0.926158	-0.087066
O2	O	-0.147756	-0.722845	-0.098822
O3	O	-0.147781	-0.830365	0.008712
O4	O	-0.147804	-0.818638	-0.194600
O5	O	0.147184	-0.830362	0.008713
O6	O	0.147209	-0.722841	-0.098821
O7	O	0.147137	-0.926155	-0.087065
Cu8	Cu	0.174105	-0.824497	-0.092943
Cu9	Cu	-0.174725	-0.824502	-0.092944
O10	O	0.147161	-0.818634	-0.194599
C11	C	-0.000265	-0.696831	-0.098444
C12	C	-0.000237	-0.619326	-0.097312
N13	N	0.419454	-0.824500	-0.092942
N14	N	-0.420073	-0.824505	-0.092940
C15	C	-0.000298	-0.829982	0.034723
C16	C	-0.000299	-0.828839	0.112227
C17	C	-0.161025	-0.582936	-0.096769
C18	C	-0.161043	-0.510112	-0.095697
C19	C	-0.000263	-0.473683	-0.095155
C20	C	0.160546	-0.510081	-0.095702
C21	C	0.160559	-0.582902	-0.096781
N22	N	0.119398	-0.364659	-0.053728
N23	N	0.119375	-0.295482	-0.052702
C24	C	-0.000294	-0.254275	-0.091906
N25	N	-0.119965	-0.284860	-0.132167
N26	N	-0.119946	-0.354044	-0.133190
C27	C	-0.000260	-0.394720	-0.093985
C28	C	-0.161112	-0.138921	-0.090202
C29	C	-0.161123	-0.066096	-0.089134
C30	C	0.160470	-0.066067	-0.089132
C31	C	0.160477	-0.138890	-0.090207
C32	C	-0.000319	-0.175314	-0.090738
C33	C	-0.000345	0.047833	-0.087447
C34	C	-0.000342	-0.029671	-0.088593
C35	C	-0.000325	-0.819017	-0.220610
C36	C	-0.000336	-0.820160	-0.298114
C37	C	0.160448	-0.820702	0.665486
C38	C	0.160457	-0.821769	0.592662
C39	C	-0.000326	-0.822308	0.556242
C40	C	-0.161132	-0.821762	0.592650
C41	C	-0.161136	-0.820688	0.665472
N42	N	-0.120016	-0.863726	0.447222
N43	N	-0.120000	-0.864748	0.378044
C44	C	-0.000322	-0.825541	0.336833
N45	N	0.119368	-0.785284	0.367414
N46	N	0.119357	-0.784265	0.436598
C47	C	-0.000339	-0.823472	0.477278
C48	C	0.160484	-0.827239	0.221468
C49	C	0.160486	-0.828302	0.148642
C50	C	-0.161107	-0.828301	0.148633
C51	C	-0.161105	-0.827232	0.221457
C52	C	-0.000305	-0.826704	0.257871
H53	H	-0.291980	-0.480477	-0.095256
H54	H	0.291391	-0.822197	0.563017
N55	N	0.333983	-0.622161	-0.097359
H56	H	0.341147	-0.646577	-0.141077
H57	H	0.435741	-0.587998	-0.096827
H58	H	0.291454	-0.480415	-0.095262
N59	N	-0.334527	-0.826663	0.260721
H60	H	-0.310134	-0.825902	0.312380
H61	H	-0.404728	-0.783578	0.242196
H62	H	-0.292042	-0.168578	-0.090642
H63	H	-0.291958	-0.612587	-0.097201
N64	N	-0.334553	-0.026842	-0.088550
H65	H	-0.436406	-0.060970	-0.089048
H66	H	-0.341542	-0.002427	-0.044830
H67	H	0.291380	-0.036406	-0.088695
N68	N	0.333899	-0.178145	-0.090792
H69	H	0.435753	-0.144019	-0.090287
H70	H	0.340918	-0.214159	-0.047968
N71	N	0.333874	-0.820132	0.704761
H72	H	0.435732	-0.820637	0.670647
H73	H	0.340903	-0.776413	0.729179
N74	N	-0.334551	-0.822281	0.553365
H75	H	-0.310152	-0.823026	0.501706
H76	H	-0.404892	-0.865346	0.571863
N77	N	-0.334576	-0.820138	0.704730
H78	H	-0.404897	-0.777062	0.686266
H79	H	-0.404686	-0.863635	0.697818
N80	N	0.333906	-0.826667	0.260750
H81	H	0.435768	-0.827167	0.226636
H82	H	0.340926	-0.782950	0.285172
H83	H	0.291421	-0.828741	0.119006
H84	H	-0.292020	-0.828731	0.118979
