data_functionalizedCrystal
_audit_creation_method	'MofGen! by Chris Wilmer'
_symmetry_space_group_name_H-M	'P1'
_symmetry_Int_Tables_number	1
_symmetry_cell_setting	triclinic
loop_
_symmetry_equiv_pos_as_xyz
  x,y,z
_cell_length_a	13.032721
_cell_length_b	13.032951
_cell_length_c	13.034356
_cell_angle_alpha	74.813221
_cell_angle_beta	89.133493
_cell_angle_gamma	89.099524
loop_
_atom_site_label
_atom_site_type_symbol
_atom_site_fract_x
_atom_site_fract_y
_atom_site_fract_z
Zn1	Zn	-0.515096	-1.642122	0.864526
Zn2	Zn	-0.015096	-1.142122	1.364526
Zn3	Zn	-0.704135	-1.598124	0.708194
Zn4	Zn	-0.204135	-1.098124	1.208194
Zn5	Zn	-0.515097	-1.441926	0.664403
Zn6	Zn	-0.015097	-0.941926	1.164403
Zn7	Zn	-0.665747	-1.447481	0.858917
Zn8	Zn	-0.165747	-0.947481	1.358917
O9	O	-0.600019	-1.532413	0.774010
O10	O	-0.100019	-1.032413	1.274010
O11	O	-0.556238	-1.783113	0.864462
O12	O	-0.056238	-1.283113	1.364462
O13	O	-0.695124	-1.556665	0.555555
O14	O	-0.195124	-1.056665	1.055555
O15	O	-0.372936	-1.484572	0.674970
O16	O	0.127064	-0.984572	1.174970
O17	O	-0.695124	-1.750787	0.749606
O18	O	-0.195124	-1.250787	1.249606
O19	O	-0.372936	-1.631655	0.821999
O20	O	0.127064	-1.131655	1.321999
O21	O	-0.556239	-1.441908	0.523381
O22	O	-0.056239	-0.941908	1.023381
O23	O	-0.519015	-1.295836	0.669532
O24	O	-0.019015	-0.795836	1.169532
O25	O	-0.629697	-1.494039	1.006492
O26	O	-0.129697	-0.994039	1.506492
O27	O	-0.629697	-1.299917	0.812441
O28	O	-0.129697	-0.799917	1.312441
O29	O	-0.519015	-1.637041	1.010612
O30	O	-0.019015	-1.137041	1.510612
O31	O	-0.841203	-1.562051	0.744168
O32	O	-0.341203	-1.062051	1.244168
O33	O	-0.813000	-1.451375	0.854903
O34	O	-0.313000	-0.951375	1.354903
C35	C	-0.570191	-1.259806	0.735626
C36	C	-0.070191	-0.759806	1.235626
C37	C	-0.557453	-1.143184	0.719233
C38	C	-0.057453	-0.643184	1.219233
C39	C	-0.606646	-1.093212	0.782549
C40	C	-0.106646	-0.593212	1.282549
C41	C	-0.593481	-0.972678	0.765608
C42	C	-0.093481	-0.472678	1.265608
C43	C	-0.863963	-1.502573	0.803706
C44	C	-0.363963	-1.002573	1.303706
C45	C	-0.976886	-1.489908	0.816458
C46	C	-0.476886	-0.989908	1.316458
C47	C	-1.041151	-1.539086	0.767409
C48	C	-0.541151	-1.039086	1.267409
C49	C	-1.157864	-1.525997	0.780589
C50	C	-0.657864	-1.025997	1.280589
C51	C	-0.335044	-1.562402	0.744225
C52	C	0.164956	-1.062402	1.244225
C53	C	-0.222128	-1.575181	0.731533
C54	C	0.277872	-1.075181	1.231533
C55	C	-0.570074	-1.571068	1.047688
C56	C	-0.070074	-1.071068	1.547688
C57	C	-0.557313	-1.587540	1.164313
C58	C	-0.057313	-1.087540	1.664313
C59	C	-0.629953	-0.806086	0.812536
C60	C	-0.129953	-0.306086	1.312536
C61	C	-0.642681	-0.922709	0.828932
C62	C	-0.142681	-0.422709	1.328932
C63	C	-0.629780	-1.493978	0.501397
C64	C	-0.129780	-0.993978	1.001397
C65	C	-0.642277	-1.477741	0.384769
C66	C	-0.142277	-0.977741	0.884769
C67	C	-0.593204	-1.541150	1.334809
C68	C	-0.093204	-1.041150	1.834809
C69	C	-0.606393	-1.524123	1.214270
C70	C	-0.106393	-1.024123	1.714270
H71	H	-0.541611	-0.926230	0.698858
H72	H	-0.041611	-0.426230	1.198858
F73	F	-0.674439	-1.153924	0.869795
F74	F	-0.174439	-0.653924	1.369795
H75	H	-0.694541	-0.969158	0.895692
H76	H	-0.194541	-0.469158	1.395692
H77	H	-0.694059	-1.410853	1.338304
H78	H	-0.194059	-0.910853	1.838304
H79	H	-1.009769	-1.590883	0.715664
H80	H	-0.509769	-1.090883	1.215664
F81	F	-1.017902	-1.422216	0.884106
F82	F	-0.517902	-0.922216	1.384106
H83	H	-0.505586	-1.096732	0.652488
H84	H	-0.005586	-0.596732	1.152488
H85	H	-1.189244	-1.474206	0.832346
H86	H	-0.689244	-0.974206	1.332346
F87	F	-1.181119	-1.642889	0.663892
F88	F	-0.681119	-1.142889	1.163892
H89	H	-0.541431	-1.608046	1.381276
H90	H	-0.041431	-1.108046	1.881276
H91	H	-0.505534	-1.654440	1.210775
H92	H	-0.005534	-1.154440	1.710775
F93	F	-0.674081	-1.436687	1.153547
F94	F	-0.174081	-0.936687	1.653547
