data_functionalizedCrystal
_audit_creation_method	'MofGen! by Chris Wilmer'
_symmetry_space_group_name_H-M	'P1'
_symmetry_Int_Tables_number	1
_symmetry_cell_setting	triclinic
loop_
_symmetry_equiv_pos_as_xyz
  x,y,z
_cell_length_a	10.967926
_cell_length_b	23.532407
_cell_length_c	10.065875
_cell_angle_alpha	98.729142
_cell_angle_beta	93.120479
_cell_angle_gamma	83.801774
loop_
_atom_site_label
_atom_site_type_symbol
_atom_site_fract_x
_atom_site_fract_y
_atom_site_fract_z
O1	O	1.611707	0.099284	0.265551
O2	O	1.261644	0.100910	0.183215
O3	O	1.447228	0.017420	0.226890
O4	O	1.426123	0.182774	0.221876
O5	O	1.411839	0.033407	0.445550
O6	O	1.226255	0.116897	0.401875
O7	O	1.576318	0.115271	0.484211
Zn8	Zn	1.395668	0.118623	0.477760
Zn9	Zn	1.442294	0.097559	0.189666
O10	O	1.390734	0.198762	0.440536
C11	C	1.199172	0.107577	0.282014
C12	C	1.065749	0.103618	0.250633
C13	C	0.987932	0.110135	0.349916
C14	C	0.850031	0.106044	0.317485
C15	C	1.428995	0.004185	0.336097
C16	C	1.427377	-0.059070	0.335727
C17	C	1.527077	-0.455793	0.359102
C18	C	1.525577	-0.515230	0.358739
O19	O	1.617998	-0.549766	0.380426
N20	N	1.415245	-0.540496	0.332789
C21	C	1.306408	-0.506323	0.307188
O22	O	1.212425	-0.533272	0.285081
C23	C	1.307911	-0.446888	0.307542
C24	C	1.418248	-0.421624	0.333506
C25	C	1.637406	-0.430529	0.385063
C26	C	1.638905	-0.371096	0.385428
C27	C	1.530075	-0.336927	0.359833
C28	C	1.419747	-0.362191	0.333872
C29	C	1.199077	-0.412717	0.281932
C30	C	1.200589	-0.353279	0.282287
C31	C	1.310926	-0.328015	0.308251
C32	C	1.312417	-0.268590	0.308642
N33	N	1.422749	-0.243323	0.334591
C34	C	1.531578	-0.277492	0.360187
C35	C	1.303261	-0.631142	0.306444
C36	C	1.301756	-0.690575	0.306099
C37	C	1.520926	-0.699477	0.357648
C38	C	1.522428	-0.640042	0.358002
C39	C	1.413593	-0.605875	0.332394
C40	C	1.534718	-0.152678	0.360954
C41	C	1.536206	-0.093239	0.361322
C42	C	1.317038	-0.084342	0.309767
C43	C	1.315548	-0.143775	0.309405
C44	C	1.424398	-0.177943	0.334996
O45	O	1.220046	-0.234018	0.286961
O46	O	1.625549	-0.250536	0.382272
C47	C	1.638791	0.108604	0.385410
C48	C	1.772215	0.112562	0.416781
C49	C	1.408967	0.211996	0.331326
C50	C	1.410587	0.275251	0.331688
N51	N	1.363855	0.132998	0.674379
N52	N	1.474117	0.083179	-0.006951
C53	C	1.431218	0.102557	0.758011
C54	C	1.406743	0.113625	0.909419
H55	H	0.807678	0.121169	0.525798
H56	H	1.330942	0.147881	0.949901
H57	H	1.030279	0.095009	0.141625
H58	H	1.288059	0.167252	0.714868
H59	H	1.549909	0.048918	0.952565
H60	H	1.626059	-0.072672	0.382470
H61	H	1.023402	0.118741	0.458924
H62	H	1.623355	-0.180491	0.381787
H63	H	0.814568	0.097434	0.208469
H64	H	1.609541	-0.727309	0.378484
H65	H	1.728753	-0.350532	0.406566
H66	H	1.726034	-0.458343	0.405902
H67	H	1.612275	-0.619477	0.379143
H68	H	1.225696	-0.164344	0.288299
H69	H	1.211905	-0.711138	0.284979
H70	H	1.214627	-0.603325	0.285601
H71	H	1.109230	-0.433277	0.260781
H72	H	1.111960	-0.325463	0.261431
H73	H	1.507006	0.068298	0.717523
H74	H	1.228432	-0.056511	0.288933
