data_functionalizedCrystal
_audit_creation_method	'MofGen! by Chris Wilmer'
_symmetry_space_group_name_H-M	'P1'
_symmetry_Int_Tables_number	1
_symmetry_cell_setting	triclinic
loop_
_symmetry_equiv_pos_as_xyz
  x,y,z
_cell_length_a	10.686285
_cell_length_b	10.685904
_cell_length_c	10.686551
_cell_angle_alpha	98.408451
_cell_angle_beta	99.084519
_cell_angle_gamma	89.665902
loop_
_atom_site_label
_atom_site_type_symbol
_atom_site_fract_x
_atom_site_fract_y
_atom_site_fract_z
Zn1	Zn	-0.282812	2.015996	0.846610
Zn2	Zn	0.217188	2.515996	1.346610
Zn3	Zn	-0.511401	2.015894	0.618099
Zn4	Zn	-0.011401	2.515894	1.118099
Zn5	Zn	-0.317932	1.789929	0.615577
Zn6	Zn	0.182068	2.289929	1.115577
Zn7	Zn	-0.511279	1.820008	0.814017
Zn8	Zn	-0.011279	2.320008	1.314017
O9	O	-0.405856	1.910457	0.723576
O10	O	0.094144	2.410457	1.223576
O11	O	-0.298488	2.192572	0.830993
O12	O	0.201512	2.692572	1.330993
O13	O	-0.500485	1.973289	0.439084
O14	O	-0.000485	2.473289	0.939084
O15	O	-0.136692	1.807372	0.658809
O16	O	0.363308	2.307372	1.158809
O17	O	-0.466431	2.192497	0.663107
O18	O	0.033569	2.692497	1.163107
O19	O	-0.110890	1.973462	0.828548
O20	O	0.389110	2.473462	1.328548
O21	O	-0.358345	1.807273	0.437231
O22	O	0.141655	2.307273	0.937231
O23	O	-0.358227	1.617330	0.627205
O24	O	0.141773	2.117330	1.127205
O25	O	-0.466223	1.858637	0.997021
O26	O	0.033777	2.358637	1.497021
O27	O	-0.500278	1.639428	0.772998
O28	O	-0.000278	2.139428	1.272998
O29	O	-0.298370	2.002629	1.020967
O30	O	0.201630	2.502629	1.520967
O31	O	-0.687966	2.002455	0.631503
O32	O	-0.187966	2.502455	1.131503
O33	O	-0.687876	1.858538	0.775444
O34	O	-0.187876	2.358538	1.275444
C35	C	-0.433051	1.582592	0.696292
C36	C	0.066949	2.082592	1.196292
C37	C	-0.444713	1.442334	0.684648
C38	C	0.055287	1.942334	1.184648
C39	C	-0.733701	1.933785	0.700241
C40	C	-0.233701	2.433785	1.200241
C41	C	-0.873942	1.943884	0.690311
C42	C	-0.373942	2.443884	1.190311
C43	C	-0.076725	1.887073	0.747033
C44	C	0.423275	2.387073	1.247033
C45	C	0.063531	1.877109	0.757029
C46	C	0.563531	2.377109	1.257029
C47	C	-0.378365	1.933999	1.056619
C48	C	0.121635	2.433999	1.556619
C49	C	-0.366651	1.944032	1.198543
C50	C	0.133349	2.444032	1.698543
C51	C	-0.378556	2.239602	0.750967
C52	C	0.121444	2.739602	1.250967
C53	C	-0.366922	2.379864	0.762639
C54	C	0.133078	2.879864	1.262639
C55	C	-0.433142	1.887072	0.391841
C56	C	0.066858	2.387072	0.891841
C57	C	-0.444481	1.877259	0.249964
C58	C	0.055519	2.377259	0.749964
H59	H	-0.291393	1.433689	0.838317
H60	H	0.208607	1.933689	1.338317
Br61	Br	-0.846878	1.768941	0.864900
Br62	Br	-0.346878	2.268941	1.364900
H63	H	-0.927705	2.008772	0.625578
H64	H	-0.427705	2.508772	1.125578
H65	H	-0.520081	1.812420	1.185412
H66	H	-0.020081	2.312420	1.685412
H67	H	-0.520229	1.388515	0.608968
H68	H	-0.020229	1.888515	1.108968
Br69	Br	-0.240652	2.052130	1.306134
Br70	Br	0.259348	2.552130	1.806134
