data_functionalizedCrystal
_audit_creation_method	'MofGen! by Chris Wilmer'
_symmetry_space_group_name_H-M	'P1'
_symmetry_Int_Tables_number	1
_symmetry_cell_setting	triclinic
loop_
_symmetry_equiv_pos_as_xyz
  x,y,z
_cell_length_a	6.817900
_cell_length_b	17.982783
_cell_length_c	16.015572
_cell_angle_alpha	78.159762
_cell_angle_beta	104.485554
_cell_angle_gamma	102.448572
loop_
_atom_site_label
_atom_site_type_symbol
_atom_site_fract_x
_atom_site_fract_y
_atom_site_fract_z
V1	V	-3.990105	-0.030701	-0.269497
O2	O	-3.983625	0.078252	-0.263999
O3	O	-3.936766	-0.134716	-0.268009
O4	O	-3.928047	0.003460	-0.386873
O5	O	-3.992405	-0.060880	-0.144312
V6	V	-4.476142	-0.021650	-0.254481
O7	O	-4.245847	-0.050556	-0.302437
O8	O	-4.670598	-0.001794	-0.221542
O9	O	-4.306275	0.082365	-0.255970
O10	O	-4.600019	-0.130603	-0.259980
O11	O	-4.591239	0.008529	-0.379667
O12	O	-4.314994	-0.055810	-0.137106
C13	C	-3.781008	-0.161125	-0.263849
C14	C	-3.818593	-0.245942	-0.263414
C15	C	-3.805786	-0.296833	-0.184124
C16	C	-3.841121	-0.376527	-0.183719
C17	C	-3.889248	-0.405328	-0.262604
C18	C	-3.902060	-0.354431	-0.341900
C19	C	-3.866740	-0.274739	-0.342305
C20	C	-4.044505	-0.675821	-0.340270
C21	C	-4.079819	-0.755520	-0.339858
C22	C	-4.018886	-0.777610	-0.181683
C23	C	-3.983566	-0.697917	-0.182088
C24	C	-3.996392	-0.647027	-0.261384
C25	C	-3.958082	-0.560614	-0.261823
C26	C	-3.927543	-0.491740	-0.262166
C27	C	-3.769884	0.015132	-0.415471
C28	C	-3.800395	0.042374	-0.511428
C29	C	-4.077549	-0.199424	-0.889883
C30	C	-4.106225	-0.173801	-0.980046
C31	C	-4.035531	-0.041239	-0.954888
C32	C	-4.006838	-0.066850	-0.864721
C33	C	-4.027854	-0.145944	-0.832227
C34	C	-3.957143	-0.013370	-0.807065
C35	C	-3.928464	-0.038980	-0.716906
C36	C	-3.949480	-0.118070	-0.684405
C37	C	-3.999175	-0.171553	-0.742069
C38	C	-3.936143	0.065723	-0.839561
C39	C	-3.886448	0.119203	-0.781905
C40	C	-3.857753	0.093593	-0.691744
C41	C	-3.878770	0.014503	-0.659243
C42	C	-3.808059	0.147077	-0.634080
C43	C	-3.779380	0.121467	-0.543922
C44	C	-3.850091	-0.011106	-0.569084
C45	C	-4.125375	0.108770	-0.260127
C46	C	-4.067028	0.193587	-0.260568
C47	C	-4.136499	-0.067486	-0.108503
C48	C	-4.085227	-0.094725	-0.012545
H49	H	-3.926132	-0.138920	-0.610992
H50	H	-4.016260	-0.235958	-0.715610
H51	H	-3.944370	-0.674472	-0.117851
N52	N	-3.753848	-0.265782	-0.099032
H53	H	-3.870045	-0.286303	-0.067320
H54	H	-3.733356	-0.207577	-0.111379
N55	N	-4.100166	-0.284731	-0.854824
H56	H	-4.135985	-0.314728	-0.905029
H57	H	-4.213176	-0.300006	-0.820956
N58	N	-4.012860	0.044066	-0.989933
H59	H	-4.146549	0.055896	-1.029771
H60	H	-3.899740	0.059344	-1.023742
N61	N	-4.159834	-0.231487	-1.042236
H62	H	-4.168794	-0.285476	-1.007966
H63	H	-4.049901	-0.221996	-1.077198
H64	H	-3.959466	0.086572	-0.912974
H65	H	-3.877190	-0.233303	-0.406872
H66	H	-3.869350	0.183601	-0.808375
N67	N	-3.785424	0.232380	-0.669133
H68	H	-3.811144	0.240488	-0.734998
H69	H	-3.641600	0.258609	-0.644893
N70	N	-3.725790	0.179145	-0.481728
H71	H	-3.716824	0.233135	-0.515993
H72	H	-3.588981	0.173160	-0.440778
H73	H	-4.008454	-0.819055	-0.117116
N74	N	-3.827317	-0.431418	-0.098199
H75	H	-3.791459	-0.401079	-0.048287
H76	H	-3.717272	-0.463143	-0.091649
H77	H	-4.119010	-0.778966	-0.404100
H78	H	-4.054925	-0.634395	-0.404837
H79	H	-3.867176	-0.075511	-0.542625
N80	N	-3.954024	-0.385491	-0.426987
H81	H	-3.974465	-0.443699	-0.414701
H82	H	-3.837798	-0.364917	-0.458671
