data_functionalizedCrystal
_audit_creation_method	'MofGen! by Chris Wilmer'
_symmetry_space_group_name_H-M	'P1'
_symmetry_Int_Tables_number	1
_symmetry_cell_setting	triclinic
loop_
_symmetry_equiv_pos_as_xyz
  x,y,z
_cell_length_a	13.032831
_cell_length_b	10.686139
_cell_length_c	10.686551
_cell_angle_alpha	81.590069
_cell_angle_beta	77.928676
_cell_angle_gamma	86.623465
loop_
_atom_site_label
_atom_site_type_symbol
_atom_site_fract_x
_atom_site_fract_y
_atom_site_fract_z
Zn1	Zn	1.612369	-0.680195	-0.908231
Zn2	Zn	1.583245	-0.904628	-0.675575
Zn3	Zn	1.423072	-0.669545	-0.669078
Zn4	Zn	1.423102	-0.865399	-0.865010
O5	O	1.510447	-0.779942	-0.779474
O6	O	1.754748	-0.730842	-0.898176
O7	O	1.549797	-0.885404	-0.495348
O8	O	1.460360	-0.495066	-0.716171
O9	O	1.733350	-0.895731	-0.727245
O10	O	1.599435	-0.502891	-0.891876
O11	O	1.432119	-0.712690	-0.490574
O12	O	1.276834	-0.674651	-0.674261
O13	O	1.460409	-0.828871	-1.050110
O14	O	1.276856	-0.818544	-0.818212
O15	O	1.599463	-0.692803	-1.081864
O16	O	1.549825	-1.075316	-0.685336
O17	O	1.432168	-1.046495	-0.824513
C18	C	1.238926	-0.741186	-0.740842
C19	C	1.122768	-0.724634	-0.724343
C20	C	1.533188	-0.757649	-1.113795
C21	C	1.542879	-0.748149	-1.256262
C22	C	1.487870	-1.106514	-0.750971
C23	C	1.478310	-1.246234	-0.738834
C24	C	1.071003	-0.788581	-0.788084
C25	C	0.950948	-0.771475	-0.771034
C26	C	1.783028	-0.818850	-0.818257
C27	C	1.899186	-0.835431	-0.834784
C28	C	1.533143	-0.452097	-0.808119
C29	C	1.542814	-0.312389	-0.820327
C30	C	1.487861	-0.802066	-0.446470
C31	C	1.478397	-0.811241	-0.304063
H32	H	1.115566	-0.855987	-0.855284
H33	H	1.605507	-0.686868	-1.324338
O34	O	1.403796	-0.884550	-1.222921
C35	C	1.420146	-1.010928	-1.247864
H36	H	1.505673	-1.026752	-1.296074
H37	H	1.367056	-1.030676	-1.314609
C38	C	1.289145	-1.081489	-1.060610
C39	C	1.394193	-1.100927	-1.119813
H40	H	1.273131	-1.137006	-0.981625
H41	H	1.278126	-0.996345	-1.043807
H42	H	1.244916	-1.097944	-1.116245
H43	H	1.438420	-1.084456	-1.064186
H44	H	1.405218	-1.186070	-1.136604
H45	H	1.605435	-0.262138	-0.899450
H46	H	0.906390	-0.704055	-0.703840
O47	O	1.403650	-0.306048	-0.644291
C48	C	1.420002	-0.285858	-0.522554
H49	H	1.466515	-0.196412	-0.533848
H50	H	1.465743	-0.370265	-0.480647
C51	C	1.256114	-0.380469	-0.417054
C52	C	1.313234	-0.270603	-0.430925
H53	H	1.190256	-0.371065	-0.360530
H54	H	1.245099	-0.394076	-0.499070
H55	H	1.294243	-0.450797	-0.382137
H56	H	1.275111	-0.200280	-0.465857
H57	H	1.324241	-0.256984	-0.348912
O58	O	0.952306	-0.915707	-0.915144
C59	C	0.936282	-0.876168	-1.041563
H60	H	0.913594	-0.771065	-1.052722
H61	H	0.870625	-0.932431	-1.060142
C62	C	1.065985	-1.028044	-1.125778
C63	C	1.038128	-0.898952	-1.139487
H64	H	1.128806	-1.042102	-1.186184
H65	H	1.076778	-1.054686	-1.040607
H66	H	1.011262	-1.074914	-1.141259
H67	H	1.092844	-0.852086	-1.123990
H68	H	1.027346	-0.872302	-1.224658
O69	O	1.069552	-0.644402	-0.644007
C70	C	0.995815	-0.712439	-0.545983
H71	H	1.021390	-0.816627	-0.533931
H72	H	0.915528	-0.702483	-0.573555
C73	C	0.957765	-0.531502	-0.432748
C74	C	0.989181	-0.659466	-0.417937
H75	H	0.953668	-0.498824	-0.353764
H76	H	1.007439	-0.485662	-0.498790
H77	H	0.890861	-0.523223	-0.455728
H78	H	1.056089	-0.667743	-0.394973
H79	H	0.939517	-0.705307	-0.351888
