data_functionalizedCrystal
_audit_creation_method	'MofGen! by Chris Wilmer'
_symmetry_space_group_name_H-M	'P1'
_symmetry_Int_Tables_number	1
_symmetry_cell_setting	triclinic
loop_
_symmetry_equiv_pos_as_xyz
  x,y,z
_cell_length_a	18.101397
_cell_length_b	18.101398
_cell_length_c	14.908308
_cell_angle_alpha	93.282710
_cell_angle_beta	86.734538
_cell_angle_gamma	89.981658
loop_
_atom_site_label
_atom_site_type_symbol
_atom_site_fract_x
_atom_site_fract_y
_atom_site_fract_z
Zn1	Zn	-0.319002	-1.108015	0.509975
Zn2	Zn	-0.435709	-1.115084	0.359116
Zn3	Zn	-0.311884	-0.991321	0.359145
Zn4	Zn	-0.442802	-0.984151	0.509936
O5	O	-0.377349	-1.049643	0.434543
O6	O	-0.334494	-1.212586	0.489966
O7	O	-0.413335	-1.104625	0.232878
O8	O	-0.209196	-1.006843	0.379181
O9	O	-0.420238	-1.217779	0.379131
O10	O	-0.214426	-1.092578	0.489995
O11	O	-0.322362	-1.013697	0.232899
O12	O	-0.329240	-0.886737	0.379144
O13	O	-0.432327	-0.994623	0.636183
O14	O	-0.425424	-0.881470	0.489930
O15	O	-0.341372	-1.085626	0.636211
O16	O	-0.540281	-1.097673	0.379094
O17	O	-0.545492	-1.001477	0.489902
C18	C	-0.377330	-0.857233	0.434537
C19	C	-0.377340	-0.774918	0.434555
C20	C	-0.377355	-0.624209	0.434554
C21	C	-0.437955	-0.589571	0.504149
C22	C	-0.438178	-0.503963	0.503943
C23	C	-0.377370	-0.475827	0.434554
C24	C	-0.393691	-0.511394	0.339364
C25	C	-0.394117	-0.597020	0.339767
C26	C	-0.300253	-0.591499	0.459316
C27	C	-0.300782	-0.505750	0.461413
C28	C	-0.377377	-0.391968	0.434548
C29	C	-0.377350	-0.708069	0.434553
C30	C	-0.569758	-1.049583	0.434510
C31	C	-0.652073	-1.049624	0.434526
C32	C	-0.802783	-1.049668	0.434557
C33	C	-0.830830	-1.110245	0.364908
C34	C	-0.916436	-1.110114	0.364651
C35	C	-0.951167	-1.049712	0.434587
C36	C	-0.918937	-0.972822	0.409005
C37	C	-0.833268	-0.973152	0.408482
C38	C	-0.838794	-1.065299	0.529970
C39	C	-0.924420	-1.067071	0.529479
C40	C	-1.035027	-1.049732	0.434606
C41	C	-0.718922	-1.049643	0.434536
C42	C	-0.184190	-1.049722	0.434595
C43	C	-0.101877	-1.049755	0.434618
C44	C	-0.388435	-1.038536	0.669846
C45	C	-0.393159	-1.033803	0.770118
C46	C	-0.377371	-0.242804	0.434550
C47	C	-0.377385	-0.325118	0.434552
C48	C	-0.366253	-1.060749	0.200156
C49	C	-0.361320	-1.065625	0.099884
C50	C	-0.307307	-1.119668	0.958570
C51	C	-0.311743	-1.115224	1.052785
C52	C	-0.406463	-1.020466	1.052763
C53	C	-0.402027	-1.024911	0.958548
C54	C	-0.352448	-1.074514	0.911455
C55	C	-0.348016	-1.078962	0.817239
C56	C	-0.442731	-0.984202	0.817219
C57	C	-0.447168	-0.979757	0.911433
H58	H	-0.350710	-0.493564	0.286086
Br59	Br	-0.473735	-0.953145	1.116690
Br60	Br	-0.964376	-0.998346	0.620594
H61	H	-0.941619	-0.926666	0.458184
Br62	Br	-0.323318	-0.635815	0.250349
Br63	Br	-0.533569	-0.471066	0.476591
H64	H	-0.255162	-0.614169	0.408632
H65	H	-0.479490	-0.947436	0.778848
H66	H	-0.937177	-0.958755	0.340041
H67	H	-0.450333	-0.617965	0.318838
Br68	Br	-0.486318	-0.477290	0.303878
H69	H	-0.933631	-1.100122	0.293963
H70	H	-0.266942	-1.160061	0.920226
Br71	Br	-0.222152	-0.473798	0.383164
Br72	Br	-0.514447	-0.912439	0.975353
H73	H	-0.428527	-0.479622	0.574513
H74	H	-0.428465	-0.606835	0.574938
Br75	Br	-0.804560	-1.156752	0.568826
Br76	Br	-0.797675	-1.205799	0.391222
H77	H	-0.274983	-1.151991	1.091142
H78	H	-0.284455	-0.609888	0.527559
H79	H	-0.938162	-1.167265	0.380630
Br80	Br	-0.532801	-0.626688	0.477108
Br81	Br	-0.959732	-1.161340	0.561650
Br82	Br	-0.789500	-1.093813	0.247742
H83	H	-0.810045	-0.959404	0.338744
Br84	Br	-0.280119	-0.466393	0.578176
H85	H	-0.814833	-0.926713	0.457019
Br86	Br	-0.809086	-0.991686	0.616465
Br87	Br	-0.280736	-1.146284	0.753327
