data_functionalizedCrystal
_audit_creation_method	'MofGen! by Chris Wilmer'
_symmetry_space_group_name_H-M	'P1'
_symmetry_Int_Tables_number	1
_symmetry_cell_setting	triclinic
loop_
_symmetry_equiv_pos_as_xyz
  x,y,z
_cell_length_a	29.839133
_cell_length_b	12.759401
_cell_length_c	12.759393
_cell_angle_alpha	89.979434
_cell_angle_beta	90.026520
_cell_angle_gamma	89.972190
loop_
_atom_site_label
_atom_site_type_symbol
_atom_site_fract_x
_atom_site_fract_y
_atom_site_fract_z
Zn1	Zn	-0.178853	-1.606158	0.594039
Zn2	Zn	-0.253990	-1.606003	0.418371
Zn3	Zn	-0.178873	-1.430456	0.418375
Zn4	Zn	-0.253954	-1.430402	0.594009
O5	O	-0.216418	-1.518255	0.506198
O6	O	-0.188827	-1.753158	0.570747
O7	O	-0.244049	-1.582674	0.271350
O8	O	-0.116003	-1.453851	0.441691
O9	O	-0.244030	-1.753044	0.441684
O10	O	-0.115989	-1.582938	0.570750
O11	O	-0.188860	-1.453701	0.271353
O12	O	-0.188826	-1.283428	0.441663
O13	O	-0.243969	-1.453759	0.741034
O14	O	-0.243988	-1.283389	0.570700
O15	O	-0.188792	-1.582885	0.741056
O16	O	-0.316852	-1.582622	0.441656
O17	O	-0.316826	-1.453609	0.570697
C18	C	-0.216405	-1.245287	0.506179
C19	C	-0.216411	-1.128511	0.506196
C20	C	-0.187718	-1.073709	0.573502
C21	C	-0.187720	-0.963985	0.573507
C22	C	-0.245113	-0.963875	0.438898
C23	C	-0.245108	-1.073597	0.438888
C24	C	-0.333140	-1.518121	0.506195
C25	C	-0.383074	-1.518160	0.506229
C26	C	-0.739619	-1.585509	0.573477
C27	C	-0.551946	-1.585410	0.573475
O28	O	-0.527645	-1.642536	0.630636
N29	N	-0.528520	-1.518243	0.506227
C30	C	-0.552014	-1.451102	0.438969
O31	O	-0.527782	-1.393979	0.381762
C32	C	-0.739686	-1.451208	0.438966
C33	C	-0.763111	-1.518371	0.506226
C34	C	-0.763043	-1.652667	0.640731
C35	C	-0.809959	-1.652687	0.640735
C36	C	-0.833450	-1.585549	0.573484
C37	C	-0.810026	-1.518391	0.506230
C38	C	-0.763180	-1.384073	0.371703
C39	C	-0.810101	-1.384107	0.371706
C40	C	-0.833525	-1.451270	0.438967
C41	C	-0.880433	-1.451273	0.438983
N42	N	-0.903859	-1.518439	0.506232
C43	C	-0.880368	-1.585577	0.573482
C44	C	-0.453484	-1.451050	0.438977
C45	C	-0.406566	-1.451022	0.438979
C46	C	-0.406501	-1.585331	0.573484
C47	C	-0.453420	-1.585353	0.573487
C48	C	-0.476910	-1.518216	0.506225
C49	C	-0.978894	-1.585614	0.573485
C50	C	-1.025813	-1.585625	0.573486
C51	C	-1.025874	-1.451320	0.438977
C52	C	-0.978959	-1.451305	0.438980
C53	C	-0.955470	-1.518460	0.506237
O54	O	-0.904762	-1.394185	0.381844
O55	O	-0.904608	-1.642709	0.630664
C56	C	-0.692704	-1.585489	0.573473
C57	C	-0.669280	-1.518331	0.506219
C58	C	-0.692771	-1.451192	0.438968
C59	C	-0.622362	-1.518303	0.506221
C60	C	-0.598870	-1.585441	0.573471
C61	C	-0.622297	-1.652607	0.640720
C62	C	-0.669212	-1.652627	0.640724
C63	C	-0.669344	-1.384026	0.371720
C64	C	-0.622429	-1.384011	0.371722
C65	C	-0.598938	-1.451149	0.438973
C66	C	-0.099239	-1.518417	0.506224
C67	C	-0.049305	-1.518487	0.506236
C68	C	-0.216374	-1.518333	0.780232
C69	C	-0.216356	-1.518367	0.897009
C70	C	-0.216426	-0.792288	0.506214
C71	C	-0.216419	-0.909065	0.506211
C72	C	-0.216428	-1.518237	0.233231
C73	C	-0.216320	-1.518407	0.116455
C74	C	-0.187621	-1.585608	0.951884
C75	C	-0.187602	-1.585626	1.061608
C76	C	-0.245056	-1.451158	1.061572
C77	C	-0.245073	-1.451136	0.951850
H78	H	-1.044883	-1.640315	0.628264
H79	H	-0.164236	-1.640349	0.907235
H80	H	-0.164355	-0.919369	0.628312
H81	H	-0.268438	-1.396424	1.106238
H82	H	-0.268478	-0.919150	0.384100
H83	H	-0.164349	-1.118417	0.628305
H84	H	-0.164202	-1.640379	1.106282
H85	H	-0.268472	-1.396373	0.907170
H86	H	-0.268474	-1.118218	0.384075
H87	H	-0.959774	-1.640299	0.628251
H88	H	-0.829027	-1.707386	0.695497
H89	H	-1.045009	-1.396656	0.384226
H90	H	-0.743921	-1.707344	0.695494
H91	H	-0.688280	-1.707317	0.695495
H92	H	-0.829225	-1.329436	0.316931
H93	H	-0.472488	-1.640038	0.628261
H94	H	-0.387366	-1.639996	0.628244
H95	H	-0.387497	-1.396321	0.384221
H96	H	-0.744115	-1.329383	0.316933
H97	H	-0.472605	-1.396376	0.384201
H98	H	-0.603163	-1.707270	0.695482
H99	H	-0.959886	-1.396604	0.384221
H100	H	-0.688466	-1.329355	0.316953
H101	H	-0.603360	-1.329309	0.316953
