data_functionalizedCrystal
_audit_creation_method	'MofGen! by Chris Wilmer'
_symmetry_space_group_name_H-M	'P1'
_symmetry_Int_Tables_number	1
_symmetry_cell_setting	triclinic
loop_
_symmetry_equiv_pos_as_xyz
  x,y,z
_cell_length_a	21.295419
_cell_length_b	18.050591
_cell_length_c	18.050591
_cell_angle_alpha	90.008268
_cell_angle_beta	90.008325
_cell_angle_gamma	90.001935
loop_
_atom_site_label
_atom_site_type_symbol
_atom_site_fract_x
_atom_site_fract_y
_atom_site_fract_z
Zn1	Zn	0.250826	1.135335	0.420100
Zn2	Zn	0.356054	1.135330	0.295939
Zn3	Zn	0.250796	1.011181	0.295911
Zn4	Zn	0.356054	1.011159	0.420074
O5	O	0.303432	1.073251	0.358006
O6	O	0.264797	1.239259	0.403652
O7	O	0.342080	1.118868	0.192010
O8	O	0.162710	1.027662	0.312384
O9	O	0.342108	1.239255	0.312431
O10	O	0.162732	1.118877	0.403625
O11	O	0.264746	1.027657	0.191990
O12	O	0.264746	0.907254	0.312359
O13	O	0.342107	1.027624	0.524002
O14	O	0.342078	0.907237	0.403581
O15	O	0.264796	1.118855	0.524021
O16	O	0.444144	1.118846	0.312406
O17	O	0.444143	1.027619	0.403608
C18	C	0.303409	0.880299	0.357965
C19	C	0.303414	0.797753	0.357965
C20	C	0.139242	1.073273	0.358004
C21	C	0.069274	1.073282	0.358004
C22	C	0.261312	0.598290	0.308473
C23	C	0.318722	0.548905	0.290212
C24	C	0.303433	0.646623	0.357998
C25	C	0.246043	0.548926	0.376257
C26	C	0.303447	0.500638	0.358029
C27	C	0.360873	0.598325	0.339703
C28	C	0.288156	0.598350	0.425779
C29	C	0.345605	0.548988	0.407544
C30	C	0.303425	0.730721	0.357979
C31	C	0.303462	0.416541	0.358049
C32	C	0.036395	1.025800	0.310500
C33	C	-0.029348	1.025799	0.310509
C34	C	-0.062209	1.073294	0.358014
C35	C	-0.029322	1.120779	0.405526
C36	C	0.036420	1.120773	0.405521
N37	N	-0.165422	1.138309	0.363730
N38	N	-0.227873	1.138313	0.363730
C39	C	-0.260283	1.073312	0.358033
N40	N	-0.227883	1.008307	0.352320
N41	N	-0.165426	1.008305	0.352316
C42	C	-0.133494	1.073305	0.358025
C43	C	-0.364448	1.025825	0.310536
C44	C	-0.430192	1.025823	0.310550
C45	C	-0.430164	1.120809	0.405563
C46	C	-0.364422	1.120805	0.405553
C47	C	-0.331568	1.073314	0.358036
C48	C	0.466984	1.073250	0.358024
C49	C	0.536952	1.073317	0.358056
C50	C	0.303455	1.073237	0.551711
C51	C	0.303464	1.073232	0.634257
C52	C	0.303456	1.266957	0.358048
C53	C	0.303467	1.349503	0.358065
C54	C	0.345500	1.023614	0.833698
C55	C	0.360905	1.091366	0.883100
C56	C	0.303456	1.073235	0.785388
C57	C	0.288072	1.005487	0.883067
C58	C	0.303449	1.073232	0.931373
C59	C	0.318890	1.141023	0.833703
C60	C	0.246031	1.055098	0.833665
C61	C	0.261413	1.122898	0.883045
C62	C	0.303462	1.073236	0.701289
C63	C	0.303443	1.073239	1.015469
C64	C	0.303430	1.073252	1.165054
C65	C	0.303438	1.073236	1.082508
H66	H	0.225730	0.619938	0.266545
H67	H	0.225854	1.164908	0.904576
C68	C	0.270762	0.929139	0.912126
C69	C	0.270451	0.930317	0.989683
C70	C	0.254521	0.859995	1.016476
H71	H	0.230252	0.915845	0.894553
H72	H	0.300688	0.893930	0.895272
H73	H	0.240526	0.965513	1.006529
H74	H	0.310955	0.943597	1.007276
H75	H	0.284447	0.824787	0.999622
H76	H	0.214012	0.846708	0.998897
H77	H	0.254313	0.860783	1.069100
C78	C	0.181245	1.034714	0.804785
C79	C	0.137192	1.086034	0.830889
C80	C	0.077504	1.067265	0.804306
H81	H	0.181541	1.035325	0.752166
H82	H	0.170339	0.986557	0.821678
H83	H	0.148095	1.134178	0.813992
H84	H	0.136876	1.085430	0.883505
H85	H	0.066598	1.019108	0.821199
H86	H	0.077807	1.067876	0.751688
H87	H	0.047605	1.102078	0.822019
H88	H	-0.456919	1.159477	0.444245
C89	C	0.335845	0.519980	0.213749
C90	C	0.291583	0.544939	0.162103
C91	C	0.307327	0.518303	0.091659
H92	H	0.376309	0.537604	0.200347
H93	H	0.336074	0.467352	0.214397
H94	H	0.291361	0.597556	0.161453
H95	H	0.251116	0.527317	0.175481
H96	H	0.307556	0.465674	0.092307
H97	H	0.347792	0.535928	0.078265
H98	H	0.277296	0.535227	0.056610
H99	H	0.381086	0.981704	0.812031
C100	C	0.425564	0.627275	0.319014
C101	C	0.424790	0.704836	0.319192
C102	C	0.484367	0.731532	0.300126
H103	H	0.455565	0.610079	0.353956
H104	H	0.436496	0.609976	0.271007
H105	H	0.413866	0.722128	0.367192
H106	H	0.394802	0.722052	0.284249
H107	H	0.495299	0.714232	0.252119
H108	H	0.514363	0.714330	0.335070
H109	H	0.483849	0.784159	0.300237
C110	C	0.071951	0.974152	0.258889
C111	C	0.029080	0.932555	0.217303
C112	C	0.061812	0.884962	0.169760
H113	H	0.097597	1.002477	0.226470
H114	H	0.097584	0.941748	0.287273
H115	H	0.003458	0.964955	0.188922
H116	H	0.003432	0.904215	0.249703
H117	H	0.087445	0.852557	0.198144
H118	H	0.087457	0.913292	0.137346
H119	H	0.032730	0.856727	0.141543
H120	H	0.063190	1.159439	0.444207
H121	H	-0.056123	0.987132	0.271825
C122	C	-0.466005	0.974294	0.259054
C123	C	-0.530611	0.984444	0.269244
C124	C	-0.563623	0.936981	0.221826
H125	H	-0.455318	0.985122	0.209128
H126	H	-0.455267	0.924377	0.269915
H127	H	-0.541345	1.034349	0.258379
H128	H	-0.541317	0.973611	0.319161
H129	H	-0.552885	0.887065	0.232686
H130	H	-0.552930	0.947813	0.171902
H131	H	-0.607461	0.943857	0.228738
C132	C	0.336438	1.217384	0.804877
C133	C	0.390905	1.212122	0.761761
C134	C	0.407095	1.282449	0.735202
H135	H	0.303098	1.236333	0.775496
H136	H	0.343824	1.249710	0.845495
H137	H	0.383515	1.179807	0.721149
H138	H	0.424256	1.193186	0.791126
H139	H	0.414482	1.314775	0.775820
H140	H	0.373752	1.301392	0.705824
H141	H	0.444056	1.278888	0.705951
H142	H	0.381273	0.527476	0.449440
C143	C	-0.328691	0.974218	0.259075
C144	C	-0.290929	0.926628	0.301111
C145	C	-0.257976	0.879084	0.253730
H146	H	-0.357617	0.945862	0.230770
H147	H	-0.303014	1.002608	0.226732
H148	H	-0.316603	0.898240	0.333441
H149	H	-0.261991	0.954963	0.329414
H150	H	-0.232300	0.907475	0.221387
H151	H	-0.286907	0.850734	0.225428
H152	H	-0.232347	0.846794	0.282244
C153	C	0.270763	0.627299	0.502144
C154	C	0.210596	0.602328	0.520959
C155	C	0.194542	0.628990	0.591295
H156	H	0.300212	0.609701	0.537537
H157	H	0.271228	0.679927	0.501694
H158	H	0.210135	0.549711	0.521414
H159	H	0.181134	0.619924	0.485584
H160	H	0.195007	0.681619	0.590846
H161	H	0.223994	0.611391	0.626683
H162	H	0.153715	0.612058	0.604068
H163	H	0.197510	0.527189	0.391661
H164	H	-0.056080	1.159448	0.444206
H165	H	0.409465	1.106711	0.904814
C166	C	-0.328834	1.172449	0.457148
C167	C	-0.371680	1.214059	0.498739
C168	C	-0.338920	1.261650	0.546272
H169	H	-0.303180	1.144122	0.489565
H170	H	-0.303206	1.204846	0.428757
H171	H	-0.397297	1.181666	0.527128
H172	H	-0.397335	1.242401	0.466342
H173	H	-0.313292	1.294047	0.517880
H174	H	-0.313268	1.233317	0.578683
H175	H	-0.367986	1.289892	0.574492
