data_functionalizedCrystal
_audit_creation_method	'MofGen! by Chris Wilmer'
_symmetry_space_group_name_H-M	'P1'
_symmetry_Int_Tables_number	1
_symmetry_cell_setting	triclinic
loop_
_symmetry_equiv_pos_as_xyz
  x,y,z
_cell_length_a	18.050591
_cell_length_b	29.839131
_cell_length_c	18.050583
_cell_angle_alpha	90.035362
_cell_angle_beta	90.013856
_cell_angle_gamma	90.040261
loop_
_atom_site_label
_atom_site_type_symbol
_atom_site_fract_x
_atom_site_fract_y
_atom_site_fract_z
Zn1	Zn	1.135249	-0.178852	0.419811
Zn2	Zn	1.635249	0.321148	0.919811
Zn3	Zn	1.135124	-0.253987	0.295614
Zn4	Zn	1.635124	0.246013	0.795614
Zn5	Zn	1.011061	-0.178870	0.295644
Zn6	Zn	1.511061	0.321130	0.795644
Zn7	Zn	1.010987	-0.253954	0.419772
Zn8	Zn	1.510987	0.246046	0.919772
O9	O	1.073105	-0.216416	0.357711
O10	O	1.573105	0.283584	0.857711
O11	O	1.239157	-0.188825	0.403339
O12	O	1.739157	0.311175	0.903339
O13	O	1.118645	-0.244044	0.191694
O14	O	1.618645	0.255956	0.691694
O15	O	1.027618	-0.116001	0.312144
O16	O	1.527618	0.383999	0.812144
O17	O	1.239065	-0.244026	0.312093
O18	O	1.739065	0.255974	0.812093
O19	O	1.118858	-0.115987	0.403368
O20	O	1.618858	0.384013	0.903368
O21	O	1.027496	-0.188856	0.191716
O22	O	1.527496	0.311144	0.691716
O23	O	0.907126	-0.188824	0.312107
O24	O	1.407126	0.311176	0.812107
O25	O	1.027492	-0.243970	0.523702
O26	O	1.527492	0.256030	1.023702
O27	O	0.907072	-0.243988	0.403303
O28	O	1.407072	0.256012	0.903303
O29	O	1.118787	-0.188793	0.523730
O30	O	1.618787	0.311207	1.023730
O31	O	1.118574	-0.316850	0.312056
O32	O	1.618574	0.183150	0.812056
O33	O	1.027371	-0.316826	0.403274
O34	O	1.527371	0.183174	0.903274
C35	C	0.880153	-0.216405	0.357704
C36	C	1.380153	0.283595	0.857704
C37	C	0.797607	-0.216411	0.357719
C38	C	1.297607	0.283589	0.857719
C39	C	1.072971	-0.333139	0.357674
C40	C	1.572971	0.166861	0.857674
C41	C	1.072981	-0.383073	0.357683
C42	C	1.572981	0.116927	0.857683
C43	C	0.548774	-0.246471	0.407244
C44	C	1.048774	0.253529	0.907244
C45	C	0.598136	-0.257410	0.339458
C46	C	1.098136	0.242590	0.839458
C47	C	0.500487	-0.216425	0.357718
C48	C	1.000487	0.283575	0.857718
C49	C	0.598206	-0.205501	0.425502
C50	C	1.098206	0.294499	0.925502
C51	C	0.646472	-0.216419	0.357722
C52	C	1.146472	0.283581	0.857722
C53	C	0.548761	-0.227385	0.289895
C54	C	1.048761	0.272615	0.789895
C55	C	0.548828	-0.175457	0.375985
C56	C	1.048828	0.324543	0.875985
C57	C	0.598168	-0.186380	0.308151
C58	C	1.098168	0.313620	0.808151
C59	C	0.416388	-0.216430	0.357717
C60	C	0.916388	0.283570	0.857717
C61	C	0.730568	-0.216415	0.357716
C62	C	1.230568	0.283585	0.857716
C63	C	1.120680	-0.692716	0.310283
C64	C	1.620680	-0.192716	0.810283
C65	C	1.120772	-0.880389	0.310311
C66	C	1.620772	-0.380389	0.810311
O67	O	1.161221	-0.904654	0.269982
O68	O	1.661221	-0.404654	0.769982
N69	N	1.073259	-0.903858	0.357767
N70	N	1.573259	-0.403858	0.857767
C71	C	1.025723	-0.880405	0.405221
C72	C	1.525723	-0.380405	0.905221
O73	O	0.985318	-0.904673	0.445591
O74	O	1.485318	-0.404673	0.945591
C75	C	1.025636	-0.692733	0.405196
C76	C	1.525636	-0.192733	0.905196
C77	C	1.073147	-0.669267	0.357732
C78	C	1.573147	-0.169267	0.857732
C79	C	1.168188	-0.669250	0.262823
C80	C	1.668188	-0.169250	0.762823
C81	C	1.168162	-0.622335	0.262814
C82	C	1.668162	-0.122335	0.762814
C83	C	1.120628	-0.598885	0.310263
C84	C	1.620628	-0.098885	0.810263
C85	C	1.073120	-0.622352	0.357723
C86	C	1.573120	-0.122352	0.857723
C87	C	0.978104	-0.669282	0.452654
C88	C	1.478104	-0.169282	0.952654
C89	C	0.978088	-0.622361	0.452644
C90	C	1.478088	-0.122361	0.952644
C91	C	1.025599	-0.598894	0.405181
C92	C	1.525599	-0.098894	0.905181
C93	C	1.025560	-0.551987	0.405163
C94	C	1.525560	-0.051987	0.905163
N95	N	1.073073	-0.528518	0.357707
N96	N	1.573073	-0.028518	0.857707
C97	C	1.120607	-0.551968	0.310258
C98	C	1.620607	-0.051968	0.810258
C99	C	1.025771	-0.978936	0.405230
C100	C	1.525771	-0.478936	0.905230
C101	C	1.025792	-1.025854	0.405236
C102	C	1.525792	-0.525854	0.905236
C103	C	1.120842	-1.025835	0.310327
C104	C	1.620842	-0.525835	0.810327
C105	C	1.120817	-0.978916	0.310318
C106	C	1.620817	-0.478916	0.810318
C107	C	1.073284	-0.955467	0.357775
C108	C	1.573284	-0.455467	0.857775
C109	C	1.120548	-0.453442	0.310241
C110	C	1.620548	0.046558	0.810241
C111	C	1.120515	-0.406522	0.310233
C112	C	1.620515	0.093478	0.810233
C113	C	1.025468	-0.406546	0.405145
C114	C	1.525468	0.093454	0.905145
C115	C	1.025498	-0.453461	0.405150
C116	C	1.525498	0.046539	0.905150
C117	C	1.073044	-0.476908	0.357695
C118	C	1.573044	0.023092	0.857695
O119	O	0.985138	-0.527693	0.445477
O120	O	1.485138	-0.027693	0.945477
O121	O	1.161018	-0.527692	0.269906
O122	O	1.661018	-0.027692	0.769906
C123	C	1.120707	-0.739632	0.310292
C124	C	1.620707	-0.239632	0.810292
C125	C	1.073199	-0.763098	0.357751
C126	C	1.573199	-0.263098	0.857751
C127	C	1.025665	-0.739649	0.405201
C128	C	1.525665	-0.239649	0.905201
C129	C	1.073220	-0.810016	0.357757
C130	C	1.573220	-0.310016	0.857757
C131	C	1.120754	-0.833465	0.310307
C132	C	1.620754	-0.333465	0.810307
C133	C	1.168267	-0.809996	0.262852
C134	C	1.668267	-0.309996	0.762852
C135	C	1.168241	-0.763081	0.262843
C136	C	1.668241	-0.263081	0.762843
C137	C	0.978152	-0.763117	0.452656
C138	C	1.478152	-0.263117	0.952656
C139	C	0.978182	-0.810033	0.452661
C140	C	1.478182	-0.310033	0.952661
C141	C	1.025716	-0.833482	0.405212
C142	C	1.525716	-0.333482	0.905212
C143	C	1.266811	-0.216427	0.357717
C144	C	1.766811	0.283573	0.857717
C145	C	1.349356	-0.216432	0.357720
C146	C	1.849356	0.283568	0.857720
C147	C	1.073260	-0.099238	0.357764
C148	C	1.573260	0.400762	0.857764
C149	C	1.073326	-0.049303	0.357786
C150	C	1.573326	0.450697	0.857786
C151	C	1.073145	-0.216376	0.551416
C152	C	1.573145	0.283624	1.051416
C153	C	1.073163	-0.216359	0.633962
C154	C	1.573163	0.283641	1.133962
C155	C	1.073108	-0.216424	0.164758
C156	C	1.573108	0.283576	0.664758
C157	C	1.073234	-0.216314	0.082213
C158	C	1.573234	0.283686	0.582213
C159	C	1.122855	-0.186323	0.882803
C160	C	1.622855	0.313677	1.382803
C161	C	1.140961	-0.227315	0.833384
C162	C	1.640961	0.272685	1.333384
C163	C	1.073210	-0.216330	0.931083
C164	C	1.573210	0.283670	1.431083
C165	C	1.055116	-0.175354	0.833420
C166	C	1.555116	0.324646	1.333420
C167	C	1.073189	-0.216342	0.785097
C168	C	1.573189	0.283658	1.285097
C169	C	1.091352	-0.257344	0.882751
C170	C	1.591352	0.242656	1.382751
C171	C	1.005475	-0.205355	0.882791
C172	C	1.505475	0.294645	1.382791
C173	C	1.023555	-0.246376	0.833394
C174	C	1.523555	0.253624	1.333394
C175	C	1.073225	-0.216323	1.015181
C176	C	1.573225	0.283677	1.515181
C177	C	1.073174	-0.216354	0.701001
C178	C	1.573174	0.283646	1.201001
H179	H	0.527086	-0.271902	0.449073
H180	H	1.027086	0.228098	0.949073
H181	H	1.039821	-0.140697	0.811748
H182	H	1.539821	0.359303	1.311748
H183	H	1.206929	-0.743978	0.224193
H184	H	1.706929	-0.243978	0.724193
H185	H	1.206969	-0.829097	0.224215
H186	H	1.706969	-0.329097	0.724215
H187	H	0.986813	-0.472568	0.443801
H188	H	1.486813	0.027432	0.943801
H189	H	0.619795	-0.292054	0.324003
H190	H	1.119795	0.207946	0.824003
H191	H	0.527134	-0.236665	0.232558
H192	H	1.027134	0.263335	0.732558
H193	H	0.986764	-0.387446	0.443776
H194	H	1.486764	0.112554	0.943776
H195	H	1.206851	-0.603231	0.224167
H196	H	1.706851	-0.103231	0.724167
H197	H	0.981564	-0.271786	0.811837
H198	H	1.481564	0.228214	1.311837
H199	H	0.619718	-0.160969	0.266222
H200	H	1.119718	0.339031	0.766222
H201	H	1.198234	-0.236605	0.811680
H202	H	1.698234	0.263395	1.311680
H203	H	0.527152	-0.140823	0.391459
H204	H	1.027152	0.359177	0.891459
H205	H	0.619925	-0.196263	0.482824
H206	H	1.119925	0.303737	0.982824
H207	H	0.948219	-0.196052	0.904510
H208	H	1.448219	0.303948	1.404510
H209	H	1.159204	-0.387417	0.271580
H210	H	1.659204	0.112583	0.771580
H211	H	1.164879	-0.160973	0.904496
H212	H	1.664879	0.339027	1.404496
H213	H	1.159266	-0.472527	0.271600
H214	H	1.659266	0.027473	0.771600
H215	H	1.206900	-0.688337	0.224184
H216	H	1.706900	-0.188337	0.724184
H217	H	1.106730	-0.292009	0.904330
H218	H	1.606730	0.207991	1.404330
H219	H	1.159505	-0.959812	0.271670
H220	H	1.659505	-0.459812	0.771670
H221	H	0.939445	-0.744029	0.491296
H222	H	1.439445	-0.244029	0.991296
H223	H	1.159546	-1.044935	0.271692
H224	H	1.659546	-0.544935	0.771692
H225	H	0.987097	-1.044956	0.443879
H226	H	1.487097	-0.544956	0.943879
H227	H	0.987062	-0.959848	0.443877
H228	H	1.487062	-0.459848	0.943877
H229	H	0.939412	-0.688380	0.491300
H230	H	1.439412	-0.188380	0.991300
H231	H	0.939486	-0.829135	0.491311
H232	H	1.439486	-0.329135	0.991311
H233	H	0.939382	-0.603271	0.491292
H234	H	1.439382	-0.103271	0.991292
