data_functionalizedCrystal
_audit_creation_method	'MofGen! by Chris Wilmer'
_symmetry_space_group_name_H-M	'P1'
_symmetry_Int_Tables_number	1
_symmetry_cell_setting	triclinic
loop_
_symmetry_equiv_pos_as_xyz
  x,y,z
_cell_length_a	19.077105
_cell_length_b	21.295418
_cell_length_c	19.076919
_cell_angle_alpha	92.268432
_cell_angle_beta	90.076224
_cell_angle_gamma	87.723635
loop_
_atom_site_label
_atom_site_type_symbol
_atom_site_fract_x
_atom_site_fract_y
_atom_site_fract_z
Zn1	Zn	1.058254	-0.304535	-0.440398
Zn2	Zn	1.308254	-0.054535	-0.190398
Zn3	Zn	1.558254	0.195465	0.059602
Zn4	Zn	1.808254	0.445465	0.309602
Zn5	Zn	1.062888	-0.405749	-0.322885
Zn6	Zn	1.312888	-0.155749	-0.072885
Zn7	Zn	1.562888	0.094251	0.177115
Zn8	Zn	1.812888	0.344251	0.427115
Zn9	Zn	0.945472	-0.296103	-0.318192
Zn10	Zn	1.195472	-0.046103	-0.068192
Zn11	Zn	1.445472	0.203897	0.181808
Zn12	Zn	1.695472	0.453897	0.431808
Zn13	Zn	0.940710	-0.405369	-0.435637
Zn14	Zn	1.190710	-0.155369	-0.185637
Zn15	Zn	1.440710	0.094631	0.064363
Zn16	Zn	1.690710	0.344631	0.314363
O17	O	1.001831	-0.352939	-0.379278
O18	O	1.251831	-0.102939	-0.129278
O19	O	1.501831	0.147061	0.120722
O20	O	1.751831	0.397061	0.370722
O21	O	1.157200	-0.321650	-0.428766
O22	O	1.407200	-0.071650	-0.178766
O23	O	1.657200	0.178350	0.071234
O24	O	1.907200	0.428350	0.321234
O25	O	1.051245	-0.387834	-0.223931
O26	O	1.301245	-0.137834	0.026069
O27	O	1.551245	0.112166	0.276069
O28	O	1.801245	0.362166	0.526069
O29	O	0.960486	-0.209135	-0.334431
O30	O	1.210486	0.040865	-0.084431
O31	O	1.460486	0.290865	0.165569
O32	O	1.710486	0.540865	0.415569
O33	O	1.160605	-0.396011	-0.342429
O34	O	1.410605	-0.146011	-0.092429
O35	O	1.660605	0.103989	0.157571
O36	O	1.910605	0.353989	0.407571
O37	O	1.043346	-0.215330	-0.424216
O38	O	1.293346	0.034670	-0.174216
O39	O	1.543346	0.284670	0.075784
O40	O	1.793346	0.534670	0.325784
O41	O	0.964980	-0.307277	-0.220483
O42	O	1.214980	-0.057277	0.029517
O43	O	1.464980	0.192723	0.279517
O44	O	1.714980	0.442723	0.529517
O45	O	0.846509	-0.306909	-0.329815
O46	O	1.096509	-0.056909	-0.079815
O47	O	1.346509	0.193091	0.170185
O48	O	1.596509	0.443091	0.420185
O49	O	0.952370	-0.395364	-0.534600
O50	O	1.202370	-0.145364	-0.284600
O51	O	1.452370	0.104636	-0.034600
O52	O	1.702370	0.354636	0.215400
O53	O	0.843010	-0.387187	-0.416101
O54	O	1.093010	-0.137187	-0.166101
O55	O	1.343010	0.112813	0.083899
O56	O	1.593010	0.362813	0.333899
O57	O	1.038729	-0.321282	-0.538097
O58	O	1.288729	-0.071282	-0.288097
O59	O	1.538729	0.178718	-0.038097
O60	O	1.788729	0.428718	0.211903
O61	O	1.046627	-0.493785	-0.337813
O62	O	1.296627	-0.243785	-0.087813
O63	O	1.546627	0.006215	0.162187
O64	O	1.796627	0.256215	0.412187
O65	O	0.956863	-0.493506	-0.420652
O66	O	1.206863	-0.243506	-0.170652
O67	O	1.456863	0.006494	0.079348
O68	O	1.706863	0.256494	0.329348
C69	C	0.819263	-0.346092	-0.371933
C70	C	1.069263	-0.096092	-0.121933
C71	C	1.319263	0.153908	0.128067
C72	C	1.569263	0.403908	0.378067
C73	C	0.741159	-0.343179	-0.368807
C74	C	0.991159	-0.093179	-0.118807
C75	C	1.241159	0.156821	0.131193
C76	C	1.491159	0.406821	0.381193
C77	C	0.702665	-0.383665	-0.412193
C78	C	0.952665	-0.133665	-0.162193
C79	C	1.202665	0.116335	0.087807
C80	C	1.452665	0.366335	0.337807
C81	C	0.629278	-0.380919	-0.409259
C82	C	0.879278	-0.130919	-0.159259
C83	C	1.129278	0.119081	0.090741
C84	C	1.379278	0.369081	0.340741
C85	C	0.594386	-0.337690	-0.362936
C86	C	0.844386	-0.087690	-0.112936
C87	C	1.094386	0.162310	0.137064
C88	C	1.344386	0.412310	0.387064
C89	C	0.632885	-0.297200	-0.319549
C90	C	0.882885	-0.047200	-0.069549
C91	C	1.132885	0.202800	0.180451
C92	C	1.382885	0.452800	0.430451
C93	C	0.706271	-0.299943	-0.322486
C94	C	0.956271	-0.049943	-0.072486
C95	C	1.206271	0.200057	0.177514
C96	C	1.456271	0.450057	0.427514
C97	C	0.375100	-0.324995	-0.349344
C98	C	0.625100	-0.074995	-0.099344
C99	C	0.875100	0.175005	0.150656
C100	C	1.125100	0.425005	0.400656
C101	C	0.301709	-0.322257	-0.346409
C102	C	0.551709	-0.072257	-0.096409
C103	C	0.801709	0.177743	0.153591
C104	C	1.051709	0.427743	0.403591
C105	C	0.298107	-0.405975	-0.436121
C106	C	0.548107	-0.155975	-0.186121
C107	C	0.798107	0.094025	0.063879
C108	C	1.048107	0.344025	0.313879
C109	C	0.371494	-0.408717	-0.439051
C110	C	0.621494	-0.158717	-0.189051
C111	C	0.871494	0.091283	0.060949
C112	C	1.121494	0.341283	0.310949
C113	C	0.409986	-0.368225	-0.395666
C114	C	0.659986	-0.118225	-0.145666
C115	C	0.909986	0.131775	0.104334
C116	C	1.159986	0.381775	0.354334
N117	N	0.519373	-0.334884	-0.359935
N118	N	0.769373	-0.084884	-0.109935
N119	N	1.019373	0.165116	0.140065
N120	N	1.269373	0.415116	0.390065
N121	N	0.484998	-0.371028	-0.398671
N122	N	0.734998	-0.121028	-0.148671
N123	N	0.984998	0.128972	0.101329
N124	N	1.234998	0.378972	0.351329
C125	C	1.001750	-0.516486	-0.379241
C126	C	1.251750	-0.266486	-0.129241
C127	C	1.501750	-0.016486	0.120759
C128	C	1.751750	0.233514	0.370759
C129	C	1.001779	-0.586456	-0.379251
C130	C	1.251779	-0.336456	-0.129251
C131	C	1.501779	-0.086456	0.120749
C132	C	1.751779	0.163544	0.370749
C133	C	1.048735	-1.086051	-0.336264
C134	C	1.298735	-0.836051	-0.086264
C135	C	1.548735	-0.586051	0.163736
C136	C	1.798735	-0.336051	0.413736
C137	C	1.048709	-1.020307	-0.336246
C138	C	1.298709	-0.770307	-0.086246
C139	C	1.548709	-0.520307	0.163754
C140	C	1.798709	-0.270307	0.413754
C141	C	1.001928	-0.987304	-0.379331
C142	C	1.251928	-0.737304	-0.129331
C143	C	1.501928	-0.487304	0.120669
C144	C	1.751928	-0.237304	0.370669
C145	C	0.955157	-1.020049	-0.422424
C146	C	1.205157	-0.770049	-0.172424
C147	C	1.455157	-0.520049	0.077576
C148	C	1.705157	-0.270049	0.327576
C149	C	0.955180	-1.085791	-0.422435
C150	C	1.205180	-0.835791	-0.172435
C151	C	1.455180	-0.585791	0.077565
C152	C	1.705180	-0.335791	0.327565
N153	N	0.993992	-0.885967	-0.440598
N154	N	1.243992	-0.635967	-0.190598
N155	N	1.493992	-0.385967	0.059402
N156	N	1.743992	-0.135967	0.309402
N157	N	0.993974	-0.823515	-0.440586
N158	N	1.243974	-0.573515	-0.190586
N159	N	1.493974	-0.323515	0.059414
N160	N	1.743974	-0.073515	0.309414
C161	C	1.001856	-0.789225	-0.379299
C162	C	1.251856	-0.539225	-0.129299
C163	C	1.501856	-0.289225	0.120701
C164	C	1.751856	-0.039225	0.370701
N165	N	1.009769	-0.819748	-0.318024
N166	N	1.259769	-0.569748	-0.068024
N167	N	1.509769	-0.319748	0.181976
N168	N	1.759769	-0.069748	0.431976
N169	N	1.009790	-0.882206	-0.318037
N170	N	1.259790	-0.632206	-0.068037
N171	N	1.509790	-0.382206	0.181963
N172	N	1.759790	-0.132206	0.431963
C173	C	1.001898	-0.916017	-0.379323
C174	C	1.251898	-0.666017	-0.129323
C175	C	1.501898	-0.416017	0.120677
C176	C	1.751898	-0.166017	0.370677
C177	C	1.048592	-0.685201	-0.336186
C178	C	1.298592	-0.435201	-0.086186
C179	C	1.548592	-0.185201	0.163814
C180	C	1.798592	0.064799	0.413814
C181	C	1.048561	-0.619455	-0.336167
C182	C	1.298561	-0.369455	-0.086167
C183	C	1.548561	-0.119455	0.163833
C184	C	1.798561	0.130545	0.413833
C185	C	0.955013	-0.619198	-0.422351
C186	C	1.205013	-0.369198	-0.172351
C187	C	1.455013	-0.119198	0.077649
C188	C	1.705013	0.130802	0.327649
C189	C	0.955040	-0.684942	-0.422364
C190	C	1.205040	-0.434942	-0.172364
C191	C	1.455040	-0.184942	0.077636
C192	C	1.705040	0.065058	0.327636
C193	C	1.001834	-0.717939	-0.379282
C194	C	1.251834	-0.467939	-0.129282
C195	C	1.501834	-0.217939	0.120718
C196	C	1.751834	0.032061	0.370718
C197	C	1.185112	-0.359813	-0.386652
C198	C	1.435112	-0.109813	-0.136652
C199	C	1.685112	0.140187	0.113348
C200	C	1.935112	0.390187	0.363348
C201	C	1.263215	-0.362742	-0.389794
C202	C	1.513215	-0.112742	-0.139794
C203	C	1.763215	0.137258	0.110206
C204	C	2.013215	0.387258	0.360206
C205	C	0.994501	-0.359221	-0.562558
C206	C	1.244501	-0.109221	-0.312558
C207	C	1.494501	0.140779	-0.062558
C208	C	1.744501	0.390779	0.187442
C209	C	0.991377	-0.361898	-0.640661
C210	C	1.241377	-0.111898	-0.390661
C211	C	1.491377	0.138102	-0.140661
C212	C	1.741377	0.388102	0.109339
C213	C	1.001931	-0.188754	-0.379331
C214	C	1.251931	0.061246	-0.129331
C215	C	1.501931	0.311246	0.120669
C216	C	1.751931	0.561246	0.370669
C217	C	1.001973	-0.118788	-0.379354
C218	C	1.251973	0.131212	-0.129354
C219	C	1.501973	0.381212	0.120646
C220	C	1.751973	0.631212	0.370646
C221	C	1.034870	-0.324587	-0.679176
C222	C	1.284870	-0.074587	-0.429176
C223	C	1.534870	0.175413	-0.179176
C224	C	1.784870	0.425413	0.070824
C225	C	1.031927	-0.327099	-0.752561
C226	C	1.281927	-0.077099	-0.502561
C227	C	1.531927	0.172901	-0.252561
C228	C	1.781927	0.422901	-0.002561
C229	C	0.985494	-0.366927	-0.787431
C230	C	1.235494	-0.116927	-0.537431
C231	C	1.485494	0.133073	-0.287431
C232	C	1.735494	0.383073	-0.037431
C233	C	0.941996	-0.404239	-0.748910
C234	C	1.191996	-0.154239	-0.498910
C235	C	1.441996	0.095761	-0.248910
C236	C	1.691996	0.345761	0.001090
C237	C	0.944937	-0.401723	-0.675526
C238	C	1.194937	-0.151723	-0.425526
C239	C	1.444937	0.098277	-0.175526
C240	C	1.694937	0.348277	0.074474
C241	C	0.971875	-0.378585	-1.006711
C242	C	1.221875	-0.128585	-0.756711
C243	C	1.471875	0.121415	-0.506711
C244	C	1.721875	0.371415	-0.256711
C245	C	0.968939	-0.381100	-1.080101
C246	C	1.218939	-0.131100	-0.830101
C247	C	1.468939	0.118900	-0.580101
C248	C	1.718939	0.368900	-0.330101
C249	C	1.058870	-0.303959	-1.083747
C250	C	1.308870	-0.053959	-0.833747
C251	C	1.558870	0.196041	-0.583747
C252	C	1.808870	0.446041	-0.333747
C253	C	1.061809	-0.301449	-1.010361
C254	C	1.311809	-0.051449	-0.760361
C255	C	1.561809	0.198551	-0.510361
C256	C	1.811809	0.448551	-0.260361
C257	C	1.018309	-0.338759	-0.971847
C258	C	1.268309	-0.088759	-0.721847
C259	C	1.518309	0.161241	-0.471847
C260	C	1.768309	0.411241	-0.221847
N261	N	0.982485	-0.369497	-0.862443
N262	N	1.232485	-0.119497	-0.612443
N263	N	1.482485	0.130503	-0.362443
N264	N	1.732485	0.380503	-0.112443
N265	N	1.021314	-0.336184	-0.896836
N266	N	1.271314	-0.086184	-0.646836
N267	N	1.521314	0.163816	-0.396836
N268	N	1.771314	0.413816	-0.146836
C269	C	1.009173	-0.346638	-0.196713
C270	C	1.259173	-0.096638	0.053287
C271	C	1.509173	0.153362	0.303287
C272	C	1.759173	0.403362	0.553287
C273	C	1.012432	-0.343789	-0.118616
C274	C	1.262432	-0.093789	0.131384
C275	C	1.512432	0.156211	0.381384
C276	C	1.762432	0.406211	0.631384
H277	H	0.731069	-0.418868	-0.449912
H278	H	0.981069	-0.168868	-0.199912
H279	H	1.231069	0.081132	0.050088
H280	H	1.481069	0.331132	0.300088
Cl281	Cl	0.589021	-0.242851	-0.261318
Cl282	Cl	0.839021	0.007149	-0.011318
Cl283	Cl	1.089021	0.257149	0.238682
Cl284	Cl	1.339021	0.507149	0.488682
Cl285	Cl	1.113549	-0.257055	-1.132168
Cl286	Cl	1.363549	-0.007055	-0.882168
Cl287	Cl	1.613549	0.242945	-0.632168
Cl288	Cl	1.863549	0.492945	-0.382168
Cl289	Cl	0.910558	-0.431169	-1.123935
Cl290	Cl	1.160558	-0.181169	-0.873935
Cl291	Cl	1.410558	0.068831	-0.623935
Cl292	Cl	1.660558	0.318831	-0.373935
H293	H	0.909513	-0.432099	-0.644167
H294	H	1.159513	-0.182099	-0.394167
H295	H	1.409513	0.067901	-0.144167
H296	H	1.659513	0.317901	0.105833
H297	H	1.086836	-1.112913	-0.301181
H298	H	1.336836	-0.862913	-0.051181
H299	H	1.586836	-0.612913	0.198819
H300	H	1.836836	-0.362913	0.448819
H301	H	0.916920	-0.592327	-0.457429
H302	H	1.166920	-0.342327	-0.207429
H303	H	1.416920	-0.092327	0.042571
H304	H	1.666920	0.157673	0.292571
Cl305	Cl	0.917189	-0.425490	-0.958303
Cl306	Cl	1.167189	-0.175490	-0.708303
Cl307	Cl	1.417189	0.074510	-0.458303
Cl308	Cl	1.667189	0.324510	-0.208303
Cl309	Cl	0.423481	-0.274089	-0.294805
Cl310	Cl	0.673481	-0.024089	-0.044805
Cl311	Cl	0.923481	0.225911	0.205195
Cl312	Cl	1.173481	0.475911	0.455195
H313	H	0.904187	-0.436665	-0.777307
H314	H	1.154187	-0.186665	-0.527307
H315	H	1.404187	0.063335	-0.277307
H316	H	1.654187	0.313335	-0.027307
H317	H	0.737612	-0.266972	-0.287161
H318	H	0.987612	-0.016972	-0.037161
H319	H	1.237612	0.233028	0.212839
H320	H	1.487612	0.483028	0.462839
H321	H	1.086789	-0.993647	-0.301156
H322	H	1.336789	-0.743647	-0.051156
H323	H	1.586789	-0.493647	0.198844
H324	H	1.836789	-0.243647	0.448844
H325	H	0.597939	-0.413887	-0.444588
H326	H	0.847939	-0.163887	-0.194588
H327	H	1.097939	0.086113	0.055412
H328	H	1.347939	0.336113	0.305412
Cl329	Cl	0.896390	-1.126949	-0.476612
Cl330	Cl	1.146390	-0.876949	-0.226612
Cl331	Cl	1.396390	-0.626949	0.023388
Cl332	Cl	1.646390	-0.376949	0.273388
Cl333	Cl	0.415353	-0.463065	-0.497287
Cl334	Cl	0.665353	-0.213065	-0.247287
Cl335	Cl	0.915353	0.036935	0.002713
Cl336	Cl	1.165353	0.286935	0.252713
Cl337	Cl	0.249712	-0.456877	-0.490657
Cl338	Cl	0.499712	-0.206877	-0.240657
Cl339	Cl	0.749712	0.043123	0.009343
Cl340	Cl	0.999712	0.293123	0.259343
Cl341	Cl	0.896345	-0.978559	-0.476586
Cl342	Cl	1.146345	-0.728559	-0.226586
Cl343	Cl	1.396345	-0.478559	0.023414
Cl344	Cl	1.646345	-0.228559	0.273414
H345	H	1.086693	-0.712068	-0.301105
H346	H	1.336693	-0.462068	-0.051105
H347	H	1.586693	-0.212068	0.198895
H348	H	1.836693	0.037932	0.448895
H349	H	0.273302	-0.287047	-0.308691
H350	H	0.523302	-0.037047	-0.058691
H351	H	0.773302	0.212953	0.191309
H352	H	1.023302	0.462953	0.441309
Cl353	Cl	0.896257	-0.726100	-0.476545
Cl354	Cl	1.146257	-0.476100	-0.226545
Cl355	Cl	1.396257	-0.226100	0.023455
Cl356	Cl	1.646257	0.023900	0.273455
Cl357	Cl	1.107353	-0.578299	-0.281991
Cl358	Cl	1.357353	-0.328299	-0.031991
Cl359	Cl	1.607353	-0.078299	0.218009
Cl360	Cl	1.857353	0.171701	0.468009
Cl361	Cl	1.093250	-0.274518	-0.635347
Cl362	Cl	1.343250	-0.024518	-0.385347
Cl363	Cl	1.593250	0.225482	-0.135347
Cl364	Cl	1.843250	0.475482	0.114653
Cl365	Cl	1.120185	-0.251378	-0.966530
Cl366	Cl	1.370185	-0.001378	-0.716530
Cl367	Cl	1.620185	0.248622	-0.466530
Cl368	Cl	1.870185	0.498622	-0.216530
Cl369	Cl	1.086637	-0.280220	-0.800978
Cl370	Cl	1.336637	-0.030220	-0.550978
Cl371	Cl	1.586637	0.219780	-0.300978
Cl372	Cl	1.836637	0.469780	-0.050978
