data_functionalizedCrystal
_audit_creation_method	'MofGen! by Chris Wilmer'
_symmetry_space_group_name_H-M	'P1'
_symmetry_Int_Tables_number	1
_symmetry_cell_setting	triclinic
loop_
_symmetry_equiv_pos_as_xyz
  x,y,z
_cell_length_a	10.489741
_cell_length_b	13.596369
_cell_length_c	14.519709
_cell_angle_alpha	89.993066
_cell_angle_beta	84.109659
_cell_angle_gamma	89.997383
loop_
_atom_site_label
_atom_site_type_symbol
_atom_site_fract_x
_atom_site_fract_y
_atom_site_fract_z
O1	O	1.692699	-0.081733	0.130116
O2	O	1.321376	-0.081748	0.142329
O3	O	1.516882	-0.081731	0.002038
O4	O	1.497192	-0.081750	0.270407
O5	O	1.516863	0.081851	0.002030
O6	O	1.321356	0.081834	0.142322
O7	O	1.692679	0.081850	0.130108
Zn8	Zn	1.507015	0.107814	0.136214
Zn9	Zn	1.507040	-0.107713	0.136224
O10	O	1.497173	0.081833	0.270400
C11	C	1.273844	0.000041	0.141403
C12	C	1.132243	0.000035	0.138643
N13	N	1.507006	0.254906	0.136206
N14	N	1.507059	-0.254805	0.136224
C15	C	1.065034	0.000051	0.049380
C16	C	0.972477	-0.080605	0.091551
C17	C	0.972491	0.080675	0.091565
C18	C	1.041551	-0.080687	0.180851
C19	C	1.041576	0.080665	0.180852
C20	C	0.949046	-0.000010	0.223088
C21	C	1.740211	0.000058	0.131035
C22	C	1.881812	0.000057	0.133794
C23	C	1.515955	0.000060	-0.032331
C24	C	1.513205	0.000061	-0.134727
C25	C	1.507039	0.656197	0.136225
C26	C	1.507026	0.544546	0.136223
C27	C	1.507023	0.455555	0.136216
C28	C	1.507009	0.343897	0.136213
C29	C	1.503082	0.000035	-0.509678
C30	C	1.505893	0.000042	-0.405355
C31	C	1.508143	0.000048	-0.322206
C32	C	1.510955	0.000054	-0.217876
C33	C	1.498100	0.000039	0.304768
C34	C	1.500850	0.000032	0.407165
H35	H	1.115488	-0.000045	-0.024000
O36	O	0.889099	0.000110	0.310701
C37	C	0.812668	0.085210	0.324264
H38	H	0.850578	0.144446	0.273020
H39	H	0.709474	0.066721	0.312797
C40	C	0.770804	0.050371	0.486732
C41	C	0.817373	0.123129	0.423799
H42	H	0.773701	0.073760	0.548131
H43	H	0.822294	-0.006965	0.477594
H44	H	0.684813	0.034971	0.477165
H45	H	0.903367	0.138520	0.433359
H46	H	0.765898	0.180469	0.432940
O47	O	1.078116	0.162110	0.225734
C48	C	1.043301	0.246989	0.178443
H49	H	1.032862	0.227671	0.103188
H50	H	0.948257	0.276419	0.212696
C51	C	1.160586	0.349775	0.274601
C52	C	1.147775	0.326050	0.182169
H53	H	1.225026	0.398546	0.276902
H54	H	1.184037	0.292592	0.306465
H55	H	1.081375	0.374295	0.303135
H56	H	1.226979	0.301520	0.153641
H57	H	1.124339	0.383232	0.150301
H58	H	0.941864	-0.148790	0.053785
O59	O	0.936164	0.161997	0.046366
C60	C	0.995780	0.161677	-0.045197
H61	H	1.085977	0.114460	-0.049020
H62	H	0.926963	0.130197	-0.093477
C63	C	0.921242	0.325625	-0.070138
C64	C	1.032029	0.267640	-0.074831
H65	H	0.943597	0.390988	-0.088420
H66	H	0.881073	0.325840	-0.008451
H67	H	0.863904	0.299381	-0.110371
H68	H	1.089357	0.293877	-0.034589
H69	H	1.072208	0.267432	-0.136511
O70	O	1.077994	-0.162030	0.225963
C71	C	1.138959	-0.133259	0.303805
H72	H	1.178042	-0.055423	0.292965
H73	H	1.066914	-0.135201	0.368147
C74	C	1.202076	-0.299948	0.329873
C75	C	1.250089	-0.204352	0.316557
H76	H	1.270623	-0.343804	0.337743
H77	H	1.160999	-0.319334	0.277432
H78	H	1.142039	-0.301553	0.383491
H79	H	1.310112	-0.202746	0.262934
H80	H	1.291179	-0.184968	0.368990
