data_functionalizedCrystal
_audit_creation_method	'MofGen! by Chris Wilmer'
_symmetry_space_group_name_H-M	'P1'
_symmetry_Int_Tables_number	1
_symmetry_cell_setting	triclinic
loop_
_symmetry_equiv_pos_as_xyz
  x,y,z
_cell_length_a	12.837943
_cell_length_b	12.837942
_cell_length_c	11.295501
_cell_angle_alpha	94.169788
_cell_angle_beta	94.169432
_cell_angle_gamma	94.828940
loop_
_atom_site_label
_atom_site_type_symbol
_atom_site_fract_x
_atom_site_fract_y
_atom_site_fract_z
O1	O	1.409246	0.279050	0.099003
O2	O	1.909246	0.779050	0.599003
O3	O	1.106113	0.265607	0.099010
O4	O	1.606113	0.765607	0.599010
O5	O	1.250957	0.120761	0.098999
O6	O	1.750957	0.620761	0.598999
O7	O	1.264401	0.423896	0.099014
O8	O	1.764401	0.923896	0.599014
O9	O	1.237120	0.106933	-0.099052
O10	O	1.737120	0.606933	0.400948
O11	O	1.092275	0.251779	-0.099041
O12	O	1.592275	0.751779	0.400959
O13	O	1.395408	0.265222	-0.099048
O14	O	1.895408	0.765222	0.400952
Cu15	Cu	1.242578	0.257238	-0.117128
Cu16	Cu	1.742578	0.757238	0.382872
Cu17	Cu	1.258943	0.273591	0.117090
Cu18	Cu	1.758943	0.773591	0.617090
O19	O	1.250564	0.410067	-0.099037
O20	O	1.750564	0.910067	0.400963
C21	C	1.060125	0.254152	-0.000014
C22	C	1.560125	0.754152	0.499986
C23	C	0.943710	0.240607	-0.000012
C24	C	1.443710	0.740607	0.499988
C25	C	0.718835	0.403436	-0.000021
C26	C	1.218835	0.903436	0.499979
C27	C	0.609453	0.390715	-0.000020
C28	C	1.109453	0.890715	0.499980
C29	C	0.615560	0.202444	-0.000016
C30	C	1.115560	0.702444	0.499984
C31	C	0.724943	0.215165	-0.000017
C32	C	1.224943	0.715165	0.499983
C33	C	0.776576	0.315664	-0.000018
C34	C	1.276576	0.815664	0.499982
C35	C	0.885961	0.328385	-0.000011
C36	C	1.385961	0.828385	0.499989
C37	C	0.892066	0.140115	-0.000016
C38	C	1.392066	0.640115	0.499984
C39	C	0.782684	0.127394	-0.000015
C40	C	1.282684	0.627394	0.499985
C41	C	1.239497	0.074778	-0.000025
C42	C	1.739497	0.574778	0.499975
C43	C	1.225953	-0.041637	-0.000023
C44	C	1.725953	0.458363	0.499977
C45	C	1.388784	-0.266510	-0.000002
C46	C	1.888784	0.233490	0.499998
C47	C	1.376062	-0.375892	0.000000
C48	C	1.876062	0.124108	0.500000
C49	C	1.187791	-0.369785	-0.000008
C50	C	1.687791	0.130215	0.499992
C51	C	1.200512	-0.260403	-0.000010
C52	C	1.700512	0.239597	0.499990
C53	C	1.301011	-0.208769	-0.000009
C54	C	1.801011	0.291231	0.499991
C55	C	1.313731	-0.099386	-0.000020
C56	C	1.813731	0.400614	0.499980
C57	C	1.125461	-0.093280	-0.000019
C58	C	1.625461	0.406720	0.499981
C59	C	1.112740	-0.202663	-0.000017
C60	C	1.612740	0.297337	0.499983
C61	C	1.441396	0.276677	-0.000021
C62	C	1.941396	0.776677	0.499979
C63	C	1.557812	0.290222	-0.000015
C64	C	2.057812	0.790222	0.499985
C65	C	1.262024	0.456051	-0.000010
C66	C	1.762024	0.956051	0.499990
C67	C	1.275569	0.572466	-0.000004
C68	C	1.775569	1.072466	0.499996
N69	N	1.231076	0.245736	-0.281864
N70	N	1.731076	0.745736	0.218136
C71	C	1.353245	0.367932	-0.531152
C72	C	1.853245	0.867932	-0.031152
C73	C	1.344560	0.359232	-0.655816
C74	C	1.844560	0.859232	-0.155816
C75	C	1.205027	0.219632	-0.655858
C76	C	1.705027	0.719632	-0.155858
C77	C	1.213712	0.228331	-0.531194
C78	C	1.713712	0.728331	-0.031194
C79	C	1.287822	0.302485	-0.468846
C80	C	1.787822	0.802485	0.031154
C81	C	1.296502	0.311189	-0.344180
C82	C	1.796502	0.811189	0.155820
C83	C	1.156974	0.171585	-0.344224
C84	C	1.656974	0.671585	0.155776
C85	C	1.148289	0.162885	-0.468888
C86	C	1.648289	0.662885	0.031112
N87	N	1.270452	0.285085	0.281827
N88	N	1.770452	0.785085	0.781827
H89	H	0.562444	0.462188	-0.000025
H90	H	1.062444	0.962188	0.499975
H91	H	1.053990	-0.046257	-0.000034
H92	H	1.553990	0.453743	0.499966
H93	H	1.447536	-0.422900	0.000010
H94	H	1.947536	0.077100	0.500010
H95	H	0.573494	0.120615	-0.000114
H96	H	1.073494	0.620615	0.499886
H97	H	1.105969	-0.411844	0.000004
H98	H	1.605969	0.088156	0.500004
H99	H	1.397835	0.412525	-0.706541
H100	H	1.897835	0.912525	-0.206541
H101	H	1.470613	-0.224470	-0.000013
H102	H	1.970613	0.275530	0.499987
C103	C	1.002198	-0.259460	-0.000013
C104	C	1.502198	0.240540	0.499987
H105	H	0.951747	-0.209402	-0.000009
H106	H	1.451747	0.290598	0.499991
H107	H	0.988497	-0.306834	-0.069072
H108	H	1.488497	0.193166	0.430928
H109	H	0.998148	-0.297170	0.069066
H110	H	1.498148	0.202830	0.569066
C111	C	1.123518	0.138068	-0.724455
C112	C	1.623518	0.638068	-0.224455
H113	H	1.127717	0.142266	-0.807623
H114	H	1.627717	0.642266	-0.307623
H115	H	1.137314	0.069799	-0.704025
H116	H	1.637314	0.569799	-0.204025
H117	H	1.055229	0.151836	-0.704049
H118	H	1.555229	0.651836	-0.204049
C119	C	1.378026	0.392747	-0.275597
C120	C	1.878026	0.892747	0.224403
H121	H	1.415753	0.430469	-0.330565
H122	H	1.915753	0.930469	0.169435
H123	H	1.343284	0.440064	-0.226968
H124	H	1.843284	0.940064	0.273032
H125	H	1.425355	0.358013	-0.226964
H126	H	1.925355	0.858013	0.273036
C127	C	0.942762	0.438926	-0.000012
C128	C	1.442762	0.938926	0.499988
H129	H	1.016178	0.433936	-0.000001
H130	H	1.516178	0.933936	0.499999
H131	H	0.918757	0.470693	-0.069078
H132	H	1.418757	0.970693	0.430922
H133	H	0.928405	0.480343	0.069060
H134	H	1.428405	0.980343	0.569060
H135	H	0.760876	0.485267	-0.000020
H136	H	1.260876	0.985267	0.499980
H137	H	1.395562	-0.057347	-0.000023
H138	H	1.895562	0.442653	0.499977
H139	H	1.087953	0.102508	-0.519669
H140	H	1.587953	0.602508	-0.019669
C141	C	0.725882	0.016854	-0.000007
C142	C	1.225882	0.516854	0.499993
H143	H	0.652468	0.021847	0.000001
H144	H	1.152468	0.521847	0.500001
H145	H	0.740239	-0.024571	-0.069067
H146	H	1.240239	0.475429	0.430933
H147	H	0.749888	-0.014904	0.069072
H148	H	1.249888	0.485096	0.569072
H149	H	1.413580	0.428320	-0.480387
H150	H	1.913580	0.928320	0.019613
H151	H	0.939091	0.068645	-0.000006
H152	H	1.439091	0.568645	0.499994
C153	C	1.084971	0.099625	-0.275685
C154	C	1.584971	0.599625	0.224315
H155	H	1.100747	0.115432	-0.192509
H156	H	1.600747	0.615432	0.307491
H157	H	1.013855	0.110569	-0.296157
H158	H	1.513855	0.610569	0.203843
H159	H	1.095894	0.028487	-0.296091
H160	H	1.595894	0.528487	0.203909
