data_functionalizedCrystal
_audit_creation_method	'MofGen! by Chris Wilmer'
_symmetry_space_group_name_H-M	'P1'
_symmetry_Int_Tables_number	1
_symmetry_cell_setting	triclinic
loop_
_symmetry_equiv_pos_as_xyz
  x,y,z
_cell_length_a	16.109301
_cell_length_b	27.732048
_cell_length_c	14.586319
_cell_angle_alpha	89.991275
_cell_angle_beta	89.999213
_cell_angle_gamma	83.052068
loop_
_atom_site_label
_atom_site_type_symbol
_atom_site_fract_x
_atom_site_fract_y
_atom_site_fract_z
O1	O	1.102362	0.062130	-0.076193
O2	O	0.860204	0.069862	-0.076208
O3	O	0.988804	-0.004369	-0.076183
O4	O	0.973762	0.136361	-0.076218
O5	O	0.988795	-0.004370	0.076298
O6	O	0.860195	0.069861	0.076272
O7	O	1.102353	0.062129	0.076288
Cu8	Cu	0.981273	0.065995	0.090203
Cu9	Cu	0.981283	0.065996	-0.090123
O10	O	0.973753	0.136360	0.076262
C11	C	0.829228	0.069548	0.000030
C12	C	0.736945	0.068609	0.000025
C13	C	0.988483	-0.022378	0.000060
C14	C	0.987533	-0.076037	0.000068
C15	C	0.514154	0.110473	0.000025
C16	C	0.427445	0.109587	0.000031
C17	C	0.448409	0.021514	0.000050
C18	C	0.535117	0.022401	0.000050
C19	C	0.567987	0.066882	0.000033
C20	C	0.394570	0.065109	0.000039
C21	C	0.300556	0.064148	0.000045
C22	C	0.662007	0.067843	0.000028
C23	C	1.057541	-0.414559	0.000025
C24	C	1.054013	-0.616233	0.000012
O25	O	1.118031	-0.647221	-0.000024
N26	N	0.977759	-0.635676	0.000008
C27	C	0.902381	-0.604697	0.000001
O28	O	0.837441	-0.625862	-0.000012
C29	C	0.905910	-0.403024	0.000008
C30	C	0.982169	-0.383584	0.000021
C31	C	1.133794	-0.395119	0.000038
C32	C	1.134675	-0.344703	0.000046
C33	C	1.059303	-0.313728	0.000042
C34	C	0.983050	-0.333168	0.000029
C35	C	0.830533	-0.372045	-0.000006
C36	C	0.831422	-0.321624	-0.000006
C37	C	0.907681	-0.302184	0.000007
C38	C	0.908559	-0.251777	0.000034
N39	N	0.984814	-0.232334	0.000038
C40	C	1.060186	-0.263310	0.000042
C41	C	0.900534	-0.710579	-0.000000
C42	C	0.899652	-0.760997	-0.000000
C43	C	1.051284	-0.772530	0.000009
C44	C	1.052166	-0.722111	0.000016
C45	C	0.976789	-0.691136	0.000004
C46	C	1.062030	-0.157433	0.000060
C47	C	1.062905	-0.107012	0.000072
C48	C	0.911273	-0.095484	0.000058
C49	C	0.910398	-0.145900	0.000051
C50	C	0.985783	-0.176874	0.000049
O51	O	0.844576	-0.220761	0.000059
O52	O	1.125116	-0.242135	0.000035
C53	C	1.056660	-0.464975	0.000017
C54	C	0.980407	-0.484415	0.000005
C55	C	0.905035	-0.453440	0.000001
C56	C	0.979525	-0.534833	0.000005
C57	C	1.054897	-0.565808	0.000009
C58	C	1.131151	-0.546365	0.000013
C59	C	1.132032	-0.495950	0.000021
C60	C	0.828781	-0.472883	-0.000004
C61	C	0.827906	-0.523299	-0.000011
C62	C	0.903278	-0.554274	-0.000007
C63	C	1.133328	0.062443	0.000048
C64	C	1.225612	0.063382	0.000047
C65	C	0.974073	0.154369	0.000017
C66	C	0.975024	0.208028	0.000004
N67	N	0.981272	0.065994	0.217035
N68	N	0.981291	0.065994	-0.216955
C69	C	1.038234	0.033135	0.452053
C70	C	1.038237	0.033134	0.548034
C71	C	0.924323	0.098854	0.548020
C72	C	0.924317	0.098852	0.452041
C73	C	0.981278	0.065993	0.404060
C74	C	0.981286	0.065994	0.596020
C75	C	0.981288	0.065993	0.700087
C76	C	0.981275	0.065994	0.299986
H77	H	0.383617	0.145084	0.000026
C78	C	0.745077	-0.544373	-0.000215
C79	C	0.699578	-0.528625	-0.078681
C80	C	0.623281	-0.548032	-0.078916
H81	H	0.713963	-0.533759	0.052892
H82	H	0.755303	-0.578839	-0.000271
H83	H	0.689350	-0.494166	-0.078616
H84	H	0.730667	-0.539238	-0.131800
H85	H	0.633506	-0.582497	-0.078972
H86	H	0.592174	-0.537416	-0.025805
H87	H	0.592403	-0.537353	-0.132157
C88	C	0.549726	0.158801	-0.000127
C89	C	0.522291	0.185160	-0.078566
C90	C	0.555031	0.229685	-0.078729
H91	H	0.609073	0.153157	-0.000175
H92	H	0.531184	0.176772	0.053017
H93	H	0.540838	0.167192	-0.131697
H94	H	0.462949	0.190817	-0.078536
H95	H	0.536488	0.247657	-0.025585
H96	H	0.614376	0.224037	-0.078774
H97	H	0.536414	0.247578	-0.131944
C98	C	1.100107	-0.002597	0.400123
C99	C	1.149971	-0.031382	0.462702
C100	C	1.206969	-0.064309	0.414902
H101	H	1.134570	0.014738	0.362669
H102	H	1.070477	-0.022750	0.362712
H103	H	1.179599	-0.011231	0.500098
H104	H	1.115531	-0.048727	0.500159
H105	H	1.177339	-0.084462	0.377490
H106	H	1.241427	-0.046970	0.377449
H107	H	1.240804	-0.083847	0.457354
C108	C	0.862609	0.134555	0.399811
C109	C	0.906513	0.164141	0.344677
C110	C	0.849697	0.197030	0.296542
H111	H	0.828667	0.154174	0.442028
H112	H	0.828235	0.117173	0.362326
H113	H	0.940872	0.181522	0.382159
H114	H	0.940451	0.144536	0.302443
H115	H	0.815323	0.179648	0.259056
H116	H	0.815758	0.216645	0.338765
H117	H	0.879477	0.217105	0.259121
H118	H	0.578951	-0.013099	0.000059
H119	H	1.192521	-0.571594	0.000020
H120	H	1.195175	-0.420334	0.000038
C121	C	0.412558	-0.026728	0.000013
C122	C	0.325101	-0.018176	-0.000016
C123	C	0.292048	-0.062606	-0.000065
H124	H	0.430981	-0.044715	0.053175
H125	H	0.431030	-0.044679	-0.053179
H126	H	0.306636	-0.000233	0.053170
H127	H	0.306654	-0.000196	-0.053175
H128	H	0.310521	-0.080557	-0.053257
H129	H	0.310478	-0.080590	0.053098
H130	H	0.232706	-0.056809	-0.000093
C131	C	1.145619	-0.085813	0.000127
C132	C	1.130267	-0.035029	0.000157
C133	C	1.206440	-0.015486	0.000218
H134	H	1.176690	-0.096387	-0.053031
H135	H	1.176631	-0.096426	0.053322
H136	H	1.099269	-0.024421	-0.053032
H137	H	1.099209	-0.024442	0.053312
H138	H	1.237451	-0.026099	0.053413
H139	H	1.237505	-0.026064	-0.052942
H140	H	1.196034	0.018973	0.000247
H141	H	1.084615	0.006377	0.587107
H142	H	0.849907	-0.070255	0.000058
C143	C	0.862582	0.134510	0.600283
C144	C	0.874793	0.127489	0.694610
C145	C	0.817941	0.160332	0.742780
H146	H	0.807126	0.129284	0.584673
H147	H	0.871204	0.166781	0.584591
H148	H	0.866165	0.095225	0.710295
H149	H	0.930238	0.132718	0.710247
H150	H	0.826563	0.192603	0.727089
H151	H	0.762488	0.155104	0.727163
H152	H	0.826223	0.155576	0.806786
H153	H	1.123416	-0.182646	0.000055
H154	H	1.196773	-0.328880	0.000053
H155	H	1.114263	-0.706287	0.000026
C156	C	0.746967	-0.439234	-0.000193
C157	C	0.743024	-0.409950	-0.078647
C158	C	0.667659	-0.378954	-0.078853
H159	H	0.744072	-0.419287	0.052922
H160	H	0.701409	-0.458022	-0.000246
H161	H	0.788569	-0.391163	-0.078585
H162	H	0.745905	-0.429883	-0.131774
H163	H	0.622101	-0.397742	-0.078907
H164	H	0.664770	-0.359010	-0.025735
H165	H	0.664970	-0.359084	-0.132087
C166	C	1.133093	-0.806189	-0.000185
C167	C	1.137011	-0.835452	-0.078649
C168	C	1.212361	-0.866461	-0.078874
H169	H	1.135984	-0.826149	0.052923
H170	H	1.178664	-0.787410	-0.000237
H171	H	1.091453	-0.854229	-0.078589
H172	H	1.134135	-0.815505	-0.131770
H173	H	1.257931	-0.847682	-0.078926
H174	H	1.215245	-0.886418	-0.025762
H175	H	1.215033	-0.886317	-0.132114
C176	C	0.816830	-0.782072	-0.000194
C177	C	0.771324	-0.766328	-0.078659
C178	C	0.695027	-0.785735	-0.078880
H179	H	0.785720	-0.771455	0.052914
H180	H	0.827055	-0.816538	-0.000243
H181	H	0.761096	-0.731870	-0.078601
H182	H	0.802409	-0.776944	-0.131779
H183	H	0.705253	-0.820201	-0.078930
H184	H	0.663924	-0.775117	-0.025769
H185	H	0.664146	-0.775060	-0.132121
C186	C	0.749517	-0.288052	-0.000160
C187	C	0.703564	-0.296839	-0.078604
C188	C	0.628107	-0.265926	-0.078769
H189	H	0.760840	-0.255223	-0.000202
H190	H	0.718171	-0.293959	0.052981
H191	H	0.734904	-0.290928	-0.131731
H192	H	0.692220	-0.329661	-0.078579
H193	H	0.596761	-0.271833	-0.025628
H194	H	0.639438	-0.233100	-0.078809
H195	H	0.596915	-0.271887	-0.131988
H196	H	0.839149	-0.685363	-0.000010
H197	H	0.768435	-0.387864	-0.000022
C198	C	0.827518	-0.166915	-0.000009
C199	C	0.761700	-0.128995	-0.000031
C200	C	0.685338	-0.148332	-0.000110
H201	H	0.823894	-0.186346	0.053141
H202	H	0.823984	-0.186320	-0.053212
H203	H	0.765232	-0.109598	0.053168
H204	H	0.765296	-0.109561	-0.053177
H205	H	0.681804	-0.167736	-0.053314
H206	H	0.681723	-0.167762	0.053041
H207	H	0.640672	-0.122606	-0.000134
C208	C	1.214915	-0.474942	-0.000018
C209	C	1.280725	-0.512868	-0.000041
C210	C	1.357093	-0.493538	-0.000092
H211	H	1.218535	-0.455526	0.053141
H212	H	1.218464	-0.455523	-0.053212
H213	H	1.277178	-0.532278	0.053148
H214	H	1.277133	-0.532286	-0.053197
H215	H	1.360641	-0.474119	-0.053286
H216	H	1.360704	-0.474122	0.053068
H217	H	1.401753	-0.519267	-0.000116
