data_functionalizedCrystal
_audit_creation_method	'MofGen! by Chris Wilmer'
_symmetry_space_group_name_H-M	'P1'
_symmetry_Int_Tables_number	1
_symmetry_cell_setting	triclinic
loop_
_symmetry_equiv_pos_as_xyz
  x,y,z
_cell_length_a	10.654550
_cell_length_b	10.540510
_cell_length_c	9.130313
_cell_angle_alpha	89.997956
_cell_angle_beta	89.999724
_cell_angle_gamma	84.499121
loop_
_atom_site_label
_atom_site_type_symbol
_atom_site_fract_x
_atom_site_fract_y
_atom_site_fract_z
O1	O	1.667883	0.178303	-0.121681
O2	O	1.302409	0.195291	-0.121707
O3	O	1.493504	0.002085	-0.121693
O4	O	1.476789	0.371509	-0.121695
O5	O	1.493491	0.002079	0.121906
O6	O	1.302396	0.195285	0.121892
O7	O	1.667870	0.178297	0.121918
Cu8	Cu	1.485132	0.186791	0.144147
Cu9	Cu	1.485147	0.186797	-0.143937
O10	O	1.476775	0.371503	0.121903
C11	C	1.255604	0.194040	0.000089
C12	C	1.116160	0.190309	0.000078
C13	C	1.492252	-0.045221	0.000103
C14	C	1.488525	-0.186170	0.000094
C15	C	1.036702	0.304065	0.000082
C16	C	0.905681	0.300551	0.000107
C17	C	0.933587	0.069514	0.000120
C18	C	1.064606	0.073029	0.000105
C19	C	1.621278	-0.403673	0.000661
C20	C	1.625253	-0.257079	0.000105
C21	C	1.418541	-0.230900	-0.139015
C22	C	1.415534	-0.377660	-0.139124
C23	C	1.412672	-0.377474	0.137893
C24	C	1.419157	-0.231135	0.139725
C25	C	1.714675	0.179547	0.000118
C26	C	1.854119	0.183279	0.000119
C27	C	1.478028	0.418809	0.000104
C28	C	1.481754	0.559758	0.000103
N29	N	1.485130	0.186785	0.346770
N30	N	1.485159	0.186793	-0.346559
C31	C	1.569776	0.101270	0.423428
C32	C	1.569788	0.101270	0.576765
C33	C	1.400504	0.272312	0.576772
C34	C	1.400487	0.272305	0.423438
H35	H	0.840991	0.393183	0.000113
O36	O	1.092306	0.430556	0.000086
H37	H	1.060451	0.485287	-0.099187
O38	O	1.280085	-0.408097	-0.147516
H39	H	1.236568	-0.367265	-0.249678
O40	O	1.285212	-0.168078	-0.145904
H41	H	1.267373	-0.104150	-0.050026
H42	H	1.680011	-0.227757	0.099822
O43	O	1.276697	-0.406779	0.139135
H44	H	1.214178	-0.316329	0.135545
H45	H	0.891595	-0.025971	0.000150
O46	O	1.691446	-0.461315	-0.130726
H47	H	1.725029	-0.384181	-0.198877
O48	O	1.691838	-0.459280	0.132804
H49	H	1.789948	-0.432168	0.130729
H50	H	1.331592	0.341942	0.639210
H51	H	1.456117	-0.419674	0.243338
H52	H	1.129304	-0.019611	0.000106
H53	H	1.319334	-0.182033	0.148118
H54	H	1.680340	-0.228691	-0.099778
H55	H	1.467153	-0.200058	-0.242532
O56	O	1.479516	-0.431038	-0.276458
H57	H	1.512245	-0.351985	-0.342208
H58	H	1.470080	-0.202544	0.242636
O59	O	1.661103	0.009048	0.659439
H60	H	1.644250	-0.090072	0.630010
H61	H	1.638695	0.031633	0.361008
O62	O	1.309191	0.364547	0.340739
H63	H	1.250351	0.424029	0.419808
