data_functionalizedCrystal
_audit_creation_method	'MofGen! by Chris Wilmer'
_symmetry_space_group_name_H-M	'P1'
_symmetry_Int_Tables_number	1
_symmetry_cell_setting	triclinic
loop_
_symmetry_equiv_pos_as_xyz
  x,y,z
_cell_length_a	19.288865
_cell_length_b	19.288840
_cell_length_c	17.766277
_cell_angle_alpha	89.983415
_cell_angle_beta	89.988397
_cell_angle_gamma	83.131131
loop_
_atom_site_label
_atom_site_type_symbol
_atom_site_fract_x
_atom_site_fract_y
_atom_site_fract_z
O1	O	0.086566	0.921364	-0.062729
O2	O	0.419899	1.254697	0.270605
O3	O	0.753233	1.588031	0.603938
O4	O	0.098273	0.719101	-0.062704
O5	O	0.431606	1.052434	0.270630
O6	O	0.764939	1.385768	0.603963
O7	O	-0.008711	0.826077	-0.062702
O8	O	0.324622	1.159410	0.270631
O9	O	0.657955	1.492744	0.603965
O10	O	0.193550	0.814388	-0.062730
O11	O	0.526884	1.147721	0.270603
O12	O	0.860217	1.481055	0.603936
O13	O	-0.008717	0.826058	0.062487
O14	O	0.324616	1.159392	0.395820
O15	O	0.657950	1.492725	0.729153
O16	O	0.098267	0.719082	0.062485
O17	O	0.431601	1.052416	0.395818
O18	O	0.764934	1.385749	0.729152
O19	O	0.086560	0.921345	0.062460
O20	O	0.419894	1.254679	0.395793
O21	O	0.753227	1.588012	0.729127
Cu22	Cu	0.092413	0.820212	0.073903
Cu23	Cu	0.425747	1.153545	0.407237
Cu24	Cu	0.759080	1.486879	0.740570
Cu25	Cu	0.092420	0.820234	-0.074147
Cu26	Cu	0.425753	1.153568	0.259187
Cu27	Cu	0.759087	1.486901	0.592520
O28	O	0.193545	0.814369	0.062458
O29	O	0.526878	1.147703	0.395792
O30	O	0.860211	1.481036	0.729125
C31	C	0.097896	0.693215	-0.000106
C32	C	0.431230	1.026548	0.333227
C33	C	0.764563	1.359882	0.666561
C34	C	0.096774	0.616110	-0.000096
C35	C	0.430108	0.949444	0.333238
C36	C	0.763441	1.282777	0.666571
C37	C	0.096238	0.579917	-0.068338
C38	C	0.429572	0.913250	0.264996
C39	C	0.762905	1.246584	0.598329
C40	C	0.095176	0.507470	-0.068347
C41	C	0.428509	0.840804	0.264986
C42	C	0.761843	1.174137	0.598320
C43	C	0.094636	0.471221	-0.000110
C44	C	0.427970	0.804555	0.333223
C45	C	0.761303	1.137888	0.666557
C46	C	0.095176	0.507423	0.068141
C47	C	0.428510	0.840756	0.401474
C48	C	0.761843	1.174089	0.734808
C49	C	0.096245	0.579867	0.068148
C50	C	0.429579	0.913201	0.401482
C51	C	0.762912	1.246534	0.734815
C52	C	0.052256	0.361886	0.052164
C53	C	0.385590	0.695219	0.385498
C54	C	0.718923	1.028552	0.718831
C55	C	0.051183	0.289443	0.052155
C56	C	0.384516	0.622776	0.385488
C57	C	0.717850	0.956110	0.718821
C58	C	0.091342	0.247778	-0.000129
C59	C	0.424675	0.581111	0.333204
C60	C	0.758009	0.914444	0.666538
C61	C	0.132566	0.278565	-0.052416
C62	C	0.465899	0.611898	0.280918
C63	C	0.799233	0.945232	0.614251
C64	C	0.133635	0.351010	-0.052408
C65	C	0.466968	0.684343	0.280925
C66	C	0.800302	1.017676	0.614258
C67	C	0.093477	0.392667	-0.000110
C68	C	0.426811	0.726001	0.333223
C69	C	0.760144	1.059334	0.666557
C70	C	0.089655	0.133029	-0.068386
C71	C	0.422989	0.466362	0.264948
C72	C	0.756322	0.799696	0.598281
C73	C	0.088598	0.060580	-0.068392
C74	C	0.421931	0.393913	0.264941
C75	C	0.755264	0.727247	0.598275
C76	C	0.088591	0.060535	0.068098
C77	C	0.421924	0.393868	0.401431
C78	C	0.755258	0.727202	0.734765
C79	C	0.089656	0.132982	0.068102
C80	C	0.422989	0.466315	0.401436
C81	C	0.756322	0.799648	0.734769
C82	C	0.090185	0.169225	-0.000142
C83	C	0.423518	0.502558	0.333192
C84	C	0.756851	0.835891	0.666525
C85	C	-0.034591	0.825692	-0.000105
C86	C	0.298743	1.159025	0.333228
C87	C	0.632076	1.492358	0.666561
C88	C	-0.111694	0.824563	-0.000099
C89	C	0.221639	1.157896	0.333235
C90	C	0.554973	1.491229	0.666568
C91	C	-0.156396	0.887331	-0.000103
C92	C	0.176937	1.220665	0.333231
C93	C	0.510271	1.553998	0.666564
C94	C	-0.228843	0.886270	-0.000114
C95	C	0.104490	1.219604	0.333219
C96	C	0.437824	1.552937	0.666552
C97	C	-0.256585	0.822438	-0.000107
C98	C	0.076749	1.155771	0.333226
C99	C	0.410082	1.489104	0.666560
C100	C	-0.211873	0.759661	-0.000107
C101	C	0.121460	1.092994	0.333226
C102	C	0.454794	1.426327	0.666559
C103	C	-0.139428	0.760723	-0.000103
C104	C	0.193906	1.094056	0.333230
C105	C	0.527239	1.427390	0.666564
C106	C	-0.364870	0.772251	0.043750
C107	C	-0.031536	1.105584	0.377083
C108	C	0.301797	1.438918	0.710417
C109	C	-0.437314	0.771191	0.043750
C110	C	-0.103981	1.104524	0.377084
C111	C	0.229353	1.437858	0.710417
C112	C	-0.480030	0.819158	-0.000123
C113	C	-0.146697	1.152491	0.333210
C114	C	0.186637	1.485825	0.666543
C115	C	-0.450295	0.868196	-0.043988
C116	C	-0.116961	1.201530	0.289345
C117	C	0.216372	1.534863	0.622679
C118	C	-0.377849	0.869259	-0.043984
C119	C	-0.044516	1.202592	0.289350
C120	C	0.288818	1.535926	0.622683
C121	C	-0.335139	0.821278	-0.000112
C122	C	-0.001805	1.154612	0.333221
C123	C	0.331528	1.487945	0.666555
C124	C	-0.603288	0.880781	-0.000141
C125	C	-0.269955	1.214114	0.333192
C126	C	0.063379	1.547447	0.666525
C127	C	-0.675736	0.879717	-0.000158
C128	C	-0.342403	1.213051	0.333176
C129	C	-0.009069	1.546384	0.666509
C130	C	-0.658764	0.753106	-0.000143
C131	C	-0.325431	1.086439	0.333190
C132	C	0.007902	1.419772	0.666524
C133	C	-0.586318	0.754171	-0.000134
C134	C	-0.252985	1.087504	0.333199
C135	C	0.080349	1.420838	0.666533
C136	C	-0.558584	0.818010	-0.000130
C137	C	-0.225251	1.151344	0.333204
C138	C	0.108082	1.484677	0.666537
C139	C	0.219424	0.814755	-0.000140
C140	C	0.552757	1.148088	0.333193
C141	C	0.886091	1.481422	0.666527
C142	C	0.296527	0.815884	-0.000152
C143	C	0.629861	1.149217	0.333182
C144	C	0.963194	1.482551	0.666515
C145	C	0.086937	0.947232	-0.000139
C146	C	0.420270	1.280565	0.333194
C147	C	0.753604	1.613898	0.666527
C148	C	0.088059	1.024336	-0.000154
C149	C	0.421392	1.357669	0.333179
C150	C	0.754726	1.691003	0.666512
N151	N	0.092409	0.820202	0.178034
N152	N	0.425742	1.153535	0.511367
N153	N	0.759075	1.486868	0.844700
N154	N	0.092419	0.820250	-0.178277
N155	N	0.425753	1.153584	0.155056
N156	N	0.759086	1.486917	0.488390
C157	C	0.045059	0.867586	0.217421
C158	C	0.378392	1.200919	0.550755
C159	C	0.711726	1.534253	0.884088
C160	C	0.045056	0.867590	0.296223
C161	C	0.378389	1.200923	0.629556
C162	C	0.711722	1.534257	0.962890
C163	C	0.092414	0.820216	0.335634
C164	C	0.425747	1.153550	0.668967
C165	C	0.759081	1.486883	1.002301
C166	C	0.139767	0.772823	0.296237
C167	C	0.473100	1.106157	0.629570
C168	C	0.806434	1.439490	0.962904
C169	C	0.139764	0.772816	0.217437
C170	C	0.473098	1.106149	0.550770
C171	C	0.806431	1.439483	0.884103
C172	C	0.155703	0.810917	0.460464
C173	C	0.489036	1.144251	0.793797
C174	C	0.822369	1.477584	1.127131
C175	C	0.155706	0.810930	0.539263
C176	C	0.489040	1.144263	0.872596
C177	C	0.822373	1.477596	1.205929
C178	C	0.092422	0.820235	0.578680
C179	C	0.425756	1.153568	0.912014
C180	C	0.759089	1.486901	1.245347
C181	C	0.029132	0.829543	0.539290
C182	C	0.362465	1.162876	0.872623
C183	C	0.695799	1.496209	1.205956
C184	C	0.029129	0.829535	0.460489
C185	C	0.362463	1.162869	0.793823
C186	C	0.695796	1.496202	1.127156
C187	C	0.092422	0.820219	0.421080
C188	C	0.425755	1.153552	0.754413
C189	C	0.759089	1.486885	1.087746
C190	C	0.045065	0.867626	0.703514
C191	C	0.378399	1.200959	1.036847
C192	C	0.711732	1.534293	1.370181
C193	C	0.045061	0.867625	0.782317
C194	C	0.378395	1.200959	1.115651
C195	C	0.711728	1.534292	1.448984
C196	C	0.139779	0.772862	0.782330
C197	C	0.473112	1.106195	1.115663
C198	C	0.806445	1.439528	1.448996
C199	C	0.139777	0.772859	0.703528
C200	C	0.473110	1.106193	1.036861
C201	C	0.806444	1.439526	1.370195
C202	C	0.092421	0.820245	0.664125
C203	C	0.425754	1.153578	0.997458
C204	C	0.759088	1.486912	1.330791
H205	H	0.096669	0.609422	-0.123907
H206	H	0.430002	0.942755	0.209426
H207	H	0.763336	1.276088	0.542759
Br208	Br	-0.118760	0.973970	-0.000118
Br209	Br	0.214573	1.307303	0.333216
Br210	Br	0.547906	1.640636	0.666549
Br211	Br	0.189580	0.392791	-0.123362
Br212	Br	0.522913	0.726124	0.209971
Br213	Br	0.856247	1.059458	0.543304
H214	H	-0.265246	0.937386	-0.000121
H215	H	0.068087	1.270719	0.333213
H216	H	0.401420	1.604053	0.666546
H217	H	0.207239	0.803328	0.428377
H218	H	0.540573	1.136661	0.761710
H219	H	0.873906	1.469994	1.095043
Br220	Br	0.187074	0.222028	-0.123376
Br221	Br	0.520407	0.555361	0.209957
Br222	Br	0.853740	0.888695	0.543291
Br223	Br	-0.337494	0.935804	-0.103515
Br224	Br	-0.004161	1.269138	0.229819
Br225	Br	0.329172	1.602471	0.563152
Br226	Br	0.096974	0.628990	0.160770
Br227	Br	0.430308	0.962324	0.494103
Br228	Br	0.763641	1.295657	0.827437
Br229	Br	-0.508257	0.933300	-0.103535
Br230	Br	-0.174924	1.266633	0.229798
Br231	Br	0.158409	1.599967	0.563132
H232	H	0.090094	0.162539	-0.123954
H233	H	0.423427	0.495872	0.209379
H234	H	0.756760	0.829205	0.542713
Br235	Br	0.094450	0.458339	-0.160968
Br236	Br	0.427783	0.791673	0.172366
Br237	Br	0.761117	1.125006	0.505699
Br238	Br	-0.565645	0.967417	-0.000128
Br239	Br	-0.232312	1.300751	0.333206
Br240	Br	0.101022	1.634084	0.666539
Br241	Br	-0.736406	0.964911	-0.000171
Br242	Br	-0.403072	1.298245	0.333162
Br243	Br	-0.069739	1.631578	0.666495
H244	H	0.207241	0.803355	0.571329
H245	H	0.540574	1.136688	0.904662
H246	H	0.873907	1.470022	1.237995
Br247	Br	0.204042	0.708552	0.650067
Br248	Br	0.537375	1.041885	0.983400
Br249	Br	0.870709	1.375218	1.316734
Br250	Br	-0.019205	0.931932	0.650036
Br251	Br	0.314129	1.265265	0.983370
Br252	Br	0.647462	1.598599	1.316703
Br253	Br	-0.078756	0.675530	-0.000100
Br254	Br	0.254577	1.008864	0.333234
Br255	Br	0.587910	1.342197	0.666567
H256	H	0.006497	0.906177	0.328298
H257	H	0.339830	1.239510	0.661632
H258	H	0.673163	1.572844	0.994965
H259	H	0.088165	0.031112	-0.123965
H260	H	0.421499	0.364446	0.209368
H261	H	0.754832	0.697779	0.542701
Br262	Br	0.087869	0.011347	0.160707
Br263	Br	0.421202	0.344680	0.494041
Br264	Br	0.754535	0.678013	0.827374
Br265	Br	0.204035	0.708525	0.349720
Br266	Br	0.537368	1.041858	0.683054
Br267	Br	0.870702	1.375191	1.016387
H268	H	-0.022404	0.837112	0.428420
H269	H	0.310930	1.170446	0.761754
H270	H	0.644263	1.503779	1.095087
H271	H	0.090088	0.162451	0.123672
H272	H	0.423421	0.495784	0.457006
H273	H	0.756754	0.829118	0.790339
H274	H	-0.461518	0.731258	0.079463
H275	H	-0.128185	1.064591	0.412797
H276	H	0.205148	1.397925	0.746130
Br277	Br	-0.004745	0.247665	0.123128
Br278	Br	0.328588	0.580998	0.456462
Br279	Br	0.661921	0.914332	0.789795
H280	H	0.178336	0.734287	0.814418
H281	H	0.511669	1.067620	1.147751
H282	H	0.845003	1.400953	1.481084
H283	H	0.019552	0.395805	0.094744
H284	H	0.352885	0.729138	0.428077
H285	H	0.686218	1.062471	0.761410
Br286	Br	-0.696406	0.666474	-0.000141
Br287	Br	-0.363072	0.999807	0.333193
Br288	Br	-0.029739	1.333140	0.666526
Br289	Br	0.094451	0.458229	0.160749
Br290	Br	0.427785	0.791562	0.494083
Br291	Br	0.761118	1.124896	0.827416
Br292	Br	-0.525647	0.668980	-0.000128
Br293	Br	-0.192313	1.002313	0.333205
Br294	Br	0.141020	1.335647	0.666539
H295	H	-0.330095	0.733189	0.079481
H296	H	0.003238	1.066522	0.412815
H297	H	0.336572	1.399855	0.746148
Br298	Br	-0.249520	0.673029	-0.000107
Br299	Br	0.083813	1.006363	0.333227
Br300	Br	0.417146	1.339696	0.666560
Br301	Br	-0.019210	0.931931	0.835776
Br302	Br	0.314124	1.265265	1.169110
Br303	Br	0.647457	1.598598	1.502443
H304	H	0.006498	0.906168	0.185341
H305	H	0.339831	1.239502	0.518675
H306	H	0.673164	1.572835	0.852008
Br307	Br	-0.056759	0.842181	0.592774
Br308	Br	0.276574	1.175514	0.926108
Br309	Br	0.609907	1.508847	1.259441
Br310	Br	0.204029	0.708503	0.163977
Br311	Br	0.537362	1.041837	0.497310
Br312	Br	0.870695	1.375170	0.830644
