data_functionalizedCrystal
_audit_creation_method	'MofGen! by Chris Wilmer'
_symmetry_space_group_name_H-M	'P1'
_symmetry_Int_Tables_number	1
_symmetry_cell_setting	triclinic
loop_
_symmetry_equiv_pos_as_xyz
  x,y,z
_cell_length_a	6.394989
_cell_length_b	10.654550
_cell_length_c	9.730223
_cell_angle_alpha	89.993622
_cell_angle_beta	89.997062
_cell_angle_gamma	94.508693
loop_
_atom_site_label
_atom_site_type_symbol
_atom_site_fract_x
_atom_site_fract_y
_atom_site_fract_z
O1	O	-0.293428	1.670947	-0.114394
O2	O	-0.321385	1.305764	-0.114371
O3	O	-0.003417	1.493539	-0.114383
O4	O	-0.611395	1.483172	-0.114381
O5	O	-0.003435	1.493527	0.114197
O6	O	-0.321403	1.305752	0.114209
O7	O	-0.293445	1.670935	0.114186
Zn8	Zn	-0.307427	1.488342	0.150490
Zn9	Zn	-0.307403	1.488358	-0.150674
O10	O	-0.611413	1.483160	0.114199
C11	C	-0.319341	1.258939	-0.000078
C12	C	-0.313199	1.119430	-0.000069
N13	N	-0.307441	1.488340	0.356026
C14	C	-0.500414	1.041927	-0.000089
C15	C	-0.494630	0.910845	-0.000112
C16	C	-0.114402	0.934782	-0.000103
C17	C	-0.120188	1.065861	-0.000070
C18	C	-0.719936	1.028107	-0.000100
C19	C	-0.714152	0.897025	-0.000124
C20	C	0.074425	1.491483	-0.000098
C21	C	0.310751	1.485219	-0.000099
C22	C	-0.295489	1.717760	-0.000109
C23	C	-0.301631	1.857269	-0.000127
N24	N	-0.307372	1.488369	-0.356210
C25	C	-0.435323	1.566524	0.427961
C26	C	-0.435284	1.566542	0.571844
C27	C	-0.179476	1.410182	0.571845
C28	C	-0.179505	1.410171	0.427964
C29	C	-0.583019	1.656793	0.427962
C30	C	-0.582980	1.656812	0.571845
H31	H	0.032261	1.128960	-0.000034
H32	H	-0.796858	0.856173	-0.095791
C33	C	-0.814370	1.077291	-0.133405
H34	H	-0.852431	1.008487	-0.192789
H35	H	-0.713671	1.133846	-0.177688
H36	H	-0.935303	1.119866	-0.111975
C37	C	-0.038823	1.324177	0.348840
H38	H	0.037356	1.277618	0.412294
H39	H	0.056513	1.374130	0.292689
H40	H	-0.123560	1.267706	0.292737
H41	H	-0.780502	0.852051	0.098561
C42	C	-0.513659	1.789858	0.375169
H43	H	-0.485091	1.844589	0.451094
H44	H	-0.622411	1.820249	0.320938
H45	H	-0.390644	1.786826	0.320918
H46	H	-0.517308	1.750707	0.616441
C47	C	-0.795531	1.605646	0.367699
H48	H	-0.890149	1.582882	0.440426
H49	H	-0.776347	1.533756	0.312758
H50	H	-0.851220	1.668760	0.312748
H51	H	-0.075315	1.346539	0.630434
C52	C	-0.835946	1.068961	0.129121
H53	H	-0.879710	0.996813	0.182252
H54	H	-0.955150	1.111009	0.102548
H55	H	-0.744524	1.124253	0.182295
H56	H	0.042742	0.891149	-0.000125
C57	C	-0.805502	1.617332	0.624644
H58	H	-0.897040	1.601075	0.548720
H59	H	-0.854266	1.683175	0.678882
H60	H	-0.802470	1.543355	0.678887
