data_functionalizedCrystal
_audit_creation_method	'MofGen! by Chris Wilmer'
_symmetry_space_group_name_H-M	'P1'
_symmetry_Int_Tables_number	1
_symmetry_cell_setting	triclinic
loop_
_symmetry_equiv_pos_as_xyz
  x,y,z
_cell_length_a	10.540510
_cell_length_b	14.044220
_cell_length_c	12.503572
_cell_angle_alpha	86.156832
_cell_angle_beta	86.446316
_cell_angle_gamma	91.148906
loop_
_atom_site_label
_atom_site_type_symbol
_atom_site_fract_x
_atom_site_fract_y
_atom_site_fract_z
O1	O	1.706116	-0.128108	-0.089331
O2	O	1.337974	-0.140733	-0.089332
O3	O	1.516518	0.003600	-0.089321
O4	O	1.527572	-0.272442	-0.089342
O5	O	1.503093	-0.007273	0.089321
O6	O	1.324549	-0.151606	0.089309
O7	O	1.692690	-0.138981	0.089310
Cu8	Cu	1.507394	-0.146287	0.105621
Cu9	Cu	1.523271	-0.133428	-0.105643
O10	O	1.514146	-0.283315	0.089299
C11	C	1.283863	-0.145229	-0.000011
C12	C	1.142628	-0.142414	-0.000011
C13	C	0.935341	-0.242657	-0.000429
C14	C	1.082210	-0.245684	-0.000020
C15	C	1.084857	-0.095759	0.102003
C16	C	0.937861	-0.093492	0.102082
C17	C	0.953104	-0.078977	-0.101066
C18	C	1.100042	-0.083794	-0.102408
C19	C	1.504968	0.033510	0.000000
C20	C	1.490538	0.138833	0.000002
C21	C	1.746802	-0.134486	-0.000012
C22	C	1.888037	-0.137300	-0.000019
C23	C	1.525697	-0.313225	-0.000024
C24	C	1.540127	-0.418547	-0.000032
N25	N	1.496236	-0.155330	0.254213
C26	C	1.464158	0.331671	-0.000014
C27	C	1.566501	0.388620	-0.000017
C28	C	1.551823	0.495922	-0.000025
C29	C	1.478834	0.224359	-0.000005
N30	N	1.534438	-0.124377	-0.254234
C31	C	1.479823	-0.168641	0.473327
C32	C	1.550847	-0.111069	0.526659
C33	C	1.541715	-0.118476	0.648581
C34	C	1.488953	-0.161236	0.351393
H35	H	1.124275	-0.019964	0.105803
H36	H	1.365524	0.363501	-0.000017
C37	C	1.118837	-0.307880	0.098950
H38	H	1.043910	-0.331387	0.139067
H39	H	1.167284	-0.360009	0.076225
H40	H	1.167900	-0.270598	0.142639
H41	H	1.412163	-0.223489	0.519230
C42	C	1.642299	-0.036999	0.464648
H43	H	1.636545	-0.041689	0.389649
H44	H	1.619882	0.025295	0.483002
H45	H	1.726911	-0.048931	0.483022
H46	H	1.121233	-0.282590	-0.073151
C47	C	1.699761	0.345630	-0.000003
H48	H	1.762044	0.395474	-0.000011
H49	H	1.705039	0.303666	0.062296
H50	H	1.714417	0.311236	-0.062304
H51	H	0.902954	-0.278437	-0.073590
H52	H	1.113718	-0.137092	0.177917
H53	H	0.890412	-0.287086	0.072310
H54	H	0.906708	-0.016535	0.106722
C55	C	0.880717	-0.148575	0.205082
H56	H	0.947382	-0.172128	0.246480
H57	H	0.830177	-0.107067	0.245871
H58	H	0.829358	-0.200532	0.186433
H59	H	0.919660	-0.106838	-0.178387
H60	H	1.138220	-0.117664	-0.177878
C61	C	1.156638	0.018569	-0.110721
H62	H	1.207199	0.026935	-0.051584
H63	H	1.207887	0.029038	-0.175827
H64	H	1.089732	0.062892	-0.109854
H65	H	0.923163	-0.001400	-0.101750
