data_functionalizedCrystal
_audit_creation_method	'MofGen! by Chris Wilmer'
_symmetry_space_group_name_H-M	'P1'
_symmetry_Int_Tables_number	1
_symmetry_cell_setting	triclinic
loop_
_symmetry_equiv_pos_as_xyz
  x,y,z
_cell_length_a	17.699083
_cell_length_b	17.699083
_cell_length_c	18.366186
_cell_angle_alpha	89.992864
_cell_angle_beta	89.996982
_cell_angle_gamma	83.283015
loop_
_atom_site_label
_atom_site_type_symbol
_atom_site_fract_x
_atom_site_fract_y
_atom_site_fract_z
O1	O	1.004081	0.095712	-0.060449
O2	O	1.337414	0.429046	0.272884
O3	O	1.670747	0.762379	0.606218
O4	O	0.783702	0.108165	-0.060473
O5	O	1.117036	0.441498	0.272860
O6	O	1.450369	0.774831	0.606194
O7	O	0.900118	-0.008251	-0.060454
O8	O	1.233451	0.325083	0.272879
O9	O	1.566784	0.658416	0.606213
O10	O	0.887665	0.212128	-0.060468
O11	O	1.220999	0.545461	0.272865
O12	O	1.554332	0.878794	0.606199
O13	O	0.900098	-0.008256	0.060645
O14	O	1.233431	0.325077	0.393979
O15	O	1.566765	0.658410	0.727312
O16	O	0.783683	0.108159	0.060626
O17	O	1.117016	0.441492	0.393960
O18	O	1.450349	0.774826	0.727293
O19	O	1.004061	0.095707	0.060650
O20	O	1.337394	0.429040	0.393984
O21	O	1.670728	0.762373	0.727317
Zn22	Zn	0.893869	0.101932	0.079865
Zn23	Zn	1.227202	0.435265	0.413199
Zn24	Zn	1.560535	0.768599	0.746532
Zn25	Zn	0.893895	0.101939	-0.079688
Zn26	Zn	1.227228	0.435273	0.253645
Zn27	Zn	1.560561	0.768606	0.586978
O28	O	0.887645	0.212122	0.060631
O29	O	1.220979	0.545455	0.393965
O30	O	1.554312	0.878789	0.727298
C31	C	0.755495	0.107716	0.000074
C32	C	1.088829	0.441049	0.333407
C33	C	1.422162	0.774382	0.666740
C34	C	0.671477	0.106377	0.000065
C35	C	1.004811	0.439710	0.333398
C36	C	1.338144	0.773044	0.666731
C37	C	0.899662	-0.036451	0.000096
C38	C	1.232995	0.296883	0.333429
C39	C	1.566328	0.630216	0.666762
C40	C	0.898323	-0.120469	0.000096
C41	C	1.231656	0.212865	0.333429
C42	C	1.564990	0.546198	0.666763
C43	C	0.622856	0.174710	0.000060
C44	C	0.956190	0.508044	0.333394
C45	C	1.289523	0.841377	0.666727
C46	C	0.543913	0.173448	0.000070
C47	C	0.877246	0.506782	0.333403
C48	C	1.210580	0.840115	0.666737
C49	C	0.513592	0.103852	0.000078
C50	C	0.846926	0.437185	0.333412
C51	C	1.180259	0.770518	0.666745
C52	C	0.562219	0.035513	0.000085
C53	C	0.895553	0.368846	0.333418
C54	C	1.228886	0.702180	0.666751
C55	C	0.641161	0.036776	0.000081
C56	C	0.974495	0.370109	0.333414
C57	C	1.307828	0.703443	0.666747
C58	C	0.243856	0.030418	0.000103
C59	C	0.577190	0.363751	0.333436
C60	C	0.910523	0.697085	0.666770
C61	C	0.164908	0.029160	0.000105
C62	C	0.498242	0.362493	0.333439
C63	C	0.831575	0.695827	0.666772
C64	C	0.146608	0.167090	0.000093
C65	C	0.479942	0.500423	0.333426
C66	C	0.813275	0.833757	0.666759
C67	C	0.225550	0.168353	0.000088
C68	C	0.558883	0.501686	0.333422
C69	C	0.892217	0.835020	0.666755
C70	C	0.274170	0.100015	0.000098
C71	C	0.607504	0.433348	0.333432
C72	C	0.940837	0.766681	0.666765
C73	C	0.359769	0.101384	0.000090
C74	C	0.693103	0.434718	0.333423
C75	C	1.026436	0.768051	0.666756
C76	C	0.427995	0.102481	0.000082
C77	C	0.761328	0.435815	0.333416
C78	C	1.094661	0.769148	0.666749
C79	C	0.966656	-0.169090	0.000104
C80	C	1.299990	0.164244	0.333438
C81	C	1.633323	0.497577	0.666771
C82	C	0.965394	-0.248033	0.000098
C83	C	1.298727	0.085300	0.333431
C84	C	1.632061	0.418634	0.666765
C85	C	0.895798	-0.278354	0.000088
C86	C	1.229131	0.054980	0.333421
C87	C	1.562464	0.388313	0.666755
C88	C	0.827459	-0.229727	0.000077
C89	C	1.160792	0.103607	0.333411
C90	C	1.494126	0.436940	0.666744
C91	C	0.828722	-0.150785	0.000079
C92	C	1.162055	0.182549	0.333412
C93	C	1.495389	0.515882	0.666745
C94	C	0.822364	-0.548090	0.000071
C95	C	1.155697	-0.214756	0.333404
C96	C	1.489030	0.118577	0.666738
C97	C	0.821106	-0.627038	0.000072
C98	C	1.154439	-0.293704	0.333405
C99	C	1.487773	0.039629	0.666738
C100	C	0.959036	-0.645338	0.000090
C101	C	1.292369	-0.312004	0.333423
C102	C	1.625702	0.021329	0.666757
C103	C	0.960299	-0.566396	0.000091
C104	C	1.293632	-0.233063	0.333425
C105	C	1.626966	0.100271	0.666758
C106	C	0.891961	-0.517776	0.000077
C107	C	1.225294	-0.184442	0.333410
C108	C	1.558627	0.148891	0.666744
C109	C	0.893330	-0.432177	0.000083
C110	C	1.226664	-0.098843	0.333416
C111	C	1.559997	0.234490	0.666749
C112	C	0.894427	-0.363951	0.000087
C113	C	1.227761	-0.030618	0.333421
C114	C	1.561094	0.302715	0.666754
C115	C	1.032268	0.096156	0.000102
C116	C	1.365601	0.429489	0.333435
C117	C	1.698934	0.762822	0.666769
C118	C	1.116286	0.097494	0.000106
C119	C	1.449619	0.430828	0.333440
C120	C	1.782953	0.764161	0.666773
C121	C	0.888102	0.240322	0.000080
C122	C	1.221435	0.573655	0.333413
C123	C	1.554768	0.906989	0.666747
C124	C	0.889440	0.324340	0.000075
C125	C	1.222773	0.657673	0.333408
C126	C	1.556107	0.991007	0.666742
N127	N	0.893856	0.101926	0.188757
N128	N	1.227190	0.435260	0.522090
N129	N	1.560523	0.768593	0.855423
N130	N	0.893913	0.101939	-0.188579
N131	N	1.227246	0.435272	0.144754
N132	N	1.560580	0.768606	0.478087
C133	C	0.945422	0.050403	0.226865
C134	C	1.278755	0.383736	0.560199
C135	C	1.612089	0.717069	0.893532
C136	C	0.945427	0.050399	0.303093
C137	C	1.278760	0.383733	0.636427
C138	C	1.612093	0.717066	0.969760
C139	C	0.893873	0.101933	0.341209
C140	C	1.227206	0.435266	0.674543
C141	C	1.560540	0.768599	1.007876
C142	C	0.842298	0.153460	0.303091
C143	C	1.175631	0.486793	0.636425
C144	C	1.508965	0.820127	0.969758
C145	C	0.842289	0.153457	0.226865
C146	C	1.175623	0.486790	0.560198
C147	C	1.508956	0.820123	0.893532
C148	C	0.883830	0.170882	0.461965
C149	C	1.217164	0.504215	0.795298
C150	C	1.550497	0.837548	1.128631
C151	C	0.883844	0.170886	0.538190
C152	C	1.217177	0.504219	0.871523
C153	C	1.550511	0.837552	1.204856
C154	C	0.893895	0.101942	0.576317
C155	C	1.227228	0.435275	0.909650
C156	C	1.560561	0.768609	1.242984
C157	C	0.903948	0.032991	0.538210
C158	C	1.237281	0.366325	0.871543
C159	C	1.570614	0.699658	1.204877
C160	C	0.903939	0.032988	0.461984
C161	C	1.237273	0.366321	0.795317
C162	C	1.570606	0.699655	1.128650
C163	C	0.893876	0.101941	0.423864
C164	C	1.227210	0.435275	0.757197
C165	C	1.560543	0.768608	1.090531
C166	C	0.945468	0.050411	0.697081
C167	C	1.278802	0.383744	1.030414
C168	C	1.612135	0.717077	1.363747
C169	C	0.945468	0.050406	0.773310
C170	C	1.278801	0.383740	1.106643
C171	C	1.612134	0.717073	1.439977
C172	C	0.842343	0.153473	0.773306
C173	C	1.175676	0.486807	1.106640
C174	C	1.509009	0.820140	1.439973
C175	C	0.842339	0.153471	0.697079
C176	C	1.175673	0.486804	1.030412
C177	C	1.509006	0.820138	1.363745
C178	C	0.893906	0.101941	0.658970
C179	C	1.227240	0.435274	0.992304
C180	C	1.560573	0.768607	1.325637
H181	H	0.647537	0.231384	0.000053
H182	H	0.980870	0.564717	0.333386
H183	H	1.314204	0.898051	0.666720
H184	H	1.014680	-0.684934	0.000098
H185	H	1.348013	-0.351601	0.333431
H186	H	1.681347	-0.018268	0.666765
H187	H	0.875633	0.227027	0.430928
H188	H	1.208966	0.560361	0.764261
H189	H	1.542299	0.893694	1.097594
H190	H	0.680748	-0.018868	0.000084
H191	H	1.014082	0.314465	0.333417
H192	H	1.347415	0.647799	0.666750
Cl193	Cl	0.482792	0.259357	0.000060
Cl194	Cl	0.816126	0.592691	0.333394
Cl195	Cl	1.149459	0.926024	0.666727
Cl196	Cl	0.524102	-0.051980	0.000100
Cl197	Cl	0.857435	0.281353	0.333433
Cl198	Cl	1.190768	0.614686	0.666767
Cl199	Cl	1.051303	-0.309154	0.000111
Cl200	Cl	1.384637	0.024180	0.333444
Cl201	Cl	1.717970	0.357513	0.666777
Cl202	Cl	1.054154	-0.130980	0.000124
Cl203	Cl	1.387488	0.202353	0.333458
Cl204	Cl	1.720821	0.535686	0.666791
H205	H	0.800298	0.195414	0.195836
H206	H	1.133631	0.528747	0.529169
H207	H	1.466964	0.862081	0.862503
H208	H	0.764429	-0.651721	0.000065
H209	H	1.097762	-0.318388	0.333398
H210	H	1.431096	0.014946	0.666732
H211	H	0.912132	-0.023149	0.569251
H212	H	1.245465	0.310184	0.902585
H213	H	1.578798	0.643517	1.235918
H214	H	0.773078	-0.111198	0.000072
H215	H	1.106411	0.222136	0.333405
H216	H	1.439745	0.555469	0.666738
H217	H	0.250232	0.225025	0.000078
H218	H	0.583566	0.558359	0.333411
H219	H	0.916899	0.891692	0.666745
H220	H	0.987455	0.008449	0.666052
H221	H	1.320788	0.341782	0.999385
H222	H	1.654122	0.675116	1.332718
Cl223	Cl	0.126793	-0.058340	0.000116
Cl224	Cl	0.460126	0.274994	0.333450
Cl225	Cl	0.793459	0.608327	0.666783
H226	H	0.107012	0.222734	0.000088
H227	H	0.440345	0.556067	0.333422
H228	H	0.773678	0.889401	0.666755
H229	H	0.987456	0.008446	0.804339
H230	H	1.320790	0.341779	1.137672
H231	H	1.654123	0.675112	1.471005
H232	H	0.800364	0.195430	0.804340
H233	H	1.133697	0.528763	1.137673
H234	H	1.467030	0.862096	1.471007
Cl235	Cl	0.777484	0.218242	0.351007
Cl236	Cl	1.110817	0.551575	0.684340
Cl237	Cl	1.444151	0.884908	1.017673
H238	H	0.283434	-0.025228	0.000112
H239	H	0.616767	0.308106	0.333445
H240	H	0.950101	0.641439	0.666779
H241	H	0.875663	0.227029	0.569210
H242	H	1.208996	0.560363	0.902544
H243	H	1.542330	0.893696	1.235877
Cl244	Cl	1.047795	-0.528283	0.000101
Cl245	Cl	1.381128	-0.194950	0.333435
Cl246	Cl	1.714462	0.138384	0.666768
H247	H	0.987419	0.008441	0.334127
H248	H	1.320752	0.341775	0.667461
H249	H	1.654086	0.675108	1.000794
H250	H	0.766718	-0.508512	0.000059
H251	H	1.100052	-0.175179	0.333393
H252	H	1.433385	0.158155	0.666726
H253	H	0.987409	0.008442	0.195840
H254	H	1.320742	0.341775	0.529173
H255	H	1.654076	0.675109	0.862507
H256	H	0.770792	-0.254420	0.000065
H257	H	1.104126	0.078913	0.333398
H258	H	1.437459	0.412247	0.666731
H259	H	0.912123	-0.023154	0.430960
H260	H	1.245456	0.310180	0.764293
H261	H	1.578790	0.643513	1.097627
Cl262	Cl	0.777515	0.218251	0.649166
Cl263	Cl	1.110848	0.551584	0.982499
Cl264	Cl	1.444182	0.884917	1.315832
