data_functionalizedCrystal
_audit_creation_method	'MofGen! by Chris Wilmer'
_symmetry_space_group_name_H-M	'P1'
_symmetry_Int_Tables_number	1
_symmetry_cell_setting	triclinic
loop_
_symmetry_equiv_pos_as_xyz
  x,y,z
_cell_length_a	16.109302
_cell_length_b	10.540510
_cell_length_c	15.186229
_cell_angle_alpha	89.998730
_cell_angle_beta	89.994701
_cell_angle_gamma	83.987546
loop_
_atom_site_label
_atom_site_type_symbol
_atom_site_fract_x
_atom_site_fract_y
_atom_site_fract_z
O1	O	1.104117	0.163165	-0.073263
O2	O	0.862177	0.183470	-0.073256
O3	O	0.988680	-0.011470	-0.073259
O4	O	0.977614	0.358105	-0.073260
O5	O	0.988671	-0.011473	0.073198
O6	O	0.862169	0.183467	0.073201
O7	O	1.104108	0.163163	0.073194
Zn8	Zn	0.983137	0.173314	0.096451
Zn9	Zn	0.983148	0.173318	-0.096513
O10	O	0.977606	0.358103	0.073198
C11	C	0.831193	0.182646	-0.000026
C12	C	0.738883	0.180179	-0.000024
C13	C	0.526503	0.174475	0.079802
C14	C	0.439769	0.172144	0.079798
C15	C	0.439789	0.172154	-0.079877
C16	C	0.526522	0.174475	-0.079873
C17	C	0.569876	0.175643	-0.000031
C18	C	0.396409	0.170990	-0.000038
C19	C	0.302368	0.168462	-0.000042
C20	C	0.663924	0.178168	-0.000027
C21	C	0.987851	-0.058763	-0.000033
C22	C	0.985384	-0.199678	-0.000038
C23	C	1.073264	-0.418386	0.000295
C24	C	1.075896	-0.271828	-0.000040
C25	C	0.939055	-0.243775	-0.083669
C26	C	0.937065	-0.390508	-0.083734
C27	C	0.935170	-0.390292	0.082815
C28	C	0.939463	-0.244012	0.083916
C29	C	1.135092	0.163987	-0.000038
C30	C	1.227402	0.166453	-0.000046
C31	C	0.978435	0.405396	-0.000031
C32	C	0.980902	0.546311	-0.000032
N33	N	0.983136	0.173311	0.228144
N34	N	0.983157	0.173311	-0.228205
C35	C	1.039170	0.087021	0.453865
C36	C	1.039173	0.087018	0.546055
C37	C	0.927116	0.259606	0.546067
C38	C	0.927110	0.259602	0.453879
C39	C	0.983142	0.173311	0.407780
C40	C	0.983150	0.173312	0.592158
C41	C	0.983153	0.173309	0.692114
C42	C	0.983139	0.173311	0.307818
H43	H	0.404479	0.171205	-0.144882
C44	C	0.973818	-0.448174	0.168453
N45	N	1.002937	-0.491772	0.232950
H46	H	0.881497	0.329864	0.583609
C47	C	0.392061	0.170875	0.167621
N48	N	0.356128	0.169922	0.233773
C49	C	0.865509	0.354590	0.403183
N50	N	0.819126	0.426151	0.364998
H51	H	0.561800	0.175425	0.144814
H52	H	0.869367	-0.412538	-0.087521
H53	H	1.084795	0.016751	0.583574
H54	H	1.108523	-0.460845	0.060271
C55	C	0.574236	0.175752	-0.167700
N56	N	0.610175	0.176709	-0.233849
H57	H	1.112145	-0.243002	0.059909
C58	C	1.120634	-0.477828	-0.080276
N59	N	1.156311	-0.522601	-0.140964
H60	H	0.968733	-0.431173	-0.146252
C61	C	1.125157	-0.234148	-0.081175
N62	N	1.162261	-0.205768	-0.142292
C63	C	0.850187	-0.176459	0.090740
N64	N	0.782940	-0.125580	0.095874
C65	C	0.843367	-0.418928	0.083589
N66	N	0.774226	-0.440509	0.084167
H67	H	0.872422	-0.195436	-0.086777
H68	H	0.973174	-0.215882	0.145785
C69	C	0.982534	-0.202722	-0.167754
N70	N	1.015288	-0.171806	-0.231086
H71	H	1.084793	0.016756	0.416334
