data_functionalizedCrystal
_audit_creation_method	'MofGen! by Chris Wilmer'
_symmetry_space_group_name_H-M	'P1'
_symmetry_Int_Tables_number	1
_symmetry_cell_setting	triclinic
loop_
_symmetry_equiv_pos_as_xyz
  x,y,z
_cell_length_a	21.295419
_cell_length_b	18.050589
_cell_length_c	18.050582
_cell_angle_alpha	90.018205
_cell_angle_beta	90.014908
_cell_angle_gamma	90.043022
loop_
_atom_site_label
_atom_site_type_symbol
_atom_site_fract_x
_atom_site_fract_y
_atom_site_fract_z
Zn1	Zn	0.962306	-0.295413	0.419935
Zn2	Zn	0.962230	-0.419597	0.295754
Zn3	Zn	0.857047	-0.295457	0.295759
Zn4	Zn	0.857003	-0.419598	0.419903
O5	O	0.909646	-0.357516	0.357838
O6	O	1.050385	-0.311868	0.403474
O7	O	0.948264	-0.403147	0.191830
O8	O	0.871060	-0.191527	0.312247
O9	O	1.050329	-0.403105	0.312239
O10	O	0.948393	-0.191495	0.403478
O11	O	0.870986	-0.311942	0.191834
O12	O	0.768951	-0.311944	0.312216
O13	O	0.870984	-0.403107	0.523832
O14	O	0.768919	-0.403149	0.403423
O15	O	0.948350	-0.311869	0.523855
O16	O	0.948221	-0.523521	0.312208
O17	O	0.870911	-0.523523	0.403419
C18	C	0.909570	-0.550469	0.357825
C19	C	0.909595	-0.633014	0.357845
C20	C	0.746095	-0.357552	0.357817
C21	C	0.676126	-0.357585	0.357826
C22	C	0.867595	-0.832492	0.407428
C23	C	0.852255	-0.881931	0.339661
C24	C	0.909657	-0.784145	0.357855
C25	C	0.925028	-0.881788	0.425630
C26	C	0.909716	-0.930130	0.357870
C27	C	0.894287	-0.832496	0.290051
C28	C	0.967087	-0.832348	0.376066
C29	C	0.951768	-0.881764	0.308252
C30	C	0.909622	-0.700046	0.357847
C31	C	0.909751	-1.014226	0.357870
C32	C	0.643311	-0.310156	0.405405
C33	C	0.577569	-0.310136	0.405408
C34	C	0.544644	-0.357558	0.357839
C35	C	0.577467	-0.404991	0.310250
C36	C	0.643208	-0.405004	0.310244
N37	N	0.441372	-0.422537	0.352045
N38	N	0.378920	-0.422522	0.352056
C39	C	0.346569	-0.357520	0.357856
N40	N	0.379029	-0.292532	0.363659
N41	N	0.441486	-0.292547	0.363652
C42	C	0.473359	-0.357549	0.357841
C43	C	0.242469	-0.310065	0.405441
C44	C	0.176725	-0.310044	0.405438
C45	C	0.176624	-0.404906	0.310285
C46	C	0.242367	-0.404920	0.310283
C47	C	0.275285	-0.357501	0.357865
C48	C	1.073836	-0.357481	0.357859
C49	C	1.143805	-0.357466	0.357868
C50	C	0.909671	-0.357483	0.551543
C51	C	0.909681	-0.357469	0.634089
C52	C	0.909740	-0.163811	0.357866
C53	C	0.909779	-0.081265	0.357879
C54	C	0.909658	-0.357496	0.164886
C55	C	0.909769	-0.357300	0.082340
C56	C	0.867642	-0.407017	0.833527
C57	C	0.925073	-0.425153	0.882920
C58	C	0.909712	-0.357413	0.785220
C59	C	0.852313	-0.339256	0.882909
C60	C	0.909737	-0.357359	0.931205
C61	C	0.967174	-0.375584	0.833525
C62	C	0.894375	-0.289656	0.833510
C63	C	0.951845	-0.307766	0.882880
C64	C	0.909697	-0.357445	0.701121
C65	C	0.909759	-0.357327	1.015301
H66	H	0.831973	-0.810856	0.449292
H67	H	0.803716	-0.903726	0.324272
H68	H	0.550656	-0.443603	0.271519
H69	H	1.015614	-0.810555	0.391488
H70	H	0.881253	-0.810934	0.232725
H71	H	0.550845	-0.271509	0.444152
H72	H	0.987364	-0.903263	0.266287
H73	H	0.803760	-0.323921	0.904602
H74	H	0.938006	-0.903440	0.482940
H75	H	0.670109	-0.271542	0.444150
H76	H	0.669926	-0.443629	0.271498
H77	H	0.987475	-0.265795	0.904413
H78	H	1.015741	-0.390984	0.811924
H79	H	0.269272	-0.271448	0.444180
H80	H	0.881370	-0.232395	0.811790
H81	H	0.150008	-0.271417	0.444182
H82	H	0.149818	-0.443518	0.271553
H83	H	0.269085	-0.443546	0.271542
H84	H	0.832098	-0.449020	0.811858
H85	H	0.938061	-0.482431	0.904623
