data_functionalizedCrystal
_audit_creation_method	'MofGen! by Chris Wilmer'
_symmetry_space_group_name_H-M	'P1'
_symmetry_Int_Tables_number	1
_symmetry_cell_setting	triclinic
loop_
_symmetry_equiv_pos_as_xyz
  x,y,z
_cell_length_a	6.817900
_cell_length_b	16.305550
_cell_length_c	11.102183
_cell_angle_alpha	93.871771
_cell_angle_beta	108.603876
_cell_angle_gamma	103.455250
loop_
_atom_site_label
_atom_site_type_symbol
_atom_site_fract_x
_atom_site_fract_y
_atom_site_fract_z
V1	V	-4.052574	-0.263030	-0.176911
O2	O	-4.012740	-0.258024	0.007398
O3	O	-4.029744	-0.261230	-0.349723
O4	O	-4.003648	-0.377747	-0.174674
O5	O	-4.039017	-0.140700	-0.168864
V6	V	-4.532957	-0.248398	-0.154808
O7	O	-4.320721	-0.295125	-0.225395
O8	O	-4.715008	-0.216303	-0.106324
O9	O	-4.332581	-0.250199	0.018004
O10	O	-4.690189	-0.253404	-0.339117
O11	O	-4.663911	-0.370728	-0.162856
O12	O	-4.358678	-0.133681	-0.157045
C13	C	-3.880983	-0.257080	-0.391836
C14	C	-3.943599	-0.256372	-0.533116
C15	C	-3.857871	-0.101856	-0.496208
C16	C	-3.844420	-0.024268	-0.544127
C17	C	-3.903261	-0.023608	-0.676872
C18	C	-3.975565	-0.100544	-0.761704
C19	C	-3.989016	-0.178132	-0.713785
C20	C	-3.930162	-0.178783	-0.581035
C21	C	-4.074758	-0.332647	-0.750693
C22	C	-4.015903	-0.333308	-0.617947
C23	C	-4.147062	-0.409583	-0.835525
C24	C	-4.160499	-0.487172	-0.787606
C25	C	-4.101650	-0.487829	-0.654851
C26	C	-4.029354	-0.410896	-0.570029
C27	C	-3.847692	-0.405708	-0.168542
C28	C	-3.889142	-0.499490	-0.167856
C29	C	-4.039834	-0.840236	-0.165200
C30	C	-3.802612	-0.799307	-0.157314
C31	C	-3.759603	-0.701812	-0.158553
C32	C	-3.965072	-0.671188	-0.166517
C33	C	-4.150785	-0.721813	-0.292032
C34	C	-4.192543	-0.819363	-0.291322
C35	C	-4.077232	-0.794393	-0.048574
C36	C	-4.029155	-0.696550	-0.047580
C37	C	-3.922834	-0.575650	-0.167266
C38	C	-4.082083	-0.935775	-0.164460
C39	C	-4.144686	-0.254346	0.060110
C40	C	-4.061307	-0.255059	0.201388
C41	C	-4.177976	-0.105716	-0.163182
C42	C	-4.115764	-0.011933	-0.163861
H43	H	-3.619675	-0.666789	-0.068308
H44	H	-3.971677	-0.807762	0.046528
H45	H	-4.249991	-0.821209	-0.053235
H46	H	-3.785551	0.038371	-0.475043
H47	H	-4.368017	-0.847354	-0.302330
F48	F	-3.646234	-0.815355	-0.038701
F49	F	-4.221357	-0.668641	-0.045529
H50	H	-3.769992	-0.830818	-0.241105
F51	F	-3.795212	-0.102551	-0.354926
F52	F	-3.888957	0.058968	-0.727873
F53	F	-4.352994	-0.697097	-0.305586
F54	F	-4.038222	-0.099838	-0.902984
F55	F	-3.689280	-0.680511	-0.269344
H56	H	-4.169538	-0.849743	-0.379612
H57	H	-4.219382	-0.549807	-0.856685
F58	F	-4.115989	-0.570410	-0.603865
H59	H	-3.894291	-0.662173	0.045258
F60	F	-4.209701	-0.408879	-0.976804
F61	F	-3.966710	-0.411588	-0.428746
F62	F	-4.095517	-0.699838	-0.407467
