data_functionalizedCrystal
_audit_creation_method	'MofGen! by Chris Wilmer'
_symmetry_space_group_name_H-M	'P1'
_symmetry_Int_Tables_number	1
_symmetry_cell_setting	triclinic
loop_
_symmetry_equiv_pos_as_xyz
  x,y,z
_cell_length_a	19.188905
_cell_length_b	19.188940
_cell_length_c	12.376457
_cell_angle_alpha	101.237575
_cell_angle_beta	78.739884
_cell_angle_gamma	83.141635
loop_
_atom_site_label
_atom_site_type_symbol
_atom_site_fract_x
_atom_site_fract_y
_atom_site_fract_z
O1	O	0.939617	0.073632	-0.094195
O2	O	0.736298	0.085390	-0.094156
O3	O	0.843820	-0.022143	-0.094168
O4	O	0.832094	0.181166	-0.094183
O5	O	0.816949	0.004703	0.093847
O6	O	0.709427	0.112237	0.093859
O7	O	0.912746	0.100479	0.093820
Zn8	Zn	0.806820	0.110621	0.123691
Zn9	Zn	0.842223	0.075249	-0.124027
O10	O	0.805224	0.208013	0.093832
C11	C	0.696850	0.098437	-0.000144
C12	C	0.619343	0.097305	-0.000129
C13	C	0.597599	0.082126	-0.102619
C14	C	0.524777	0.081051	-0.102633
C15	C	0.473703	0.095142	-0.000151
C16	C	0.495453	0.110327	0.102353
C17	C	0.568273	0.111409	0.102364
N18	N	0.353781	0.064604	0.076119
N19	N	0.284606	0.063574	0.076102
C20	C	0.254300	0.091885	-0.000178
N21	N	0.295785	0.121254	-0.076457
N22	N	0.364967	0.122281	-0.076443
C23	C	0.394741	0.093971	-0.000152
C24	C	0.153595	0.075540	-0.102690
C25	C	0.080771	0.074470	-0.102700
C26	C	0.051450	0.103740	0.102288
C27	C	0.124272	0.104817	0.102295
C28	C	0.175341	0.090713	-0.000197
C29	C	0.830003	-0.034731	-0.000161
C30	C	0.828860	-0.112235	-0.000161
C31	C	0.806082	-0.650863	0.102301
C32	C	0.807147	-0.578038	0.102307
C33	C	0.822331	-0.556252	-0.000179
C34	C	0.836432	-0.607297	-0.102678
C35	C	0.835359	-0.680119	-0.102681
N36	N	0.874651	-0.458126	-0.076469
N37	N	0.875671	-0.388946	-0.076459
C38	C	0.825564	-0.336843	-0.000176
N39	N	0.774405	-0.356531	0.076115
N40	N	0.773388	-0.425716	0.076108
C41	C	0.823496	-0.477290	-0.000187
C42	C	0.812615	-0.206842	0.102324
C43	C	0.813677	-0.134015	0.102326
C44	C	0.842970	-0.163277	-0.102662
C45	C	0.841900	-0.236101	-0.102661
C46	C	0.826726	-0.257879	-0.000165
C47	C	0.952193	0.087432	-0.000195
C48	C	1.029702	0.088563	-0.000217
C49	C	0.819040	0.220600	-0.000178
C50	C	0.820185	0.298103	-0.000185
N51	N	0.782663	0.134760	0.292752
N52	N	0.866386	0.051103	-0.293088
C53	C	0.922462	-0.004947	0.647722
C54	C	0.939365	-0.021843	0.529380
C55	C	0.900191	0.017306	0.470217
C56	C	0.844111	0.073354	0.529408
C57	C	0.827209	0.090256	0.647761
C58	C	0.804938	0.112509	0.470256
C59	C	0.748858	0.168557	0.529447
C60	C	0.731959	0.185455	0.647788
C61	C	0.771133	0.146306	0.706951
C62	C	0.821840	0.095608	0.351903
C63	C	0.726587	0.190811	0.351942
C64	C	0.709684	0.207706	0.470284
H65	H	0.639176	0.070642	-0.186076
N66	N	0.789695	-0.674347	0.212848
H67	H	0.791151	-0.728224	0.197299
H68	H	0.826758	-0.661029	0.257601
H69	H	0.954356	-0.036814	0.695900
N70	N	0.791934	-0.522981	0.212849
H71	H	0.782158	-0.547828	0.277778
H72	H	0.835019	-0.497929	0.217293
N73	N	-0.003626	0.118934	0.212826
H74	H	-0.053057	0.115944	0.197269
H75	H	0.008504	0.082236	0.257575
H76	H	0.802191	-0.092462	0.185786
N77	N	0.850607	-0.735164	-0.213235
H78	H	0.813937	-0.723102	-0.258060
H79	H	0.900490	-0.734632	-0.257922
N80	N	0.882316	0.035158	0.288056
H81	H	0.928907	0.046008	0.308622
H82	H	0.871421	-0.011407	0.308686
H83	H	0.141975	0.117173	0.185754
H84	H	0.855324	-0.145539	-0.186108
N85	N	0.208677	0.060338	-0.213233
H86	H	0.233749	0.103404	-0.217798
H87	H	0.245293	0.016840	-0.217730
H88	H	0.853389	-0.277656	-0.186117
N89	N	0.057315	0.058100	-0.213248
H90	H	0.100720	0.049327	-0.278170
H91	H	0.033536	0.013743	-0.217704
H92	H	0.848792	-0.589554	-0.186123
N93	N	0.501312	0.064680	-0.213179
H94	H	0.544714	0.055911	-0.278104
H95	H	0.477536	0.020321	-0.217635
H96	H	0.585975	0.123770	0.185826
N97	N	0.796247	-0.230338	0.212866
H98	H	0.787468	-0.186954	0.277794
H99	H	0.751891	-0.254123	0.217339
H100	H	0.913956	0.003547	0.373858
H101	H	0.757369	0.160060	0.803315
N102	N	0.671471	0.245903	0.711631
H103	H	0.682292	0.292498	0.691026
H104	H	0.624913	0.234975	0.691027
N105	N	0.440433	0.125077	0.212886
H106	H	0.391023	0.121936	0.197327
H107	H	0.452836	0.088166	0.257133
N108	N	0.649198	0.268156	0.534129
H109	H	0.644437	0.272918	0.618077
H110	H	0.660061	0.314714	0.513438
H111	H	0.694689	0.222691	0.303773
H112	H	0.985026	-0.067476	0.481191
