data_functionalizedCrystal
_audit_creation_method	'MofGen! by Chris Wilmer'
_symmetry_space_group_name_H-M	'P1'
_symmetry_Int_Tables_number	1
_symmetry_cell_setting	triclinic
loop_
_symmetry_equiv_pos_as_xyz
  x,y,z
_cell_length_a	11.026607
_cell_length_b	10.654550
_cell_length_c	9.130313
_cell_angle_alpha	90.000110
_cell_angle_beta	90.000251
_cell_angle_gamma	96.535460
loop_
_atom_site_label
_atom_site_type_symbol
_atom_site_fract_x
_atom_site_fract_y
_atom_site_fract_z
O1	O	-1.614591	-0.526872	-0.121797
O2	O	-1.260780	-0.466877	-0.121799
O3	O	-1.445820	-0.315901	-0.121792
O4	O	-1.429550	-0.677848	-0.121803
O5	O	-1.445818	-0.315906	0.121806
O6	O	-1.260777	-0.466881	0.121800
O7	O	-1.614588	-0.526877	0.121802
Cu8	Cu	-1.437683	-0.496879	0.144043
Cu9	Cu	-1.437685	-0.496874	-0.144040
O10	O	-1.429548	-0.677852	0.121796
C11	C	-1.215474	-0.455811	0.000000
C12	C	-1.080483	-0.422816	-0.000001
C13	C	-1.444624	-0.268846	0.000005
C14	C	-1.441050	-0.128627	0.000000
C15	C	-1.659893	-0.537943	-0.000000
C16	C	-1.794885	-0.570937	-0.000009
C17	C	-1.007444	-0.513920	-0.000004
C18	C	-0.867922	-0.479820	-0.000005
C19	C	-1.430744	-0.724907	-0.000005
C20	C	-1.434318	-0.865126	-0.000010
N21	N	-1.437690	-0.496885	0.346666
C22	C	-1.549999	-0.072791	0.000005
C23	C	-1.546633	0.058961	-0.000005
C24	C	-1.325361	0.079029	-0.000019
C25	C	-1.328727	-0.052720	-0.000020
C26	C	-1.677749	-0.084376	0.000020
C27	C	-1.674383	0.047376	0.000010
N28	N	-1.437688	-0.496861	-0.346663
C29	C	-1.519647	-0.430066	0.423321
C30	C	-1.519643	-0.430050	0.576658
C31	C	-1.355722	-0.563681	0.576671
C32	C	-1.355720	-0.563689	0.423337
C33	C	-1.614289	-0.352920	0.423314
C34	C	-1.614286	-0.352904	0.576651
H35	H	-1.048204	-0.617161	0.000001
C36	C	-1.265577	-0.637195	0.339015
H37	H	-1.277310	-0.627630	0.236713
H38	H	-1.279484	-0.724157	0.364158
H39	H	-1.184316	-0.605129	0.364136
H40	H	-1.593531	-0.251881	0.381697
H41	H	-0.835638	-0.674186	-0.000002
C42	C	-1.733537	-0.420113	0.359055
H43	H	-1.786644	-0.450024	0.436544
H44	H	-1.715617	-0.489355	0.300495
H45	H	-1.771931	-0.362397	0.300496
C46	C	-0.812883	-0.340339	-0.000001
H47	H	-0.876799	-0.287604	0.000012
H48	H	-0.763950	-0.323677	-0.084946
H49	H	-0.763956	-0.323685	0.084961
H50	H	-1.584747	-0.255269	0.624201
C51	C	-1.208888	-0.114142	-0.000054
H52	H	-1.226977	-0.203479	-0.000069
H53	H	-1.162859	-0.088431	0.084881
H54	H	-1.162900	-0.088424	-0.085026
C55	C	-1.025437	-0.283342	0.000004
H56	H	-1.089354	-0.230606	0.000016
H57	H	-0.976505	-0.266680	-0.084942
H58	H	-0.976510	-0.266687	0.084966
H59	H	-1.707716	-0.394703	0.618268
C60	C	-1.201816	0.162529	-0.000029
H61	H	-1.215413	0.248992	-0.000021
H62	H	-1.156910	0.145057	-0.084977
H63	H	-1.156911	0.145063	0.084930
H64	H	-1.727718	-0.124578	-0.101918
C65	C	-1.732711	-0.144447	0.142099
H66	H	-1.754862	-0.080030	0.205367
H67	H	-1.674112	-0.189336	0.189305
H68	H	-1.803086	-0.201025	0.119274
H69	H	-1.288984	-0.618071	0.639114
C70	C	-1.727144	0.097671	-0.141737
H71	H	-1.752891	0.028908	-0.204897
H72	H	-1.666346	0.153579	-0.189353
H73	H	-1.794943	0.141526	-0.118304
C74	C	-1.739387	0.089684	0.137730
H75	H	-1.768394	0.017679	0.194383
H76	H	-1.806227	0.133169	0.109426
H77	H	-1.683624	0.144292	0.194361
