data_functionalizedCrystal
_audit_creation_method	'MofGen! by Chris Wilmer'
_symmetry_space_group_name_H-M	'P1'
_symmetry_Int_Tables_number	1
_symmetry_cell_setting	triclinic
loop_
_symmetry_equiv_pos_as_xyz
  x,y,z
_cell_length_a	13.033286
_cell_length_b	25.639240
_cell_length_c	13.032268
_cell_angle_alpha	97.135339
_cell_angle_beta	105.163409
_cell_angle_gamma	82.864177
loop_
_atom_site_label
_atom_site_type_symbol
_atom_site_fract_x
_atom_site_fract_y
_atom_site_fract_z
Zn1	Zn	1.547305	-0.331374	-0.393790
Zn2	Zn	1.569722	-0.408954	-0.216168
Zn3	Zn	1.392265	-0.311708	-0.238807
Zn4	Zn	1.369636	-0.408934	-0.416322
O5	O	1.469732	-0.365243	-0.316272
O6	O	1.698900	-0.349904	-0.351324
O7	O	1.565033	-0.387833	-0.070544
O8	O	1.412921	-0.241160	-0.259411
O9	O	1.715369	-0.406902	-0.220826
O10	O	1.526828	-0.255609	-0.373276
O11	O	1.434657	-0.316387	-0.087177
O12	O	1.240642	-0.316367	-0.281258
O13	O	1.374353	-0.406867	-0.561959
O14	O	1.224017	-0.387798	-0.411678
O15	O	1.504886	-0.349884	-0.545405
O16	O	1.543091	-0.482108	-0.242673
O17	O	1.396089	-0.482093	-0.389726
C18	C	1.193794	-0.349947	-0.351370
C19	C	1.075743	-0.343417	-0.366411
C20	C	1.031273	-0.368652	-0.308448
C21	C	0.909262	-0.361904	-0.323992
C22	C	1.469593	-0.501072	-0.316207
C23	C	1.469626	-0.559188	-0.316203
C24	C	1.529062	-0.927056	-0.375680
C25	C	1.529091	-0.981663	-0.375697
O26	O	1.579458	-1.016266	-0.426204
N27	N	1.469867	-1.001496	-0.316355
C28	C	1.410601	-0.966718	-0.257001
O29	O	1.360229	-0.988601	-0.206528
C30	C	1.410568	-0.912111	-0.256990
C31	C	1.469804	-0.892282	-0.316327
C32	C	1.588293	-0.907226	-0.435013
C33	C	1.588265	-0.852622	-0.434994
C34	C	1.529007	-0.817849	-0.375641
C35	C	1.469777	-0.837679	-0.316308
C36	C	1.351297	-0.877335	-0.197642
C37	C	1.351268	-0.822725	-0.197637
C38	C	1.410504	-0.802896	-0.256974
C39	C	1.410492	-0.748302	-0.256935
N40	N	1.469716	-0.728469	-0.316277
C41	C	1.528974	-0.763243	-0.375630
C42	C	1.410676	-1.081395	-0.257029
C43	C	1.410715	-1.136000	-0.257034
C44	C	1.529203	-1.150942	-0.375732
C45	C	1.529169	-1.096335	-0.375721
C46	C	1.469900	-1.061562	-0.316371
C47	C	1.528913	-0.648571	-0.375584
C48	C	1.528884	-0.593962	-0.375556
C49	C	1.410392	-0.579025	-0.256862
C50	C	1.410425	-0.633629	-0.256886
C51	C	1.469688	-0.668401	-0.316255
O52	O	1.360147	-0.713667	-0.206458
O53	O	1.579327	-0.741352	-0.426105
C54	C	1.746748	-0.380599	-0.281036
C55	C	1.864796	-0.387143	-0.266021
C56	C	1.434595	-0.380567	-0.593297
C57	C	1.419621	-0.387097	-0.711349
C58	C	1.469898	-0.228886	-0.316355
C59	C	1.469969	-0.170778	-0.316391
C60	C	1.477530	-0.361815	-0.755789
C61	C	1.462056	-0.368564	-0.877802
C62	C	1.504794	-0.349944	-0.040316
C63	C	1.519973	-0.343278	0.077761
H64	H	1.023485	-0.316818	-0.427545
N65	N	1.346551	-0.655021	-0.192874
H66	H	1.309012	-0.624704	-0.155269
H67	H	1.291895	-0.677347	-0.242333
N68	N	1.346487	-0.541514	-0.192841
H69	H	1.355461	-0.503914	-0.201841
H70	H	1.268538	-0.547792	-0.218964
N71	N	1.287388	-0.898706	-0.133649
H72	H	1.232676	-0.921025	-0.183047
H73	H	1.336893	-0.921004	-0.078967
H74	H	1.538561	-0.335171	-0.703508
H75	H	1.636547	-0.935534	-0.483352
H76	H	1.362492	-1.152139	-0.208702
N77	N	1.592778	-0.572575	-0.439556
H78	H	1.630317	-0.602893	-0.477160
H79	H	1.543266	-0.550242	-0.494169
H80	H	0.857008	-0.335303	-0.385131
N81	N	0.933993	-0.422379	-0.185029
H82	H	0.912642	-0.459594	-0.203814
H83	H	1.011323	-0.422164	-0.185434
N84	N	1.592817	-0.686070	-0.439629
H85	H	1.630327	-0.665215	-0.477211
H86	H	1.647498	-0.709057	-0.390199
N87	N	1.652147	-0.831239	-0.499003
H88	H	1.689681	-0.861560	-0.536604
H89	H	1.602629	-0.808910	-0.553619
H90	H	1.401010	-0.395203	-0.930081
N91	N	1.338774	-0.422387	-0.780603
H92	H	1.357644	-0.459598	-0.759241
H93	H	1.265355	-0.408960	-0.770989
H94	H	1.581007	-0.316631	-0.869962
N95	N	1.346761	-1.043895	-0.192991
H96	H	1.396189	-1.020907	-0.138305
H97	H	1.292022	-1.020939	-0.242434
H98	H	1.083530	-0.395255	-0.247320
N99	N	1.593057	-1.074950	-0.439721
H100	H	1.630600	-1.105269	-0.477317
H101	H	1.543543	-1.052622	-0.494341
H102	H	1.577452	-1.179265	-0.424063
N103	N	1.287338	-0.785220	-0.133625
H104	H	1.249821	-0.806072	-0.096041
H105	H	1.336823	-0.762239	-0.078993
