data_functionalizedCrystal
_audit_creation_method	'MofGen! by Chris Wilmer'
_symmetry_space_group_name_H-M	'P1'
_symmetry_Int_Tables_number	1
_symmetry_cell_setting	triclinic
loop_
_symmetry_equiv_pos_as_xyz
  x,y,z
_cell_length_a	15.944499
_cell_length_b	11.026607
_cell_length_c	9.482944
_cell_angle_alpha	81.839415
_cell_angle_beta	100.444836
_cell_angle_gamma	83.968187
loop_
_atom_site_label
_atom_site_type_symbol
_atom_site_fract_x
_atom_site_fract_y
_atom_site_fract_z
O1	O	0.365994	-1.627013	0.120870
O2	O	0.325943	-1.273715	0.120875
O3	O	0.225154	-1.460045	0.120875
O4	O	0.466783	-1.440683	0.120871
O5	O	0.196623	-1.426191	-0.120916
O6	O	0.297411	-1.239861	-0.120916
O7	O	0.337462	-1.593159	-0.120921
Cu8	Cu	0.314832	-1.413419	-0.142996
Cu9	Cu	0.348574	-1.453455	0.142950
O10	O	0.438251	-1.406829	-0.120921
C11	C	0.304288	-1.211579	-0.000020
C12	C	0.282262	-1.076869	-0.000017
N13	N	0.291100	-1.385268	-0.344115
C14	C	0.179474	-1.442326	-0.000017
C15	C	0.085868	-1.439951	-0.000006
C16	C	-0.189304	-1.548202	-0.000015
C17	C	-0.150854	-1.475237	-0.119235
C18	C	-0.251076	-1.431315	-0.000023
C19	C	-0.122735	-1.508583	0.119152
C20	C	-0.085523	-1.435565	-0.000012
C21	C	-0.213870	-1.358303	-0.119341
C22	C	-0.185742	-1.391681	0.119153
C23	C	-0.147325	-1.318627	-0.000096
C24	C	-0.346446	-1.428870	-0.000030
C25	C	0.009843	-1.437999	-0.000015
C26	C	0.483931	-1.424549	-0.000026
C27	C	0.577539	-1.426925	-0.000027
C28	C	0.359117	-1.655296	-0.000023
C29	C	0.381145	-1.790007	-0.000015
C30	C	0.343081	-1.003052	-0.000018
C31	C	0.320317	-0.863822	-0.000015
C32	C	0.321828	-1.421740	-0.583729
C33	C	0.341580	-1.445152	-0.416313
N34	N	0.372300	-1.481615	0.344069
H35	H	-0.207983	-1.645190	-0.000131
H36	H	0.450070	-0.829876	-0.000026
H37	H	-0.135183	-1.510565	-0.220025
C38	C	-0.018829	-1.689017	0.212935
C39	C	-0.069482	-1.594394	0.255210
H40	H	0.014040	-1.742001	0.296928
H41	H	0.018796	-1.654036	0.156443
H42	H	-0.054974	-1.735200	0.156783
H43	H	-0.033337	-1.548205	0.311353
H44	H	-0.107111	-1.629378	0.311726
C45	C	0.201887	-0.866697	0.124284
C46	C	0.227267	-0.810012	-0.000011
H47	H	0.144441	-0.833480	0.124279
H48	H	0.239011	-0.851855	0.208584
H49	H	0.204984	-0.953201	0.124268
H50	H	0.224176	-0.723509	0.000010
H51	H	0.190132	-0.824844	-0.084333
C52	C	0.163836	-1.079738	0.124281
C53	C	0.189216	-1.023053	-0.000013
H54	H	0.106390	-1.046521	0.124277
H55	H	0.200961	-1.064896	0.208582
H56	H	0.166933	-1.166242	0.124266
H57	H	0.186125	-0.936550	0.000008
H58	H	0.152081	-1.037885	-0.084335
C59	C	0.461504	-1.000188	-0.124321
C60	C	0.436126	-1.056871	-0.000024
H61	H	0.518946	-1.033417	-0.124326
H62	H	0.458414	-0.913696	-0.124306
H63	H	0.424370	-1.015028	-0.208629
H64	H	0.473257	-1.042023	0.084284
H65	H	0.439223	-1.143383	-0.000026
C66	C	0.495042	-1.499456	-0.369164
C67	C	0.419661	-1.537759	-0.332468
H68	H	0.543243	-1.556632	-0.317407
H69	H	0.501009	-1.419907	-0.344299
H70	H	0.492000	-1.495872	-0.470673
H71	H	0.422701	-1.541334	-0.230960
H72	H	0.413693	-1.617329	-0.357323
C73	C	-0.317106	-1.177194	-0.213530
C74	C	-0.266990	-1.272546	-0.255554
H75	H	-0.349903	-1.124259	-0.297623
H76	H	-0.280618	-1.131150	-0.157815
H77	H	-0.354796	-1.211509	-0.156669
H78	H	-0.229295	-1.238232	-0.312406
H79	H	-0.303481	-1.318597	-0.311293
H80	H	0.263991	-1.353152	-0.645858
H81	H	-0.201428	-1.356395	0.219948
C82	C	0.208638	-1.287254	-0.577582
C83	C	0.213021	-1.292659	-0.427963
H84	H	0.160439	-1.230075	-0.629343
H85	H	0.202703	-1.366781	-0.602535
H86	H	0.259796	-1.261218	-0.602338
H87	H	0.161865	-1.318703	-0.403206
H88	H	0.218949	-1.213115	-0.403000
C89	C	0.441561	-1.691486	-0.608723
C90	C	0.450376	-1.574218	-0.572071
H91	H	0.489761	-1.748655	-0.556946
H92	H	0.438536	-1.687895	-0.710216
H93	H	0.390411	-1.717445	-0.583840
H94	H	0.501522	-1.548255	-0.596965
H95	H	0.453409	-1.577805	-0.470556
C96	C	-0.140996	-1.143233	0.123472
C97	C	-0.122356	-1.187549	-0.000183
H98	H	-0.125588	-1.062308	0.123405
H99	H	-0.109238	-1.196413	0.208200
H100	H	-0.200810	-1.140906	0.122657
H101	H	-0.062540	-1.189885	0.000637
H102	H	-0.154113	-1.134355	-0.084933
