data_functionalizedCrystal
_audit_creation_method	'MofGen! by Chris Wilmer'
_symmetry_space_group_name_H-M	'P1'
_symmetry_Int_Tables_number	1
_symmetry_cell_setting	triclinic
loop_
_symmetry_equiv_pos_as_xyz
  x,y,z
_cell_length_a	10.654550
_cell_length_b	10.654550
_cell_length_c	9.730223
_cell_angle_alpha	90.004253
_cell_angle_beta	90.000043
_cell_angle_gamma	84.484931
loop_
_atom_site_label
_atom_site_type_symbol
_atom_site_fract_x
_atom_site_fract_y
_atom_site_fract_z
O1	O	-1.667839	-0.176399	-0.114187
O2	O	-1.302361	-0.193205	-0.114212
O3	O	-1.493503	-0.002062	-0.114190
O4	O	-1.476697	-0.367541	-0.114209
O5	O	-1.493490	-0.002057	0.114390
O6	O	-1.302348	-0.193199	0.114368
O7	O	-1.667827	-0.176393	0.114393
Zn8	Zn	-1.485085	-0.184796	0.150672
Zn9	Zn	-1.485102	-0.184802	-0.150492
O10	O	-1.476684	-0.367536	0.114371
C11	C	-1.255556	-0.191968	0.000075
C12	C	-1.116113	-0.188276	0.000065
C13	C	-1.492263	0.044738	0.000099
C14	C	-1.488571	0.184181	0.000096
C15	C	-1.714631	-0.177630	0.000103
C16	C	-1.854074	-0.181322	0.000104
N17	N	-1.485083	-0.184790	0.356209
C18	C	-1.036628	-0.300818	0.000064
C19	C	-0.905607	-0.297341	0.000088
C20	C	-0.933570	-0.068772	0.000109
C21	C	-1.064588	-0.072250	0.000095
C22	C	-1.477925	-0.414336	0.000079
C23	C	-1.481617	-0.553779	0.000072
C24	C	-1.601112	0.263667	0.000104
C25	C	-1.597636	0.394688	0.000087
C26	C	-1.369066	0.366725	0.000061
C27	C	-1.372544	0.235706	0.000068
N28	N	-1.485114	-0.184798	-0.356028
C29	C	-1.569750	-0.100188	0.428144
C30	C	-1.569763	-0.100189	0.572027
C31	C	-1.400438	-0.269404	0.572026
C32	C	-1.400420	-0.269396	0.428146
H33	H	-1.078574	-0.395294	0.000049
H34	H	-1.331468	-0.338290	0.369572
C35	C	-0.891136	-0.523618	0.000043
C36	C	-0.818236	-0.421051	0.000076
H37	H	-0.837194	-0.599993	0.000029
H38	H	-0.942824	-0.520225	0.079743
H39	H	-0.942815	-0.520204	-0.079680
H40	H	-0.766564	-0.424459	0.079804
H41	H	-0.766525	-0.424446	-0.079632
C42	C	-0.745143	0.038050	0.000127
C43	C	-0.876928	0.058760	0.000124
H44	H	-0.710180	0.116787	0.000124
H45	H	-0.717940	-0.008325	0.079832
H46	H	-0.717935	-0.008340	-0.079591
H47	H	-0.904137	0.105143	0.079847
H48	H	-0.904143	0.105156	-0.079589
H49	H	-1.129309	0.019401	0.000100
C50	C	-1.173190	0.383232	-0.117475
C51	C	-1.241536	0.423370	0.000038
H52	H	-1.094461	0.418209	-0.117489
H53	H	-1.159154	0.293837	-0.117463
H54	H	-1.219599	0.410448	-0.197171
H55	H	-1.195131	0.396145	0.079735
H56	H	-1.255568	0.512784	0.000038
C57	C	-1.693798	0.607942	0.000066
C58	C	-1.721344	0.482060	0.000091
H59	H	-1.770175	0.661880	0.000057
H60	H	-1.646276	0.623679	0.079765
H61	H	-1.646276	0.623643	-0.079657
H62	H	-1.768859	0.466357	0.079820
H63	H	-1.768886	0.466318	-0.079616
C64	C	-1.243863	0.072136	-0.117451
C65	C	-1.248827	0.148327	0.000056
H66	H	-1.167484	0.018199	-0.117464
H67	H	-1.313450	0.022704	-0.117429
H68	H	-1.247265	0.123839	-0.197151
H69	H	-1.245434	0.096625	0.079757
H70	H	-1.179220	0.197763	0.000047
H71	H	-1.638687	-0.031295	0.369576
H72	H	-1.695588	0.221720	0.000124
H73	H	-1.638705	-0.031297	0.630593
C74	C	-1.229788	-0.295073	0.733870
C75	C	-1.307390	-0.362406	0.651112
H76	H	-1.172351	-0.352493	0.782698
H77	H	-1.184154	-0.242384	0.677757
H78	H	-1.280232	-0.244691	0.797297
H79	H	-1.256946	-0.412781	0.587677
H80	H	-1.353027	-0.415117	0.707230
