data_functionalizedCrystal
_audit_creation_method	'MofGen! by Chris Wilmer'
_symmetry_space_group_name_H-M	'P1'
_symmetry_Int_Tables_number	1
_symmetry_cell_setting	triclinic
loop_
_symmetry_equiv_pos_as_xyz
  x,y,z
_cell_length_a	14.853566
_cell_length_b	27.731996
_cell_length_c	26.210047
_cell_angle_alpha	90.025731
_cell_angle_beta	90.018015
_cell_angle_gamma	83.127901
loop_
_atom_site_label
_atom_site_type_symbol
_atom_site_fract_x
_atom_site_fract_y
_atom_site_fract_z
O1	O	1.195336	0.063115	0.042402
O2	O	0.932752	0.070633	0.042411
O3	O	1.072224	-0.003486	0.042396
O4	O	1.055864	0.137234	0.042418
O5	O	1.072173	-0.003507	-0.042463
O6	O	0.932701	0.070612	-0.042447
O7	O	1.195286	0.063094	-0.042456
Cu8	Cu	1.063989	0.066851	-0.050199
Cu9	Cu	1.064049	0.066876	0.050155
O10	O	1.055814	0.137213	-0.042440
C11	C	0.899143	0.070282	-0.000017
C12	C	0.799077	0.069262	-0.000014
C13	C	0.375991	0.064957	0.046233
C14	C	0.375957	0.064934	-0.046283
C15	C	0.469975	0.065892	-0.046281
C16	C	0.517005	0.066384	-0.000022
C17	C	0.470017	0.065916	0.046236
C18	C	0.516969	0.066365	-0.092538
C19	C	0.610993	0.067324	-0.092538
C20	C	0.658026	0.067811	-0.046278
C21	C	0.611032	0.067343	-0.000018
C22	C	0.658062	0.067835	0.046241
C23	C	0.611071	0.067363	0.092501
C24	C	0.517050	0.066404	0.092496
C25	C	0.752046	0.068771	-0.046273
C26	C	0.752088	0.068794	0.046244
C27	C	1.071862	-0.021506	-0.000035
C28	C	1.070850	-0.075167	-0.000040
C29	C	1.064509	-0.407901	0.046241
C30	C	1.060665	-0.609578	0.046250
O31	O	1.060153	-0.635641	0.085589
N32	N	1.060160	-0.634808	-0.000006
C33	C	1.060610	-0.609617	-0.046267
O34	O	1.060083	-0.635704	-0.085610
C35	C	1.064448	-0.407941	-0.046276
C36	C	1.064962	-0.382713	-0.000017
C37	C	1.065022	-0.382674	0.092496
C38	C	1.065988	-0.332258	0.092493
C39	C	1.066441	-0.307070	0.046235
C40	C	1.065928	-0.332298	-0.000020
C41	C	1.064891	-0.382749	-0.092536
C42	C	1.065849	-0.332327	-0.092534
C43	C	1.066363	-0.307100	-0.046276
C44	C	1.067346	-0.256694	-0.046280
N45	N	1.067851	-0.231463	-0.000024
C46	C	1.067399	-0.256651	0.046233
C47	C	1.058598	-0.715499	-0.046259
C48	C	1.057640	-0.765918	-0.046257
C49	C	1.057693	-0.765876	0.046260
C50	C	1.058657	-0.715456	0.046257
C51	C	1.059103	-0.690269	-0.000003
C52	C	1.069428	-0.150775	0.046224
C53	C	1.070397	-0.100355	0.046217
C54	C	1.070339	-0.100401	-0.046300
C55	C	1.069374	-0.150817	-0.046293
C56	C	1.068916	-0.176002	-0.000027
O57	O	1.067849	-0.230599	-0.085599
O58	O	1.067906	-0.230554	0.085571
C59	C	1.063543	-0.458317	0.046244
C60	C	1.063030	-0.483545	-0.000011
C61	C	1.063483	-0.458357	-0.046269
C62	C	1.062073	-0.533964	-0.000009
C63	C	1.061620	-0.559152	0.046248
C64	C	1.062125	-0.533921	0.092504
C65	C	1.063091	-0.483505	0.092501
C66	C	1.062978	-0.483587	-0.092525
C67	C	1.062013	-0.534003	-0.092518
C68	C	1.061560	-0.559191	-0.046260
C69	C	1.228894	0.063445	-0.000027
C70	C	1.328961	0.064465	-0.000026
C71	C	1.056175	0.155233	-0.000008
C72	C	1.057187	0.208894	0.000001
N73	N	1.063953	0.066834	-0.120783
C74	C	1.009779	0.037483	-0.526764
C75	C	1.009740	0.037471	-0.313105
O76	O	0.963623	0.012477	-0.285498
N77	N	1.063987	0.066840	-0.286367
C78	C	1.118253	0.096212	-0.313047
O79	O	1.164400	0.121189	-0.285402
C80	C	1.118297	0.096222	-0.526705
C81	C	1.064039	0.066854	-0.553440
C82	C	0.955526	0.008117	-0.553499
C83	C	0.955533	0.008123	-0.606911
C84	C	1.009793	0.037494	-0.633587
C85	C	1.064046	0.066860	-0.606851
C86	C	1.172568	0.125591	-0.553383
C87	C	1.172575	0.125590	-0.606801
C88	C	1.118317	0.096222	-0.633537
C89	C	1.118312	0.096236	-0.686939
N90	N	1.064065	0.066866	-0.713677
C91	C	1.009805	0.037495	-0.687001
C92	C	1.118225	0.096206	-0.200874
C93	C	1.118213	0.096205	-0.147459
C94	C	1.009700	0.037462	-0.147521
C95	C	1.009708	0.037467	-0.200937
C96	C	1.063977	0.066837	-0.227612
C97	C	1.009823	0.037509	-0.799169
C98	C	1.009831	0.037519	-0.852585
C99	C	1.118347	0.096259	-0.852518
C100	C	1.118335	0.096252	-0.799107
C101	C	1.064070	0.066873	-0.772433
O102	O	1.164412	0.121213	-0.714579
O103	O	0.963680	0.012515	-0.714655
C104	C	1.009773	0.037478	-0.473352
C105	C	1.064026	0.066843	-0.446617
C106	C	1.118285	0.096215	-0.473293
C107	C	1.064014	0.066842	-0.393203
C108	C	1.009754	0.037471	-0.366527
C109	C	0.955506	0.008101	-0.393265
C110	C	0.955513	0.008107	-0.446676
C111	C	1.172533	0.125584	-0.446555
C112	C	1.172521	0.125577	-0.393144
C113	C	1.118261	0.096206	-0.366467
N114	N	1.064091	0.066890	0.120739
H115	H	0.478669	0.065968	-0.130199
H116	H	0.790374	0.069193	0.083915
H117	H	1.061760	-0.554438	0.130169
H118	H	1.063348	-0.463084	-0.130194
H119	H	0.337659	0.064538	-0.083945
H120	H	1.162420	0.120124	-0.222588
H121	H	1.216752	0.149505	-0.531625
H122	H	0.911354	-0.015793	-0.628674
C123	C	1.231274	0.157531	-0.364095
C124	C	1.176151	0.190223	-0.333432
C125	C	1.230244	0.219667	-0.306673
H126	H	1.273058	0.137818	-0.343219
H127	H	1.263568	0.175051	-0.387622
H128	H	1.143873	0.172705	-0.309907
H129	H	1.134368	0.209947	-0.354294
H130	H	1.262538	0.237187	-0.330200
H131	H	1.272026	0.199950	-0.285800
H132	H	1.192851	0.241855	-0.285868
C133	C	0.896532	-0.023688	-0.524480
C134	C	0.835067	0.005564	-0.493813
C135	C	0.780700	-0.023717	-0.467074
H136	H	0.864143	-0.041180	-0.548004
H137	H	0.933741	-0.045898	-0.503613
H138	H	0.797862	0.027765	-0.514679
H139	H	0.867431	0.023055	-0.470279
H140	H	0.817909	-0.045926	-0.446207
H141	H	0.748317	-0.041207	-0.490602
H142	H	0.738995	-0.003874	-0.446260
H143	H	0.649245	0.067706	-0.130206
C144	C	1.069024	-0.178246	-0.096503
C145	C	1.146071	-0.212575	-0.099211
C146	C	1.145782	-0.237841	-0.145461
H147	H	1.016116	-0.194304	-0.098480
H148	H	1.069489	-0.156038	-0.124064
H149	H	1.145598	-0.234780	-0.071658
H150	H	1.198991	-0.196530	-0.097243
H151	H	1.146247	-0.215633	-0.173023
H152	H	1.092871	-0.253896	-0.147435
H153	H	1.198061	-0.261133	-0.147307
H154	H	0.790301	0.069159	-0.083937
H155	H	0.649374	0.067767	0.130165
H156	H	1.070712	-0.079884	-0.083961
C157	C	1.177332	0.128156	-0.770169
C158	C	1.224864	0.153872	-0.804966
C159	C	1.279236	0.183259	-0.778332
H160	H	1.140168	0.150403	-0.749323
H161	H	1.219153	0.108394	-0.749348
H162	H	1.183048	0.173632	-0.825779
H163	H	1.262045	0.131636	-0.825813
H164	H	1.321056	0.163497	-0.757510
H165	H	1.242065	0.205503	-0.757487
H166	H	1.311499	0.200707	-0.801937
C167	C	1.231526	0.157532	-0.635670
C168	C	1.279018	0.183256	-0.600819
C169	C	1.333320	0.212690	-0.627393
H170	H	1.273374	0.137817	-0.656510
H171	H	1.194289	0.179772	-0.656491
H172	H	1.316251	0.161018	-0.580006
H173	H	1.237192	0.202980	-0.579977
H174	H	1.296083	0.234930	-0.648214
H175	H	1.375163	0.192971	-0.648232
H176	H	1.365543	0.230150	-0.603750
H177	H	1.216720	0.149501	-0.468269
C178	C	1.070904	-0.073049	0.096497
C179	C	1.070274	-0.105902	0.137006
C180	C	1.070727	-0.080766	0.183329
H181	H	1.123859	-0.057032	0.098492
H182	H	1.018669	-0.049734	0.098450
H183	H	1.122504	-0.129208	0.135055
H184	H	1.017323	-0.121920	0.135029
H185	H	1.018491	-0.057452	0.185282
H186	H	1.123682	-0.064750	0.185319
H187	H	1.070291	-0.103052	0.210820
C188	C	0.465861	0.065920	0.142664
C189	C	0.373452	0.064990	0.132759
C190	C	0.326264	0.064552	0.178960
H191	H	0.488439	0.037923	0.161706
H192	H	0.473947	0.094258	0.161679
H193	H	0.365372	0.036655	0.113752
H194	H	0.350848	0.092984	0.113724
H195	H	0.334349	0.092890	0.197975
H196	H	0.348849	0.036555	0.197998
H197	H	0.263559	0.063925	0.172245
C198	C	0.950630	0.005635	-0.118583
C199	C	0.859596	0.018885	-0.131579
C200	C	0.805161	-0.010420	-0.104925
H201	H	0.967743	-0.027435	-0.127327
H202	H	0.958332	0.009847	-0.082938
H203	H	0.851898	0.014669	-0.167217
H204	H	0.842456	0.051951	-0.122834
H205	H	0.812863	-0.006208	-0.069280
H206	H	0.822281	-0.043489	-0.113672
H207	H	0.743388	-0.001431	-0.113736
H208	H	0.965644	0.013604	-0.874350
C209	C	1.068743	-0.178131	0.096437
C210	C	0.990589	-0.201672	0.099152
C211	C	0.989926	-0.226874	0.145401
H212	H	1.120897	-0.201488	0.098409
H213	H	1.069138	-0.155895	0.123999
H214	H	0.990203	-0.223906	0.071597
H215	H	0.938422	-0.178326	0.097189
H216	H	0.990320	-0.204638	0.172963
H217	H	1.042083	-0.250229	0.147369
H218	H	0.936895	-0.242846	0.147251
H219	H	0.965526	0.013553	-0.222701
C220	C	1.064481	-0.410174	-0.142741
C221	C	1.141512	-0.444513	-0.145475
C222	C	1.141154	-0.469782	-0.191720
H223	H	1.011562	-0.426225	-0.144694
H224	H	1.064922	-0.387969	-0.170307
H225	H	1.141063	-0.466714	-0.117916
H226	H	1.194443	-0.428475	-0.143530
H227	H	1.141595	-0.447577	-0.219285
H228	H	1.088232	-0.485830	-0.193668
H229	H	1.193422	-0.493080	-0.193582
H230	H	1.162384	0.120125	-0.125696
C231	C	1.063773	-0.456088	0.142702
C232	C	1.141902	-0.432522	0.145429
C233	C	1.142540	-0.407261	0.191668
H234	H	1.011601	-0.432740	0.144648
H235	H	1.063395	-0.478291	0.170274
H236	H	1.142270	-0.410321	0.117865
H237	H	1.194086	-0.455859	0.143492
H238	H	1.142162	-0.429464	0.219239
H239	H	1.090365	-0.383916	0.193610
H240	H	1.195553	-0.391273	0.193526
H241	H	1.162522	0.120173	-0.874248
C242	C	0.896688	-0.023770	-0.364203
C243	C	0.908318	-0.017492	-0.311705
C244	C	0.854164	-0.046849	-0.284915
H245	H	0.834846	-0.014879	-0.372902
H246	H	0.913921	-0.056839	-0.372939
H247	H	0.891080	0.015569	-0.302973
H248	H	0.970149	-0.026387	-0.302991
H249	H	0.871397	-0.079917	-0.293651
H250	H	0.792325	-0.037954	-0.293618
H251	H	0.862054	-0.042596	-0.249292
C252	C	1.059160	-0.688152	0.096535
C253	C	1.058539	-0.721007	0.137042
C254	C	1.058987	-0.695874	0.183366
H255	H	1.112110	-0.672131	0.098530
H256	H	1.006920	-0.664841	0.098489
H257	H	1.110774	-0.744310	0.135088
H258	H	1.005592	-0.737029	0.135063
H259	H	1.006746	-0.672563	0.185321
H260	H	1.111938	-0.679854	0.185356
H261	H	1.058557	-0.718162	0.210856
H262	H	0.911330	-0.015808	-0.468439
H263	H	1.066403	-0.311722	0.130162
H264	H	0.337727	0.064571	0.083897
C265	C	1.061264	-0.561347	-0.142764
C266	C	0.983874	-0.543700	-0.170652
C267	C	0.983135	-0.568876	-0.216938
H268	H	1.113936	-0.556762	-0.161838
H269	H	1.060571	-0.594984	-0.136169
H270	H	0.984575	-0.510070	-0.177249
H271	H	0.931189	-0.548285	-0.151595
H272	H	0.982442	-0.602514	-0.210342
H273	H	1.035811	-0.564290	-0.236006
H274	H	0.930623	-0.556910	-0.235863
H275	H	0.965635	0.013586	-0.777457
H276	H	1.064650	-0.403176	0.130166
C277	C	1.057007	-0.793241	0.096468
C278	C	0.978853	-0.816784	0.099169
C279	C	0.978176	-0.841994	0.145413
H280	H	1.109161	-0.816598	0.098441
H281	H	1.057391	-0.771010	0.124035
H282	H	0.978477	-0.839013	0.071609
H283	H	0.926686	-0.793438	0.097205
H284	H	0.978561	-0.819763	0.172979
H285	H	1.030334	-0.865348	0.147381
H286	H	0.925147	-0.857967	0.147253
H287	H	1.058965	-0.694996	-0.083933
C288	C	1.057048	-0.793215	-0.096535
C289	C	1.057624	-0.760357	-0.137042
C290	C	1.057061	-0.785482	-0.183367
H291	H	1.109250	-0.816538	-0.098535
H292	H	1.004059	-0.809219	-0.098484
H293	H	1.110607	-0.744361	-0.135094
H294	H	1.005427	-0.737033	-0.135059
H295	H	1.004073	-0.801485	-0.185316
H296	H	1.109264	-0.808804	-0.185362
H297	H	1.057444	-0.763191	-0.210856
C298	C	1.066366	-0.305071	-0.142816
C299	C	1.065727	-0.337961	-0.183322
C300	C	1.066211	-0.312872	-0.229647
H301	H	1.014159	-0.281750	-0.144806
H302	H	1.119350	-0.289067	-0.144778
H303	H	1.012748	-0.353956	-0.181361
H304	H	1.117929	-0.361282	-0.181349
H305	H	1.119195	-0.296868	-0.231609
H306	H	1.014003	-0.289552	-0.231632
H307	H	1.065786	-0.335184	-0.257136
