data_functionalizedCrystal
_audit_creation_method	'MofGen! by Chris Wilmer'
_symmetry_space_group_name_H-M	'P1'
_symmetry_Int_Tables_number	1
_symmetry_cell_setting	triclinic
loop_
_symmetry_equiv_pos_as_xyz
  x,y,z
_cell_length_a	16.959455
_cell_length_b	13.897447
_cell_length_c	16.959447
_cell_angle_alpha	90.028096
_cell_angle_beta	90.014322
_cell_angle_gamma	90.016477
loop_
_atom_site_label
_atom_site_type_symbol
_atom_site_fract_x
_atom_site_fract_y
_atom_site_fract_z
Zn1	Zn	1.208387	-0.384074	0.446921
Zn2	Zn	1.208311	-0.545393	0.314747
Zn3	Zn	1.076215	-0.384105	0.314758
Zn4	Zn	1.076181	-0.545321	0.446886
O5	O	1.142273	-0.464723	0.380828
O6	O	1.318988	-0.405491	0.429398
O7	O	1.190770	-0.524040	0.204138
O8	O	1.093794	-0.249119	0.332309
O9	O	1.318931	-0.524011	0.332291
O10	O	1.190900	-0.249097	0.429408
O11	O	1.093720	-0.405543	0.204146
O12	O	0.965600	-0.405473	0.332275
O13	O	1.093736	-0.523888	0.557502
O14	O	0.965575	-0.523917	0.429349
O15	O	1.190867	-0.405421	0.557527
O16	O	1.190737	-0.680365	0.332257
O17	O	1.093662	-0.680312	0.429338
C18	C	0.936907	-0.464691	0.380810
C19	C	0.849051	-0.464701	0.380821
C20	C	1.142209	-0.715337	0.380810
C21	C	1.142254	-0.822551	0.380828
C22	C	0.477564	-0.402998	0.330388
C23	C	0.477586	-0.526527	0.431314
C24	C	0.560132	-0.526513	0.431309
C25	C	0.601398	-0.464742	0.380842
C26	C	0.560117	-0.402985	0.330379
C27	C	0.601419	-0.588276	0.481765
C28	C	0.683970	-0.588266	0.481762
C29	C	0.725237	-0.526489	0.431298
C30	C	0.683951	-0.464728	0.380834
C31	C	0.725217	-0.402957	0.330367
C32	C	0.683932	-0.341191	0.279906
C33	C	0.601384	-0.341208	0.279916
C34	C	0.807785	-0.526472	0.431288
C35	C	0.807770	-0.402944	0.330359
C36	C	1.142292	-0.909621	0.380846
C37	C	1.142348	-1.018854	0.380867
C38	C	1.348442	-0.464756	0.380847
C39	C	1.436298	-0.464770	0.380855
C40	C	1.142306	-0.464643	0.586997
C41	C	1.142320	-0.464609	0.674853
C42	C	1.142359	-0.213130	0.380864
C43	C	1.142396	-0.105916	0.380879
C44	C	1.142286	-0.464733	0.175462
C45	C	1.142425	-0.464495	0.087606
C46	C	1.091843	-0.526188	1.046318
C47	C	1.192986	-0.402827	1.046340
C48	C	1.192965	-0.402848	0.963794
C49	C	1.142383	-0.464540	0.922506
C50	C	1.091822	-0.526212	0.963765
C51	C	1.243531	-0.341184	0.922529
C52	C	1.243513	-0.341203	0.839978
C53	C	1.192926	-0.402891	0.798689
C54	C	1.142362	-0.464564	0.839953
C55	C	1.091780	-0.526257	0.798665
C56	C	1.041212	-0.587926	0.839927
C57	C	1.041235	-0.587900	0.922475
C58	C	1.192902	-0.402917	0.716141
C59	C	1.091759	-0.526281	0.716111
H60	H	0.717541	-0.290901	0.238812
N61	N	0.849954	-0.589543	0.482838
N62	N	0.896033	-0.555673	0.533255
H63	H	0.925814	-0.600219	0.569667
H64	H	1.000068	-0.638111	0.956078
N65	N	0.989545	-0.650955	0.797762
N66	N	0.994756	-0.739960	0.806964
H67	H	0.958267	-0.784475	0.777183
H68	H	0.443983	-0.576824	0.472398
N69	N	1.295179	-0.278155	0.964707
N70	N	1.289959	-0.189151	0.955507
H71	H	1.326434	-0.144631	0.985300
N72	N	0.559257	-0.651367	0.533305
N73	N	0.485553	-0.651363	0.533306
H74	H	0.455771	-0.695921	0.569709
N75	N	1.040191	-0.589166	1.088472
N76	N	1.040208	-0.589135	1.162176
H77	H	1.003728	-0.633613	1.191950
H78	H	0.717576	-0.638559	0.522850
H79	H	1.234172	-0.352606	1.079961
N80	N	1.295171	-0.278208	0.797847
N81	N	1.340331	-0.223135	0.834721
H82	H	1.376815	-0.178643	0.804966
H83	H	1.234077	-0.352709	0.682549
H84	H	1.050561	-0.576511	0.682501
H85	H	0.443946	-0.352707	0.289306
H86	H	0.567763	-0.290922	0.238832
N87	N	0.849906	-0.339828	0.278809
N88	N	0.813035	-0.284686	0.233766
H89	H	0.842792	-0.240109	0.197360
