data_functionalizedCrystal
_audit_creation_method	'MofGen! by Chris Wilmer'
_symmetry_space_group_name_H-M	'P1'
_symmetry_Int_Tables_number	1
_symmetry_cell_setting	triclinic
loop_
_symmetry_equiv_pos_as_xyz
  x,y,z
_cell_length_a	16.974897
_cell_length_b	12.784905
_cell_length_c	16.053802
_cell_angle_alpha	92.294724
_cell_angle_beta	83.774775
_cell_angle_gamma	78.265036
loop_
_atom_site_label
_atom_site_type_symbol
_atom_site_fract_x
_atom_site_fract_y
_atom_site_fract_z
O1	O	1.047167	0.126519	-0.140107
O2	O	1.547167	0.626519	0.359893
O3	O	0.814955	0.144770	-0.124435
O4	O	1.314955	0.644770	0.375565
O5	O	0.948053	-0.019180	-0.133415
O6	O	1.448053	0.480820	0.366585
O7	O	0.914068	0.290469	-0.131126
O8	O	1.414068	0.790469	0.368874
O9	O	0.940730	-0.010193	0.005938
O10	O	1.440730	0.489807	0.505938
O11	O	0.807632	0.153757	0.014918
O12	O	1.307632	0.653757	0.514918
O13	O	1.039843	0.135506	-0.000754
O14	O	1.539843	0.635506	0.499246
Zn15	Zn	0.922575	0.146059	0.029208
Zn16	Zn	1.422575	0.646059	0.529208
Zn17	Zn	0.932224	0.134218	-0.154396
Zn18	Zn	1.432224	0.634218	0.345604
O19	O	0.906745	0.299457	0.008227
O20	O	1.406745	0.799457	0.508227
C21	C	0.781776	0.148734	-0.052766
C22	C	1.281776	0.648734	0.447234
C23	C	0.693825	0.147142	-0.046830
C24	C	1.193825	0.647142	0.453170
C25	C	0.656489	0.141498	-0.119997
C26	C	1.156489	0.641498	0.380003
C27	C	0.573846	0.140020	-0.114407
C28	C	1.073846	0.640020	0.385593
C29	C	0.528541	0.144178	-0.035650
C30	C	1.028541	0.644178	0.464350
C31	C	0.565882	0.149826	0.037522
C32	C	1.065882	0.649826	0.537522
C33	C	0.648522	0.151311	0.031932
C34	C	1.148522	0.651311	0.531932
C35	C	0.280955	0.140267	-0.010784
C36	C	0.780955	0.640267	0.489216
C37	C	0.198309	0.138778	-0.005199
C38	C	0.698309	0.638778	0.494801
C39	C	0.206279	0.128974	-0.157129
C40	C	0.706279	0.628974	0.342871
C41	C	0.288922	0.130454	-0.162712
C42	C	0.788922	0.630454	0.337288
C43	C	0.326254	0.136107	-0.089541
C44	C	0.826254	0.636107	0.410459
N45	N	0.444067	0.142664	-0.029934
N46	N	0.944067	0.642664	0.470066
N47	N	0.410725	0.137629	-0.095257
N48	N	0.910725	0.637629	0.404743
C49	C	0.946602	-0.054299	-0.063889
C50	C	1.446602	0.445701	0.436111
C51	C	0.953179	-0.172331	-0.064336
C52	C	1.453179	0.327669	0.435664
C53	C	0.819189	-0.367945	-0.055285
C54	C	1.319189	0.132055	0.444715
C55	C	0.825365	-0.478846	-0.055705
C56	C	1.325365	0.021154	0.444295
C57	C	0.971705	-0.505034	-0.065591
C58	C	1.471705	-0.005034	0.434409
C59	C	0.965529	-0.394133	-0.065171
C60	C	1.465529	0.105867	0.434829
C61	C	0.889269	-0.325592	-0.060019
C62	C	1.389269	0.174408	0.439981
C63	C	0.883094	-0.214690	-0.059605
C64	C	1.383094	0.285310	0.440395
C65	C	1.029433	-0.240880	-0.069484
C66	C	1.529433	0.259120	0.430516
C67	C	1.035609	-0.351781	-0.069905
C68	C	1.535609	0.148219	0.430095
C69	C	1.073022	0.131542	-0.072424
C70	C	1.573022	0.631542	0.427576
C71	C	1.160974	0.133134	-0.078366
C72	C	1.660974	0.633134	0.421634
C73	C	0.908196	0.334575	-0.061301
C74	C	1.408196	0.834575	0.438699
C75	C	0.901620	0.452606	-0.060859
C76	C	1.401620	0.952606	0.439141
N77	N	0.915995	0.154139	0.154512
N78	N	1.415995	0.654139	0.654512
N79	N	0.938810	0.126129	-0.279701
N80	N	1.438810	0.626129	0.220299
C81	C	0.972646	0.084403	0.194383
C82	C	1.472646	0.584403	0.694383
C83	C	0.968050	0.090065	0.282100
C84	C	1.468050	0.590065	0.782100
C85	C	0.906807	0.165470	0.329944
C86	C	1.406807	0.665470	0.829944
C87	C	0.850150	0.235210	0.290067
C88	C	1.350150	0.735210	0.790067
C89	C	0.854743	0.229541	0.202351
C90	C	1.354743	0.729541	0.702351
C91	C	0.886746	0.190200	0.592707
C92	C	1.386746	0.690200	1.092707
C93	C	0.882159	0.195865	0.680428
C94	C	1.382159	0.695865	1.180428
C95	C	1.000059	0.050719	0.672455
C96	C	1.500059	0.550719	1.172455
C97	C	1.004649	0.045061	0.584739
C98	C	1.504649	0.545061	1.084739
C99	C	0.947990	0.114797	0.544869
C100	C	1.447990	0.614797	1.044869
N101	N	0.902109	0.171262	0.419604
N102	N	1.402109	0.671262	0.919604
N103	N	0.952685	0.108999	0.455211
N104	N	1.452685	0.608999	0.955211
H105	H	0.543452	0.135424	-0.173987
H106	H	1.043452	0.635424	0.326013
H107	H	0.325805	0.127060	-0.226845
H108	H	0.825805	0.627060	0.273155
C109	C	1.029443	0.014233	0.325436
C110	C	1.529443	0.514233	0.825436
C111	C	0.989043	-0.047428	0.378341
C112	C	1.489043	0.452572	0.878341
C113	C	1.045575	-0.117310	0.418263
C114	C	1.545575	0.382690	0.918263
H115	H	1.058068	0.054411	0.357658
H116	H	1.558068	0.554411	0.857658
H117	H	1.066567	-0.031538	0.284402
H118	H	1.566567	0.468462	0.784402
H119	H	0.951933	-0.001662	0.419369
H120	H	1.451933	0.498338	0.919369
H121	H	0.960421	-0.087628	0.346140
H122	H	1.460421	0.412372	0.846140
H123	H	1.082699	-0.163082	0.377230
H124	H	1.582699	0.336918	0.877230
H125	H	1.074197	-0.077124	0.450481
H126	H	1.574197	0.422876	0.950481
H127	H	1.018173	-0.159163	0.454158
H128	H	1.518173	0.340837	0.954158
H129	H	1.097697	-0.407601	-0.074096
H130	H	1.597697	0.092399	0.425904
H131	H	0.311342	0.144863	0.048798
H132	H	0.811342	0.644863	0.548798
H133	H	1.033791	-0.560858	-0.069775
H134	H	1.533791	-0.060858	0.430225
H135	H	0.528987	0.153218	0.101648
H136	H	1.028987	0.653218	0.601648
C137	C	0.815569	0.277764	0.732230
C138	C	1.315569	0.777764	1.232230
C139	C	0.766916	0.337599	0.678542
C140	C	1.266916	0.837599	1.178542
C141	C	0.705561	0.413037	0.726233
C142	C	1.205561	0.913037	1.226233
H143	H	0.839159	0.324205	0.764728
H144	H	1.339159	0.824205	1.264728
H145	H	0.783351	0.241898	0.768494
H146	H	1.283351	0.741898	1.268494
H147	H	0.799129	0.373463	0.642293
H148	H	1.299129	0.873463	1.142293
H149	H	0.743306	0.291187	0.646044
H150	H	1.243306	0.791187	1.146044
H151	H	0.673343	0.377171	0.762497
H152	H	1.173343	0.877171	1.262497
H153	H	0.729158	0.459470	0.758729
H154	H	1.229158	0.959470	1.258729
H155	H	0.672538	0.453638	0.689813
H156	H	1.172538	0.953638	1.189813
C157	C	0.825369	0.265975	0.549317
C158	C	1.325369	0.765975	1.049317
C159	C	0.865787	0.327584	0.496380
C160	C	1.365787	0.827584	0.996380
C161	C	0.809274	0.397399	0.456386
C162	C	1.309274	0.897399	0.956386
H163	H	0.788221	0.311792	0.590285
H164	H	1.288221	0.811792	1.090285
H165	H	0.796772	0.225716	0.517112
H166	H	1.296772	0.725716	1.017112
H167	H	0.894371	0.367840	0.528583
H168	H	1.394371	0.867840	1.028583
H169	H	0.902932	0.281795	0.455397
H170	H	1.402932	0.781795	0.955397
H171	H	0.780677	0.357140	0.424181
H172	H	1.280677	0.857140	0.924181
H173	H	0.772128	0.443209	0.497360
H174	H	1.272128	0.943209	0.997360
H175	H	0.836690	0.439202	0.420458
H176	H	1.336690	0.939202	0.920458
H177	H	0.808611	0.286327	0.169889
H178	H	1.308611	0.786327	0.669889
H179	H	1.054519	-0.016339	0.545786
H180	H	1.554519	0.483661	1.045786
C181	C	0.165818	0.123017	-0.236634
C182	C	0.665818	0.623017	0.263366
C183	C	0.173115	0.211886	-0.282802
C184	C	0.673115	0.711886	0.217198
C185	C	0.135861	0.206433	-0.356055
C186	C	0.635861	0.706433	0.143945
H187	H	0.110097	0.122777	-0.222145
H188	H	0.610097	0.622777	0.277855
H189	H	0.191332	0.059276	-0.269508
H190	H	0.691332	0.559276	0.230492
H191	H	0.147599	0.275610	-0.249935
H192	H	0.647599	0.775610	0.250065
H193	H	0.228827	0.212144	-0.297313
H194	H	0.728827	0.712144	0.202687
H195	H	0.161375	0.142692	-0.388929
H196	H	0.661375	0.642692	0.111071
H197	H	0.080142	0.206191	-0.341558
H198	H	0.580142	0.706191	0.158442
H199	H	0.140814	0.266723	-0.387393
H200	H	0.640814	0.766723	0.112607
C201	C	0.705526	0.137033	-0.205584
C202	C	1.205526	0.637033	0.294416
C203	C	0.655131	0.131807	-0.268462
C204	C	1.155131	0.631807	0.231538
C205	C	0.700269	0.127713	-0.347316
C206	C	1.200269	0.627713	0.152684
H207	H	0.748259	0.075417	-0.211742
H208	H	1.248259	0.575417	0.288258
H209	H	0.727587	0.199435	-0.210268
H210	H	1.227587	0.699435	0.289732
H211	H	0.633082	0.069411	-0.263780
H212	H	1.133082	0.569411	0.236220
H213	H	0.612398	0.193416	-0.262331
H214	H	1.112398	0.693416	0.237669
H215	H	0.722330	0.190115	-0.352001
H216	H	1.222330	0.690115	0.147999
H217	H	0.743000	0.066096	-0.353466
H218	H	1.243000	0.566096	0.146534
H219	H	0.666081	0.124176	-0.389988
H220	H	1.166081	0.624176	0.110012
C221	C	0.149248	0.143358	0.080392
C222	C	0.649248	0.643358	0.580392
C223	C	0.199624	0.148655	0.143278
C224	C	0.699624	0.648655	0.643278
C225	C	0.154455	0.152885	0.222130
C226	C	0.654455	0.652885	0.722130
H227	H	0.127157	0.081001	0.085154
H228	H	0.627157	0.581001	0.585154
H229	H	0.106530	0.205009	0.086466
H230	H	0.606530	0.705009	0.586466
H231	H	0.242326	0.087009	0.137207
H232	H	0.742326	0.587009	0.637207
H233	H	0.221715	0.211009	0.138544
H234	H	0.721715	0.711009	0.638544
H235	H	0.111737	0.214536	0.228204
H236	H	0.611737	0.714536	0.728204
H237	H	0.132366	0.090526	0.226883
H238	H	0.632366	0.590526	0.726883
H239	H	0.188626	0.156489	0.264807
H240	H	0.688626	0.656489	0.764807
H241	H	1.046187	-0.006058	0.704925
H242	H	1.546187	0.493942	1.204925
H243	H	0.678919	0.155912	0.091512
H244	H	1.178919	0.655912	0.591512
H245	H	0.820999	-0.158885	-0.055412
H246	H	1.320999	0.341115	0.444588
C247	C	0.736321	-0.293697	-0.049654
C248	C	1.236321	0.206303	0.450346
C249	C	0.676267	-0.354525	-0.045584
C250	C	1.176267	0.145475	0.454416
C251	C	0.599919	-0.286165	-0.040386
C252	C	1.099919	0.213835	0.459614
H253	H	0.733313	-0.252997	-0.097860
H254	H	1.233313	0.247003	0.402140
H255	H	0.728271	-0.246772	-0.000667
H256	H	1.228271	0.253228	0.499333
H257	H	0.684315	-0.401431	-0.094565
H258	H	1.184315	0.098569	0.405435
H259	H	0.679250	-0.395222	0.002621
H260	H	1.179250	0.104778	0.502621
H261	H	0.591869	-0.239240	0.008600
H262	H	1.091869	0.260760	0.508600
H263	H	0.596919	-0.245469	-0.088594
H264	H	1.096919	0.254531	0.411406
H265	H	0.559163	-0.327426	-0.037617
H266	H	1.059163	0.172574	0.462383
H267	H	0.800281	0.296603	0.329026
H268	H	1.300281	0.796603	0.829026
C269	C	1.105429	-0.194688	-0.074578
C270	C	1.605429	0.305312	0.425422
C271	C	1.083702	-0.082894	-0.073092
C272	C	1.583702	0.417106	0.426908
C273	C	1.153685	-0.040305	-0.077777
C274	C	1.653685	0.459695	0.422223
H275	H	1.139105	-0.221259	-0.125264
H276	H	1.639105	0.278741	0.374736
H277	H	1.133959	-0.215048	-0.028065
H278	H	1.633959	0.284952	0.471935
H279	H	1.055185	-0.062544	-0.119602
H280	H	1.555185	0.437456	0.380398
H281	H	1.050036	-0.056293	-0.022410
H282	H	1.550036	0.443707	0.477590
H283	H	1.182215	-0.060665	-0.031263
H284	H	1.682215	0.439335	0.468737
H285	H	1.187356	-0.066884	-0.128463
H286	H	1.687356	0.433116	0.371537
H287	H	1.138952	0.035551	-0.076761
H288	H	1.638952	0.535551	0.423239
H289	H	0.768298	-0.513324	-0.051846
H290	H	1.268298	-0.013324	0.448154
H291	H	1.022520	0.023004	0.155434
H292	H	1.522520	0.523004	0.655434
