data_functionalizedCrystal
_audit_creation_method	'MofGen! by Chris Wilmer'
_symmetry_space_group_name_H-M	'P1'
_symmetry_Int_Tables_number	1
_symmetry_cell_setting	triclinic
loop_
_symmetry_equiv_pos_as_xyz
  x,y,z
_cell_length_a	15.297475
_cell_length_b	29.839131
_cell_length_c	15.298259
_cell_angle_alpha	99.719893
_cell_angle_beta	91.629109
_cell_angle_gamma	80.343089
loop_
_atom_site_label
_atom_site_type_symbol
_atom_site_fract_x
_atom_site_fract_y
_atom_site_fract_z
Zn1	Zn	1.253365	-0.224385	0.726610
Zn2	Zn	1.278551	-0.314322	0.580088
Zn3	Zn	1.132216	-0.228754	0.554833
Zn4	Zn	1.106810	-0.289027	0.701235
O5	O	1.192735	-0.264122	0.640691
O6	O	1.379282	-0.245072	0.728363
O7	O	1.280311	-0.315386	0.454148
O8	O	1.148379	-0.165311	0.577670
O9	O	1.397785	-0.311149	0.620713
O10	O	1.237387	-0.162101	0.703874
O11	O	1.172800	-0.252519	0.435593
O12	O	1.006270	-0.227992	0.553065
O13	O	1.105079	-0.268037	0.827191
O14	O	0.987605	-0.272274	0.660625
O15	O	1.212752	-0.220545	0.845834
O16	O	1.255677	-0.373830	0.596107
O17	O	1.129500	-0.355246	0.685114
C18	C	0.965155	-0.247862	0.601351
C19	C	0.867791	-0.240915	0.584542
C20	C	1.192585	-0.380838	0.640621
C21	C	1.192595	-0.430772	0.640634
C22	C	0.554625	-0.313777	0.760831
C23	C	0.646103	-0.320308	0.776621
C24	C	0.701530	-0.300460	0.728603
C25	C	0.665469	-0.274081	0.664791
C26	C	0.573982	-0.267552	0.648994
C27	C	0.720887	-0.254236	0.616767
C28	C	0.684826	-0.227856	0.552955
C29	C	0.593348	-0.221329	0.537162
C30	C	0.537922	-0.241176	0.585179
C31	C	0.812374	-0.260764	0.632564
C32	C	0.831731	-0.214539	0.520728
C33	C	0.740253	-0.208009	0.504937
C34	C	1.258524	-0.750085	0.594445
C35	C	1.258626	-0.937763	0.594498
O36	O	1.314560	-0.970244	0.555172
N37	N	1.192906	-0.951570	0.640789
C38	C	1.127159	-0.918455	0.687075
O39	O	1.071267	-0.934505	0.726457
C40	C	1.127061	-0.730778	0.687027
C41	C	1.192780	-0.716974	0.640725
C42	C	1.324238	-0.736280	0.548149
C43	C	1.324209	-0.689364	0.548132
C44	C	1.258466	-0.656252	0.594412
C45	C	1.192751	-0.670057	0.640709
C46	C	1.061318	-0.697663	0.733317
C47	C	1.061301	-0.650742	0.733303
C48	C	1.127020	-0.636938	0.687002
C49	C	1.126979	-0.590029	0.686972
N50	N	1.192699	-0.576222	0.640681
C51	C	1.258442	-0.609333	0.594401
C52	C	1.127214	-1.016988	0.687095
C53	C	1.127237	-1.063907	0.687106
C54	C	1.258705	-1.083212	0.594531
C55	C	1.258678	-1.036292	0.594515
C56	C	1.192934	-1.003181	0.640804
C57	C	1.258376	-0.510805	0.594369
C58	C	1.258339	-0.463883	0.594354
C59	C	1.126874	-0.444582	0.686933
C60	C	1.126908	-0.491500	0.686945
C61	C	1.192666	-0.524611	0.640661
O62	O	1.071079	-0.557523	0.726286
O63	O	1.314336	-0.593273	0.555041
C64	C	1.258553	-0.797002	0.594462
C65	C	1.192838	-0.810807	0.640759
C66	C	1.127095	-0.777696	0.687039
C67	C	1.192861	-0.857726	0.640770
C68	C	1.258605	-0.890837	0.594490
C69	C	1.324325	-0.877030	0.548199
C70	C	1.324296	-0.830113	0.548182
C71	C	1.061375	-0.791503	0.733330
C72	C	1.061408	-0.838420	0.733342
C73	C	1.127152	-0.871532	0.687062
C74	C	1.421205	-0.280445	0.680186
C75	C	1.518565	-0.287401	0.697016
C76	C	1.153272	-0.240982	0.869188
C77	C	1.136455	-0.231121	0.966559
C78	C	1.192907	-0.146950	0.640786
C79	C	1.192981	-0.097019	0.640826
C80	C	1.232096	-0.287143	0.413093
C81	C	1.249082	-0.296889	0.315752
C82	C	1.312957	-0.334255	1.279667
C83	C	1.328753	-0.343522	1.188181
C84	C	1.280680	-0.315422	1.132771
C85	C	1.216808	-0.278054	1.168856
C86	C	1.201006	-0.268788	1.260350
C87	C	1.168729	-0.249956	1.113454
C88	C	1.104857	-0.212588	1.149539
C89	C	1.089058	-0.203323	1.241025
C90	C	1.137131	-0.231423	1.296435
C91	C	1.184531	-0.259222	1.021960
C92	C	1.072580	-0.193756	1.002643
C93	C	1.056784	-0.184488	1.094129
H94	H	0.841725	-0.282242	0.684520
H95	H	1.037041	-0.172899	1.270400
N96	N	1.056290	-0.981281	0.737016
H97	H	1.021870	-0.962554	0.694365
H98	H	1.084879	-0.960243	0.783792
H99	H	0.776015	-0.305779	0.741464
H100	H	0.876860	-0.198379	0.481626
N101	N	0.987880	-0.144193	1.133050
H102	H	0.985163	-0.142591	1.199414
H103	H	0.928078	-0.148342	1.106234
N104	N	0.684998	-0.348760	0.845436
H105	H	0.636006	-0.360342	0.873459
H106	H	0.715973	-0.329106	0.892603
H107	H	1.073344	-0.417616	0.724610
N108	N	1.397639	-0.383823	1.149266
H109	H	1.457486	-0.379705	1.176010
H110	H	1.400276	-0.385409	1.082904
N111	N	0.494849	-0.335187	0.812607
H112	H	0.431426	-0.327050	0.792912
H113	H	0.500043	-0.323052	0.877964
N114	N	1.297728	-0.325416	1.034099
H115	H	1.317687	-0.297981	1.014876
H116	H	1.241411	-0.331621	1.001729
N117	N	1.253426	-0.299521	0.983054
H118	H	1.300602	-0.288010	0.952129
H119	H	1.224288	-0.321626	0.938965
N120	N	1.020720	-0.163447	0.942891
H121	H	1.040424	-0.174986	0.879458
H122	H	1.031638	-0.130718	0.961264
N123	N	1.120089	-0.221430	1.395111
H124	H	1.072329	-0.193496	1.409565
H125	H	1.176427	-0.215257	1.427475
N126	N	0.439256	-0.234139	0.568134
H127	H	0.409620	-0.250717	0.608235
H128	H	0.427672	-0.246862	0.504181
N129	N	0.554453	-0.192884	0.468327
H130	H	0.603443	-0.181301	0.440304
H131	H	0.510355	-0.165798	0.497512
N132	N	0.701353	-0.179568	0.436098
H133	H	0.657261	-0.152459	0.465219
H134	H	0.670444	-0.199242	0.388908
H135	H	1.311924	-0.537759	0.556683
N136	N	1.329226	-0.448995	0.544415
H137	H	1.370880	-0.477093	0.515105
H138	H	1.363556	-0.428777	0.587106
N139	N	1.395103	-0.674478	0.498208
H140	H	1.436754	-0.702578	0.468902
H141	H	1.429433	-0.654264	0.540907
N142	N	1.364788	-0.364565	1.339425
H143	H	1.345080	-0.353025	1.402856
H144	H	1.430122	-0.363667	1.334262
H145	H	1.312192	-1.025056	0.556813
N146	N	1.395154	-0.771990	0.498229
H147	H	1.436773	-0.756117	0.468904
H148	H	1.366549	-0.793046	0.451502
H149	H	1.073715	-1.075142	0.724800
N150	N	1.329614	-1.118929	0.544610
H151	H	1.319650	-1.150745	0.551647
H152	H	1.389792	-1.113776	0.569111
N153	N	0.990455	-0.755793	0.783237
H154	H	1.018978	-0.734721	0.830010
H155	H	0.948852	-0.771698	0.812503
H156	H	1.007765	-0.623784	0.771000
N157	N	0.990446	-0.712548	0.783266
H158	H	0.956037	-0.732754	0.740636
H159	H	0.948862	-0.684426	0.812584
N160	N	1.056020	-0.506393	0.736871
H161	H	1.014366	-0.478296	0.766183
H162	H	1.084648	-0.524265	0.783609
N163	N	1.395183	-0.815228	0.498249
H164	H	1.436832	-0.843328	0.468940
H165	H	1.429518	-0.795013	0.540940
N166	N	1.395229	-0.912748	0.498272
H167	H	1.385266	-0.944564	0.505312
H168	H	1.455411	-0.907595	0.522765
H169	H	1.007884	-0.849654	0.771044
