data_functionalizedCrystal
_audit_creation_method	'MofGen! by Chris Wilmer'
_symmetry_space_group_name_H-M	'P1'
_symmetry_Int_Tables_number	1
_symmetry_cell_setting	triclinic
loop_
_symmetry_equiv_pos_as_xyz
  x,y,z
_cell_length_a	27.440280
_cell_length_b	14.809296
_cell_length_c	14.809374
_cell_angle_alpha	61.590000
_cell_angle_beta	98.947344
_cell_angle_gamma	55.122973
loop_
_atom_site_label
_atom_site_type_symbol
_atom_site_fract_x
_atom_site_fract_y
_atom_site_fract_z
Zr1	Zr	0.343953	1.187615	-0.307067
O2	O	0.231865	1.414008	-0.488683
O3	O	0.393576	0.961236	-0.226665
O4	O	0.355549	1.187613	-0.453028
O5	O	0.282525	1.187629	-0.111889
O6	O	0.435753	1.187595	-0.453031
O7	O	0.269891	1.187631	-0.262320
O8	O	0.503774	0.782649	-0.048108
O9	O	0.214504	1.592575	-0.516811
O10	O	0.456155	1.054331	-0.222251
O11	O	0.405729	1.054342	-0.109984
O12	O	0.360958	1.320871	-0.376497
O13	O	0.310532	1.320882	-0.264230
Zr14	Zr	0.492018	1.187583	-0.067151
Zr15	Zr	0.471867	1.187587	-0.307071
Zr16	Zr	0.364103	1.187611	-0.067147
Zr17	Zr	0.316263	1.472409	-0.351928
Zr18	Zr	0.519707	0.902789	-0.022290
O19	O	0.442395	1.413962	-0.147554
O20	O	0.413743	1.413968	-0.488689
O21	O	0.260516	1.414001	-0.147548
O22	O	0.604105	0.961191	0.114465
O23	O	0.575454	0.961197	-0.226671
O24	O	0.422227	0.961230	0.114471
O25	O	0.553445	1.187570	-0.262330
O26	O	0.480421	1.187586	0.078809
O27	O	0.400218	1.187603	0.078812
O28	O	0.566079	1.187567	-0.111899
O29	O	0.316179	1.592553	-0.516815
O30	O	0.519791	0.782646	0.142596
O31	O	0.621467	0.782624	0.142593
O32	O	0.605450	0.782627	-0.048112
O33	O	0.230521	1.592571	-0.326107
O34	O	0.332196	1.592549	-0.326110
O35	O	0.475012	1.054327	0.002279
O36	O	0.525438	1.054316	-0.109988
O37	O	0.430242	1.320856	-0.264234
O38	O	0.379816	1.320867	-0.151967
C39	C	0.452620	0.831366	-0.130995
C40	C	0.464375	0.710463	-0.111950
C41	C	0.424053	0.625130	-0.177274
C42	C	0.411910	0.750082	-0.196956
C43	C	0.257983	1.187634	-0.187104
C44	C	0.203680	1.187646	-0.187102
C45	C	-0.139972	1.187566	-0.269979
C46	C	-0.190989	1.187556	-0.269978
O47	O	-0.223275	1.187499	-0.340427
N48	N	-0.209546	1.187557	-0.187106
C49	C	-0.177079	1.187554	-0.104221
O50	O	-0.197548	1.187552	-0.033731
C51	C	-0.126059	1.187553	-0.104217
C52	C	-0.107510	1.187568	-0.187103
C53	C	-0.121421	1.187579	-0.352858
C54	C	-0.070409	1.187593	-0.352860
C55	C	-0.037947	1.187594	-0.269984
C56	C	-0.056497	1.187582	-0.187105
C57	C	-0.093588	1.187539	-0.021326
C58	C	-0.042565	1.187538	-0.021328
C59	C	-0.024016	1.187552	-0.104215
C60	C	0.026977	1.187597	-0.104232
N61	N	0.045535	1.187595	-0.187104
C62	C	0.013073	1.187594	-0.269980
C63	C	-0.284223	1.187551	-0.104235
C64	C	-0.335246	1.187562	-0.104244
C65	C	-0.349151	1.187561	-0.270000
C66	C	-0.298132	1.187561	-0.269996
C67	C	-0.265665	1.187550	-0.187107
C68	C	0.120203	1.187624	-0.269979
C69	C	0.171218	1.187644	-0.269978
C70	C	0.185122	1.187637	-0.104218
C71	C	0.134108	1.187625	-0.104224
C72	C	0.101651	1.187613	-0.187109
O73	O	0.059296	1.187646	-0.033816
O74	O	0.033556	1.187575	-0.340446
C75	C	0.577987	1.187564	-0.187115
C76	C	0.632290	1.187553	-0.187117
C77	C	0.392780	1.187605	-0.487213
C78	C	0.384226	1.187606	-0.589065
C79	C	0.383350	1.543833	-0.243224
C80	C	0.371595	1.664735	-0.262269
C81	C	0.422403	1.187598	-0.634476
C82	C	0.413562	1.187600	-0.739745
C83	C	0.443190	1.187594	0.112994
C84	C	0.451745	1.187592	0.214847
C85	C	0.612622	0.831331	-0.131000
C86	C	0.678680	0.710417	-0.111957
C87	C	0.477825	0.831360	0.169109
C88	C	0.498134	0.710456	0.290006
C89	C	0.637827	0.831326	0.169103
C90	C	0.712440	0.710410	0.289999
C91	C	0.198143	1.543873	-0.543322
C92	C	0.123531	1.664789	-0.664217
C93	C	0.223348	1.543867	-0.243218
C94	C	0.157290	1.664781	-0.262261
C95	C	0.358145	1.543838	-0.543327
C96	C	0.337836	1.664742	-0.664224
C97	C	0.673536	0.653642	-0.161625
C98	C	0.735596	0.540046	-0.143757
C99	C	0.802801	0.483219	-0.076213
C100	C	0.807944	0.540005	-0.026546
C101	C	0.745883	0.653607	-0.044422
C102	C	0.543838	0.653670	0.405391
C103	C	0.562918	0.540084	0.518993
C104	C	0.536297	0.483278	0.517209
C105	C	0.490588	0.540074	0.401811
C106	C	0.471505	0.653667	0.288211
C107	C	0.773806	0.653620	0.288170
C108	C	0.843914	0.540023	0.401752
C109	C	0.852656	0.483209	0.517163
C110	C	0.791283	0.540009	0.518988
C111	C	0.721175	0.653612	0.405406
C112	C	0.062163	1.721592	-0.662391
C113	C	-0.007949	1.835225	-0.775979
C114	C	-0.016692	1.892045	-0.891390
C115	C	0.044682	1.835237	-0.893214
C116	C	0.114792	1.721614	-0.779628
C117	C	0.162433	1.721568	-0.212606
C118	C	0.100367	1.835195	-0.230505
C119	C	0.033161	1.892026	-0.298052
C120	C	0.028020	1.835235	-0.347715
C121	C	0.090083	1.721617	-0.329823
C122	C	0.364469	1.721513	-0.662399
C123	C	0.345400	1.835100	-0.775983
C124	C	0.299694	1.891922	-0.891393
C125	C	0.273061	1.835141	-0.893214
C126	C	0.292134	1.721548	-0.779630
H127	H	0.358008	0.876497	-0.284303
C128	C	-0.050003	1.187586	-0.444023
H129	H	-0.076643	1.187568	-0.493365
H130	H	-0.062181	1.276591	-0.498987
H131	H	0.001405	1.098564	-0.395950
C132	C	0.298778	0.835498	-0.380259
H133	H	0.267443	0.844143	-0.431035
H134	H	0.275143	0.883860	-0.353784
H135	H	0.308826	0.883837	-0.428766
C136	C	0.751547	0.716051	0.010217
H137	H	0.704963	0.791858	-0.010105
H138	H	0.787158	0.634482	0.100157
H139	H	0.766007	0.760368	-0.025720
H140	H	0.093782	1.187612	-0.337470
C141	C	-0.248526	1.187572	-0.013070
H142	H	-0.266895	1.187589	0.036269
H143	H	-0.196542	1.098571	0.041895
H144	H	-0.260136	1.276598	-0.061144
H145	H	-0.057913	1.881458	-0.774469
C146	C	0.191624	1.187653	-0.361150
H147	H	0.226652	1.187674	-0.349295
H148	H	0.212199	1.098644	-0.343693
H149	H	0.148607	1.276671	-0.446716
C150	C	-0.384852	1.187521	-0.361141
H151	H	-0.417885	1.187495	-0.349252
H152	H	-0.411145	1.276519	-0.446712
H153	H	-0.347546	1.098492	-0.343659
C154	C	0.084420	1.659145	-0.384431
H155	H	0.035507	1.709259	-0.427206
H156	H	0.096556	1.677743	-0.442822
H157	H	0.117696	1.551888	-0.316941
C158	C	0.573122	0.716147	0.407371
H159	H	0.555220	0.791927	0.323196
H160	H	0.556719	0.760473	0.440147
H161	H	0.625499	0.634578	0.459986
C162	C	0.035058	1.897737	-1.020169
H163	H	-0.015487	1.973526	-1.087543
H164	H	0.051242	1.942054	-1.035567
H165	H	0.063473	1.816178	-1.015724
H166	H	0.490980	1.187575	-0.746096
H167	H	0.766701	0.699862	0.194209
C168	C	-0.157127	1.187590	-0.444037
H169	H	-0.138768	1.187609	-0.493394
H170	H	-0.145533	1.098589	-0.395996
H171	H	-0.209114	1.276616	-0.499004
C172	C	0.537198	0.539698	0.006045
H173	H	0.568535	0.531058	0.056811
H174	H	0.527157	0.491347	0.054551
H175	H	0.560834	0.491346	-0.020440
C176	C	0.331228	1.187621	-0.641820
H177	H	0.332235	1.187632	-0.705659
H178	H	0.346162	1.098621	-0.574673
H179	H	0.282582	1.276647	-0.677698
H180	H	0.401685	1.675265	-0.568439
H181	H	0.217151	1.675305	-0.157595
H182	H	0.893879	0.493788	0.400245
C183	C	0.182298	1.659083	-0.781638
H184	H	0.225311	1.583267	-0.697466
H185	H	0.187713	1.614789	-0.814432
H186	H	0.175522	1.740616	-0.834247
H187	H	0.270441	1.675338	-0.781134
C188	C	0.800910	0.477489	0.645946
H189	H	0.851456	0.401686	0.713323
H190	H	0.772491	0.559023	0.641523
H191	H	0.784734	0.433150	0.661330
C192	C	-0.113972	1.187498	0.069865
H193	H	-0.087317	1.187475	0.119229
H194	H	-0.165376	1.276494	0.021829
H195	H	-0.101781	1.098467	0.124825
C196	C	0.557298	0.358319	0.642178
H197	H	0.588337	0.332633	0.711149
H198	H	0.513878	0.395547	0.636337
H199	H	0.582654	0.269666	0.656158
C200	C	0.599616	0.716140	-0.235933
H201	H	0.605449	0.666057	-0.262959
H202	H	0.584468	0.697524	-0.182425
H203	H	0.563331	0.823402	-0.308284
C204	C	0.653680	0.716051	0.407435
H205	H	0.668935	0.665925	0.492442
H206	H	0.619108	0.823307	0.355651
H207	H	0.631366	0.697407	0.375490
H208	H	0.731395	0.493825	-0.184205
C209	C	0.871064	0.358247	-0.056545
H210	H	0.858371	0.332569	-0.095791
H211	H	0.887899	0.395458	-0.093782
H212	H	0.909034	0.269593	0.032084
H213	H	0.600138	0.493853	0.612943
C214	C	0.374692	1.897557	-0.773959
H215	H	0.404632	1.847461	-0.688959
H216	H	0.403147	1.878928	-0.805905
H217	H	0.334360	2.004820	-0.825751
H218	H	0.468917	0.493806	0.400378
C219	C	0.071769	1.659111	-0.535452
H220	H	0.122312	1.583295	-0.468053
H221	H	0.043348	1.740669	-0.539903
H222	H	0.055578	1.614802	-0.520079
H223	H	0.434292	0.699887	0.194265
H224	H	0.104568	1.881416	-0.190056
H225	H	-0.026708	1.881524	-0.402713
H226	H	0.284169	1.984418	-0.983871
H227	H	0.118998	1.187636	-0.036743
C228	C	-0.035102	2.016998	-0.317720
H229	H	-0.022405	2.042661	-0.278458
H230	H	-0.073075	2.105647	-0.406340
H231	H	-0.051927	1.979765	-0.280465
H232	H	-0.073784	1.984563	-0.983870
C233	C	-0.277724	1.187555	-0.361157
H234	H	-0.304365	1.187544	-0.410505
H235	H	-0.289898	1.276556	-0.416114
H236	H	-0.226316	1.098529	-0.313082
H237	H	0.235845	1.881423	-0.987196
H238	H	0.862671	0.493720	0.028448
H239	H	0.909747	0.390705	0.609640
H240	H	-0.350353	1.187574	-0.036765
C241	C	0.496868	0.454365	-0.059285
H242	H	0.495474	0.392786	-0.061531
H243	H	0.536866	0.432465	-0.059250
H244	H	0.503179	0.432489	0.015726
H245	H	0.374333	1.187600	-0.778793
C246	C	-0.006862	1.187544	0.069842
H247	H	-0.025225	1.187550	0.119191
H248	H	0.045123	1.098545	0.124799
H249	H	-0.018474	1.276572	0.021768
H250	H	0.461636	1.187581	-0.595416
C251	C	0.220840	1.187627	-0.013055
H252	H	0.253885	1.187617	-0.024923
H253	H	0.183552	1.276624	-0.030494
H254	H	0.247137	1.098597	0.072510
