data_functionalizedCrystal
_audit_creation_method	'MofGen! by Chris Wilmer'
_symmetry_space_group_name_H-M	'P1'
_symmetry_Int_Tables_number	1
_symmetry_cell_setting	triclinic
loop_
_symmetry_equiv_pos_as_xyz
  x,y,z
_cell_length_a	17.019282
_cell_length_b	17.038272
_cell_length_c	15.500361
_cell_angle_alpha	93.042303
_cell_angle_beta	83.300157
_cell_angle_gamma	87.241387
loop_
_atom_site_label
_atom_site_type_symbol
_atom_site_fract_x
_atom_site_fract_y
_atom_site_fract_z
O1	O	1.053674	0.099213	-0.006583
O2	O	0.824049	0.112790	0.010532
O3	O	0.937497	-0.007807	0.002069
O4	O	0.940226	0.219811	0.001879
O5	O	0.944345	-0.015101	-0.142327
O6	O	0.830897	0.105496	-0.133865
O7	O	1.060522	0.091919	-0.150980
Cu8	Cu	0.946335	0.098042	-0.155607
Cu9	Cu	0.938236	0.106668	0.015159
O10	O	0.947074	0.212517	-0.142517
C11	C	0.797947	0.108774	-0.059466
C12	C	0.709968	0.107666	-0.052908
C13	C	0.672374	0.103167	-0.128540
C14	C	0.589709	0.102112	-0.122382
C15	C	0.544641	0.105563	-0.040590
C16	C	0.582242	0.110059	0.035048
C17	C	0.664905	0.111108	0.028888
C18	C	0.294866	0.102590	-0.018054
C19	C	0.212197	0.101543	-0.011900
C20	C	0.219670	0.093595	-0.169330
C21	C	0.302334	0.094649	-0.175482
C22	C	0.339928	0.099141	-0.099845
C23	C	0.460145	0.104487	-0.034293
C24	C	0.424423	0.100211	-0.106143
C25	C	0.938438	-0.040571	-0.069944
C26	C	0.931032	-0.127329	-0.069392
C27	C	0.999033	-0.177761	-0.074461
C28	C	0.992068	-0.259279	-0.073934
C29	C	0.917103	-0.290363	-0.068343
C30	C	0.849097	-0.239925	-0.063271
C31	C	0.856062	-0.158409	-0.063792
C32	C	0.892497	-0.536006	-0.066497
C33	C	0.885538	-0.617529	-0.065979
C34	C	1.028510	-0.636877	-0.076641
C35	C	1.035468	-0.555358	-0.077166
C36	C	0.967462	-0.504927	-0.072090
C37	C	0.909983	-0.373687	-0.067807
C38	C	0.974583	-0.421604	-0.072620
C39	C	1.086624	0.095935	-0.080980
C40	C	1.174602	0.097044	-0.087532
C41	C	0.946132	0.245281	-0.070502
C42	C	0.953538	0.332040	-0.071049
N43	N	0.952037	0.091974	-0.275715
C44	C	0.903954	0.143056	-0.317426
C45	C	0.908289	0.138464	-0.408320
C46	C	0.960702	0.082786	-0.457501
C47	C	1.008790	0.031702	-0.415784
C48	C	1.004459	0.036298	-0.324892
C49	C	0.976297	0.066241	-0.732124
C50	C	0.980623	0.061647	-0.823023
C51	C	0.880122	0.168411	-0.815552
C52	C	0.875792	0.172999	-0.724658
C53	C	0.923883	0.121918	-0.682949
C54	C	0.965132	0.078089	-0.550410
C55	C	0.919456	0.126619	-0.590043
N56	N	0.932540	0.112729	0.135266
H57	H	0.559105	0.098436	-0.183969
H58	H	0.695513	0.114773	0.090476
N59	N	0.850413	0.199922	-0.267179
N60	N	0.797193	0.177902	-0.212686
H61	H	0.759380	0.218066	-0.177200
N62	N	1.034192	0.004803	-0.873277
N63	N	1.038062	0.000723	-0.954431
H64	H	1.075900	-0.039413	-0.989926
H65	H	1.047442	-0.300338	-0.078064
N66	N	0.823031	-0.484501	-0.061307
N67	N	0.771501	-0.484053	0.003184
H68	H	0.722436	-0.447675	0.006849
N69	N	1.053572	-0.015901	-0.282303
N70	N	1.101981	0.011206	-0.235359
H71	H	1.136670	-0.025670	-0.205294
H72	H	0.869136	0.180060	-0.442280
N73	N	0.822241	0.229873	-0.674436
N74	N	0.779310	0.275476	-0.711690
H75	H	0.741485	0.315640	-0.676221
N76	N	0.348379	0.091098	-0.259026
N77	N	0.398928	0.035695	-0.280279
H78	H	0.431451	0.033186	-0.339281
H79	H	0.423441	0.107296	0.032302
H80	H	0.709062	0.100364	-0.195144
N81	N	0.470458	0.096712	-0.189686
N82	N	0.460140	0.149041	-0.241418
H83	H	0.492659	0.146577	-0.300420
H84	H	0.788058	-0.265240	-0.058714
H85	H	1.060078	-0.152460	-0.079019
H86	H	0.800688	-0.117347	-0.059664
N87	N	0.181256	0.089008	-0.246578
N88	N	0.107450	0.088073	-0.241072
H89	H	0.080319	0.084832	-0.295632
H90	H	1.015453	0.024647	-0.698172
N91	N	0.831006	0.220580	-0.858171
N92	N	0.834876	0.216471	-0.939325
H93	H	0.800187	0.253317	-0.969426
H94	H	1.035619	-0.396291	-0.077152
H95	H	0.545541	0.112863	0.101644
N96	N	0.166158	0.105047	0.071651
N97	N	0.122788	0.050251	0.092367
H98	H	0.090271	0.052725	0.151371
N99	N	0.333247	0.107179	0.059214
N100	N	0.292995	0.110261	0.132234
H101	H	0.320104	0.113503	0.186809
N102	N	1.112050	-0.523622	-0.082878
N103	N	1.172761	-0.568660	-0.087403
H104	H	1.226849	-0.546247	-0.091439
N105	N	1.097964	-0.688402	-0.081827
N106	N	1.091740	-0.761183	-0.081363
H107	H	1.140795	-0.797575	-0.085025
N108	N	1.062338	-0.025157	-0.466032
N109	N	1.066202	-0.029252	-0.547185
H110	H	1.104022	-0.069409	-0.582674
H111	H	0.824490	-0.642834	-0.061441
H112	H	1.007807	0.032754	-0.590460
H113	H	0.848945	-0.399006	-0.063257
N114	N	0.865930	0.183502	-0.539811
N115	N	0.891896	0.234474	-0.491201
H116	H	0.854092	0.274648	-0.455718
