data_functionalizedCrystal
_audit_creation_method	'MofGen! by Chris Wilmer'
_symmetry_space_group_name_H-M	'P1'
_symmetry_Int_Tables_number	1
_symmetry_cell_setting	triclinic
loop_
_symmetry_equiv_pos_as_xyz
  x,y,z
_cell_length_a	16.120444
_cell_length_b	12.827893
_cell_length_c	16.120256
_cell_angle_alpha	92.878451
_cell_angle_beta	84.383140
_cell_angle_gamma	87.075196
loop_
_atom_site_label
_atom_site_type_symbol
_atom_site_fract_x
_atom_site_fract_y
_atom_site_fract_z
Zn1	Zn	-0.356803	-1.543783	0.489464
Zn2	Zn	0.143197	-1.043783	0.989464
Zn3	Zn	-0.489490	-1.543648	0.356775
Zn4	Zn	0.010510	-1.043648	0.856775
Zn5	Zn	-0.349731	-1.378362	0.349709
Zn6	Zn	0.150269	-0.878362	0.849709
Zn7	Zn	-0.496530	-1.359647	0.496498
Zn8	Zn	0.003470	-0.859647	0.996498
O9	O	-0.423139	-1.456360	0.423111
O10	O	0.076861	-0.956360	0.923111
O11	O	-0.374418	-1.689999	0.471876
O12	O	0.125582	-1.189999	0.971876
O13	O	-0.465044	-1.529498	0.238875
O14	O	0.034956	-1.029498	0.738875
O15	O	-0.233703	-1.408193	0.362346
O16	O	0.266297	-0.908193	0.862346
O17	O	-0.471902	-1.689901	0.374390
O18	O	0.028098	-1.189901	0.874390
O19	O	-0.238899	-1.529728	0.465024
O20	O	0.261101	-1.029728	0.965024
O21	O	-0.362364	-1.408063	0.233683
O22	O	0.137636	-0.908063	0.733683
O23	O	-0.369191	-1.229645	0.369167
O24	O	0.130809	-0.729645	0.869167
O25	O	-0.483902	-1.376298	0.612528
O26	O	0.016098	-0.876298	1.112528
O27	O	-0.477044	-1.215896	0.477013
O28	O	0.022956	-0.715896	0.977013
O29	O	-0.381245	-1.511581	0.607359
O30	O	0.118755	-1.011581	1.107359
O31	O	-0.607389	-1.511352	0.381211
O32	O	-0.107389	-1.011352	0.881211
O33	O	-0.612562	-1.376167	0.483865
O34	O	-0.112562	-0.876167	0.983865
C35	C	-0.423115	-1.184853	0.423087
C36	C	0.076885	-0.684853	0.923087
C37	C	-0.423126	-1.068699	0.423098
C38	C	0.076874	-0.568699	0.923098
C39	C	-0.374980	-1.016952	0.471419
C40	C	0.125020	-0.516952	0.971419
C41	C	-0.374990	-0.896900	0.471431
C42	C	0.125010	-0.396900	0.971431
C43	C	-0.640305	-1.441741	0.434086
C44	C	-0.140305	-0.941741	0.934086
C45	C	-0.733211	-1.435581	0.438810
C46	C	-0.233211	-0.935581	0.938810
C47	C	-0.942121	-1.488560	0.398790
C48	C	-0.442121	-0.988560	0.898790
C49	C	-0.903306	-1.424353	0.447442
C50	C	-0.403306	-0.924353	0.947442
C51	C	-0.808656	-1.430602	0.442637
C52	C	-0.308656	-0.930602	0.942637
C53	C	-1.036779	-1.482312	0.403593
C54	C	-0.536779	-0.982312	0.903593
C55	C	-0.205125	-1.471063	0.412112
C56	C	0.294875	-0.971063	0.912112
C57	C	-0.112221	-1.477329	0.407424
C58	C	0.387779	-0.977329	0.907424
C59	C	-0.434148	-1.441867	0.641119
C60	C	0.065852	-0.941867	1.141119
C61	C	-0.438839	-1.435691	0.734020
C62	C	0.061161	-0.935691	1.234020
C63	C	-0.423156	-0.728928	0.423129
C64	C	0.076844	-0.228928	0.923129
C65	C	-0.423145	-0.845082	0.423119
C66	C	0.076855	-0.345082	0.923119
C67	C	-0.412112	-1.470861	0.205949
C68	C	0.087888	-0.970861	0.705949
C69	C	-0.407185	-1.477255	0.113036
C70	C	0.092815	-0.977255	0.613036
C71	C	-0.398652	-1.488567	0.942946
C72	C	0.101348	-0.988567	1.442946
C73	C	-0.447370	-1.424382	0.904105
C74	C	0.052630	-0.924382	1.404105
C75	C	-0.442622	-1.430676	0.809461
C76	C	0.057378	-0.930676	1.309461
C77	C	-0.403399	-1.482275	1.037598
C78	C	0.096601	-0.982275	1.537598
H79	H	-0.333774	-0.852398	0.512803
H80	H	0.166226	-0.352398	1.012803
H81	H	-0.941159	-1.364690	0.492702
H82	H	-0.441159	-0.864690	0.992702
H83	H	-0.464371	-0.889577	0.381752
H84	H	0.035629	-0.389577	0.881752
H85	H	-0.904271	-1.548218	0.353532
H86	H	-0.404271	-1.048218	0.853532
O87	O	-0.501376	-1.353291	0.949355
O88	O	-0.001376	-0.853291	1.449355
C89	C	-0.555363	-1.282075	1.086313
C90	C	-0.055363	-0.782075	1.586313
C91	C	-0.494173	-1.362636	1.035167
C92	C	0.005827	-0.862636	1.535167
H93	H	-0.549547	-1.289588	1.155701
H94	H	-0.049547	-0.789588	1.655701
H95	H	-0.621937	-1.297015	1.072684
H96	H	-0.121937	-0.797015	1.572684
H97	H	-0.539861	-1.199923	1.068409
H98	H	-0.039861	-0.699923	1.568409
H99	H	-0.509598	-1.444820	1.053041
H100	H	-0.009598	-0.944820	1.553041
H101	H	-0.427616	-1.347605	1.048801
H102	H	0.072384	-0.847605	1.548801
O103	O	-0.344720	-1.559736	0.897701
O104	O	0.155280	-1.059736	1.397701
C105	C	-0.290712	-1.630906	0.760735
C106	C	0.209288	-1.130906	1.260735
C107	C	-0.351834	-1.550272	0.811886
C108	C	0.148166	-1.050272	1.311886
H109	H	-0.296430	-1.623267	0.691344
H110	H	0.203570	-1.123267	1.191344
H111	H	-0.306246	-1.713087	0.778538
H112	H	0.193754	-1.213087	1.278538
H113	H	-0.224160	-1.616008	0.774463
H114	H	0.275840	-1.116008	1.274463
H115	H	-0.418407	-1.565073	0.798186
H116	H	0.081593	-1.065073	1.298186
H117	H	-0.336228	-1.468118	0.794076
H118	H	0.163772	-0.968118	1.294076
O119	O	-0.325720	-1.069961	0.520792
O120	O	0.174280	-0.569961	1.020792
C121	C	-0.225248	-1.058759	0.621709
C122	C	0.274752	-0.558759	1.121709
C123	C	-0.280978	-0.998603	0.565817
C124	C	0.219022	-0.498603	1.065817
H125	H	-0.189073	-1.001090	0.658139
H126	H	0.310927	-0.501090	1.158139
H127	H	-0.179523	-1.115310	0.581197
H128	H	0.320477	-0.615310	1.081197
H129	H	-0.265942	-1.104416	0.667215
H130	H	0.234058	-0.604416	1.167215
H131	H	-0.240351	-0.952885	0.520303
H132	H	0.259649	-0.452885	1.020303
H133	H	-0.326708	-0.942113	0.606380
H134	H	0.173292	-0.442113	1.106380
H135	H	-0.464350	-1.024124	0.381735
H136	H	0.035650	-0.524124	0.881735
