data_functionalizedCrystal
_audit_creation_method	'MofGen! by Chris Wilmer'
_symmetry_space_group_name_H-M	'P1'
_symmetry_Int_Tables_number	1
_symmetry_cell_setting	triclinic
loop_
_symmetry_equiv_pos_as_xyz
  x,y,z
_cell_length_a	15.537937
_cell_length_b	15.624967
_cell_length_c	14.185230
_cell_angle_alpha	92.817325
_cell_angle_beta	108.234826
_cell_angle_gamma	113.263206
loop_
_atom_site_label
_atom_site_type_symbol
_atom_site_fract_x
_atom_site_fract_y
_atom_site_fract_z
O1	O	-1.254600	-0.289634	-0.021978
O2	O	-0.972251	-0.190752	0.014005
O3	O	-1.131291	-0.367156	-0.050184
O4	O	-1.095561	-0.113229	0.042211
O5	O	-1.167474	-0.344251	-0.208693
O6	O	-1.008434	-0.167847	-0.144504
O7	O	-1.290783	-0.266729	-0.180486
Cu8	Cu	-1.152913	-0.215196	-0.176968
Cu9	Cu	-1.110122	-0.242284	0.010487
O10	O	-1.131744	-0.090324	-0.116298
C11	C	-0.954401	-0.168953	-0.061485
C12	C	-0.847304	-0.138135	-0.050270
C13	C	-1.151351	-0.387409	-0.140973
C14	C	-1.157205	-0.481876	-0.175340
C15	C	-0.678475	-0.013221	-0.004818
C16	C	-0.779110	-0.042189	-0.015359
C17	C	-0.814884	-0.205152	-0.074660
C18	C	-0.714251	-0.176197	-0.064128
C19	C	-0.646054	-0.080231	-0.029206
C20	C	-0.681830	-0.243206	-0.088516
C21	C	-0.581204	-0.214254	-0.077981
C22	C	-0.513000	-0.118293	-0.043057
C23	C	-0.545428	-0.051278	-0.018670
C24	C	-0.750027	-0.339173	-0.123432
C25	C	-0.717606	-0.406183	-0.147820
C26	C	-0.616981	-0.377230	-0.137291
C27	C	-0.548777	-0.281269	-0.102367
C28	C	-0.584553	-0.444244	-0.161678
C29	C	-0.483927	-0.415292	-0.151142
C30	C	-0.448151	-0.252316	-0.091832
C31	C	-1.185179	-0.602544	-0.310177
C32	C	-1.179676	-0.513779	-0.277874
C33	C	-1.140234	-0.538734	-0.105068
C34	C	-1.145739	-0.627505	-0.137358
C35	C	-1.168211	-0.659402	-0.239913
C36	C	-1.128770	-0.684363	-0.067094
C37	C	-1.134270	-0.773124	-0.099380
C38	C	-1.156738	-0.805027	-0.201931
C39	C	-1.173710	-0.748163	-0.272200
C40	C	-1.106291	-0.652461	0.035462
C41	C	-1.089322	-0.709319	0.105726
C42	C	-1.094829	-0.798084	0.073439
C43	C	-1.117297	-0.829987	-0.029111
C44	C	-1.077856	-0.854948	0.143708
C45	C	-1.083356	-0.943709	0.111421
C46	C	-1.122796	-0.918748	-0.061398
C47	C	-0.308634	-0.288522	-0.104999
C48	C	-0.415730	-0.319326	-0.116220
C49	C	-1.111683	-0.070072	-0.025507
C50	C	-1.105828	0.024394	0.008866
N51	N	-1.183016	-0.196147	-0.308815
N52	N	-1.080026	-0.261343	0.142330
C53	C	-0.991670	-0.317340	0.279482
C54	C	-1.014450	-0.302899	0.179710
C55	C	-1.122853	-0.234215	0.204715
C56	C	-1.100086	-0.248655	0.304490
C57	C	-1.034493	-0.290217	0.341866
C58	C	-1.142909	-0.221531	0.366873
C59	C	-1.120140	-0.235965	0.466641
C60	C	-1.054547	-0.277522	0.504026
C61	C	-1.011723	-0.304650	0.441633
C62	C	-1.208496	-0.179963	0.329498
C63	C	-1.251320	-0.152839	0.391881
C64	C	-1.228556	-0.167279	0.491649
C65	C	-1.162963	-0.208837	0.529033
C66	C	-1.271379	-0.140151	0.554041
C67	C	-1.248609	-0.154585	0.653809
C68	C	-1.140193	-0.223271	0.628801
H69	H	-0.392623	-0.174169	-0.063407
H70	H	-0.938262	-0.351190	0.309913
O71	O	-0.888442	-0.308655	-0.112325
H72	H	-0.892445	-0.332829	-0.189125
O73	O	-0.448949	-0.487559	-0.177454
H74	H	-0.513278	-0.559152	-0.203519
H75	H	-0.979570	-0.324987	0.128920
O76	O	-1.162667	-0.900761	-0.236755
H77	H	-1.181135	-0.913384	-0.319870
H78	H	-0.622947	0.064926	0.023607
H79	H	-1.227032	-0.168211	0.248260
H80	H	-0.831958	-0.362745	-0.131991
H81	H	-1.193470	-0.467476	-0.335096
H82	H	-0.489900	0.026869	0.009754
H83	H	-1.121934	-0.512749	-0.021567
H84	H	-1.304723	-0.118996	0.361437
H85	H	-0.773145	-0.484319	-0.176251
H86	H	-1.324778	-0.106303	0.523597
O87	O	-0.404469	-0.087058	-0.031702
H88	H	-0.370905	-0.123940	0.022873
H89	H	-0.805503	0.012388	0.004493
O90	O	-1.065083	-0.674905	0.216335
H91	H	-1.054201	-0.729355	0.259770
O92	O	-0.658111	-0.547747	-0.199346
H93	H	-0.733530	-0.556621	-0.202579
O94	O	-1.029956	-0.293089	0.611634
H95	H	-0.947806	-0.253363	0.653753
O96	O	-1.147046	-0.953177	-0.172012
H97	H	-1.089029	-0.902595	-0.197225
O98	O	-1.100419	-0.556785	0.070418
H99	H	-1.041084	-0.500304	0.051751
H100	H	-1.192015	-0.774137	-0.355711
H101	H	-1.176257	-0.200372	0.174270
H102	H	-1.203484	-0.628519	-0.393689
H103	H	-1.059550	-0.828959	0.227210
H104	H	-0.958316	-0.338500	0.472064
H105	H	-1.069531	-0.990001	0.168639
H106	H	-1.283477	-0.132494	0.704605
H107	H	-1.086786	-0.257120	0.659232
