data_functionalizedCrystal
_audit_creation_method	'MofGen! by Chris Wilmer'
_symmetry_space_group_name_H-M	'P1'
_symmetry_Int_Tables_number	1
_symmetry_cell_setting	triclinic
loop_
_symmetry_equiv_pos_as_xyz
  x,y,z
_cell_length_a	23.532407
_cell_length_b	23.532407
_cell_length_c	22.010155
_cell_angle_alpha	89.999577
_cell_angle_beta	89.996931
_cell_angle_gamma	82.848678
loop_
_atom_site_label
_atom_site_type_symbol
_atom_site_fract_x
_atom_site_fract_y
_atom_site_fract_z
O1	O	0.755264	0.069127	-0.050455
O2	O	1.255264	0.569127	0.449545
O3	O	0.589400	0.079130	-0.050474
O4	O	1.089400	0.579130	0.449526
O5	O	0.677334	-0.008803	-0.050453
O6	O	1.177334	0.491197	0.449547
O7	O	0.667330	0.157060	-0.050476
O8	O	1.167330	0.657060	0.449524
O9	O	0.677318	-0.008790	0.050597
O10	O	1.177318	0.491210	0.550597
O11	O	0.589384	0.079143	0.050576
O12	O	1.089384	0.579143	0.550576
O13	O	0.755248	0.069140	0.050595
O14	O	1.255248	0.569140	0.550595
Cu15	Cu	0.672315	0.074143	0.059812
Cu16	Cu	1.172315	0.574143	0.559812
Cu17	Cu	0.672333	0.074127	-0.059691
Cu18	Cu	1.172333	0.574127	0.440309
O19	O	0.667314	0.157073	0.050574
O20	O	1.167314	0.657073	0.550574
C21	C	0.568176	0.078882	0.000049
C22	C	1.068176	0.578882	0.500049
C23	C	0.504959	0.078116	0.000042
C24	C	1.004959	0.578116	0.500042
C25	C	0.677071	-0.030013	0.000074
C26	C	1.177071	0.469987	0.500074
C27	C	0.676305	-0.093230	0.000078
C28	C	1.176305	0.406770	0.500078
C29	C	0.105856	0.125350	0.000063
C30	C	0.605856	0.625350	0.500063
C31	C	0.046456	0.124638	0.000067
C32	C	0.546456	0.624638	0.500067
O33	O	0.009711	0.168424	0.000083
O34	O	0.509711	0.668424	0.500083
N35	N	0.023830	0.072362	0.000073
N36	N	0.523830	0.572362	0.500073
C37	C	0.060607	0.020794	0.000082
C38	C	0.560607	0.520794	0.500082
O39	O	0.035908	-0.023737	0.000088
O40	O	0.535908	0.476263	0.500088
C41	C	0.120006	0.021506	0.000082
C42	C	0.620006	0.521506	0.500082
C43	C	0.142629	0.073785	0.000070
C44	C	0.642629	0.573785	0.500070
C45	C	0.128479	0.177625	0.000051
C46	C	0.628479	0.677625	0.500051
C47	C	0.187876	0.178336	0.000046
C48	C	0.687876	0.678336	0.500046
C49	C	0.224649	0.126772	0.000053
C50	C	0.724649	0.626772	0.500053
C51	C	0.202025	0.074497	0.000065
C52	C	0.702025	0.574497	0.500065
C53	C	0.156783	-0.030062	0.000096
C54	C	0.656783	0.469938	0.500096
C55	C	0.216185	-0.029345	0.000097
C56	C	0.716185	0.470655	0.500097
C57	C	0.238808	0.022934	0.000084
C58	C	0.738808	0.522934	0.500084
C59	C	0.298194	0.023643	0.000067
C60	C	0.798194	0.523643	0.500067
N61	N	0.320820	0.075920	0.000061
N62	N	0.820820	0.575920	0.500061
C63	C	0.284048	0.127484	0.000054
C64	C	0.784048	0.627484	0.500054
C65	C	-0.064135	0.019302	0.000082
C66	C	0.435865	0.519302	0.500082
C67	C	-0.123533	0.018589	0.000077
C68	C	0.376467	0.518589	0.500077
C69	C	-0.137680	0.122434	0.000063
C70	C	0.362320	0.622434	0.500063
C71	C	-0.078281	0.123146	0.000064
C72	C	0.421719	0.623146	0.500064
C73	C	-0.041509	0.071578	0.000076
C74	C	0.458491	0.571578	0.500076
C75	C	0.408784	0.128974	0.000043
C76	C	0.908784	0.628974	0.500043
C77	C	0.468186	0.129680	0.000035
C78	C	0.968186	0.629680	0.500035
C79	C	0.482329	0.025836	0.000052
C80	C	0.982329	0.525836	0.500052
C81	C	0.422932	0.025129	0.000057
C82	C	0.922932	0.525129	0.500057
C83	C	0.386160	0.076702	0.000054
C84	C	0.886160	0.576702	0.500054
O85	O	0.334974	-0.020119	0.000054
O86	O	0.834974	0.479881	0.500054
O87	O	0.308755	0.172007	0.000055
O88	O	0.808755	0.672007	0.500055
C89	C	0.723539	-0.492333	0.000050
C90	C	1.223539	0.007667	0.500050
C91	C	0.722827	-0.551733	0.000046
C92	C	1.222827	-0.051733	0.500046
O93	O	0.766613	-0.588478	0.000028
O94	O	1.266613	-0.088478	0.500028
N95	N	0.670551	-0.574359	0.000040
N96	N	1.170551	-0.074359	0.500040
C97	C	0.618983	-0.537582	0.000033
C98	C	1.118983	-0.037582	0.500033
O99	O	0.574452	-0.562281	0.000027
O100	O	1.074452	-0.062281	0.500027
C101	C	0.619695	-0.478182	0.000033
C102	C	1.119695	0.021818	0.500033
C103	C	0.671974	-0.455560	0.000045
C104	C	1.171974	0.044440	0.500045
C105	C	0.775814	-0.469710	0.000061
C106	C	1.275814	0.030290	0.500061
C107	C	0.776525	-0.410313	0.000067
C108	C	1.276525	0.089687	0.500067
C109	C	0.724961	-0.373540	0.000062
C110	C	1.224961	0.126460	0.500062
C111	C	0.672685	-0.396164	0.000051
C112	C	1.172685	0.103836	0.500051
C113	C	0.568127	-0.441406	0.000022
C114	C	1.068127	0.058594	0.500022
C115	C	0.568844	-0.382004	0.000022
C116	C	1.068844	0.117996	0.500022
C117	C	0.621123	-0.359381	0.000034
C118	C	1.121123	0.140619	0.500034
C119	C	0.621832	-0.299995	0.000052
C120	C	1.121832	0.200005	0.500052
N121	N	0.674109	-0.277368	0.000057
N122	N	1.174109	0.222632	0.500057
C123	C	0.725673	-0.314141	0.000062
C124	C	1.225673	0.185859	0.500062
C125	C	0.617491	-0.662324	0.000031
C126	C	1.117491	-0.162324	0.500031
C127	C	0.616778	-0.721722	0.000035
C128	C	1.116778	-0.221722	0.500035
C129	C	0.720623	-0.735869	0.000047
C130	C	1.220623	-0.235869	0.500047
C131	C	0.721335	-0.676470	0.000047
C132	C	1.221335	-0.176470	0.500047
C133	C	0.669767	-0.639698	0.000037
C134	C	1.169767	-0.139698	0.500037
C135	C	0.727163	-0.189405	0.000075
C136	C	1.227163	0.310595	0.500075
C137	C	0.727869	-0.130003	0.000083
C138	C	1.227869	0.369997	0.500083
C139	C	0.624025	-0.115860	0.000069
C140	C	1.124025	0.384140	0.500069
C141	C	0.623318	-0.175257	0.000064
C142	C	1.123318	0.324743	0.500064
C143	C	0.674891	-0.212029	0.000065
C144	C	1.174891	0.287971	0.500065
O145	O	0.578070	-0.263215	0.000067
O146	O	1.078070	0.236785	0.500067
O147	O	0.770196	-0.289433	0.000060
O148	O	1.270196	0.210567	0.500060
C149	C	0.776472	0.069388	0.000071
C150	C	1.276472	0.569388	0.500071
C151	C	0.839689	0.070154	0.000073
C152	C	1.339689	0.570154	0.500073
C153	C	0.667577	0.178283	0.000046
C154	C	1.167577	0.678283	0.500046
C155	C	0.668343	0.241500	0.000037
C156	C	1.168343	0.741500	0.500037
N157	N	0.672305	0.074153	0.143865
N158	N	1.172305	0.574153	0.643865
N159	N	0.672347	0.074112	-0.143744
N160	N	1.172347	0.574112	0.356256
C161	C	0.711273	0.035196	0.563653
C162	C	1.211273	0.535196	1.063653
C163	C	0.711275	0.035192	0.627261
C164	C	1.211275	0.535192	1.127261
O165	O	0.744384	0.002076	0.660160
O166	O	1.244384	0.502076	1.160160
N167	N	0.672333	0.074115	0.659072
N168	N	1.172333	0.574115	1.159072
C169	C	0.633382	0.113041	0.627272
C170	C	1.133382	0.613041	1.127272
O171	O	0.600259	0.146148	0.660170
O172	O	1.100259	0.646148	1.160170
C173	C	0.633377	0.113042	0.563665
C174	C	1.133377	0.613042	1.063665
C175	C	0.672326	0.074120	0.531858
C176	C	1.172326	0.574120	1.031858
C177	C	0.750217	-0.003723	0.531846
C178	C	1.250217	0.496277	1.031846
C179	C	0.750215	-0.003719	0.468243
C180	C	1.250215	0.496281	0.968243
C181	C	0.711268	0.035205	0.436447
C182	C	1.211268	0.535205	0.936447
C183	C	0.672324	0.074125	0.468255
C184	C	1.172324	0.574125	0.968255
C185	C	0.594424	0.151965	0.531866
C186	C	1.094424	0.651965	1.031866
C187	C	0.594422	0.151962	0.468256
C188	C	1.094422	0.651962	0.968256
C189	C	0.633370	0.113040	0.436448
C190	C	1.133370	0.613040	0.936448
C191	C	0.633374	0.113054	0.372856
C192	C	1.133374	0.613054	0.872856
N193	N	0.672317	0.074130	0.341045
N194	N	1.172317	0.574130	0.841045
C195	C	0.711263	0.035206	0.372841
C196	C	1.211263	0.535206	0.872841
C197	C	0.633395	0.113036	0.760850
C198	C	1.133395	0.613036	1.260850
C199	C	0.633402	0.113039	0.824455
C200	C	1.133402	0.613039	1.324455
C201	C	0.711294	0.035188	0.824440
C202	C	1.211294	0.535188	1.324440
C203	C	0.711290	0.035189	0.760833
C204	C	1.211290	0.535189	1.260833
C205	C	0.672337	0.074113	0.729039
C206	C	1.172337	0.574113	1.229039
C207	C	0.711256	0.035220	0.239269
C208	C	1.211256	0.535220	0.739269
C209	C	0.711252	0.035229	0.175660
C210	C	1.211252	0.535229	0.675660
C211	C	0.633358	0.113077	0.175681
C212	C	1.133358	0.613077	0.675681
C213	C	0.633364	0.113070	0.239284
C214	C	1.133364	0.613070	0.739284
C215	C	0.672315	0.074136	0.271077
C216	C	1.172315	0.574136	0.771077
O217	O	0.600282	0.146151	0.339916
O218	O	1.100282	0.646151	0.839916
O219	O	0.744376	0.002100	0.339935
O220	O	1.244376	0.502100	0.839935
H221	H	0.378851	0.170970	0.000042
H222	H	0.878851	0.670970	0.500042
C223	C	0.823907	-0.696434	0.000054
C224	C	1.323907	-0.196434	0.500054
C225	C	0.778802	-0.651607	0.000050
C226	C	1.278802	-0.151607	0.500050
H227	H	0.859386	-0.681085	0.000050
H228	H	1.359386	-0.181085	0.500050
H229	H	0.821464	-0.719303	0.035292
H230	H	1.321464	-0.219303	0.535292
H231	H	0.821466	-0.719310	-0.035185
H232	H	1.321466	-0.219310	0.464815
H233	H	0.781241	-0.628733	0.035292
H234	H	1.281241	-0.128733	0.535292
H235	H	0.781247	-0.628728	-0.035191
H236	H	1.281247	-0.128728	0.464809
H237	H	0.574207	-0.740136	0.000036
H238	H	1.074207	-0.240136	0.500036
H239	H	0.762610	-0.765821	0.000048
H240	H	1.262610	-0.265821	0.500048
H241	H	0.575496	-0.632386	0.000028
H242	H	1.075496	-0.132386	0.500028
C243	C	0.031145	0.222661	0.000040
C244	C	0.531145	0.722661	0.500040
C245	C	0.088064	0.234311	0.000039
C246	C	0.588064	0.734311	0.500039
H247	H	0.006198	0.257660	0.000032
H248	H	0.506198	0.757660	0.500032
H249	H	0.024321	0.201208	-0.035191
H250	H	0.524321	0.701208	0.464809
H251	H	0.024313	0.201222	0.035286
H252	H	0.524313	0.701222	0.535286
H253	H	0.094897	0.255747	-0.035210
H254	H	0.594897	0.755747	0.464790
H255	H	0.094890	0.255773	0.035274
H256	H	0.594890	0.755773	0.535274
C257	C	0.534625	0.146982	0.844042
C258	C	1.034625	0.646982	1.344042
C259	C	0.590592	0.155826	0.859415
C260	C	1.090592	0.655826	1.359415
H261	H	0.508195	0.173394	0.865626
H262	H	1.008195	0.673394	1.365626
H263	H	0.529058	0.152554	0.801614
H264	H	1.029058	0.652554	1.301614
H265	H	0.528665	0.109001	0.854470
H266	H	1.028665	0.609001	1.354470
H267	H	0.596554	0.193805	0.848983
H268	H	1.096554	0.693805	1.348983
H269	H	0.596162	0.150258	0.901852
H270	H	1.096162	0.650258	1.401852
C271	C	0.827641	-0.016700	0.396487
C272	C	1.327641	0.483300	0.896487
C273	C	0.792855	-0.046594	0.433184
C274	C	1.292855	0.453406	0.933184
H275	H	0.853917	-0.043199	0.374820
H276	H	1.353917	0.456801	0.874820
H277	H	0.804440	0.006562	0.368525
H278	H	1.304440	0.506562	0.868525
H279	H	0.848166	0.006803	0.421233
H280	H	1.348166	0.506803	0.921233
H281	H	0.772327	-0.070095	0.408438
H282	H	1.272327	0.429905	0.908438
H283	H	0.816059	-0.069866	0.461149
H284	H	1.316059	0.430134	0.961149
H285	H	0.601650	0.144771	0.149783
H286	H	1.101650	0.644771	0.649783
C287	C	0.535749	-0.085503	-0.051895
C288	C	1.035749	0.414497	0.448105
C289	C	0.567347	-0.075432	0.000059
C290	C	1.067347	0.424568	0.500059
H291	H	0.500757	-0.060545	-0.051902
H292	H	1.000757	0.439455	0.448098
H293	H	0.557211	-0.078678	-0.087121
H294	H	1.057211	0.421322	0.412879
H295	H	0.527841	-0.124117	-0.051890
H296	H	1.027841	0.375883	0.448110
H297	H	0.575258	-0.036820	0.000052
H298	H	1.075258	0.463180	0.500052
H299	H	0.545880	-0.082254	0.035294
H300	H	1.045880	0.417746	0.535294
H301	H	0.781933	-0.035423	0.557728
H302	H	1.281933	0.464577	1.057728
C303	C	0.364344	-0.035910	0.052017
C304	C	0.864344	0.464090	0.552017
C305	C	0.398061	-0.032337	0.000066
C306	C	0.898061	0.467663	0.500066
H307	H	0.348991	-0.071387	0.052024
H308	H	0.848991	0.428613	0.552024
H309	H	0.387225	-0.033470	0.087245
H310	H	0.887225	0.466530	0.587245
H311	H	0.333941	-0.005301	0.052010
H312	H	0.833941	0.494699	0.552010
H313	H	0.428467	-0.062944	0.000075
H314	H	0.928467	0.437056	0.500075
H315	H	0.375178	-0.034783	-0.035171
H316	H	0.875178	0.465217	0.464829
H317	H	0.743004	0.003495	0.734939
H318	H	1.243004	0.503495	1.234939
C319	C	0.526782	0.190738	0.051957
C320	C	1.026782	0.690738	0.551957
C321	C	0.493057	0.187148	0.000018
C322	C	0.993057	0.687148	0.500018
H323	H	0.542138	0.226213	0.051941
H324	H	1.042138	0.726213	0.551941
H325	H	0.503905	0.188313	0.087192
H326	H	1.003905	0.688313	0.587192
H327	H	0.557182	0.160126	0.051954
H328	H	1.057182	0.660126	0.551954
H329	H	0.462654	0.217757	0.000023
H330	H	0.962654	0.717757	0.500023
H331	H	0.515935	0.189578	-0.035227
H332	H	1.015935	0.689578	0.464773
C333	C	0.465557	-0.421431	-0.000007
C334	C	0.965557	0.078569	0.499993
C335	C	0.510658	-0.466262	0.000004
C336	C	1.010658	0.033738	0.500004
H337	H	0.430077	-0.436776	-0.000023
H338	H	0.930077	0.063224	0.499977
H339	H	0.467989	-0.398562	0.035232
H340	H	0.967989	0.101438	0.535232
H341	H	0.468014	-0.398556	-0.035245
H342	H	0.968014	0.101444	0.464755
H343	H	0.508203	-0.489134	0.035244
H344	H	1.008203	0.010866	0.535244
H345	H	0.508226	-0.489140	-0.035239
H346	H	1.008226	0.010860	0.464761
C347	C	0.745299	-0.063581	0.844022
C348	C	1.245299	0.436419	1.344022
C349	C	0.754105	-0.007603	0.859396
C350	C	1.254105	0.492397	1.359396
H351	H	0.771730	-0.089996	0.865601
H352	H	1.271730	0.410004	1.365601
H353	H	0.707331	-0.069567	0.854450
H354	H	1.207331	0.430433	1.354450
H355	H	0.750875	-0.069145	0.801588
H356	H	1.250875	0.430855	1.301588
H357	H	0.748524	-0.002038	0.901829
H358	H	1.248524	0.497962	1.401829
H359	H	0.792082	-0.001615	0.848972
H360	H	1.292082	0.498385	1.348972
C361	C	0.581604	0.229542	0.603390
C362	C	1.081604	0.729542	1.103390
C363	C	0.551607	0.194746	0.566819
C364	C	1.051607	0.694746	1.066819
H365	H	0.555167	0.255956	0.624965
H366	H	1.055167	0.755956	1.124965
H367	H	0.604793	0.206366	0.631434
H368	H	1.104793	0.706366	1.131434
H369	H	0.605189	0.249910	0.578570
H370	H	1.105189	0.749910	1.078570
H371	H	0.528025	0.174375	0.591640
H372	H	1.028025	0.674375	1.091640
H373	H	0.528408	0.217926	0.538772
H374	H	1.028408	0.717926	1.038772
C375	C	0.557350	-0.033607	-0.051881
C376	C	1.057350	0.466393	0.448119
C377	C	0.522759	-0.030840	0.000063
C378	C	1.022759	0.469160	0.500063
H379	H	0.582313	-0.068596	-0.051868
H380	H	1.082313	0.431404	0.448132
H381	H	0.533886	-0.031743	-0.087114
H382	H	1.033886	0.468257	0.412886
H383	H	0.579316	-0.002364	-0.051883
H384	H	1.079316	0.497636	0.448117
H385	H	0.500790	-0.062082	0.000062
H386	H	1.000790	0.437918	0.500062
H387	H	0.546225	-0.032711	0.035304
H388	H	1.046225	0.467289	0.535304
H389	H	0.601676	0.144737	0.734966
H390	H	1.101676	0.644737	1.234966
C391	C	0.745216	-0.063550	0.156170
C392	C	1.245216	0.436450	0.656170
C393	C	0.754064	-0.007597	0.140743
C394	C	1.254064	0.492403	0.640743
H395	H	0.771642	-0.089999	0.134625
H396	H	1.271642	0.410001	0.634625
H397	H	0.750763	-0.069079	0.198606
H398	H	1.250763	0.430921	0.698606
H399	H	0.707242	-0.069523	0.145730
H400	H	1.207242	0.430477	0.645730
H401	H	0.792037	-0.001623	0.151187
H402	H	1.292037	0.498377	0.651187
H403	H	0.748521	-0.002066	0.098297
H404	H	1.248521	0.497934	0.598297
C405	C	0.167907	0.280907	0.000043
C406	C	0.667907	0.780907	0.500043
C407	C	0.212737	0.235804	0.000043
C408	C	0.712737	0.735804	0.500043
H409	H	0.183254	0.316387	0.000047
H410	H	0.683254	0.816387	0.500047
H411	H	0.145039	0.278465	-0.035194
H412	H	0.645039	0.778465	0.464806
H413	H	0.145031	0.278462	0.035283
H414	H	0.645031	0.778462	0.535283
H415	H	0.235611	0.238247	-0.035199
H416	H	0.735611	0.738247	0.464801
H417	H	0.235614	0.238247	0.035284
H418	H	0.735614	0.738247	0.535284
C419	C	0.509403	-0.306998	-0.051933
C420	C	1.009403	0.193002	0.448067
C421	C	0.512157	-0.341584	0.000012
C422	C	1.012157	0.158416	0.500012
H423	H	0.474405	-0.282048	-0.051940
H424	H	0.974405	0.217952	0.448060
H425	H	0.540632	-0.285022	-0.051921
H426	H	1.040632	0.214978	0.448079
H427	H	0.511293	-0.330469	-0.087169
H428	H	1.011293	0.169531	0.412831
H429	H	0.510270	-0.318113	0.035247
H430	H	1.010270	0.181887	0.535247
H431	H	0.480919	-0.363562	0.000005
H432	H	0.980919	0.136438	0.500005
C433	C	0.517426	0.228913	0.474665
C434	C	1.017426	0.728913	0.974665
C435	C	0.551606	0.194753	0.433308
C436	C	1.051606	0.694753	0.933308
H437	H	0.490997	0.255332	0.453089
H438	H	0.990997	0.755332	0.953089
H439	H	0.497080	0.205306	0.499471
H440	H	0.997080	0.705306	0.999471
H441	H	0.541022	0.249274	0.499474
H442	H	1.041022	0.749274	0.999474
H443	H	0.528010	0.174388	0.408501
H444	H	1.028010	0.674388	0.908501
H445	H	0.571953	0.218362	0.408491
H446	H	1.071953	0.718362	0.908491
H447	H	-0.059867	0.165717	0.000057
H448	H	0.440133	0.665717	0.500057
H449	H	0.580748	-0.193677	0.000071
H450	H	1.080748	0.306323	0.500071
C451	C	0.816610	-0.123774	-0.051854
C452	C	1.316610	0.376226	0.448146
C453	C	0.785338	-0.105136	0.000091
C454	C	1.285338	0.394864	0.500091
H455	H	0.852085	-0.108420	-0.051851
H456	H	1.352085	0.391580	0.448149
H457	H	0.823562	-0.164408	-0.051852
H458	H	1.323562	0.335592	0.448148
H459	H	0.795391	-0.111125	-0.087089
H460	H	1.295391	0.388875	0.412911
H461	H	0.806555	-0.117789	0.035327
H462	H	1.306555	0.382211	0.535327
H463	H	0.778388	-0.064493	0.000095
H464	H	1.278388	0.435507	0.500095
H465	H	0.601654	0.144769	0.265183
H466	H	1.101654	0.644769	0.765183
H467	H	0.819097	-0.391900	0.000074
H468	H	1.319097	0.108100	0.500074
C469	C	-0.103568	-0.083983	0.000091
C470	C	0.396432	0.416017	0.500091
C471	C	-0.148396	-0.038878	0.000085
C472	C	0.351604	0.461122	0.500085
H473	H	-0.118917	-0.119461	0.000103
H474	H	0.381083	0.380539	0.500103
H475	H	-0.080697	-0.081548	-0.035147
H476	H	0.419303	0.418452	0.464853
H477	H	-0.080694	-0.081533	0.035330
H478	H	0.419306	0.418467	0.535330
H479	H	-0.171267	-0.041325	-0.035156
H480	H	0.328733	0.458675	0.464844
H481	H	-0.171276	-0.041314	0.035327
H482	H	0.328724	0.458686	0.535327
C483	C	-0.212695	0.181868	-0.051883
C484	C	0.287305	0.681868	0.448117
C485	C	-0.178110	0.179116	0.000060
C486	C	0.321890	0.679116	0.500060
H487	H	-0.237657	0.216857	-0.051883
H488	H	0.262343	0.716857	0.448117
H489	H	-0.189228	0.179990	-0.087116
H490	H	0.310772	0.679990	0.412884
H491	H	-0.234663	0.150626	-0.051872
H492	H	0.265337	0.650626	0.448128
H493	H	-0.156138	0.210356	0.000046
H494	H	0.343862	0.710356	0.500046
H495	H	-0.201579	0.181000	0.035302
H496	H	0.298421	0.681000	0.535302
H497	H	0.742973	0.003516	0.265148
H498	H	1.242973	0.503516	0.765148
H499	H	0.138375	-0.072634	0.000106
H500	H	0.638375	0.427366	0.500106
C501	C	0.010873	-0.040154	-0.051862
C502	C	0.510873	0.459846	0.448138
C503	C	-0.023715	-0.037386	0.000084
C504	C	0.476285	0.462614	0.500084
H505	H	0.035826	-0.075149	-0.051858
H506	H	0.535826	0.424851	0.448142
H507	H	-0.012593	-0.038275	-0.087093
H508	H	0.487407	0.461725	0.412907
H509	H	0.032850	-0.008919	-0.051858
H510	H	0.532850	0.491081	0.448142
H511	H	-0.045696	-0.068619	0.000078
H512	H	0.454304	0.431381	0.500078
H513	H	-0.000247	-0.039271	0.035324
H514	H	0.499753	0.460729	0.535324
C515	C	0.224199	-0.132064	0.000111
C516	C	0.724199	0.367936	0.500111
C517	C	0.256605	-0.086032	0.000103
C518	C	0.756605	0.413968	0.500103
H519	H	0.249152	-0.167059	0.000110
H520	H	0.749152	0.332941	0.500110
H521	H	0.200739	-0.130176	0.035350
H522	H	0.700739	0.369824	0.535350
H523	H	0.200734	-0.130180	-0.035127
H524	H	0.700734	0.369820	0.464873
H525	H	0.280067	-0.087914	0.035344
H526	H	0.780067	0.412086	0.535344
H527	H	0.280074	-0.087921	-0.035139
H528	H	0.780074	0.412079	0.464861
C529	C	0.835284	-0.544710	-0.051878
C530	C	1.335284	-0.044710	0.448122
C531	C	0.832501	-0.510123	0.000067
C532	C	1.332501	-0.010123	0.500067
H533	H	0.870285	-0.569653	-0.051872
H534	H	1.370285	-0.069653	0.448128
H535	H	0.804059	-0.566692	-0.051879
H536	H	1.304059	-0.066692	0.448121
H537	H	0.833405	-0.521238	-0.087113
H538	H	1.333405	-0.021238	0.412887
H539	H	0.834377	-0.533595	0.035302
H540	H	1.334377	-0.033595	0.535302
H541	H	0.863735	-0.488139	0.000073
H542	H	1.363735	0.011861	0.500073
H543	H	0.769159	-0.219337	0.000073
H544	H	1.269159	0.280663	0.500073
