data_functionalizedCrystal
_audit_creation_method	'MofGen! by Chris Wilmer'
_symmetry_space_group_name_H-M	'P1'
_symmetry_Int_Tables_number	1
_symmetry_cell_setting	triclinic
loop_
_symmetry_equiv_pos_as_xyz
  x,y,z
_cell_length_a	13.033293
_cell_length_b	25.639239
_cell_length_c	13.032268
_cell_angle_alpha	82.858283
_cell_angle_beta	90.920818
_cell_angle_gamma	97.207729
loop_
_atom_site_label
_atom_site_type_symbol
_atom_site_fract_x
_atom_site_fract_y
_atom_site_fract_z
Zn1	Zn	1.498347	-0.162669	0.781445
Zn2	Zn	1.998347	0.337331	1.281445
Zn3	Zn	1.520037	-0.237808	0.609454
Zn4	Zn	2.020037	0.262192	1.109454
Zn5	Zn	1.348210	-0.159908	0.587621
Zn6	Zn	1.848210	0.340092	1.087621
Zn7	Zn	1.326273	-0.259604	0.759489
Zn8	Zn	1.826273	0.240396	1.259489
O9	O	1.423217	-0.204997	0.684502
O10	O	1.923217	0.295003	1.184502
O11	O	1.645149	-0.164670	0.776955
O12	O	2.145149	0.335330	1.276955
O13	O	1.515502	-0.217197	0.462652
O14	O	2.015502	0.282803	0.962652
O15	O	1.368229	-0.087106	0.613383
O16	O	1.868229	0.412894	1.113383
O17	O	1.661084	-0.219874	0.650595
O18	O	2.161084	0.280126	1.150595
O19	O	1.478535	-0.089135	0.755785
O20	O	1.978535	0.410865	1.255785
O21	O	1.389261	-0.159964	0.446611
O22	O	1.889261	0.340036	0.946611
O23	O	1.201375	-0.181099	0.592094
O24	O	1.701375	0.318901	1.092094
O25	O	1.330841	-0.257023	0.906308
O26	O	1.830841	0.242977	1.406308
O27	O	1.185258	-0.254345	0.718365
O28	O	1.685258	0.245655	1.218365
O29	O	1.457263	-0.185805	0.922438
O30	O	1.957263	0.314195	1.422438
O31	O	1.494231	-0.313867	0.629305
O32	O	1.994231	0.186133	1.129305
O33	O	1.351873	-0.329881	0.739535
O34	O	1.851873	0.170119	1.239535
C35	C	1.155999	-0.219788	0.650478
C36	C	1.655999	0.280212	1.150478
C37	C	1.041679	-0.226130	0.635947
C38	C	1.541679	0.273870	1.135947
C39	C	0.982814	-0.201700	0.692086
C40	C	1.482814	0.298300	1.192086
C41	C	0.864658	-0.208255	0.677069
C42	C	1.364658	0.291745	1.177069
C43	C	1.423050	-0.340846	0.684433
C44	C	1.923050	0.159154	1.184433
C45	C	1.423068	-0.398960	0.684450
C46	C	1.923068	0.101040	1.184450
C47	C	1.497500	-0.750964	0.627239
C48	C	1.997500	-0.250964	1.127239
C49	C	1.497538	-0.805568	0.627258
C50	C	1.997538	-0.305568	1.127258
O51	O	1.560650	-0.826704	0.578541
O52	O	2.060650	-0.326704	1.078541
N53	N	1.423389	-0.841231	0.684593
N54	N	1.923389	-0.341231	1.184593
C55	C	1.349203	-0.822289	0.741922
C56	C	1.849203	-0.322289	1.241922
O57	O	1.286138	-0.857638	0.790692
O58	O	1.786138	-0.357638	1.290692
C59	C	1.349170	-0.767687	0.741908
C60	C	1.849170	-0.267687	1.241908
C61	C	1.423318	-0.732026	0.684561
C62	C	1.923318	-0.232026	1.184561
C63	C	1.571642	-0.715304	0.569898
C64	C	2.071642	-0.215304	1.069898
C65	C	1.571603	-0.660704	0.569877
C66	C	2.071603	-0.160704	1.069877
C67	C	1.497421	-0.641766	0.627199
C68	C	1.997421	-0.141766	1.127199
C69	C	1.423278	-0.677427	0.684541
C70	C	1.923278	-0.177427	1.184541
C71	C	1.274990	-0.748747	0.799242
C72	C	1.774990	-0.248747	1.299242
C73	C	1.274964	-0.694140	0.799224
C74	C	1.774964	-0.194140	1.299224
C75	C	1.349112	-0.658479	0.741876
C76	C	1.849112	-0.158479	1.241876
C77	C	1.349057	-0.603889	0.741842
C78	C	1.849057	-0.103889	1.241842
N79	N	1.423206	-0.568225	0.684507
N80	N	1.923206	-0.068225	1.184507
C81	C	1.497388	-0.587164	0.627185
C82	C	1.997388	-0.087164	1.127185
C83	C	1.349279	-0.936957	0.741947
C84	C	1.849279	-0.436957	1.241947
C85	C	1.349306	-0.991558	0.741956
C86	C	1.849306	-0.491558	1.241956
C87	C	1.497642	-0.974832	0.627294
C88	C	1.997642	-0.474832	1.127294
C89	C	1.497610	-0.920230	0.627280
C90	C	1.997610	-0.420230	1.127280
C91	C	1.423428	-0.901293	0.684612
C92	C	1.923428	-0.401293	1.184612
C93	C	1.497299	-0.472502	0.627147
C94	C	1.997299	0.027498	1.127147
C95	C	1.497250	-0.417899	0.627128
C96	C	1.997250	0.082101	1.127128
C97	C	1.348917	-0.434629	0.741795
C98	C	1.848917	0.065371	1.241795
C99	C	1.348962	-0.489228	0.741809
C100	C	1.848962	0.010772	1.241809
C101	C	1.423162	-0.508162	0.684483
C102	C	1.923162	-0.008162	1.184483
O103	O	1.285980	-0.582714	0.790538
O104	O	1.785980	-0.082714	1.290538
O105	O	1.560451	-0.551810	0.578434
O106	O	2.060451	-0.051810	1.078434
C107	C	1.691478	-0.190149	0.718660
C108	C	2.191478	0.309851	1.218660
C109	C	1.805795	-0.183821	0.733215
C110	C	2.305795	0.316179	1.233215
C111	C	1.389186	-0.224153	0.952729
C112	C	1.889186	0.275847	1.452729
C113	C	1.374684	-0.232316	1.067032
C114	C	1.874684	0.267684	1.567032
C115	C	1.423410	-0.068618	0.684598
C116	C	1.923410	0.431382	1.184598
C117	C	1.423492	-0.010501	0.684638
C118	C	1.923492	0.489499	1.184638
C119	C	1.457175	-0.185875	0.417326
C120	C	1.957175	0.314125	0.917326
C121	C	1.471876	-0.177553	0.303049
C122	C	1.971876	0.322447	0.803049
C123	C	1.430769	-0.200719	1.125973
C124	C	1.930769	0.299281	1.625973
C125	C	1.415782	-0.209155	1.244110
C126	C	1.915782	0.290845	1.744110
H127	H	1.004601	-0.251897	0.576764
H128	H	1.504601	0.248103	1.076764
Cl129	Cl	1.664836	-0.615881	0.497797
Cl130	Cl	2.164836	-0.115881	0.997797
H131	H	1.019893	-0.175931	0.751263
H132	H	1.519893	0.324069	1.251263
H133	H	0.827585	-0.234023	0.617882
H134	H	1.327585	0.265977	1.117882
H135	H	1.315564	-0.265611	1.104030
H136	H	1.815564	0.234389	1.604030
Cl137	Cl	1.590578	-0.496297	0.555076
Cl138	Cl	2.090578	0.003703	1.055076
Cl139	Cl	0.863025	-0.144029	0.824585
Cl140	Cl	1.363025	0.355971	1.324585
H141	H	1.557630	-0.388863	0.580426
H142	H	2.057630	0.111137	1.080426
Cl143	Cl	1.324504	-0.260566	1.301220
Cl144	Cl	1.824504	0.239434	1.801220
Cl145	Cl	1.255729	-0.534060	0.813880
Cl146	Cl	1.755729	-0.034060	1.313880
H147	H	1.288516	-0.419201	0.788462
H148	H	1.788516	0.080799	1.288462
H149	H	1.632056	-0.730716	0.523220
H150	H	2.132056	-0.230716	1.023220
H151	H	1.530988	-0.144251	1.266055
H152	H	2.030988	0.355749	1.766055
H153	H	1.557987	-0.891197	0.580584
H154	H	2.057987	-0.391197	1.080584
H155	H	1.558048	-0.990262	0.580623
H156	H	2.058048	-0.490262	1.080623
Cl157	Cl	1.256077	-1.036383	0.814039
Cl158	Cl	1.756077	-0.536383	1.314039
H159	H	1.288863	-0.921542	0.788630
H160	H	1.788863	-0.421542	1.288630
H161	H	1.214607	-0.777774	0.845935
H162	H	1.714607	-0.277774	1.345935
H163	H	1.214557	-0.678725	0.845914
H164	H	1.714557	-0.178725	1.345914
Cl165	Cl	1.522013	-0.149297	1.068854
Cl166	Cl	2.022013	0.350703	1.568854
