data_functionalizedCrystal
_audit_creation_method	'MofGen! by Chris Wilmer'
_symmetry_space_group_name_H-M	'P1'
_symmetry_Int_Tables_number	1
_symmetry_cell_setting	triclinic
loop_
_symmetry_equiv_pos_as_xyz
  x,y,z
_cell_length_a	19.121102
_cell_length_b	19.121725
_cell_length_c	16.120297
_cell_angle_alpha	95.429393
_cell_angle_beta	90.563713
_cell_angle_gamma	85.251956
loop_
_atom_site_label
_atom_site_type_symbol
_atom_site_fract_x
_atom_site_fract_y
_atom_site_fract_z
Zn1	Zn	1.065372	-0.348321	-0.542902
Zn2	Zn	1.398705	-0.014988	-0.209569
Zn3	Zn	1.732038	0.318345	0.123764
Zn4	Zn	1.075753	-0.460518	-0.409697
Zn5	Zn	1.409087	-0.127185	-0.076364
Zn6	Zn	1.742420	0.206149	0.256969
Zn7	Zn	0.953673	-0.337348	-0.397301
Zn8	Zn	1.287007	-0.004015	-0.063968
Zn9	Zn	1.620340	0.329318	0.269365
Zn10	Zn	0.952686	-0.460911	-0.542859
Zn11	Zn	1.286019	-0.127578	-0.209525
Zn12	Zn	1.619352	0.205756	0.123808
O13	O	1.011871	-0.401775	-0.473190
O14	O	1.345204	-0.068441	-0.139856
O15	O	1.678538	0.264892	0.193477
O16	O	1.165000	-0.367632	-0.530438
O17	O	1.498333	-0.034299	-0.197105
O18	O	1.831666	0.299034	0.136228
O19	O	1.064317	-0.439423	-0.291390
O20	O	1.397651	-0.106089	0.041943
O21	O	1.730984	0.227244	0.375277
O22	O	0.964559	-0.240138	-0.411446
O23	O	1.297892	0.093196	-0.078113
O24	O	1.631225	0.426529	0.255221
O25	O	1.172627	-0.450063	-0.432573
O26	O	1.505960	-0.116729	-0.099240
O27	O	1.839294	0.216604	0.234093
O28	O	1.046623	-0.248199	-0.518419
O29	O	1.379957	0.085134	-0.185085
O30	O	1.713290	0.418467	0.148248
O31	O	0.974626	-0.348930	-0.282283
O32	O	1.307959	-0.015597	0.051051
O33	O	1.641292	0.317736	0.384384
O34	O	0.855292	-0.349311	-0.411404
O35	O	1.188625	-0.015978	-0.078070
O36	O	1.521958	0.317355	0.255263
O37	O	0.962875	-0.450732	-0.659527
O38	O	1.296209	-0.117399	-0.326194
O39	O	1.629542	0.215934	0.007139
O40	O	0.854566	-0.440092	-0.518344
O41	O	1.187899	-0.106759	-0.185011
O42	O	1.521233	0.226574	0.148323
O43	O	1.045666	-0.368013	-0.659560
O44	O	1.378999	-0.034680	-0.326226
O45	O	1.712332	0.298654	0.007107
O46	O	1.063360	-0.559236	-0.432531
O47	O	1.396693	-0.225903	-0.099198
O48	O	1.730026	0.107430	0.234136
O49	O	0.972942	-0.559525	-0.530364
O50	O	1.306276	-0.226192	-0.197031
O51	O	1.639609	0.107142	0.136303
C52	C	0.829453	-0.393554	-0.463524
C53	C	1.162787	-0.060221	-0.130191
C54	C	1.496120	0.273112	0.203142
C55	C	0.751414	-0.390055	-0.459410
C56	C	1.084748	-0.056722	-0.126077
C57	C	1.418081	0.276611	0.207256
C58	C	0.714398	-0.435741	-0.513075
C59	C	1.047731	-0.102407	-0.179742
C60	C	1.381065	0.230926	0.153591
C61	C	0.641071	-0.432444	-0.509213
C62	C	0.974405	-0.099111	-0.175880
C63	C	1.307738	0.234223	0.157454
C64	C	0.604763	-0.383465	-0.451681
C65	C	0.938096	-0.050131	-0.118348
C66	C	1.271429	0.283202	0.214985
C67	C	0.641784	-0.337774	-0.398014
C68	C	0.975117	-0.004441	-0.064680
C69	C	1.308451	0.328892	0.268653
C70	C	0.715109	-0.341068	-0.401881
C71	C	1.048442	-0.007735	-0.068547
C72	C	1.381776	0.325599	0.264786
C73	C	0.383386	-0.371148	-0.437228
C74	C	0.716719	-0.037815	-0.103895
C75	C	1.050053	0.295519	0.229439
C76	C	0.310056	-0.367859	-0.433363
C77	C	0.643389	-0.034526	-0.100030
C78	C	0.976723	0.298808	0.233303
C79	C	0.309349	-0.462528	-0.544564
C80	C	0.642682	-0.129195	-0.211231
C81	C	0.976015	0.204138	0.122102
C82	C	0.382675	-0.465821	-0.548423
C83	C	0.716009	-0.132488	-0.215089
C84	C	1.049342	0.200846	0.118244
C85	C	0.419690	-0.420128	-0.494758
C86	C	0.753023	-0.086795	-0.161425
C87	C	1.086357	0.246539	0.171908
C88	C	0.529811	-0.380095	-0.447730
C89	C	0.863145	-0.046762	-0.114397
C90	C	1.196478	0.286572	0.218936
C91	C	0.494640	-0.423495	-0.498714
C92	C	0.827973	-0.090161	-0.165381
C93	C	1.161306	0.243172	0.167953
C94	C	1.019189	-0.584965	-0.482807
C95	C	1.352522	-0.251632	-0.149474
C96	C	1.685855	0.081701	0.183860
C97	C	1.022382	-0.663339	-0.486952
C98	C	1.355716	-0.330006	-0.153619
C99	C	1.689049	0.003328	0.179714
C100	C	0.981198	-0.696025	-0.433173
C101	C	1.314532	-0.362692	-0.099839
C102	C	1.647865	-0.029358	0.233494
C103	C	0.984206	-0.769666	-0.437072
C104	C	1.317539	-0.436333	-0.103739
C105	C	1.650873	-0.102999	0.229595
C106	C	1.028394	-0.810620	-0.494755
C107	C	1.361728	-0.477286	-0.161422
C108	C	1.695061	-0.143953	0.171911
C109	C	1.069583	-0.777929	-0.548537
C110	C	1.402916	-0.444596	-0.215204
C111	C	1.736250	-0.111262	0.118129
C112	C	1.066578	-0.704289	-0.544634
C113	C	1.399912	-0.370956	-0.211300
C114	C	1.733245	-0.037623	0.122033
C115	C	1.039605	-1.033171	-0.509327
C116	C	1.372938	-0.699837	-0.175993
C117	C	1.706271	-0.366504	0.157340
C118	C	1.042604	-1.106815	-0.513228
C119	C	1.375938	-0.773482	-0.179895
C120	C	1.709271	-0.440149	0.153439
C121	C	0.957228	-1.098547	-0.401761
C122	C	1.290561	-0.765214	-0.068428
C123	C	1.623895	-0.431880	0.264906
C124	C	0.954224	-1.024906	-0.397866
C125	C	1.287558	-0.691573	-0.064532
C126	C	1.620891	-0.358240	0.268801
C127	C	0.995416	-0.992222	-0.451645
C128	C	1.328749	-0.658889	-0.118311
C129	C	1.662082	-0.325555	0.215022
C130	C	1.031468	-0.885893	-0.498744
C131	C	1.364801	-0.552559	-0.165411
C132	C	1.698135	-0.219226	0.167923
C133	C	0.992345	-0.916950	-0.447651
C134	C	1.325679	-0.583617	-0.114318
C135	C	1.659012	-0.250284	0.219015
C136	C	1.195001	-0.410028	-0.482893
C137	C	1.528334	-0.076694	-0.149560
C138	C	1.861667	0.256639	0.183773
C139	C	1.273040	-0.413545	-0.487029
C140	C	1.606373	-0.080211	-0.153695
C141	C	1.939707	0.253122	0.179638
C142	C	1.003002	-0.410640	-0.690639
C143	C	1.336336	-0.077307	-0.357305
C144	C	1.669669	0.256026	-0.023972
C145	C	0.999223	-0.414418	-0.783302
C146	C	1.332556	-0.081085	-0.449969
C147	C	1.665890	0.252248	-0.116636
C148	C	1.004543	-0.217870	-0.463554
C149	C	1.337876	0.115463	-0.130221
C150	C	1.671210	0.448796	0.203112
C151	C	1.001420	-0.139501	-0.459448
C152	C	1.334754	0.193832	-0.126115
C153	C	1.668087	0.527166	0.207218
C154	C	0.992297	-0.421299	-0.952958
C155	C	1.325630	-0.087966	-0.619625
C156	C	1.658963	0.245367	-0.286291
C157	C	1.031575	-0.382045	-0.994270
C158	C	1.364909	-0.048711	-0.660936
C159	C	1.698242	0.284622	-0.327603
C160	C	1.027721	-0.385873	-1.088672
C161	C	1.361055	-0.052540	-0.755339
C162	C	1.694388	0.280793	-0.422005
C163	C	0.996150	-0.417472	-0.858547
C164	C	1.329483	-0.084138	-0.525214
C165	C	1.662816	0.249195	-0.191881
C166	C	1.020744	-0.392894	-0.256586
C167	C	1.354077	-0.059561	0.076747
C168	C	1.687410	0.273772	0.410080
C169	C	1.024651	-0.388924	-0.163920
C170	C	1.357984	-0.055590	0.169413
C171	C	1.691318	0.277743	0.502747
H172	H	0.412233	-0.505707	-0.595269
H173	H	0.745566	-0.172373	-0.261936
H174	H	1.078900	0.160960	0.071397
Cl175	Cl	0.540286	-0.485066	-0.571037
Cl176	Cl	0.873619	-0.151733	-0.237704
Cl177	Cl	1.206953	0.181600	0.095629
Cl178	Cl	0.761644	-0.283631	-0.334415
Cl179	Cl	1.094977	0.049703	-0.001082
Cl180	Cl	1.428310	0.383036	0.332252
H181	H	1.105565	-0.811279	-0.595501
H182	H	1.438899	-0.477946	-0.262168
H183	H	1.772232	-0.144613	0.071166
H184	H	1.078578	-1.140158	-0.560216
H185	H	1.411911	-0.806825	-0.226883
H186	H	1.745245	-0.473492	0.106451
H187	H	1.068097	-0.345562	-0.958739
H188	H	1.401430	-0.012228	-0.625406
H189	H	1.734763	0.321105	-0.292073
Cl190	Cl	0.936798	-0.865465	-0.375135
Cl191	Cl	1.270132	-0.532131	-0.041802
Cl192	Cl	1.603465	-0.198798	0.291531
H193	H	0.500241	-0.340217	-0.400886
H194	H	0.833574	-0.006884	-0.067553
H195	H	1.166907	0.326449	0.265781
Cl196	Cl	0.594540	-0.489880	-0.576681
Cl197	Cl	0.927873	-0.156547	-0.243348
Cl198	Cl	1.261206	0.176786	0.089985
Cl199	Cl	0.935916	-0.477626	-1.007811
Cl200	Cl	1.269249	-0.144292	-0.674478
Cl201	Cl	1.602583	0.189041	-0.341145
Cl202	Cl	0.264412	-0.306285	-0.361026
Cl203	Cl	0.597745	0.027048	-0.027693
Cl204	Cl	0.931079	0.360381	0.305640
Cl205	Cl	0.262812	-0.519968	-0.612023
Cl206	Cl	0.596145	-0.186635	-0.278689
Cl207	Cl	0.929479	0.146699	0.054644
H208	H	0.918243	-0.991563	-0.350895
H209	H	1.251576	-0.658230	-0.017562
H210	H	1.584909	-0.324896	0.315771
Cl211	Cl	1.087015	-0.937383	-0.571261
Cl212	Cl	1.420348	-0.604050	-0.237928
Cl213	Cl	1.753682	-0.270717	0.095406
Cl214	Cl	0.760036	-0.497321	-0.585401
Cl215	Cl	1.093370	-0.163988	-0.252068
Cl216	Cl	1.426703	0.169345	0.081265
Cl217	Cl	0.429909	-0.313703	-0.369766
Cl218	Cl	0.763242	0.019630	-0.036432
Cl219	Cl	1.096576	0.352963	0.296901
H220	H	1.100116	-0.677677	-0.588426
H221	H	1.433449	-0.344344	-0.255092
H222	H	1.766782	-0.011011	0.078241
Cl223	Cl	0.596138	-0.276195	-0.325693
Cl224	Cl	0.929471	0.057138	0.007641
Cl225	Cl	1.262805	0.390471	0.340974
Cl226	Cl	0.932428	-0.810754	-0.369461
Cl227	Cl	1.265762	-0.477420	-0.036127
Cl228	Cl	1.599095	-0.144087	0.297206
H229	H	0.945212	-0.662685	-0.386204
H230	H	1.278546	-0.329351	-0.052871
H231	H	1.611879	0.003982	0.280462
H232	H	0.923693	-1.125167	-0.357977
H233	H	1.257026	-0.791834	-0.024643
H234	H	1.590360	-0.458500	0.308690
H235	H	1.073143	-1.006565	-0.553117
H236	H	1.406476	-0.673232	-0.219784
H237	H	1.739810	-0.339898	0.113550
