data_functionalizedCrystal
_audit_creation_method	'MofGen! by Chris Wilmer'
_symmetry_space_group_name_H-M	'P1'
_symmetry_Int_Tables_number	1
_symmetry_cell_setting	triclinic
loop_
_symmetry_equiv_pos_as_xyz
  x,y,z
_cell_length_a	19.805407
_cell_length_b	12.645330
_cell_length_c	19.805398
_cell_angle_alpha	89.977256
_cell_angle_beta	89.986879
_cell_angle_gamma	90.017692
loop_
_atom_site_label
_atom_site_type_symbol
_atom_site_fract_x
_atom_site_fract_y
_atom_site_fract_z
Zn1	Zn	1.034734	-0.422053	-0.382747
Zn2	Zn	1.034678	-0.599335	-0.269571
Zn3	Zn	0.921561	-0.422086	-0.269572
Zn4	Zn	0.921529	-0.599275	-0.382717
O5	O	0.978125	-0.510687	-0.326152
O6	O	1.129443	-0.445581	-0.367746
O7	O	1.019663	-0.575861	-0.174854
O8	O	0.936610	-0.273734	-0.284598
O9	O	1.129402	-0.575829	-0.284596
O10	O	1.019757	-0.273710	-0.367747
O11	O	0.936557	-0.445637	-0.174855
O12	O	0.826840	-0.445579	-0.284569
O13	O	0.936556	-0.575728	-0.477438
O14	O	0.826817	-0.575759	-0.367696
O15	O	1.019726	-0.445524	-0.477460
O16	O	1.019632	-0.747674	-0.284567
O17	O	0.936502	-0.747630	-0.367695
C18	C	0.802269	-0.510667	-0.326130
C19	C	0.727037	-0.510684	-0.326137
C20	C	0.691699	-0.578571	-0.369351
C21	C	0.621010	-0.578573	-0.369361
C22	C	0.585662	-0.510692	-0.326152
C23	C	0.621006	-0.442798	-0.282935
C24	C	0.691693	-0.442791	-0.282930
C25	C	0.335932	-0.442821	-0.282958
C26	C	0.265240	-0.442835	-0.282965
C27	C	0.265250	-0.578602	-0.369388
C28	C	0.335937	-0.578596	-0.369383
C29	C	0.371275	-0.510698	-0.326169
C30	C	0.447923	-0.510695	-0.326160
C31	C	0.509015	-0.510699	-0.326157
C32	C	0.978076	-0.786117	-0.326142
C33	C	0.978117	-0.903947	-0.326161
C34	C	0.926035	-1.071527	-0.378618
C35	C	0.925769	-0.948968	-0.378450
C36	C	0.958819	-0.948537	-0.254828
C37	C	0.958501	-1.071135	-0.255147
C38	C	1.049815	-1.071037	-0.344457
C39	C	1.049376	-0.948430	-0.346017
C40	C	1.154668	-0.510708	-0.326174
C41	C	1.229900	-0.510717	-0.326184
C42	C	0.978144	-0.510615	-0.502695
C43	C	0.978151	-0.510585	-0.577927
C44	C	0.978194	-0.234182	-0.326176
C45	C	0.978222	-0.116352	-0.326186
C46	C	1.021532	-0.578224	-1.039715
C47	C	1.021513	-0.578253	-0.969026
C48	C	0.978235	-0.510465	-0.933688
C49	C	0.934969	-0.442652	-0.969043
C50	C	0.934984	-0.442630	-1.039730
C51	C	0.934903	-0.442743	-0.683969
C52	C	0.934892	-0.442769	-0.613277
C53	C	1.021432	-0.578366	-0.613266
C54	C	1.021448	-0.578344	-0.683953
C55	C	0.978179	-0.510535	-0.719301
C56	C	0.978199	-0.510506	-0.795949
C57	C	0.978218	-0.510488	-0.857041
C58	C	0.978146	-0.510682	-0.150296
C59	C	0.978270	-0.510414	-0.075064
H60	H	0.236470	-0.633884	-0.404578
H61	H	1.056777	-0.633420	-1.068482
H62	H	0.937997	-1.100942	-0.431684
H63	H	0.592241	-0.633854	-0.404549
N64	N	0.372033	-0.647948	-0.413519
N65	N	0.340472	-0.708558	-0.452102
H66	H	0.365964	-0.757538	-0.483276
N67	N	0.859871	-1.110301	-0.363626
N68	N	0.850985	-1.170803	-0.314493
H69	H	0.804258	-1.198191	-0.303903
H70	H	0.236461	-0.387552	-0.247779
N71	N	1.100723	-0.909973	-0.301603
N72	N	1.111258	-0.812802	-0.296779
H73	H	1.147520	-0.785643	-0.265405
N74	N	0.727803	-0.647896	-0.413498
N75	N	0.767264	-0.610680	-0.456667
H76	H	0.792761	-0.659640	-0.487850
H77	H	0.899728	-0.387463	-0.940265
H78	H	1.056661	-0.633583	-0.584477
H79	H	0.364695	-0.387542	-0.247765
N80	N	1.098584	-1.107397	-0.296545
N81	N	1.080785	-1.166425	-0.249129
H82	H	1.115222	-1.192108	-0.215288
N83	N	0.892850	-1.107154	-0.235743
N84	N	0.880744	-1.204040	-0.232473
H85	H	0.834376	-1.229476	-0.218771
H86	H	0.899648	-0.387565	-0.584507
N87	N	0.890805	-0.373359	-1.075851
N88	N	0.890825	-0.373346	-1.138964
H89	H	0.859621	-0.324424	-1.164475
H90	H	0.899670	-0.387531	-0.712741
H91	H	0.592219	-0.387523	-0.247757
H92	H	0.994863	-1.100790	-0.214749
H93	H	0.720465	-0.387505	-0.247744
H94	H	0.872693	-0.919733	-0.366345
N95	N	0.940915	-0.911153	-0.444804
N96	N	0.951756	-0.975306	-0.491563
H97	H	0.962451	-0.948605	-0.538430
N98	N	1.004988	-0.911936	-0.204485
N99	N	1.011497	-0.815018	-0.193930
H100	H	1.044106	-0.789165	-0.158376
N101	N	0.893851	-0.910128	-0.235065
N102	N	0.861650	-0.849929	-0.273391
H103	H	0.815765	-0.822802	-0.259437
H104	H	1.067422	-1.101884	-0.395589
N105	N	1.067628	-0.911862	-0.411874
N106	N	1.028338	-0.853253	-0.444104
H107	H	1.041226	-0.827421	-0.490617
H108	H	1.056733	-0.633483	-0.940248
N109	N	1.065663	-0.647587	-0.720038
N110	N	1.104287	-0.708129	-0.688468
H111	H	1.135515	-0.757037	-0.713952
