data_functionalizedCrystal
_audit_creation_method	'MofGen! by Chris Wilmer'
_symmetry_space_group_name_H-M	'P1'
_symmetry_Int_Tables_number	1
_symmetry_cell_setting	triclinic
loop_
_symmetry_equiv_pos_as_xyz
  x,y,z
_cell_length_a	12.837943
_cell_length_b	12.837942
_cell_length_c	11.295483
_cell_angle_alpha	85.469583
_cell_angle_beta	85.461227
_cell_angle_gamma	85.171060
loop_
_atom_site_label
_atom_site_type_symbol
_atom_site_fract_x
_atom_site_fract_y
_atom_site_fract_z
O1	O	1.408689	-0.265788	-0.099003
O2	O	1.105556	-0.252345	-0.099010
O3	O	1.250401	-0.107500	-0.098999
O4	O	1.263845	-0.410633	-0.099013
O5	O	1.237676	-0.120201	0.099051
O6	O	1.092832	-0.265045	0.099040
O7	O	1.395965	-0.278489	0.099047
Cu8	Cu	1.243237	-0.272927	0.117127
Cu9	Cu	1.258285	-0.257907	-0.117090
O10	O	1.251121	-0.423333	0.099037
C11	C	1.060125	-0.254153	0.000014
C12	C	0.943710	-0.240609	0.000012
C13	C	1.239497	-0.074781	0.000025
C14	C	1.225953	0.041634	0.000023
C15	C	0.718835	-0.403439	0.000021
C16	C	0.609453	-0.390717	0.000020
C17	C	0.615561	-0.202446	0.000016
C18	C	0.724943	-0.215167	0.000017
C19	C	0.776576	-0.315667	0.000018
C20	C	0.885961	-0.328387	0.000011
C21	C	0.892066	-0.140117	0.000016
C22	C	0.782684	-0.127396	0.000015
C23	C	1.441396	-0.276680	0.000021
C24	C	1.557812	-0.290224	0.000015
C25	C	1.262024	-0.456052	0.000010
C26	C	1.275569	-0.572467	0.000004
N27	N	1.232661	-0.283491	0.281863
C28	C	1.388784	0.266509	0.000002
C29	C	1.376062	0.375892	-0.000000
C30	C	1.187791	0.369784	0.000008
C31	C	1.200512	0.260402	0.000010
C32	C	1.301011	0.208768	0.000009
C33	C	1.313731	0.099383	0.000020
C34	C	1.125461	0.093278	0.000019
C35	C	1.112740	0.202660	0.000017
N36	N	1.268868	-0.247335	-0.281825
C37	C	1.344996	-0.171231	0.531161
C38	C	1.337012	-0.179223	0.655824
C39	C	1.208702	-0.307459	0.655854
C40	C	1.216687	-0.299467	0.531191
C41	C	1.284837	-0.231353	0.468849
C42	C	1.292826	-0.223367	0.344183
C43	C	1.164512	-0.351597	0.344216
C44	C	1.156528	-0.359589	0.468879
H45	H	0.928000	-0.410219	0.000014
C46	C	1.081536	-0.434479	0.537457
H47	H	1.046837	-0.469126	0.482488
H48	H	1.120353	-0.484920	0.586100
H49	H	1.031127	-0.395575	0.586075
H50	H	0.562444	-0.462191	0.000025
C51	C	1.419960	-0.096318	0.462575
H52	H	1.416104	-0.100175	0.379406
H53	H	1.400390	-0.026630	0.483007
H54	H	1.489644	-0.115947	0.482988
C55	C	0.558756	-0.091907	0.000018
H56	H	0.608808	-0.041451	0.000024
H57	H	0.520644	-0.078608	-0.069043
H58	H	0.511781	-0.087462	0.069095
C59	C	0.955584	-0.043564	0.000011
H60	H	1.028123	-0.065531	0.000017
H61	H	0.943344	0.001623	-0.069054
H62	H	0.934479	-0.007227	0.069083
H63	H	1.105969	0.411844	-0.000004
H64	H	1.385998	-0.130265	0.706555
C65	C	0.775641	-0.513977	0.000012
H66	H	0.849056	-0.508981	0.000004
H67	H	0.752026	-0.555004	0.069071
H68	H	0.760899	-0.546135	-0.069066
H69	H	0.740628	-0.045572	0.000028
H70	H	1.053990	0.046252	0.000034
C71	C	1.472608	0.439409	-0.000010
H72	H	1.450642	0.511950	-0.000021
H73	H	1.508942	0.418314	0.069050
H74	H	1.517799	0.427161	-0.069087
H75	H	1.470613	0.224468	0.000013
C76	C	1.098348	-0.417746	0.275671
H77	H	1.112862	-0.403234	0.192497
H78	H	1.115320	-0.490047	0.296109
H79	H	1.026041	-0.400755	0.296107
H80	H	1.395563	0.057344	0.000023
C81	C	1.133743	-0.382374	0.724445
H82	H	1.137610	-0.378522	0.807613
H83	H	1.064062	-0.362762	0.704030
H84	H	1.153329	-0.452066	0.704019
H85	H	1.030916	0.244716	0.000013
C86	C	1.367791	-0.148453	0.275602
H87	H	1.363942	-0.152311	0.192432
H88	H	1.348218	-0.078766	0.296033
H89	H	1.437474	-0.168081	0.296022
