data_functionalizedCrystal
_audit_creation_method	'MofGen! by Chris Wilmer'
_symmetry_space_group_name_H-M	'P1'
_symmetry_Int_Tables_number	1
_symmetry_cell_setting	triclinic
loop_
_symmetry_equiv_pos_as_xyz
  x,y,z
_cell_length_a	10.723024
_cell_length_b	9.198806
_cell_length_c	10.723024
_cell_angle_alpha	89.997988
_cell_angle_beta	95.532131
_cell_angle_gamma	90.003648
loop_
_atom_site_label
_atom_site_type_symbol
_atom_site_fract_x
_atom_site_fract_y
_atom_site_fract_z
O1	O	1.657188	0.120879	-0.175024
O2	O	1.294035	0.120884	-0.191778
O3	O	1.483988	0.120876	-0.001825
O4	O	1.467235	0.120887	-0.364977
O5	O	1.483973	-0.120909	-0.001824
O6	O	1.294020	-0.120901	-0.191777
O7	O	1.657173	-0.120906	-0.175024
Cu8	Cu	1.475595	-0.142981	-0.183401
Cu9	Cu	1.475613	0.142958	-0.183401
O10	O	1.467220	-0.120898	-0.364977
C11	C	1.247528	-0.000008	-0.190558
C12	C	1.108974	-0.000007	-0.186911
C13	C	0.917217	-0.000007	-0.073603
C14	C	1.060420	-0.000009	-0.077371
C15	C	1.703680	-0.000011	-0.176243
C16	C	1.842234	-0.000003	-0.179891
N17	N	1.475592	-0.344095	-0.183399
C18	C	1.555347	-0.416295	-0.103292
C19	C	1.555367	-0.583707	-0.103288
C20	C	1.482762	-0.000015	0.044675
C21	C	1.479114	-0.000010	0.183229
N22	N	1.475626	0.344072	-0.183393
C23	C	1.468447	-0.000004	-0.411477
C24	C	1.472094	0.000000	-0.550031
C25	C	1.585401	-0.000009	0.258212
C26	C	1.581634	-0.000004	0.401415
H27	H	1.623611	-0.354171	-0.034707
H28	H	1.672624	-0.000010	0.465848
C29	C	1.094298	0.000010	-0.411763
C30	C	1.022011	0.000004	-0.309759
H31	H	1.040601	0.000026	-0.487602
H32	H	1.145638	-0.084304	-0.408443
H33	H	1.145663	0.084328	-0.408430
H34	H	0.970652	-0.084320	-0.313087
H35	H	0.970649	0.084327	-0.313081
H36	H	0.884056	-0.000009	-0.273677
H37	H	1.623653	-0.645796	-0.034709
C38	C	0.786758	0.124287	0.061819
C39	C	0.860773	-0.000007	0.053013
H40	H	0.751922	0.124288	0.139993
H41	H	0.721166	0.124276	-0.004369
H42	H	0.836998	0.208593	0.055826
H43	H	0.810530	-0.084313	0.058997
H44	H	0.926374	-0.000010	0.119219
H45	H	1.407345	-0.593848	-0.251984
H46	H	1.124853	-0.000003	0.013619
H47	H	1.381099	-0.000010	0.385544
C48	C	1.306188	-0.515490	-0.209247
C49	C	1.383428	-0.427952	-0.275983
H50	H	1.249294	-0.567263	-0.266408
H51	H	1.260647	-0.456119	-0.157096
H52	H	1.356242	-0.582472	-0.158990
H53	H	1.333374	-0.360962	-0.326233
H54	H	1.428972	-0.487328	-0.328156
H55	H	1.679187	-0.000019	0.216390
C56	C	1.343703	0.124290	0.313696
C57	C	1.352500	-0.000004	0.239676
H58	H	1.265536	0.124287	0.348546
H59	H	1.349692	0.208587	0.263465
H60	H	1.409906	0.124277	0.379289
H61	H	1.286302	0.000015	0.174077
H62	H	1.346498	-0.084322	0.289910
