data_functionalizedCrystal
_audit_creation_method	'MofGen! by Chris Wilmer'
_symmetry_space_group_name_H-M	'P1'
_symmetry_Int_Tables_number	1
_symmetry_cell_setting	triclinic
loop_
_symmetry_equiv_pos_as_xyz
  x,y,z
_cell_length_a	11.169417
_cell_length_b	12.759400
_cell_length_c	12.759393
_cell_angle_alpha	90.029805
_cell_angle_beta	90.019397
_cell_angle_gamma	90.015523
loop_
_atom_site_label
_atom_site_type_symbol
_atom_site_fract_x
_atom_site_fract_y
_atom_site_fract_z
Zn1	Zn	1.834921	-0.418191	0.593982
Zn2	Zn	1.834797	-0.593906	0.418304
Zn3	Zn	1.634209	-0.418245	0.418322
Zn4	Zn	1.634200	-0.593831	0.593946
O5	O	1.734532	-0.506043	0.506139
O6	O	2.002855	-0.441509	0.570686
O7	O	1.808140	-0.570659	0.271285
O8	O	1.660889	-0.271217	0.441646
O9	O	2.002763	-0.570606	0.441616
O10	O	1.808352	-0.271177	0.570703
O11	O	1.660769	-0.441601	0.271298
O12	O	1.466258	-0.441528	0.441611
O13	O	1.660874	-0.570478	0.740972
O14	O	1.466251	-0.570530	0.570642
O15	O	1.808343	-0.441436	0.740998
O16	O	1.808132	-0.740917	0.441581
O17	O	1.660754	-0.740862	0.570624
C18	C	1.734461	-0.779011	0.506120
C19	C	1.734540	-0.895787	0.506147
C20	C	1.422707	-0.506027	0.506125
C21	C	1.289307	-0.506046	0.506144
C22	C	1.811291	-0.950539	0.573404
C23	C	1.811358	-1.060263	0.573433
C24	C	1.657921	-1.060474	0.438938
C25	C	1.657849	-0.950752	0.438916
C26	C	2.047574	-0.506060	0.506153
C27	C	2.180974	-0.506067	0.506159
C28	C	1.734622	-0.505942	0.780172
C29	C	1.734660	-0.505899	0.896949
C30	C	1.734636	-0.232010	0.506180
C31	C	1.734680	-0.115233	0.506198
C32	C	1.734511	-0.506068	0.233171
C33	C	1.734706	-0.505815	0.116395
C34	C	1.811453	-0.438696	0.951826
C35	C	1.811473	-0.438651	1.061550
C36	C	1.657904	-0.573021	1.061510
C37	C	1.657879	-0.573060	0.951788
H38	H	1.873853	-1.104837	0.628202
C39	C	1.574754	-0.646071	1.121109
C40	C	1.642700	-0.713412	1.184075
C41	C	1.566144	-0.780732	1.238980
H42	H	1.522464	-0.605985	1.164000
H43	H	1.529033	-0.686162	1.072743
H44	H	1.688400	-0.673326	1.232436
H45	H	1.694986	-0.753521	1.141211
H46	H	1.520424	-0.820823	1.190613
H47	H	1.513859	-0.740638	1.281864
H48	H	1.612235	-0.826437	1.281701
H49	H	1.873970	-0.384007	0.907179
C50	C	1.574455	-0.646145	0.892388
C51	C	1.507249	-0.704980	0.963895
C52	C	1.430400	-0.772320	0.909214
H53	H	1.522063	-0.606082	0.849581
H54	H	1.620313	-0.691995	0.849605
H55	H	1.461394	-0.659136	1.006660
H56	H	1.559608	-0.745064	1.006704
H57	H	1.476258	-0.818170	0.866431
H58	H	1.378016	-0.732249	0.866410
H59	H	1.384799	-0.812254	0.957723
H60	H	1.595343	-0.906171	0.384147
C61	C	1.894585	-0.891051	0.646523
C62	C	1.961787	-0.962490	0.705451
C63	C	2.038516	-0.907732	0.772835
H64	H	1.946984	-0.848232	0.606487
H65	H	1.848640	-0.848274	0.692311
H66	H	2.007729	-1.005249	0.659668
H67	H	1.909420	-1.005311	0.745508
H68	H	1.992571	-0.864955	0.818623
H69	H	2.090907	-0.864915	0.732790
H70	H	2.084114	-0.956195	0.812832
H71	H	1.874004	-0.383926	1.106227
C72	C	1.574801	-1.120342	0.365977
C73	C	1.591316	-1.228152	0.380368
C74	C	1.514780	-1.283332	0.313160
H75	H	1.494091	-1.102539	0.381220
H76	H	1.592411	-1.102456	0.295375
H77	H	1.573698	-1.246031	0.450955
H78	H	1.672010	-1.245986	0.365117
H79	H	1.532389	-1.265445	0.242557
H80	H	1.434075	-1.265520	0.328409
H81	H	1.525982	-1.356486	0.322908
