data_functionalizedCrystal
_audit_creation_method	'MofGen! by Chris Wilmer'
_symmetry_space_group_name_H-M	'P1'
_symmetry_Int_Tables_number	1
_symmetry_cell_setting	triclinic
loop_
_symmetry_equiv_pos_as_xyz
  x,y,z
_cell_length_a	10.723023
_cell_length_b	15.995292
_cell_length_c	9.798715
_cell_angle_alpha	90.000045
_cell_angle_beta	89.996770
_cell_angle_gamma	83.968082
loop_
_atom_site_label
_atom_site_type_symbol
_atom_site_fract_x
_atom_site_fract_y
_atom_site_fract_z
O1	O	1.655653	0.117435	-0.113466
O2	O	1.292354	0.128676	-0.113471
O3	O	1.483972	0.001222	-0.113471
O4	O	1.464035	0.244889	-0.113467
O5	O	1.483958	0.001221	0.113511
O6	O	1.292340	0.128676	0.113511
O7	O	1.655639	0.117434	0.113516
Zn8	Zn	1.473987	0.123055	0.149552
Zn9	Zn	1.474006	0.123055	-0.149507
O10	O	1.464020	0.244889	0.113515
C11	C	1.245858	0.127858	0.000019
C12	C	1.107335	0.125411	0.000017
C13	C	1.045570	0.124320	0.117599
C14	C	0.902400	0.121790	0.117600
C15	C	1.483154	-0.029979	0.000017
C16	C	1.480721	-0.122946	0.000007
C17	C	1.471778	-0.460735	0.000019
C18	C	1.610083	-0.436629	0.000528
C19	C	1.612711	-0.339938	0.000011
C20	C	1.476215	-0.293154	0.000014
C21	C	1.407077	-0.322652	-0.129601
C22	C	1.405412	-0.419452	-0.129705
C23	C	1.402572	-0.419326	0.128417
C24	C	1.407697	-0.322804	0.130125
C25	C	1.478716	-0.198444	0.000006
C26	C	1.469273	-0.555446	0.000017
C27	C	1.702135	0.118252	0.000022
C28	C	1.840657	0.120700	0.000016
C29	C	1.464839	0.276089	0.000025
C30	C	1.467272	0.369056	0.000026
N31	N	1.473983	0.123054	0.353651
N32	N	1.474019	0.123050	-0.353607
C33	C	1.554442	0.069304	0.421428
C34	C	1.554462	0.069301	0.578591
H35	H	1.054222	0.124470	-0.100649
F36	F	1.679759	-0.472822	0.122025
F37	F	1.644239	0.009007	0.345200
F38	F	1.383983	0.183207	0.570222
H39	H	1.098685	0.125253	0.218266
H40	H	1.304006	-0.434585	-0.135576
F41	F	1.469847	-0.296075	-0.255684
F42	F	1.683915	-0.315469	-0.121646
F43	F	0.910071	0.121932	-0.131573
F44	F	1.269509	-0.438377	0.129563
H45	H	1.623350	0.023286	0.636876
H46	H	1.453306	-0.445993	-0.226596
H47	H	1.405110	0.169067	0.411976
H48	H	1.666859	-0.320602	0.092922
H49	H	0.849283	0.120857	0.218266
H50	H	1.308068	-0.290406	0.137954
F51	F	1.679386	-0.474157	-0.120283
H52	H	1.306635	-0.291361	-0.134418
H53	H	1.458040	-0.303949	0.226013
F54	F	1.459124	-0.455985	0.256826
