data_functionalizedCrystal
_audit_creation_method	'MofGen! by Chris Wilmer'
_symmetry_space_group_name_H-M	'P1'
_symmetry_Int_Tables_number	1
_symmetry_cell_setting	triclinic
loop_
_symmetry_equiv_pos_as_xyz
  x,y,z
_cell_length_a	19.188930
_cell_length_b	14.421503
_cell_length_c	15.944545
_cell_angle_alpha	90.002190
_cell_angle_beta	83.320476
_cell_angle_gamma	89.978519
loop_
_atom_site_label
_atom_site_type_symbol
_atom_site_fract_x
_atom_site_fract_y
_atom_site_fract_z
O1	O	0.926418	-0.077414	0.104855
O2	O	1.259752	0.255919	0.438188
O3	O	1.593085	0.589253	0.771521
O4	O	0.723143	-0.077351	0.118971
O5	O	1.056476	0.255982	0.452305
O6	O	1.389810	0.589316	0.785638
O7	O	0.830334	-0.077373	-0.010383
O8	O	1.163667	0.255960	0.322950
O9	O	1.497001	0.589293	0.656284
O10	O	0.819227	-0.077392	0.234209
O11	O	1.152561	0.255941	0.567542
O12	O	1.485894	0.589275	0.900876
O13	O	0.830316	0.076850	-0.010364
O14	O	1.163650	0.410183	0.322970
O15	O	1.496983	0.743517	0.656303
O16	O	0.723125	0.076872	0.118991
O17	O	1.056459	0.410206	0.452324
O18	O	1.389792	0.743539	0.785657
O19	O	0.926400	0.076809	0.104874
O20	O	1.259734	0.410143	0.438207
O21	O	1.593067	0.743476	0.771541
Cu22	Cu	0.824761	0.090923	0.111934
Cu23	Cu	1.158095	0.424256	0.445267
Cu24	Cu	1.491428	0.757589	0.778601
Cu25	Cu	0.824782	-0.091464	0.111911
Cu26	Cu	1.158116	0.241869	0.445245
Cu27	Cu	1.491449	0.575202	0.778578
O28	O	0.819210	0.076831	0.234228
O29	O	1.152543	0.410165	0.567562
O30	O	1.485876	0.743498	0.900895
C31	C	0.697122	-0.000231	0.118524
C32	C	1.030455	0.333102	0.451857
C33	C	1.363789	0.666435	0.785191
C34	C	0.619614	-0.000207	0.117152
C35	C	0.952947	0.333127	0.450485
C36	C	1.286281	0.666460	0.783818
N37	N	0.824752	0.219204	0.111949
N38	N	1.158085	0.552537	0.445283
N39	N	1.491418	0.885871	0.778616
N40	N	0.824798	-0.219746	0.111889
N41	N	1.158131	0.113588	0.445222
N42	N	1.491464	0.446921	0.778556
C43	C	0.574885	-0.000227	0.193052
C44	C	0.908218	0.333106	0.526386
C45	C	1.241552	0.666440	0.859719
C46	C	0.502058	-0.000237	0.191763
C47	C	0.835391	0.333096	0.525097
C48	C	1.168724	0.666429	0.858430
C49	C	0.473963	-0.000246	0.114569
C50	C	0.807296	0.333088	0.447902
C51	C	1.140630	0.666421	0.781235
C52	C	0.518702	-0.000220	0.038658
C53	C	0.852035	0.333113	0.371991
C54	C	1.185369	0.666447	0.705325
C55	C	0.591528	-0.000201	0.039949
C56	C	0.924861	0.333133	0.373283
C57	C	1.258194	0.666466	0.706616
N58	N	0.365838	-0.052767	0.055557
N59	N	0.699171	0.280566	0.388890
N60	N	1.032504	0.613899	0.722223
N61	N	0.296656	-0.052788	0.054335
N62	N	0.629989	0.280546	0.387668
N63	N	0.963322	0.613879	0.721002
C64	C	0.254544	-0.000302	0.110673
C65	C	0.587878	0.333031	0.444006
C66	C	0.921211	0.666365	0.777340
N67	N	0.284227	0.052193	0.168292
N68	N	0.617560	0.385527	0.501625
N69	N	0.950894	0.718860	0.834958
N70	N	0.353415	0.052210	0.169516
N71	N	0.686748	0.385543	0.502849
N72	N	1.020081	0.718876	0.836183
C73	C	0.394997	-0.000266	0.113160
C74	C	0.728330	0.333067	0.446493
C75	C	1.061664	0.666401	0.779827
C76	C	0.130847	-0.000332	0.185181
C77	C	0.464181	0.333001	0.518515
C78	C	0.797514	0.666335	0.851848
C79	C	0.058019	-0.000336	0.183889
C80	C	0.391353	0.332997	0.517222
C81	C	0.724686	0.666330	0.850556
C82	C	0.074665	-0.000328	0.030781
C83	C	0.407998	0.333005	0.364115
C84	C	0.741332	0.666338	0.697448
C85	C	0.147492	-0.000315	0.032076
C86	C	0.480825	0.333019	0.365409
C87	C	0.814158	0.666352	0.698743
C88	C	0.175578	-0.000321	0.109278
C89	C	0.508911	0.333012	0.442612
C90	C	0.842245	0.666346	0.775945
C91	C	0.952422	-0.000313	0.105321
C92	C	1.285755	0.333021	0.438655
C93	C	1.619088	0.666354	0.771988
C94	C	1.029930	-0.000343	0.106694
C95	C	1.363263	0.332990	0.440027
C96	C	1.696596	0.666324	0.773360
C97	C	0.829865	-0.000261	-0.041666
C98	C	1.163198	0.333073	0.291668
C99	C	1.496531	0.666406	0.625001
C100	C	0.828485	-0.000258	-0.134907
C101	C	1.161818	0.333076	0.198427
C102	C	1.495151	0.666409	0.531760
C103	C	0.775178	0.468868	0.171736
C104	C	1.108511	0.802201	0.505070
C105	C	1.441845	1.135534	0.838403
C106	C	0.838267	0.530649	0.187808
C107	C	1.171601	0.863983	0.521141
C108	C	1.504934	1.197316	0.854474
C109	C	0.824769	0.408365	0.111929
C110	C	1.158102	0.741699	0.445263
C111	C	1.491435	1.075032	0.778596
C112	C	0.761695	0.530678	0.095878
C113	C	1.095029	0.864011	0.429211
C114	C	1.428362	1.197345	0.762544
C115	C	0.824779	0.591087	0.111912
C116	C	1.158113	0.924420	0.445245
C117	C	1.491446	1.257753	0.778579
C118	C	0.887890	0.468786	0.128038
C119	C	1.221223	0.802119	0.461372
C120	C	1.554557	1.135453	0.794705
C121	C	0.811277	0.468809	0.036076
C122	C	1.144610	0.802142	0.369409
C123	C	1.477943	1.135476	0.702742
C124	C	0.874412	0.530563	0.052115
C125	C	1.207745	0.863896	0.385448
C126	C	1.541078	1.197229	0.718781
C127	C	0.824761	0.303104	0.111942
C128	C	1.158095	0.636438	0.445275
C129	C	1.491428	0.969771	0.778608
C130	C	0.824794	0.696346	0.111899
C131	C	1.158127	1.029679	0.445232
C132	C	1.491460	1.363012	0.778566
C133	C	0.757919	-0.000254	-0.405276
C134	C	1.091253	0.333079	-0.071942
C135	C	1.424586	0.666412	0.261391
C136	C	0.791949	-0.076306	-0.354827
C137	C	1.125283	0.257028	-0.021493
C138	C	1.458616	0.590361	0.311840
C139	C	0.823563	-0.000282	-0.470532
C140	C	1.156897	0.333051	-0.137199
C141	C	1.490230	0.666384	0.196134
C142	C	0.791949	0.075747	-0.354835
C143	C	1.125282	0.409080	-0.021502
C144	C	1.458616	0.742413	0.311832
C145	C	0.825978	-0.000269	-0.305628
C146	C	1.159311	0.333065	0.027706
C147	C	1.492645	0.666398	0.361039
C148	C	0.857576	-0.076396	-0.421312
C149	C	1.190909	0.256937	-0.087978
C150	C	1.524242	0.590270	0.245355
C151	C	0.857566	0.075724	-0.421323
C152	C	1.190899	0.409058	-0.087990
C153	C	1.524233	0.742391	0.245343
C154	C	0.891644	-0.000346	-0.370908
C155	C	1.224977	0.332988	-0.037574
C156	C	1.558311	0.666321	0.295759
C157	C	0.822171	-0.000291	-0.565529
C158	C	1.155504	0.333042	-0.232196
C159	C	1.488837	0.666376	0.101138
C160	C	0.827376	-0.000267	-0.210634
C161	C	1.160709	0.333067	0.122700
C162	C	1.494042	0.666400	0.456033
C163	C	0.819679	-0.000283	0.265511
C164	C	1.153012	0.333050	0.598844
C165	C	1.486346	0.666383	0.932178
C166	C	0.821059	-0.000292	0.358752
C167	C	1.154392	0.333041	0.692085
C168	C	1.487725	0.666374	1.025419
H169	H	0.465632	-0.000251	0.253573
H170	H	0.798966	0.333082	0.586906
H171	H	1.132299	0.666415	0.920239
H172	H	0.051791	-0.000393	-0.032072
H173	H	0.385125	0.332941	0.301261
H174	H	0.718458	0.666274	0.634595
H175	H	0.849689	0.557812	0.251948
H176	H	1.183022	0.891145	0.585281
H177	H	1.516356	1.224479	0.918614
N178	N	0.686998	-0.000331	-0.424640
N179	N	1.020331	0.333003	-0.091307
N180	N	1.353665	0.666336	0.242026
N181	N	0.646931	-0.065711	-0.400247
N182	N	0.980264	0.267622	-0.066914
N183	N	1.313598	0.600955	0.266420
H184	H	0.596843	-0.065769	-0.413923
H185	H	0.930177	0.267564	-0.080590
H186	H	1.263510	0.600897	0.252743
H187	H	0.764207	0.140040	-0.325809
H188	H	1.097541	0.473373	0.007524
H189	H	1.430874	0.806706	0.340858
N190	N	0.892344	-0.157149	-0.457565
N191	N	1.225677	0.176185	-0.124232
N192	N	1.559011	0.509518	0.209102
N193	N	0.955466	-0.171096	-0.449237
N194	N	1.288799	0.162237	-0.115904
N195	N	1.622133	0.495571	0.217430
H196	H	0.980020	-0.228128	-0.474840
H197	H	1.313354	0.105205	-0.141507
H198	H	1.646687	0.438539	0.191826
N199	N	0.757175	-0.156940	-0.318414
N200	N	1.090509	0.176393	0.014919
N201	N	1.423842	0.509726	0.348253
N202	N	0.693901	-0.170471	-0.326142
N203	N	1.027234	0.162863	0.007191
N204	N	1.360568	0.496196	0.340525
H205	H	0.669337	-0.227417	-0.300428
H206	H	1.002671	0.105917	0.032905
H207	H	1.336004	0.439250	0.366238
N208	N	0.962620	-0.000426	-0.351745
N209	N	1.295954	0.332907	-0.018412
N210	N	1.629287	0.666240	0.314921
N211	N	1.002696	-0.065787	-0.376289
N212	N	1.336030	0.267546	-0.042955
N213	N	1.669363	0.600880	0.290378
H214	H	1.052824	-0.065849	-0.362755
H215	H	1.386157	0.267484	-0.029421
H216	H	1.719490	0.600818	0.303912
N217	N	0.892296	0.156359	-0.457784
N218	N	1.225629	0.489693	-0.124450
N219	N	1.558963	0.823026	0.208883
N220	N	0.897239	0.168875	-0.535823
N221	N	1.230572	0.502208	-0.202490
N222	N	1.563905	0.835541	0.130844
H223	H	0.921762	0.225830	-0.561576
H224	H	1.255095	0.559163	-0.228243
H225	H	1.588428	0.892497	0.105091
N226	N	0.603562	-0.000236	0.271917
N227	N	0.936895	0.333097	0.605251
N228	N	1.270229	0.666430	0.938584
N229	N	0.563611	-0.000256	0.339682
N230	N	0.896944	0.333078	0.673015
N231	N	1.230277	0.666411	1.006349
H232	H	0.583864	-0.000262	0.395382
H233	H	0.917198	0.333071	0.728715
H234	H	1.250531	0.666404	1.062048
H235	H	0.733283	0.441779	0.222353
H236	H	1.066617	0.775112	0.555687
H237	H	1.399950	1.108445	0.889020
H238	H	0.941246	0.441714	0.141684
H239	H	1.274579	0.775048	0.475017
H240	H	1.607913	1.108381	0.808351
N241	N	0.489996	-0.000219	-0.040187
N242	N	0.823329	0.333114	0.293146
N243	N	1.156663	0.666447	0.626479
N244	N	0.424973	-0.000237	-0.041331
N245	N	0.758306	0.333097	0.292003
N246	N	1.091640	0.666430	0.625336
H247	H	0.404699	-0.000231	-0.097017
H248	H	0.738032	0.333102	0.236316
H249	H	1.071366	0.666435	0.569649
H250	H	0.153716	-0.000323	0.248044
H251	H	0.487050	0.333010	0.581377
H252	H	0.820383	0.666343	0.914711
N253	N	0.637222	-0.000166	-0.037585
N254	N	0.970555	0.333167	0.295748
N255	N	1.303888	0.666501	0.629081
N256	N	0.634635	0.064849	-0.088974
N257	N	0.967969	0.398182	0.244359
N258	N	1.301302	0.731515	0.577692
H259	H	0.666908	0.064874	-0.143734
H260	H	1.000242	0.398207	0.189599
H261	H	1.333575	0.731540	0.522932
N262	N	0.012336	-0.000346	0.261432
N263	N	0.345670	0.332988	0.594766
N264	N	0.679003	0.666321	0.928099
N265	N	0.037427	-0.000349	0.330352
N266	N	0.370760	0.332985	0.663685
N267	N	0.704094	0.666318	0.997018
H268	H	0.005163	-0.000355	0.385119
H269	H	0.338497	0.332979	0.718452
H270	H	0.671830	0.666312	1.051786
N271	N	0.193176	-0.000297	-0.045464
N272	N	0.526509	0.333037	0.287869
N273	N	0.859842	0.666370	0.621203
N274	N	0.168086	-0.000300	-0.114384
N275	N	0.501419	0.333033	0.218950
N276	N	0.834752	0.666367	0.552283
H277	H	0.200350	-0.000284	-0.169151
H278	H	0.533683	0.333049	0.164183
H279	H	0.867016	0.666382	0.497516
H280	H	0.916399	0.557482	0.001527
H281	H	1.249733	0.890815	0.334861
H282	H	1.583066	1.224148	0.668194
N283	N	0.796919	0.434714	-0.044363
N284	N	1.130252	0.768047	0.288971
N285	N	1.463585	1.101381	0.622304
N286	N	0.740271	0.454516	-0.071662
N287	N	1.073604	0.787849	0.261672
N288	N	1.406938	1.121182	0.595005
H289	H	0.730123	0.430436	-0.128472
H290	H	1.063456	0.763769	0.204861
H291	H	1.396790	1.097103	0.538194
H292	H	0.708351	0.557866	0.082309
H293	H	1.041685	0.891199	0.415642
H294	H	1.375018	1.224533	0.748976
