data_functionalizedCrystal
_audit_creation_method	'MofGen! by Chris Wilmer'
_symmetry_space_group_name_H-M	'P1'
_symmetry_Int_Tables_number	1
_symmetry_cell_setting	triclinic
loop_
_symmetry_equiv_pos_as_xyz
  x,y,z
_cell_length_a	29.839134
_cell_length_b	29.839131
_cell_length_c	12.827885
_cell_angle_alpha	89.963180
_cell_angle_beta	89.968826
_cell_angle_gamma	90.036281
loop_
_atom_site_label
_atom_site_type_symbol
_atom_site_fract_x
_atom_site_fract_y
_atom_site_fract_z
Zn1	Zn	0.686760	-0.178893	-0.591124
Zn2	Zn	0.686681	-0.254030	-0.416363
Zn3	Zn	0.611631	-0.178908	-0.416362
Zn4	Zn	0.611591	-0.253990	-0.591027
O5	O	0.649166	-0.216455	-0.503719
O6	O	0.749617	-0.188871	-0.567982
O7	O	0.676708	-0.244088	-0.270127
O8	O	0.621647	-0.116039	-0.439585
O9	O	0.749558	-0.244074	-0.439586
O10	O	0.676845	-0.116028	-0.567982
O11	O	0.621570	-0.188897	-0.270126
O12	O	0.548759	-0.188858	-0.439491
O13	O	0.621579	-0.244005	-0.737276
O14	O	0.548729	-0.244020	-0.567816
O15	O	0.676806	-0.188832	-0.737347
O16	O	0.676669	-0.316892	-0.439492
O17	O	0.621501	-0.316863	-0.567817
C18	C	0.532443	-0.216436	-0.503644
C19	C	0.482509	-0.216439	-0.503636
C20	C	0.172859	-0.245221	-0.570456
C21	C	-0.014814	-0.245234	-0.570503
O22	O	-0.039083	-0.269684	-0.627271
N23	N	-0.038276	-0.216472	-0.503798
C24	C	-0.014818	-0.187703	-0.437081
O25	O	-0.039081	-0.163236	-0.380353
C26	C	0.172854	-0.187688	-0.437041
C27	C	0.196315	-0.216455	-0.503743
C28	C	0.196320	-0.273985	-0.637154
C29	C	0.243235	-0.273983	-0.637137
C30	C	0.266690	-0.245217	-0.570424
C31	C	0.243230	-0.216453	-0.503726
C32	C	0.196312	-0.158917	-0.370330
C33	C	0.243233	-0.158916	-0.370328
C34	C	0.266693	-0.187682	-0.437030
C35	C	0.313601	-0.187686	-0.436996
N36	N	0.337063	-0.216448	-0.503701
C37	C	0.313608	-0.245213	-0.570415
C38	C	-0.113349	-0.187713	-0.437105
C39	C	-0.160266	-0.187717	-0.437114
C40	C	-0.160259	-0.245248	-0.570537
C41	C	-0.113340	-0.245245	-0.570523
C42	C	-0.089886	-0.216475	-0.503811
C43	C	0.412134	-0.245208	-0.570375
C44	C	0.459054	-0.245205	-0.570350
C45	C	0.459042	-0.187673	-0.436931
C46	C	0.412127	-0.187678	-0.436952
C47	C	0.388674	-0.216446	-0.503682
O48	O	0.337899	-0.163245	-0.380266
O49	O	0.337879	-0.269669	-0.627151
C50	C	0.125944	-0.245223	-0.570473
C51	C	0.102484	-0.216459	-0.503775
C52	C	0.125939	-0.187693	-0.437062
C53	C	0.055566	-0.216463	-0.503784
C54	C	0.032111	-0.245228	-0.570497
C55	C	0.055573	-0.273990	-0.637203
C56	C	0.102489	-0.273988	-0.637186
C57	C	0.102476	-0.158931	-0.370356
C58	C	0.055561	-0.158936	-0.370377
C59	C	0.032105	-0.187701	-0.437091
C60	C	0.649085	-0.333178	-0.503667
C61	C	0.649091	-0.383112	-0.503680
C62	C	0.677944	-0.692758	-0.436998
C63	C	0.677999	-0.880432	-0.437038
O64	O	0.702467	-0.904699	-0.380303
N65	N	0.649259	-0.903897	-0.503798
C66	C	0.620505	-0.880442	-0.570557
O67	O	0.596064	-0.904708	-0.627348
C68	C	0.620452	-0.692770	-0.570521
C69	C	0.649191	-0.669307	-0.503749
C70	C	0.706681	-0.669295	-0.370233
C71	C	0.706665	-0.622380	-0.370219
C72	C	0.677912	-0.598928	-0.436971
C73	C	0.649175	-0.622391	-0.503736
C74	C	0.591700	-0.669316	-0.637284
C75	C	0.591690	-0.622395	-0.637271
C76	C	0.620429	-0.598931	-0.570500
C77	C	0.620406	-0.552024	-0.570474
N78	N	0.649147	-0.528558	-0.503714
C79	C	0.677900	-0.552010	-0.436963
C80	C	0.620534	-0.978973	-0.570569
C81	C	0.620546	-1.025891	-0.570577
C82	C	0.678042	-1.025877	-0.437060
C83	C	0.678027	-0.978958	-0.437048
C84	C	0.649274	-0.955507	-0.503810
C85	C	0.677864	-0.453484	-0.436939
C86	C	0.677844	-0.406564	-0.436928
C87	C	0.620350	-0.406582	-0.570449
C88	C	0.620368	-0.453498	-0.570456
C89	C	0.649129	-0.476948	-0.503698
O90	O	0.595955	-0.527728	-0.627188
O91	O	0.702344	-0.527736	-0.380196
C92	C	0.677960	-0.739674	-0.437011
C93	C	0.649223	-0.763137	-0.503776
C94	C	0.620470	-0.739686	-0.570528
C95	C	0.649235	-0.810055	-0.503784
C96	C	0.677988	-0.833507	-0.437033
C97	C	0.706729	-0.810041	-0.370273
C98	C	0.706713	-0.763126	-0.370260
C99	C	0.591729	-0.763151	-0.637287
C100	C	0.591747	-0.810067	-0.637295
C101	C	0.620500	-0.833519	-0.570543
C102	C	0.766344	-0.216475	-0.503795
C103	C	0.816279	-0.216483	-0.503828
C104	C	0.649197	-0.216412	-0.776289
C105	C	0.649210	-0.216394	-0.892443
C106	C	0.649259	-0.099277	-0.503794
C107	C	0.649299	-0.049343	-0.503826
C108	C	0.621934	-0.189078	-0.944227
C109	C	0.621947	-0.189058	-1.064277
C110	C	0.649161	-0.216466	-0.232209
C111	C	0.649235	-0.216358	-0.116056
H112	H	0.393024	-0.164254	-0.382635
N113	N	-0.088037	-0.276268	-0.642471
H114	H	-0.068594	-0.297065	-0.599914
H115	H	-0.110047	-0.294461	-0.684716
H116	H	0.036463	-0.135511	-0.316051
H117	H	0.598571	-0.165708	-0.899685
H118	H	0.598598	-0.165670	-1.108811
N119	N	0.680155	-0.247352	-0.951441
H120	H	0.712265	-0.240391	-0.932530
H121	H	0.673119	-0.279449	-0.932455
N122	N	0.737670	-0.597077	-0.298215
H123	H	0.758472	-0.577580	-0.340739
H124	H	0.719393	-0.577668	-0.249742
H125	H	0.672589	-0.239743	-1.071530
H126	H	0.478153	-0.268632	-0.624667
H127	H	0.262332	-0.297407	-0.691455
H128	H	0.121568	-0.135506	-0.316029
H129	H	0.177219	-0.135494	-0.316011
H130	H	0.393044	-0.268633	-0.624716
H131	H	0.568277	-0.603303	-0.691640
H132	H	0.730098	-0.688385	-0.315875
H133	H	-0.179364	-0.164297	-0.382788
N134	N	0.171026	-0.305016	-0.709109
H135	H	0.193014	-0.323235	-0.751351
H136	H	0.151540	-0.325787	-0.666480
N137	N	0.560750	-0.835374	-0.709318
H138	H	0.539945	-0.854876	-0.666813
H139	H	0.542565	-0.813367	-0.751590
N140	N	0.030271	-0.305019	-0.709154
H141	H	-0.003010	-0.300652	-0.699034
H142	H	0.038495	-0.298065	-0.783816
N143	N	0.709026	-0.953651	-0.365041
H144	H	0.702069	-0.961845	-0.290359
H145	H	0.741110	-0.961795	-0.381447
H146	H	0.568315	-0.744061	-0.691646
N147	N	0.268530	-0.127881	-0.298379
H148	H	0.246546	-0.109660	-0.256132
H149	H	0.287972	-0.146139	-0.249928
N150	N	0.708846	-0.381257	-0.364919
H151	H	0.690597	-0.361824	-0.316434
H152	H	0.727059	-0.403264	-0.322710
H153	H	-0.094256	-0.164284	-0.382775
N154	N	-0.185561	-0.276275	-0.642493
H155	H	-0.218842	-0.271910	-0.632371
H156	H	-0.177338	-0.269317	-0.717154
N157	N	0.589515	-0.953682	-0.642568
H158	H	0.607750	-0.934184	-0.691049
H159	H	0.571317	-0.975698	-0.684782
N160	N	0.484344	-0.156649	-0.364976
H161	H	0.517626	-0.161014	-0.375097
H162	H	0.476168	-0.124573	-0.381385
H163	H	0.121586	-0.297413	-0.691502
H164	H	0.701284	-0.472571	-0.382580
N165	N	0.709054	-1.051175	-0.365059
H166	H	0.704698	-1.084457	-0.375202
H167	H	0.741133	-1.042943	-0.381410
N168	N	0.589542	-1.051195	-0.642576
H169	H	0.571327	-1.029215	-0.684859
H170	H	0.607820	-1.070631	-0.690992
H171	H	0.596968	-0.472603	-0.624830
N172	N	0.560700	-0.694615	-0.709297
H173	H	0.542487	-0.672632	-0.751578
H174	H	0.578980	-0.714049	-0.757713
N175	N	0.589336	-0.381283	-0.642436
H176	H	0.593691	-0.348001	-0.632292
H177	H	0.596314	-0.389451	-0.717091
H178	H	0.730139	-0.829144	-0.315919
N179	N	0.737713	-0.737822	-0.298248
H180	H	0.755929	-0.759804	-0.255972
H181	H	0.758489	-0.718325	-0.340836
