data_functionalizedCrystal
_audit_creation_method	'MofGen! by Chris Wilmer'
_symmetry_space_group_name_H-M	'P1'
_symmetry_Int_Tables_number	1
_symmetry_cell_setting	triclinic
loop_
_symmetry_equiv_pos_as_xyz
  x,y,z
_cell_length_a	14.908571
_cell_length_b	19.121063
_cell_length_c	14.910749
_cell_angle_alpha	95.531922
_cell_angle_beta	90.117042
_cell_angle_gamma	89.303906
loop_
_atom_site_label
_atom_site_type_symbol
_atom_site_fract_x
_atom_site_fract_y
_atom_site_fract_z
Zn1	Zn	1.324683	-0.366235	-0.606270
Zn2	Zn	1.326685	-0.477336	-0.461641
Zn3	Zn	1.183619	-0.352796	-0.446608
Zn4	Zn	1.167904	-0.476460	-0.603221
O5	O	1.250723	-0.418207	-0.529435
O6	O	1.450435	-0.386963	-0.594652
O7	O	1.315121	-0.455559	-0.333576
O8	O	1.208070	-0.256329	-0.462772
O9	O	1.451906	-0.468589	-0.488394
O10	O	1.311710	-0.266202	-0.580075
O11	O	1.210011	-0.364060	-0.322531
O12	O	1.056048	-0.363210	-0.459815
O13	O	1.181286	-0.467095	-0.729696
O14	O	1.044502	-0.454065	-0.574878
O15	O	1.296472	-0.386113	-0.731936
O16	O	1.299883	-0.575470	-0.485437
O17	O	1.183228	-0.574826	-0.589455
C18	C	1.017737	-0.407084	-0.515385
C19	C	0.918063	-0.402344	-0.509397
C20	C	0.718791	-0.488176	-0.617812
C21	C	0.625138	-0.483724	-0.612189
C22	C	0.637101	-0.388986	-0.492532
C23	C	0.730755	-0.393438	-0.498156
C24	C	0.771596	-0.443035	-0.560797
C25	C	0.865251	-0.447490	-0.566415
C26	C	0.877213	-0.352748	-0.446763
C27	C	0.783559	-0.348297	-0.441140
C28	C	1.240091	-0.600625	-0.538768
C29	C	1.235622	-0.678669	-0.542796
C30	C	1.294302	-0.715651	-0.490582
C31	C	1.290104	-0.788982	-0.494376
C32	C	1.227223	-0.825331	-0.550379
C33	C	1.168541	-0.788344	-0.602599
C34	C	1.172743	-0.715014	-0.598810
C35	C	1.211498	-1.046723	-0.564533
C36	C	1.207299	-1.120058	-0.568316
C37	C	1.328863	-1.120692	-0.460094
C38	C	1.333056	-1.047360	-0.456305
C39	C	1.274378	-1.010380	-0.508528
C40	C	1.222929	-0.900287	-0.554256
C41	C	1.278676	-0.935426	-0.504656
C42	C	1.484618	-0.429373	-0.543540
C43	C	1.584290	-0.434132	-0.549550
C44	C	1.236903	-0.428005	-0.764419
C45	C	1.231014	-0.432181	-0.864555
C46	C	1.261419	-0.235078	-0.520086
C47	C	1.265978	-0.157040	-0.516102
C48	C	1.264543	-0.408398	-0.295365
C49	C	1.270618	-0.404033	-0.195230
C50	C	1.162896	-0.480823	-0.004320
C51	C	1.168600	-0.476724	0.089766
C52	C	1.287725	-0.391732	0.087031
C53	C	1.282021	-0.395832	-0.007055
C54	C	1.219605	-0.440379	-0.052727
C55	C	1.213906	-0.444482	-0.146816
C56	C	1.333026	-0.359487	-0.149549
C57	C	1.338730	-0.355388	-0.055463
H58	H	0.603832	-0.348602	-0.441539
H59	H	1.389545	-0.319117	-0.018264
Br60	Br	0.728123	-0.280985	-0.356138
Br61	Br	0.948882	-0.291490	-0.369370
Br62	Br	1.418409	-0.998037	-0.380310
H63	H	1.345502	-0.686061	-0.444974
Br64	Br	1.091630	-0.531610	0.155461
Br65	Br	0.553476	-0.544986	-0.689574
Br66	Br	1.369749	-0.839170	-0.423516
Br67	Br	1.408498	-1.170883	-0.389228
Br68	Br	1.131863	-0.996546	-0.635408
H69	H	1.156103	-1.149652	-0.613938
H70	H	1.379204	-0.326556	-0.188973
Br71	Br	1.083208	-0.837673	-0.678613
H72	H	1.124962	-0.684904	-0.641329
H73	H	1.329878	-0.905829	-0.459061
H74	H	1.171730	-0.929890	-0.599853
H75	H	1.163086	-0.480756	-0.184001
H76	H	0.898503	-0.487875	-0.617419
H77	H	1.112080	-0.517100	-0.041507
Br78	Br	0.774224	-0.555493	-0.702810
H79	H	1.338536	-0.355460	0.124234
