data_functionalizedCrystal
_audit_creation_method	'MofGen! by Chris Wilmer'
_symmetry_space_group_name_H-M	'P1'
_symmetry_Int_Tables_number	1
_symmetry_cell_setting	triclinic
loop_
_symmetry_equiv_pos_as_xyz
  x,y,z
_cell_length_a	19.805407
_cell_length_b	19.076808
_cell_length_c	19.805399
_cell_angle_alpha	87.672943
_cell_angle_beta	89.980427
_cell_angle_gamma	92.323385
loop_
_atom_site_label
_atom_site_type_symbol
_atom_site_fract_x
_atom_site_fract_y
_atom_site_fract_z
Zn1	Zn	1.023914	-0.280233	-0.371886
Zn2	Zn	1.357247	0.053101	-0.038552
Zn3	Zn	1.690580	0.386434	0.294781
Zn4	Zn	1.019283	-0.397938	-0.254147
Zn5	Zn	1.352616	-0.064605	0.079186
Zn6	Zn	1.685950	0.268729	0.412520
Zn7	Zn	0.910727	-0.280252	-0.258710
Zn8	Zn	1.244061	0.053081	0.074624
Zn9	Zn	1.577394	0.386414	0.407957
Zn10	Zn	0.906148	-0.397901	-0.367295
Zn11	Zn	1.239481	-0.064567	-0.033962
Zn12	Zn	1.572814	0.268766	0.299371
O13	O	0.965018	-0.339081	-0.313009
O14	O	1.298351	-0.005748	0.020324
O15	O	1.631685	0.327586	0.353657
O16	O	1.118016	-0.295854	-0.356279
O17	O	1.451349	0.037479	-0.022946
O18	O	1.784682	0.370813	0.310387
O19	O	1.004861	-0.382351	-0.160035
O20	O	1.338195	-0.049017	0.173299
O21	O	1.671528	0.284316	0.506632
O22	O	0.929597	-0.181753	-0.277553
O23	O	1.262930	0.151580	0.055780
O24	O	1.596263	0.484913	0.389113
O25	O	1.114613	-0.382332	-0.269777
O26	O	1.447947	-0.048998	0.063556
O27	O	1.781280	0.284335	0.396890
O28	O	1.012754	-0.181739	-0.360703
O29	O	1.346087	0.151594	-0.027370
O30	O	1.679421	0.484928	0.305963
O31	O	0.925106	-0.295887	-0.163387
O32	O	1.258440	0.037446	0.169946
O33	O	1.591773	0.370779	0.503280
O34	O	0.815404	-0.295851	-0.273102
O35	O	1.148737	0.037482	0.060231
O36	O	1.482070	0.370816	0.393565
O37	O	0.921791	-0.382268	-0.462622
O38	O	1.255124	-0.048935	-0.129288
O39	O	1.588457	0.284399	0.204045
O40	O	0.812039	-0.382287	-0.352879
O41	O	1.145372	-0.048953	-0.019546
O42	O	1.478706	0.284380	0.313787
O43	O	1.008313	-0.295818	-0.465994
O44	O	1.341646	0.037515	-0.132661
O45	O	1.674980	0.370849	0.200672
O46	O	1.000421	-0.496429	-0.265326
O47	O	1.333754	-0.163096	0.068008
O48	O	1.667087	0.170237	0.401341
O49	O	0.917301	-0.496402	-0.348455
O50	O	1.250634	-0.163069	-0.015122
O51	O	1.583967	0.170265	0.318211
C52	C	0.789162	-0.339067	-0.312988
C53	C	1.122496	-0.005734	0.020345
C54	C	1.455829	0.327599	0.353679
C55	C	0.713930	-0.339079	-0.312994
C56	C	1.047263	-0.005745	0.020339
C57	C	1.380597	0.327588	0.353672
C58	C	0.957879	-0.521955	-0.305912
C59	C	1.291213	-0.188621	0.027421
C60	C	1.624546	0.144712	0.360755
C61	C	0.954888	-0.600189	-0.302898
C62	C	1.288221	-0.266856	0.030435
C63	C	1.621554	0.066478	0.363768
C64	C	0.676849	-0.384154	-0.354462
C65	C	1.010182	-0.050820	-0.021128
C66	C	1.343516	0.282513	0.312205
C67	C	0.606160	-0.384155	-0.354471
C68	C	0.939494	-0.050821	-0.021138
C69	C	1.272827	0.282512	0.312195
C70	C	0.572554	-0.339084	-0.313009
C71	C	0.905888	-0.005751	0.020324
C72	C	1.239221	0.327583	0.353657
C73	C	0.609640	-0.294004	-0.271540
C74	C	0.942974	0.039329	0.061793
C75	C	1.276307	0.372662	0.395127
C76	C	0.680328	-0.294000	-0.271535
C77	C	1.013661	0.039333	0.061799
C78	C	1.346994	0.372667	0.395132
C79	C	0.324567	-0.294020	-0.271562
C80	C	0.657900	0.039314	0.061771
C81	C	0.991233	0.372647	0.395105
C82	C	0.253874	-0.294029	-0.271569
C83	C	0.587207	0.039304	0.061764
C84	C	0.920541	0.372638	0.395098
C85	C	0.250399	-0.384175	-0.354498
C86	C	0.583733	-0.050841	-0.021165
C87	C	0.917066	0.282492	0.312168
C88	C	0.321086	-0.384170	-0.354493
C89	C	0.654420	-0.050837	-0.021160
C90	C	0.987753	0.282496	0.312174
C91	C	0.358167	-0.339088	-0.313027
C92	C	0.691500	-0.005755	0.020307
C93	C	1.024833	0.327578	0.353640
C94	C	0.434815	-0.339086	-0.313018
C95	C	0.768148	-0.005753	0.020315
C96	C	1.101482	0.327580	0.353649
C97	C	0.495907	-0.339089	-0.313014
C98	C	0.829240	-0.005756	0.020319
C99	C	1.162574	0.327578	0.353653
C100	C	0.996745	-0.636876	-0.344809
C101	C	1.330078	-0.303542	-0.011476
C102	C	1.663412	0.029791	0.321857
C103	C	0.993931	-0.710385	-0.341979
C104	C	1.327264	-0.377052	-0.008645
C105	C	1.660598	-0.043718	0.324688
C106	C	0.949263	-0.747206	-0.297233
C107	C	1.282596	-0.413873	0.036100
C108	C	1.615929	-0.080540	0.369433
C109	C	0.907400	-0.710515	-0.255321
C110	C	1.240734	-0.377181	0.078013
C111	C	1.574067	-0.043848	0.411346
C112	C	0.910211	-0.637007	-0.258155
C113	C	1.243545	-0.303673	0.075178
C114	C	1.576878	0.029660	0.408511
C115	C	0.936213	-0.967059	-0.284114
C116	C	1.269547	-0.633726	0.049220
C117	C	1.602880	-0.300392	0.382553
C118	C	0.933407	-1.040572	-0.281281
C119	C	1.266740	-0.707239	0.052052
C120	C	1.600073	-0.373905	0.385386
C121	C	1.019937	-1.040437	-0.367940
C122	C	1.353270	-0.707104	-0.034607
C123	C	1.686604	-0.373771	0.298726
C124	C	1.022747	-0.966928	-0.370768
C125	C	1.356080	-0.633595	-0.037434
C126	C	1.689414	-0.300261	0.295899
C127	C	0.980882	-0.930243	-0.328858
C128	C	1.314216	-0.596909	0.004476
C129	C	1.647549	-0.263576	0.337809
N130	N	0.946387	-0.822345	-0.294338
N131	N	1.279720	-0.489011	0.038996
N132	N	1.613053	-0.155678	0.372329
N133	N	0.983755	-0.855106	-0.331757
N134	N	1.317089	-0.521772	0.001576
N135	N	1.650422	-0.188439	0.334909
C136	C	1.141560	-0.339095	-0.313031
C137	C	1.474893	-0.005762	0.020302
C138	C	1.808227	0.327572	0.353635
C139	C	1.216792	-0.339101	-0.313041
C140	C	1.550125	-0.005768	0.020293
C141	C	1.883458	0.327566	0.353626
C142	C	0.965058	-0.339037	-0.489554
C143	C	1.298391	-0.005703	-0.156221
C144	C	1.631724	0.327630	0.177113
C145	C	0.965074	-0.339018	-0.564787
C146	C	1.298408	-0.005684	-0.231453
C147	C	1.631741	0.327649	0.101880
C148	C	0.972203	-0.155493	-0.320149
C149	C	1.305536	0.177840	0.013184
C150	C	1.638869	0.511174	0.346517
C151	C	0.975264	-0.077259	-0.323192
C152	C	1.308598	0.256075	0.010141
C153	C	1.641931	0.589408	0.343475
C154	C	1.010128	-0.294001	-0.601888
C155	C	1.343461	0.039332	-0.268555
C156	C	1.676794	0.372666	0.064779
C157	C	1.010135	-0.293980	-0.672577
C158	C	1.343469	0.039353	-0.339244
C159	C	1.676802	0.372686	-0.005911
C160	C	0.965093	-0.338981	-0.706164
C161	C	1.298426	-0.005648	-0.372830
C162	C	1.631759	0.327686	-0.039497
C163	C	0.920035	-0.384000	-0.669057
C164	C	1.253368	-0.050666	-0.335724
C165	C	1.586701	0.282667	-0.002391
C166	C	0.920024	-0.384016	-0.598369
C167	C	1.253358	-0.050683	-0.265036
C168	C	1.586691	0.282651	0.068297
C169	C	0.920075	-0.383934	-0.954133
C170	C	1.253409	-0.050601	-0.620800
C171	C	1.586742	0.282733	-0.287467
C172	C	0.920091	-0.383916	-1.024826
C173	C	1.253424	-0.050582	-0.691493
C174	C	1.586757	0.282751	-0.358159
C175	C	1.010187	-0.293899	-1.028341
C176	C	1.343520	0.039435	-0.695008
C177	C	1.676853	0.372768	-0.361675
C178	C	1.010176	-0.293915	-0.957653
C179	C	1.343509	0.039418	-0.624320
C180	C	1.676843	0.372752	-0.290987
C181	C	0.965116	-0.338931	-0.920553
C182	C	1.298449	-0.005597	-0.587220
C183	C	1.631783	0.327736	-0.253887
C184	C	0.965107	-0.338951	-0.843904
C185	C	1.298441	-0.005618	-0.510571
C186	C	1.631774	0.327715	-0.177237
C187	C	0.965104	-0.338964	-0.782812
C188	C	1.298438	-0.005631	-0.449478
C189	C	1.631771	0.327702	-0.116145
C190	C	0.965019	-0.339074	-0.137154
C191	C	1.298353	-0.005741	0.196180
C192	C	1.631686	0.327592	0.529513
C193	C	0.965141	-0.338895	-0.061929
C194	C	1.298475	-0.005562	0.271404
C195	C	1.631808	0.327772	0.604738
H196	H	0.704206	-0.420858	-0.388223
H197	H	1.037539	-0.087524	-0.054889
H198	H	1.370872	0.245809	0.278444
H199	H	0.354749	-0.257317	-0.237792
H200	H	0.688082	0.076017	0.095541
H201	H	1.021415	0.409350	0.428874
H202	H	0.575972	-0.420860	-0.388237
H203	H	0.909305	-0.087527	-0.054904
H204	H	1.242639	0.245807	0.278429
H205	H	0.582273	-0.257304	-0.237784
H206	H	0.915606	0.076029	0.095549
H207	H	1.248939	0.409363	0.428882
Br208	Br	0.200072	-0.445360	-0.410774
Br209	Br	0.533406	-0.112027	-0.077441
Br210	Br	0.866739	0.221306	0.255893
Br211	Br	1.071265	-0.232931	-0.556313
Br212	Br	1.404599	0.100403	-0.222980
Br213	Br	1.737932	0.433736	0.110353
H214	H	1.054020	-1.070315	-0.402062
H215	H	1.387353	-0.736981	-0.068729
H216	H	1.720687	-0.403648	0.264605
H217	H	0.883394	-0.420599	-0.923934
H218	H	1.216728	-0.087266	-0.590601
H219	H	1.550061	0.246068	-0.257268
H220	H	0.883331	-0.420666	-0.568162
H221	H	1.216664	-0.087333	-0.234829
H222	H	1.549997	0.246000	0.098504
H223	H	1.028021	-0.740252	-0.376102
H224	H	1.361355	-0.406919	-0.042769
H225	H	1.694688	-0.073585	0.290565
H226	H	1.046874	-0.257242	-1.058557
H227	H	1.380208	0.076091	-0.725224
H228	H	1.713541	0.409425	-0.391890
H229	H	1.059120	-0.936950	-0.407203
H230	H	1.392453	-0.603616	-0.073870
H231	H	1.725786	-0.270283	0.259464
H232	H	0.348445	-0.420874	-0.388253
H233	H	0.681778	-0.087541	-0.054920
H234	H	1.015112	0.245793	0.278414
Br235	Br	0.858958	-0.444993	-1.070407
Br236	Br	1.192292	-0.111660	-0.737074
Br237	Br	1.525625	0.221674	-0.403741
Br238	Br	0.730653	-0.232821	-0.215259
Br239	Br	1.063987	0.100513	0.118074
Br240	Br	1.397320	0.433846	0.451407
H241	H	1.033122	-0.606900	-0.381243
H242	H	1.366455	-0.273567	-0.047909
H243	H	1.699789	0.059766	0.285424
H244	H	1.046824	-0.257325	-0.702782
H245	H	1.380157	0.076008	-0.369449
H246	H	1.713490	0.409342	-0.036116
H247	H	0.902127	-0.937196	-0.249987
H248	H	1.235460	-0.603862	0.083346
H249	H	1.568793	-0.270529	0.416679
Br250	Br	0.846769	-0.760486	-0.194603
Br251	Br	1.180102	-0.427152	0.138730
Br252	Br	1.513436	-0.093819	0.472064
Br253	Br	0.208266	-0.232858	-0.215295
Br254	Br	0.541599	0.100475	0.118038
Br255	Br	0.874932	0.433809	0.451372
Br256	Br	0.872786	-1.090544	-0.220547
Br257	Br	1.206119	-0.757211	0.112787
Br258	Br	1.539452	-0.423877	0.446120
H259	H	0.876126	-0.607137	-0.224028
H260	H	1.209459	-0.273804	0.109306
H261	H	1.542792	0.059530	0.442639
H262	H	1.046857	-0.257273	-0.930311
H263	H	1.380190	0.076060	-0.596978
H264	H	1.713523	0.409393	-0.263644
Br265	Br	0.858900	-0.445068	-0.714638
Br266	Br	1.192234	-0.111735	-0.381305
Br267	Br	1.525567	0.221598	-0.047971
