data_functionalizedCrystal
_audit_creation_method	'MofGen! by Chris Wilmer'
_symmetry_space_group_name_H-M	'P1'
_symmetry_Int_Tables_number	1
_symmetry_cell_setting	triclinic
loop_
_symmetry_equiv_pos_as_xyz
  x,y,z
_cell_length_a	12.759401
_cell_length_b	14.908520
_cell_length_c	12.759393
_cell_angle_alpha	93.262204
_cell_angle_beta	89.982620
_cell_angle_gamma	93.320696
loop_
_atom_site_label
_atom_site_type_symbol
_atom_site_fract_x
_atom_site_fract_y
_atom_site_fract_z
Zn1	Zn	1.582055	-0.359098	-0.618082
Zn2	Zn	1.571790	-0.509985	-0.452529
Zn3	Zn	1.406358	-0.359146	-0.442425
Zn4	Zn	1.396187	-0.509915	-0.628166
O5	O	1.489097	-0.434536	-0.535301
O6	O	1.727714	-0.379123	-0.596130
O7	O	1.549805	-0.490025	-0.304171
O8	O	1.438217	-0.232896	-0.457278
O9	O	1.720172	-0.489979	-0.474499
O10	O	1.567301	-0.232861	-0.586332
O11	O	1.428263	-0.379204	-0.296748
O12	O	1.257988	-0.379137	-0.467055
O13	O	1.420883	-0.489860	-0.773846
O14	O	1.250516	-0.489906	-0.603519
O15	O	1.557440	-0.379055	-0.766438
O16	O	1.539943	-0.636220	-0.484277
O17	O	1.410929	-0.636169	-0.613316
C18	C	1.216131	-0.434520	-0.535285
C19	C	1.099354	-0.434534	-0.535305
C20	C	1.473247	-0.668928	-0.551010
C21	C	1.466562	-0.769202	-0.557766
C22	C	1.040622	-0.492304	-0.606257
C23	C	0.930897	-0.492316	-0.606269
C24	C	0.938645	-0.376785	-0.464369
C25	C	1.048368	-0.376769	-0.464363
C26	C	1.036148	-0.559008	-0.688179
C27	C	0.926423	-0.559019	-0.688191
C28	C	1.588481	-0.957619	-0.436200
C29	C	1.582204	-1.051836	-0.442544
C30	C	1.447735	-1.051852	-0.576803
C31	C	1.454013	-0.957636	-0.570459
C32	C	1.524387	-0.910523	-0.500154
C33	C	1.530658	-0.816305	-0.493805
C34	C	1.396196	-0.816323	-0.628069
C35	C	1.389919	-0.910539	-0.634413
C36	C	1.763130	-0.434554	-0.535317
C37	C	1.879906	-0.434561	-0.535324
C38	C	1.489172	-0.434444	-0.809328
C39	C	1.489204	-0.434405	-0.926102
C40	C	1.505039	-0.199229	-0.519553
C41	C	1.511832	-0.098955	-0.512842
C42	C	1.425946	-0.376690	-0.977104
C43	C	1.425979	-0.376663	-1.086826
C44	C	1.552537	-0.492069	-1.094536
C45	C	1.552498	-0.492100	-0.984815
C46	C	1.352882	-0.310059	-0.972654
C47	C	1.352915	-0.310032	-1.082376
C48	C	1.489088	-0.434563	-0.262335
C49	C	1.489277	-0.434348	-0.145545
H50	H	1.096184	-0.329721	-0.406594
H51	H	0.894104	-0.534080	-0.763869
F52	F	1.663363	-0.907476	-0.361364
H53	H	1.587958	-0.777946	-0.436557
H54	H	1.273933	-0.335041	-1.118081
H55	H	1.344003	-0.777966	-0.680141
H56	H	0.891923	-0.628873	-0.670947
H57	H	1.634398	-1.090178	-0.390468
H58	H	1.065694	-0.625343	-0.663346
F59	F	1.372856	-1.102008	-0.651632
F60	F	1.315029	-0.960690	-0.709236
F61	F	1.619813	-0.553537	-0.930540
H62	H	1.604070	-0.539041	-1.142353
H63	H	1.379440	-0.240151	-1.107483
F64	F	1.396843	-0.223326	-0.922366
F65	F	1.244856	-0.334516	-0.935369
H66	H	0.897120	-0.329754	-0.406611
H67	H	1.067210	-0.540375	-0.768335
