data_functionalizedCrystal
_audit_creation_method	'MofGen! by Chris Wilmer'
_symmetry_space_group_name_H-M	'P1'
_symmetry_Int_Tables_number	1
_symmetry_cell_setting	triclinic
loop_
_symmetry_equiv_pos_as_xyz
  x,y,z
_cell_length_a	16.120297
_cell_length_b	16.120530
_cell_length_c	16.120484
_cell_angle_alpha	90.167327
_cell_angle_beta	84.385569
_cell_angle_gamma	89.871860
loop_
_atom_site_label
_atom_site_type_symbol
_atom_site_fract_x
_atom_site_fract_y
_atom_site_fract_z
Zn1	Zn	-0.554813	-1.224987	0.422264
Zn2	Zn	-0.054813	-0.724987	0.922264
Zn3	Zn	-0.422118	-1.224883	0.554948
Zn4	Zn	0.077882	-0.724883	1.054948
Zn5	Zn	-0.408056	-1.093726	0.408180
Zn6	Zn	0.091944	-0.593726	0.908180
Zn7	Zn	-0.554051	-1.078880	0.554181
Zn8	Zn	-0.054051	-0.578880	1.054181
O9	O	-0.484760	-1.155619	0.484893
O10	O	0.015240	-0.655619	0.984893
O11	O	-0.543415	-1.341009	0.446081
O12	O	-0.043415	-0.841009	0.946081
O13	O	-0.303620	-1.213654	0.529906
O14	O	0.196380	-0.713654	1.029906
O15	O	-0.421958	-1.117395	0.293418
O16	O	0.078042	-0.617395	0.793418
O17	O	-0.445925	-1.340932	0.543563
O18	O	0.054075	-0.840932	1.043563
O19	O	-0.529780	-1.213832	0.303765
O20	O	-0.029780	-0.713832	0.803765
O21	O	-0.293289	-1.117294	0.422076
O22	O	0.206711	-0.617294	0.922076
O23	O	-0.421218	-0.975721	0.421332
O24	O	0.078782	-0.475721	0.921332
O25	O	-0.670785	-1.092092	0.542255
O26	O	-0.170785	-0.592092	1.042255
O27	O	-0.528480	-0.964814	0.528598
O28	O	-0.028480	-0.464814	1.028598
O29	O	-0.671345	-1.199436	0.445336
O30	O	-0.171345	-0.699436	0.945336
O31	O	-0.445185	-1.199258	0.671477
O32	O	0.054815	-0.699258	1.171477
O33	O	-0.542116	-1.091990	0.670913
O34	O	-0.042116	-0.591990	1.170913
C35	C	-0.473241	-0.940181	0.473354
C36	C	0.026759	-0.440181	0.973354
C37	C	-0.468334	-0.848013	0.468438
C38	C	0.031666	-0.348013	0.968438
C39	C	-0.495113	-1.144023	0.701438
C40	C	0.004887	-0.644023	1.201438
C41	C	-0.499574	-1.139137	0.794083
C42	C	0.000426	-0.639137	1.294083
C43	C	-0.702152	-1.144119	0.495281
C44	C	-0.202152	-0.644119	0.995281
C45	C	-0.794791	-1.139219	0.499708
C46	C	-0.294791	-0.639219	0.999708
C47	C	-0.964403	-1.130243	0.507770
C48	C	-0.464403	-0.630243	1.007770
C49	C	-1.005965	-1.181172	0.461776
C50	C	-0.505965	-0.681172	0.961776
C51	C	-1.100342	-1.176177	0.466262
C52	C	-0.600342	-0.676177	0.966262
C53	C	-0.870017	-1.135236	0.503285
C54	C	-0.370017	-0.635236	1.003285
C55	C	-0.268213	-1.167125	0.474489
C56	C	0.231787	-0.667125	0.974489
C57	C	-0.175571	-1.172198	0.469836
C58	C	0.324429	-0.672198	0.969836
C59	C	-0.496324	-1.371899	0.496479
C60	C	0.003676	-0.871899	0.996479
C61	C	-0.501252	-1.464064	0.501416
C62	C	-0.001252	-0.964064	1.001416
C63	C	-0.459381	-0.679262	0.459445
C64	C	0.040619	-0.179262	0.959445
C65	C	-0.510202	-0.632810	0.510407
C66	C	-0.010202	-0.132810	1.010407
C67	C	-0.505220	-0.538911	0.505403
C68	C	-0.005220	-0.038911	1.005403
C69	C	-0.464361	-0.773169	0.464448
C70	C	0.035639	-0.273169	0.964448
C71	C	-0.474385	-1.167282	0.267505
C72	C	0.025615	-0.667282	0.767505
C73	C	-0.469964	-1.172251	0.174867
C74	C	0.030036	-0.672251	0.674867
C75	C	-0.507736	-1.130220	0.963706
C76	C	-0.007736	-0.630220	1.463706
C77	C	-0.461804	-1.181166	1.005249
C78	C	0.038196	-0.681166	1.505249
C79	C	-0.466346	-1.176204	1.099633
C80	C	0.033654	-0.676204	1.599633
C81	C	-0.503196	-1.135180	0.869313
C82	C	-0.003196	-0.635180	1.369313
H83	H	-0.970668	-1.228524	0.419031
H84	H	-0.470668	-0.728524	0.919031
H85	H	-0.999698	-1.082894	0.550512
H86	H	-0.499698	-0.582894	1.050512
O87	O	-0.566610	-0.669584	0.566837
O88	O	-0.066610	-0.169584	1.066837
C89	C	-0.620878	-0.719374	0.524669
C90	C	-0.120878	-0.219374	1.024669
H91	H	-0.589239	-0.737173	0.460732
H92	H	-0.089239	-0.237173	0.960732
H93	H	-0.680495	-0.683287	0.516825
H94	H	-0.180495	-0.183287	1.016825
C95	C	-0.681226	-0.776603	0.654102
C96	C	-0.181226	-0.276603	1.154102
C97	C	-0.642363	-0.798470	0.575576
C98	C	-0.142363	-0.298470	1.075576
H99	H	-0.694483	-0.825392	0.685504
H100	H	-0.194483	-0.325392	1.185504
H101	H	-0.644667	-0.743057	0.682512
H102	H	-0.144667	-0.243057	1.182512
H103	H	-0.730902	-0.746530	0.647553
H104	H	-0.230902	-0.246530	1.147553
H105	H	-0.592684	-0.828533	0.582125
H106	H	-0.092684	-0.328533	1.082125
H107	H	-0.678915	-0.832023	0.547168
H108	H	-0.178915	-0.332023	1.047168
H109	H	-0.412135	-0.648511	0.412060
H110	H	0.087865	-0.148511	0.912060
H111	H	-0.419069	-1.228508	0.969931
H112	H	0.080931	-0.728508	1.469931
O113	O	-0.558640	-1.073762	1.005958
O114	O	-0.058640	-0.573762	1.505958
C115	C	-0.551902	-1.081326	1.092154
C116	C	-0.051902	-0.581326	1.592154
H117	H	-0.489616	-1.111338	1.102322
H118	H	0.010384	-0.611338	1.602322
H119	H	-0.604899	-1.121551	1.121527
H120	H	-0.104899	-0.621551	1.621527
C121	C	-0.633586	-0.957849	1.120410
C122	C	-0.133586	-0.457849	1.620410
C123	C	-0.557083	-0.994704	1.132898
C124	C	-0.057083	-0.494704	1.632898
H125	H	-0.636786	-0.904418	1.145544
H126	H	-0.136786	-0.404418	1.645544
H127	H	-0.638129	-0.952754	1.062338
H128	H	-0.138129	-0.452754	1.562338
H129	H	-0.677743	-0.991378	1.144887
H130	H	-0.177743	-0.491378	1.644887
H131	H	-0.512929	-0.961180	1.108412
H132	H	-0.012929	-0.461180	1.608412
H133	H	-0.552533	-0.999791	1.190967
H134	H	-0.052533	-0.499791	1.690967
