data_functionalizedCrystal
_audit_creation_method	'MofGen! by Chris Wilmer'
_symmetry_space_group_name_H-M	'P1'
_symmetry_Int_Tables_number	1
_symmetry_cell_setting	triclinic
loop_
_symmetry_equiv_pos_as_xyz
  x,y,z
_cell_length_a	10.489741
_cell_length_b	10.654541
_cell_length_c	9.730217
_cell_angle_alpha	89.999344
_cell_angle_beta	90.004309
_cell_angle_gamma	84.511551
loop_
_atom_site_label
_atom_site_type_symbol
_atom_site_fract_x
_atom_site_fract_y
_atom_site_fract_z
O1	O	0.179148	1.667921	0.114247
O2	O	0.196220	1.302450	0.114259
O3	O	0.002082	1.493501	0.114245
O4	O	0.373286	1.476869	0.114261
O5	O	0.002075	1.493499	-0.114336
O6	O	0.196213	1.302447	-0.114321
O7	O	0.179141	1.667918	-0.114333
Zn8	Zn	0.187676	1.485182	-0.150619
Zn9	Zn	0.187685	1.485186	0.150545
O10	O	0.373279	1.476866	-0.114319
C11	C	0.194964	1.255650	-0.000030
C12	C	0.191216	1.116205	-0.000025
C13	C	-0.045452	1.492244	-0.000045
C14	C	-0.187080	1.488486	-0.000042
C15	C	0.423360	1.088342	0.000003
C16	C	0.537667	1.008902	0.000022
C17	C	0.534137	0.877882	0.000023
C18	C	0.416288	0.826301	0.000001
C19	C	0.301982	0.905742	-0.000019
C20	C	0.305524	1.036763	-0.000016
C21	C	0.069840	0.933604	-0.000056
C22	C	0.073367	1.064624	-0.000048
C23	C	-0.048009	0.882024	-0.000078
C24	C	-0.162318	0.961465	-0.000088
C25	C	-0.158783	1.092492	-0.000088
C26	C	-0.040939	1.144065	-0.000067
C27	C	-0.255160	1.366925	-0.000028
C28	C	-0.347314	1.424348	-0.112732
C29	C	-0.347282	1.424379	0.112630
C30	C	-0.277369	1.545958	-0.112839
C31	C	-0.277327	1.545973	0.112625
C32	C	-0.369454	1.603484	-0.000107
C33	C	0.420814	1.478124	-0.000026
C34	C	0.562441	1.481882	-0.000020
C35	C	0.180397	1.714718	-0.000041
C36	C	0.184146	1.854163	-0.000037
N37	N	0.187682	1.485189	0.356082
N38	N	0.187669	1.485189	-0.356156
C39	C	0.016096	1.654703	0.356060
C40	C	-0.069706	1.739456	0.427988
C41	C	-0.069721	1.739455	0.571868
C42	C	0.016079	1.654695	0.643822
C43	C	0.101881	1.569942	0.571893
C44	C	0.101884	1.569950	0.428010
C45	C	0.273471	1.400436	0.571916
C46	C	0.273482	1.400429	0.428036
C47	C	0.359271	1.315676	0.643870
C48	C	0.445069	1.230915	0.571941
C49	C	0.445079	1.230919	0.428052
C50	C	0.359284	1.315676	0.356107
H51	H	0.426246	1.195024	0.000032
H52	H	0.413424	0.719617	-0.000015
N53	N	0.016080	1.654674	0.790791
N54	N	0.092682	1.578990	0.855018
H55	H	0.092686	1.578972	0.958818
H56	H	0.633617	1.050913	0.000036
N57	N	-0.386112	1.359816	0.232147
N58	N	-0.344926	1.247314	0.252198
H59	H	-0.372346	1.201706	0.336600
H60	H	-0.050875	0.775340	-0.000085
N61	N	0.532686	1.144329	0.645438
N62	N	0.529626	1.028258	0.629381
H63	H	0.591506	0.967102	0.681292
N64	N	-0.275548	1.173633	-0.000080
N65	N	-0.299489	1.249844	0.096274
H66	H	-0.381958	1.307146	0.096282
H67	H	0.627215	0.813200	0.000029
N68	N	-0.037304	1.277894	-0.000055
N69	N	0.067921	1.323926	-0.000034
H70	H	0.070495	1.418444	-0.000028
N71	N	-0.157432	1.825928	0.645386
N72	N	-0.275365	1.823244	0.629297
H73	H	-0.337333	1.884279	0.681241
H74	H	-0.139561	1.808469	0.369391
N75	N	-0.238735	1.610399	-0.232524
N76	N	-0.261833	1.569450	-0.349396
H77	H	-0.234545	1.614955	-0.433926
H78	H	0.016089	1.654702	0.238905
H79	H	-0.205460	1.266979	-0.000138
N80	N	0.532741	1.144342	0.354605
N81	N	0.609335	1.068680	0.418871
H82	H	0.671249	1.007531	0.367005
H83	H	-0.258261	0.919457	-0.000105
H84	H	-0.378304	1.372911	-0.208011
N85	N	-0.431527	1.728973	-0.000213
N86	N	-0.505516	1.764809	-0.096133
H87	H	-0.549357	1.853435	-0.096217
N88	N	-0.238419	1.610439	0.232166
N89	N	-0.260457	1.569019	0.349106
H90	H	-0.232977	1.614540	0.433545
H91	H	0.359280	1.315682	0.238952
H92	H	0.359261	1.315684	0.761024
