data_functionalizedCrystal
_audit_creation_method	'MofGen! by Chris Wilmer'
_symmetry_space_group_name_H-M	'P1'
_symmetry_Int_Tables_number	1
_symmetry_cell_setting	triclinic
loop_
_symmetry_equiv_pos_as_xyz
  x,y,z
_cell_length_a	17.699077
_cell_length_b	15.625429
_cell_length_c	16.176319
_cell_angle_alpha	71.916053
_cell_angle_beta	89.993140
_cell_angle_gamma	83.780415
loop_
_atom_site_label
_atom_site_type_symbol
_atom_site_fract_x
_atom_site_fract_y
_atom_site_fract_z
O1	O	1.004378	0.113983	-0.102900
O2	O	1.504378	0.613983	0.397100
O3	O	0.784038	0.128821	-0.107351
O4	O	1.284038	0.628821	0.392649
O5	O	0.900093	-0.009850	-0.065780
O6	O	1.400093	0.490150	0.434220
O7	O	0.888323	0.252653	-0.144471
O8	O	1.388323	0.752653	0.355529
O9	O	0.900077	-0.009859	0.071716
O10	O	1.400077	0.490141	0.571716
O11	O	0.784022	0.128812	0.030145
O12	O	1.284022	0.628812	0.530145
O13	O	1.004362	0.113974	0.034596
O14	O	1.504362	0.613974	0.534596
Cu15	Cu	0.894190	0.121392	0.044925
Cu16	Cu	1.394190	0.621392	0.544925
Cu17	Cu	0.894209	0.121402	-0.117680
Cu18	Cu	1.394209	0.621402	0.382320
O19	O	0.888307	0.252644	-0.006975
O20	O	1.388307	0.752644	0.493025
C21	C	0.755831	0.128286	-0.038445
C22	C	1.255831	0.628286	0.461555
C23	C	0.671809	0.126693	-0.037969
C24	C	1.171809	0.626693	0.462031
C25	C	0.632331	0.125938	0.037206
C26	C	1.132331	0.625938	0.537206
C27	C	0.553384	0.124428	0.037660
C28	C	1.053384	0.624428	0.537660
C29	C	0.513916	0.123679	-0.037064
C30	C	1.013916	0.623679	0.462936
C31	C	0.553400	0.124431	-0.112244
C32	C	1.053400	0.624431	0.387756
C33	C	0.632346	0.125935	-0.112695
C34	C	1.132346	0.625935	0.387305
C35	C	0.235021	0.118364	-0.110427
C36	C	0.735021	0.618364	0.389573
C37	C	0.156070	0.116863	-0.109971
C38	C	0.656070	0.616863	0.390029
C39	C	0.156059	0.116857	0.039928
C40	C	0.656059	0.616857	0.539928
C41	C	0.235005	0.118361	0.039477
C42	C	0.735005	0.618361	0.539477
C43	C	0.274483	0.119108	-0.035701
C44	C	0.774483	0.619108	0.464299
C45	C	0.360085	0.120745	-0.036191
C46	C	0.860085	0.620745	0.463809
C47	C	0.428314	0.122049	-0.036576
C48	C	0.928314	0.622049	0.463424
C49	C	0.899551	-0.043441	0.013035
C50	C	1.399551	0.456559	0.513035
C51	C	0.897952	-0.143518	0.043030
C52	C	1.397952	0.356482	0.543030
C53	C	0.892716	-0.472638	-0.233034
C54	C	1.392716	0.027362	0.266966
C55	C	0.891211	-0.566676	-0.204824
C56	C	1.391211	-0.066676	0.295176
C57	C	0.891193	-0.566672	-0.054935
C58	C	1.391193	-0.066672	0.445065
C59	C	0.892703	-0.472633	-0.083133
C60	C	1.392703	0.027367	0.416867
C61	C	0.893463	-0.425623	-0.172184
C62	C	1.393463	0.074377	0.327816
C63	C	0.893450	-0.425618	-0.022283
C64	C	1.393450	0.074382	0.477717
C65	C	0.894955	-0.331587	-0.050479
C66	C	1.394955	0.168413	0.449521
C67	C	0.895714	-0.284570	-0.139526
C68	C	1.395714	0.215430	0.360474
C69	C	0.894969	-0.331592	-0.200380
C70	C	1.394969	0.168408	0.299620
C71	C	0.892684	-0.472628	0.066767
C72	C	1.392684	0.027372	0.566767
C73	C	0.893431	-0.425613	0.127618
C74	C	1.393431	0.074387	0.627618
C75	C	0.894942	-0.331581	0.099422
C76	C	1.394942	0.168419	0.599422
C77	C	0.895700	-0.284565	0.010375
C78	C	1.395700	0.215435	0.510375
C79	C	0.895687	-0.284559	0.160276
C80	C	1.395687	0.215441	0.660276
C81	C	0.897192	-0.190528	0.132080
C82	C	1.397192	0.309472	0.632080
C83	C	0.897205	-0.190533	-0.017821
C84	C	1.397205	0.309467	0.482179
C85	C	1.032568	0.114509	-0.034312
C86	C	1.532568	0.614509	0.465688
C87	C	1.116591	0.116101	-0.034793
C88	C	1.616591	0.616101	0.465207
C89	C	0.888848	0.286235	-0.085791
C90	C	1.388848	0.786235	0.414209
C91	C	0.890447	0.386313	-0.115792
C92	C	1.390447	0.886313	0.384208
N93	N	0.894183	0.121384	0.159293
N94	N	1.394183	0.621384	0.659293
N95	N	0.894223	0.121403	-0.232045
N96	N	1.394223	0.621403	0.267955
C97	C	0.945587	0.060006	0.220957
C98	C	1.445587	0.560006	0.720957
C99	C	0.945591	0.060005	0.307504
C100	C	1.445591	0.560005	0.807504
C101	C	0.894193	0.121387	0.332384
C102	C	1.394193	0.621387	0.832384
C103	C	0.842783	0.182768	0.270713
C104	C	1.342783	0.682768	0.770713
C105	C	0.842776	0.182764	0.184168
C106	C	1.342776	0.682764	0.684168
C107	C	0.842809	0.182785	0.619736
C108	C	1.342809	0.682785	1.119736
C109	C	0.842821	0.182787	0.706287
C110	C	1.342821	0.682787	1.206287
C111	C	0.945624	0.060026	0.743072
C112	C	1.445624	0.560026	1.243072
C113	C	0.945617	0.060022	0.656528
C114	C	1.445617	0.560022	1.156528
C115	C	0.894205	0.121399	0.594865
C116	C	1.394205	0.621399	1.094865
C117	C	0.894200	0.121399	0.501021
C118	C	1.394200	0.621399	1.001021
C119	C	0.894201	0.121393	0.426225
C120	C	1.394201	0.621393	0.926225
H121	H	0.267135	0.118975	0.100323
H122	H	0.767135	0.618975	0.600323
Cl123	Cl	0.681939	0.126886	0.131149
Cl124	Cl	1.181939	0.626886	0.631149
Cl125	Cl	0.890267	-0.625777	-0.281332
Cl126	Cl	1.390267	-0.125777	0.218668
H127	H	0.987472	0.010042	0.636274
H128	H	1.487472	0.510042	1.136274
H129	H	0.521260	0.123815	-0.173084
H130	H	1.021260	0.623815	0.326916
H131	H	0.800930	0.232744	0.290975
H132	H	1.300930	0.732744	0.790975
Cl133	Cl	0.778201	0.259958	0.737563
Cl134	Cl	1.278201	0.759958	1.237563
Cl135	Cl	1.010210	-0.017161	0.189689
Cl136	Cl	1.510210	0.482839	0.689689
Cl137	Cl	1.010256	-0.017140	0.820597
Cl138	Cl	1.510256	0.482860	1.320597
H139	H	0.897831	-0.152257	-0.090334
H140	H	1.397831	0.347743	0.409666
H141	H	0.890571	-0.604959	0.017570
H142	H	1.390571	-0.104959	0.517570
H143	H	0.892809	-0.463901	0.200123
H144	H	1.392809	0.036099	0.700123
H145	H	0.521246	0.123798	0.098879
H146	H	1.021246	0.623798	0.598879
H147	H	0.123908	0.116244	0.101142
H148	H	0.623908	0.616244	0.601142
H149	H	0.891450	-0.549193	0.089721
H150	H	1.391450	-0.049193	0.589721
Cl151	Cl	0.681976	0.126880	-0.207203
Cl152	Cl	1.181976	0.626880	0.292797
H153	H	0.895060	-0.322847	0.232781
H154	H	1.395060	0.177153	0.732781
H155	H	0.897784	-0.152245	0.181630
H156	H	1.397784	0.347755	0.681630
Cl157	Cl	0.106454	0.115919	-0.203917
Cl158	Cl	0.606454	0.615919	0.296083
Cl159	Cl	1.010215	-0.017159	0.385028
Cl160	Cl	1.510215	0.482841	0.885028
Cl161	Cl	0.778147	0.259926	0.106648
Cl162	Cl	1.278147	0.759926	0.606648
H163	H	0.267155	0.118970	-0.171640
H164	H	0.767155	0.618970	0.328360
Cl165	Cl	0.897609	-0.166358	-0.174975
Cl166	Cl	1.397609	0.333642	0.325025
H167	H	0.895595	-0.293315	-0.272893
H168	H	1.395595	0.206685	0.227107
Cl169	Cl	0.778181	0.259947	0.542222
Cl170	Cl	1.278181	0.759947	1.042222
H171	H	0.893342	-0.434362	-0.305548
H172	H	1.393342	0.065638	0.194452
