data_functionalizedCrystal
_audit_creation_method	'MofGen! by Chris Wilmer'
_symmetry_space_group_name_H-M	'P1'
_symmetry_Int_Tables_number	1
_symmetry_cell_setting	triclinic
loop_
_symmetry_equiv_pos_as_xyz
  x,y,z
_cell_length_a	10.489741
_cell_length_b	10.489716
_cell_length_c	9.798715
_cell_angle_alpha	90.000892
_cell_angle_beta	89.998999
_cell_angle_gamma	84.534155
loop_
_atom_site_label
_atom_site_type_symbol
_atom_site_fract_x
_atom_site_fract_y
_atom_site_fract_z
O1	O	1.694037	0.179967	-0.113393
O2	O	1.322839	0.196860	-0.113413
O3	O	1.516901	0.002814	-0.113408
O4	O	1.499975	0.374013	-0.113399
O5	O	1.516886	0.002813	0.113575
O6	O	1.322825	0.196859	0.113569
O7	O	1.694022	0.179967	0.113589
Zn8	Zn	1.508421	0.188413	0.149617
Zn9	Zn	1.508440	0.188414	-0.149441
O10	O	1.499961	0.374013	0.113583
C11	C	1.515622	-0.044719	0.000079
C12	C	1.511817	-0.186350	0.000067
C13	C	1.275301	0.195584	0.000075
C14	C	1.133672	0.191767	0.000067
C15	C	1.630822	-0.284024	0.000085
C16	C	1.567944	-0.361384	-0.111828
C17	C	1.567902	-0.361349	0.111958
C18	C	1.448989	-0.261845	-0.111940
C19	C	1.448965	-0.261804	0.111947
C20	C	1.386000	-0.339115	0.000006
C21	C	1.065542	0.068301	0.000077
C22	C	0.973418	0.126625	-0.111833
C23	C	0.973437	0.126654	0.111954
C24	C	1.043412	0.250142	-0.111935
C25	C	1.043441	0.250154	0.111952
C26	C	0.951344	0.308568	0.000015
C27	C	1.741561	0.181243	0.000098
C28	C	1.883190	0.185060	0.000097
C29	C	1.501240	0.421545	0.000094
C30	C	1.505044	0.563176	0.000097
N31	N	1.508417	0.188412	0.353717
N32	N	1.508454	0.188405	-0.353541
C33	C	1.589898	0.106578	0.421496
C34	C	1.589919	0.106573	0.578659
H35	H	1.734335	-0.259347	-0.000023
H36	H	1.618187	-0.404879	-0.206440
H37	H	0.942414	0.074384	-0.206449
H38	H	1.398766	-0.218286	0.206562
H39	H	0.942458	0.074390	0.206565
O40	O	1.425401	0.272052	0.576793
C41	C	1.494728	0.351154	0.494160
H42	H	1.593983	0.301040	0.472875
H43	H	1.504472	0.445511	0.549150
C44	C	1.301313	0.439348	0.384508
C45	C	1.423215	0.377792	0.358356
H46	H	1.257199	0.455785	0.300740
H47	H	1.254604	0.386059	0.440182
H48	H	1.309450	0.517971	0.430337
H49	H	1.415077	0.299164	0.312544
H50	H	1.469921	0.431069	0.302671
O51	O	1.673306	0.023049	0.352110
C52	C	1.799874	0.044682	0.386919
H53	H	1.800360	0.093765	0.490692
H54	H	1.840012	0.108502	0.306526
C55	C	1.882653	-0.144485	0.265907
C56	C	1.883252	-0.084210	0.393368
H57	H	1.934087	-0.223990	0.269879
H58	H	1.797383	-0.159058	0.242450
H59	H	1.916099	-0.091289	0.198926
H60	H	1.849792	-0.137399	0.460343
H61	H	1.968519	-0.069649	0.416837
O62	O	1.425154	0.271819	0.423435
C63	C	1.345692	0.202896	0.506071
H64	H	1.395348	0.103440	0.527323
H65	H	1.251236	0.193627	0.451100
C66	C	1.258424	0.396631	0.615784
C67	C	1.319417	0.274481	0.641896
H68	H	1.242210	0.440789	0.699565
H69	H	1.311954	0.443067	0.560108
H70	H	1.179717	0.388890	0.569972
H71	H	1.398129	0.282224	0.687692
H72	H	1.265898	0.228048	0.697584
H73	H	1.618158	-0.404821	0.206570
H74	H	1.659683	0.036516	0.636946
H75	H	1.282408	-0.363546	-0.000060
O76	O	1.389325	-0.210167	-0.225057
C77	C	1.476774	-0.146011	-0.302508
H78	H	1.578669	-0.186697	-0.277125
H79	H	1.464565	-0.039465	-0.277205
C80	C	1.325997	-0.114923	-0.486757
C81	C	1.451146	-0.164903	-0.455589
H82	H	1.310187	-0.126570	-0.581185
H83	H	1.267079	-0.158142	-0.434576
H84	H	1.315839	-0.026139	-0.465661
H85	H	1.461298	-0.253688	-0.476669
H86	H	1.510066	-0.121699	-0.507778
H87	H	1.115241	-0.033196	-0.000065
O88	O	0.892417	0.429798	-0.000290
C89	C	0.928129	0.494405	-0.118423
H90	H	0.960734	0.421476	-0.200526
H91	H	1.009895	0.554540	-0.092793
C92	C	0.772598	0.671834	-0.070339
C93	C	0.812634	0.582261	-0.171183
H94	H	0.701359	0.726032	-0.102882
H95	H	0.748541	0.628310	0.009253
H96	H	0.840747	0.721933	-0.048990
H97	H	0.744492	0.532153	-0.192518
H98	H	0.836677	0.625778	-0.250780
H99	H	1.074241	0.302343	-0.206653
O100	O	1.080307	0.312595	0.224789
C101	C	1.019841	0.438532	0.225751
H102	H	0.929126	0.442904	0.161185
H103	H	1.087640	0.506715	0.181801
C104	C	1.096162	0.472720	0.452690
C105	C	0.984738	0.478087	0.373398
H106	H	1.074513	0.497124	0.543765
H107	H	1.136904	0.387876	0.452041
H108	H	1.152651	0.529539	0.416049
H109	H	0.928259	0.421258	0.410029
H110	H	0.943986	0.562923	0.374057
