data_functionalizedCrystal
_audit_creation_method	'MofGen! by Chris Wilmer'
_symmetry_space_group_name_H-M	'P1'
_symmetry_Int_Tables_number	1
_symmetry_cell_setting	triclinic
loop_
_symmetry_equiv_pos_as_xyz
  x,y,z
_cell_length_a	13.897448
_cell_length_b	13.897449
_cell_length_c	19.805399
_cell_angle_alpha	90.022808
_cell_angle_beta	89.974981
_cell_angle_gamma	89.982380
loop_
_atom_site_label
_atom_site_type_symbol
_atom_site_fract_x
_atom_site_fract_y
_atom_site_fract_z
Zn1	Zn	-0.384039	-1.474672	-0.382790
Zn2	Zn	0.115961	-0.974672	0.117210
Zn3	Zn	-0.545345	-1.474575	-0.269607
Zn4	Zn	-0.045345	-0.974575	0.230393
Zn5	Zn	-0.384065	-1.313370	-0.269608
Zn6	Zn	0.115935	-0.813370	0.230392
Zn7	Zn	-0.545294	-1.313342	-0.382747
Zn8	Zn	-0.045294	-0.813342	0.117253
O9	O	-0.464686	-1.393990	-0.326188
O10	O	0.035314	-0.893990	0.173812
O11	O	-0.405447	-1.609640	-0.367793
O12	O	0.094553	-1.109640	0.132207
O13	O	-0.523984	-1.453162	-0.174891
O14	O	-0.023984	-0.953162	0.325109
O15	O	-0.249080	-1.334819	-0.284641
O16	O	0.250920	-0.834819	0.215359
O17	O	-0.523958	-1.609569	-0.284638
O18	O	-0.023958	-1.109569	0.215362
O19	O	-0.249061	-1.453327	-0.367795
O20	O	0.250939	-0.953327	0.132205
O21	O	-0.405492	-1.334725	-0.174892
O22	O	0.094508	-0.834725	0.325108
O23	O	-0.405442	-1.178385	-0.284599
O24	O	0.094558	-0.678385	0.215401
O25	O	-0.523870	-1.334772	-0.477470
O26	O	-0.023870	-0.834772	0.022530
O27	O	-0.523896	-1.178364	-0.367722
O28	O	-0.023896	-0.678364	0.132278
O29	O	-0.405397	-1.453300	-0.477501
O30	O	0.094603	-0.953300	0.022499
O31	O	-0.680320	-1.453135	-0.284597
O32	O	-0.180320	-0.953135	0.215403
O33	O	-0.680282	-1.334678	-0.367720
O34	O	-0.180282	-0.834678	0.132280
C35	C	-0.464667	-1.143375	-0.326156
C36	C	0.035333	-0.643375	0.173844
C37	C	-0.464682	-1.036161	-0.326159
C38	C	0.035318	-0.536161	0.173841
C39	C	-0.464684	-0.949092	-0.326167
C40	C	0.035316	-0.449092	0.173833
C41	C	-0.464689	-0.839859	-0.326184
C42	C	0.035311	-0.339859	0.173816
C43	C	-0.715300	-1.393919	-0.326169
C44	C	-0.215300	-0.893919	0.173831
C45	C	-0.822514	-1.393977	-0.326183
C46	C	-0.322514	-0.893977	0.173817
C47	C	-1.018809	-1.394079	-0.326225
C48	C	-0.518809	-0.894079	0.173775
C49	C	-0.909577	-1.394020	-0.326204
C50	C	-0.409577	-0.894020	0.173796
C51	C	-0.213093	-1.394087	-0.326223
C52	C	0.286907	-0.894087	0.173777
C53	C	-0.105879	-1.394128	-0.326237
C54	C	0.394121	-0.894128	0.173763
C55	C	-0.464625	-1.394044	-0.502731
C56	C	0.035375	-0.894044	-0.002731
C57	C	-0.464599	-1.394067	-0.577963
C58	C	0.035401	-0.894067	-0.077963
C59	C	-0.464701	-0.645583	-0.326212
C60	C	0.035299	-0.145583	0.173788
C61	C	-0.464698	-0.752797	-0.326202
C62	C	0.035302	-0.252797	0.173798
C63	C	-0.402907	-1.455786	-0.613325
C64	C	0.097093	-0.955786	-0.113325
C65	C	-0.402879	-1.455796	-0.684013
C66	C	0.097121	-0.955796	-0.184013
C67	C	-0.464549	-1.394091	-0.719339
C68	C	0.035451	-0.894091	-0.219339
C69	C	-0.526243	-1.332365	-0.683972
C70	C	-0.026243	-0.832365	-0.183972
C71	C	-0.526266	-1.332351	-0.613285
C72	C	-0.026266	-0.832351	-0.113285
C73	C	-0.526154	-1.332420	-0.969046
C74	C	-0.026154	-0.832420	-0.469046
C75	C	-0.526128	-1.332440	-1.039738
C76	C	-0.026128	-0.832440	-0.539738
C77	C	-0.402767	-1.455864	-1.039774
C78	C	0.097233	-0.955864	-0.539774
C79	C	-0.402789	-1.455850	-0.969087
C80	C	0.097211	-0.955850	-0.469087
C81	C	-0.464480	-1.394121	-0.933726
C82	C	0.035520	-0.894121	-0.433726
C83	C	-0.464508	-1.394110	-0.857078
C84	C	0.035492	-0.894110	-0.357078
C85	C	-0.464526	-1.394106	-0.795986
C86	C	0.035474	-0.894106	-0.295986
C87	C	-0.464677	-1.393991	-0.150332
C88	C	0.035323	-0.893991	0.349668
C89	C	-0.464431	-1.394155	-0.075101
C90	C	0.035569	-0.894155	0.424899
H91	H	-0.352692	-1.506036	-0.584568
H92	H	0.147308	-1.006036	-0.084568
Br93	Br	-0.609830	-1.248694	-1.087680
Br94	Br	-0.109830	-0.748694	-0.587680
Br95	Br	-0.319196	-1.539605	-0.732002
Br96	Br	0.180804	-1.039605	-0.232002
Br97	Br	-0.319097	-1.539600	-0.921148
Br98	Br	0.180903	-1.039600	-0.421148
H99	H	-0.576492	-1.282084	-0.584494
H100	H	-0.076492	-0.782084	-0.084494
H101	H	-0.576400	-1.282170	-0.940264
H102	H	-0.076400	-0.782170	-0.440264
H103	H	-0.576452	-1.282121	-0.712740
H104	H	-0.076452	-0.782121	-0.212740
H105	H	-0.352532	-1.506123	-1.068573
H106	H	0.147468	-1.006123	-0.568573
