data_functionalizedCrystal
_audit_creation_method	'MofGen! by Chris Wilmer'
_symmetry_space_group_name_H-M	'P1'
_symmetry_Int_Tables_number	1
_symmetry_cell_setting	triclinic
loop_
_symmetry_equiv_pos_as_xyz
  x,y,z
_cell_length_a	9.065215
_cell_length_b	27.732064
_cell_length_c	8.140239
_cell_angle_alpha	90.000591
_cell_angle_beta	89.997810
_cell_angle_gamma	83.832060
loop_
_atom_site_label
_atom_site_type_symbol
_atom_site_fract_x
_atom_site_fract_y
_atom_site_fract_z
O1	O	1.955907	0.070859	-0.136577
O2	O	1.526253	0.076674	-0.136583
O3	O	1.754411	0.003461	-0.136586
O4	O	1.727749	0.144072	-0.136574
O5	O	1.754399	0.003460	0.136641
O6	O	1.526241	0.076673	0.136644
O7	O	1.955895	0.070858	0.136650
Zn8	Zn	1.741066	0.073765	0.180028
Zn9	Zn	1.741082	0.073767	-0.179961
O10	O	1.727736	0.144071	0.136653
C11	C	1.471296	0.076115	0.000029
C12	C	1.307558	0.074445	0.000026
C13	C	1.753842	-0.014550	0.000022
C14	C	1.752145	-0.068216	0.000007
C15	C	1.605765	-0.446287	-0.000002
C16	C	1.612009	-0.244584	-0.000004
O17	O	1.498423	-0.214107	-0.000071
N18	N	1.747303	-0.224534	-0.000002
C19	C	1.881045	-0.254913	-0.000011
O20	O	1.996264	-0.233230	-0.000026
C21	C	1.874799	-0.456614	-0.000020
C22	C	1.739497	-0.476662	-0.000006
C23	C	1.470473	-0.466335	0.000011
C24	C	1.468914	-0.516758	0.000021
C25	C	1.602646	-0.547133	0.000017
C26	C	1.737937	-0.527085	0.000004
C27	C	2.008540	-0.486992	-0.000041
C28	C	2.006966	-0.537420	-0.000047
C29	C	1.871664	-0.557468	-0.000032
C30	C	1.870109	-0.607882	0.000010
N31	N	1.734816	-0.627933	0.000008
C32	C	1.601084	-0.597558	0.000012
C33	C	1.884315	-0.149016	-0.000002
C34	C	1.885877	-0.098591	0.000003
C35	C	1.616840	-0.088266	0.000007
C36	C	1.615280	-0.138692	0.000013
C37	C	1.749021	-0.169066	-0.000004
C38	C	1.597819	-0.703450	0.000033
C39	C	1.596271	-0.753877	0.000049
C40	C	1.865306	-0.764198	0.000037
C41	C	1.866855	-0.713775	0.000029
C42	C	1.733099	-0.683401	0.000022
O43	O	1.983635	-0.638389	0.000058
O44	O	1.485882	-0.619250	-0.000009
C45	C	1.607325	-0.395864	-0.000011
C46	C	1.742616	-0.375817	-0.000024
C47	C	1.876348	-0.406191	-0.000028
C48	C	1.744178	-0.325391	-0.000019
C49	C	1.610446	-0.295017	-0.000015
C50	C	1.475152	-0.315067	-0.000017
C51	C	1.473593	-0.365490	-0.000008
C52	C	2.011642	-0.386141	-0.000026
C53	C	2.013190	-0.335718	-0.000034
C54	C	1.879459	-0.305343	-0.000030
C55	C	2.010852	0.071417	0.000034
C56	C	2.174589	0.073087	0.000026
C57	C	1.728306	0.162082	0.000041
C58	C	1.730003	0.215748	0.000046
N59	N	1.741065	0.073764	0.425710
N60	N	1.741094	0.073764	-0.425644
H61	H	1.486087	-0.770197	0.000069
F62	F	1.332825	-0.282731	-0.000006
F63	F	1.328125	-0.434015	0.000010
F64	F	2.157209	-0.314388	-0.000047
F65	F	2.026671	-0.181337	-0.000013
F66	F	1.455460	-0.671131	0.000026
F67	F	2.153986	-0.418462	-0.000028
F68	F	1.474512	-0.055930	0.000013
F69	F	1.324905	-0.538087	0.000022
F70	F	2.152550	-0.465667	-0.000086
H71	H	1.505105	-0.155011	0.000032
F72	F	1.329584	-0.386819	0.000005
F73	F	2.029884	-0.077260	0.000011
F74	F	2.149317	-0.569744	-0.000072
F75	F	2.010858	-0.692438	0.000066
F76	F	2.007626	-0.796533	0.000045
