data_functionalizedCrystal
_audit_creation_method	'MofGen! by Chris Wilmer'
_symmetry_space_group_name_H-M	'P1'
_symmetry_Int_Tables_number	1
_symmetry_cell_setting	triclinic
loop_
_symmetry_equiv_pos_as_xyz
  x,y,z
_cell_length_a	11.169417
_cell_length_b	16.625545
_cell_length_c	11.169409
_cell_angle_alpha	90.036134
_cell_angle_beta	90.019513
_cell_angle_gamma	90.026807
loop_
_atom_site_label
_atom_site_type_symbol
_atom_site_fract_x
_atom_site_fract_y
_atom_site_fract_z
Zn1	Zn	1.834835	-0.320909	0.678501
Zn2	Zn	1.834671	-0.455771	0.477805
Zn3	Zn	1.634121	-0.320959	0.477837
Zn4	Zn	1.634076	-0.455707	0.678451
O5	O	1.734426	-0.388337	0.578148
O6	O	2.002763	-0.338805	0.651886
O7	O	1.808019	-0.437936	0.309859
O8	O	1.660834	-0.208120	0.504490
O9	O	2.002643	-0.437888	0.504435
O10	O	1.808298	-0.208084	0.651917
O11	O	1.660675	-0.338891	0.309882
O12	O	1.466166	-0.338828	0.504441
O13	O	1.660756	-0.437778	0.846407
O14	O	1.466132	-0.437826	0.651831
O15	O	1.808254	-0.338743	0.846444
O16	O	1.807974	-0.568595	0.504386
O17	O	1.660597	-0.568548	0.651800
C18	C	1.422601	-0.388326	0.578135
C19	C	1.289201	-0.388341	0.578157
C20	C	1.734296	-0.597828	0.578110
C21	C	1.734350	-0.687449	0.578134
C22	C	1.734396	-0.760231	0.578158
C23	C	1.734466	-0.851540	0.578185
C24	C	1.734528	-0.924316	0.578200
C25	C	1.734597	-1.015630	0.578225
C26	C	2.047468	-0.388348	0.578163
C27	C	2.180868	-0.388353	0.578169
C28	C	1.734518	-0.388247	0.891191
C29	C	1.734557	-0.388209	1.024591
C30	C	1.734590	-0.178028	0.578212
C31	C	1.734659	-0.088407	0.578240
C32	C	1.734403	-0.388368	0.266323
C33	C	1.734596	-0.388179	0.132924
