data_functionalizedCrystal
_audit_creation_method	'MofGen! by Chris Wilmer'
_symmetry_space_group_name_H-M	'P1'
_symmetry_Int_Tables_number	1
_symmetry_cell_setting	triclinic
loop_
_symmetry_equiv_pos_as_xyz
  x,y,z
_cell_length_a	21.395362
_cell_length_b	21.395364
_cell_length_c	21.395355
_cell_angle_alpha	89.974323
_cell_angle_beta	90.020549
_cell_angle_gamma	89.976177
loop_
_atom_site_label
_atom_site_type_symbol
_atom_site_fract_x
_atom_site_fract_y
_atom_site_fract_z
Zn1	Zn	-0.249611	-0.957863	0.354271
Zn2	Zn	0.083722	-0.624530	0.687605
Zn3	Zn	0.417056	-0.291196	1.020938
Zn4	Zn	-0.354371	-0.957767	0.249490
Zn5	Zn	-0.021037	-0.624434	0.582823
Zn6	Zn	0.312296	-0.291100	0.916157
Zn7	Zn	-0.249600	-0.853078	0.249506
Zn8	Zn	0.083733	-0.519745	0.582839
Zn9	Zn	0.417067	-0.186411	0.916173
Zn10	Zn	-0.354344	-0.853049	0.354228
Zn11	Zn	-0.021010	-0.519716	0.687562
Zn12	Zn	0.312323	-0.186382	1.020895
O13	O	-0.301981	-0.905439	0.301874
O14	O	0.031352	-0.572106	0.635207
O15	O	0.364685	-0.238773	0.968541
O16	O	-0.263523	-1.045528	0.340383
O17	O	0.069810	-0.712195	0.673717
O18	O	0.403143	-0.378861	1.007050
O19	O	-0.340479	-0.943852	0.161814
O20	O	-0.007146	-0.610519	0.495148
O21	O	0.326187	-0.277185	0.828481
O22	O	-0.161924	-0.867030	0.263428
O23	O	0.171410	-0.533697	0.596761
O24	O	0.504743	-0.200364	0.930095
O25	O	-0.340490	-1.045458	0.263401
O26	O	-0.007157	-0.712124	0.596734
O27	O	0.326177	-0.378791	0.930068
O28	O	-0.161932	-0.944015	0.340399
O29	O	0.171402	-0.610682	0.673732
O30	O	0.504735	-0.277349	1.007065
O31	O	-0.263505	-0.866937	0.161826
O32	O	0.069828	-0.533604	0.495159
O33	O	0.403162	-0.200271	0.828493
O34	O	-0.263479	-0.765396	0.263386
O35	O	0.069855	-0.432063	0.596720
O36	O	0.403188	-0.098730	0.930053
O37	O	-0.340444	-0.866981	0.441912
O38	O	-0.007110	-0.533647	0.775245
O39	O	0.326223	-0.200314	1.108579
O40	O	-0.340433	-0.765375	0.340325
O41	O	-0.007100	-0.432042	0.673659
O42	O	0.326233	-0.098708	1.006992
O43	O	-0.263497	-0.943987	0.441944
O44	O	0.069836	-0.610654	0.775277
O45	O	0.403170	-0.277320	1.108610
O46	O	-0.442045	-0.943824	0.263359
O47	O	-0.108712	-0.610490	0.596693
O48	O	0.224622	-0.277157	0.930026
O49	O	-0.442025	-0.866888	0.340310
O50	O	-0.108692	-0.533554	0.673643
O51	O	0.224642	-0.200221	1.006977
C52	C	-0.301952	-0.742652	0.301853
C53	C	0.031381	-0.409318	0.635186
C54	C	0.364714	-0.075985	0.968520
C55	C	-0.301955	-0.673010	0.301859
C56	C	0.031378	-0.339677	0.635192
C57	C	0.364712	-0.006344	0.968526
C58	C	-0.464769	-0.905359	0.301842
C59	C	-0.131436	-0.572026	0.635175
C60	C	0.201898	-0.238692	0.968508
C61	C	-0.534410	-0.905382	0.301849
C62	C	-0.201077	-0.572049	0.635182
C63	C	0.132256	-0.238716	0.968516
C64	C	-0.261977	-0.171250	0.342018
C65	C	0.071356	0.162083	0.675351
C66	C	0.404689	0.495416	1.008685
C67	C	-0.261975	-0.236686	0.342019
C68	C	0.071359	0.096648	0.675352
C69	C	0.404692	0.429981	1.008686
C70	C	-0.301981	-0.269372	0.301875
C71	C	0.031352	0.063961	0.635208
C72	C	0.364685	0.397295	0.968542
C73	C	-0.342005	-0.236618	0.261738
C74	C	-0.008672	0.096716	0.595072
C75	C	0.324662	0.430049	0.928405
C76	C	-0.342011	-0.171184	0.261743
C77	C	-0.008678	0.162150	0.595076
C78	C	0.324656	0.495483	0.928409
C79	C	-0.306836	-0.373009	0.245410
C80	C	0.026497	-0.039675	0.578743
C81	C	0.359831	0.293658	0.912076
C82	C	-0.306826	-0.438442	0.245404
C83	C	0.026508	-0.105108	0.578738
C84	C	0.359841	0.228225	0.912071
C85	C	-0.301966	-0.471193	0.301862
C86	C	0.031367	-0.137859	0.635195
C87	C	0.364700	0.195474	0.968529
C88	C	-0.297104	-0.438503	0.358327
C89	C	0.036229	-0.105170	0.691660
C90	C	0.369562	0.228164	1.024993
C91	C	-0.297110	-0.373069	0.358331
C92	C	0.036223	-0.039736	0.691664
C93	C	0.369556	0.293598	1.024998
C94	C	-0.301980	-0.340324	0.301866
C95	C	0.031354	-0.006991	0.635199
C96	C	0.364687	0.326342	0.968533
C97	C	-0.261945	-0.574892	0.342000
C98	C	0.071388	-0.241559	0.675334
C99	C	0.404721	0.091775	1.008667
C100	C	-0.261947	-0.640328	0.342003
C101	C	0.071386	-0.306995	0.675336
C102	C	0.404719	0.026338	1.008669
C103	C	-0.341974	-0.640259	0.261716
C104	C	-0.008641	-0.306926	0.595050
C105	C	0.324692	0.026407	0.928383
C106	C	-0.341976	-0.574824	0.261720
C107	C	-0.008643	-0.241491	0.595053
C108	C	0.324691	0.091843	0.928386
C109	C	-0.301958	-0.542144	0.301861
C110	C	0.031375	-0.208811	0.635194
C111	C	0.364709	0.124523	0.968528
C112	C	-0.567071	-0.945445	0.341956
C113	C	-0.233737	-0.612112	0.675289
C114	C	0.099596	-0.278779	1.008623
C115	C	-0.632506	-0.945467	0.341971
C116	C	-0.299173	-0.612134	0.675305
C117	C	0.034161	-0.278801	1.008638
C118	C	-0.665278	-0.905433	0.301868
C119	C	-0.331945	-0.572099	0.635202
C120	C	0.001388	-0.238766	0.968535
C121	C	-0.632610	-0.865362	0.261758
C122	C	-0.299277	-0.532029	0.595092
C123	C	0.034056	-0.198695	0.928425
C124	C	-0.567176	-0.865337	0.261749
C125	C	-0.233843	-0.532003	0.595082
C126	C	0.099491	-0.198670	0.928415
C127	C	-0.768978	-0.900556	0.245430
C128	C	-0.435645	-0.567222	0.578763
C129	C	-0.102312	-0.233889	0.912096
C130	C	-0.834411	-0.900585	0.245438
C131	C	-0.501078	-0.567252	0.578772
C132	C	-0.167745	-0.233919	0.912105
C133	C	-0.867099	-0.905507	0.301899
C134	C	-0.533766	-0.572174	0.635232
C135	C	-0.200433	-0.238841	0.968565
C136	C	-0.834346	-0.910412	0.358352
C137	C	-0.501013	-0.577079	0.691686
C138	C	-0.167680	-0.243746	1.025019
C139	C	-0.768912	-0.910387	0.358343
C140	C	-0.435579	-0.577054	0.691676
C141	C	-0.102245	-0.243720	1.025009
C142	C	-0.736231	-0.905455	0.301875
C143	C	-0.402898	-0.572122	0.635208
C144	C	-0.069564	-0.238789	0.968541
C145	C	-0.970712	-0.945596	0.342026
C146	C	-0.637379	-0.612263	0.675359
C147	C	-0.304045	-0.278930	1.008693
C148	C	-1.036149	-0.945614	0.342042
C149	C	-0.702815	-0.612281	0.675376
C150	C	-0.369482	-0.278947	1.008709
C151	C	-1.036252	-0.865512	0.261824
C152	C	-0.702918	-0.532178	0.595157
C153	C	-0.369585	-0.198845	0.928490
C154	C	-0.970816	-0.865491	0.261813
C155	C	-0.637483	-0.532158	0.595146
C156	C	-0.304150	-0.198824	0.928479
C157	C	-0.938050	-0.905537	0.301913
C158	C	-0.604717	-0.572203	0.635246
C159	C	-0.271384	-0.238870	0.968580
C160	C	-0.138558	-0.905537	0.301920
C161	C	0.194775	-0.572203	0.635253
C162	C	0.528109	-0.238870	0.968587
C163	C	-0.068917	-0.905578	0.301939
C164	C	0.264417	-0.572245	0.635273
C165	C	0.597750	-0.238912	0.968606
C166	C	-0.301969	-0.905491	0.465297
C167	C	0.031365	-0.572158	0.798631
C168	C	0.364698	-0.238825	1.131964
C169	C	-0.301963	-0.905513	0.534939
C170	C	0.031370	-0.572180	0.868272
C171	C	0.364703	-0.238847	1.201605
C172	C	-0.302003	-0.068862	0.301890
C173	C	0.031330	0.264471	0.635223
C174	C	0.364663	0.597804	0.968557
C175	C	-0.301993	-0.138504	0.301884
C176	C	0.031340	0.194830	0.635217
C177	C	0.364673	0.528163	0.968551
C178	C	-0.301949	-0.905423	0.139086
C179	C	0.031385	-0.572090	0.472420
C180	C	0.364718	-0.238757	0.805753
C181	C	-0.301778	-0.905523	0.069445
C182	C	0.031556	-0.572189	0.402779
C183	C	0.364889	-0.238856	0.736112
C184	C	-0.261895	-0.945609	0.567669
C185	C	0.071438	-0.612276	0.901002
C186	C	0.404771	-0.278942	1.234336
C187	C	-0.261868	-0.945608	0.633105
C188	C	0.071465	-0.612275	0.966438
C189	C	0.404798	-0.278941	1.299771
C190	C	-0.301921	-0.905518	0.665807
C191	C	0.031413	-0.572185	0.999140
C192	C	0.364746	-0.238852	1.332474
C193	C	-0.341991	-0.865415	0.633068
C194	C	-0.008658	-0.532082	0.966402
C195	C	0.324675	-0.198748	1.299735
C196	C	-0.342013	-0.865413	0.567634
C197	C	-0.008679	-0.532079	0.900968
C198	C	0.324654	-0.198746	1.234301
C199	C	-0.358335	-0.900543	0.769470
C200	C	-0.025002	-0.567210	1.102804
C201	C	0.308331	-0.233877	1.436137
C202	C	-0.358315	-0.900550	0.834903
C203	C	-0.024982	-0.567217	1.168237
C204	C	0.308352	-0.233883	1.501570
C205	C	-0.301854	-0.905522	0.867628
C206	C	0.031479	-0.572189	1.200961
C207	C	0.364812	-0.238856	1.534294
C208	C	-0.245412	-0.910501	0.834911
C209	C	0.087921	-0.577167	1.168245
C210	C	0.421254	-0.243834	1.501578
C211	C	-0.245434	-0.910498	0.769477
C212	C	0.087900	-0.577165	1.102810
C213	C	0.421233	-0.243831	1.436144
C214	C	-0.301902	-0.905516	0.736759
C215	C	0.031432	-0.572183	1.070093
C216	C	0.364765	-0.238850	1.403426
C217	C	-0.261754	-0.945619	0.971311
C218	C	0.071579	-0.612286	1.304644
C219	C	0.404913	-0.278952	1.637978
C220	C	-0.261726	-0.945614	1.036748
C221	C	0.071607	-0.612280	1.370081
C222	C	0.404941	-0.278947	1.703414
C223	C	-0.341854	-0.865424	1.036710
C224	C	-0.008521	-0.532090	1.370044
C225	C	0.324812	-0.198757	1.703377
C226	C	-0.341877	-0.865426	0.971275
C227	C	-0.008543	-0.532092	1.304608
C228	C	0.324790	-0.198759	1.637941
C229	C	-0.301827	-0.905527	0.938579
C230	C	0.031506	-0.572193	1.271912
C231	C	0.364839	-0.238860	1.605246
H232	H	-0.229386	-0.263353	0.374700
H233	H	0.103947	0.069980	0.708034
H234	H	0.437281	0.403314	1.041367
O235	O	-0.218643	-0.988842	0.668426
O236	O	0.114690	-0.655509	1.001759
O237	O	0.448023	-0.322176	1.335092
H238	H	-0.246680	-1.020696	0.698260
H239	H	0.086653	-0.687363	1.031593
H240	H	0.419987	-0.354030	1.364926
H241	H	-0.199476	-0.914550	0.742842
H242	H	0.133857	-0.581217	1.076175
H243	H	0.467190	-0.247883	1.409508
H244	H	-0.229283	-0.978262	0.541052
H245	H	0.104050	-0.644928	0.874386
H246	H	0.437383	-0.311595	1.207719
H247	H	-0.540394	-0.978051	0.374610
H248	H	-0.207061	-0.644718	0.707943
H249	H	0.126272	-0.311385	1.041276
O250	O	-0.184506	-0.915847	0.870195
O251	O	0.148827	-0.582514	1.203528
O252	O	0.482160	-0.249180	1.536861
H253	H	-0.193969	-0.914999	0.921191
H254	H	0.139364	-0.581666	1.254525
H255	H	0.472697	-0.248332	1.587858
O256	O	-0.218554	-0.988860	0.936039
O257	O	0.114779	-0.655527	1.269372
O258	O	0.448113	-0.322193	1.602705
H259	H	-0.190679	-1.016734	0.969795
H260	H	0.142655	-0.683401	1.303128
H261	H	0.475988	-0.350068	1.636461
O262	O	-1.071375	-0.988828	0.385306
O263	O	-0.738042	-0.655495	0.718639
O264	O	-0.404709	-0.322161	1.051972
H265	H	-1.101186	-0.960781	0.417168
H266	H	-0.767852	-0.627448	0.750502
H267	H	-0.434519	-0.294114	1.083835
O268	O	-0.869594	-0.915720	0.419255
O269	O	-0.536260	-0.582387	0.752588
O270	O	-0.202927	-0.249054	1.085921
H271	H	-0.857042	-0.875864	0.449979
H272	H	-0.523709	-0.542530	0.783312
H273	H	-0.190376	-0.209197	1.116645
O274	O	-0.869734	-0.895300	0.184552
O275	O	-0.536401	-0.561967	0.517885
O276	O	-0.203068	-0.228633	0.851218
H277	H	-0.899586	-0.852871	0.185514
H278	H	-0.566253	-0.519537	0.518848
H279	H	-0.232919	-0.186204	0.852181
O280	O	-0.935591	-0.822285	0.218543
O281	O	-0.602258	-0.488952	0.551876
O282	O	-0.268924	-0.155618	0.885209
H283	H	-0.905793	-0.790376	0.246548
H284	H	-0.572460	-0.457043	0.579881
H285	H	-0.239127	-0.123710	0.913214
H286	H	-0.229094	-0.978263	1.063396
H287	H	0.104239	-0.644930	1.396729
H288	H	0.437572	-0.311597	1.730062
H289	H	-0.404301	-0.896327	0.742832
H290	H	-0.070967	-0.562993	1.076165
H291	H	0.262366	-0.229660	1.409498
H292	H	-0.374600	-0.832772	0.659699
H293	H	-0.041267	-0.499438	0.993032
H294	H	0.292067	-0.166105	1.326366
O295	O	-0.218821	-0.136001	0.385314
O296	O	0.114513	0.197332	0.718647
O297	O	0.447846	0.530666	1.051981
H298	H	-0.190997	-0.169770	0.413225
H299	H	0.142336	0.163564	0.746559
H300	H	0.475669	0.496897	1.079892
H301	H	-0.374640	-0.832759	0.540985
H302	H	-0.041306	-0.499426	0.874319
H303	H	0.292027	-0.166092	1.207652
O304	O	-0.385055	-0.822181	1.071971
O305	O	-0.051722	-0.488848	1.405304
O306	O	0.281612	-0.155515	1.738638
H307	H	-0.378311	-0.828920	1.122971
H308	H	-0.044978	-0.495587	1.456305
H309	H	0.288355	-0.162253	1.789638
O310	O	-0.385076	-0.822163	0.935966
O311	O	-0.051743	-0.488830	1.269299
O312	O	0.281591	-0.155496	1.602632
H313	H	-0.412918	-0.794280	0.969697
H314	H	-0.079585	-0.460947	1.303030
H315	H	0.253748	-0.127613	1.636363
O316	O	-0.385132	-0.539499	0.218427
O317	O	-0.051799	-0.206165	0.551761
O318	O	0.281535	0.127168	0.885094
H319	H	-0.357044	-0.509677	0.186607
H320	H	-0.023710	-0.176343	0.519941
H321	H	0.309623	0.156990	0.853274
O322	O	-0.291869	-0.337808	0.419226
O323	O	0.041464	-0.004474	0.752559
O324	O	0.374798	0.328859	1.085893
H325	H	-0.288491	-0.371569	0.458487
H326	H	0.044842	-0.038236	0.791820
H327	H	0.378176	0.295097	1.125154
O328	O	-0.291868	-0.473815	0.419228
O329	O	0.041465	-0.140482	0.752561
O330	O	0.374798	0.192851	1.085895
H331	H	-0.292690	-0.524808	0.409743
H332	H	0.040643	-0.191474	0.743076
H333	H	0.373977	0.141859	1.076409
H334	H	-0.374580	-0.263235	0.229055
H335	H	-0.041247	0.070098	0.562388
H336	H	0.292086	0.403432	0.895721
H337	H	-0.404274	-0.896500	0.861536
H338	H	-0.070940	-0.563167	1.194870
H339	H	0.262393	-0.229834	1.528203
H340	H	-0.229361	-0.548283	0.374686
H341	H	0.103973	-0.214949	0.708019
H342	H	0.437306	0.118384	1.041352
H343	H	-0.374554	-0.666872	0.229035
H344	H	-0.041220	-0.333539	0.562369
H345	H	0.292113	-0.000205	0.895702
O346	O	-0.218778	-0.675648	0.385289
O347	O	0.114555	-0.342315	0.718622
O348	O	0.447888	-0.008982	1.051956
H349	H	-0.229583	-0.663105	0.434446
H350	H	0.103750	-0.329772	0.767779
H351	H	0.437084	0.003561	1.101113
O352	O	-0.312072	-0.473699	0.184508
O353	O	0.021261	-0.140366	0.517841
O354	O	0.354594	0.192967	0.851175
H355	H	-0.315466	-0.439934	0.145251
H356	H	0.017867	-0.106601	0.478585
H357	H	0.351201	0.226732	0.811918
O358	O	-0.312073	-0.337685	0.184513
O359	O	0.021260	-0.004352	0.517846
O360	O	0.354594	0.328982	0.851179
H361	H	-0.315441	-0.371407	0.145249
H362	H	0.017892	-0.038074	0.478583
H363	H	0.351226	0.295259	0.811916
H364	H	-0.742246	-0.914379	0.404308
H365	H	-0.408913	-0.581046	0.737642
H366	H	-0.075579	-0.247713	1.070975
O367	O	-0.385165	-0.135858	0.218447
O368	O	-0.051832	0.197476	0.551780
O369	O	0.281501	0.530809	0.885113
H370	H	-0.412982	-0.169577	0.190528
H371	H	-0.079649	0.163757	0.523861
H372	H	0.253684	0.497090	0.857195
O373	O	-1.071588	-0.822333	0.218564
O374	O	-0.738255	-0.488999	0.551898
O375	O	-0.404922	-0.155666	0.885231
H376	H	-1.122577	-0.829083	0.225305
H377	H	-0.789243	-0.495750	0.558638
H378	H	-0.455910	-0.162417	0.891972
H379	H	-0.944033	-0.978202	0.374680
H380	H	-0.610700	-0.644869	0.708013
H381	H	-0.277366	-0.311535	1.041347
O382	O	-0.667748	-0.988680	0.385229
O383	O	-0.334414	-0.655346	0.718562
O384	O	-0.001081	-0.322013	1.051895
H385	H	-0.655161	-1.037854	0.374520
H386	H	-0.321828	-0.704521	0.707853
H387	H	0.011505	-0.371188	1.041186
O388	O	-0.733723	-0.895251	0.184529
O389	O	-0.400390	-0.561918	0.517863
O390	O	-0.067056	-0.228585	0.851196
H391	H	-0.767489	-0.891856	0.145276
H392	H	-0.434156	-0.558523	0.478610
H393	H	-0.100822	-0.225190	0.811943
H394	H	-0.659298	-0.832764	0.229108
H395	H	-0.325965	-0.499431	0.562441
H396	H	0.007369	-0.166097	0.895774
H397	H	-0.540583	-0.832712	0.229088
H398	H	-0.207250	-0.499378	0.562421
H399	H	0.126083	-0.166045	0.895755
