data_functionalizedCrystal
_audit_creation_method	'MofGen! by Chris Wilmer'
_symmetry_space_group_name_H-M	'P1'
_symmetry_Int_Tables_number	1
_symmetry_cell_setting	triclinic
loop_
_symmetry_equiv_pos_as_xyz
  x,y,z
_cell_length_a	12.759401
_cell_length_b	10.686285
_cell_length_c	12.759393
_cell_angle_alpha	85.603133
_cell_angle_beta	89.981287
_cell_angle_gamma	85.633237
loop_
_atom_site_label
_atom_site_type_symbol
_atom_site_fract_x
_atom_site_fract_y
_atom_site_fract_z
Zn1	Zn	1.638379	-0.502236	-0.562006
Zn2	Zn	1.651780	-0.713275	-0.372873
Zn3	Zn	1.462688	-0.502303	-0.386337
Zn4	Zn	1.476167	-0.713187	-0.548516
O5	O	1.557253	-0.607751	-0.467433
O6	O	1.787178	-0.530240	-0.536928
O7	O	1.626664	-0.685355	-0.227634
O8	O	1.474745	-0.325718	-0.420919
O9	O	1.797024	-0.685289	-0.397973
O10	O	1.603824	-0.325669	-0.549983
O11	O	1.487740	-0.530354	-0.237525
O12	O	1.317455	-0.530269	-0.407839
O13	O	1.497717	-0.685139	-0.697331
O14	O	1.327357	-0.685204	-0.526992
O15	O	1.616893	-0.530154	-0.707242
O16	O	1.639733	-0.889840	-0.384893
O17	O	1.510711	-0.889775	-0.513937
C18	C	1.284285	-0.607735	-0.467413
C19	C	1.167510	-0.607759	-0.467428
C20	C	1.117840	-0.688557	-0.529357
C21	C	1.008116	-0.688561	-0.529377
C22	C	0.997742	-0.526967	-0.405531
C23	C	1.107464	-0.526957	-0.405516
C24	C	0.861112	-0.733838	-0.650352
C25	C	0.811439	-0.814655	-0.712270
C26	C	0.854916	-0.937798	-0.720369
C27	C	0.948064	-0.980148	-0.666531
C28	C	0.997732	-0.899337	-0.604604
C29	C	0.954256	-0.776177	-0.596527
C30	C	1.254470	-0.481693	-0.284540
C31	C	1.304140	-0.400888	-0.222606
C32	C	1.260666	-0.277744	-0.214498
C33	C	1.167514	-0.235398	-0.268316
C34	C	1.117844	-0.316203	-0.330250
C35	C	1.161326	-0.439347	-0.338360
C36	C	1.578168	-0.935592	-0.446513
C37	C	1.587211	-1.075843	-0.437599
C38	C	1.831288	-0.607767	-0.467453
C39	C	1.948065	-0.607774	-0.467462
C40	C	1.557314	-0.607629	-0.741474
C41	C	1.557339	-0.607578	-0.858254
C42	C	1.536286	-0.278629	-0.488457
C43	C	1.527351	-0.138377	-0.497417
C44	C	1.495304	-0.688240	-0.907960
C45	C	1.495339	-0.688194	-1.017687
C46	C	1.619445	-0.526810	-1.027994
C47	C	1.619416	-0.526864	-0.918268
C48	C	1.467319	-0.836930	-1.158140
C49	C	1.405267	-0.917582	-1.207850
C50	C	1.303976	-0.936964	-1.170999
C51	C	1.264716	-0.875676	-1.084441
C52	C	1.326762	-0.795015	-1.034737
C53	C	1.428068	-0.775657	-1.071585
C54	C	1.647425	-0.378126	-0.777813
C55	C	1.709466	-0.297458	-0.728108
C56	C	1.810757	-0.278063	-0.764958
C57	C	1.850012	-0.339328	-0.851521
C58	C	1.787972	-0.419997	-0.901226
C59	C	1.686681	-0.439394	-0.864369
C60	C	1.557248	-0.607780	-0.194464
C61	C	1.557403	-0.607477	-0.077707
H62	H	1.166726	-0.754347	-0.579772
H63	H	1.294795	-0.745112	-0.964266
C64	C	1.449967	-1.066637	-0.574943
C65	C	1.504595	-0.990883	-0.647113
C66	C	1.433346	-0.924782	-0.718555
H67	H	1.400915	-1.015199	-0.538069
H68	H	1.413640	-1.124631	-0.611340
H69	H	1.540905	-0.932895	-0.610719
H70	H	1.553642	-1.042289	-0.684012
H71	H	1.397019	-0.982776	-0.754952
H72	H	1.384298	-0.873351	-0.681671
H73	H	1.470401	-0.873384	-0.767536
C74	C	1.301875	-0.615308	-0.293383
C75	C	1.402983	-0.611809	-0.335651
C76	C	1.446688	-0.734869	-0.343795
H77	H	1.259082	-0.657482	-0.337996
H78	H	1.305747	-0.658980	-0.225612
H79	H	1.399105	-0.568156	-0.403411
H80	H	1.445803	-0.569659	-0.291052
H81	H	1.450561	-0.778541	-0.276025
H82	H	1.403887	-0.777034	-0.388407
H83	H	1.515298	-0.732512	-0.372465
C84	C	1.447820	-0.984362	-1.301729
C85	C	1.449716	-1.114739	-1.278662
C86	C	1.488887	-1.176293	-1.365125
H87	H	1.517056	-0.961439	-1.316632
H88	H	1.403852	-0.960613	-1.361126
H89	H	1.493683	-1.138479	-1.219283
H90	H	1.380492	-1.137699	-1.263771
H91	H	1.444919	-1.152544	-1.424522
H92	H	1.558122	-1.153360	-1.380021
H93	H	1.490170	-1.264759	-1.349489
C94	C	1.664640	-1.147479	-0.360048
C95	C	1.639799	-1.115669	-0.258067
C96	C	1.711094	-1.181658	-0.186608
H97	H	1.733887	-1.125921	-0.376710
H98	H	1.660592	-1.235387	-0.364080
H99	H	1.643857	-1.027781	-0.254039
H100	H	1.570564	-1.137230	-0.241372
H101	H	1.707046	-1.269566	-0.190640
H102	H	1.780337	-1.160095	-0.203280
H103	H	1.694243	-1.160093	-0.117405
C104	C	1.154713	-0.896889	-1.044585
C105	C	1.108783	-0.980654	-1.106633
C106	C	1.007448	-1.000225	-1.069948
H107	H	1.113231	-0.818982	-1.048528
H108	H	1.158617	-0.931276	-0.973666
H109	H	1.104874	-0.946263	-1.177535
H110	H	1.150235	-1.058576	-1.102698
H111	H	1.011352	-1.034613	-0.999028
H112	H	0.965976	-0.922313	-1.073891
H113	H	0.976276	-1.057070	-1.112035
H114	H	1.444751	-0.753955	-0.859100
H115	H	1.819940	-0.469877	-0.971714
H116	H	1.253453	-1.002632	-1.211481
H117	H	1.677491	-0.247563	-0.657630
C118	C	1.960035	-0.318165	-0.891346
C119	C	2.005977	-0.234435	-0.829272
C120	C	2.107334	-0.214916	-0.865918
H121	H	1.956198	-0.283769	-0.962251
H122	H	2.001472	-0.396123	-0.887388
H123	H	1.964551	-0.156492	-0.833240
H124	H	2.009841	-0.268807	-0.758366
H125	H	2.148771	-0.292875	-0.861960
H126	H	2.103487	-0.180524	-0.936823
H127	H	2.138522	-0.158114	-0.823801
H128	H	1.549803	-0.821170	-1.188144
C129	C	1.878161	-0.190674	-0.710817
C130	C	1.893876	-0.235443	-0.605544
C131	C	1.955981	-0.154996	-0.555644
H132	H	1.843661	-0.108493	-0.714086
H133	H	1.944146	-0.187933	-0.745102
H134	H	1.827903	-0.238170	-0.571268
H135	H	1.928388	-0.317613	-0.602245
H136	H	2.021966	-0.152255	-0.589929
H137	H	1.921474	-0.072819	-0.558921
H138	H	1.966660	-0.185367	-0.484214
H139	H	1.669984	-0.461095	-1.076871
C140	C	1.098760	-0.945523	-0.546069
C141	C	1.080088	-1.048870	-0.476192
C142	C	1.173135	-1.091459	-0.422261
H143	H	1.122192	-0.879887	-0.507947
H144	H	1.151112	-0.969968	-0.595014
H145	H	1.027753	-1.024422	-0.427254
H146	H	1.056670	-1.114530	-0.514287
H147	H	1.225487	-1.115904	-0.471206
H148	H	1.196559	-1.025815	-0.384145
H149	H	1.160481	-1.161591	-0.374850
H150	H	0.983450	-1.080428	-0.673120
C151	C	1.537381	-0.399060	-0.737924
C152	C	1.476497	-0.284042	-0.743824
C153	C	1.375121	-0.303329	-0.707116
H154	H	1.541208	-0.433365	-0.666993
H155	H	1.506078	-0.455850	-0.779970
H156	H	1.507793	-0.227273	-0.701777
H157	H	1.472639	-0.249719	-0.814744
H158	H	1.343817	-0.360118	-0.749163
H159	H	1.378958	-0.337636	-0.636187
H160	H	1.333795	-0.225296	-0.711123
H161	H	1.041999	-0.281712	-0.374080
C162	C	0.710286	-0.768926	-0.770777
C163	C	0.676079	-0.866069	-0.826715
C164	C	0.582896	-0.824002	-0.880612
H165	H	0.722652	-0.698842	-0.818335
H166	H	0.657901	-0.744599	-0.721825
H167	H	0.728451	-0.890379	-0.875661
H168	H	0.663690	-0.936161	-0.779181
H169	H	0.530512	-0.799674	-0.831661
H170	H	0.595272	-0.753917	-0.928165
H171	H	0.559670	-0.889909	-0.918565
C172	C	0.932502	-0.439460	-0.338169
C173	C	0.874053	-0.510814	-0.266167
C174	C	0.813953	-0.430246	-0.204087
H175	H	0.886126	-0.384521	-0.381827
H176	H	0.977767	-0.391355	-0.301222
H177	H	0.828792	-0.558897	-0.303111
H178	H	0.920402	-0.565749	-0.222487
H179	H	0.859218	-0.382141	-0.167140
H180	H	0.767583	-0.375311	-0.247753
H181	H	0.774296	-0.478648	-0.155220
C182	C	1.314774	-0.190183	-0.147237
C183	C	1.405666	-0.253611	-0.101845
C184	C	1.455539	-0.172984	-0.039894
H185	H	1.268494	-0.164193	-0.093368
H186	H	1.333249	-0.118458	-0.189882
H187	H	1.387189	-0.325313	-0.059203
H188	H	1.451970	-0.279598	-0.155690
H189	H	1.474014	-0.101259	-0.082539
H190	H	1.409251	-0.146999	0.013969
H191	H	1.517219	-0.216004	-0.009096
C192	C	1.120142	-0.101790	-0.259385
C193	C	1.019059	-0.105298	-0.217058
C194	C	0.975395	0.017757	-0.208797
H195	H	1.116221	-0.058025	-0.327103
H196	H	1.163008	-0.059705	-0.214755
H197	H	0.976204	-0.147364	-0.261688
H198	H	1.022951	-0.149039	-0.149335
H199	H	1.018261	0.059841	-0.164166
H200	H	0.971481	0.061512	-0.276517
H201	H	0.906810	0.015393	-0.180068
H202	H	0.814464	-1.003599	-0.770786
H203	H	1.379990	-0.435377	-0.178783
H204	H	0.825711	-0.633562	-0.643776
