data_functionalizedCrystal
_audit_creation_method	'MofGen! by Chris Wilmer'
_symmetry_space_group_name_H-M	'P1'
_symmetry_Int_Tables_number	1
_symmetry_cell_setting	triclinic
loop_
_symmetry_equiv_pos_as_xyz
  x,y,z
_cell_length_a	16.120530
_cell_length_b	25.639240
_cell_length_c	16.120297
_cell_angle_alpha	87.138170
_cell_angle_beta	89.871860
_cell_angle_gamma	87.127770
loop_
_atom_site_label
_atom_site_type_symbol
_atom_site_fract_x
_atom_site_fract_y
_atom_site_fract_z
Zn1	Zn	1.247376	-0.264883	0.534485
Zn2	Zn	1.580709	0.068451	0.867819
Zn3	Zn	1.914043	0.401784	1.201152
Zn4	Zn	1.254307	-0.348114	0.395403
Zn5	Zn	1.587640	-0.014781	0.728736
Zn6	Zn	1.920973	0.318552	1.062069
Zn7	Zn	1.115369	-0.256048	0.388406
Zn8	Zn	1.448702	0.077286	0.721739
Zn9	Zn	1.782035	0.410619	1.055073
Zn10	Zn	1.108263	-0.347633	0.527372
Zn11	Zn	1.441596	-0.014299	0.860706
Zn12	Zn	1.774930	0.319034	1.194039
O13	O	1.181329	-0.304169	0.461417
O14	O	1.514662	0.029164	0.794750
O15	O	1.847995	0.362497	1.128083
O16	O	1.364661	-0.279823	0.521941
O17	O	1.697994	0.053511	0.855274
O18	O	2.031327	0.386844	1.188607
O19	O	1.241750	-0.332405	0.278110
O20	O	1.575084	0.000928	0.611444
O21	O	1.908417	0.334261	0.944777
O22	O	1.132953	-0.184058	0.407832
O23	O	1.466286	0.149275	0.741166
O24	O	1.799619	0.482608	1.074499
O25	O	1.369753	-0.340972	0.419757
O26	O	1.703086	-0.007639	0.753091
O27	O	2.036419	0.325694	1.086424
O28	O	1.229938	-0.190549	0.515156
O29	O	1.563271	0.142784	0.848490
O30	O	1.896605	0.476117	1.181823
O31	O	1.139673	-0.264765	0.272970
O32	O	1.473006	0.068569	0.606303
O33	O	1.806340	0.401902	0.939636
O34	O	0.998061	-0.264298	0.400935
O35	O	1.331394	0.069036	0.734268
O36	O	1.664727	0.402369	1.067602
O37	O	1.120843	-0.340152	0.644680
O38	O	1.454176	-0.006818	0.978014
O39	O	1.787509	0.326515	1.311347
O40	O	0.992840	-0.331585	0.503033
O41	O	1.326174	0.001748	0.836366
O42	O	1.659507	0.335082	1.169700
O43	O	1.223048	-0.279356	0.649906
O44	O	1.556382	0.053978	0.983239
O45	O	1.889715	0.387311	1.316573
O46	O	1.234860	-0.421212	0.412860
O47	O	1.568194	-0.087878	0.746193
O48	O	1.901527	0.245455	1.079527
O49	O	1.127563	-0.420858	0.509818
O50	O	1.460896	-0.087525	0.843151
O51	O	1.794230	0.245809	1.176484
C52	C	0.965278	-0.296931	0.450453
C53	C	1.298612	0.036403	0.783787
C54	C	1.631945	0.369736	1.117120
C55	C	0.872850	-0.293847	0.445783
C56	C	1.206183	0.039486	0.779116
C57	C	1.539517	0.372819	1.112450
C58	C	0.703622	-0.288205	0.437263
C59	C	1.036955	0.045128	0.770597
C60	C	1.370288	0.378461	1.103930
C61	C	0.659873	-0.320174	0.485630
C62	C	0.993206	0.013160	0.818964
C63	C	1.326539	0.346493	1.152297
C64	C	0.565708	-0.317035	0.480890
C65	C	0.899042	0.016299	0.814223
C66	C	1.232375	0.349632	1.147557
C67	C	0.797795	-0.291344	0.442003
C68	C	1.131128	0.041989	0.775336
C69	C	1.464461	0.375323	1.108669
C70	C	1.181214	-0.440006	0.461345
C71	C	1.514548	-0.106673	0.794679
C72	C	1.847881	0.226661	1.128012
C73	C	1.181240	-0.498121	0.461347
C74	C	1.514574	-0.164788	0.794680
C75	C	1.847907	0.168546	1.128013
C76	C	1.231850	-0.861834	0.517397
C77	C	1.565184	-0.528501	0.850731
C78	C	1.898517	-0.195168	1.184064
C79	C	1.231874	-0.916440	0.517416
C80	C	1.565207	-0.583106	0.850749
C81	C	1.898541	-0.249773	1.184082
O82	O	1.274768	-0.947518	0.564998
O83	O	1.608102	-0.614185	0.898331
O84	O	1.941435	-0.280852	1.231664
N85	N	1.181440	-0.940415	0.461503
N86	N	1.514773	-0.607081	0.794836
N87	N	1.848107	-0.273748	1.128169
C88	C	1.130972	-0.909781	0.405574
C89	C	1.464306	-0.576448	0.738907
C90	C	1.797639	-0.243114	1.072241
O91	O	1.088076	-0.935187	0.358018
O92	O	1.421409	-0.601854	0.691351
O93	O	1.754743	-0.268521	1.024685
C94	C	1.130945	-0.855176	0.405560
C95	C	1.464278	-0.521843	0.738894
C96	C	1.797612	-0.188510	1.072227
C97	C	1.181389	-0.831204	0.461471
C98	C	1.514722	-0.497871	0.794805
C99	C	1.848055	-0.164538	1.128138
C100	C	1.282289	-0.837862	0.573304
C101	C	1.615623	-0.504529	0.906638
C102	C	1.948956	-0.171195	1.239971
C103	C	1.282267	-0.783260	0.573285
C104	C	1.615600	-0.449927	0.906618
C105	C	1.948933	-0.116594	1.239952
C106	C	1.231805	-0.752630	0.517359
C107	C	1.565138	-0.419297	0.850692
C108	C	1.898472	-0.085964	1.184025
C109	C	1.181366	-0.776603	0.461452
C110	C	1.514699	-0.443269	0.794785
C111	C	1.848033	-0.109936	1.128118
C112	C	1.080474	-0.824543	0.349636
C113	C	1.413807	-0.491210	0.682969
C114	C	1.747140	-0.157877	1.016303
C115	C	1.080450	-0.769935	0.349628
C116	C	1.413783	-0.436602	0.682961
C117	C	1.747117	-0.103269	1.016295
C118	C	1.130894	-0.745964	0.405539
C119	C	1.464227	-0.412630	0.738872
C120	C	1.797561	-0.079297	1.072205
C121	C	1.130882	-0.691371	0.405506
C122	C	1.464215	-0.358038	0.738839
C123	C	1.797548	-0.024704	1.072173
N124	N	1.181316	-0.667396	0.461419
N125	N	1.514649	-0.334063	0.794752
N126	N	1.847983	-0.000729	1.128086
C127	C	1.231778	-0.698026	0.517345
C128	C	1.565111	-0.364693	0.850678
C129	C	1.898444	-0.031359	1.184012
C130	C	1.131033	-1.024454	0.405608
C131	C	1.464366	-0.691121	0.738941
C132	C	1.797700	-0.357788	1.072274
C133	C	1.131064	-1.079058	0.405616
C134	C	1.464398	-0.745725	0.738950
C135	C	1.797731	-0.412391	1.072283
C136	C	1.231965	-1.085713	0.517459
C137	C	1.565298	-0.752380	0.850793
C138	C	1.898632	-0.419047	1.184126
C139	C	1.231937	-1.031109	0.517446
C140	C	1.565271	-0.697775	0.850779
C141	C	1.898604	-0.364442	1.184112
C142	C	1.181467	-1.000480	0.461520
C143	C	1.514801	-0.667146	0.794854
C144	C	1.848134	-0.333813	1.128187
C145	C	1.231727	-0.583358	0.517300
C146	C	1.565060	-0.250024	0.850633
C147	C	1.898393	0.083309	1.183966
C148	C	1.231702	-0.528751	0.517273
C149	C	1.565035	-0.195417	0.850606
C150	C	1.898369	0.137916	1.183940
C151	C	1.130798	-0.522100	0.405433
C152	C	1.464132	-0.188767	0.738767
C153	C	1.797465	0.144566	1.072100
C154	C	1.130826	-0.576703	0.405457
C155	C	1.464159	-0.243369	0.738790
C156	C	1.797493	0.089964	1.072123
C157	C	1.181292	-0.607330	0.461397
C158	C	1.514626	-0.273997	0.794730
C159	C	1.847959	0.059337	1.128063
O160	O	1.088007	-0.660259	0.357950
O161	O	1.421340	-0.326926	0.691284
O162	O	1.754673	0.006407	1.024617
O163	O	1.274659	-0.672612	0.564900
O164	O	1.607992	-0.339279	0.898234
O165	O	1.941325	-0.005945	1.231567
C166	C	1.398223	-0.311437	0.472423
C167	C	1.731556	0.021897	0.805756
C168	C	2.064889	0.355230	1.139090
C169	C	1.490650	-0.314534	0.477113
C170	C	1.823983	0.018800	0.810447
C171	C	2.157316	0.352133	1.143780
C172	C	1.170380	-0.310686	0.678309
C173	C	1.503713	0.022648	1.011642
C174	C	1.837047	0.355981	1.344975
C175	C	1.165714	-0.313462	0.770735
C176	C	1.499047	0.019871	1.104069
C177	C	1.832381	0.353204	1.437402
C178	C	1.181465	-0.167804	0.461507
C179	C	1.514798	0.165530	0.794841
C180	C	1.848132	0.498863	1.128174
C181	C	1.181523	-0.109693	0.461546
C182	C	1.514856	0.223641	0.794879
C183	C	1.848190	0.556974	1.128213
C184	C	1.192283	-0.297642	0.245371
C185	C	1.525616	0.035691	0.578704
C186	C	1.858949	0.369024	0.912037
C187	C	1.197109	-0.294724	0.152953
C188	C	1.530443	0.038610	0.486286
C189	C	1.863776	0.371943	0.819619
C190	C	1.157165	-0.318519	0.939958
C191	C	1.490499	0.014814	1.273292
C192	C	1.823832	0.348147	1.606625
C193	C	1.205656	-0.289668	0.983735
C194	C	1.538989	0.043665	1.317068
C195	C	1.872323	0.376998	1.650402
C196	C	1.200899	-0.292482	1.077896
C197	C	1.534233	0.040851	1.411230
C198	C	1.867566	0.374185	1.744563
C199	C	1.161921	-0.315706	0.845788
C200	C	1.495254	0.017627	1.179122
C201	C	1.828587	0.350960	1.512455
H202	H	1.272782	-0.509235	0.562802
H203	H	1.606115	-0.175902	0.896136
H204	H	1.939449	0.157432	1.229469
H205	H	1.272815	-0.608289	0.562857
H206	H	1.606148	-0.274955	0.896190
H207	H	1.939482	0.058378	1.229523
H208	H	1.323340	-0.763746	0.618814
H209	H	1.656673	-0.430412	0.952148
H210	H	1.990006	-0.097079	1.285481
H211	H	1.250742	-0.262854	0.950495
H212	H	1.584075	0.070479	1.283829
H213	H	1.917408	0.403812	1.617162
H214	H	0.670359	-0.258482	0.392298
H215	H	1.003692	0.074851	0.725631
H216	H	1.337025	0.408185	1.058964
H217	H	1.112083	-0.345331	0.973196
H218	H	1.445416	-0.011998	1.306529
H219	H	1.778750	0.321336	1.639863
H220	H	0.693138	-0.349899	0.530600
H221	H	1.026471	-0.016566	0.863934
H222	H	1.359804	0.316767	1.197267
H223	H	1.273013	-1.011594	0.562973
H224	H	1.606346	-0.678261	0.896307
H225	H	1.939679	-0.344928	1.229640
H226	H	1.323381	-0.862796	0.618851
H227	H	1.656714	-0.529462	0.952184
H228	H	1.990048	-0.196129	1.285518
H229	H	1.089716	-0.497153	0.359896
H230	H	1.423049	-0.163820	0.693230
H231	H	1.756382	0.169514	1.026563
H232	H	1.273052	-1.110662	0.562999
H233	H	1.606385	-0.777329	0.896332
H234	H	1.939719	-0.443995	1.229666
H235	H	1.089997	-1.098571	0.360080
H236	H	1.423331	-0.765238	0.693413
H237	H	1.756664	-0.431904	1.026746
H238	H	1.039397	-0.844052	0.304107
H239	H	1.372731	-0.510718	0.637441
H240	H	1.706064	-0.177385	0.970774
H241	H	1.039348	-0.744999	0.304087
H242	H	1.372682	-0.411666	0.637421
H243	H	1.706015	-0.078333	0.970754
H244	H	1.089937	-0.999518	0.360059
H245	H	1.423270	-0.666185	0.693393
H246	H	1.756603	-0.332852	1.026726
H247	H	1.089757	-0.596221	0.359923
H248	H	1.423091	-0.262888	0.693257
H249	H	1.756424	0.070445	1.026590
