data_functionalizedCrystal
_audit_creation_method	'MofGen! by Chris Wilmer'
_symmetry_space_group_name_H-M	'P1'
_symmetry_Int_Tables_number	1
_symmetry_cell_setting	triclinic
loop_
_symmetry_equiv_pos_as_xyz
  x,y,z
_cell_length_a	13.339071
_cell_length_b	13.262508
_cell_length_c	14.048226
_cell_angle_alpha	105.911903
_cell_angle_beta	89.994530
_cell_angle_gamma	99.430290
loop_
_atom_site_label
_atom_site_type_symbol
_atom_site_fract_x
_atom_site_fract_y
_atom_site_fract_z
O1	O	1.344490	0.526820	0.057228
O2	O	1.049673	0.457672	0.039326
O3	O	1.204502	0.341620	0.009282
O4	O	1.189661	0.642871	0.087272
O5	O	1.204484	0.341605	0.167600
O6	O	1.049655	0.457657	0.197644
O7	O	1.344471	0.526805	0.215546
Zn8	Zn	1.197060	0.492228	0.231731
Zn9	Zn	1.197084	0.492248	0.023141
O10	O	1.189642	0.642856	0.245590
C11	C	1.011926	0.445984	0.115461
C12	C	0.899478	0.411167	0.106447
C13	C	0.858326	0.302594	0.078342
C14	C	0.752676	0.269879	0.069868
C15	C	0.688169	0.345734	0.089505
C16	C	0.729321	0.454309	0.117617
C17	C	0.834981	0.487028	0.126085
C18	C	0.664823	0.530167	0.137247
C19	C	0.705975	0.638743	0.165359
C20	C	0.811625	0.671456	0.173826
C21	C	0.876133	0.595601	0.154189
C22	C	0.559163	0.497449	0.128779
C23	C	0.535818	0.681882	0.176521
C24	C	0.641468	0.714598	0.184996
C25	C	1.203663	0.302268	0.078253
C26	C	1.201176	0.185030	0.047896
C27	C	1.194122	-0.145491	0.307530
C28	C	1.196450	-0.035341	0.336053
C29	C	1.197632	0.019757	0.264016
C30	C	1.196485	-0.035305	0.163452
C31	C	1.194149	-0.145467	0.134926
C32	C	1.197659	0.019781	0.091412
C33	C	1.196512	-0.035281	-0.009152
C34	C	1.194177	-0.145431	-0.037673
C35	C	1.192995	-0.200530	0.034363
C36	C	1.199995	0.129943	0.119938
C37	C	1.200022	0.129967	-0.052666
C38	C	1.197694	0.019818	-0.081189
C39	C	1.382218	0.538492	0.139409
C40	C	1.494666	0.573309	0.148417
C41	C	1.190482	0.682208	0.176616
C42	C	1.192968	0.799446	0.206967
N43	N	1.197050	0.492216	0.374089
N44	N	1.197102	0.492254	-0.119218
C45	C	1.265630	0.440864	0.410613
C46	C	1.265637	0.440866	0.510271
C47	C	1.197068	0.492226	0.573405
C48	C	1.128481	0.543579	0.536874
C49	C	1.128470	0.543571	0.437216
C50	C	1.128510	0.543596	0.744593
C51	C	1.128522	0.543606	0.844258
C52	C	1.265677	0.440890	0.817647
C53	C	1.265666	0.440882	0.717989
C54	C	1.197080	0.492237	0.681466
H55	H	0.674989	0.803002	0.207885
O56	O	1.332080	0.390840	0.349171
C57	C	1.277529	0.310153	0.270704
H58	H	1.198469	0.328923	0.260623
H59	H	1.270280	0.230502	0.288539
C60	C	1.431630	0.281203	0.186900
C61	C	1.334530	0.304261	0.174513
H62	H	1.466793	0.277563	0.127565
H63	H	1.468384	0.335560	0.239766
H64	H	1.425577	0.214829	0.201765
H65	H	1.340586	0.370639	0.159660
H66	H	1.297779	0.249914	0.121642
H67	H	1.321479	0.399050	0.540007
O68	O	1.062008	0.593479	0.905731
C69	C	1.076716	0.582454	1.001517
H70	H	1.157082	0.566687	1.011027
H71	H	1.019185	0.513015	1.011842
C72	C	0.963229	0.704872	1.067677
C73	C	1.061939	0.685517	1.079359
H74	H	0.954110	0.768444	1.115694
H75	H	0.953317	0.712298	1.003143
H76	H	0.915298	0.647000	1.076279
H77	H	1.109868	0.743382	1.070745
H78	H	1.071859	0.678103	1.143893
O79	O	1.061850	0.593575	0.709284
C80	C	1.001317	0.638891	0.786371
H81	H	1.042852	0.652197	0.860846
H82	H	0.925937	0.582819	0.782470
C83	C	0.929899	0.729819	0.683769
C84	C	0.980917	0.746170	0.775241
H85	H	0.917311	0.795991	0.676902
H86	H	0.970678	0.699285	0.631832
H87	H	0.867088	0.683089	0.680530
H88	H	1.043732	0.792888	0.778474
H89	H	0.940148	0.776714	0.827178
O90	O	0.473022	0.755437	0.195604
C91	C	0.370945	0.703279	0.182080
H92	H	0.366548	0.619560	0.190387
H93	H	0.340418	0.698364	0.104853
C94	C	0.312021	0.868857	0.250205
C95	C	0.306619	0.766036	0.260417
H96	H	0.272339	0.907570	0.298523
H97	H	0.380791	0.903999	0.259313
H98	H	0.286583	0.864747	0.185846
H99	H	0.332068	0.770147	0.324770
H100	H	0.237851	0.730897	0.251321
O101	O	1.332028	0.390664	0.656579
C102	C	1.277318	0.309954	0.578234
H103	H	1.198340	0.328904	0.568123
H104	H	1.269875	0.230376	0.596237
C105	C	1.431300	0.280414	0.494412
C106	C	1.334300	0.303693	0.481988
H107	H	1.466450	0.276547	0.435043
H108	H	1.468160	0.334787	0.547196
H109	H	1.425084	0.214101	0.509417
H110	H	1.340518	0.370010	0.466995
H111	H	1.297442	0.249330	0.429198
H112	H	1.200920	0.174762	0.201818
O113	O	1.061816	0.593548	0.401905
C114	C	1.001281	0.638861	0.478991
H115	H	1.042818	0.652175	0.553467
H116	H	0.925904	0.582784	0.475093
C117	C	0.929850	0.729776	0.376385
C118	C	0.980870	0.746136	0.467857
H119	H	0.917255	0.795945	0.369515
H120	H	0.970630	0.699244	0.324449
H121	H	0.867042	0.683041	0.373147
H122	H	1.043682	0.792858	0.471088
H123	H	0.940099	0.776677	0.519793
O124	O	1.193193	-0.199023	-0.135322
C125	C	1.279473	-0.249088	-0.153446
H126	H	1.308317	-0.261047	-0.081606
H127	H	1.341732	-0.197089	-0.182571
C128	C	1.215225	-0.343175	-0.319177
C129	C	1.250647	-0.357872	-0.230944
H130	H	1.197447	-0.410276	-0.366985
H131	H	1.157098	-0.309443	-0.306969
H132	H	1.267114	-0.299840	-0.343436
H133	H	1.198754	-0.401196	-0.206681
H134	H	1.308765	-0.391614	-0.243150
H135	H	1.199526	0.109445	0.287246
H136	H	0.602145	0.319090	0.082603
H137	H	0.525668	0.409046	0.105890
H138	H	1.197394	0.009484	0.417933
H139	H	1.321522	0.399075	0.847390
H140	H	1.072645	0.585393	0.588283
H141	H	0.719178	0.181477	0.046978
O142	O	1.196385	-0.033763	-0.178867
C143	C	1.107429	-0.111126	-0.204033
H144	H	1.046894	-0.087446	-0.148930
H145	H	1.125464	-0.191527	-0.201646
C146	C	1.142021	-0.148096	-0.376858
C147	C	1.067668	-0.119007	-0.309185
H148	H	1.117496	-0.152962	-0.441722
H149	H	1.201955	-0.095978	-0.359904
H150	H	1.157043	-0.215094	-0.374857
H151	H	1.052656	-0.052005	-0.311178
H152	H	1.007731	-0.171114	-0.326142
O153	O	0.921131	0.229058	0.059345
C154	C	1.023206	0.281221	0.072819
H155	H	1.027595	0.364937	0.124465
H156	H	1.053745	0.286142	-0.001864
C157	C	1.082135	0.115645	0.055225
C158	C	1.087526	0.218464	0.118664
H159	H	1.121812	0.076932	0.083500
H160	H	1.013365	0.080501	0.046144
H161	H	1.107582	0.119761	-0.007006
H162	H	1.062067	0.214348	0.180889
H163	H	1.156293	0.253607	0.127757
H164	H	0.845127	0.759865	0.196702
H165	H	1.193152	-0.190363	0.366171
H166	H	1.200977	0.174827	-0.111325
H167	H	0.962163	0.622233	0.161092
H168	H	1.191104	-0.290222	0.011145
