data_functionalizedCrystal
_audit_creation_method	'MofGen! by Chris Wilmer'
_symmetry_space_group_name_H-M	'P1'
_symmetry_Int_Tables_number	1
_symmetry_cell_setting	triclinic
loop_
_symmetry_equiv_pos_as_xyz
  x,y,z
_cell_length_a	16.992694
_cell_length_b	16.053967
_cell_length_c	16.992695
_cell_angle_alpha	92.711940
_cell_angle_beta	90.668223
_cell_angle_gamma	92.710207
loop_
_atom_site_label
_atom_site_type_symbol
_atom_site_fract_x
_atom_site_fract_y
_atom_site_fract_z
O1	O	-1.047718	0.069324	-0.163776
O2	O	-0.819317	0.069349	-0.161943
O3	O	-0.932603	0.069330	-0.048660
O4	O	-0.934433	0.069343	-0.277059
O5	O	-0.938866	-0.069526	-0.054947
O6	O	-0.825580	-0.069507	-0.168230
O7	O	-1.053981	-0.069532	-0.170063
Zn8	Zn	-0.940775	-0.091566	-0.170145
Zn9	Zn	-0.932523	0.091383	-0.161861
O10	O	-0.940696	-0.069513	-0.283346
C11	C	-0.793088	-0.000076	-0.162731
C12	C	-0.705603	-0.000067	-0.155702
C13	C	-0.933378	-0.000098	-0.022443
C14	C	-0.926349	-0.000097	0.065042
C15	C	-1.080210	-0.000105	-0.169275
C16	C	-1.167695	-0.000109	-0.176304
N17	N	-0.946413	-0.216423	-0.175798
C18	C	-0.659612	-0.000064	-0.223520
C19	C	-0.577412	-0.000076	-0.216911
C20	C	-0.541204	-0.000085	-0.142484
C21	C	-0.587202	-0.000091	-0.074661
C22	C	-0.669401	-0.000085	-0.081271
C23	C	-0.295891	-0.000109	-0.115090
C24	C	-0.213686	-0.000112	-0.108486
C25	C	-0.203902	-0.000099	-0.250737
C26	C	-0.286103	-0.000088	-0.257339
C27	C	-0.332093	-0.000098	-0.189517
N28	N	-0.457183	-0.000094	-0.135727
N29	N	-0.416114	-0.000094	-0.196275
N30	N	-0.926892	0.216240	-0.156202
C31	C	-0.975550	0.259959	-0.205069
C32	C	-0.971590	0.347363	-0.201096
C33	C	-0.918974	0.391048	-0.148252
C34	C	-0.870311	0.347323	-0.099383
C35	C	-0.874268	0.259920	-0.103360
C36	C	-0.901706	0.652449	-0.130906
C37	C	-0.897754	0.739858	-0.126931
C38	C	-0.999033	0.739892	-0.228646
C39	C	-1.002989	0.652487	-0.232615
C40	C	-0.954322	0.608770	-0.183749
N41	N	-0.914926	0.480390	-0.144188
N42	N	-0.958366	0.519430	-0.187818
C43	C	-0.939920	-0.000084	-0.309563
C44	C	-0.946949	-0.000079	-0.397047
C45	C	-0.994168	-0.000105	0.111032
C46	C	-0.987559	-0.000096	0.193233
C47	C	-0.913130	-0.000086	0.229442
C48	C	-0.845307	-0.000075	0.183446
C49	C	-0.851917	-0.000078	0.101246
C50	C	-0.885735	-0.000071	0.474757
C51	C	-0.879131	-0.000071	0.556962
C52	C	-1.021383	-0.000091	0.566744
C53	C	-1.027986	-0.000099	0.484543
C54	C	-0.960163	-0.000083	0.438554
N55	N	-0.906373	-0.000079	0.313465
N56	N	-0.966921	-0.000084	0.354533
H57	H	-0.539969	-0.000072	-0.272136
H58	H	-0.315577	-0.000071	-0.317945
H59	H	-0.830508	-0.000059	0.437322
H60	H	-0.784705	-0.000061	0.212933
O61	O	-1.094533	-0.000106	0.616345
H62	H	-1.092379	0.056493	0.656585
O63	O	-0.174629	-0.000134	-0.028208
H64	H	-0.190195	0.056451	0.007203
O65	O	-1.024071	0.394513	-0.253808
H66	H	-1.062274	0.434335	-0.217012
H67	H	-1.018399	0.224397	-0.248098
H68	H	-0.333327	-0.000118	-0.059864
H69	H	-0.796692	-0.000071	0.063801
O70	O	-0.841060	0.786974	-0.069870
H71	H	-0.846517	0.855095	-0.075286
H72	H	-1.088594	-0.000108	0.455068
H73	H	-0.834643	0.224326	-0.063569
O74	O	-0.548155	-0.000104	0.005617
H75	H	-0.483270	-0.000099	-0.001179
H76	H	-0.689086	-0.000056	-0.284126
H77	H	-1.054775	-0.000119	0.081557
H78	H	-0.166449	-0.000092	-0.305954
H79	H	-0.706846	-0.000087	-0.026046
O80	O	-1.059736	0.605369	-0.289614
H81	H	-1.092903	0.650455	-0.322932
O82	O	-1.060705	-0.000119	0.242840
H83	H	-1.113570	-0.000142	0.203851
O84	O	-1.051511	0.787041	-0.281361
H85	H	-1.039917	0.855158	-0.269726
H86	H	-0.818520	-0.000076	0.586440
H87	H	-0.862080	0.616865	-0.091114
H88	H	-0.827467	0.382898	-0.056359
