data_functionalizedCrystal
_audit_creation_method	'MofGen! by Chris Wilmer'
_symmetry_space_group_name_H-M	'P1'
_symmetry_Int_Tables_number	1
_symmetry_cell_setting	triclinic
loop_
_symmetry_equiv_pos_as_xyz
  x,y,z
_cell_length_a	14.908520
_cell_length_b	12.827893
_cell_length_c	12.827885
_cell_angle_alpha	89.980538
_cell_angle_beta	93.263527
_cell_angle_gamma	93.320765
loop_
_atom_site_label
_atom_site_type_symbol
_atom_site_fract_x
_atom_site_fract_y
_atom_site_fract_z
Zn1	Zn	-0.359110	1.573617	-0.614816
Zn2	Zn	0.140890	2.073617	-0.114816
Zn3	Zn	-0.509994	1.563404	-0.450147
Zn4	Zn	-0.009994	2.063404	0.049853
Zn5	Zn	-0.359155	1.398855	-0.440093
Zn6	Zn	0.140845	1.898855	0.059907
Zn7	Zn	-0.509927	1.388741	-0.624842
Zn8	Zn	-0.009927	1.888741	-0.124842
O9	O	-0.434546	1.481154	-0.532475
O10	O	0.065454	1.981154	-0.032475
O11	O	-0.379134	1.718497	-0.592984
O12	O	0.120866	2.218497	-0.092984
O13	O	-0.490031	1.541534	-0.302580
O14	O	0.009969	2.041534	0.197420
O15	O	-0.232904	1.430544	-0.454867
O16	O	0.267096	1.930544	0.045133
O17	O	-0.489988	1.710994	-0.472002
O18	O	0.010012	2.210994	0.027998
O19	O	-0.232872	1.558941	-0.583235
O20	O	0.267128	2.058941	-0.083235
O21	O	-0.379210	1.420641	-0.295193
O22	O	0.120790	1.920641	0.204807
O23	O	-0.379146	1.251278	-0.464589
O24	O	0.120854	1.751278	0.035411
O25	O	-0.489875	1.413307	-0.769745
O26	O	0.010125	1.913307	-0.269745
O27	O	-0.489918	1.243847	-0.600323
O28	O	0.010082	1.743847	-0.100323
O29	O	-0.379070	1.549135	-0.762379
O30	O	0.120930	2.049135	-0.262379
O31	O	-0.636229	1.531727	-0.481724
O32	O	-0.136229	2.031727	0.018276
O33	O	-0.636180	1.403404	-0.610072
O34	O	-0.136180	1.903404	-0.110072
C35	C	-0.434530	1.209645	-0.532454
C36	C	0.065470	1.709645	-0.032454
C37	C	-0.434544	1.093491	-0.532471
C38	C	0.065456	1.593491	-0.032471
C39	C	-0.379788	1.045413	-0.592442
C40	C	0.120212	1.545413	-0.092442
C41	C	-0.379802	0.925362	-0.592461
C42	C	0.120198	1.425362	-0.092461
C43	C	-0.668939	1.465388	-0.548100
C44	C	-0.168939	1.965388	-0.048100
C45	C	-0.769212	1.458739	-0.554819
C46	C	-0.269212	1.958739	-0.054819
C47	C	-0.957628	1.580006	-0.433905
C48	C	-0.457628	2.080006	0.066095
C49	C	-1.051844	1.573762	-0.440215
C50	C	-0.551844	2.073762	0.059785
C51	C	-1.051863	1.440013	-0.573754
C52	C	-0.551863	1.940013	-0.073754
C53	C	-0.957647	1.446257	-0.567444
C54	C	-0.457647	1.946257	-0.067444
C55	C	-0.910532	1.516255	-0.497516
C56	C	-0.410532	2.016255	0.002484
C57	C	-0.816314	1.522493	-0.491201
C58	C	-0.316314	2.022493	0.008799
C59	C	-0.816335	1.388750	-0.624745
C60	C	-0.316335	1.888750	-0.124745
C61	C	-0.910551	1.382506	-0.631055
C62	C	-0.410551	1.882506	-0.131055
C63	C	-0.199239	1.497010	-0.516811
C64	C	0.300761	1.997010	-0.016811
C65	C	-0.098965	1.503767	-0.510136
C66	C	0.401035	2.003767	-0.010136
C67	C	-0.434460	1.481232	-0.805039
C68	C	0.065540	1.981232	-0.305039
C69	C	-0.434423	1.481265	-0.921190
C70	C	0.065577	1.981265	-0.421190
C71	C	-0.434564	1.753723	-0.532496
C72	C	0.065436	2.253723	-0.032496
C73	C	-0.434571	1.869876	-0.532506
C74	C	0.065429	2.369876	-0.032506
C75	C	-0.379574	1.421464	-0.969319
C76	C	0.120426	1.921464	-0.469319
C77	C	-0.379535	1.421497	-1.089367
C78	C	0.120465	1.921497	-0.589367
C79	C	-0.434568	1.481141	-0.260966
C80	C	0.065432	1.981141	0.239034
C81	C	-0.434350	1.481327	-0.144799
C82	C	0.065650	1.981327	0.355201
H83	H	-0.332925	0.884001	-0.643808
H84	H	0.167075	1.384001	-0.143808
C85	C	-0.497906	0.925742	-0.463135
C86	C	0.002094	1.425742	0.036865
N87	N	-0.545609	0.967828	-0.410884
N88	N	-0.045609	1.467828	0.089116
H89	H	-0.919267	1.636993	-0.376959
H90	H	-0.419267	2.136993	0.123041
C91	C	-0.497794	1.550498	-1.088875
C92	C	0.002206	2.050498	-0.588875
N93	N	-0.545580	1.602597	-1.046745
N94	N	-0.045580	2.102597	-0.546745
H95	H	-0.481352	1.532486	-0.968860
H96	H	0.018648	2.032486	-0.468860
H97	H	-1.090240	1.383032	-0.630693
H98	H	-0.590240	1.883032	-0.130693
C99	C	-0.764490	1.599491	-0.414279
C100	C	-0.264490	2.099491	0.085721
N101	N	-0.725458	1.657490	-0.356342
N102	N	-0.225458	2.157490	0.143658
C103	C	-0.316437	1.109870	-0.661784
C104	C	0.183563	1.609870	-0.161784
N105	N	-0.268718	1.158418	-0.714015
N106	N	0.231282	1.658418	-0.214015
C107	C	-0.764523	1.318619	-0.694722
C108	C	-0.264523	1.818619	-0.194722
N109	N	-0.725497	1.265796	-0.747425
N110	N	-0.225497	1.765796	-0.247425
H111	H	-1.090186	1.625676	-0.388418
H112	H	-0.590186	2.125676	0.111582
C113	C	-0.962388	1.305507	-0.707966
C114	C	-0.462388	1.805507	-0.207966
N115	N	-1.001430	1.247506	-0.765893
N116	N	-0.501430	1.747506	-0.265893
C117	C	-0.316166	1.352272	-0.904923
C118	C	0.183834	1.852272	-0.404923
N119	N	-0.268401	1.300160	-0.856421
N120	N	0.231599	1.800160	-0.356421
H121	H	-0.481432	1.045776	-0.481139
H122	H	0.018568	1.545776	0.018861
C123	C	-0.316094	1.352329	-1.145298
C124	C	0.183906	1.852329	-0.645298
N125	N	-0.268309	1.300229	-1.187428
N126	N	0.231691	1.800229	-0.687428
