data_functionalizedCrystal
_audit_creation_method	'MofGen! by Chris Wilmer'
_symmetry_space_group_name_H-M	'P1'
_symmetry_Int_Tables_number	1
_symmetry_cell_setting	triclinic
loop_
_symmetry_equiv_pos_as_xyz
  x,y,z
_cell_length_a	12.645331
_cell_length_b	12.759394
_cell_length_c	12.759387
_cell_angle_alpha	89.968340
_cell_angle_beta	90.023088
_cell_angle_gamma	89.986184
loop_
_atom_site_label
_atom_site_type_symbol
_atom_site_fract_x
_atom_site_fract_y
_atom_site_fract_z
Zn1	Zn	1.620757	0.418240	0.594071
Zn2	Zn	1.620646	0.593957	0.418389
Zn3	Zn	1.443470	0.418289	0.418400
Zn4	Zn	1.443462	0.593874	0.594020
O5	O	1.532084	0.506090	0.506220
O6	O	1.769089	0.441563	0.570783
O7	O	1.597100	0.570709	0.271369
O8	O	1.467037	0.271261	0.441729
O9	O	1.769008	0.570661	0.441710
O10	O	1.597289	0.271225	0.570794
O11	O	1.466930	0.441647	0.271377
O12	O	1.295122	0.441567	0.441680
O13	O	1.467023	0.570521	0.741048
O14	O	1.295116	0.570569	0.570707
O15	O	1.597281	0.441483	0.741086
O16	O	1.597092	0.740967	0.441661
O17	O	1.466916	0.740906	0.570696
C18	C	1.532020	0.779057	0.506195
C19	C	1.532090	0.895834	0.506219
C20	C	1.256654	0.506065	0.506190
C21	C	1.138824	0.506080	0.506202
C22	C	1.532164	0.505987	0.780254
C23	C	1.532198	0.505943	0.897030
C24	C	0.971228	0.424551	0.425478
C25	C	1.093788	0.424762	0.425123
C26	C	1.094309	0.616758	0.475955
C27	C	0.971710	0.616312	0.475404
C28	C	0.971674	0.477983	0.617483
C29	C	1.094279	0.475511	0.616865
C30	C	1.808589	0.506116	0.506251
C31	C	1.926419	0.506127	0.506264
C32	C	1.532176	0.232056	0.506269
C33	C	1.532216	0.115280	0.506289
C34	C	1.667744	0.895844	0.371955
C35	C	1.735599	0.950710	0.304835
C36	C	1.735661	1.060431	0.304864
C37	C	1.667863	1.115290	0.372021
C38	C	1.600008	1.060424	0.439141
C39	C	1.599951	0.950700	0.439103
C40	C	1.464361	1.060414	0.573409
C41	C	1.464292	0.950692	0.573377
C42	C	1.396563	1.115272	0.640566
C43	C	1.328702	1.060407	0.707682
C44	C	1.328641	0.950679	0.707650
C45	C	1.396437	0.895827	0.640496
C46	C	1.532065	0.506117	0.233253
C47	C	1.532236	0.505865	0.116476
C48	C	1.667844	0.371585	0.897089
C49	C	1.735682	0.304390	0.951979
C50	C	1.735708	0.304352	1.061701
C51	C	1.667886	0.371513	1.116535
C52	C	1.600048	0.438708	1.061645
C53	C	1.600032	0.438741	0.951921
C54	C	1.464398	0.573059	1.061586
C55	C	1.464376	0.573105	0.951864
C56	C	1.396576	0.640221	1.116420
C57	C	1.328742	0.707423	1.061530
C58	C	1.328720	0.707459	0.951801
C59	C	1.396538	0.640300	0.896974
H60	H	1.123885	0.342690	0.444081
H61	H	1.273521	0.762095	1.106184
H62	H	1.273466	0.762166	0.907116
H63	H	0.943065	0.640178	0.394098
H64	H	1.123482	0.679162	0.532949
H65	H	0.941760	0.342233	0.444233
H66	H	1.667929	1.204631	0.372048
H67	H	1.396598	0.640181	1.205761
C68	C	0.929933	0.449191	0.316315
C69	C	0.819329	0.444143	0.316375
C70	C	0.781272	0.466896	0.215840
H71	H	0.957264	0.399624	0.267852
H72	H	0.951801	0.517632	0.296548
H73	H	0.797471	0.375712	0.336129
H74	H	0.791970	0.493709	0.364816
H75	H	0.803140	0.535337	0.196072
H76	H	0.808610	0.417327	0.167385
H77	H	0.706224	0.463484	0.215869
H78	H	1.273511	1.105081	0.762361
C79	C	1.254857	0.891303	0.780570
C80	C	1.195488	0.962835	0.839368
C81	C	1.127498	0.908181	0.906546
H82	H	1.295251	0.848427	0.826458
H83	H	1.208598	0.848593	0.740360
H84	H	1.241741	1.005526	0.879576
H85	H	1.155072	1.005714	0.793508
H86	H	1.081239	0.865472	0.866335
H87	H	1.167900	0.865306	0.952427
H88	H	1.087201	0.956707	0.946441
H89	H	1.667840	0.371619	0.807748
H90	H	1.123066	0.443364	0.342705
H91	H	1.124940	0.530591	0.680276
H92	H	1.790801	0.906034	0.250158
H93	H	1.396531	0.640327	0.807633
H94	H	1.790900	0.249707	0.907322
C95	C	0.932386	0.700182	0.550449
C96	C	1.019017	0.751032	0.596086
C97	C	0.982838	0.828305	0.665211
H98	H	0.890707	0.668602	0.603724
H99	H	0.890769	0.749702	0.513098
H100	H	1.060617	0.701520	0.633437
H101	H	1.060705	0.782633	0.542837
H102	H	0.941222	0.877825	0.627859
H103	H	0.941159	0.796716	0.718479
H104	H	1.041611	0.862822	0.696177
H105	H	1.396388	0.806486	0.640457
H106	H	1.667687	0.806503	0.371911
C107	C	1.132864	0.366822	0.647232
C108	C	1.045838	0.300709	0.662366
C109	C	1.081345	0.200571	0.690318
H110	H	1.172638	0.370990	0.710261
H111	H	1.176197	0.339564	0.592883
H112	H	1.002522	0.327960	0.716712
H113	H	1.006055	0.296509	0.599350
H114	H	1.124679	0.173314	0.635968
H115	H	1.121120	0.204750	0.753345
H116	H	1.022305	0.155699	0.700580
C117	C	1.809474	0.231358	1.121113
C118	C	1.868881	0.172564	1.049615
C119	C	1.936854	0.105322	1.104307
H120	H	1.769067	0.185470	1.163924
H121	H	1.855711	0.271522	1.163893
H122	H	1.822650	0.132403	1.006854
H123	H	1.909310	0.218424	1.006803
H124	H	1.983090	0.145487	1.147086
H125	H	1.896437	0.059441	1.147116
H126	H	1.977176	0.065430	1.055805
C127	C	1.396743	1.234399	0.640800
C128	C	1.423794	1.270595	0.740850
C129	C	1.423983	1.380328	0.741102
H130	H	1.328390	1.259423	0.622652
H131	H	1.446895	1.259260	0.591257
H132	H	1.373645	1.245744	0.790378
H133	H	1.492148	1.245599	0.759018
H134	H	1.474134	1.405189	0.691559
H135	H	1.355627	1.405342	0.722951
H136	H	1.442346	1.404901	0.808982
H137	H	1.124965	0.641033	0.395522
H138	H	0.940773	0.398685	0.644990
H139	H	1.667904	0.371467	1.205876
C140	C	0.933243	0.557289	0.697759
C141	C	1.020338	0.607504	0.743230
C142	C	0.984970	0.680577	0.817165
H143	H	0.893849	0.522334	0.750635
H144	H	0.889574	0.607765	0.664181
H145	H	1.063989	0.557036	0.776808
H146	H	1.059741	0.642480	0.690380
H147	H	0.941301	0.731054	0.783587
H148	H	0.945576	0.645614	0.870035
H149	H	1.044057	0.714664	0.848020
H150	H	1.790919	1.105103	0.250214
