data_functionalizedCrystal
_audit_creation_method	'MofGen! by Chris Wilmer'
_symmetry_space_group_name_H-M	'P1'
_symmetry_Int_Tables_number	1
_symmetry_cell_setting	triclinic
loop_
_symmetry_equiv_pos_as_xyz
  x,y,z
_cell_length_a	10.868271
_cell_length_b	11.792241
_cell_length_c	11.792241
_cell_angle_alpha	84.193416
_cell_angle_beta	89.994719
_cell_angle_gamma	89.999893
loop_
_atom_site_label
_atom_site_type_symbol
_atom_site_fract_x
_atom_site_fract_y
_atom_site_fract_z
O1	O	0.102203	-1.506908	-0.155568
O2	O	0.352203	-1.256908	0.094432
O3	O	0.602203	-1.006908	0.344432
O4	O	0.852203	-0.756908	0.594432
O5	O	0.102232	-1.176567	-0.171601
O6	O	0.352232	-0.926567	0.078399
O7	O	0.602232	-0.676567	0.328399
O8	O	0.852232	-0.426567	0.578399
O9	O	0.102208	-1.349754	0.001586
O10	O	0.352208	-1.099754	0.251586
O11	O	0.602208	-0.849754	0.501586
O12	O	0.852208	-0.599754	0.751586
O13	O	0.102227	-1.333721	-0.328755
O14	O	0.352227	-1.083721	-0.078755
O15	O	0.602227	-0.833721	0.171245
O16	O	0.852227	-0.583721	0.421245
O17	O	-0.102436	-1.349740	0.001592
O18	O	0.147564	-1.099740	0.251592
O19	O	0.397564	-0.849740	0.501592
O20	O	0.647564	-0.599740	0.751592
O21	O	-0.102413	-1.176553	-0.171595
O22	O	0.147587	-0.926553	0.078405
O23	O	0.397587	-0.676553	0.328405
O24	O	0.647587	-0.426553	0.578405
O25	O	-0.102441	-1.506894	-0.155562
O26	O	0.147559	-1.256894	0.094438
O27	O	0.397559	-1.006894	0.344438
O28	O	0.647559	-0.756894	0.594438
Zn29	Zn	-0.134919	-1.341721	-0.163577
Zn30	Zn	0.115081	-1.091721	0.086423
Zn31	Zn	0.365081	-0.841721	0.336423
Zn32	Zn	0.615081	-0.591721	0.586423
Zn33	Zn	0.134709	-1.341740	-0.163586
Zn34	Zn	0.384709	-1.091740	0.086414
Zn35	Zn	0.634709	-0.841740	0.336414
Zn36	Zn	0.884709	-0.591740	0.586414
O37	O	-0.102418	-1.333707	-0.328749
O38	O	0.147582	-1.083707	-0.078749
O39	O	0.397582	-0.833707	0.171251
O40	O	0.647582	-0.583707	0.421251
C41	C	-0.000087	-1.134269	-0.170591
C42	C	0.249913	-0.884269	0.079409
C43	C	0.499913	-0.634269	0.329409
C44	C	0.749913	-0.384269	0.579409
C45	C	-0.000076	-1.008255	-0.167576
C46	C	0.249924	-0.758255	0.082424
C47	C	0.499924	-0.508255	0.332424
C48	C	0.749924	-0.258255	0.582424
N49	N	-0.318933	-1.341717	-0.163570
N50	N	-0.068933	-1.091717	0.086430
N51	N	0.181067	-0.841717	0.336430
N52	N	0.431067	-0.591717	0.586430
C53	C	-0.000120	-1.549192	-0.156572
C54	C	0.249880	-1.299192	0.093428
C55	C	0.499880	-1.049192	0.343428
C56	C	0.749880	-0.799192	0.593428
C57	C	-0.000123	-1.675206	-0.159587
C58	C	0.249877	-1.425206	0.090413
C59	C	0.499877	-1.175206	0.340413
C60	C	0.749877	-0.925206	0.590413
C61	C	-0.569939	-1.341734	-0.163584
C62	C	-0.319939	-1.091734	0.086416
C63	C	-0.069939	-0.841734	0.336416
C64	C	0.180061	-0.591734	0.586416
C65	C	-0.430261	-1.341721	-0.163580
C66	C	-0.180261	-1.091721	0.086420
C67	C	0.069739	-0.841721	0.336420
C68	C	0.319739	-0.591721	0.586420
N69	N	0.318723	-1.341754	-0.163584
N70	N	0.568723	-1.091754	0.086416
N71	N	0.818723	-0.841754	0.336416
N72	N	1.068723	-0.591754	0.586416
C73	C	-0.000114	-1.348740	0.043880
C74	C	0.249886	-1.098740	0.293880
C75	C	0.499886	-0.848740	0.543880
C76	C	0.749886	-0.598740	0.793880
C77	C	-0.000112	-1.345726	0.169894
C78	C	0.249888	-1.095726	0.419894
C79	C	0.499888	-0.845726	0.669894
C80	C	0.749888	-0.595726	0.919894
C81	C	-0.000112	-0.777543	-0.162034
C82	C	0.249888	-0.527543	0.087966
C83	C	0.499888	-0.277543	0.337966
C84	C	0.749888	-0.027543	0.587966
C85	C	-0.000092	-0.905928	-0.165113
C86	C	0.249908	-0.655928	0.084887
C87	C	0.499908	-0.405928	0.334887
C88	C	0.749908	-0.155928	0.584887
C89	C	-0.000093	-1.334721	-0.371043
C90	C	0.249907	-1.084721	-0.121043
C91	C	0.499907	-0.834721	0.128957
C92	C	0.749907	-0.584721	0.378957
C93	C	-0.000087	-1.337736	-0.497057
C94	C	0.249913	-1.087736	-0.247057
C95	C	0.499913	-0.837736	0.002943
C96	C	0.749913	-0.587736	0.252943
C97	C	-0.000091	-1.340183	0.400606
C98	C	0.249909	-1.090183	0.650606
C99	C	0.499909	-0.840183	0.900606
C100	C	0.749909	-0.590183	1.150606
C101	C	-0.000102	-1.343262	0.272221
C102	C	0.249898	-1.093262	0.522221
C103	C	0.499898	-0.843262	0.772221
C104	C	0.749898	-0.593262	1.022221
