data_functionalizedCrystal
_audit_creation_method	'MofGen! by Chris Wilmer'
_symmetry_space_group_name_H-M	'P1'
_symmetry_Int_Tables_number	1
_symmetry_cell_setting	triclinic
loop_
_symmetry_equiv_pos_as_xyz
  x,y,z
_cell_length_a	21.295411
_cell_length_b	15.297475
_cell_length_c	15.297327
_cell_angle_alpha	91.625546
_cell_angle_beta	80.340511
_cell_angle_gamma	99.687478
loop_
_atom_site_label
_atom_site_type_symbol
_atom_site_fract_x
_atom_site_fract_y
_atom_site_fract_z
Zn1	Zn	-0.580189	-1.278717	0.580967
Zn2	Zn	-0.489525	-1.253248	0.727401
Zn3	Zn	-0.454211	-1.132231	0.555572
Zn4	Zn	-0.574045	-1.106859	0.701998
O5	O	-0.524492	-1.192764	0.641485
O6	O	-0.585512	-1.397907	0.621651
O7	O	-0.396747	-1.237154	0.704611
O8	O	-0.458714	-1.172940	0.436378
O9	O	-0.518902	-1.379195	0.729235
O10	O	-0.551269	-1.280562	0.455036
O11	O	-0.370801	-1.148243	0.578369
O12	O	-0.452757	-1.006296	0.553737
O13	O	-0.662954	-1.129697	0.685940
O14	O	-0.540798	-0.987656	0.661316
O15	O	-0.667468	-1.255960	0.597019
O16	O	-0.512945	-1.212552	0.846594
O17	O	-0.575041	-1.105001	0.827931
C18	C	-0.492279	-0.965195	0.602015
C19	C	-0.478515	-0.867837	0.585151
C20	C	-0.547175	-1.153283	0.869046
C21	C	-0.556911	-1.136473	0.966411
C22	C	-0.688691	-1.192839	0.641479
C23	C	-0.758663	-1.192872	0.641476
C24	C	-0.793880	-1.258615	0.595172
C25	C	-0.859619	-1.258620	0.595134
C26	C	-0.890140	-1.192889	0.641417
C27	C	-0.854914	-1.127134	0.687723
C28	C	-0.789175	-1.127126	0.687753
N29	N	-1.000054	-1.172877	0.716872
N30	N	-1.062504	-1.172891	0.716842
C31	C	-1.088207	-1.192910	0.641329
N32	N	-1.049104	-1.212932	0.565849
N33	N	-0.986649	-1.212923	0.565880
C34	C	-0.961423	-1.192891	0.641390
C35	C	-1.194706	-1.258663	0.594980
C36	C	-1.260444	-1.258662	0.594939
C37	C	-1.255740	-1.127179	0.687537
C38	C	-1.190001	-1.127177	0.687569
C39	C	-1.159488	-1.192923	0.641292
C40	C	-0.360933	-1.192749	0.641436
C41	C	-0.290961	-1.192929	0.641221
C42	C	-0.556832	-1.421220	0.681110
C43	C	-0.570613	-1.518575	0.697995
C44	C	-0.622867	-0.554615	0.762023
C45	C	-0.635798	-0.646087	0.777874
C46	C	-0.596479	-0.701529	0.729695
C47	C	-0.544226	-0.665490	0.665661
C48	C	-0.531291	-0.574008	0.649813
C49	C	-0.504902	-0.720922	0.617485
C50	C	-0.452649	-0.684883	0.553451
C51	C	-0.439717	-0.593410	0.537606
C52	C	-0.479036	-0.537968	0.585785
C53	C	-0.517837	-0.812404	0.633333
C54	C	-0.426261	-0.831797	0.521123
C55	C	-0.413330	-0.740325	0.505272
C56	C	-0.501738	-1.232422	0.413039
C57	C	-0.492041	-1.249322	0.315690
C58	C	-0.455172	-1.313267	1.279644
C59	C	-0.446021	-1.329061	1.188165
C60	C	-0.473743	-1.280915	1.132722
C61	C	-0.510617	-1.216974	1.168768
C62	C	-0.519765	-1.201174	1.260256
C63	C	-0.538336	-1.168822	1.113333
C64	C	-0.575210	-1.104880	1.149379
C65	C	-0.584356	-1.089084	1.240858
C66	C	-0.556634	-1.137229	1.296301
C67	C	-0.529188	-1.184622	1.021845
C68	C	-0.593781	-1.072528	1.002457
C69	C	-0.602932	-1.056735	1.093936
H70	H	-0.888298	-1.312155	0.557423
H71	H	-1.289117	-1.312198	0.557227
H72	H	-0.432600	-1.352455	1.324792
C73	C	-0.574519	-0.851690	0.702839
C74	C	-0.577426	-0.943665	0.706426
C75	C	-0.629633	-0.979883	0.770455
H76	H	-0.613490	-0.839029	0.687589
H77	H	-0.568983	-0.826538	0.759098
H78	H	-0.582967	-0.968809	0.650179
H79	H	-0.538468	-0.956351	0.721687
H80	H	-0.624096	-0.954730	0.826714
H81	H	-0.668599	-0.967215	0.755199
H82	H	-0.631608	-1.042289	0.772902
C83	C	-0.383473	-0.891829	0.468746
C84	C	-0.334930	-0.840687	0.409300
C85	C	-0.295499	-0.895961	0.361051
H86	H	-0.408769	-0.934157	0.436741
H87	H	-0.364345	-0.921680	0.508352
H88	H	-0.354057	-0.810851	0.369699
H89	H	-0.309618	-0.798361	0.441281
H90	H	-0.276372	-0.925811	0.400657
H91	H	-0.320801	-0.938286	0.329052
H92	H	-0.262556	-0.861268	0.320717
H93	H	-0.879768	-1.073613	0.725404
H94	H	-0.632955	-1.004673	1.123298
H95	H	-0.397164	-0.564069	0.485474
H96	H	-0.499165	-1.236683	0.992505
C97	C	-0.463766	-1.298226	1.033429
C98	C	-0.425555	-1.364544	1.013730
C99	C	-0.416360	-1.380529	0.922270
H100	H	-0.442761	-1.245347	1.002884
H101	H	-0.504457	-1.316980	1.015296
H102	H	-0.384871	-1.345787	1.031853
H103	H	-0.446548	-1.417437	1.044252
H104	H	-0.457051	-1.399283	0.904137
H105	H	-0.395357	-1.327645	0.891733
H106	H	-0.390438	-1.425533	0.908893
H107	H	-1.161327	-1.073646	0.725281
C108	C	-0.692616	-0.685183	0.847272
C109	C	-0.749895	-0.666279	0.824470
C110	C	-0.802253	-0.702288	0.888375
H111	H	-0.687169	-0.660013	0.903541
H112	H	-0.694733	-0.747612	0.849809
H113	H	-0.747778	-0.603862	0.821943
H114	H	-0.755363	-0.691449	0.768211
H115	H	-0.804370	-0.764718	0.890912
H116	H	-0.796800	-0.677116	0.944640
H117	H	-0.841123	-0.689474	0.872908
H118	H	-0.468512	-0.463484	0.572881
C119	C	-0.624005	-1.020284	0.942392
C120	C	-0.691210	-1.035463	0.967904
C121	C	-0.719069	-0.987344	0.912595
H122	H	-0.613354	-1.038799	0.882723
H123	H	-0.607971	-0.958822	0.947250
H124	H	-0.707239	-1.096911	0.963037
H125	H	-0.701879	-1.016944	1.027563
H126	H	-0.703035	-0.925883	0.917453
H127	H	-0.708414	-1.005864	0.852930
H128	H	-0.764670	-0.997630	0.929902
C129	C	-1.161679	-1.330084	0.544639
C130	C	-1.206590	-1.387643	0.504051
C131	C	-1.176190	-1.453439	0.457659
H132	H	-1.144789	-1.362525	0.584689
H133	H	-1.127487	-1.303226	0.500637
H134	H	-1.240771	-1.414500	0.548048
H135	H	-1.223484	-1.355229	0.463987
H136	H	-1.141997	-1.426581	0.413657
H137	H	-1.159300	-1.485873	0.497715
H138	H	-1.206655	-1.492496	0.430108
C139	C	-0.665501	-0.494449	0.814478
C140	C	-0.663464	-0.501650	0.904962
C141	C	-0.702729	-0.446232	0.953313
H142	H	-0.708693	-0.511624	0.804455
H143	H	-0.650315	-0.434789	0.795929
H144	H	-0.678652	-0.561298	0.923506
H145	H	-0.620281	-0.484469	0.915013
H146	H	-0.687543	-0.386571	0.934764
H147	H	-0.745919	-0.463411	0.943283
H148	H	-0.701347	-0.451104	1.014711
H149	H	-1.280587	-1.073652	0.725211
H150	H	-0.769041	-1.312150	0.557489
C151	C	-0.566703	-1.120179	1.395643
C152	C	-0.632825	-1.137293	1.429717
C153	C	-0.642125	-1.121615	1.521230
H154	H	-0.549916	-1.060093	1.406721
H155	H	-0.544952	-1.158038	1.423532
H156	H	-0.654569	-1.099434	1.401837
H157	H	-0.649626	-1.197376	1.418663
H158	H	-0.620373	-1.159474	1.549119
H159	H	-0.625335	-1.061528	1.532299
H160	H	-0.686988	-1.133232	1.544362
C161	C	-0.356607	-0.701016	0.435826
C162	C	-0.353689	-0.609037	0.432279
C163	C	-0.301440	-0.572794	0.368326
H164	H	-0.362084	-0.726112	0.379538
H165	H	-0.317660	-0.713715	0.451149
H166	H	-0.392626	-0.596345	0.416951
H167	H	-0.348202	-0.583916	0.488551
H168	H	-0.262493	-0.585493	0.383649
H169	H	-0.306922	-0.597897	0.312043
H170	H	-0.299450	-0.510382	0.365917
C171	C	-0.406000	-1.398553	1.149207
C172	C	-0.383696	-1.437355	1.217341
C173	C	-0.346834	-1.501389	1.181488
H174	H	-0.370206	-1.371322	1.107771
H175	H	-0.431925	-1.442915	1.120114
H176	H	-0.357772	-1.393001	1.246419
H177	H	-0.419476	-1.464604	1.258781
H178	H	-0.372759	-1.545750	1.152396
H179	H	-0.311044	-1.474150	1.140053
H180	H	-0.331701	-1.527729	1.227712
C181	C	-0.624503	-1.019773	1.279965
C182	C	-0.687264	-1.042671	1.260975
C183	C	-0.724267	-0.978849	1.296993
H184	H	-0.605517	-0.963470	1.254855
H185	H	-0.626025	-1.017263	1.342398
H186	H	-0.685739	-1.045171	1.198555
H187	H	-0.706268	-1.098963	1.286086
H188	H	-0.725789	-0.976339	1.359426
H189	H	-0.705276	-0.922550	1.271880
H190	H	-0.766856	-0.994380	1.284121
H191	H	-0.607010	-0.776009	0.742604
H192	H	-0.760500	-1.073586	0.725458
