data_functionalizedCrystal
_audit_creation_method	'MofGen! by Chris Wilmer'
_symmetry_space_group_name_H-M	'P1'
_symmetry_Int_Tables_number	1
_symmetry_cell_setting	triclinic
loop_
_symmetry_equiv_pos_as_xyz
  x,y,z
_cell_length_a	14.908783
_cell_length_b	14.908178
_cell_length_c	14.909227
_cell_angle_alpha	96.422629
_cell_angle_beta	96.415836
_cell_angle_gamma	96.402596
loop_
_atom_site_label
_atom_site_type_symbol
_atom_site_fract_x
_atom_site_fract_y
_atom_site_fract_z
Zn1	Zn	1.398411	-0.245292	0.576755
Zn2	Zn	1.379700	-0.406565	0.415498
Zn3	Zn	1.237158	-0.263927	0.415513
Zn4	Zn	1.237139	-0.406494	0.558078
O5	O	1.313102	-0.330569	0.491461
O6	O	1.523076	-0.258916	0.563174
O7	O	1.352969	-0.395473	0.288350
O8	O	1.266387	-0.134297	0.444724
O9	O	1.509329	-0.377403	0.444699
O10	O	1.384858	-0.120606	0.563188
O11	O	1.248244	-0.290677	0.288361
O12	O	1.110008	-0.290607	0.426615
O13	O	1.266354	-0.377281	0.687706
O14	O	1.109994	-0.395351	0.531356
O15	O	1.384840	-0.258847	0.701427
O16	O	1.352951	-0.533714	0.426590
O17	O	1.248211	-0.533661	0.531342
C18	C	1.077033	-0.344994	0.476961
C19	C	0.976042	-0.351186	0.470778
C20	C	0.800582	-0.239588	0.582694
C21	C	0.705692	-0.245402	0.576888
C22	C	0.691371	-0.368623	0.453355
C23	C	0.786260	-0.362809	0.459162
C24	C	0.840863	-0.298290	0.523834
C25	C	0.935755	-0.292481	0.529644
C26	C	0.921431	-0.415697	0.406108
C27	C	0.826542	-0.421511	0.400301
C28	C	1.298574	-0.566655	0.476959
C29	C	1.292444	-0.667647	0.470790
C30	C	1.404210	-0.843012	0.582674
C31	C	1.398454	-0.937902	0.576882
C32	C	1.275172	-0.952319	0.453417
C33	C	1.280928	-0.857429	0.459210
C34	C	1.345450	-0.802779	0.523840
C35	C	1.351210	-0.707887	0.529627
C36	C	1.227925	-0.722305	0.406168
C37	C	1.222169	-0.817195	0.400375
C38	C	1.550092	-0.316089	0.506018
C39	C	1.651083	-0.309918	0.512222
C40	C	1.327682	-0.315977	0.728457
C41	C	1.333895	-0.309759	0.829451
C42	C	1.327712	-0.093559	0.506041
C43	C	1.333938	0.007441	0.512254
C44	C	1.298635	-0.345036	0.255394
C45	C	1.292613	-0.350987	0.154428
C46	C	1.404334	-0.239339	0.978941
C47	C	1.398502	-0.245178	0.884049
C48	C	1.275119	-0.368507	0.869750
C49	C	1.280952	-0.362669	0.964642
C50	C	1.345561	-0.298081	1.019234
C51	C	1.351389	-0.292239	1.114128
C52	C	1.228012	-0.415572	1.099828
C53	C	1.222179	-0.421411	1.004936
H54	H	0.672900	-0.197599	0.624816
H55	H	1.456933	-0.186741	1.023391
H56	H	1.180081	-0.689537	0.358258
H57	H	1.169635	-0.861704	0.347758
H58	H	1.180145	-0.463395	1.132644
H59	H	1.446298	-0.970656	0.624795
H60	H	1.403993	-0.239645	1.158576
H61	H	1.222638	-0.996832	0.400803
H62	H	1.456752	-0.798515	0.635292
C63	C	0.965046	-0.479398	0.342046
C64	C	0.937624	-0.466446	0.251984
C65	C	0.977774	-0.525120	0.192951
H66	H	1.029382	-0.466762	0.354641
H67	H	0.946531	-0.540630	0.350490
H68	H	0.956144	-0.405229	0.243545
H69	H	0.873294	-0.479089	0.239361
H70	H	0.959259	-0.586351	0.201395
H71	H	1.042109	-0.512479	0.205554
H72	H	0.959168	-0.516346	0.131838
C73	C	1.462362	-0.181286	0.840473
C74	C	1.520173	-0.123463	0.908597
C75	C	1.579008	-0.064584	0.868489
H76	H	1.497619	-0.215798	0.803756
H77	H	1.427793	-0.146044	0.803781
H78	H	1.554738	-0.158702	0.945273
H79	H	1.484941	-0.088931	0.945317
H80	H	1.544440	-0.029342	0.831797
H81	H	1.614259	-0.099103	0.831774
H82	H	1.618235	-0.025339	0.914704
H83	H	0.845041	-0.187058	0.635357
H84	H	0.980211	-0.239947	0.582305
H85	H	1.222524	-0.421097	0.825285
C86	C	0.767208	-0.491665	0.330233
C87	C	0.712336	-0.550166	0.374679
C88	C	0.657677	-0.614813	0.310163
H89	H	0.729808	-0.461663	0.290539
H90	H	0.804759	-0.525849	0.296021
H91	H	0.674789	-0.515986	0.408875
H92	H	0.749712	-0.580190	0.414368
H93	H	0.695228	-0.648998	0.275951
H94	H	0.620283	-0.584804	0.270473
H95	H	0.620446	-0.654520	0.340311
C96	C	1.152177	-0.491580	0.945541
C97	C	1.196692	-0.550011	0.890630
C98	C	1.132236	-0.614653	0.835894
H99	H	1.117971	-0.525828	0.983013
H100	H	1.112470	-0.461541	0.908174
H101	H	1.236383	-0.580047	0.927993
H102	H	1.230894	-0.515789	0.853140
H103	H	1.092529	-0.584615	0.798526
H104	H	1.098033	-0.648894	0.873372
H105	H	1.162430	-0.654302	0.798624
C106	C	0.632029	-0.438766	0.383282
C107	C	0.577149	-0.497267	0.427721
C108	C	0.522479	-0.561899	0.363199
H109	H	0.594634	-0.408752	0.343595
H110	H	0.669573	-0.472953	0.349063
H111	H	0.539609	-0.463084	0.461925
H112	H	0.614520	-0.527303	0.467403
H113	H	0.560023	-0.596086	0.328980
H114	H	0.485090	-0.531877	0.323516
H115	H	0.485243	-0.601605	0.393342
C116	C	1.421286	-0.648705	0.599890
C117	C	1.471492	-0.704255	0.650194
C118	C	1.536043	-0.649772	0.714941
H119	H	1.461107	-0.611365	0.569975
H120	H	1.391188	-0.611413	0.639618
H121	H	1.501588	-0.741531	0.610472
H122	H	1.431696	-0.741595	0.680129
H123	H	1.505946	-0.612480	0.754668
H124	H	1.575858	-0.612434	0.685018
H125	H	1.570111	-0.687454	0.749085
