data_functionalizedCrystal
_audit_creation_method	'MofGen! by Chris Wilmer'
_symmetry_space_group_name_H-M	'P1'
_symmetry_Int_Tables_number	1
_symmetry_cell_setting	triclinic
loop_
_symmetry_equiv_pos_as_xyz
  x,y,z
_cell_length_a	10.723024
_cell_length_b	10.723024
_cell_length_c	7.540329
_cell_angle_alpha	89.997572
_cell_angle_beta	89.997341
_cell_angle_gamma	84.467869
loop_
_atom_site_label
_atom_site_type_symbol
_atom_site_fract_x
_atom_site_fract_y
_atom_site_fract_z
O1	O	1.657186	0.175025	-0.147466
O2	O	2.157186	0.675025	0.352534
O3	O	1.294034	0.191779	-0.147472
O4	O	1.794034	0.691779	0.352528
O5	O	1.483986	0.001826	-0.147462
O6	O	1.983986	0.501826	0.352538
O7	O	1.467233	0.364978	-0.147476
O8	O	1.967233	0.864978	0.352524
O9	O	1.483975	0.001823	0.147503
O10	O	1.983975	0.501823	0.647503
O11	O	1.294022	0.191776	0.147493
O12	O	1.794022	0.691776	0.647493
O13	O	1.657175	0.175023	0.147499
O14	O	2.157175	0.675023	0.647499
Cu15	Cu	1.475597	0.183399	0.174429
Cu16	Cu	1.975597	0.683399	0.674429
Cu17	Cu	1.475611	0.183402	-0.174402
Cu18	Cu	1.975611	0.683402	0.325598
O19	O	1.467222	0.364976	0.147490
O20	O	1.967222	0.864976	0.647490
C21	C	1.247528	0.190558	0.000010
C22	C	1.747528	0.690558	0.500010
C23	C	1.108974	0.186911	0.000008
C24	C	1.608974	0.686911	0.500008
C25	C	0.917217	0.073603	0.000009
C26	C	1.417217	0.573603	0.500009
C27	C	1.060420	0.077371	0.000011
C28	C	1.560420	0.577371	0.500011
C29	C	1.482762	-0.044675	0.000018
C30	C	1.982762	0.455325	0.500018
C31	C	1.479114	-0.183229	0.000012
C32	C	1.979114	0.316771	0.500012
C33	C	1.585401	-0.258212	0.000011
C34	C	2.085401	0.241788	0.500011
C35	C	1.581634	-0.401415	0.000005
C36	C	2.081634	0.098585	0.500005
C37	C	1.703680	0.176243	0.000013
C38	C	2.203680	0.676243	0.500013
C39	C	1.842234	0.179891	0.000004
C40	C	2.342234	0.679891	0.500004
C41	C	1.468447	0.411477	0.000005
C42	C	1.968447	0.911477	0.500005
C43	C	1.472094	0.550031	-0.000000
C44	C	1.972094	1.050031	0.500000
N45	N	1.475597	0.183397	0.419777
N46	N	1.975597	0.683397	0.919777
N47	N	1.475621	0.183395	-0.419750
N48	N	1.975621	0.683395	0.080250
H49	H	1.124853	-0.013619	0.000004
H50	H	1.624853	0.486381	0.500004
Br51	Br	1.001597	0.338583	-0.000020
Br52	Br	1.501597	0.838583	0.499980
H53	H	1.385328	-0.225051	-0.000001
H54	H	1.885328	0.274949	0.499999
H55	H	0.884056	0.273677	0.000011
H56	H	1.384056	0.773677	0.500011
H57	H	1.381099	-0.385544	0.000013
H58	H	1.881099	0.114456	0.500013
Br59	Br	1.741727	-0.188520	-0.000005
Br60	Br	2.241727	0.311480	0.499995
H61	H	0.875395	-0.020182	0.000039
H62	H	1.375395	0.479818	0.500039
Br63	Br	1.733301	-0.508799	0.000025
Br64	Br	2.233301	-0.008799	0.500025
