data_functionalizedCrystal
_audit_creation_method	'MofGen! by Chris Wilmer'
_symmetry_space_group_name_H-M	'P1'
_symmetry_Int_Tables_number	1
_symmetry_cell_setting	triclinic
loop_
_symmetry_equiv_pos_as_xyz
  x,y,z
_cell_length_a	21.295418
_cell_length_b	10.686495
_cell_length_c	10.686551
_cell_angle_alpha	89.641828
_cell_angle_beta	94.415002
_cell_angle_gamma	94.327679
loop_
_atom_site_label
_atom_site_type_symbol
_atom_site_fract_x
_atom_site_fract_y
_atom_site_fract_z
Zn1	Zn	1.008017	0.444238	0.748337
Zn2	Zn	1.009158	0.670116	0.554695
Zn3	Zn	0.895330	0.460466	0.538517
Zn4	Zn	0.911356	0.653986	0.764334
O5	O	0.955965	0.557202	0.651471
O6	O	1.096259	0.474160	0.722725
O7	O	0.987829	0.655848	0.377004
O8	O	0.903094	0.282794	0.552884
O9	O	1.097097	0.640112	0.580457
O10	O	0.985885	0.270871	0.707038
O11	O	0.904200	0.501819	0.365118
O12	O	0.809365	0.486178	0.568397
O13	O	0.930407	0.612620	0.937757
O14	O	0.821139	0.628356	0.734304
O15	O	1.001424	0.458519	0.926004
O16	O	1.003369	0.843496	0.595970
O17	O	0.931514	0.831645	0.749991
C18	C	0.792411	0.557279	0.651331
C19	C	0.722444	0.557340	0.651304
C20	C	0.969322	0.883079	0.676499
C21	C	0.975095	1.022487	0.687248
C22	C	0.967576	0.531960	0.978670
C23	C	0.972524	0.521204	1.118103
C24	C	0.695725	0.631487	0.737580
C25	C	0.629983	0.631452	0.737634
C26	C	0.590963	0.557284	0.651390
C27	C	0.617689	0.483121	0.565107
C28	C	0.683430	0.483149	0.565064
N29	N	0.483406	0.555922	0.540914
N30	N	0.420955	0.555903	0.540960
C31	C	0.392890	0.557194	0.651517
N32	N	0.429635	0.558529	0.762032
N33	N	0.492091	0.558555	0.761986
C34	C	0.519678	0.557245	0.651428
C35	C	0.294886	0.631307	0.737859
C36	C	0.229143	0.631263	0.737914
C37	C	0.216850	0.482939	0.565377
C38	C	0.282592	0.482976	0.565333
C39	C	0.321606	0.557167	0.651572
C40	C	1.120158	0.557125	0.651611
C41	C	1.190127	0.557092	0.651671
C42	C	0.942541	1.230049	0.626380
C43	C	0.936737	1.090635	0.615708
C44	C	0.944432	0.582254	0.325537
C45	C	0.939591	0.592657	0.186078
H46	H	0.608224	0.691831	0.807895
C47	C	0.979538	0.341225	1.252661
C48	C	1.015699	0.427497	1.183532
H49	H	1.006192	0.283371	1.293045
H50	H	0.959550	0.384611	1.313985
H51	H	0.948354	0.297168	1.197826
H52	H	1.046880	0.471560	1.238368
H53	H	1.035698	0.384106	1.122201
H54	H	0.727487	0.691897	0.807805
H55	H	0.705184	0.422765	0.494807
C56	C	0.511455	0.417250	0.488543
C57	C	0.574801	0.401606	0.470296
H58	H	0.484979	0.366928	0.430003
H59	H	0.502963	0.392507	0.571453
H60	H	0.503460	0.502924	0.476528
H61	H	0.582796	0.315934	0.482320
H62	H	0.583296	0.426342	0.387366
C63	C	0.300436	0.777896	0.908422
C64	C	0.337775	0.712835	0.832667
H65	H	0.326914	0.828220	0.966958
H66	H	0.274783	0.830002	0.857389
H67	H	0.274295	0.719585	0.952313
H68	H	0.363913	0.771147	0.788769
H69	H	0.363439	0.660725	0.883706
C70	C	0.133828	0.697069	0.814599
C71	C	0.199770	0.712767	0.832761
H72	H	0.115695	0.747382	0.873160
H73	H	0.120772	0.721789	0.731699
H74	H	0.120295	0.611388	0.826642
H75	H	0.213303	0.798447	0.820709
H76	H	0.212831	0.688054	0.915680
C77	C	0.110620	0.417102	0.488779
C78	C	0.173967	0.401453	0.470539
H79	H	0.084145	0.366809	0.430213
H80	H	0.102121	0.392329	0.571676
H81	H	0.102633	0.502783	0.476796
H82	H	0.181955	0.315773	0.482532
H83	H	0.182469	0.426219	0.387622
C84	C	0.263836	0.336377	0.394789
C85	C	0.311966	0.401483	0.470482
H86	H	0.281972	0.286069	0.336228
H87	H	0.238210	0.284252	0.445861
H88	H	0.238692	0.394661	0.350929
H89	H	0.337108	0.343199	0.514350
H90	H	0.337603	0.453613	0.419403
C91	C	1.014862	1.046522	0.902826
C92	C	1.025389	1.087692	0.781035
H93	H	1.045914	1.086779	0.960725
H94	H	0.974091	1.066617	0.922700
H95	H	1.017453	0.958248	0.907653
H96	H	1.022794	1.175965	0.776206
H97	H	1.066171	1.067607	0.761156
C98	C	0.845411	0.944717	0.586849
C99	C	0.886436	1.025426	0.521924
H100	H	0.814356	0.904467	0.528950
H101	H	0.868702	0.883291	0.630275
H102	H	0.825344	0.991663	0.645338
H103	H	0.906506	0.978478	0.463441
H104	H	0.863142	1.086860	0.478477
C105	C	0.932582	0.772616	1.051507
C106	C	0.896419	0.686352	1.120641
H107	H	0.905927	0.830454	1.011097
H108	H	0.963758	0.816681	1.106332
H109	H	0.952578	0.729212	0.990191
H110	H	0.876426	0.729755	1.181963
H111	H	0.865232	0.642282	1.065811
