data_functionalizedCrystal
_audit_creation_method	'MofGen! by Chris Wilmer'
_symmetry_space_group_name_H-M	'P1'
_symmetry_Int_Tables_number	1
_symmetry_cell_setting	triclinic
loop_
_symmetry_equiv_pos_as_xyz
  x,y,z
_cell_length_a	16.959453
_cell_length_b	16.120566
_cell_length_c	16.959447
_cell_angle_alpha	92.915664
_cell_angle_beta	89.968936
_cell_angle_gamma	92.883922
loop_
_atom_site_label
_atom_site_type_symbol
_atom_site_fract_x
_atom_site_fract_y
_atom_site_fract_z
Zn1	Zn	-0.376007	-1.274531	-0.508193
Zn2	Zn	-0.508196	-1.274449	-0.376009
Zn3	Zn	-0.369330	-1.135124	-0.369327
Zn4	Zn	-0.501437	-1.135087	-0.501446
O5	O	-0.438742	-1.204798	-0.438743
O6	O	-0.399166	-1.391186	-0.496278
O7	O	-0.489809	-1.255949	-0.264510
O8	O	-0.259607	-1.153667	-0.387775
O9	O	-0.496284	-1.391126	-0.399163
O10	O	-0.264513	-1.256088	-0.489799
O11	O	-0.387785	-1.153588	-0.259601
O12	O	-0.381231	-1.018454	-0.381232
O13	O	-0.484764	-1.153603	-0.612953
O14	O	-0.478289	-1.018427	-0.478300
O15	O	-0.392612	-1.256052	-0.617910
O16	O	-0.617908	-1.255913	-0.392621
O17	O	-0.612942	-1.153524	-0.484779
C18	C	-0.428302	-0.988190	-0.428309
C19	C	-0.423855	-0.895524	-0.423864
C20	C	-0.415717	-0.725863	-0.415756
C21	C	-0.461836	-0.684574	-0.461738
C22	C	-0.457308	-0.590168	-0.457226
C23	C	-0.420244	-0.820277	-0.420266
C24	C	-0.644105	-1.204728	-0.438711
C25	C	-0.731964	-1.204775	-0.438727
C26	C	-1.105940	-1.258197	-0.491966
C27	C	-1.100953	-1.151632	-0.385649
C28	C	-1.018405	-1.151601	-0.385630
C29	C	-0.979622	-1.204868	-0.438780
C30	C	-1.023385	-1.258166	-0.491950
C31	C	-0.974635	-1.098298	-0.332466
C32	C	-0.892083	-1.098264	-0.332445
C33	C	-0.853298	-1.151536	-0.385592
C34	C	-0.897067	-1.204837	-0.438764
C35	C	-0.858283	-1.258104	-0.491914
C36	C	-0.902050	-1.311410	-0.545082
C37	C	-0.984600	-1.311438	-0.545097
C38	C	-0.770748	-1.151508	-0.385577
C39	C	-0.775728	-1.258073	-0.491897
C40	C	-0.232579	-1.204891	-0.438794
C41	C	-0.144724	-1.204930	-0.438816
C42	C	-0.438679	-1.204833	-0.644913
C43	C	-0.438652	-1.204847	-0.732771
C44	C	-0.449226	-0.422252	-0.449206
C45	C	-0.453700	-0.514918	-0.453631
C46	C	-0.486552	-1.151607	-1.101673
C47	C	-0.390594	-1.258287	-1.106830
C48	C	-0.390609	-1.258265	-1.024283
C49	C	-0.438598	-1.204914	-0.980427
C50	C	-0.486571	-1.151585	-1.019118
C51	C	-0.342643	-1.311599	-0.985586
C52	C	-0.342657	-1.311580	-0.903034
C53	C	-0.390643	-1.258224	-0.859176
C54	C	-0.438617	-1.204892	-0.897872
C55	C	-0.486606	-1.151540	-0.854017
C56	C	-0.534577	-1.098203	-0.892711
C57	C	-0.534557	-1.098228	-0.975261
C58	C	-0.390663	-1.258199	-0.776627
C59	C	-0.486625	-1.151518	-0.771462
C60	C	-0.438751	-1.204811	-0.233378
C61	C	-0.438564	-1.204958	-0.145529
H62	H	-0.744156	-1.301453	-0.535176
C63	C	-0.338725	-1.316206	-0.734580
C64	C	-0.386071	-1.369619	-0.689757
C65	C	-0.338251	-1.423076	-0.651023
H66	H	-0.302740	-1.284422	-0.700796
H67	H	-0.310162	-1.348035	-0.772500
H68	H	-0.414620	-1.337793	-0.651841
H69	H	-0.422054	-1.401421	-0.723522
H70	H	-0.309688	-1.454905	-0.688943
H71	H	-0.302269	-1.391286	-0.617243
H72	H	-0.370368	-1.459328	-0.620612
H73	H	-0.870463	-1.354777	-0.588361
H74	H	-0.573653	-1.054769	-0.856993
H75	H	-1.020243	-1.354836	-0.588384
H76	H	-0.351528	-1.301728	-1.142542
C77	C	-0.290447	-1.369386	-1.033239
C78	C	-0.237485	-1.322217	-1.078363
C79	C	-0.189384	-1.375424	-1.122269
H80	H	-0.322343	-1.405715	-1.067244
H81	H	-0.261835	-1.401138	-0.998401
H82	H	-0.266095	-1.290480	-1.113197
H83	H	-0.205572	-1.285891	-1.044377
H84	H	-0.160772	-1.407176	-1.087431
H85	H	-0.221287	-1.411750	-1.156270
H86	H	-0.153439	-1.343428	-1.152885
H87	H	-0.735116	-1.108103	-0.342292
C88	C	-0.538820	-1.093566	-0.723991
C89	C	-0.580839	-1.046883	-0.775550
C90	C	-0.628939	-0.993500	-0.731849
H91	H	-0.506931	-1.057172	-0.690039
H92	H	-0.574846	-1.125421	-0.693333
H93	H	-0.544817	-1.015029	-0.806194
H94	H	-0.612743	-1.083255	-0.809503
H95	H	-0.664965	-1.025355	-0.701191
H96	H	-0.597044	-0.957111	-0.697899
H97	H	-0.657460	-0.961824	-0.766825
H98	H	-1.132535	-1.108261	-0.342380
H99	H	-1.141579	-1.301600	-0.535252
C100	C	-0.844523	-1.040294	-0.274843
C101	C	-0.794570	-0.986794	-0.316966
C102	C	-0.750753	-0.933376	-0.263929
H103	H	-0.813793	-1.072102	-0.241937
H104	H	-0.879418	-1.008526	-0.243205
H105	H	-0.759678	-1.018558	-0.348591
H106	H	-0.825279	-0.954968	-0.349870
H107	H	-0.785649	-0.901608	-0.232290
H108	H	-0.720029	-0.965191	-0.231025
H109	H	-0.716861	-0.897065	-0.292501
C110	C	-0.358593	-0.678570	-0.358621
C111	C	-0.376692	-0.699649	-0.281374
C112	C	-0.324085	-0.656097	-0.228721
H113	H	-0.363065	-0.620487	-0.363022
H114	H	-0.306153	-0.692824	-0.370898
H115	H	-0.429120	-0.685389	-0.269101
H116	H	-0.372215	-0.757724	-0.276948
H117	H	-0.271644	-0.670351	-0.240997
H118	H	-0.328561	-0.598016	-0.233129
H119	H	-0.336353	-0.670399	-0.176303
C120	C	-0.290486	-1.369512	-0.861170
C121	C	-0.248443	-1.416224	-0.917246
C122	C	-0.200365	-1.469589	-0.878710
H123	H	-0.322392	-1.405889	-0.830701
H124	H	-0.254474	-1.337642	-0.827467
H125	H	-0.284451	-1.448091	-0.950936
H126	H	-0.216522	-1.379869	-0.947718
H127	H	-0.164353	-1.437719	-0.845006
H128	H	-0.232277	-1.505960	-0.848241
H129	H	-0.171828	-1.501283	-0.916751
C130	C	-1.016845	-1.040425	-0.274888
C131	C	-1.061692	-0.986997	-0.317034
C132	C	-1.100601	-0.933683	-0.264016
H133	H	-0.979049	-1.008593	-0.243197
H134	H	-1.050628	-1.072339	-0.242031
H135	H	-1.027912	-0.955087	-0.349878
H136	H	-1.099503	-1.018806	-0.348722
H137	H	-1.134384	-0.965597	-0.231158
H138	H	-1.062799	-0.901857	-0.232328
H139	H	-1.131040	-0.897431	-0.292604
C140	C	-0.586742	-1.040467	-1.017323
C141	C	-0.639680	-1.087668	-1.066951
C142	C	-0.687772	-1.034491	-1.105708
H143	H	-0.554838	-1.004152	-1.047856
H144	H	-0.615372	-1.008700	-0.979411
H145	H	-0.611052	-1.119421	-1.104858
H146	H	-0.671602	-1.123982	-1.036438
H147	H	-0.716403	-1.002724	-1.067796
H148	H	-0.655861	-0.998177	-1.136236
H149	H	-0.723701	-1.066509	-1.139379
C150	C	-0.518999	-0.732122	-0.518666
C151	C	-0.512205	-0.817663	-0.511860
C152	C	-0.564857	-0.861493	-0.564279
H153	H	-0.506889	-0.718032	-0.571169
H154	H	-0.571443	-0.717927	-0.506327
H155	H	-0.459773	-0.831852	-0.524204
H156	H	-0.524322	-0.831778	-0.459369
H157	H	-0.617300	-0.847299	-0.551939
H158	H	-0.552742	-0.847396	-0.616777
H159	H	-0.560259	-0.919537	-0.559662
C160	C	-0.538738	-1.093840	-1.143727
C161	C	-0.591678	-1.141032	-1.193361
C162	C	-0.639771	-1.087846	-1.232106
H163	H	-0.506835	-1.057518	-1.174254
H164	H	-0.567368	-1.062080	-1.105809
H165	H	-0.563051	-1.172778	-1.231274
H166	H	-0.623599	-1.177351	-1.162853
H167	H	-0.668400	-1.056086	-1.194188
H168	H	-0.607861	-1.051527	-1.262629
H169	H	-0.675701	-1.119858	-1.265781
