data_functionalizedCrystal
_audit_creation_method	'MofGen! by Chris Wilmer'
_symmetry_space_group_name_H-M	'P1'
_symmetry_Int_Tables_number	1
_symmetry_cell_setting	triclinic
loop_
_symmetry_equiv_pos_as_xyz
  x,y,z
_cell_length_a	10.723024
_cell_length_b	9.730223
_cell_length_c	10.723024
_cell_angle_alpha	89.999810
_cell_angle_beta	95.532131
_cell_angle_gamma	89.999921
loop_
_atom_site_label
_atom_site_type_symbol
_atom_site_fract_x
_atom_site_fract_y
_atom_site_fract_z
O1	O	1.657181	0.114277	-0.175022
O2	O	1.294029	0.114282	-0.191775
O3	O	1.483982	0.114274	-0.001822
O4	O	1.467228	0.114285	-0.364975
O5	O	1.483980	-0.114306	-0.001827
O6	O	1.294027	-0.114298	-0.191780
O7	O	1.657179	-0.114303	-0.175027
Zn8	Zn	1.475603	-0.150593	-0.183404
Zn9	Zn	1.475605	0.150571	-0.183398
O10	O	1.467226	-0.114295	-0.364979
C11	C	1.247528	-0.000008	-0.190558
C12	C	1.108974	-0.000006	-0.186911
N13	N	1.475610	-0.356129	-0.183408
C14	C	1.033991	-0.000002	-0.293198
C15	C	0.890788	-0.000001	-0.289431
C16	C	1.559743	-0.428058	-0.099325
C17	C	1.559739	-0.571941	-0.099310
C18	C	1.391466	-0.571953	-0.267471
C19	C	1.391464	-0.428073	-0.267479
C20	C	1.643888	-0.356115	-0.015254
C21	C	1.728029	-0.428044	0.068834
C22	C	1.728025	-0.571927	0.068849
C23	C	1.643881	-0.643881	-0.015224
C24	C	1.703680	-0.000010	-0.176243
C25	C	1.842234	-0.000003	-0.179891
N26	N	1.475608	0.356108	-0.183384
C27	C	1.482762	-0.000014	0.044675
C28	C	1.479114	-0.000009	0.183229
C29	C	1.468447	-0.000004	-0.411477
C30	C	1.472094	0.000000	-0.550031
C31	C	1.585401	-0.000009	0.258212
C32	C	1.581634	-0.000004	0.401415
H33	H	1.075814	-0.000007	-0.386984
F34	F	1.054316	-0.000019	-0.064321
F35	F	0.926441	0.000003	-0.060950
H36	H	0.826355	0.000008	-0.380421
F37	F	1.643901	-0.202982	-0.015268
F38	F	1.817566	-0.351466	0.158315
F39	F	1.817563	-0.648478	0.158350
F40	F	1.643874	-0.797015	-0.015191
F41	F	1.353153	-0.000011	0.365762
H42	H	1.322961	-0.630547	-0.335921
H43	H	1.322955	-0.369507	-0.335945
H44	H	1.385328	0.000001	0.225051
H45	H	1.679187	-0.000018	0.216390
H46	H	1.672624	-0.000009	0.465848
