data_functionalizedCrystal
_audit_creation_method	'MofGen! by Chris Wilmer'
_symmetry_space_group_name_H-M	'P1'
_symmetry_Int_Tables_number	1
_symmetry_cell_setting	triclinic
loop_
_symmetry_equiv_pos_as_xyz
  x,y,z
_cell_length_a	19.288864
_cell_length_b	10.540539
_cell_length_c	17.766277
_cell_angle_alpha	89.995823
_cell_angle_beta	89.976791
_cell_angle_gamma	83.830869
loop_
_atom_site_label
_atom_site_type_symbol
_atom_site_fract_x
_atom_site_fract_y
_atom_site_fract_z
O1	O	0.922410	0.158345	-0.062832
O2	O	0.720292	0.179706	-0.062781
O3	O	0.825962	-0.015784	-0.062807
O4	O	0.816739	0.353835	-0.062806
O5	O	0.825943	-0.015794	0.062382
O6	O	0.720273	0.179696	0.062408
O7	O	0.922391	0.158335	0.062356
Cu8	Cu	0.821330	0.169015	0.073813
Cu9	Cu	0.821352	0.169026	-0.074237
O10	O	0.816721	0.353825	0.062382
C11	C	0.694401	0.179013	-0.000180
C12	C	0.617284	0.176950	-0.000160
C13	C	0.573353	0.291654	-0.000172
C14	C	0.500893	0.289716	-0.000180
C15	C	0.472367	0.173067	-0.000192
C16	C	0.516308	0.058347	-0.000176
C17	C	0.588766	0.060289	-0.000160
C18	C	0.363500	0.081371	-0.044076
C19	C	0.291042	0.079434	-0.044097
C20	C	0.248881	0.167074	-0.000237
C21	C	0.279185	0.256671	0.043633
C22	C	0.351644	0.258613	0.043649
C23	C	0.393799	0.170949	-0.000208
C24	C	0.126381	0.279684	-0.000257
C25	C	0.053919	0.277741	-0.000261
C26	C	0.069336	0.046369	-0.000264
C27	C	0.141795	0.048315	-0.000253
C28	C	0.170313	0.164976	-0.000253
C29	C	0.825261	-0.063076	-0.000214
C30	C	0.823192	-0.203978	-0.000217
C31	C	0.743903	-0.385638	-0.000478
C32	C	0.746000	-0.239067	-0.000197
C33	C	0.860329	-0.266470	0.071262
C34	C	0.857694	-0.412955	0.071323
C35	C	0.859286	-0.413497	-0.071040
C36	C	0.859997	-0.266531	-0.071986
C37	C	0.948281	0.159027	-0.000246
C38	C	1.025399	0.161091	-0.000271
C39	C	0.817422	0.401117	-0.000212
C40	C	0.819491	0.542019	-0.000214
N41	N	0.821320	0.169006	0.177943
N42	N	0.821368	0.169025	-0.178368
C43	C	0.868126	0.082485	0.217318
C44	C	0.868130	0.082479	0.296120
C45	C	0.821334	0.169016	0.335544
C46	C	0.774519	0.255543	0.296159
C47	C	0.774512	0.255538	0.217359
C48	C	0.812807	0.284670	0.460383
C49	C	0.812819	0.284676	0.539182
C50	C	0.821353	0.169031	0.578590
C51	C	0.829889	0.053373	0.539189
C52	C	0.829882	0.053368	0.460389
C53	C	0.821337	0.169030	0.420989
C54	C	0.868166	0.082497	0.703411
C55	C	0.868165	0.082489	0.782214
C56	C	0.774558	0.255564	0.782252
C57	C	0.774555	0.255560	0.703450
C58	C	0.821363	0.169028	0.664034
H59	H	0.177565	-0.045090	-0.000247
C60	C	0.839281	-0.073847	0.582524
H61	H	0.844369	-0.142723	0.547773
H62	H	0.799566	-0.080714	0.613286
H63	H	0.879717	-0.076594	0.613240
C64	C	0.484932	-0.069963	-0.000193
H65	H	0.435486	-0.054692	-0.000213
H66	H	0.499947	-0.117184	0.043464
H67	H	0.500000	-0.117168	-0.043853
C68	C	0.037969	-0.081946	-0.000273
H69	H	0.074515	-0.149985	-0.000261
H70	H	0.010045	-0.087514	-0.043933
H71	H	0.010003	-0.087512	0.043385
C72	C	0.919620	-0.012689	0.339446
H73	H	0.912917	-0.000295	0.392021
H74	H	0.966038	0.000887	0.326505
H75	H	0.911660	-0.097380	0.326546
C76	C	0.825454	-0.208173	0.143141
H77	H	0.788267	-0.145767	0.129743
H78	H	0.858812	-0.169346	0.172059
H79	H	0.807749	-0.273451	0.171959
C80	C	0.257710	-0.019108	-0.092354
H81	H	0.208518	-0.007701	-0.086092
H82	H	0.275168	-0.102771	-0.076932
H83	H	0.268873	-0.007624	-0.143821
H84	H	0.018151	0.371151	-0.000266
C85	C	0.706229	-0.181762	0.069156
H86	H	0.707370	-0.091881	0.069561
H87	H	0.727582	-0.217485	0.113621
H88	H	0.659190	-0.200551	0.067065
C89	C	0.919605	-0.012709	0.173966
H90	H	0.947477	-0.064247	0.208707
H91	H	0.948738	0.032809	0.143203
H92	H	0.894351	-0.065442	0.143248
H93	H	0.836830	-0.040804	0.428312
H94	H	0.624535	-0.033120	-0.000151
C95	C	0.919641	-0.012696	0.660048
H96	H	0.912939	-0.000298	0.607477
H97	H	0.911678	-0.097374	0.672971
H98	H	0.966066	0.000875	0.672936
H99	H	0.834311	-0.444489	-0.125218
C100	C	0.919656	-0.012686	0.825528
H101	H	0.947535	-0.064209	0.790764
H102	H	0.894419	-0.065416	0.856285
H103	H	0.948793	0.032859	0.856248
H104	H	0.736453	0.326019	0.814350
H105	H	0.917016	-0.245379	0.073906
C106	C	0.702867	-0.425518	0.068403
H107	H	0.731600	-0.486061	0.097323
H108	H	0.662703	-0.462497	0.051978
H109	H	0.688993	-0.352592	0.098414
C110	C	0.823344	-0.210405	-0.143424
H111	H	0.785770	-0.149100	-0.129578
H112	H	0.805959	-0.276857	-0.171490
H113	H	0.855693	-0.170602	-0.173270
H114	H	0.716778	-0.195808	-0.051435
H115	H	0.736444	0.326019	0.671388
H116	H	0.916276	-0.243564	-0.076317
H117	H	0.149601	0.374676	-0.000246
H118	H	0.596567	0.386649	-0.000173
C119	C	0.934602	-0.478982	-0.071717
H120	H	0.941789	-0.533176	-0.029072
H121	H	0.966294	-0.416003	-0.070157
H122	H	0.942180	-0.528195	-0.116336
H123	H	0.397822	0.010002	-0.079796
H124	H	0.713418	-0.413555	-0.051736
C125	C	0.820588	-0.450235	0.143517
H126	H	0.807259	-0.375887	0.172530
H127	H	0.851327	-0.507977	0.172093
H128	H	0.780271	-0.489817	0.130463
H129	H	0.805846	0.378849	0.428304
C130	C	0.803435	0.411892	0.582516
H131	H	0.798340	0.480765	0.547762
H132	H	0.843158	0.418758	0.613231
H133	H	0.763006	0.414646	0.613279
C134	C	0.384980	0.357150	0.091906
H135	H	0.434171	0.345755	0.085628
H136	H	0.373822	0.345673	0.143370
H137	H	0.367522	0.440820	0.076480
C138	C	0.723047	0.350734	0.339521
H139	H	0.729760	0.338355	0.392092
H140	H	0.676625	0.337165	0.326636
H141	H	0.731011	0.435417	0.326594
H142	H	0.736396	0.325994	0.185298
C143	C	0.232821	0.353081	0.091884
H144	H	0.261246	0.406720	0.118008
H145	H	0.207462	0.308437	0.127146
H146	H	0.201157	0.403581	0.060255
C147	C	0.452560	0.415895	-0.000204
H148	H	0.479922	0.485651	-0.000208
H149	H	0.423943	0.419958	0.043441
H150	H	0.424005	0.419929	-0.043876
C151	C	0.932685	-0.479435	0.075700
H152	H	0.964623	-0.416879	0.077439
H153	H	0.942015	-0.531815	0.032592
H154	H	0.937682	-0.530606	0.119785
