data_functionalizedCrystal
_audit_creation_method	'MofGen! by Chris Wilmer'
_symmetry_space_group_name_H-M	'P1'
_symmetry_Int_Tables_number	1
_symmetry_cell_setting	triclinic
loop_
_symmetry_equiv_pos_as_xyz
  x,y,z
_cell_length_a	18.101395
_cell_length_b	18.215407
_cell_length_c	18.215399
_cell_angle_alpha	90.020595
_cell_angle_beta	89.973573
_cell_angle_gamma	89.968975
loop_
_atom_site_label
_atom_site_type_symbol
_atom_site_fract_x
_atom_site_fract_y
_atom_site_fract_z
Zn1	Zn	-0.294839	-1.125040	-0.416139
Zn2	Zn	-0.418685	-1.124935	-0.293076
Zn3	Zn	-0.294862	-1.001973	-0.293084
Zn4	Zn	-0.418643	-1.001925	-0.416099
O5	O	-0.356757	-1.063468	-0.354599
O6	O	-0.311275	-1.228010	-0.399827
O7	O	-0.402287	-1.108600	-0.190092
O8	O	-0.191226	-1.018362	-0.309428
O9	O	-0.402265	-1.227933	-0.309413
O10	O	-0.191209	-1.108779	-0.399835
O11	O	-0.311315	-1.018260	-0.190099
O12	O	-0.311274	-0.898982	-0.309390
O13	O	-0.402193	-1.018281	-0.519088
O14	O	-0.402215	-0.898947	-0.399768
O15	O	-0.311234	-1.108733	-0.519118
O16	O	-0.522312	-1.108554	-0.309375
O17	O	-0.522281	-1.018179	-0.399759
C18	C	-0.356743	-0.872262	-0.354576
C19	C	-0.356754	-0.790463	-0.354583
C20	C	-0.404180	-0.602270	-0.401581
C21	C	-0.404182	-0.525412	-0.401590
C22	C	-0.309338	-0.525418	-0.307620
C23	C	-0.309333	-0.602276	-0.307616
C24	C	-0.356759	-0.640700	-0.354596
C25	C	-0.356765	-0.486984	-0.354608
C26	C	-0.356766	-0.403650	-0.354616
C27	C	-0.356756	-0.724039	-0.354588
C28	C	-0.549168	-1.063370	-0.354578
C29	C	-0.631482	-1.063395	-0.354593
C30	C	-0.930573	-1.063557	-0.354633
C31	C	-0.899259	-1.006827	-0.411641
C32	C	-0.813641	-1.006557	-0.411463
C33	C	-0.782190	-1.063476	-0.354614
C34	C	-0.813340	-1.042479	-0.277052
C35	C	-0.898986	-1.042113	-0.277393
C36	C	-0.898917	-1.141408	-0.374503
C37	C	-0.813266	-1.140950	-0.376204
C38	C	-0.698331	-1.063432	-0.354598
C39	C	-1.014432	-1.063599	-0.354643
C40	C	-0.163595	-1.063587	-0.354637
C41	C	-0.081281	-1.063638	-0.354653
C42	C	-0.356706	-1.063513	-0.546552
C43	C	-0.356684	-1.063532	-0.628351
C44	C	-0.356770	-0.255421	-0.354620
C45	C	-0.356769	-0.337220	-0.354621
C46	C	-0.309278	-1.110648	-0.816562
C47	C	-0.309256	-1.110656	-0.893420
C48	C	-0.403976	-1.016469	-0.893379
C49	C	-0.403993	-1.016457	-0.816521
C50	C	-0.356645	-1.063551	-0.778115
C51	C	-0.356607	-1.063571	-0.931831
C52	C	-0.356584	-1.063580	-1.015165
C53	C	-0.356667	-1.063541	-0.694776
C54	C	-0.356755	-1.063466	-0.163393
C55	C	-0.356568	-1.063590	-0.081595
H56	H	-0.442795	-0.633553	-0.439837
H57	H	-0.270722	-1.148992	-0.785293
H58	H	-0.442796	-0.494126	-0.439851
N59	N	-0.786510	-0.971847	-0.255548
N60	N	-0.718596	-0.961089	-0.249439
H61	H	-0.699647	-0.911204	-0.234254
H62	H	-0.442527	-0.978129	-0.924659
H63	H	-0.270684	-1.149006	-0.924721
H64	H	-0.442565	-0.978100	-0.785217
N65	N	-0.788025	-0.934164	-0.394954
N66	N	-0.833400	-0.883682	-0.383522
H67	H	-0.815311	-0.832550	-0.371861
N68	N	-0.260902	-0.486156	-0.259639
N69	N	-0.260912	-0.417534	-0.259648
H70	H	-0.226703	-0.389805	-0.225759
H71	H	-0.792578	-1.019695	-0.468974
N72	N	-0.260880	-0.641524	-0.259619
N73	N	-0.218543	-0.607210	-0.217675
H74	H	-0.184322	-0.634929	-0.183781
H75	H	-0.920845	-0.949472	-0.398645
N76	N	-0.924988	-1.023187	-0.484030
N77	N	-0.966710	-1.076843	-0.494452
H78	H	-0.984868	-1.088413	-0.545582
N79	N	-0.924123	-0.970721	-0.256273
N80	N	-0.878413	-0.921512	-0.241385
H81	H	-0.896162	-0.871089	-0.226468
H82	H	-0.919702	-1.081640	-0.233469
H83	H	-0.792969	-1.082498	-0.233418
H84	H	-0.920466	-1.160552	-0.430096
N85	N	-0.787719	-1.160809	-0.447811
N86	N	-0.746775	-1.118103	-0.482855
H87	H	-0.728730	-1.132125	-0.533430
H88	H	-0.919166	-1.183674	-0.332981
N89	N	-0.786403	-1.196773	-0.327905
N90	N	-0.743731	-1.180293	-0.276554
H91	H	-0.724761	-1.219715	-0.242435
