data_functionalizedCrystal
_audit_creation_method	'MofGen! by Chris Wilmer'
_symmetry_space_group_name_H-M	'P1'
_symmetry_Int_Tables_number	1
_symmetry_cell_setting	triclinic
loop_
_symmetry_equiv_pos_as_xyz
  x,y,z
_cell_length_a	8.559649
_cell_length_b	8.965430
_cell_length_c	8.559649
_cell_angle_alpha	90.001792
_cell_angle_beta	110.221336
_cell_angle_gamma	89.996523
loop_
_atom_site_label
_atom_site_type_symbol
_atom_site_fract_x
_atom_site_fract_y
_atom_site_fract_z
O1	O	2.126866	0.124016	0.055041
O2	O	1.651381	0.124022	-0.028740
O3	O	1.931014	0.124017	0.250893
O4	O	1.847233	0.124021	-0.224592
O5	O	1.931025	-0.124062	0.250886
O6	O	1.651392	-0.124057	-0.028747
O7	O	2.126877	-0.124063	0.055034
Cu8	Cu	1.889135	-0.146712	0.013143
Cu9	Cu	1.889122	0.146670	0.013151
O10	O	1.847243	-0.124058	-0.224599
C11	C	1.591077	-0.000017	-0.035093
C12	C	1.411378	-0.000015	-0.053992
N13	N	1.889156	-0.353061	0.013141
C14	C	2.018513	-0.450329	0.142458
C15	C	1.875784	-0.549732	0.155979
C16	C	2.031841	-0.549785	-0.000282
C17	C	1.746362	-0.450275	0.026725
C18	C	1.902507	-0.450319	-0.129588
C19	C	1.759665	-0.549677	-0.116143
C20	C	2.187180	-0.000021	0.061387
C21	C	2.366879	-0.000014	0.080286
C22	C	1.937369	-0.000020	0.311198
C23	C	1.956268	-0.000012	0.490898
N24	N	1.889116	0.353019	0.013168
C25	C	1.840889	-0.000018	-0.284904
C26	C	1.821990	-0.000016	-0.464604
H27	H	1.311990	-0.000005	-0.183420
H28	H	1.466258	-0.000007	0.209705
O29	O	1.667500	0.000193	0.417001
C30	C	1.405448	0.128773	0.300933
C31	C	1.580345	0.128704	0.435137
H32	H	1.334946	0.232679	0.315528
H33	H	1.334726	0.025024	0.315541
H34	H	1.417243	0.128710	0.172285
H35	H	1.568703	0.128820	0.563844
H36	H	1.651002	0.232444	0.420382
O37	O	2.110767	0.000180	0.609302
C38	C	2.372811	0.128746	0.725389
C39	C	2.197911	0.128696	0.591190
H40	H	2.443305	0.232655	0.710813
H41	H	2.443538	0.025000	0.710755
H42	H	2.361022	0.128663	0.854039
H43	H	2.209548	0.128832	0.462481
H44	H	2.127249	0.232433	0.605970
H45	H	2.127819	-0.406706	0.251857
O46	O	1.862561	-0.601773	0.300129
C47	C	1.983889	-0.610126	0.599384
C48	C	1.999073	-0.551126	0.436254
H49	H	2.094224	-0.569176	0.709485
H50	H	1.982869	-0.737275	0.597603
H51	H	1.863246	-0.567519	0.611829
H52	H	2.119706	-0.593623	0.423705
H53	H	1.999997	-0.423979	0.438107
H54	H	1.625668	-0.406748	0.038229
H55	H	2.152523	-0.593496	-0.011650
H56	H	1.913882	-0.406619	-0.250256
O57	O	1.628831	-0.601338	-0.246468
C58	C	1.330653	-0.608899	-0.379539
C59	C	1.478669	-0.550317	-0.231852
H60	H	1.209213	-0.567646	-0.367791
H61	H	1.332073	-0.736052	-0.379218
H62	H	1.341112	-0.566280	-0.501019
H63	H	1.468308	-0.592825	-0.110295
H64	H	1.477200	-0.423165	-0.232320
