data_functionalizedCrystal
_audit_creation_method	'MofGen! by Chris Wilmer'
_symmetry_space_group_name_H-M	'P1'
_symmetry_Int_Tables_number	1
_symmetry_cell_setting	triclinic
loop_
_symmetry_equiv_pos_as_xyz
  x,y,z
_cell_length_a	14.044220
_cell_length_b	12.503572
_cell_length_c	9.065218
_cell_angle_alpha	86.422702
_cell_angle_beta	89.102381
_cell_angle_gamma	93.835250
loop_
_atom_site_label
_atom_site_type_symbol
_atom_site_fract_x
_atom_site_fract_y
_atom_site_fract_z
O1	O	1.266155	0.089198	0.348263
O2	O	0.990077	0.089225	0.335412
O3	O	1.133822	0.089209	0.127828
O4	O	1.122410	0.089214	0.555847
O5	O	1.123012	-0.089432	0.143468
O6	O	0.979267	-0.089415	0.351052
O7	O	1.255345	-0.089443	0.363903
Cu8	Cu	1.116319	-0.105740	0.358905
Cu9	Cu	1.129103	0.105523	0.340410
O10	O	1.111600	-0.089426	0.571487
C11	C	0.949310	-0.000091	0.337607
C12	C	0.843940	-0.000081	0.320829
N13	N	1.107334	-0.254332	0.371914
C14	C	0.651014	-0.000102	0.290159
C15	C	0.594403	-0.000106	0.409148
C16	C	0.487052	-0.000118	0.392083
C17	C	0.758375	-0.000090	0.307222
C18	C	1.094117	-0.473445	0.391064
C19	C	1.151310	-0.526779	0.308245
C20	C	1.143955	-0.648701	0.318900
C21	C	1.101470	-0.351512	0.380410
C22	C	1.296113	-0.000124	0.361708
C23	C	1.401482	-0.000127	0.378485
C24	C	1.127321	-0.000110	0.080539
C25	C	1.124041	-0.000104	-0.083668
N26	N	1.138096	0.254114	0.327390
C27	C	1.118102	-0.000105	0.618775
C28	C	1.121381	-0.000104	0.782982
H29	H	0.618860	-0.000110	0.175482
C30	C	0.637213	-0.000302	0.562124
C31	C	0.601563	-0.092215	0.646704
C32	C	0.640997	-0.092431	0.787615
H33	H	0.620651	0.061926	0.608981
H34	H	0.704715	-0.000348	0.553477
H35	H	0.534077	-0.092158	0.655356
H36	H	0.618124	-0.154457	0.599893
H37	H	0.708498	-0.092478	0.778968
H38	H	0.624432	-0.030200	0.834458
H39	H	0.616821	-0.154798	0.845015
C40	C	1.223731	-0.465383	0.202834
C41	C	1.216612	-0.354907	0.212898
C42	C	1.283224	-0.298312	0.115682
H43	H	1.211235	-0.483750	0.104557
H44	H	1.286251	-0.483554	0.228361
H45	H	1.154107	-0.336744	0.187362
H46	H	1.229118	-0.336508	0.311153
H47	H	1.345744	-0.316484	0.141209
H48	H	1.270722	-0.316688	0.017412
H49	H	1.278409	-0.223349	0.122507
H50	H	1.039633	-0.519347	0.469964
