data_functionalizedCrystal
_audit_creation_method	'MofGen! by Chris Wilmer'
_symmetry_space_group_name_H-M	'P1'
_symmetry_Int_Tables_number	1
_symmetry_cell_setting	triclinic
loop_
_symmetry_equiv_pos_as_xyz
  x,y,z
_cell_length_a	15.944551
_cell_length_b	15.624967
_cell_length_c	14.750779
_cell_angle_alpha	59.900665
_cell_angle_beta	102.647229
_cell_angle_gamma	83.888645
loop_
_atom_site_label
_atom_site_type_symbol
_atom_site_fract_x
_atom_site_fract_y
_atom_site_fract_z
O1	O	1.084680	0.148480	-0.131420
O2	O	0.838896	0.164159	-0.136902
O3	O	0.979711	0.012834	-0.084201
O4	O	0.943865	0.299806	-0.184121
O5	O	1.019517	-0.029939	0.090346
O6	O	0.878702	0.121386	0.037644
O7	O	1.124486	0.105707	0.043127
Zn8	Zn	1.007914	0.106755	0.068099
Zn9	Zn	0.955468	0.163111	-0.161874
O10	O	0.983671	0.257032	-0.009575
C11	C	1.001937	-0.045274	0.015857
C12	C	1.008848	-0.154694	0.053949
C13	C	0.827555	0.142123	-0.049406
C14	C	0.734460	0.140175	-0.048736
C15	C	1.040287	-0.332237	0.202779
C16	C	1.033790	-0.229418	0.166974
C17	C	0.990397	-0.182769	-0.023317
C18	C	0.996895	-0.285586	0.012472
C19	C	1.021839	-0.360313	0.125521
C20	C	0.978447	-0.313663	-0.064785
C21	C	0.984939	-0.416471	-0.028999
C22	C	1.009880	-0.491203	0.084044
C23	C	1.028331	-0.463121	0.161307
C24	C	0.953496	-0.238933	-0.177834
C25	C	0.935049	-0.267010	-0.255092
C26	C	0.941547	-0.369821	-0.219306
C27	C	0.966488	-0.444553	-0.106262
C28	C	0.923095	-0.397902	-0.296568
C29	C	0.929588	-0.500710	-0.260782
C30	C	0.972980	-0.547361	-0.070476
C31	C	0.527324	0.041711	-0.014434
C32	C	0.443094	0.108521	-0.116414
C33	C	0.564014	0.136643	-0.047495
C34	C	0.482361	0.066373	0.055668
C35	C	0.399372	0.133223	-0.046289
C36	C	0.480994	0.203497	-0.149556
C37	C	0.520285	0.161316	0.022608
C38	C	0.436063	0.228201	-0.079418
C39	C	0.658859	0.138610	-0.048190
C40	C	0.304525	0.131265	-0.045605
C41	C	1.135826	0.127744	-0.044372
C42	C	1.228920	0.129694	-0.045048
C43	C	0.961445	0.315141	-0.109634
C44	C	0.954532	0.424563	-0.147733
N45	N	1.043714	0.068294	0.225049
N46	N	0.919676	0.201565	-0.318822
C47	C	0.819696	0.308939	0.493059
C48	C	0.844788	0.281995	0.602942
C49	C	0.969499	0.148045	0.649555
C50	C	0.944415	0.174976	0.539674
C51	C	0.869514	0.255424	0.461434
C52	C	0.994233	0.121461	0.508050
C53	C	0.969153	0.148393	0.398178
C54	C	0.894257	0.228840	0.319930
C55	C	0.844434	0.282357	0.351562
C56	C	1.069137	0.041017	0.586290
C57	C	1.118955	-0.012498	0.554665
C58	C	1.093872	0.014429	0.444793
C59	C	1.018975	0.094876	0.366546
C60	C	1.143694	-0.039087	0.413162
C61	C	1.118615	-0.012155	0.303290
C62	C	0.993896	0.121809	0.256674
H63	H	0.993297	-0.608210	0.021580
Cl64	Cl	0.375305	0.349978	-0.121884
H65	H	0.482014	0.008375	0.142409
Cl66	Cl	0.959062	-0.088822	-0.165429
H67	H	0.783437	0.347859	0.287856
Cl68	Cl	0.588255	-0.079912	0.027798
H69	H	0.804214	0.325581	0.628681
H70	H	0.932899	0.187311	0.192968
Cl71	Cl	0.862731	0.262703	0.181802
H72	H	0.553866	0.183604	0.081401
Cl73	Cl	0.906391	-0.536010	-0.357907
H74	H	0.409538	0.086199	-0.175192
Cl75	Cl	1.018039	-0.620450	0.129036
Cl76	Cl	0.903714	-0.173064	-0.397204
H77	H	1.179942	-0.077998	0.618380
Cl78	Cl	0.725524	0.410068	0.394698
Cl79	Cl	1.063659	0.046915	0.747919
Cl80	Cl	1.100666	0.007167	0.724414
Cl81	Cl	1.181247	-0.079431	0.263531
Cl82	Cl	1.059706	-0.557074	0.303429
Cl83	Cl	1.071661	-0.426189	0.344901
Cl84	Cl	1.056994	-0.194129	0.264112
Cl85	Cl	1.237861	-0.140209	0.511527
Cl86	Cl	0.945349	-0.109689	-0.222821
H87	H	0.902778	-0.337044	-0.388613
H88	H	0.481226	0.261467	-0.236363
