data_functionalizedCrystal
_audit_creation_method	'MofGen! by Chris Wilmer'
_symmetry_space_group_name_H-M	'P1'
_symmetry_Int_Tables_number	1
_symmetry_cell_setting	triclinic
loop_
_symmetry_equiv_pos_as_xyz
  x,y,z
_cell_length_a	14.971486
_cell_length_b	10.540539
_cell_length_c	13.448316
_cell_angle_alpha	89.995557
_cell_angle_beta	89.998199
_cell_angle_gamma	84.069810
loop_
_atom_site_label
_atom_site_type_symbol
_atom_site_fract_x
_atom_site_fract_y
_atom_site_fract_z
O1	O	1.187879	0.165423	-0.082573
O2	O	1.687879	0.665423	0.417427
O3	O	0.927591	0.185233	-0.082599
O4	O	1.427591	0.685233	0.417401
O5	O	1.063673	-0.009446	-0.082584
O6	O	1.563673	0.490554	0.417416
O7	O	1.051797	0.360102	-0.082588
O8	O	1.551797	0.860102	0.417412
O9	O	1.063656	-0.009458	0.082800
O10	O	1.563656	0.490542	0.582800
O11	O	0.927574	0.185221	0.082785
O12	O	1.427574	0.685221	0.582785
O13	O	1.187862	0.165411	0.082811
O14	O	1.687862	0.665411	0.582811
Cu15	Cu	1.057716	0.175315	0.097899
Cu16	Cu	1.557716	0.675315	0.597899
Cu17	Cu	1.057737	0.175329	-0.097687
Cu18	Cu	1.557737	0.675329	0.402313
O19	O	1.051779	0.360090	0.082796
O20	O	1.551779	0.860090	0.582796
C21	C	0.894253	0.184341	0.000089
C22	C	1.394253	0.684341	0.500089
C23	C	0.794940	0.181686	0.000079
C24	C	1.294940	0.681686	0.500079
C25	C	0.738360	0.296055	0.000079
C26	C	1.238360	0.796055	0.500079
C27	C	0.645046	0.293553	0.000094
C28	C	1.145046	0.793553	0.500094
C29	C	0.608315	0.176681	0.000102
C30	C	1.108315	0.676681	0.500102
C31	C	0.664903	0.062303	0.000104
C32	C	1.164903	0.562303	0.500104
C33	C	0.758215	0.064807	0.000097
C34	C	1.258215	0.564807	0.500097
C35	C	0.470412	0.057094	0.000118
C36	C	0.970412	0.557094	0.500118
C37	C	0.377093	0.054590	0.000124
C38	C	0.877093	0.554590	0.500124
C39	C	0.357242	0.285839	0.000116
C40	C	0.857242	0.785839	0.500116
C41	C	0.450554	0.288343	0.000108
C42	C	0.950554	0.788343	0.500108
C43	C	0.507136	0.173965	0.000109
C44	C	1.007136	0.673965	0.500109
C45	C	1.062774	-0.056745	0.000106
C46	C	1.562774	0.443255	0.500106
C47	C	1.060109	-0.197662	0.000100
C48	C	1.560109	0.302338	0.500100
C49	C	0.958001	-0.379931	-0.000281
C50	C	1.458001	0.120069	0.499719
C51	C	0.960702	-0.233343	0.000091
C52	C	1.460702	0.266657	0.500091
C53	C	1.107939	-0.259870	0.094547
C54	C	1.607939	0.240130	0.594547
C55	C	1.104546	-0.406376	0.094627
C56	C	1.604546	0.093624	0.594627
C57	C	1.106588	-0.406903	-0.093445
C58	C	1.606588	0.093097	0.406555
C59	C	1.107503	-0.259932	-0.094694
C60	C	1.607503	0.240068	0.405306
C61	C	1.221200	0.166303	0.000121
C62	C	1.721200	0.666303	0.500121
C63	C	1.320512	0.168958	0.000124
C64	C	1.820512	0.668958	0.500124
C65	C	1.052679	0.407389	0.000104
C66	C	1.552679	0.907389	0.500104
C67	C	1.055344	0.548307	0.000103
C68	C	1.555344	1.048307	0.500103
N69	N	1.057708	0.175304	0.235463
N70	N	1.557708	0.675304	0.735463
N71	N	1.057752	0.175330	-0.235251
N72	N	1.557752	0.675330	0.264749
C73	C	1.117985	0.089136	0.287510
C74	C	1.617985	0.589136	0.787510
C75	C	1.117990	0.089135	0.391613
C76	C	1.617990	0.589135	0.891613
C77	C	1.057723	0.175309	0.443668
C78	C	1.557723	0.675309	0.943668
C79	C	0.997440	0.261482	0.391613
C80	C	1.497440	0.761482	0.891613
C81	C	0.997431	0.261476	0.287512
C82	C	1.497431	0.761476	0.787512
C83	C	0.997465	0.261490	0.608593
C84	C	1.497465	0.761490	1.108593
C85	C	0.997475	0.261498	0.712702
C86	C	1.497475	0.761498	1.212702
C87	C	1.118024	0.089150	0.712695
C88	C	1.618024	0.589150	1.212695
C89	C	1.118015	0.089144	0.608593
C90	C	1.618015	0.589144	1.108593
C91	C	1.057733	0.175318	0.556546
C92	C	1.557733	0.675318	1.056546
H93	H	0.311169	0.378970	0.000119
H94	H	0.811169	0.878970	0.500119
F95	F	0.933274	0.353185	0.232121
F96	F	1.433274	0.853185	0.732121
F97	F	0.911144	-0.178203	0.088721
F98	F	1.411144	0.321797	0.588721
F99	F	0.933329	0.353216	0.768095
F100	F	1.433329	0.853216	1.268095
H101	H	0.347191	-0.040578	0.000131
H102	H	0.847191	0.459422	0.500131
H103	H	0.598981	0.386683	0.000093
H104	H	1.098981	0.886683	0.500093
F105	F	0.906680	-0.416720	-0.088811
F106	F	1.406680	0.083280	0.411189
F107	F	0.625809	-0.062081	0.000119
F108	F	1.125809	0.437919	0.500119
H109	H	1.167094	0.018980	0.566211
H110	H	1.667094	0.518980	1.066211
H111	H	0.480457	0.383510	0.000092
H112	H	0.980457	0.883510	0.500092
H113	H	0.804283	-0.028324	0.000096
H114	H	1.304283	0.471676	0.500096
F115	F	0.530628	-0.064641	0.000122
F116	F	1.030628	0.435359	0.500122
H117	H	0.918885	-0.409699	0.067062
H118	H	1.418885	0.090301	0.567062
F119	F	0.911510	-0.177089	-0.088402
F120	F	1.411510	0.322911	0.411598
H121	H	0.768258	0.391225	0.000072
H122	H	1.268258	0.891225	0.500072
H123	H	1.069183	-0.434179	0.165221
H124	H	1.569183	0.065821	0.665221
H125	H	1.176038	-0.455156	0.098919
H126	H	1.676038	0.044844	0.598919
H127	H	0.948374	0.331659	0.566220
H128	H	1.448374	0.831659	1.066220
F129	F	1.203358	-0.231737	0.099151
F130	F	1.703358	0.268263	0.599151
F131	F	1.064494	-0.203707	0.186407
F132	F	1.564494	0.296293	0.686407
H133	H	1.074422	-0.438086	-0.165030
H134	H	1.574422	0.061914	0.334970
F135	F	1.062119	-0.205411	-0.186032
F136	F	1.562119	0.294589	0.313968
H137	H	1.179979	-0.236532	-0.100390
H138	H	1.679979	0.263468	0.399610
F139	F	1.200437	-0.469697	-0.094268
F140	F	1.700437	0.030303	0.405732
F141	F	0.933294	0.353190	0.447014
F142	F	1.433294	0.853190	0.947014
H143	H	1.167065	0.018968	0.245134
H144	H	1.667065	0.518968	0.745134
H145	H	1.167071	0.018970	0.433990
H146	H	1.667071	0.518970	0.933990
H147	H	1.167108	0.018984	0.755078
H148	H	1.667108	0.518984	1.255078
