data_functionalizedCrystal
_audit_creation_method	'MofGen! by Chris Wilmer'
_symmetry_space_group_name_H-M	'P1'
_symmetry_Int_Tables_number	1
_symmetry_cell_setting	triclinic
loop_
_symmetry_equiv_pos_as_xyz
  x,y,z
_cell_length_a	16.120530
_cell_length_b	18.101395
_cell_length_c	16.120256
_cell_angle_alpha	92.874436
_cell_angle_beta	90.128265
_cell_angle_gamma	87.126665
loop_
_atom_site_label
_atom_site_type_symbol
_atom_site_fract_x
_atom_site_fract_y
_atom_site_fract_z
Zn1	Zn	1.247384	-0.375205	-0.534567
Zn2	Zn	1.497384	-0.125205	-0.284567
Zn3	Zn	1.747384	0.124795	-0.034567
Zn4	Zn	1.997384	0.374795	0.215433
Zn5	Zn	1.254317	-0.493093	-0.395509
Zn6	Zn	1.504317	-0.243093	-0.145509
Zn7	Zn	1.754317	0.006907	0.104491
Zn8	Zn	2.004317	0.256907	0.354491
Zn9	Zn	1.115376	-0.362686	-0.388485
Zn10	Zn	1.365376	-0.112686	-0.138485
Zn11	Zn	1.615376	0.137314	0.111515
Zn12	Zn	1.865376	0.387314	0.361515
Zn13	Zn	1.108274	-0.492415	-0.527479
Zn14	Zn	1.358274	-0.242415	-0.277479
Zn15	Zn	1.608274	0.007585	-0.027479
Zn16	Zn	1.858274	0.257585	0.222521
O17	O	1.181338	-0.430850	-0.461510
O18	O	1.431338	-0.180850	-0.211510
O19	O	1.681338	0.069150	0.038490
O20	O	1.931338	0.319150	0.288490
O21	O	1.364669	-0.396365	-0.522027
O22	O	1.614669	-0.146365	-0.272027
O23	O	1.864669	0.103635	-0.022027
O24	O	2.114669	0.353635	0.227973
O25	O	1.241760	-0.470839	-0.278212
O26	O	1.491760	-0.220839	-0.028212
O27	O	1.741760	0.029161	0.221788
O28	O	1.991760	0.279161	0.471788
O29	O	1.132958	-0.260718	-0.407890
O30	O	1.382958	-0.010718	-0.157890
O31	O	1.632958	0.239282	0.092110
O32	O	1.882958	0.489282	0.342110
O33	O	1.369763	-0.482978	-0.419862
O34	O	1.619763	-0.232978	-0.169862
O35	O	1.869763	0.017022	0.080138
O36	O	2.119763	0.267022	0.330138
O37	O	1.229944	-0.269915	-0.515216
O38	O	1.479944	-0.019915	-0.265216
O39	O	1.729944	0.230085	-0.015216
O40	O	1.979944	0.480085	0.234784
O41	O	1.139681	-0.375030	-0.273051
O42	O	1.389681	-0.125030	-0.023051
O43	O	1.639681	0.124970	0.226949
O44	O	1.889681	0.374970	0.476949
O45	O	0.998069	-0.374372	-0.401017
O46	O	1.248069	-0.124372	-0.151017
O47	O	1.498069	0.125628	0.098983
O48	O	1.748069	0.375628	0.348983
O49	O	1.120853	-0.481821	-0.644785
O50	O	1.370853	-0.231821	-0.394785
O51	O	1.620853	0.018179	-0.144785
O52	O	1.870853	0.268179	0.105215
O53	O	0.992850	-0.469683	-0.503135
O54	O	1.242850	-0.219683	-0.253135
O55	O	1.492850	0.030317	-0.003135
O56	O	1.742850	0.280317	0.246865
O57	O	1.223057	-0.395708	-0.649993
O58	O	1.473057	-0.145708	-0.399993
O59	O	1.723057	0.104292	-0.149993
O60	O	1.973057	0.354292	0.100007
O61	O	1.234873	-0.596632	-0.412989
O62	O	1.484873	-0.346632	-0.162989
O63	O	1.734873	-0.096632	0.087011
O64	O	1.984873	0.153368	0.337011
O65	O	1.127576	-0.596133	-0.509947
O66	O	1.377576	-0.346133	-0.259947
O67	O	1.627576	-0.096133	-0.009947
O68	O	1.877576	0.153867	0.240053
C69	C	0.965287	-0.420596	-0.450545
C70	C	1.215287	-0.170596	-0.200545
C71	C	1.465287	0.079404	0.049455
C72	C	1.715287	0.329404	0.299455
C73	C	0.872859	-0.416229	-0.445874
C74	C	1.122859	-0.166229	-0.195874
C75	C	1.372859	0.083771	0.054126
C76	C	1.622859	0.333771	0.304126
C77	C	0.703630	-0.408237	-0.437352
C78	C	0.953630	-0.158237	-0.187352
C79	C	1.203630	0.091763	0.062648
C80	C	1.453630	0.341763	0.312648
C81	C	0.659882	-0.453519	-0.485729
C82	C	0.909882	-0.203519	-0.235729
C83	C	1.159882	0.046481	0.014271
C84	C	1.409882	0.296481	0.264271
C85	C	0.565718	-0.449073	-0.480988
C86	C	0.815718	-0.199073	-0.230988
C87	C	1.065718	0.050927	0.019012
C88	C	1.315718	0.300927	0.269012
C89	C	0.797803	-0.412683	-0.442092
C90	C	1.047803	-0.162683	-0.192092
C91	C	1.297803	0.087317	0.057908
C92	C	1.547803	0.337317	0.307908
C93	C	1.181228	-0.623254	-0.461480
C94	C	1.431228	-0.373254	-0.211480
C95	C	1.681228	-0.123254	0.038520
C96	C	1.931228	0.126746	0.288520
C97	C	1.181255	-0.705570	-0.461499
C98	C	1.431255	-0.455570	-0.211499
C99	C	1.681255	-0.205570	0.038501
C100	C	1.931255	0.044430	0.288501
C101	C	1.181435	-1.004672	-0.461553
C102	C	1.431435	-0.754672	-0.211553
C103	C	1.681435	-0.504672	0.038447
C104	C	1.931435	-0.254672	0.288447
C105	C	1.114068	-0.973078	-0.522723
C106	C	1.364068	-0.723078	-0.272723
C107	C	1.614068	-0.473078	-0.022723
C108	C	1.864068	-0.223078	0.227277
C109	C	1.113773	-0.887437	-0.522506
C110	C	1.363773	-0.637437	-0.272506
C111	C	1.613773	-0.387437	-0.022506
C112	C	1.863773	-0.137437	0.227494
C113	C	1.181346	-0.856284	-0.461527
C114	C	1.431346	-0.606284	-0.211527
C115	C	1.681346	-0.356284	0.038473
C116	C	1.931346	-0.106284	0.288473
C117	C	1.162064	-0.882558	-0.372687
C118	C	1.412064	-0.632558	-0.122687
C119	C	1.662064	-0.382558	0.127313
C120	C	1.912064	-0.132558	0.377313
C121	C	1.161631	-0.968200	-0.373052
C122	C	1.411631	-0.718200	-0.123052
C123	C	1.661631	-0.468200	0.126948
C124	C	1.911631	-0.218200	0.376948
C125	C	1.268265	-0.978145	-0.488458
C126	C	1.518265	-0.728145	-0.238458
C127	C	1.768265	-0.478145	0.011542
C128	C	2.018265	-0.228145	0.261542
C129	C	1.267650	-0.892552	-0.490354
C130	C	1.517650	-0.642552	-0.240354
C131	C	1.767650	-0.392552	0.009646
C132	C	2.017650	-0.142552	0.259646
C133	C	1.181297	-0.772421	-0.461507
C134	C	1.431297	-0.522421	-0.211507
C135	C	1.681297	-0.272421	0.038493
C136	C	1.931297	-0.022421	0.288493
C137	C	1.181483	-1.088534	-0.461567
C138	C	1.431483	-0.838534	-0.211567
C139	C	1.681483	-0.588534	0.038433
C140	C	1.931483	-0.338534	0.288433
C141	C	1.398232	-0.441144	-0.472519
C142	C	1.648232	-0.191144	-0.222519
C143	C	1.898232	0.058856	0.027481
C144	C	2.148232	0.308856	0.277481
C145	C	1.490659	-0.445530	-0.477210
C146	C	1.740659	-0.195530	-0.227210
C147	C	1.990659	0.054470	0.022790
C148	C	2.240659	0.304470	0.272790
C149	C	1.170389	-0.440085	-0.678405
C150	C	1.420389	-0.190085	-0.428405
C151	C	1.670389	0.059915	-0.178405
C152	C	1.920389	0.309915	0.071595
C153	C	1.165723	-0.444021	-0.770833
C154	C	1.415723	-0.194021	-0.520833
C155	C	1.665723	0.055979	-0.270833
C156	C	1.915723	0.305979	-0.020833
C157	C	1.181470	-0.237696	-0.461560
C158	C	1.431470	0.012304	-0.211560
C159	C	1.681470	0.262304	0.038440
C160	C	1.931470	0.512304	0.288440
C161	C	1.181526	-0.155385	-0.461581
C162	C	1.431526	0.094615	-0.211581
C163	C	1.681526	0.344615	0.038419
C164	C	1.931526	0.594615	0.288419
C165	C	1.205667	-0.410307	-0.983817
C166	C	1.455667	-0.160307	-0.733817
C167	C	1.705667	0.089693	-0.483817
C168	C	1.955667	0.339693	-0.233817
C169	C	1.157177	-0.451174	-0.940053
C170	C	1.407177	-0.201174	-0.690053
C171	C	1.657177	0.048826	-0.440053
C172	C	1.907177	0.298826	-0.190053
C173	C	1.161934	-0.447193	-0.845890
C174	C	1.411934	-0.197193	-0.595890
C175	C	1.661934	0.052807	-0.345890
C176	C	1.911934	0.302807	-0.095890
C177	C	1.200912	-0.414287	-1.077988
C178	C	1.450912	-0.164287	-0.827988
C179	C	1.700912	0.085713	-0.577988
C180	C	1.950912	0.335713	-0.327988
C181	C	1.192292	-0.421599	-0.245461
C182	C	1.442292	-0.171599	0.004539
C183	C	1.692292	0.078401	0.254539
C184	C	1.942292	0.328401	0.504539
C185	C	1.197118	-0.417462	-0.153042
C186	C	1.447118	-0.167462	0.096958
C187	C	1.697118	0.082538	0.346958
C188	C	1.947118	0.332538	0.596958
H189	H	0.670366	-0.366134	-0.392377
H190	H	0.920366	-0.116134	-0.142377
H191	H	1.170366	0.133866	0.107623
H192	H	1.420366	0.383866	0.357623
H193	H	1.125322	-0.869858	-0.588241
H194	H	1.375322	-0.619858	-0.338241
H195	H	1.625322	-0.369858	-0.088241
H196	H	1.875322	-0.119858	0.161759
Br197	Br	1.056062	-0.995175	-0.335926
Br198	Br	1.306062	-0.745175	-0.085926
Br199	Br	1.556062	-0.495175	0.164074
Br200	Br	1.806062	-0.245175	0.414074
H201	H	1.125459	-0.997113	-0.588661
H202	H	1.375459	-0.747113	-0.338661
H203	H	1.625459	-0.497113	-0.088661
H204	H	1.875459	-0.247113	0.161339
Br205	Br	1.280796	-0.346998	-0.928399
Br206	Br	1.530796	-0.096998	-0.678399
Br207	Br	1.780796	0.153002	-0.428399
Br208	Br	2.030796	0.403002	-0.178399
Br209	Br	1.007293	-1.002910	-0.492802
Br210	Br	1.257293	-0.752910	-0.242802
Br211	Br	1.507293	-0.502910	0.007198
Br212	Br	1.757293	-0.252910	0.257198
Br213	Br	1.240257	-1.002720	-0.294094
Br214	Br	1.490257	-0.752720	-0.044094
Br215	Br	1.740257	-0.502720	0.205906
Br216	Br	1.990257	-0.252720	0.455906
Br217	Br	1.006351	-0.847178	-0.492223
Br218	Br	1.256351	-0.597178	-0.242223
Br219	Br	1.506351	-0.347178	0.007777
Br220	Br	1.756351	-0.097178	0.257777
Br221	Br	0.715323	-0.523694	-0.560704
Br222	Br	0.965323	-0.273694	-0.310704
Br223	Br	1.215323	-0.023694	-0.060704
Br224	Br	1.465323	0.226306	0.189296
Br225	Br	1.241599	-0.848664	-0.294323
Br226	Br	1.491599	-0.598664	-0.044323
Br227	Br	1.741599	-0.348664	0.205677
Br228	Br	1.991599	-0.098664	0.455677
H229	H	1.099423	-0.857330	-0.350107
H230	H	1.349423	-0.607330	-0.100107
H231	H	1.599423	-0.357330	0.149893
H232	H	1.849423	-0.107330	0.399893
H233	H	1.286710	-1.003408	-0.552370
H234	H	1.536710	-0.753408	-0.302370
H235	H	1.786710	-0.503408	-0.052370
H236	H	2.036710	-0.253408	0.197630
Br237	Br	1.292024	-0.864632	-0.599365
Br238	Br	1.542024	-0.614632	-0.349365
Br239	Br	1.792024	-0.364632	-0.099365
Br240	Br	2.042024	-0.114632	0.150635
H241	H	1.320141	-0.871660	-0.449403
H242	H	1.570141	-0.621660	-0.199403
H243	H	1.820141	-0.371660	0.050597
H244	H	2.070141	-0.121660	0.300597
Br245	Br	1.351833	-1.012335	-0.414306
Br246	Br	1.601833	-0.762335	-0.164306
Br247	Br	1.851833	-0.512335	0.085694
Br248	Br	2.101833	-0.262335	0.335694
H249	H	1.112087	-0.489148	-0.973304
H250	H	1.362087	-0.239148	-0.723304
H251	H	1.612087	0.010852	-0.473304
H252	H	1.862087	0.260852	-0.223304
