data_functionalizedCrystal
_audit_creation_method	'MofGen! by Chris Wilmer'
_symmetry_space_group_name_H-M	'P1'
_symmetry_Int_Tables_number	1
_symmetry_cell_setting	triclinic
loop_
_symmetry_equiv_pos_as_xyz
  x,y,z
_cell_length_a	12.759401
_cell_length_b	19.120786
_cell_length_c	12.759393
_cell_angle_alpha	92.477119
_cell_angle_beta	90.018567
_cell_angle_gamma	92.464298
loop_
_atom_site_label
_atom_site_type_symbol
_atom_site_fract_x
_atom_site_fract_y
_atom_site_fract_z
Zn1	Zn	1.588334	-0.279608	0.576098
Zn2	Zn	1.580698	-0.397085	0.392904
Zn3	Zn	1.412634	-0.279643	0.400435
Zn4	Zn	1.405098	-0.397028	0.568549
O5	O	1.496691	-0.338341	0.484496
O6	O	1.734341	-0.295201	0.551805
O7	O	1.558362	-0.381544	0.246879
O8	O	1.442290	-0.181347	0.430048
O9	O	1.728732	-0.381510	0.417213
O10	O	1.571376	-0.181322	0.559107
O11	O	1.434886	-0.295259	0.252412
O12	O	1.264614	-0.295205	0.422728
O13	O	1.429447	-0.381414	0.716574
O14	O	1.259077	-0.381448	0.546240
O15	O	1.564069	-0.295146	0.722120
O16	O	1.551056	-0.495368	0.409892
O17	O	1.422043	-0.495327	0.538938
C18	C	1.223725	-0.338324	0.484483
C19	C	1.106947	-0.338334	0.484501
C20	C	1.054994	-0.293478	0.554682
C21	C	0.945269	-0.293491	0.554687
C22	C	0.939460	-0.383224	0.414328
C23	C	1.049183	-0.383206	0.414318
C24	C	1.112758	-0.248606	0.624864
C25	C	1.060805	-0.203746	0.695052
C26	C	0.951080	-0.203759	0.695057
C27	C	0.893308	-0.248633	0.624876
C28	C	1.484932	-0.520833	0.472801
C29	C	1.479997	-0.598904	0.467833
C30	C	1.544837	-0.635508	0.532748
C31	C	1.540196	-0.708864	0.528082
C32	C	1.470720	-0.745614	0.458495
C33	C	1.405873	-0.709005	0.393578
C34	C	1.410509	-0.635650	0.398250
C35	C	1.453357	-0.967101	0.441028
C36	C	1.448728	-1.040461	0.436359
C37	C	1.583050	-1.040315	0.570865
C38	C	1.587685	-0.966959	0.575526
C39	C	1.522834	-0.930356	0.510613
C40	C	1.465977	-0.820596	0.453721
C41	C	1.527572	-0.855376	0.515393
C42	C	1.770723	-0.338358	0.484511
C43	C	1.887499	-0.338365	0.484517
C44	C	1.496769	-0.338270	0.758534
C45	C	1.496802	-0.338240	0.875313
C46	C	1.508525	-0.155136	0.496260
C47	C	1.513568	-0.077065	0.501273
C48	C	1.496677	-0.338361	0.211528
C49	C	1.496860	-0.338193	0.094762
C50	C	1.566910	-0.293316	0.933065
C51	C	1.566936	-0.293290	1.042791
C52	C	1.426745	-0.383119	1.037002
C53	C	1.426714	-0.383141	0.927279
C54	C	1.636998	-0.248415	0.881099
C55	C	1.707112	-0.203488	0.938852
C56	C	1.707139	-0.203462	1.048577
C57	C	1.637051	-0.248364	1.100551
H58	H	1.107849	-0.167208	0.752185
H59	H	1.764168	-0.166926	0.896528
H60	H	0.908783	-0.167227	0.752200
H61	H	1.601416	-0.605591	0.589408
H62	H	1.091485	-0.419733	0.357171
H63	H	1.593004	-0.738664	0.580934
H64	H	0.892414	-0.419759	0.357192
H65	H	1.644258	-0.937038	0.632189
H66	H	0.803964	-0.248625	0.624865
H67	H	1.392147	-1.070381	0.379692
H68	H	1.409412	-0.850526	0.397060
H69	H	1.764221	-0.166875	1.095597
H70	H	1.369611	-0.419711	0.880257
H71	H	1.400555	-0.937305	0.388171
H72	H	1.349300	-0.738933	0.336923
H73	H	1.635847	-1.070125	0.623714
H74	H	1.357708	-0.605848	0.345391
H75	H	1.584136	-0.825452	0.572054
H76	H	1.636986	-0.248432	0.791755
H77	H	1.637067	-0.248332	1.189898
H78	H	1.369683	-0.419676	1.079328
H79	H	1.202102	-0.248589	0.624867
