data_functionalizedCrystal
_audit_creation_method	'MofGen! by Chris Wilmer'
_symmetry_space_group_name_H-M	'P1'
_symmetry_Int_Tables_number	1
_symmetry_cell_setting	triclinic
loop_
_symmetry_equiv_pos_as_xyz
  x,y,z
_cell_length_a	23.532407
_cell_length_b	23.532407
_cell_length_c	22.610064
_cell_angle_alpha	89.999397
_cell_angle_beta	89.997161
_cell_angle_gamma	82.848678
loop_
_atom_site_label
_atom_site_type_symbol
_atom_site_fract_x
_atom_site_fract_y
_atom_site_fract_z
O1	O	0.755263	0.069127	-0.049117
O2	O	1.255263	0.569127	0.450883
O3	O	0.589400	0.079130	-0.049135
O4	O	1.089400	0.579130	0.450865
O5	O	0.677333	-0.008803	-0.049114
O6	O	1.177333	0.491197	0.450886
O7	O	0.667330	0.157060	-0.049137
O8	O	1.167330	0.657060	0.450863
O9	O	0.677318	-0.008790	0.049255
O10	O	1.177318	0.491210	0.549255
O11	O	0.589385	0.079143	0.049234
O12	O	1.089385	0.579143	0.549234
O13	O	0.755248	0.069140	0.049252
O14	O	1.255248	0.569140	0.549252
Zn15	Zn	0.672314	0.074144	0.064862
Zn16	Zn	1.172314	0.574144	0.564862
Zn17	Zn	0.672334	0.074127	-0.064744
Zn18	Zn	1.172334	0.574127	0.435256
O19	O	0.667315	0.157073	0.049232
O20	O	1.167315	0.657073	0.549232
C21	C	0.568176	0.078882	0.000048
C22	C	1.068176	0.578882	0.500048
C23	C	0.504959	0.078116	0.000041
C24	C	1.004959	0.578116	0.500041
C25	C	0.677071	-0.030013	0.000072
C26	C	1.177071	0.469987	0.500072
C27	C	0.676305	-0.093230	0.000076
C28	C	1.176305	0.406770	0.500076
C29	C	0.105856	0.125350	0.000061
C30	C	0.605856	0.625350	0.500061
C31	C	0.046456	0.124638	0.000065
C32	C	0.546456	0.624638	0.500065
O33	O	0.009711	0.168424	0.000081
O34	O	0.509711	0.668424	0.500081
N35	N	0.023830	0.072362	0.000071
N36	N	0.523830	0.572362	0.500071
C37	C	0.060607	0.020794	0.000080
C38	C	0.560607	0.520794	0.500080
O39	O	0.035908	-0.023737	0.000086
O40	O	0.535908	0.476263	0.500086
C41	C	0.120006	0.021506	0.000080
C42	C	0.620006	0.521506	0.500080
C43	C	0.142629	0.073785	0.000068
C44	C	0.642629	0.573785	0.500068
C45	C	0.128479	0.177625	0.000050
C46	C	0.628479	0.677625	0.500050
C47	C	0.187876	0.178336	0.000045
C48	C	0.687876	0.678336	0.500045
C49	C	0.224649	0.126772	0.000052
C50	C	0.724649	0.626772	0.500052
C51	C	0.202025	0.074497	0.000063
C52	C	0.702025	0.574497	0.500063
C53	C	0.156783	-0.030062	0.000093
C54	C	0.656783	0.469938	0.500093
C55	C	0.216185	-0.029345	0.000094
C56	C	0.716185	0.470655	0.500094
C57	C	0.238808	0.022934	0.000082
C58	C	0.738808	0.522934	0.500082
C59	C	0.298194	0.023643	0.000065
C60	C	0.798194	0.523643	0.500065
N61	N	0.320820	0.075920	0.000059
N62	N	0.820820	0.575920	0.500059
C63	C	0.284048	0.127484	0.000052
C64	C	0.784048	0.627484	0.500052
C65	C	-0.064135	0.019302	0.000080
C66	C	0.435865	0.519302	0.500080
C67	C	-0.123533	0.018589	0.000075
C68	C	0.376467	0.518589	0.500075
C69	C	-0.137680	0.122434	0.000061
C70	C	0.362320	0.622434	0.500061
C71	C	-0.078281	0.123146	0.000062
C72	C	0.421719	0.623146	0.500062
C73	C	-0.041509	0.071578	0.000074
C74	C	0.458491	0.571578	0.500074
C75	C	0.408784	0.128974	0.000042
C76	C	0.908784	0.628974	0.500042
C77	C	0.468186	0.129680	0.000034
C78	C	0.968186	0.629680	0.500034
C79	C	0.482329	0.025836	0.000051
C80	C	0.982329	0.525836	0.500051
C81	C	0.422932	0.025129	0.000055
C82	C	0.922932	0.525129	0.500055
C83	C	0.386160	0.076702	0.000052
C84	C	0.886160	0.576702	0.500052
O85	O	0.334974	-0.020119	0.000052
O86	O	0.834974	0.479881	0.500052
O87	O	0.308755	0.172007	0.000054
O88	O	0.808755	0.672007	0.500054
C89	C	0.723539	-0.492333	0.000049
C90	C	1.223539	0.007667	0.500049
C91	C	0.722827	-0.551733	0.000044
C92	C	1.222827	-0.051733	0.500044
O93	O	0.766613	-0.588478	0.000027
O94	O	1.266613	-0.088478	0.500027
N95	N	0.670551	-0.574359	0.000039
N96	N	1.170551	-0.074359	0.500039
C97	C	0.618983	-0.537582	0.000032
C98	C	1.118983	-0.037582	0.500032
O99	O	0.574452	-0.562281	0.000027
O100	O	1.074452	-0.062281	0.500027
C101	C	0.619695	-0.478182	0.000033
C102	C	1.119695	0.021818	0.500033
C103	C	0.671974	-0.455560	0.000044
C104	C	1.171974	0.044440	0.500044
C105	C	0.775814	-0.469710	0.000060
C106	C	1.275814	0.030290	0.500060
C107	C	0.776525	-0.410313	0.000065
C108	C	1.276525	0.089687	0.500065
C109	C	0.724961	-0.373540	0.000060
C110	C	1.224961	0.126460	0.500060
C111	C	0.672685	-0.396164	0.000050
C112	C	1.172685	0.103836	0.500050
C113	C	0.568127	-0.441406	0.000022
C114	C	1.068127	0.058594	0.500022
C115	C	0.568844	-0.382004	0.000021
C116	C	1.068844	0.117996	0.500021
C117	C	0.621123	-0.359381	0.000033
C118	C	1.121123	0.140619	0.500033
C119	C	0.621832	-0.299995	0.000050
C120	C	1.121832	0.200005	0.500050
N121	N	0.674109	-0.277368	0.000056
N122	N	1.174109	0.222632	0.500056
C123	C	0.725673	-0.314141	0.000061
C124	C	1.225673	0.185859	0.500061
C125	C	0.617491	-0.662324	0.000031
C126	C	1.117491	-0.162324	0.500031
C127	C	0.616778	-0.721722	0.000034
C128	C	1.116778	-0.221722	0.500034
C129	C	0.720623	-0.735869	0.000045
C130	C	1.220623	-0.235869	0.500045
C131	C	0.721335	-0.676470	0.000046
C132	C	1.221335	-0.176470	0.500046
C133	C	0.669767	-0.639698	0.000036
C134	C	1.169767	-0.139698	0.500036
C135	C	0.727163	-0.189405	0.000073
C136	C	1.227163	0.310595	0.500073
C137	C	0.727869	-0.130003	0.000081
C138	C	1.227869	0.369997	0.500081
C139	C	0.624025	-0.115860	0.000067
C140	C	1.124025	0.384140	0.500067
C141	C	0.623318	-0.175257	0.000062
C142	C	1.123318	0.324743	0.500062
C143	C	0.674891	-0.212029	0.000063
C144	C	1.174891	0.287971	0.500063
O145	O	0.578070	-0.263215	0.000065
O146	O	1.078070	0.236785	0.500065
O147	O	0.770196	-0.289433	0.000058
O148	O	1.270196	0.210567	0.500058
C149	C	0.776472	0.069388	0.000069
C150	C	1.276472	0.569388	0.500069
C151	C	0.839689	0.070154	0.000071
C152	C	1.339689	0.570154	0.500071
C153	C	0.667577	0.178283	0.000045
C154	C	1.167577	0.678283	0.500045
C155	C	0.668343	0.241500	0.000036
C156	C	1.168343	0.741500	0.500036
N157	N	0.672304	0.074155	0.153314
N158	N	1.172304	0.574155	0.653314
N159	N	0.672349	0.074111	-0.153196
N160	N	1.172349	0.574111	0.346804
C161	C	0.711273	0.035196	0.561965
C162	C	1.211273	0.535196	1.061965
C163	C	0.711276	0.035192	0.623884
C164	C	1.211276	0.535192	1.123884
O165	O	0.744384	0.002076	0.655911
O166	O	1.244384	0.502076	1.155911
N167	N	0.672334	0.074115	0.654851
N168	N	1.172334	0.574115	1.154851
C169	C	0.633383	0.113041	0.623895
C170	C	1.133383	0.613041	1.123895
O171	O	0.600259	0.146147	0.655920
O172	O	1.100259	0.646147	1.155920
C173	C	0.633377	0.113042	0.561976
C174	C	1.133377	0.613042	1.061976
C175	C	0.672326	0.074120	0.531013
C176	C	1.172326	0.574120	1.031013
C177	C	0.750218	-0.003724	0.531001
C178	C	1.250218	0.496276	1.031001
C179	C	0.750215	-0.003719	0.469085
C180	C	1.250215	0.496281	0.969085
C181	C	0.711268	0.035206	0.438133
C182	C	1.211268	0.535206	0.938133
C183	C	0.672323	0.074125	0.469097
C184	C	1.172323	0.574125	0.969097
C185	C	0.594424	0.151965	0.531021
C186	C	1.094424	0.651965	1.031021
C187	C	0.594422	0.151962	0.469098
C188	C	1.094422	0.651962	0.969098
C189	C	0.633370	0.113040	0.438134
C190	C	1.133370	0.613040	0.938134
C191	C	0.633374	0.113054	0.376229
C192	C	1.133374	0.613054	0.876229
N193	N	0.672316	0.074131	0.345262
N194	N	1.172316	0.574131	0.845262
C195	C	0.711263	0.035207	0.376214
C196	C	1.211263	0.535207	0.876214
C197	C	0.633396	0.113035	0.753928
C198	C	1.133396	0.613035	1.253928
C199	C	0.633403	0.113037	0.815846
C200	C	1.133403	0.613037	1.315846
C201	C	0.711296	0.035187	0.815831
C202	C	1.211296	0.535187	1.315831
C203	C	0.711291	0.035188	0.753913
C204	C	1.211291	0.535188	1.253913
C205	C	0.672338	0.074112	0.722962
C206	C	1.172338	0.574112	1.222962
C207	C	0.711255	0.035220	0.246187
C208	C	1.211255	0.535220	0.746187
C209	C	0.711251	0.035230	0.184266
C210	C	1.211251	0.535230	0.684266
C211	C	0.633357	0.113078	0.184286
C212	C	1.133357	0.613078	0.684286
C213	C	0.633363	0.113071	0.246202
C214	C	1.133363	0.613071	0.746202
C215	C	0.672314	0.074137	0.277151
C216	C	1.172314	0.574137	0.777151
O217	O	0.600281	0.146152	0.344163
O218	O	1.100281	0.646152	0.844163
O219	O	0.744376	0.002101	0.344182
O220	O	1.244376	0.502101	0.844182
H221	H	0.378851	0.170970	0.000041
H222	H	0.878851	0.670970	0.500041
N223	N	0.776238	-0.775542	0.000046
N224	N	1.276238	-0.275542	0.500046
H225	H	0.799068	-0.768299	-0.036417
H226	H	1.299068	-0.268299	0.463583
H227	H	0.799013	-0.768285	0.036538
H228	H	1.299013	-0.268285	0.536538
N229	N	0.132392	-0.086450	0.000115
N230	N	0.632392	0.413550	0.500115
H231	H	0.108064	-0.089076	-0.036348
H232	H	0.608064	0.410924	0.463652
H233	H	0.164739	-0.118969	0.000146
H234	H	0.664739	0.381031	0.500146
N235	N	0.832914	-0.385920	0.000060
N236	N	1.332914	0.114080	0.500060
H237	H	0.825549	-0.342710	0.000058
H238	H	1.325549	0.157290	0.500058
H239	H	0.855462	-0.399394	0.036525
H240	H	1.355462	0.100606	0.536525
N241	N	0.792237	-0.045704	0.564375
N242	N	1.292237	0.454296	1.064375
H243	H	0.770635	-0.070821	0.590071
H244	H	1.270635	0.429179	1.090071
H245	H	0.816892	-0.070312	0.535315
H246	H	1.316892	0.429688	1.035315
H247	H	0.525555	-0.459814	0.000009
H248	H	1.025555	0.040186	0.500009
N249	N	0.552411	0.193947	0.435713
N250	N	1.052411	0.693947	0.935713
H251	H	0.527320	0.172312	0.410025
H252	H	1.027320	0.672312	0.910025
H253	H	0.527780	0.218592	0.464764
H254	H	1.027780	0.718592	0.964764
N255	N	0.513223	-0.342342	0.000008
N256	N	1.013223	0.157658	0.500008
H257	H	0.480000	-0.365691	0.000000
H258	H	0.980000	0.134309	0.500000
H259	H	0.511246	-0.317390	0.036476
H260	H	1.011246	0.182610	0.536476
N261	N	0.591365	0.155058	0.279603
N262	N	1.091365	0.655058	0.779603
H263	H	0.566695	0.179720	0.250597
H264	H	1.066695	0.679720	0.750597
H265	H	0.566311	0.133383	0.305293
H266	H	1.066311	0.633383	0.805293
H267	H	0.580748	-0.193677	0.000069
H268	H	1.080748	0.306323	0.500069
H269	H	0.742973	0.003516	0.271379
H270	H	1.242973	0.503516	0.771379
N271	N	0.782785	-0.229063	0.000078
N272	N	1.282785	0.270937	0.500078
H273	H	0.805616	-0.221814	-0.036382
H274	H	1.305616	0.278186	0.463618
H275	H	0.805551	-0.221798	0.036574
H276	H	1.305551	0.278202	0.536574
N277	N	0.753298	-0.006791	0.720518
N278	N	1.253298	0.493209	1.220518
H279	H	0.777971	-0.031446	0.749528
H280	H	1.277971	0.468554	1.249528
H281	H	0.731640	-0.031862	0.694832
H282	H	1.231640	0.468138	1.194832
H283	H	0.575496	-0.632386	0.000028
H284	H	1.075496	-0.132386	0.500028
N285	N	0.568411	-0.076193	0.000078
N286	N	1.068411	0.423807	0.500078
H287	H	0.576799	-0.035132	0.000085
H288	H	1.076799	0.464868	0.500085
H289	H	0.545612	-0.083476	-0.036390
H290	H	1.045612	0.416524	0.463610
H291	H	0.098544	0.219617	0.000046
H292	H	0.598544	0.719617	0.500046
N293	N	0.753263	-0.006749	0.150870
N294	N	1.253263	0.493251	0.650870
H295	H	0.777934	-0.031409	0.179877
H296	H	1.277934	0.468591	0.679877
H297	H	0.731605	-0.031816	0.125179
H298	H	1.231605	0.468184	0.625179
N299	N	0.255847	-0.084966	0.000110
N300	N	0.755847	0.415034	0.500110
H301	H	0.232498	-0.118189	0.000119
H302	H	0.732498	0.381811	0.500119
H303	H	0.280802	-0.086943	-0.036357
H304	H	0.780802	0.413057	0.463643
H305	H	0.601694	0.144737	0.841052
H306	H	1.101694	0.644737	1.341052
H307	H	-0.034198	-0.022693	0.000084
H308	H	0.465802	0.477307	0.500084
N309	N	0.212272	0.234724	0.000029
N310	N	0.712272	0.734724	0.500029
H311	H	0.179956	0.267277	0.000025
H312	H	0.679956	0.767277	0.500025
H313	H	0.236607	0.237292	0.036494
H314	H	0.736607	0.737292	0.536494
N315	N	0.492586	0.186070	0.000015
N316	N	0.992586	0.686070	0.500015
H317	H	0.460274	0.218626	0.000012
H318	H	0.960274	0.718626	0.500012
H319	H	0.516924	0.188636	0.036478
H320	H	1.016924	0.688636	0.536478
N321	N	-0.053883	0.179533	0.000047
N322	N	0.446117	0.679533	0.500047
H323	H	-0.086197	0.212087	0.000040
H324	H	0.413803	0.712087	0.500040
H325	H	-0.029550	0.182100	0.036513
H326	H	0.470450	0.682100	0.536513
N327	N	-0.177334	0.178061	0.000067
N328	N	0.322666	0.678061	0.500067
H329	H	-0.202299	0.180089	-0.036394
H330	H	0.297701	0.680089	0.463606
H331	H	-0.202253	0.180051	0.036561
H332	H	0.297747	0.680051	0.536561
H333	H	-0.141947	-0.023982	0.000076
H334	H	0.358053	0.476018	0.500076
H335	H	0.404512	-0.017441	0.000056
H336	H	0.904512	0.482559	0.500056
N337	N	0.521994	-0.029779	0.000061
N338	N	1.021994	0.470221	0.500061
H339	H	0.546958	-0.031805	-0.036403
H340	H	1.046958	0.468195	0.463597
H341	H	0.546913	-0.031752	0.036553
H342	H	1.046913	0.468248	0.536553
H343	H	0.781929	-0.035414	0.443878
H344	H	1.281929	0.464586	0.943878
N345	N	0.784259	-0.105603	0.000097
N346	N	1.284259	0.394397	0.500097
H347	H	0.816815	-0.137915	0.000097
H348	H	1.316815	0.362085	0.500097
H349	H	0.786824	-0.081263	-0.036367
H350	H	1.286824	0.418737	0.463633
N351	N	0.753305	-0.006797	0.849221
N352	N	1.253305	0.493203	1.349221
H353	H	0.747393	-0.000890	0.893144
H354	H	1.247393	0.499110	1.393144
H355	H	0.746956	-0.047167	0.838400
H356	H	1.246956	0.452833	1.338400
N357	N	0.831434	-0.509367	0.000066
N358	N	1.331434	-0.009367	0.500066
H359	H	0.864653	-0.486012	0.000073
H360	H	1.364653	0.013988	0.500073
H361	H	0.833396	-0.534317	0.036534
H362	H	1.333396	-0.034317	0.536534
N363	N	0.777722	-0.652072	0.000058
N364	N	1.277722	-0.152072	0.500058
H365	H	0.810276	-0.684386	0.000063
H366	H	1.310276	-0.184386	0.500063
H367	H	0.780289	-0.627737	-0.036408
H368	H	1.280289	-0.127737	0.463592
N369	N	0.591382	0.155022	0.720548
N370	N	1.091382	0.655022	1.220548
H371	H	0.566716	0.179676	0.749565
H372	H	1.066716	0.679676	1.249565
H373	H	0.613035	0.180093	0.694854
H374	H	1.113035	0.680093	1.194854
H375	H	0.574207	-0.740136	0.000035
H376	H	1.074207	-0.240136	0.500035
H377	H	0.562709	0.183658	0.556223
H378	H	1.062709	0.683658	1.056223
H379	H	0.601648	0.144772	0.159075
H380	H	1.101648	0.644772	0.659075
