data_functionalizedCrystal
_audit_creation_method	'MofGen! by Chris Wilmer'
_symmetry_space_group_name_H-M	'P1'
_symmetry_Int_Tables_number	1
_symmetry_cell_setting	triclinic
loop_
_symmetry_equiv_pos_as_xyz
  x,y,z
_cell_length_a	18.101395
_cell_length_b	18.101398
_cell_length_c	18.101389
_cell_angle_alpha	89.975673
_cell_angle_beta	90.019685
_cell_angle_gamma	89.972782
loop_
_atom_site_label
_atom_site_type_symbol
_atom_site_fract_x
_atom_site_fract_y
_atom_site_fract_z
Zn1	Zn	-0.295001	-1.132117	0.418832
Zn2	Zn	-0.418826	-1.132011	0.294988
Zn3	Zn	-0.294993	-1.008276	0.294993
Zn4	Zn	-0.418795	-1.008224	0.418776
O5	O	-0.356904	-1.070157	0.356897
O6	O	-0.311443	-1.235735	0.402425
O7	O	-0.402410	-1.115574	0.191356
O8	O	-0.191361	-1.024769	0.311446
O9	O	-0.402417	-1.235658	0.311437
O10	O	-0.191367	-1.115755	0.402430
O11	O	-0.311430	-1.024666	0.191360
O12	O	-0.311399	-0.904636	0.311392
O13	O	-0.402363	-1.024682	0.522417
O14	O	-0.402356	-0.904598	0.402335
O15	O	-0.311412	-1.115705	0.522458
O16	O	-0.522455	-1.115524	0.311383
O17	O	-0.522432	-1.024579	0.402330
C18	C	-0.356874	-0.877746	0.356859
C19	C	-0.356879	-0.795432	0.356860
C20	C	-0.549314	-1.070055	0.356866
C21	C	-0.631628	-1.070079	0.356878
C22	C	-0.782337	-1.070164	0.356907
C23	C	-0.813707	-1.012914	0.414084
C24	C	-0.899325	-1.013131	0.414326
C25	C	-0.930719	-1.070247	0.356936
C26	C	-0.899546	-1.148322	0.377939
C27	C	-0.813902	-1.147943	0.378337
C28	C	-0.813959	-1.050039	0.278589
C29	C	-0.899611	-1.048365	0.279023
C30	C	-1.014579	-1.070298	0.356951
C31	C	-0.698477	-1.070118	0.356894
C32	C	-0.356885	-1.070200	0.550059
C33	C	-0.356877	-1.070218	0.632374
C34	C	-0.163742	-1.070279	0.356945
C35	C	-0.081428	-1.070332	0.356965
C36	C	-0.356935	-1.263319	0.356937
C37	C	-0.356948	-1.345633	0.356953
C38	C	-0.356925	-0.496341	0.356922
C39	C	-0.299412	-0.527665	0.299982
C40	C	-0.299566	-0.613283	0.299739
C41	C	-0.356901	-0.644724	0.356891
C42	C	-0.434909	-0.613604	0.335565
C43	C	-0.434590	-0.527959	0.335169
C44	C	-0.337109	-0.527956	0.435322
C45	C	-0.335371	-0.613607	0.434894
C46	C	-0.356893	-0.728583	0.356875
C47	C	-0.356939	-0.412482	0.356936
C48	C	-0.356869	-1.070157	0.164487
C49	C	-0.356668	-1.070282	0.082173
C50	C	-0.356738	-1.070261	0.931465
C51	C	-0.413780	-1.012795	0.900114
C52	C	-0.414045	-1.012950	0.814495
C53	C	-0.356807	-1.070239	0.783082
C54	C	-0.377998	-1.148264	0.814187
C55	C	-0.378372	-1.147944	0.899832
C56	C	-0.278379	-1.050381	0.899891
C57	C	-0.278832	-1.048645	0.814240
C58	C	-0.356845	-1.070231	0.699223
C59	C	-0.356702	-1.070274	1.015324
H60	H	-0.920406	-0.955243	0.401197
C61	C	-0.494353	-0.641117	0.389828
H62	H	-0.472072	-0.671904	0.426056
H63	H	-0.516982	-0.600003	0.413305
H64	H	-0.530673	-0.668435	0.363597
C65	C	-0.785852	-1.207555	0.324528
H66	H	-0.733368	-1.207727	0.324407
H67	H	-0.803439	-1.254576	0.339801
H68	H	-0.803437	-1.197131	0.276179
C69	C	-0.458011	-0.642520	0.258972
H70	H	-0.505294	-0.623381	0.246557
H71	H	-0.422943	-0.627069	0.223131
H72	H	-0.460059	-0.694952	0.259980
H73	H	-0.793662	-1.091731	0.235990
C74	C	-0.317267	-0.640924	0.221265
H75	H	-0.317415	-0.693406	0.220846
H76	H	-0.364451	-0.623149	0.206665
H77	H	-0.280843	-0.623277	0.187868
C78	C	-0.455754	-1.170704	0.926831
H79	H	-0.486666	-1.180054	0.885456
H80	H	-0.451998	-1.214133	0.956072
H81	H	-0.476345	-1.131953	0.955608
C82	C	-0.492497	-1.030715	0.786814
H83	H	-0.492929	-1.030864	0.734332
H84	H	-0.507016	-1.077911	0.804580
H85	H	-0.525949	-0.994318	0.804446
H86	H	-0.281216	-0.506385	0.454711
H87	H	-0.400784	-0.955091	0.793463
H88	H	-0.235880	-1.092237	0.920168
C89	C	-0.927260	-0.970803	0.257555
H90	H	-0.957626	-0.951824	0.295914
H91	H	-0.886204	-0.938938	0.250358
H92	H	-0.955057	-0.973818	0.213134
C93	C	-0.252297	-0.974855	0.929043
H94	H	-0.204913	-0.963912	0.909328
H95	H	-0.286369	-0.937713	0.914359
H96	H	-0.249510	-0.976349	0.981431
C97	C	-0.221024	-0.499879	0.317833
H98	H	-0.187145	-0.519409	0.282839
H99	H	-0.220157	-0.447453	0.315657
H100	H	-0.207405	-0.515645	0.366016
H101	H	-0.793180	-0.954821	0.401103
C102	C	-0.396049	-0.934394	0.927915
H103	H	-0.353703	-0.936003	0.958896
H104	H	-0.386591	-0.903008	0.886928
H105	H	-0.436913	-0.915807	0.955091
C106	C	-0.324698	-1.207755	0.927856
H107	H	-0.302766	-1.232144	0.886896
H108	H	-0.287233	-1.185400	0.957011
H109	H	-0.350995	-1.242632	0.956941
C110	C	-0.491768	-1.030342	0.929185
H111	H	-0.525889	-0.995361	0.909982
H112	H	-0.505683	-1.078568	0.913905
H113	H	-0.491844	-1.027910	0.981610
H114	H	-0.920953	-1.165675	0.434563
H115	H	-0.792148	-1.026090	0.471785
H116	H	-0.919876	-1.192165	0.337583
H117	H	-0.337757	-1.192231	0.793842
C118	C	-0.454560	-1.171426	0.785229
H119	H	-0.473713	-1.133657	0.754192
H120	H	-0.450160	-1.215990	0.757886
H121	H	-0.487048	-1.178903	0.825753
H122	H	-0.241719	-0.634325	0.313107
H123	H	-0.262852	-0.991225	0.793908
C124	C	-0.218375	-1.101102	0.785415
H125	H	-0.171897	-1.086768	0.805130
H126	H	-0.229273	-1.150222	0.800327
H127	H	-0.216654	-1.098681	0.733016
C128	C	-0.926956	-1.031185	0.492727
H129	H	-0.885837	-1.038422	0.524552
H130	H	-0.956130	-0.991380	0.510575
H131	H	-0.955938	-1.074905	0.491424
C132	C	-0.257825	-0.641091	0.456623
H133	H	-0.238645	-0.671406	0.418325
H134	H	-0.226097	-0.599946	0.463908
H135	H	-0.260896	-0.668894	0.501039
C136	C	-0.494441	-0.499957	0.388740
H137	H	-0.494649	-0.447473	0.388864
H138	H	-0.541389	-0.517573	0.373280
H139	H	-0.484201	-0.517542	0.437129
C140	C	-0.316904	-0.498560	0.221959
H141	H	-0.359107	-0.467402	0.223933
H142	H	-0.275887	-0.471312	0.203848
H143	H	-0.326529	-0.539015	0.189961
H144	H	-0.792419	-0.994053	0.259429
C145	C	-0.457286	-0.500921	0.257743
H146	H	-0.466611	-0.542279	0.226826
H147	H	-0.500718	-0.471679	0.261421
H148	H	-0.418518	-0.472134	0.237208
C149	C	-0.786854	-1.170951	0.455668
H150	H	-0.828208	-1.180437	0.486545
H151	H	-0.757582	-1.214346	0.451808
H152	H	-0.758096	-1.132252	0.476366
H153	H	-0.920991	-1.087023	0.234163
H154	H	-0.378999	-0.507699	0.477747
C155	C	-0.387846	-0.642507	0.495278
H156	H	-0.423734	-0.674065	0.473610
H157	H	-0.360307	-0.669284	0.531066
H158	H	-0.411887	-0.601991	0.518400
