data_functionalizedCrystal
_audit_creation_method	'MofGen! by Chris Wilmer'
_symmetry_space_group_name_H-M	'P1'
_symmetry_Int_Tables_number	1
_symmetry_cell_setting	triclinic
loop_
_symmetry_equiv_pos_as_xyz
  x,y,z
_cell_length_a	18.101398
_cell_length_b	18.050589
_cell_length_c	18.101390
_cell_angle_alpha	89.971577
_cell_angle_beta	89.977223
_cell_angle_gamma	90.023488
loop_
_atom_site_label
_atom_site_type_symbol
_atom_site_fract_x
_atom_site_fract_y
_atom_site_fract_z
Zn1	Zn	1.132125	-0.295725	-0.418861
Zn2	Zn	1.632125	0.204275	0.081139
Zn3	Zn	1.132030	-0.419931	-0.295029
Zn4	Zn	1.632030	0.080069	0.204971
Zn5	Zn	1.008287	-0.295749	-0.295023
Zn6	Zn	1.508287	0.204251	0.204977
Zn7	Zn	1.008240	-0.419868	-0.418818
Zn8	Zn	1.508240	0.080132	0.081182
O9	O	1.070170	-0.357818	-0.356933
O10	O	1.570170	0.142182	0.143067
O11	O	1.235745	-0.312218	-0.402456
O12	O	1.735745	0.187782	0.097544
O13	O	1.115595	-0.403494	-0.191396
O14	O	1.615595	0.096506	0.308604
O15	O	1.024773	-0.191821	-0.311465
O16	O	1.524773	0.308179	0.188535
O17	O	1.235675	-0.403471	-0.311477
O18	O	1.735675	0.096529	0.188523
O19	O	1.115756	-0.191804	-0.402449
O20	O	1.615756	0.308196	0.097551
O21	O	1.024681	-0.312258	-0.191391
O22	O	1.524681	0.187742	0.308609
O23	O	0.904648	-0.312197	-0.311423
O24	O	1.404648	0.187803	0.188577
O25	O	1.024694	-0.403364	-0.522457
O26	O	1.524694	0.096636	-0.022457
O27	O	0.904614	-0.403387	-0.402375
O28	O	1.404614	0.096613	0.097625
O29	O	1.115711	-0.312157	-0.522489
O30	O	1.615711	0.187843	-0.022489
O31	O	1.115550	-0.523847	-0.311435
O32	O	1.615550	-0.023847	0.188565
O33	O	1.024602	-0.523801	-0.402382
O34	O	1.524602	-0.023801	0.097618
C35	C	0.877760	-0.357788	-0.356894
C36	C	1.377760	0.142212	0.143106
C37	C	0.795446	-0.357793	-0.356895
C38	C	1.295446	0.142207	0.143105
C39	C	0.496355	-0.357840	-0.356957
C40	C	0.996355	0.142160	0.143043
C41	C	0.527677	-0.300179	-0.300012
C42	C	1.027677	0.199821	0.199988
C43	C	0.613295	-0.300333	-0.299769
C44	C	1.113295	0.199667	0.200231
C45	C	0.644737	-0.357816	-0.356927
C46	C	1.144737	0.142184	0.143073
C47	C	0.613624	-0.436049	-0.335608
C48	C	1.113624	0.063951	0.164392
C49	C	0.527979	-0.435728	-0.335212
C50	C	1.027979	0.064272	0.164788
C51	C	0.527966	-0.337948	-0.435355
C52	C	1.027966	0.162052	0.064645
C53	C	0.613617	-0.336206	-0.434927
C54	C	1.113617	0.163794	0.065073
C55	C	0.728597	-0.357807	-0.356910
C56	C	1.228597	0.142193	0.143090
C57	C	0.412495	-0.357853	-0.356972
C58	C	0.912495	0.142147	0.143028
C59	C	1.070081	-0.550770	-0.356921
C60	C	1.570081	-0.050770	0.143079
C61	C	1.070111	-0.633316	-0.356940
C62	C	1.570111	-0.133316	0.143060
C63	C	1.020702	-0.832769	-0.406380
C64	C	1.520702	-0.332769	0.093620
C65	C	1.002652	-0.882213	-0.338801
C66	C	1.502652	-0.382213	0.161199
C67	C	1.070183	-0.784447	-0.356950
C68	C	1.570183	-0.284447	0.143050
C69	C	1.088270	-0.882084	-0.424536
C70	C	1.588270	-0.382084	0.075464
C71	C	1.070252	-0.930432	-0.356965
C72	C	1.570252	-0.430432	0.143035
C73	C	1.052098	-0.832804	-0.289335
C74	C	1.552098	-0.332804	0.210665
C75	C	1.137747	-0.832670	-0.375116
C76	C	1.637747	-0.332670	0.124884
C77	C	1.119723	-0.882092	-0.307491
C78	C	1.619723	-0.382092	0.192509
C79	C	1.070142	-0.700348	-0.356942
C80	C	1.570142	-0.200348	0.143058
C81	C	1.070294	-1.014528	-0.356965
C82	C	1.570294	-0.514528	0.143035
C83	C	1.263332	-0.357849	-0.356972
C84	C	1.763332	0.142151	0.143028
C85	C	1.345646	-0.357862	-0.356989
C86	C	1.845646	0.142138	0.143011
C87	C	1.070208	-0.357751	-0.550095
C88	C	1.570208	0.142249	-0.050095
C89	C	1.070224	-0.357722	-0.632409
C90	C	1.570224	0.142278	-0.132409
C91	C	1.070280	-0.164113	-0.356961
C92	C	1.570280	0.335887	0.143039
C93	C	1.070327	-0.081567	-0.356974
C94	C	1.570327	0.418433	0.143026
C95	C	1.070251	-0.357699	-0.783117
C96	C	1.570251	0.142301	-0.283117
C97	C	1.127518	-0.300309	-0.814491
C98	C	1.627518	0.199691	-0.314491
C99	C	1.127757	-0.300464	-0.900110
C100	C	1.627757	0.199536	-0.400110
C101	C	1.070277	-0.357675	-0.931500
C102	C	1.570277	0.142325	-0.431500
C103	C	1.091156	-0.436008	-0.900397
C104	C	1.591156	0.063992	-0.400397
C105	C	1.091557	-0.435690	-0.814753
C106	C	1.591557	0.064310	-0.314753
C107	C	0.991964	-0.337435	-0.814666
C108	C	1.491964	0.162565	-0.314666
C109	C	0.992399	-0.335695	-0.900317
C110	C	1.492399	0.164305	-0.400317
C111	C	1.070290	-0.357666	-1.015360
C112	C	1.570290	0.142334	-0.515360
C113	C	1.070239	-0.357713	-0.699258
C114	C	1.570239	0.142287	-0.199258
C115	C	1.070176	-0.357832	-0.164522
C116	C	1.570176	0.142168	0.335478
C117	C	1.070303	-0.357652	-0.082209
C118	C	1.570303	0.142348	0.417791
H119	H	0.634332	-0.242321	-0.313131
H120	H	1.134332	0.257679	0.186869
H121	H	1.036762	-0.811247	-0.232168
H122	H	1.536762	-0.311247	0.267832
H123	H	1.114630	-0.242057	-0.793913
H124	H	1.614630	0.257943	-0.293913
Br125	Br	0.920851	-0.407088	-0.780830
Br126	Br	1.420851	0.092912	-0.280830
H127	H	1.161597	-0.903613	-0.265648
H128	H	1.661597	-0.403613	0.234352
Br129	Br	0.907470	-0.918481	-0.313190
Br130	Br	1.407470	-0.418481	0.186810
Br131	Br	1.224452	-0.322863	-0.934289
Br132	Br	1.724452	0.177137	-0.434289
Br133	Br	0.647396	-0.322246	-0.202943
Br134	Br	1.147396	0.177754	0.297057
H135	H	0.978795	-0.811111	-0.448122
H136	H	1.478795	-0.311111	0.051878
Br137	Br	0.649316	-0.464656	-0.241115
Br138	Br	1.149316	0.035344	0.258885
H139	H	0.507103	-0.241989	-0.313227
H140	H	1.007103	0.258011	0.186773
H141	H	1.051628	-0.479906	-0.793995
H142	H	1.551628	0.020094	-0.293995
Br143	Br	0.917524	-0.400236	-0.935926
Br144	Br	1.417524	0.099764	-0.435926
H145	H	1.147743	-0.453447	-0.921877
H146	H	1.647743	0.046553	-0.421877
H147	H	1.148775	-0.452829	-0.794789
H148	H	1.648775	0.047171	-0.294789
Br149	Br	0.492010	-0.244518	-0.467663
Br150	Br	0.992010	0.255482	0.032337
H151	H	0.506130	-0.313181	-0.242258
H152	H	1.006130	0.186819	0.257742
H153	H	1.194838	-0.810894	-0.390500
H154	H	1.694838	-0.310894	0.109500
H155	H	1.050730	-0.479930	-0.920727
H156	H	1.550730	0.020070	-0.420727
Br157	Br	0.960179	-0.243859	-0.778682
Br158	Br	1.460179	0.256141	-0.278682
H159	H	0.976648	-0.278048	-0.920648
H160	H	1.476648	0.221952	-0.420648
H161	H	1.103540	-0.903731	-0.481687
H162	H	1.603540	-0.403731	0.018313
H163	H	1.185198	-0.313579	-0.792984
H164	H	1.685198	0.186421	-0.292984
Br165	Br	0.494624	-0.463843	-0.239688
Br166	Br	0.994624	0.036157	0.260312
H167	H	0.507258	-0.480145	-0.374880
H168	H	1.007258	0.019855	0.125120
H169	H	1.114712	-0.242391	-0.921141
H170	H	1.614712	0.257609	-0.421141
H171	H	0.633989	-0.480162	-0.375787
H172	H	1.133989	0.019838	0.124213
Br173	Br	0.649289	-0.401104	-0.509437
Br174	Br	1.149289	0.098896	-0.009437
Br175	Br	0.494207	-0.407946	-0.506075
Br176	Br	0.994207	0.092054	-0.006075
Br177	Br	0.647532	-0.240257	-0.461732
Br178	Br	1.147532	0.259743	0.038268
