data_functionalizedCrystal
_audit_creation_method	'MofGen! by Chris Wilmer'
_symmetry_space_group_name_H-M	'P1'
_symmetry_Int_Tables_number	1
_symmetry_cell_setting	triclinic
loop_
_symmetry_equiv_pos_as_xyz
  x,y,z
_cell_length_a	13.897449
_cell_length_b	11.169416
_cell_length_c	11.169409
_cell_angle_alpha	89.971992
_cell_angle_beta	89.977985
_cell_angle_gamma	90.006344
loop_
_atom_site_label
_atom_site_type_symbol
_atom_site_fract_x
_atom_site_fract_y
_atom_site_fract_z
Zn1	Zn	1.474799	-0.477669	-0.678649
Zn2	Zn	1.474725	-0.678409	-0.477981
Zn3	Zn	1.313485	-0.477743	-0.477976
Zn4	Zn	1.313506	-0.678313	-0.678618
O5	O	1.394129	-0.578034	-0.578306
O6	O	1.609771	-0.504307	-0.652045
O7	O	1.453297	-0.651862	-0.310031
O8	O	1.334906	-0.309784	-0.504606
O9	O	1.609717	-0.651790	-0.504615
O10	O	1.453423	-0.309729	-0.652040
O11	O	1.334834	-0.504434	-0.310027
O12	O	1.178506	-0.504340	-0.504576
O13	O	1.334942	-0.651626	-0.846572
O14	O	1.178521	-0.651698	-0.651988
O15	O	1.453443	-0.504213	-0.846595
O16	O	1.453317	-0.846346	-0.504585
O17	O	1.334870	-0.846276	-0.651993
C18	C	1.143515	-0.578018	-0.578279
C19	C	1.036301	-0.578040	-0.578295
C20	C	1.394114	-0.889858	-0.578313
C21	C	1.394196	-1.023258	-0.578355
C22	C	1.394203	-0.577900	-0.891349
C23	C	1.394235	-0.577844	-1.024749
C24	C	0.840006	-0.578044	-0.578327
C25	C	0.949238	-0.578038	-0.578306
C26	C	1.645722	-0.578051	-0.578334
C27	C	1.752936	-0.578058	-0.578346
C28	C	1.394170	-0.264991	-0.578326
C29	C	1.394188	-0.131591	-0.578334
C30	C	1.394111	-0.578080	-0.266481
C31	C	1.394266	-0.577799	-0.133082
