data_functionalizedCrystal
_audit_creation_method	'MofGen! by Chris Wilmer'
_symmetry_space_group_name_H-M	'P1'
_symmetry_Int_Tables_number	1
_symmetry_cell_setting	triclinic
loop_
_symmetry_equiv_pos_as_xyz
  x,y,z
_cell_length_a	11.792241
_cell_length_b	10.540510
_cell_length_c	10.868271
_cell_angle_alpha	90.002654
_cell_angle_beta	90.000107
_cell_angle_gamma	84.353363
loop_
_atom_site_label
_atom_site_type_symbol
_atom_site_fract_x
_atom_site_fract_y
_atom_site_fract_z
O1	O	1.507345	0.173994	0.102196
O2	O	2.007345	0.673994	0.602196
O3	O	1.177049	0.191926	0.102223
O4	O	1.677049	0.691926	0.602223
O5	O	1.349750	-0.001773	0.102208
O6	O	1.849750	0.498227	0.602208
O7	O	1.334644	0.367694	0.102211
O8	O	1.834644	0.867694	0.602211
O9	O	1.349735	-0.001781	-0.102436
O10	O	1.849735	0.498219	0.397564
O11	O	1.177034	0.191918	-0.102421
O12	O	1.677034	0.691918	0.397579
O13	O	1.507330	0.173987	-0.102449
O14	O	2.007330	0.673987	0.397551
Zn15	Zn	1.342180	0.182951	-0.134927
Zn16	Zn	1.842180	0.682951	0.365073
Zn17	Zn	1.342199	0.182961	0.134701
Zn18	Zn	1.842199	0.682961	0.634701
O19	O	1.334629	0.367686	-0.102434
O20	O	1.834629	0.867686	0.397566
C21	C	1.134748	0.190796	-0.000095
C22	C	1.634748	0.690796	0.499905
C23	C	1.008726	0.187424	-0.000084
C24	C	1.508726	0.687424	0.499916
C25	C	0.777998	0.181225	-0.000120
C26	C	1.277998	0.681225	0.499880
C27	C	0.906392	0.184670	-0.000100
C28	C	1.406392	0.684670	0.499900
C29	C	1.348617	-0.049077	-0.000111
C30	C	1.848617	0.450923	0.499889
C31	C	1.345249	-0.190016	-0.000104
C32	C	1.845249	0.309984	0.499896
C33	C	1.465224	-0.407862	-0.000582
C34	C	1.965224	0.092138	0.499418
C35	C	1.468816	-0.261278	-0.000115
C36	C	1.968816	0.238722	0.499885
C37	C	1.282003	-0.234564	0.116761
C38	C	1.782003	0.265436	0.616761
C39	C	1.279285	-0.381316	0.116853
C40	C	1.779285	0.118684	0.616853
C41	C	1.276696	-0.381125	-0.115866
C42	C	1.776696	0.118875	0.384134
C43	C	1.282557	-0.234803	-0.117405
C44	C	1.782557	0.265197	0.382595
C45	C	1.549631	0.175117	-0.000128
C46	C	2.049631	0.675117	0.499872
C47	C	1.675654	0.178488	-0.000131
C48	C	2.175654	0.678488	0.499869
C49	C	1.335762	0.414990	-0.000112
C50	C	1.835762	0.914990	0.499888
C51	C	1.339130	0.555929	-0.000111
C52	C	1.839130	1.055929	0.499889
N53	N	1.342175	0.182944	-0.318941
N54	N	1.842175	0.682944	0.181059
C55	C	1.342193	0.182959	-0.569947
C56	C	1.842193	0.682959	-0.069947
C57	C	1.342180	0.182954	-0.430270
C58	C	1.842180	0.682954	0.069730
N59	N	1.342213	0.182959	0.318715
N60	N	1.842213	0.682959	0.818715
H61	H	1.513359	-0.449977	-0.084393
H62	H	2.013359	0.050023	0.415607
H63	H	1.513093	-0.451521	0.082745
H64	H	2.013093	0.048479	0.582745
N65	N	1.153811	-0.410081	-0.116904
N66	N	1.653811	0.089919	0.383096
H67	H	1.138195	-0.458254	-0.194433
H68	H	1.638195	0.041746	0.305567
H69	H	1.102378	-0.327648	-0.114121
H70	H	1.602378	0.172352	0.385879
H71	H	1.192342	-0.185443	-0.124454
H72	H	1.692342	0.314557	0.375546
H73	H	1.325937	-0.203848	0.203724
H74	H	1.825937	0.296152	0.703724
N75	N	1.534334	-0.222609	-0.111097
N76	N	2.034334	0.277391	0.388903
H77	H	1.561140	-0.300851	-0.160762
H78	H	2.061140	0.199149	0.339238
H79	H	1.602371	-0.178995	-0.083124
H80	H	2.102371	0.321005	0.416876
N81	N	1.328419	-0.437494	-0.233208
N82	N	1.828419	0.062506	0.266792
H83	H	1.268355	-0.477835	-0.281754
H84	H	1.768355	0.022165	0.218246
H85	H	1.392861	-0.504369	-0.212418
H86	H	1.892861	-0.004369	0.287582
H87	H	1.518602	-0.233032	0.083795
H88	H	2.018602	0.266968	0.583795
N89	N	1.343501	-0.197103	-0.231933
N90	N	1.843501	0.302897	0.268067
H91	H	1.411437	-0.151201	-0.207948
H92	H	1.911437	0.348799	0.292052
H93	H	1.289675	-0.138904	-0.283771
H94	H	1.789675	0.361096	0.216229
H95	H	1.186864	-0.404010	0.122155
H96	H	1.686864	0.095990	0.622155
N97	N	1.336569	-0.434784	0.232544
N98	N	1.836569	0.065216	0.732544
H99	H	1.363344	-0.362989	0.283003
H100	H	1.863344	0.137011	0.783003
H101	H	1.404062	-0.496834	0.209773
H102	H	1.904062	0.003166	0.709773
N103	N	1.161503	-0.171412	0.122538
N104	N	1.661503	0.328588	0.622538
H105	H	1.146717	-0.113175	0.049281
H106	H	1.646717	0.386825	0.549281
H107	H	1.150902	-0.120043	0.200860
H108	H	1.650902	0.379957	0.700860
