data_functionalizedCrystal
_audit_creation_method	'MofGen! by Chris Wilmer'
_symmetry_space_group_name_H-M	'P1'
_symmetry_Int_Tables_number	1
_symmetry_cell_setting	triclinic
loop_
_symmetry_equiv_pos_as_xyz
  x,y,z
_cell_length_a	10.654541
_cell_length_b	13.596369
_cell_length_c	14.519731
_cell_angle_alpha	89.994253
_cell_angle_beta	95.913609
_cell_angle_gamma	90.004613
loop_
_atom_site_label
_atom_site_type_symbol
_atom_site_fract_x
_atom_site_fract_y
_atom_site_fract_z
O1	O	1.666616	0.081774	-0.129514
O2	O	2.166616	0.581774	0.370486
O3	O	1.301019	0.081784	-0.141858
O4	O	1.801019	0.581784	0.358142
O5	O	1.493497	0.081759	-0.001499
O6	O	1.993497	0.581759	0.498501
O7	O	1.474138	0.081799	-0.269873
O8	O	1.974138	0.581799	0.230127
O9	O	1.493473	-0.081824	-0.001507
O10	O	1.993473	0.418176	0.498493
O11	O	1.300995	-0.081799	-0.141865
O12	O	1.800995	0.418201	0.358135
O13	O	1.666592	-0.081809	-0.129522
O14	O	2.166592	0.418191	0.370478
Zn15	Zn	1.483790	-0.107776	-0.135695
Zn16	Zn	1.983790	0.392224	0.364305
Zn17	Zn	1.483821	0.107751	-0.135685
Zn18	Zn	1.983821	0.607751	0.364315
O19	O	1.474114	-0.081784	-0.269881
O20	O	1.974114	0.418216	0.230119
C21	C	1.254218	-0.000006	-0.140956
C22	C	1.754218	0.499994	0.359044
C23	C	1.114800	-0.000004	-0.138246
C24	C	1.614800	0.499996	0.361754
C25	C	1.085233	0.000034	-0.306082
C26	C	1.585233	0.500034	0.193918
C27	C	1.004953	0.000056	-0.388724
C28	C	1.504953	0.500056	0.111276
C29	C	0.873959	0.000057	-0.386172
C30	C	1.373959	0.500057	0.113828
C31	C	0.823244	0.000032	-0.300969
C32	C	1.323244	0.500032	0.199031
C33	C	0.903524	0.000010	-0.218328
C34	C	1.403524	0.500010	0.281672
C35	C	1.034519	0.000012	-0.220889
C36	C	1.534519	0.500012	0.279111
C37	C	0.933091	-0.000035	-0.050493
C38	C	1.433091	0.499965	0.449507
C39	C	1.064085	-0.000028	-0.053043
C40	C	1.564085	0.499972	0.446957
C41	C	0.882376	-0.000060	0.034710
C42	C	1.382376	0.499940	0.534710
C43	C	0.962657	-0.000075	0.117353
C44	C	1.462657	0.499925	0.617353
C45	C	1.093658	-0.000075	0.114797
C46	C	1.593658	0.499925	0.614797
C47	C	1.144366	-0.000051	0.029598
C48	C	1.644366	0.499949	0.529598
N49	N	1.483778	-0.254868	-0.135701
N50	N	1.983778	0.245132	0.364299
C51	C	1.483784	-0.343866	-0.135703
C52	C	1.983784	0.156134	0.364297
C53	C	1.483796	-0.455517	-0.135697
C54	C	1.983796	0.044483	0.364303
C55	C	1.483813	-0.544508	-0.135687
C56	C	1.983813	-0.044508	0.364313
C57	C	1.483827	-0.656166	-0.135681
C58	C	1.983827	-0.156166	0.364319
C59	C	1.713393	-0.000016	-0.130424
C60	C	2.213393	0.499984	0.369576
C61	C	1.852811	-0.000012	-0.133134
C62	C	2.352811	0.499988	0.366866
C63	C	1.492578	-0.000035	0.032861
C64	C	1.992578	0.499965	0.532861
C65	C	1.489860	-0.000044	0.135256
C66	C	1.989860	0.499956	0.635256
N67	N	1.483843	0.254843	-0.135671
N68	N	1.983843	0.754843	0.364329
C69	C	1.487651	-0.000049	0.218411
C70	C	1.987651	0.499951	0.718411
C71	C	1.484891	-0.000050	0.322734
C72	C	1.984891	0.499950	0.822734
C73	C	1.482701	-0.000050	0.405885
C74	C	1.982701	0.499950	0.905885
C75	C	1.479942	-0.000053	0.510214
C76	C	1.979942	0.499947	1.010214
C77	C	1.475033	-0.000007	0.695759
C78	C	1.975033	0.499993	1.195759
C79	C	1.477751	-0.000053	0.593365
C80	C	1.977751	0.499947	1.093365
H81	H	1.046259	0.000074	-0.458094
H82	H	1.546259	0.500074	0.041906
Cl83	Cl	1.194572	-0.000111	0.218696
Cl84	Cl	1.694572	0.499889	0.718696
H85	H	1.191893	0.000055	-0.308169
H86	H	1.691893	0.500055	0.191831
H87	H	0.775713	-0.000065	0.036782
H88	H	1.275713	0.499935	0.536782
Cl89	Cl	0.898894	-0.000115	0.224453
Cl90	Cl	1.398894	0.499885	0.724453
H91	H	1.251026	-0.000039	0.027509
H92	H	1.751026	0.499961	0.527509
H93	H	0.808594	0.000068	-0.453465
H94	H	1.308594	0.500068	0.046535
Cl95	Cl	0.658564	0.000016	-0.297763
Cl96	Cl	1.158564	0.500016	0.202237
