data_functionalizedCrystal
_audit_creation_method	'MofGen! by Chris Wilmer'
_symmetry_space_group_name_H-M	'P1'
_symmetry_Int_Tables_number	1
_symmetry_cell_setting	triclinic
loop_
_symmetry_equiv_pos_as_xyz
  x,y,z
_cell_length_a	17.052862
_cell_length_b	14.628931
_cell_length_c	14.628931
_cell_angle_alpha	59.999972
_cell_angle_beta	90.000017
_cell_angle_gamma	50.259505
loop_
_atom_site_label
_atom_site_type_symbol
_atom_site_fract_x
_atom_site_fract_y
_atom_site_fract_z
Zr1	Zr	0.914393	0.679065	0.040793
O2	O	0.762834	0.923061	-0.131813
O3	O	0.960853	0.472024	0.093706
O4	O	0.960853	0.662729	-0.097000
O5	O	0.762834	0.732355	0.209325
O6	O	1.117055	0.607807	-0.069539
O7	O	0.762834	0.732356	0.058893
O8	O	1.117055	0.266669	0.271599
O9	O	0.762834	1.073493	-0.131813
O10	O	1.097240	0.502508	0.136767
O11	O	0.980669	0.543496	0.228538
O12	O	0.980669	0.768028	0.004007
O13	O	0.864098	0.809015	0.095779
Zr14	Zr	1.163516	0.591470	0.324512
Zr15	Zr	1.163516	0.591470	0.084590
Zr16	Zr	0.914393	0.679065	0.280715
Zr17	Zr	0.914393	0.918987	0.040793
Zr18	Zr	1.163516	0.351549	0.324512
O19	O	1.117056	0.798512	0.271599
O20	O	1.117055	0.798512	-0.069539
O21	O	0.762835	0.923061	0.209325
O22	O	1.315075	0.347474	0.497118
O23	O	1.315074	0.347475	0.155980
O24	O	0.960854	0.472023	0.434844
O25	O	1.315075	0.538180	0.155980
O26	O	1.117056	0.607806	0.462305
O27	O	0.960854	0.662729	0.434843
O28	O	1.315075	0.538180	0.306412
O29	O	0.960854	1.003867	-0.097000
O30	O	1.117055	0.266669	0.462305
O31	O	1.315075	0.197043	0.497118
O32	O	1.315074	0.197043	0.306412
O33	O	0.762835	1.073493	0.058893
O34	O	0.960854	1.003866	0.093705
O35	O	1.097240	0.502508	0.361298
O36	O	1.213811	0.461520	0.269526
O37	O	1.097240	0.727039	0.136766
O38	O	0.980669	0.768027	0.228538
C39	C	1.038954	0.335163	0.182653
C40	C	1.038954	0.233310	0.182653
C41	C	0.727339	0.744836	0.127869
C42	C	0.621580	0.782022	0.109276
C43	C	1.096781	0.167568	0.137128
C44	C	1.096782	0.062297	0.137127
C45	C	0.566864	0.332438	0.334064
C46	C	0.666232	0.297494	0.351528
C47	C	0.655075	0.418623	0.290967
C48	C	0.544538	0.574702	0.212937
C49	C	0.445160	0.609649	0.195464
C50	C	0.533371	0.695834	0.152367
C51	C	0.422834	0.851913	0.074337
C52	C	0.323467	0.886853	0.056868
C53	C	0.334625	0.765724	0.117429
C54	C	0.632749	0.660887	0.169841
C55	C	0.511045	0.938098	0.031241
C56	C	0.411677	0.973041	0.013776
C57	C	1.350569	0.525700	0.237436
C58	C	1.456329	0.488513	0.256029
C59	C	1.038954	0.635268	-0.117453
C60	C	1.038954	0.635268	-0.219306
C61	C	1.038955	0.935373	0.182652
C62	C	1.038955	1.037226	0.182652
C63	C	1.120734	0.606513	-0.250338
C64	C	1.120735	0.606513	-0.355608
C65	C	1.038955	0.635268	0.482758
C66	C	1.038955	0.635267	0.584611
C67	C	1.350569	0.225595	0.237436
C68	C	1.456328	0.086555	0.256029
C69	C	1.038955	0.335162	0.482758
C70	C	1.038955	0.233309	0.584611
C71	C	1.350570	0.225594	0.537542
C72	C	1.456329	0.086555	0.657988
C73	C	0.727339	1.044941	-0.172237
C74	C	0.621580	1.183981	-0.292683
C75	C	0.727340	1.044941	0.127868
C76	C	0.621581	1.183980	0.109275
C77	C	1.038954	0.935373	-0.117453
C78	C	1.038954	1.037226	-0.219306
C79	C	1.445145	0.042656	0.195452
C80	C	1.544507	-0.087969	0.212898
C81	C	1.655052	-0.174700	0.290929
C82	C	1.666233	-0.130791	0.351508
C83	C	1.566872	-0.000161	0.334055
C84	C	1.566854	-0.000138	0.666649
C85	C	1.666236	-0.130771	0.779813
C86	C	1.655090	-0.174714	0.884315
C87	C	1.544553	-0.088007	0.875650
C88	C	1.445174	0.042630	0.762487
C89	C	0.511055	1.270686	-0.301344
C90	C	0.411673	1.401348	-0.414508
C91	C	0.422819	1.445295	-0.519011
C92	C	0.533356	1.358582	-0.510346
C93	C	0.632735	1.227930	-0.397183
C94	C	0.632764	1.227889	0.169843
C95	C	0.533402	1.358541	0.152370
C96	C	0.422857	1.445276	0.074336
C97	C	0.411676	1.401362	0.013762
C98	C	0.511037	1.270719	0.031228
C99	C	1.096782	0.167567	0.695878
C100	C	1.096783	0.062296	0.801150
H101	H	1.146294	0.189209	0.098158
Br102	Br	1.582013	0.059473	0.524842
Br103	Br	1.789889	-0.351982	0.314602
Br104	Br	1.529446	-0.147664	1.017487
H105	H	0.341889	1.551684	-0.611148
Br106	Br	1.295132	0.160341	0.089542
H107	H	0.341960	1.551651	0.060125
H108	H	1.355183	0.113203	0.755451
H109	H	1.146285	0.005846	0.098145
H110	H	0.542417	1.394382	-0.595445
Br111	Br	0.956445	0.197220	0.247631
H112	H	1.535380	-0.123701	0.163564
Br113	Br	0.789935	0.371198	0.314670
H114	H	1.190752	0.581887	-0.198969
H115	H	0.989439	0.093687	0.221623
Br116	Br	0.495838	1.211141	-0.050977
Br117	Br	0.782730	1.110265	-0.385450
H118	H	0.722767	1.157278	0.233392
H119	H	1.190747	0.581902	-0.382353
H120	H	0.722741	0.533805	0.233382
Br121	Br	1.179317	-0.031815	0.960215
Br122	Br	0.816237	0.085683	0.457418
Br123	Br	0.922260	0.676284	-0.304903
Br124	Br	1.179290	0.203658	0.724766
Br125	Br	0.581995	0.168068	0.416231
Br126	Br	0.261675	1.519001	-0.426239
H127	H	1.756230	-0.201356	0.786847
Br128	Br	0.199765	0.813142	0.093745
Br129	Br	1.816268	-0.248519	0.457407
Br130	Br	0.173454	1.098674	-0.049042
H131	H	0.989452	0.093671	0.685267
Br132	Br	1.582071	0.059390	0.416286
Br133	Br	0.261656	1.184855	-0.092115
H134	H	0.501956	1.036731	-0.018075
Br135	Br	1.789975	-0.352012	1.037887
Br136	Br	0.548604	1.418105	0.234592
Br137	Br	0.495896	1.211071	-0.159537
Br138	Br	0.261641	1.519087	-0.092135
Br139	Br	0.956423	0.197250	0.555719
H140	H	0.968933	0.659895	-0.388659
