data_functionalizedCrystal
_audit_creation_method	'MofGen! by Chris Wilmer'
_symmetry_space_group_name_H-M	'P1'
_symmetry_Int_Tables_number	1
_symmetry_cell_setting	triclinic
loop_
_symmetry_equiv_pos_as_xyz
  x,y,z
_cell_length_a	14.971486
_cell_length_b	12.996460
_cell_length_c	14.971506
_cell_angle_alpha	90.004566
_cell_angle_beta	83.618258
_cell_angle_gamma	90.000625
loop_
_atom_site_label
_atom_site_type_symbol
_atom_site_fract_x
_atom_site_fract_y
_atom_site_fract_z
O1	O	1.186954	0.085445	0.116563
O2	O	1.520288	0.418778	0.449897
O3	O	1.853621	0.752111	0.783230
O4	O	0.926555	0.085472	0.130522
O5	O	1.259889	0.418806	0.463855
O6	O	1.593222	0.752139	0.797189
O7	O	1.063725	0.085455	-0.006656
O8	O	1.397058	0.418789	0.326677
O9	O	1.730391	0.752122	0.660010
O10	O	1.049785	0.085462	0.253741
O11	O	1.383118	0.418795	0.587075
O12	O	1.716452	0.752129	0.920408
O13	O	1.063710	-0.085679	-0.006664
O14	O	1.397044	0.247655	0.326669
O15	O	1.730377	0.580988	0.660003
O16	O	0.926541	-0.085661	0.130514
O17	O	1.259874	0.247672	0.463848
O18	O	1.593208	0.581005	0.797181
O19	O	1.186940	-0.085689	0.116556
O20	O	1.520273	0.247644	0.449889
O21	O	1.853607	0.580978	0.783222
Cu22	Cu	1.056739	-0.101301	0.123534
Cu23	Cu	1.390073	0.232032	0.456868
Cu24	Cu	1.723406	0.565366	0.790201
Cu25	Cu	1.056756	0.101084	0.123543
Cu26	Cu	1.390089	0.434418	0.456877
Cu27	Cu	1.723423	0.767751	0.790210
O28	O	1.049771	-0.085672	0.253734
O29	O	1.383104	0.247662	0.587067
O30	O	1.716437	0.580995	0.920400
C31	C	0.893223	-0.000091	0.129894
C32	C	1.226557	0.333242	0.463227
C33	C	1.559890	0.666576	0.796561
C34	C	0.793926	-0.000080	0.128023
C35	C	1.127259	0.333253	0.461357
C36	C	1.460593	0.666586	0.794690
N37	N	1.056734	-0.243648	0.123527
N38	N	1.390067	0.089685	0.456861
N39	N	1.723400	0.423019	0.790194
C40	C	0.736707	-0.000080	0.208612
C41	C	1.070040	0.333254	0.541945
C42	C	1.403373	0.666587	0.875278
C43	C	0.643407	-0.000095	0.206849
C44	C	0.976740	0.333238	0.540182
C45	C	1.310074	0.666572	0.873515
C46	C	0.607329	-0.000104	0.124496
C47	C	0.940662	0.333230	0.457829
C48	C	1.273995	0.666563	0.791163
C49	C	0.664556	-0.000107	0.043901
C50	C	0.997889	0.333226	0.377235
C51	C	1.331222	0.666559	0.710568
C52	C	0.757853	-0.000099	0.045665
C53	C	1.091187	0.333234	0.378999
C54	C	1.424520	0.666567	0.712332
C55	C	0.470093	-0.000122	0.040230
C56	C	0.803426	0.333212	0.373564
C57	C	1.136759	0.666545	0.706897
C58	C	0.376789	-0.000128	0.038466
C59	C	0.710122	0.333205	0.371799
C60	C	1.043455	0.666539	0.705133
C61	C	0.355647	-0.000117	0.201414
C62	C	0.688980	0.333216	0.534747
C63	C	1.022313	0.666549	0.868080
C64	C	0.448944	-0.000109	0.203178
C65	C	0.782278	0.333224	0.536511
C66	C	1.115611	0.666557	0.869844
C67	C	0.506165	-0.000111	0.122582
C68	C	0.839498	0.333222	0.455916
C69	C	1.172831	0.666556	0.789249
C70	C	1.056755	-0.663462	0.123544
C71	C	1.390088	-0.330129	0.456878
C72	C	1.723422	0.003204	0.790211
C73	C	1.056746	-0.546657	0.123543
C74	C	1.390080	-0.213324	0.456876
C75	C	1.723413	0.120009	0.790209
C76	C	1.056745	-0.453559	0.123536
C77	C	1.390078	-0.120226	0.456870
C78	C	1.723411	0.213108	0.790203
C79	C	1.056735	-0.336746	0.123533
C80	C	1.390069	-0.003413	0.456867
C81	C	1.723402	0.329920	0.790200
C82	C	1.220272	-0.000123	0.117184
C83	C	1.553605	0.333210	0.450517
C84	C	1.886939	0.666543	0.783850
C85	C	1.319569	-0.000127	0.119054
C86	C	1.652903	0.333206	0.452388
C87	C	1.986236	0.666539	0.785721
C88	C	1.063091	-0.000110	-0.039984
C89	C	1.396424	0.333223	0.293349
C90	C	1.729758	0.666557	0.626682
C91	C	1.061213	-0.000105	-0.139281
C92	C	1.394546	0.333228	0.194053
C93	C	1.727880	0.666561	0.527386
N94	N	1.056769	0.243432	0.123543
N95	N	1.390102	0.576765	0.456876
N96	N	1.723435	0.910098	0.790210
C97	C	1.134631	-0.000114	-0.577563
C98	C	1.467964	0.333220	-0.244230
C99	C	1.801298	0.666553	0.089104
C100	C	1.136389	-0.000121	-0.484263
C101	C	1.469722	0.333213	-0.150930
C102	C	1.803055	0.666546	0.182404
C103	C	1.055796	-0.000108	-0.427043
C104	C	1.389130	0.333225	-0.093710
C105	C	1.722463	0.666558	0.239624
C106	C	0.973441	-0.000100	-0.463127
C107	C	1.306774	0.333233	-0.129794
C108	C	1.640108	0.666567	0.203539
C109	C	0.971685	-0.000100	-0.556426
C110	C	1.305018	0.333233	-0.223093
C111	C	1.638351	0.666566	0.110241
C112	C	0.977108	-0.000096	-0.268664
C113	C	1.310441	0.333237	0.064669
C114	C	1.643775	0.666570	0.398002
C115	C	0.978864	-0.000094	-0.175359
C116	C	1.312198	0.333240	0.157974
C117	C	1.645531	0.666573	0.491307
C118	C	1.141812	-0.000116	-0.196501
C119	C	1.475145	0.333217	0.136832
C120	C	1.808479	0.666550	0.470165
C121	C	1.140055	-0.000117	-0.289800
C122	C	1.473389	0.333216	0.043533
C123	C	1.806722	0.666550	0.376867
C124	C	1.057700	-0.000106	-0.325878
C125	C	1.391033	0.333227	0.007456
C126	C	1.724367	0.666560	0.340789
C127	C	1.050404	-0.000104	0.287062
C128	C	1.383738	0.333229	0.620395
C129	C	1.717071	0.666562	0.953729
C130	C	1.052282	-0.000102	0.386358
C131	C	1.385616	0.333231	0.719692
C132	C	1.718949	0.666565	1.053025
H133	H	0.766074	-0.000072	0.275673
H134	H	1.099407	0.333261	0.609006
H135	H	1.432740	0.666595	0.942339
H136	H	0.596822	-0.000093	0.272472
H137	H	0.930155	0.333240	0.605805
H138	H	1.263489	0.666573	0.939139
Cl139	Cl	0.331434	-0.000173	-0.065064
Cl140	Cl	0.664768	0.333160	0.268269
Cl141	Cl	0.998101	0.666493	0.601602
H142	H	0.904628	-0.000099	-0.585799
H143	H	1.237961	0.333234	-0.252466
H144	H	1.571294	0.666567	0.080868
Cl145	Cl	1.241373	-0.000125	-0.361733
Cl146	Cl	1.574706	0.333208	-0.028399
Cl147	Cl	1.908040	0.666541	0.304934
H148	H	1.200259	-0.000115	-0.624146
H149	H	1.533592	0.333218	-0.290813
H150	H	1.866926	0.666552	0.042521
H151	H	0.478316	-0.000092	0.270236
H152	H	0.811649	0.333241	0.603569
H153	H	1.144982	0.666574	0.936903
H154	H	0.516680	-0.000125	-0.025399
H155	H	0.850013	0.333209	0.307934
H156	H	1.183347	0.666542	0.641268
Cl157	Cl	0.829787	-0.000105	-0.055650
Cl158	Cl	1.163121	0.333229	0.277683
Cl159	Cl	1.496454	0.666562	0.611016
H160	H	0.635173	-0.000129	-0.023152
H161	H	0.968507	0.333204	0.310182
H162	H	1.301840	0.666537	0.643515
Cl163	Cl	1.245345	-0.000129	-0.151147
Cl164	Cl	1.578678	0.333205	0.182187
Cl165	Cl	1.912011	0.666538	0.515520
H166	H	0.309053	-0.000120	0.267037
H167	H	0.642386	0.333213	0.600370
H168	H	0.975719	0.666546	0.933704
Cl169	Cl	1.239918	-0.000109	-0.438911
Cl170	Cl	1.573251	0.333224	-0.105578
Cl171	Cl	1.906584	0.666558	0.227755
Cl172	Cl	0.873574	-0.000088	-0.314018
Cl173	Cl	1.206907	0.333245	0.019315
Cl174	Cl	1.540240	0.666578	0.352649
Cl175	Cl	0.872124	-0.000089	-0.391194
Cl176	Cl	1.205457	0.333244	-0.057860
Cl177	Cl	1.538791	0.666578	0.275473
H178	H	0.913239	-0.000090	-0.128772
H179	H	1.246572	0.333243	0.204561
H180	H	1.579905	0.666577	0.537894
