data_functionalizedCrystal
_audit_creation_method	'MofGen! by Chris Wilmer'
_symmetry_space_group_name_H-M	'P1'
_symmetry_Int_Tables_number	1
_symmetry_cell_setting	triclinic
loop_
_symmetry_equiv_pos_as_xyz
  x,y,z
_cell_length_a	17.077404
_cell_length_b	12.645330
_cell_length_c	17.077396
_cell_angle_alpha	89.975931
_cell_angle_beta	89.980499
_cell_angle_gamma	90.017917
loop_
_atom_site_label
_atom_site_type_symbol
_atom_site_fract_x
_atom_site_fract_y
_atom_site_fract_z
Zn1	Zn	1.200083	-0.422033	-0.443867
Zn2	Zn	1.533416	-0.088700	-0.110533
Zn3	Zn	1.866750	0.244634	0.222800
Zn4	Zn	1.200002	-0.599318	-0.312611
Zn5	Zn	1.533335	-0.265985	0.020722
Zn6	Zn	1.866669	0.067348	0.354056
Zn7	Zn	1.068815	-0.422070	-0.312615
Zn8	Zn	1.402148	-0.088737	0.020719
Zn9	Zn	1.735481	0.244596	0.354052
Zn10	Zn	1.068795	-0.599256	-0.443834
Zn11	Zn	1.402128	-0.265922	-0.110501
Zn12	Zn	1.735461	0.067411	0.222832
O13	O	1.134424	-0.510669	-0.378232
O14	O	1.467757	-0.177336	-0.044898
O15	O	1.801090	0.155997	0.288435
O16	O	1.309919	-0.445561	-0.426467
O17	O	1.643252	-0.112228	-0.093134
O18	O	1.976586	0.221106	0.240199
O19	O	1.182574	-0.575848	-0.202764
O20	O	1.515908	-0.242515	0.130569
O21	O	1.849241	0.090819	0.463902
O22	O	1.086270	-0.273718	-0.330041
O23	O	1.419603	0.059615	0.003293
O24	O	1.752937	0.392949	0.336626
O25	O	1.309860	-0.575812	-0.330034
O26	O	1.643193	-0.242479	0.003299
O27	O	1.976526	0.090855	0.336632
O28	O	1.182712	-0.273691	-0.426471
O29	O	1.516046	0.059643	-0.093138
O30	O	1.849379	0.392976	0.240196
O31	O	1.086192	-0.445624	-0.202767
O32	O	1.419525	-0.112291	0.130566
O33	O	1.752858	0.221042	0.463899
O34	O	0.958965	-0.445563	-0.330009
O35	O	1.292299	-0.112230	0.003324
O36	O	1.625632	0.221103	0.336657
O37	O	1.086236	-0.575705	-0.553686
O38	O	1.419569	-0.242371	-0.220352
O39	O	1.752902	0.090962	0.112981
O40	O	0.958950	-0.575741	-0.426416
O41	O	1.292284	-0.242407	-0.093083
O42	O	1.625617	0.090926	0.240251
O43	O	1.182693	-0.445500	-0.553709
O44	O	1.516026	-0.112167	-0.220376
O45	O	1.849359	0.221167	0.112957
O46	O	1.182555	-0.747657	-0.330003
O47	O	1.515888	-0.414324	0.003330
O48	O	1.849221	-0.080991	0.336664
O49	O	1.086157	-0.747611	-0.426412
O50	O	1.419491	-0.414278	-0.093079
O51	O	1.752824	-0.080945	0.240254
C52	C	0.930476	-0.510650	-0.378210
C53	C	1.263809	-0.177317	-0.044877
C54	C	1.597142	0.156017	0.288457
C55	C	0.843226	-0.510667	-0.378219
C56	C	1.176559	-0.177334	-0.044886
C57	C	1.509893	0.155999	0.288447
C58	C	0.802249	-0.578553	-0.428338
C59	C	1.135582	-0.245220	-0.095004
C60	C	1.468915	0.088114	0.238329
C61	C	0.720268	-0.578555	-0.428350
C62	C	1.053602	-0.245222	-0.095017
C63	C	1.386935	0.088111	0.238316
C64	C	0.679267	-0.510677	-0.378240
C65	C	1.012600	-0.177343	-0.044907
C66	C	1.345933	0.155990	0.288427
C67	C	0.720250	-0.442783	-0.328119
C68	C	1.053583	-0.109450	0.005214
C69	C	1.386916	0.223883	0.338547
C70	C	0.802229	-0.442777	-0.328111
C71	C	1.135562	-0.109443	0.005222
C72	C	1.468895	0.223890	0.338555
C73	C	0.549380	-0.442804	-0.328138
C74	C	0.882713	-0.109471	0.005195
C75	C	1.216046	0.223862	0.338528
C76	C	0.467395	-0.442812	-0.328145
C77	C	0.800728	-0.109479	0.005188
C78	C	1.134062	0.223854	0.338522
C79	C	0.467419	-0.578583	-0.428377
C80	C	0.800753	-0.245250	-0.095044
C81	C	1.134086	0.088084	0.238289
C82	C	0.549398	-0.578576	-0.428369
C83	C	0.882731	-0.245243	-0.095036
C84	C	1.216065	0.088090	0.238297
C85	C	0.590376	-0.510684	-0.378247
C86	C	0.923709	-0.177351	-0.044914
C87	C	1.257042	0.155982	0.288419
C88	C	1.134366	-0.786099	-0.378221
C89	C	1.467700	-0.452766	-0.044887
C90	C	1.801033	-0.119432	0.288446
C91	C	1.134414	-0.903929	-0.378242
C92	C	1.467747	-0.570596	-0.044909
C93	C	1.801080	-0.237262	0.288424
C94	C	1.074020	-1.071508	-0.439080
C95	C	1.407353	-0.738175	-0.105747
C96	C	1.740687	-0.404841	0.227586
C97	C	1.073711	-0.948949	-0.438885
C98	C	1.407044	-0.615615	-0.105552
C99	C	1.740378	-0.282282	0.227782
C100	C	1.112022	-0.948522	-0.295515
C101	C	1.445355	-0.615188	0.037818
C102	C	1.778689	-0.281855	0.371151
C103	C	1.111653	-1.071120	-0.295885
C104	C	1.444987	-0.737787	0.037449
C105	C	1.778320	-0.404453	0.370782
C106	C	1.217568	-1.071018	-0.399460
C107	C	1.550902	-0.737685	-0.066127
C108	C	1.884235	-0.404352	0.267207
C109	C	1.217059	-0.948411	-0.401269
C110	C	1.550392	-0.615078	-0.067936
C111	C	1.883725	-0.281745	0.265398
C112	C	1.339168	-0.510689	-0.378254
C113	C	1.672501	-0.177356	-0.044921
C114	C	2.005834	0.155977	0.288413
C115	C	1.426418	-0.510698	-0.378263
C116	C	1.759751	-0.177365	-0.044930
C117	C	2.093084	0.155969	0.288403
C118	C	1.134471	-0.510591	-0.582976
C119	C	1.467804	-0.177258	-0.249643
C120	C	1.801138	0.156075	0.083691
C121	C	1.134491	-0.510558	-0.670226
C122	C	1.467825	-0.177225	-0.336893
C123	C	1.801158	0.156109	-0.003559
C124	C	1.134502	-0.234164	-0.378260
C125	C	1.467836	0.099169	-0.044927
C126	C	1.801169	0.432503	0.288407
C127	C	1.134536	-0.116334	-0.378272
C128	C	1.467869	0.216999	-0.044939
C129	C	1.801203	0.550333	0.288395
C130	C	1.184718	-0.442755	-0.711230
C131	C	1.518052	-0.109421	-0.377896
C132	C	1.851385	0.223912	-0.044563
C133	C	1.184728	-0.442719	-0.793210
C134	C	1.518061	-0.109386	-0.459877
C135	C	1.851394	0.223947	-0.126544
C136	C	1.134514	-0.510493	-0.834185
C137	C	1.467847	-0.177160	-0.500852
C138	C	1.801180	0.156173	-0.167519
C139	C	1.084281	-0.578300	-0.793176
C140	C	1.417614	-0.244966	-0.459843
C141	C	1.750948	0.088367	-0.126509
C142	C	1.084268	-0.578329	-0.711197
C143	C	1.417602	-0.244995	-0.377864
C144	C	1.750935	0.088338	-0.044530
C145	C	1.084313	-0.578236	-0.964046
C146	C	1.417646	-0.244903	-0.630713
C147	C	1.750979	0.088431	-0.297379
C148	C	1.084326	-0.578208	-1.046031
C149	C	1.417660	-0.244875	-0.712697
C150	C	1.750993	0.088458	-0.379364
C151	C	1.184772	-0.442627	-1.046059
C152	C	1.518105	-0.109293	-0.712726
C153	C	1.851439	0.224040	-0.379393
C154	C	1.184759	-0.442656	-0.964080
C155	C	1.518093	-0.109322	-0.630747
C156	C	1.851426	0.224011	-0.297414
C157	C	1.134528	-0.510464	-0.923076
C158	C	1.467861	-0.177130	-0.589743
C159	C	1.801194	0.156203	-0.256410
C160	C	1.134421	-0.510671	-0.174284
C161	C	1.467755	-0.177337	0.159049
C162	C	1.801088	0.155996	0.492383
C163	C	1.134553	-0.510405	-0.087034
C164	C	1.467887	-0.177072	0.246299
C165	C	1.801220	0.156261	0.579632
H166	H	0.835626	-0.633831	-0.469141
H167	H	1.168960	-0.300498	-0.135808
H168	H	1.502293	0.032835	0.197526
H169	H	1.225611	-0.387568	-0.677874
H170	H	1.558944	-0.054235	-0.344540
H171	H	1.892278	0.279098	-0.011207
H172	H	1.087901	-1.100921	-0.500623
H173	H	1.421234	-0.767588	-0.167290
H174	H	1.754567	-0.434254	0.166044
H175	H	1.233945	-0.919262	-0.462152
H176	H	1.567278	-0.585929	-0.128818
H177	H	1.900612	-0.252595	0.204515
Cl178	Cl	1.021121	-0.663568	-0.659649
Cl179	Cl	1.354454	-0.330234	-0.326316
Cl180	Cl	1.687787	0.003099	0.007018
Cl181	Cl	0.415851	-0.357483	-0.265145
Cl182	Cl	0.749184	-0.024149	0.068189
Cl183	Cl	1.082517	0.309184	0.401522
Cl184	Cl	1.021151	-0.663498	-0.844688
Cl185	Cl	1.354485	-0.330165	-0.511354
Cl186	Cl	1.687818	0.003168	-0.178021
H187	H	0.686908	-0.633836	-0.469161
H188	H	1.020241	-0.300502	-0.135828
H189	H	1.353575	0.032831	0.197506
Cl190	Cl	1.247908	-0.357524	-0.844754
Cl191	Cl	1.581241	-0.024191	-0.511421
Cl192	Cl	1.914575	0.309143	-0.178088
Cl193	Cl	1.177914	-0.903505	-0.223649
Cl194	Cl	1.511247	-0.570172	0.109684
Cl195	Cl	1.844580	-0.236838	0.443017
H196	H	0.582741	-0.387510	-0.287331
H197	H	0.916074	-0.054177	0.046003
H198	H	1.249407	0.279157	0.379336
H199	H	1.237995	-1.101863	-0.458759
H200	H	1.571328	-0.768530	-0.125426
H201	H	1.904662	-0.435197	0.207908
Cl202	Cl	1.247891	-0.357459	-0.912570
Cl203	Cl	1.581225	-0.024126	-0.579236
Cl204	Cl	1.914558	0.309208	-0.245903
Cl205	Cl	0.979578	-1.119238	-0.417702
Cl206	Cl	1.312911	-0.785905	-0.084369
Cl207	Cl	1.646244	-0.452572	0.248964
Cl208	Cl	1.290341	-0.901082	-0.337874
Cl209	Cl	1.623674	-0.567749	-0.004540
Cl210	Cl	1.957007	-0.234415	0.328793
Cl211	Cl	1.019285	-0.901270	-0.267301
Cl212	Cl	1.352618	-0.567937	0.066032
Cl213	Cl	1.685952	-0.234603	0.399365
Cl214	Cl	0.668704	-0.357443	-0.265128
Cl215	Cl	1.002038	-0.024109	0.068205
Cl216	Cl	1.335371	0.309224	0.401539
H217	H	1.012155	-0.919714	-0.424848
H218	H	1.345488	-0.586381	-0.091514
H219	H	1.678822	-0.253047	0.241819
Cl220	Cl	1.095336	-0.902390	-0.533592
Cl221	Cl	1.428670	-0.569057	-0.200259
Cl222	Cl	1.762003	-0.235723	0.133075
Cl223	Cl	1.247921	-0.357384	-1.097606
Cl224	Cl	1.581255	-0.024050	-0.764273
Cl225	Cl	1.914588	0.309283	-0.430940
Cl226	Cl	1.021190	-0.663400	-1.097542
Cl227	Cl	1.354524	-0.330066	-0.764208
Cl228	Cl	1.687857	0.003267	-0.430875
Cl229	Cl	1.176742	-1.116912	-0.223543
Cl230	Cl	1.510075	-0.783579	0.109790
Cl231	Cl	1.843409	-0.450245	0.443124
H232	H	1.050956	-1.099811	-0.277936
H233	H	1.384290	-0.766478	0.055398
H234	H	1.717623	-0.433145	0.388731
Cl235	Cl	1.287182	-1.115793	-0.331094
Cl236	Cl	1.620515	-0.782460	0.002239
Cl237	Cl	1.953848	-0.449127	0.335573
Cl238	Cl	0.600942	-0.663918	-0.491361
Cl239	Cl	0.934276	-0.330585	-0.158027
Cl240	Cl	1.267609	0.002749	0.175306
H241	H	0.434051	-0.633860	-0.469191
H242	H	0.767385	-0.300527	-0.135857
H243	H	1.100718	0.032807	0.197476
Cl244	Cl	0.853743	-0.357428	-0.265105
Cl245	Cl	1.187076	-0.024095	0.068229
Cl246	Cl	1.520410	0.309238	0.401562
H247	H	1.043396	-0.633436	-0.930663
H248	H	1.376730	-0.300102	-0.597330
H249	H	1.710063	0.033231	-0.263997
