data_functionalizedCrystal
_audit_creation_method	'MofGen! by Chris Wilmer'
_symmetry_space_group_name_H-M	'P1'
_symmetry_Int_Tables_number	1
_symmetry_cell_setting	triclinic
loop_
_symmetry_equiv_pos_as_xyz
  x,y,z
_cell_length_a	6.817900
_cell_length_b	19.551823
_cell_length_c	16.417824
_cell_angle_alpha	95.900051
_cell_angle_beta	103.385545
_cell_angle_gamma	101.663376
loop_
_atom_site_label
_atom_site_type_symbol
_atom_site_fract_x
_atom_site_fract_y
_atom_site_fract_z
V1	V	-4.016479	-0.097245	-0.261547
O2	O	-4.013431	0.004087	-0.256165
O3	O	-3.959177	-0.192257	-0.260146
O4	O	-3.967650	-0.096007	-0.375440
O5	O	-4.004900	-0.092830	-0.140073
V6	V	-4.501316	-0.085094	-0.246971
O7	O	-4.274855	-0.123899	-0.293521
O8	O	-4.693138	-0.058440	-0.214996
O9	O	-4.335412	0.009918	-0.248372
O10	O	-4.621761	-0.186427	-0.252352
O11	O	-4.630292	-0.089510	-0.368445
O12	O	-4.326939	-0.086333	-0.133078
C13	C	-3.802026	-0.215411	-0.256120
C14	C	-3.836459	-0.293087	-0.255733
C15	C	-3.812833	-0.092633	-0.403188
C16	C	-3.854134	-0.092249	-0.496298
C17	C	-4.034386	-0.333141	-0.259740
C18	C	-4.066744	-0.406126	-0.259386
C19	C	-3.901155	-0.439052	-0.255007
C20	C	-3.703203	-0.398989	-0.251004
C21	C	-3.670855	-0.326006	-0.251367
C22	C	-3.788127	-0.545424	-0.201894
C23	C	-3.820479	-0.618405	-0.201525
C24	C	-4.000922	-0.664156	-0.253890
C25	C	-4.149036	-0.636916	-0.306614
C26	C	-4.116688	-0.563933	-0.306977
C27	C	-3.936211	-0.518189	-0.254613
C28	C	-4.233947	-0.783350	-0.257514
C29	C	-4.266301	-0.856337	-0.257165
C30	C	-3.902751	-0.849197	-0.248775
C31	C	-3.870407	-0.776212	-0.249133
C32	C	-4.036011	-0.743292	-0.253499
C33	C	-3.983381	-0.155368	-0.722738
C34	C	-4.022203	-0.155002	-0.810225
C35	C	-3.953789	-0.026966	-0.785767
C36	C	-3.914983	-0.027333	-0.698282
C37	C	-3.929771	-0.091535	-0.666771
C38	C	-4.007399	-0.090803	-0.841742
C39	C	-4.049491	-0.090406	-0.936599
C40	C	-3.887680	-0.091932	-0.571908
C41	C	-4.155904	0.033068	-0.252396
C42	C	-4.100709	0.110742	-0.252788
C43	C	-4.145098	-0.089709	-0.105326
C44	C	-4.083036	-0.090090	-0.012214
H45	H	-4.227924	-0.438745	-0.262648
N46	N	-3.524595	-0.434495	-0.246273
H47	H	-3.575116	-0.486807	-0.246644
H48	H	-3.413098	-0.413274	-0.192310
N49	N	-4.276410	-0.534551	-0.363844
H50	H	-4.395632	-0.574603	-0.396965
H51	H	-4.210953	-0.508400	-0.404428
N52	N	-3.857130	0.041516	-0.637904
H53	H	-3.963115	0.041841	-0.603969
H54	H	-3.853595	0.082208	-0.671193
N55	N	-4.479798	-0.899542	-0.261496
H56	H	-4.474845	-0.923089	-0.209347
H57	H	-4.527676	-0.936837	-0.313762
H58	H	-4.295788	-0.674176	-0.349370
H59	H	-3.995425	-0.207645	-0.697085
H60	H	-4.169240	-0.306343	-0.263301
H61	H	-4.368791	-0.756545	-0.261068
N62	N	-3.724146	-0.884700	-0.244061
H63	H	-3.774670	-0.937013	-0.244442
H64	H	-3.612632	-0.863486	-0.190100
N65	N	-4.080035	-0.223853	-0.870585
H66	H	-3.964623	-0.249527	-0.857799
H67	H	-4.102428	-0.213829	-0.930766
N68	N	-3.656926	-0.733005	-0.244812
H69	H	-3.556932	-0.764936	-0.241986
H70	H	-3.609098	-0.695667	-0.192589
N71	N	-3.660704	-0.647782	-0.144681
H72	H	-3.708571	-0.700958	-0.152397
H73	H	-3.642428	-0.627261	-0.083644
N74	N	-3.593497	-0.496081	-0.145411
H75	H	-3.504590	-0.524410	-0.111952
H76	H	-3.632101	-0.461673	-0.105126
N77	N	-3.457370	-0.282800	-0.247050
H78	H	-3.357376	-0.314730	-0.244227
H79	H	-3.409543	-0.245464	-0.194824
H80	H	-3.941751	0.025305	-0.811435
