data_functionalizedCrystal
_audit_creation_method	'MofGen! by Chris Wilmer'
_symmetry_space_group_name_H-M	'P1'
_symmetry_Int_Tables_number	1
_symmetry_cell_setting	triclinic
loop_
_symmetry_equiv_pos_as_xyz
  x,y,z
_cell_length_a	6.817900
_cell_length_b	11.102193
_cell_length_c	16.255661
_cell_angle_alpha	93.856118
_cell_angle_beta	103.488922
_cell_angle_gamma	108.604125
loop_
_atom_site_label
_atom_site_type_symbol
_atom_site_fract_x
_atom_site_fract_y
_atom_site_fract_z
V1	V	-4.052933	-0.176866	-0.263874
O2	O	-4.013087	0.007443	-0.258848
O3	O	-4.030104	-0.349680	-0.262073
O4	O	-4.004160	-0.174609	-0.378957
O5	O	-4.039211	-0.168840	-0.141154
V6	V	-4.533295	-0.154766	-0.249195
O7	O	-4.321123	-0.225345	-0.296073
O8	O	-4.715302	-0.106287	-0.216997
O9	O	-4.332917	0.018048	-0.250997
O10	O	-4.690538	-0.339075	-0.254222
O11	O	-4.664414	-0.162792	-0.371916
O12	O	-4.358861	-0.157023	-0.134112
C13	C	-3.881338	-0.391794	-0.257911
C14	C	-3.943958	-0.533075	-0.257205
C15	C	-3.975691	-0.761648	-0.100858
C16	C	-3.903304	-0.676817	-0.023686
C17	C	-3.844470	-0.544073	-0.024351
C18	C	-3.858019	-0.496158	-0.102196
C19	C	-3.930406	-0.580988	-0.179368
C20	C	-3.989243	-0.713734	-0.178694
C21	C	-4.016344	-0.617905	-0.334376
C22	C	-4.075195	-0.750651	-0.333713
C23	C	-4.029894	-0.569990	-0.412221
C24	C	-4.102296	-0.654822	-0.489395
C25	C	-4.161135	-0.787574	-0.488727
C26	C	-4.147581	-0.835481	-0.410885
C27	C	-3.848242	-0.168472	-0.407008
C28	C	-3.889818	-0.167770	-0.501089
C29	C	-3.799132	-0.159386	-0.723907
C30	C	-3.971590	-0.267596	-0.793386
C31	C	-3.966007	-0.166454	-0.673338
C32	C	-3.867656	-0.057005	-0.771497
C33	C	-4.039586	-0.165177	-0.839721
C34	C	-4.137962	-0.274761	-0.741586
C35	C	-4.033952	-0.064075	-0.719682
C36	C	-4.206551	-0.172316	-0.789140
C37	C	-3.923616	-0.167191	-0.577488
C38	C	-4.081996	-0.164450	-0.935570
C39	C	-4.145026	0.060155	-0.255157
C40	C	-4.061645	0.201434	-0.255868
C41	C	-4.178122	-0.163164	-0.106057
C42	C	-4.115784	-0.163860	-0.011975
H43	H	-3.810085	-0.388068	-0.102730
H44	H	-3.981976	-0.461901	-0.412757
H45	H	-4.251836	-0.366888	-0.728120
H46	H	-4.113306	-0.615797	-0.552770
C47	C	-4.240759	-0.880878	-0.573617
H48	H	-4.240410	-0.833325	-0.620069
H49	H	-4.148386	-0.929285	-0.573880
H50	H	-4.382634	-0.937574	-0.579282
H51	H	-4.195491	-0.943567	-0.410333
C52	C	-3.566052	-0.152192	-0.685421
H53	H	-3.543942	-0.224622	-0.710900
H54	H	-3.469776	-0.075601	-0.696214
H55	H	-3.540665	-0.151945	-0.625399
C56	C	-3.936583	-0.383826	-0.836744
H57	H	-3.792154	-0.379126	-0.814289
H58	H	-4.031222	-0.461081	-0.825978
H59	H	-3.964729	-0.382955	-0.896716
C60	C	-4.439826	-0.179738	-0.827445
H61	H	-4.535827	-0.257114	-0.817434
H62	H	-4.462754	-0.108165	-0.801219
H63	H	-4.464822	-0.178544	-0.887325
C64	C	-4.068847	0.052166	-0.676294
H65	H	-3.972291	0.129441	-0.686164
H66	H	-4.212490	0.048383	-0.699482
H67	H	-4.043227	0.050406	-0.616456
C68	C	-3.713839	0.067321	-0.789840
H69	H	-3.794868	0.114011	-0.819825
H70	H	-3.621967	0.118514	-0.737320
H71	H	-3.629800	0.046127	-0.823707
C72	C	-4.040426	-0.907663	-0.100123
H73	H	-4.021983	-0.924050	-0.042712
H74	H	-4.186723	-0.948655	-0.131300
H75	H	-3.952471	-0.940362	-0.125892
H76	H	-3.892275	-0.715845	0.039694
H77	H	-3.785511	-0.475002	0.038489
