data_functionalizedCrystal
_audit_creation_method	'MofGen! by Chris Wilmer'
_symmetry_space_group_name_H-M	'P1'
_symmetry_Int_Tables_number	1
_symmetry_cell_setting	triclinic
loop_
_symmetry_equiv_pos_as_xyz
  x,y,z
_cell_length_a	23.532407
_cell_length_b	23.532407
_cell_length_c	22.610064
_cell_angle_alpha	89.984707
_cell_angle_beta	89.987421
_cell_angle_gamma	97.151322
loop_
_atom_site_label
_atom_site_type_symbol
_atom_site_fract_x
_atom_site_fract_y
_atom_site_fract_z
O1	O	0.755249	-0.069141	0.049117
O2	O	1.255249	0.430859	0.549117
O3	O	0.589386	-0.079144	0.049135
O4	O	1.089386	0.420856	0.549135
O5	O	0.677319	0.008789	0.049114
O6	O	1.177319	0.508789	0.549114
O7	O	0.667316	-0.157074	0.049137
O8	O	1.167316	0.342926	0.549137
O9	O	0.677332	0.008804	-0.049255
O10	O	1.177332	0.508804	0.450745
O11	O	0.589399	-0.079129	-0.049234
O12	O	1.089399	0.420871	0.450766
O13	O	0.755262	-0.069126	-0.049252
O14	O	1.255262	0.430874	0.450748
Zn15	Zn	0.672333	-0.074125	-0.064862
Zn16	Zn	1.172333	0.425875	0.435138
Zn17	Zn	0.672315	-0.074145	0.064744
Zn18	Zn	1.172315	0.425855	0.564744
O19	O	0.667329	-0.157059	-0.049232
O20	O	1.167329	0.342941	0.450768
C21	C	0.677071	0.030013	-0.000072
C22	C	1.177071	0.530013	0.499928
C23	C	0.676305	0.093230	-0.000076
C24	C	1.176305	0.593230	0.499924
C25	C	0.568176	-0.078882	-0.000048
C26	C	1.068176	0.421118	0.499952
C27	C	0.504959	-0.078116	-0.000041
C28	C	1.004959	0.421884	0.499959
N29	N	0.672304	-0.074154	0.153196
N30	N	1.172304	0.425846	0.653196
C31	C	0.105856	-0.125350	-0.000061
C32	C	0.605856	0.374650	0.499939
C33	C	0.046456	-0.124638	-0.000065
C34	C	0.546456	0.375362	0.499935
O35	O	0.009711	-0.168424	-0.000081
O36	O	0.509711	0.331576	0.499919
N37	N	0.023830	-0.072362	-0.000071
N38	N	0.523830	0.427638	0.499929
C39	C	0.060607	-0.020794	-0.000080
C40	C	0.560607	0.479206	0.499920
O41	O	0.035908	0.023737	-0.000086
O42	O	0.535908	0.523737	0.499914
C43	C	0.120006	-0.021506	-0.000080
C44	C	0.620006	0.478494	0.499920
C45	C	0.142629	-0.073785	-0.000068
C46	C	0.642629	0.426215	0.499932
C47	C	0.128479	-0.177625	-0.000050
C48	C	0.628479	0.322375	0.499950
C49	C	0.187876	-0.178336	-0.000045
C50	C	0.687876	0.321664	0.499955
C51	C	0.224649	-0.126772	-0.000052
C52	C	0.724649	0.373228	0.499948
C53	C	0.202025	-0.074496	-0.000063
C54	C	0.702025	0.425504	0.499937
C55	C	0.156783	0.030062	-0.000093
C56	C	0.656783	0.530062	0.499907
C57	C	0.216185	0.029345	-0.000094
C58	C	0.716185	0.529345	0.499906
C59	C	0.238808	-0.022934	-0.000082
C60	C	0.738808	0.477066	0.499918
C61	C	0.298194	-0.023643	-0.000065
C62	C	0.798194	0.476357	0.499935
N63	N	0.320820	-0.075920	-0.000059
N64	N	0.820820	0.424080	0.499941
C65	C	0.284048	-0.127484	-0.000052
C66	C	0.784048	0.372516	0.499948
C67	C	-0.064135	-0.019302	-0.000080
C68	C	0.435865	0.480698	0.499920
C69	C	-0.123533	-0.018589	-0.000075
C70	C	0.376467	0.481411	0.499925
C71	C	-0.137680	-0.122434	-0.000061
C72	C	0.362320	0.377566	0.499939
C73	C	-0.078281	-0.123146	-0.000062
C74	C	0.421719	0.376854	0.499938
C75	C	-0.041509	-0.071578	-0.000074
C76	C	0.458491	0.428422	0.499926
C77	C	0.408784	-0.128974	-0.000042
C78	C	0.908784	0.371026	0.499958
C79	C	0.468186	-0.129680	-0.000034
C80	C	0.968186	0.370320	0.499966
C81	C	0.482329	-0.025836	-0.000051
C82	C	0.982329	0.474164	0.499949
C83	C	0.422932	-0.025129	-0.000055
C84	C	0.922932	0.474871	0.499945
C85	C	0.386160	-0.076702	-0.000052
C86	C	0.886160	0.423298	0.499948
O87	O	0.334974	0.020119	-0.000052
O88	O	0.834974	0.520119	0.499948
O89	O	0.308755	-0.172007	-0.000054
O90	O	0.808755	0.327993	0.499946
C91	C	0.776472	-0.069388	-0.000069
C92	C	1.276472	0.430612	0.499931
C93	C	0.839689	-0.070154	-0.000071
C94	C	1.339689	0.429846	0.499929
C95	C	0.667577	-0.178283	-0.000045
C96	C	1.167577	0.321717	0.499955
C97	C	0.668343	-0.241500	-0.000036
C98	C	1.168343	0.258500	0.499964
C99	C	0.723539	0.492333	-0.000049
C100	C	1.223539	0.992333	0.499951
C101	C	0.722827	0.551733	-0.000044
C102	C	1.222827	1.051733	0.499956
O103	O	0.766613	0.588478	-0.000027
O104	O	1.266613	1.088478	0.499973
N105	N	0.670551	0.574359	-0.000039
N106	N	1.170551	1.074359	0.499961
C107	C	0.618983	0.537582	-0.000032
C108	C	1.118983	1.037582	0.499968
O109	O	0.574452	0.562281	-0.000027
O110	O	1.074452	1.062281	0.499973
C111	C	0.619695	0.478182	-0.000033
C112	C	1.119695	0.978182	0.499967
C113	C	0.671974	0.455560	-0.000044
C114	C	1.171974	0.955560	0.499956
C115	C	0.775814	0.469710	-0.000060
C116	C	1.275814	0.969710	0.499940
C117	C	0.776525	0.410313	-0.000065
C118	C	1.276525	0.910313	0.499935
C119	C	0.724961	0.373540	-0.000060
C120	C	1.224961	0.873540	0.499940
C121	C	0.672685	0.396164	-0.000050
C122	C	1.172685	0.896164	0.499950
C123	C	0.568127	0.441406	-0.000022
C124	C	1.068127	0.941406	0.499978
C125	C	0.568844	0.382004	-0.000021
C126	C	1.068844	0.882004	0.499979
C127	C	0.621123	0.359381	-0.000033
C128	C	1.121123	0.859381	0.499967
C129	C	0.621832	0.299995	-0.000050
C130	C	1.121832	0.799995	0.499950
N131	N	0.674109	0.277369	-0.000056
N132	N	1.174109	0.777369	0.499944
C133	C	0.725673	0.314141	-0.000061
C134	C	1.225673	0.814141	0.499939
C135	C	0.617491	0.662324	-0.000031
C136	C	1.117491	1.162324	0.499969
C137	C	0.616778	0.721722	-0.000034
C138	C	1.116778	1.221722	0.499966
C139	C	0.720623	0.735869	-0.000045
C140	C	1.220623	1.235869	0.499955
C141	C	0.721335	0.676470	-0.000046
C142	C	1.221335	1.176470	0.499954
C143	C	0.669767	0.639698	-0.000036
C144	C	1.169767	1.139698	0.499964
C145	C	0.727163	0.189405	-0.000073
C146	C	1.227163	0.689405	0.499927
C147	C	0.727869	0.130003	-0.000081
C148	C	1.227869	0.630003	0.499919
C149	C	0.624025	0.115860	-0.000067
C150	C	1.124025	0.615860	0.499933
C151	C	0.623318	0.175257	-0.000062
C152	C	1.123318	0.675257	0.499938
C153	C	0.674891	0.212029	-0.000063
C154	C	1.174891	0.712029	0.499937
O155	O	0.578070	0.263215	-0.000065
O156	O	1.078070	0.763215	0.499935
O157	O	0.770196	0.289434	-0.000058
O158	O	1.270196	0.789434	0.499942
N159	N	0.672349	-0.074111	-0.153314
N160	N	1.172349	0.425889	0.346686
C161	C	0.711350	-0.035273	0.561829
C162	C	1.211350	0.464727	1.061829
C163	C	0.711354	-0.035270	0.623749
C164	C	1.211354	0.464730	1.123749
O165	O	0.744544	-0.002236	0.655760
O166	O	1.244544	0.497764	1.155760
N167	N	0.672345	-0.074126	0.654734
N168	N	1.172345	0.425874	1.154734
C169	C	0.633332	-0.112990	0.623795
C170	C	1.133332	0.387010	1.123795
O171	O	0.600152	-0.146040	0.655836
O172	O	1.100152	0.353960	1.155836
C173	C	0.633331	-0.112995	0.561877
C174	C	1.133331	0.387005	1.061877
C175	C	0.672339	-0.074133	0.530895
C176	C	1.172339	0.425867	1.030895
C177	C	0.750356	0.003585	0.530847
C178	C	1.250356	0.503585	1.030847
C179	C	0.750351	0.003583	0.468931
C180	C	1.250351	0.503583	0.968931
C181	C	0.711340	-0.035278	0.437998
C182	C	1.211340	0.464722	0.937998
C183	C	0.672334	-0.074136	0.468979
C184	C	1.172334	0.425864	0.968979
C185	C	0.594321	-0.151862	0.530940
C186	C	1.094321	0.348138	1.030940
C187	C	0.594324	-0.151864	0.469017
C188	C	1.094324	0.348136	0.969017
C189	C	0.633332	-0.113002	0.438035
C190	C	1.133332	0.386998	0.938035
C191	C	0.633318	-0.112998	0.376130
C192	C	1.133318	0.387002	0.876130
N193	N	0.672328	-0.074143	0.345145
N194	N	1.172328	0.425857	0.845145
C195	C	0.711339	-0.035283	0.376079
C196	C	1.211339	0.464717	0.876079
C197	C	0.633338	-0.112977	0.753829
C198	C	1.133338	0.387023	1.253829
C199	C	0.633336	-0.112970	0.815747
C200	C	1.133336	0.387030	1.315747
C201	C	0.711359	-0.035251	0.815696
C202	C	1.211359	0.464749	1.315696
C203	C	0.711358	-0.035256	0.753777
C204	C	1.211358	0.464744	1.253777
C205	C	0.672348	-0.074122	0.722844
C206	C	1.172348	0.425878	1.222844
C207	C	0.711325	-0.035290	0.246051
C208	C	1.211325	0.464710	0.746051
C209	C	0.711314	-0.035294	0.184130
C210	C	1.211314	0.464706	0.684130
C211	C	0.633293	-0.113015	0.184187
C212	C	1.133293	0.386985	0.684187
C213	C	0.633301	-0.113009	0.246102
C214	C	1.133301	0.386991	0.746102
C215	C	0.672322	-0.074144	0.277033
C216	C	1.172322	0.425856	0.777033
O217	O	0.600147	-0.146017	0.344079
O218	O	1.100147	0.353983	0.844079
O219	O	0.744518	-0.002244	0.344030
O220	O	1.244518	0.497756	0.844030
H221	H	0.486602	-0.172255	-0.000024
H222	H	0.986602	0.327745	0.499976
H223	H	0.526850	0.352066	-0.000013
H224	H	1.026850	0.852066	0.499987
N225	N	0.591224	-0.154920	0.279519
N226	N	1.091224	0.345080	0.779519
H227	H	0.612792	-0.180074	0.305208
H228	H	1.112792	0.319926	0.805208
H229	H	0.566193	-0.133191	0.305178
H230	H	1.066193	0.366809	0.805178
H231	H	-0.167632	-0.164421	-0.000059
H232	H	0.332368	0.335579	0.499941
H233	H	0.512280	0.016146	-0.000054
H234	H	1.012280	0.516146	0.499946
N235	N	0.753396	0.006618	0.150717
N236	N	1.253396	0.506618	0.650717
H237	H	0.747476	0.000723	0.106797
H238	H	1.247476	0.500723	0.606797
H239	H	0.747128	0.047010	0.161530
H240	H	1.247128	0.547010	0.661530
N241	N	-0.147930	0.037797	-0.000077
N242	N	0.352070	0.537797	0.499923
H243	H	-0.115616	0.070352	-0.000081
H244	H	0.384384	0.570352	0.499919
H245	H	-0.172255	0.040363	-0.036546
H246	H	0.327745	0.540363	0.463454
N247	N	0.792429	0.045510	0.564203
N248	N	1.292429	0.545510	1.064203
H249	H	0.786517	0.039627	0.608132
H250	H	1.286517	0.539627	1.108132
H251	H	0.832770	0.039062	0.553371
H252	H	1.332770	0.539062	1.053371
N253	N	0.777722	0.652072	-0.000054
N254	N	1.277722	1.152072	0.499946
H255	H	0.780338	0.627754	-0.036520
H256	H	1.280338	1.127754	0.463480
H257	H	0.810243	0.684417	-0.000037
H258	H	1.310243	1.184417	0.499963
H259	H	0.562557	-0.183515	0.443834
H260	H	1.062557	0.316485	0.943834
H261	H	0.770444	0.111587	-0.000092
H262	H	1.270444	0.611587	0.499908
N263	N	0.753410	0.006626	0.279407
N264	N	1.253410	0.506626	0.779407
H265	H	0.778116	0.031240	0.250377
H266	H	1.278116	0.531240	0.750377
H267	H	0.731808	0.031744	0.305096
H268	H	1.231808	0.531744	0.805096
N269	N	0.561868	0.622664	-0.000025
N270	N	1.061868	1.122664	0.499975
H271	H	0.528647	0.646015	-0.000023
H272	H	1.028647	1.146015	0.499977
H273	H	0.559904	0.597721	-0.036492
H274	H	1.059904	1.097721	0.463508
H275	H	0.574207	0.740136	-0.000035
H276	H	1.074207	1.240136	0.499965
N277	N	0.511739	0.465797	-0.000017
N278	N	1.011739	0.965797	0.499983
H279	H	0.479187	0.433480	-0.000013
H280	H	0.979187	0.933480	0.499987
H281	H	0.509171	0.490122	0.036450
H282	H	1.009171	0.990122	0.536450
H283	H	0.743122	-0.003612	0.728555
H284	H	1.243122	0.496388	1.228555
H285	H	0.743125	-0.003609	0.840893
H286	H	1.243125	0.496391	1.340893
H287	H	0.580748	0.193677	-0.000069
H288	H	1.080748	0.693677	0.499931
N289	N	0.369129	-0.184598	-0.000053
N290	N	0.869129	0.315402	0.499947
H291	H	0.392482	-0.217818	-0.000048
H292	H	0.892482	0.282182	0.499952
H293	H	0.344160	-0.186581	0.036409
H294	H	0.844160	0.313419	0.536409
N295	N	0.832910	0.385913	-0.000063
N296	N	1.332910	0.885913	0.499937
H297	H	0.835534	0.361594	-0.036527
H298	H	1.335534	0.861594	0.463473
H299	H	0.865433	0.418257	-0.000039
H300	H	1.365433	0.918257	0.499961
H301	H	0.769159	0.219337	-0.000071
H302	H	1.269159	0.719337	0.499929
H303	H	0.246123	0.071339	-0.000104
H304	H	0.746123	0.571339	0.499896
N305	N	-0.024475	0.036321	-0.000089
N306	N	0.475525	0.536321	0.499911
H307	H	-0.047826	0.069542	-0.000093
H308	H	0.452174	0.569542	0.499907
H309	H	0.000471	0.038286	0.036377
H310	H	0.500471	0.538286	0.536377
N311	N	0.792439	0.045489	0.435527
N312	N	1.292439	0.545489	0.935527
H313	H	0.770889	0.070652	0.409831
H314	H	1.270889	0.570652	0.909831
H315	H	0.817138	0.070057	0.464571
H316	H	1.317138	0.570057	0.964571
H317	H	0.817806	0.499645	-0.000061
H318	H	1.317806	0.999645	0.499939
N319	N	0.132392	0.086450	-0.000109
N320	N	0.632392	0.586450	0.499891
H321	H	0.164709	0.119002	-0.000118
H322	H	0.664709	0.619002	0.499882
H323	H	0.108068	0.089011	-0.036579
H324	H	0.608068	0.589011	0.463421
N325	N	0.398527	0.031256	-0.000057
N326	N	0.898527	0.531256	0.499943
H327	H	0.430838	0.063814	-0.000058
H328	H	0.930838	0.563814	0.499942
H329	H	0.374204	0.033821	-0.036528
H330	H	0.874204	0.533821	0.463472
N331	N	0.776241	0.775538	-0.000051
N332	N	1.276241	1.275538	0.499949
H333	H	0.767853	0.816598	-0.000047
H334	H	1.267853	1.316598	0.499953
H335	H	0.799034	0.768236	0.036413
H336	H	1.299034	1.268236	0.536413
N337	N	0.568411	0.076193	-0.000078
N338	N	1.068411	0.576193	0.499922
H339	H	0.576799	0.035133	-0.000085
H340	H	1.076799	0.535133	0.499915
H341	H	0.545602	0.083466	0.036390
H342	H	1.045602	0.583466	0.536390
N343	N	0.591254	-0.154875	0.849159
N344	N	1.091254	0.345125	1.349159
H345	H	0.566541	-0.179490	0.820161
H346	H	1.066541	0.320510	1.320161
H347	H	0.612856	-0.179992	0.874852
H348	H	1.112856	0.320008	1.374852
H349	H	0.601529	-0.144653	0.158991
H350	H	1.101529	0.355347	0.658991
H351	H	0.562557	-0.183507	0.556156
H352	H	1.062557	0.316493	1.056156
N353	N	0.591253	-0.154892	0.720468
N354	N	1.091253	0.345108	1.220468
H355	H	0.566541	-0.179501	0.749496
H356	H	1.066541	0.320499	1.249496
H357	H	0.566247	-0.133162	0.694779
H358	H	1.066247	0.366838	1.194779
H359	H	0.098544	-0.219617	-0.000046
H360	H	0.598544	0.280383	0.499954
N361	N	0.212264	-0.234728	-0.000032
N362	N	0.712264	0.265272	0.499968
H363	H	0.198838	-0.257294	-0.036495
H364	H	0.698838	0.242706	0.463505
H365	H	0.255470	-0.227320	-0.000008
H366	H	0.755470	0.272680	0.499992
N367	N	-0.053883	-0.179533	-0.000047
N368	N	0.446117	0.320467	0.499953
H369	H	-0.086197	-0.212087	-0.000040
H370	H	0.413803	0.287913	0.499960
H371	H	-0.029539	-0.182090	-0.036513
H372	H	0.470461	0.317910	0.463487
