data_functionalizedCrystal
_audit_creation_method	'MofGen! by Chris Wilmer'
_symmetry_space_group_name_H-M	'P1'
_symmetry_Int_Tables_number	1
_symmetry_cell_setting	triclinic
loop_
_symmetry_equiv_pos_as_xyz
  x,y,z
_cell_length_a	19.077569
_cell_length_b	19.077241
_cell_length_c	16.120484
_cell_angle_alpha	84.670961
_cell_angle_beta	90.690422
_cell_angle_gamma	94.521759
loop_
_atom_site_label
_atom_site_type_symbol
_atom_site_fract_x
_atom_site_fract_y
_atom_site_fract_z
Zn1	Zn	-0.452650	-1.083087	-0.258976
Zn2	Zn	-0.202650	-0.833087	-0.008976
Zn3	Zn	0.047350	-0.583087	0.241024
Zn4	Zn	0.297350	-0.333087	0.491024
Zn5	Zn	-0.340731	-1.072288	-0.404232
Zn6	Zn	-0.090731	-0.822288	-0.154232
Zn7	Zn	0.159269	-0.572288	0.095768
Zn8	Zn	0.409269	-0.322288	0.345768
Zn9	Zn	-0.330508	-0.959984	-0.270654
Zn10	Zn	-0.080508	-0.709984	-0.020654
Zn11	Zn	0.169492	-0.459984	0.229346
Zn12	Zn	0.419492	-0.209984	0.479346
Zn13	Zn	-0.453832	-0.959184	-0.404175
Zn14	Zn	-0.203832	-0.709184	-0.154175
Zn15	Zn	0.046168	-0.459184	0.095825
Zn16	Zn	0.296168	-0.209184	0.345825
O17	O	-0.394430	-1.018636	-0.334509
O18	O	-0.144430	-0.768636	-0.084509
O19	O	0.105570	-0.518636	0.165491
O20	O	0.355570	-0.268636	0.415491
O21	O	-0.441587	-1.180508	-0.273381
O22	O	-0.191587	-0.930508	-0.023381
O23	O	0.058413	-0.680508	0.226619
O24	O	0.308413	-0.430508	0.476619
O25	O	-0.240925	-1.053207	-0.391424
O26	O	0.009075	-0.803207	-0.141424
O27	O	0.259075	-0.553207	0.108576
O28	O	0.509075	-0.303207	0.358576
O29	O	-0.341938	-0.981168	-0.152436
O30	O	-0.091938	-0.731168	0.097564
O31	O	0.158062	-0.481168	0.347564
O32	O	0.408062	-0.231168	0.597564
O33	O	-0.359360	-1.172574	-0.380100
O34	O	-0.109360	-0.922574	-0.130100
O35	O	0.140640	-0.672574	0.119900
O36	O	0.390640	-0.422574	0.369900
O37	O	-0.431675	-1.071611	-0.143856
O38	O	-0.181675	-0.821611	0.106144
O39	O	0.068325	-0.571611	0.356144
O40	O	0.318325	-0.321611	0.606144
O41	O	-0.233414	-0.970698	-0.293285
O42	O	0.016586	-0.720698	-0.043285
O43	O	0.266586	-0.470698	0.206715
O44	O	0.516586	-0.220698	0.456715
O45	O	-0.343084	-0.861025	-0.293230
O46	O	-0.093084	-0.611025	-0.043230
O47	O	0.156916	-0.361025	0.206770
O48	O	0.406916	-0.111025	0.456770
O49	O	-0.552125	-0.979804	-0.380003
O50	O	-0.302125	-0.729804	-0.130003
O51	O	-0.052125	-0.479804	0.119997
O52	O	0.197875	-0.229804	0.369997
O53	O	-0.433690	-0.860436	-0.391327
O54	O	-0.183690	-0.610436	-0.141327
O55	O	0.066310	-0.360436	0.108673
O56	O	0.316310	-0.110436	0.358673
O57	O	-0.551257	-1.070835	-0.273326
O58	O	-0.301257	-0.820835	-0.023326
O59	O	-0.051257	-0.570835	0.226674
O60	O	0.198743	-0.320835	0.476674
O61	O	-0.360507	-1.052430	-0.520894
O62	O	-0.110507	-0.802430	-0.270894
O63	O	0.139493	-0.552430	-0.020894
O64	O	0.389493	-0.302430	0.229106
O65	O	-0.443602	-0.969333	-0.520852
O66	O	-0.193602	-0.719333	-0.270852
O67	O	0.056398	-0.469333	-0.020852
O68	O	0.306398	-0.219333	0.229148
C69	C	-0.387406	-0.835099	-0.343540
C70	C	-0.137406	-0.585099	-0.093540
C71	C	0.112594	-0.335099	0.156460
C72	C	0.362594	-0.085099	0.406460
C73	C	-0.384419	-0.756581	-0.347423
C74	C	-0.134419	-0.506581	-0.097423
C75	C	0.115581	-0.256581	0.152577
C76	C	0.365581	-0.006581	0.402577
C77	C	-0.403308	-1.009643	-0.551123
C78	C	-0.153308	-0.759643	-0.301123
C79	C	0.096692	-0.509643	-0.051123
C80	C	0.346692	-0.259643	0.198877
C81	C	-0.407132	-1.005861	-0.643786
C82	C	-0.157132	-0.755861	-0.393786
C83	C	0.092868	-0.505861	-0.143786
C84	C	0.342868	-0.255861	0.106214
C85	C	-0.577932	-1.026434	-0.325355
C86	C	-0.327932	-0.776434	-0.075355
C87	C	-0.077932	-0.526434	0.174645
C88	C	0.172068	-0.276434	0.424645
C89	C	-0.656129	-1.029758	-0.321454
C90	C	-0.406129	-0.779758	-0.071454
C91	C	-0.156129	-0.529758	0.178546
C92	C	0.093871	-0.279758	0.428546
C93	C	-0.693320	-0.983925	-0.375159
C94	C	-0.443320	-0.733925	-0.125159
C95	C	-0.193320	-0.483925	0.124841
C96	C	0.056680	-0.233925	0.374841
C97	C	-0.766795	-0.987054	-0.371493
C98	C	-0.516795	-0.737054	-0.121493
C99	C	-0.266795	-0.487054	0.128507
C100	C	-0.016795	-0.237054	0.378507
C101	C	-0.803078	-1.036012	-0.314118
C102	C	-0.553078	-0.786012	-0.064118
C103	C	-0.303078	-0.536012	0.185882
C104	C	-0.053078	-0.286012	0.435882
C105	C	-0.765882	-1.081849	-0.260411
C106	C	-0.515882	-0.831849	-0.010411
C107	C	-0.265882	-0.581849	0.239589
C108	C	-0.015882	-0.331849	0.489589
C109	C	-0.692409	-1.078724	-0.264082
C110	C	-0.442409	-0.828724	-0.014082
C111	C	-0.192409	-0.578724	0.235918
C112	C	0.057591	-0.328724	0.485918
C113	C	-1.022771	-1.050445	-0.297189
C114	C	-0.772771	-0.800445	-0.047189
C115	C	-0.522771	-0.550445	0.202811
C116	C	-0.272771	-0.300445	0.452811
C117	C	-1.096250	-1.053566	-0.293521
C118	C	-0.846250	-0.803566	-0.043521
C119	C	-0.596250	-0.553566	0.206479
C120	C	-0.346250	-0.303566	0.456479
C121	C	-1.097157	-0.958771	-0.404604
C122	C	-0.847157	-0.708771	-0.154604
C123	C	-0.597157	-0.458771	0.095396
C124	C	-0.347157	-0.208771	0.345396
C125	C	-1.023682	-0.955647	-0.408266
C126	C	-0.773682	-0.705647	-0.158266
C127	C	-0.523682	-0.455647	0.091734
C128	C	-0.273682	-0.205647	0.341734
C129	C	-0.986493	-1.001487	-0.354562
C130	C	-0.736493	-0.751487	-0.104562
C131	C	-0.486493	-0.501487	0.145438
C132	C	-0.236493	-0.251487	0.395438
N133	N	-0.878181	-1.039209	-0.310368
N134	N	-0.628181	-0.789209	-0.060368
N135	N	-0.378181	-0.539209	0.189632
N136	N	-0.128181	-0.289209	0.439632
N137	N	-0.911392	-0.998292	-0.358317
N138	N	-0.661392	-0.748292	-0.108317
N139	N	-0.411392	-0.498292	0.141683
N140	N	-0.161392	-0.248292	0.391683
C141	C	-0.211642	-1.010910	-0.343566
C142	C	0.038358	-0.760910	-0.093566
C143	C	0.288358	-0.510910	0.156434
C144	C	0.538358	-0.260910	0.406434
C145	C	-0.133440	-1.007734	-0.347225
C146	C	0.116560	-0.757734	-0.097225
C147	C	0.366560	-0.507734	0.152775
C148	C	0.616560	-0.257734	0.402775
C149	C	-0.425899	-0.723824	-0.293765
C150	C	-0.175899	-0.473824	-0.043765
C151	C	0.074101	-0.223824	0.206235
C152	C	0.324101	0.026176	0.456235
C153	C	-0.423086	-0.650048	-0.297409
C154	C	-0.173086	-0.400048	-0.047409
C155	C	0.076914	-0.150048	0.202591
C156	C	0.326914	0.099952	0.452591
C157	C	-0.378796	-0.609030	-0.354716
C158	C	-0.128796	-0.359030	-0.104716
C159	C	0.121204	-0.109030	0.145284
C160	C	0.371204	0.140970	0.395284
C161	C	-0.337311	-0.641792	-0.408376
C162	C	-0.087311	-0.391792	-0.158376
C163	C	0.162689	-0.141792	0.091624
C164	C	0.412689	0.108208	0.341624
C165	C	-0.340121	-0.715567	-0.404727
C166	C	-0.090121	-0.465567	-0.154727
C167	C	0.159879	-0.215567	0.095273
C168	C	0.409879	0.034433	0.345273
C169	C	-0.365790	-0.387944	-0.371575
C170	C	-0.115790	-0.137944	-0.121575
C171	C	0.134210	0.112056	0.128425
C172	C	0.384210	0.362056	0.378425
C173	C	-0.362985	-0.314164	-0.375222
C174	C	-0.112985	-0.064164	-0.125222
C175	C	0.137015	0.185836	0.124778
C176	C	0.387015	0.435836	0.374778
C177	C	-0.448758	-0.322425	-0.264253
C178	C	-0.198758	-0.072425	-0.014253
C179	C	0.051242	0.177575	0.235747
C180	C	0.301242	0.427575	0.485747
C181	C	-0.451567	-0.396200	-0.260613
C182	C	-0.201567	-0.146200	-0.010613
C183	C	0.048433	0.103800	0.239387
C184	C	0.298433	0.353800	0.489387
C185	C	-0.410080	-0.428956	-0.314270
C186	C	-0.160080	-0.178956	-0.064270
C187	C	0.089920	0.071044	0.185730
C188	C	0.339920	0.321044	0.435730
N189	N	-0.375921	-0.533619	-0.358444
N190	N	-0.125921	-0.283619	-0.108444
N191	N	0.124079	-0.033619	0.141556
N192	N	0.374079	0.216381	0.391556
N193	N	-0.412952	-0.504366	-0.310537
N194	N	-0.162952	-0.254366	-0.060537
N195	N	0.087048	-0.004366	0.189463
N196	N	0.337048	0.245634	0.439463
C197	C	-0.401476	-0.202889	-0.325440
C198	C	-0.151476	0.047111	-0.075440
C199	C	0.098524	0.297111	0.174560
C200	C	0.348524	0.547111	0.424560
C201	C	-0.404464	-0.281407	-0.321564
C202	C	-0.154464	-0.031407	-0.071564
C203	C	0.095536	0.218593	0.178436
C204	C	0.345536	0.468593	0.428436
C205	C	-0.414127	-0.998962	-0.813443
C206	C	-0.164127	-0.748962	-0.563443
C207	C	0.085873	-0.498962	-0.313443
C208	C	0.335873	-0.248962	-0.063443
C209	C	-0.374750	-1.038437	-0.854729
C210	C	-0.124750	-0.788437	-0.604729
C211	C	0.125250	-0.538437	-0.354729
C212	C	0.375250	-0.288437	-0.104729
C213	C	-0.378642	-1.034598	-0.949131
C214	C	-0.128642	-0.784598	-0.699131
C215	C	0.121358	-0.534598	-0.449131
C216	C	0.371358	-0.284598	-0.199131
C217	C	-0.410236	-1.002800	-0.719032
C218	C	-0.160236	-0.752800	-0.469032
C219	C	0.089764	-0.502800	-0.219032
C220	C	0.339764	-0.252800	0.030968
C221	C	-0.385534	-1.027684	-0.117049
C222	C	-0.135534	-0.777684	0.132951
C223	C	0.114466	-0.527684	0.382951
C224	C	0.364466	-0.277684	0.632951
C225	C	-0.381744	-1.031539	-0.024380
C226	C	-0.131744	-0.781539	0.225620
C227	C	0.118256	-0.531539	0.475620
C228	C	0.368256	-0.281539	0.725620
H229	H	-0.663783	-0.944050	-0.421870
H230	H	-0.413783	-0.694050	-0.171870
H231	H	-0.163783	-0.444050	0.078130
H232	H	0.086217	-0.194050	0.328130
H233	H	-0.338114	-1.075115	-0.819176
H234	H	-0.088114	-0.825115	-0.569176
H235	H	0.161886	-0.575115	-0.319176
H236	H	0.411886	-0.325115	-0.069176
Cl237	Cl	-0.287974	-0.756747	-0.472186
Cl238	Cl	-0.037974	-0.506747	-0.222186
Cl239	Cl	0.212026	-0.256747	0.027814
Cl240	Cl	0.462026	-0.006747	0.277814
Cl241	Cl	-0.811496	-1.143401	-0.188287
Cl242	Cl	-0.561496	-0.893401	0.061713
Cl243	Cl	-0.311496	-0.643401	0.311713
Cl244	Cl	-0.061496	-0.393401	0.561713
H245	H	-0.994147	-0.915790	-0.454999
H246	H	-0.744147	-0.665790	-0.204999
H247	H	-0.494147	-0.415790	0.045001
H248	H	-0.244147	-0.165790	0.295001
H249	H	-0.487635	-0.429592	-0.213950
H250	H	-0.237635	-0.179592	0.036050
H251	H	0.012365	0.070408	0.286050
H252	H	0.262365	0.320408	0.536050
Cl253	Cl	-0.813546	-0.929439	-0.439018
Cl254	Cl	-0.563546	-0.679439	-0.189018
Cl255	Cl	-0.313546	-0.429439	0.060982
Cl256	Cl	-0.063546	-0.179439	0.310982
Cl257	Cl	-1.143913	-0.901151	-0.472116
Cl258	Cl	-0.893913	-0.651151	-0.222116
Cl259	Cl	-0.643913	-0.401151	0.027884
Cl260	Cl	-0.393913	-0.151151	0.277884
Cl261	Cl	-0.470685	-0.942334	-0.868331
Cl262	Cl	-0.220685	-0.692334	-0.618331
Cl263	Cl	0.029315	-0.442334	-0.368331
Cl264	Cl	0.279315	-0.192334	-0.118331
H265	H	-1.125789	-1.093432	-0.246792
H266	H	-0.875789	-0.843432	0.003208
H267	H	-0.625789	-0.593432	0.253208
H268	H	-0.375789	-0.343432	0.503208
Cl269	Cl	-0.500908	-0.281242	-0.196801
Cl270	Cl	-0.250908	-0.031242	0.053199
Cl271	Cl	-0.000908	0.218758	0.303199
Cl272	Cl	0.249092	0.468758	0.553199
Cl273	Cl	-0.976029	-1.108070	-0.229671
Cl274	Cl	-0.726029	-0.858070	0.020329
Cl275	Cl	-0.476029	-0.608070	0.270329
Cl276	Cl	-0.226029	-0.358070	0.520329
Cl277	Cl	-0.307319	-0.262599	-0.447289
Cl278	Cl	-0.057319	-0.012599	-0.197289
Cl279	Cl	0.192681	0.237401	0.052711
Cl280	Cl	0.442681	0.487401	0.302711
H281	H	-0.461966	-0.757215	-0.247101
H282	H	-0.211966	-0.507215	0.002899
H283	H	0.038034	-0.257215	0.252899
H284	H	0.288034	-0.007215	0.502899
Cl285	Cl	-0.645655	-1.136347	-0.196568
Cl286	Cl	-0.395655	-0.886347	0.053432
Cl287	Cl	-0.145655	-0.636347	0.303432
Cl288	Cl	0.104345	-0.386347	0.553432
H289	H	-0.332009	-0.414604	-0.415267
H290	H	-0.082009	-0.164604	-0.165267
H291	H	0.167991	0.085396	0.084733
H292	H	0.417991	0.335396	0.334733
H293	H	-0.456864	-0.623380	-0.253717
H294	H	-0.206864	-0.373380	-0.003717
H295	H	0.043136	-0.123380	0.246283
H296	H	0.293136	0.126620	0.496283
H297	H	-0.301246	-0.608390	-0.455033
H298	H	-0.051246	-0.358390	-0.205033
H299	H	0.198754	-0.108390	0.044967
H300	H	0.448754	0.141610	0.294967
