data_functionalizedCrystal
_audit_creation_method	'MofGen! by Chris Wilmer'
_symmetry_space_group_name_H-M	'P1'
_symmetry_Int_Tables_number	1
_symmetry_cell_setting	triclinic
loop_
_symmetry_equiv_pos_as_xyz
  x,y,z
_cell_length_a	34.490303
_cell_length_b	34.489386
_cell_length_c	34.485816
_cell_angle_alpha	60.004462
_cell_angle_beta	60.008900
_cell_angle_gamma	59.994399
loop_
_atom_site_label
_atom_site_type_symbol
_atom_site_fract_x
_atom_site_fract_y
_atom_site_fract_z
O1	O	0.053846	-0.566517	0.473678
O2	O	0.553846	-0.066517	0.973678
O3	O	0.020329	-0.441078	0.381663
O4	O	0.520329	0.058922	0.881663
O5	O	0.099768	-0.520436	0.381578
O6	O	0.599768	-0.020436	0.881578
O7	O	-0.025592	-0.487159	0.473762
O8	O	0.474408	0.012841	0.973762
O9	O	0.126127	-0.494082	0.407849
O10	O	0.626127	0.005918	0.907849
O11	O	0.046689	-0.414724	0.407933
O12	O	0.546689	0.085276	0.907933
O13	O	0.080206	-0.540163	0.499949
O14	O	0.580206	-0.040163	0.999949
Zn15	Zn	0.067632	-0.473259	0.458112
Zn16	Zn	0.567632	0.026741	0.958112
Zn17	Zn	0.032903	-0.507982	0.423499
Zn18	Zn	0.532903	-0.007982	0.923499
O19	O	0.000767	-0.460805	0.500033
O20	O	0.500767	0.039195	1.000033
N21	N	0.091336	-0.449565	0.481736
N22	N	0.591336	0.050435	0.981736
N23	N	0.009203	-0.531680	0.399875
N24	N	0.509203	-0.031680	0.899875
C25	C	0.142510	-0.268211	0.532817
C26	C	0.642510	0.231789	1.032817
C27	C	0.142641	-0.398441	0.662987
C28	C	0.642641	0.101559	1.162987
C29	C	0.142524	-0.398421	0.532817
C30	C	0.642524	0.101579	1.032817
C31	C	0.272762	-0.398394	0.532723
C32	C	0.772762	0.101606	1.032723
C33	C	0.156853	-0.311177	0.547124
C34	C	0.656853	0.188823	1.047124
C35	C	0.156928	-0.384109	0.620020
C36	C	0.656928	0.115891	1.120020
C37	C	0.229794	-0.384081	0.547073
C38	C	0.729794	0.115919	1.047073
C39	C	0.156863	-0.384097	0.547124
C40	C	0.656863	0.115903	1.047124
C41	C	0.124253	-0.213522	0.514606
C42	C	0.624253	0.286478	1.014606
C43	C	0.124277	-0.416652	0.514606
C44	C	0.624277	0.083348	1.014606
C45	C	0.175110	-0.365866	0.565335
C46	C	0.675110	0.134134	1.065335
C47	C	0.352285	-0.384669	0.490824
C48	C	0.852285	0.115331	0.990824
C49	C	0.401998	-0.401229	0.474223
C50	C	0.901998	0.098771	0.974223
C51	C	0.402027	-0.481671	0.504898
C52	C	0.902027	0.018329	1.004898
C53	C	0.352316	-0.465109	0.521500
C54	C	0.852316	0.034891	1.021500
C55	C	0.136220	-0.188652	0.465734
C56	C	0.636220	0.311348	0.965734
C57	C	0.119621	-0.138936	0.449181
C58	C	0.619621	0.361064	0.949181
C59	C	0.079092	-0.138961	0.530374
C60	C	0.579092	0.361039	1.030374
C61	C	0.095691	-0.188678	0.546927
C62	C	0.595691	0.311322	1.046927
C63	C	0.075398	-0.404656	0.526651
C64	C	0.575398	0.095344	1.026651
C65	C	0.058814	-0.421229	0.510091
C66	C	0.558814	0.078771	1.010091
C67	C	0.139984	-0.461794	0.469452
C68	C	0.639984	0.038206	0.969452
C69	C	0.156570	-0.445221	0.486007
C70	C	0.656570	0.054779	0.986007
C71	C	0.075593	-0.404694	0.742565
C72	C	0.575593	0.095306	1.242565
C73	C	0.059066	-0.421281	0.792280
C74	C	0.559066	0.078719	1.292280
C75	C	0.140274	-0.461856	0.792215
C76	C	0.640274	0.038144	1.292215
C77	C	0.156800	-0.445269	0.742499
C78	C	0.656800	0.054731	1.242499
C79	C	0.124458	-0.416687	0.717675
C80	C	0.624458	0.083313	1.217675
C81	C	0.327446	-0.416608	0.514460
C82	C	0.827446	0.083392	1.014460
C83	C	-0.023585	-0.564792	0.161919
C84	C	0.476415	-0.064792	0.661919
C85	C	-0.023910	-0.769260	0.366530
C86	C	0.476090	-0.269260	0.866530
C87	C	-0.023880	-0.564780	0.366623
C88	C	0.476120	-0.064780	0.866623
C89	C	-0.228325	-0.564561	0.366222
C90	C	0.271675	-0.064561	0.866222
C91	C	-0.129610	-0.597564	0.333467
C92	C	0.370390	-0.097564	0.833467
C93	C	-0.056729	-0.597644	0.333613
C94	C	0.443271	-0.097644	0.833613
C95	C	-0.074925	-0.615849	0.315324
C96	C	0.425075	-0.115849	0.815324
C97	C	-0.088689	-0.695351	0.357144
C98	C	0.411311	-0.195351	0.857144
C99	C	-0.072155	-0.745068	0.373736
C100	C	0.427845	-0.245068	0.873736
C101	C	0.008283	-0.745150	0.343188
C102	C	0.508283	-0.245150	0.843188
C103	C	-0.008252	-0.695435	0.326596
C104	C	0.491748	-0.195435	0.826596
C105	C	-0.154529	-0.609541	0.382326
C106	C	0.345471	-0.109541	0.882326
C107	C	-0.204241	-0.592916	0.398818
C108	C	0.295759	-0.092916	0.898818
C109	C	-0.204114	-0.552341	0.317588
C110	C	0.295886	-0.052341	0.817588
C111	C	-0.154401	-0.568966	0.301096
C112	C	0.345599	-0.068966	0.801096
C113	C	-0.068707	-0.548770	0.321590
C114	C	0.431293	-0.048770	0.821590
C115	C	-0.052166	-0.532225	0.338221
C116	C	0.447834	-0.032225	0.838221
C117	C	-0.011669	-0.613425	0.378886
C118	C	0.488331	-0.113425	0.878886
C119	C	-0.028210	-0.629972	0.362261
C120	C	0.471790	-0.129972	0.862261
C121	C	-0.068581	-0.548777	0.235758
C122	C	0.431419	-0.048777	0.735758
C123	C	-0.051939	-0.532234	0.186043
C124	C	0.448061	-0.032234	0.686043
C125	C	-0.011379	-0.613438	0.186090
C126	C	0.488621	-0.113438	0.686090
C127	C	-0.028020	-0.629981	0.235806
C128	C	0.471980	-0.129981	0.735806
C129	C	-0.056622	-0.597649	0.260639
C130	C	0.443378	-0.097649	0.760639
C131	C	-0.056739	-0.670537	0.333576
C132	C	0.443261	-0.170537	0.833576
C133	C	-0.005614	-0.545951	0.107238
C134	C	0.494386	-0.045951	0.607238
C135	C	-0.006360	-0.823943	0.385033
C136	C	0.493640	-0.323943	0.885033
C137	C	-0.005995	-0.545937	0.384582
C138	C	0.494005	-0.045937	0.884582
C139	C	-0.283006	-0.545971	0.383725
C140	C	0.216994	-0.045971	0.883725
N141	N	0.426163	-0.449489	0.481488
N142	N	0.926163	0.050511	0.981488
O143	O	0.588601	-0.457377	0.364497
O144	O	1.088601	0.042623	0.864497
O145	O	0.588789	-0.549696	0.489801
O146	O	1.088789	-0.049696	0.989801
O147	O	0.588709	-0.549485	0.410335
O148	O	1.088709	-0.049485	0.910335
O149	O	0.588681	-0.457588	0.443963
O150	O	1.088681	0.042412	0.943963
O151	O	0.509731	-0.523223	0.436741
O152	O	1.009731	-0.023223	0.936741
O153	O	0.509811	-0.523434	0.516207
O154	O	1.009811	-0.023434	1.016207
O155	O	0.509624	-0.431115	0.390903
O156	O	1.009624	0.068885	0.890903
Zn157	Zn	0.497178	-0.473105	0.457747
Zn158	Zn	0.997178	0.026895	0.957747
Zn159	Zn	0.601234	-0.507706	0.422956
Zn160	Zn	1.101234	-0.007706	0.922956
O161	O	0.509704	-0.431326	0.470368
O162	O	1.009704	0.068674	0.970368
N163	N	0.672250	-0.531322	0.399211
N164	N	1.172250	-0.031322	0.899211
N165	N	0.091303	-0.114798	0.481730
N166	N	0.591303	0.385202	0.981730
O167	O	-0.025603	0.047729	0.473733
O168	O	0.474397	0.547729	0.973733
O169	O	0.099703	0.047764	0.381394
O170	O	0.599703	0.547764	0.881394
O171	O	0.020199	0.047731	0.381655
O172	O	0.520199	0.547731	0.881655
O173	O	0.053901	0.047761	0.473472
O174	O	0.553901	0.547761	0.973472
O175	O	0.046564	-0.031252	0.407974
O176	O	0.546564	0.468748	0.907974
O177	O	0.126068	-0.031219	0.407713
O178	O	0.626068	0.468781	0.907713
O179	O	0.000762	-0.031254	0.500052
O180	O	0.500762	0.468746	1.000052
Zn181	Zn	0.067601	-0.043777	0.458061
Zn182	Zn	0.567601	0.456223	0.958061
Zn183	Zn	0.032864	0.060287	0.423385
Zn184	Zn	0.532864	0.560287	0.923385
O185	O	0.080266	-0.031222	0.499791
O186	O	0.580266	0.468778	0.999791
N187	N	0.009156	0.131307	0.399717
N188	N	0.509156	0.631307	0.899717
N189	N	0.091635	-0.449614	0.816396
N190	N	0.591635	0.050386	1.316396
O191	O	0.083664	-0.566502	0.978913
O192	O	0.583664	-0.066502	1.478913
O193	O	-0.008637	-0.441152	0.978954
O194	O	0.491363	0.058848	1.478954
O195	O	-0.008421	-0.520640	0.978930
O196	O	0.491579	-0.020640	1.478930
O197	O	0.083448	-0.487013	0.978936
O198	O	0.583448	0.012987	1.478936
O199	O	0.017877	-0.494296	0.899950
O200	O	0.517877	0.005704	1.399950
O201	O	0.017661	-0.414807	0.899974
O202	O	0.517661	0.085193	1.399974
O203	O	0.109961	-0.540157	0.899933
O204	O	0.609961	-0.040157	1.399933
Zn205	Zn	0.067986	-0.473299	0.887414
Zn206	Zn	0.567986	0.026701	1.387414
Zn207	Zn	0.033338	-0.508010	0.991473
Zn208	Zn	0.533338	-0.008010	1.491473
O209	O	0.109746	-0.460669	0.899956
O210	O	0.609746	0.039331	1.399956
N211	N	0.009689	-0.531700	1.062491
N212	N	0.509689	-0.031700	1.562491
C213	C	0.030367	-0.412095	0.382120
C214	C	0.530367	0.087905	0.882120
C215	C	0.128741	-0.510370	0.382016
C216	C	0.628741	-0.010370	0.882016
C217	C	0.070168	-0.569147	0.499490
C218	C	0.570168	-0.069147	0.999490
C219	C	-0.028207	-0.470871	0.499595
C220	C	0.471793	0.029129	0.999595
C221	C	0.549323	-0.549278	0.518791
C222	C	1.049323	-0.049278	1.018791
C223	C	0.549225	-0.549017	0.420381
C224	C	1.049225	-0.049017	0.920381
C225	C	0.549087	-0.431532	0.361914
C226	C	1.049087	0.068468	0.861914
C227	C	0.549188	-0.431794	0.460322
C228	C	1.049188	0.068206	0.960322
C229	C	0.128638	0.008374	0.381806
C230	C	0.628638	0.508374	0.881806
C231	C	0.030215	0.008236	0.382161
C232	C	0.530215	0.508236	0.882161
C233	C	-0.028206	0.008233	0.499608
C234	C	0.471794	0.508233	0.999608
C235	C	0.070250	0.008272	0.499285
C236	C	0.570250	0.508272	0.999285
C237	C	-0.008199	-0.412187	0.939469
C238	C	0.491801	0.087813	1.439469
C239	C	-0.007927	-0.510619	0.939425
C240	C	0.492073	-0.010619	1.439425
C241	C	0.109523	-0.569121	0.939417
C242	C	0.609523	-0.069121	1.439417
C243	C	0.109257	-0.470684	0.939444
C244	C	0.609257	0.029316	1.439444
H245	H	0.019274	-0.411508	0.812539
H246	H	0.519274	0.088492	1.312539
H247	H	0.077468	0.008281	0.528131
H248	H	0.577468	0.508281	1.028131
H249	H	-0.037176	-0.376187	0.939482
H250	H	0.462824	0.123813	1.439482
O251	O	-0.130212	-0.557391	0.253627
O252	O	0.369788	-0.057391	0.753627
C253	C	-0.142335	-0.574364	0.232930
C254	C	0.357665	-0.074364	0.732930
H255	H	-0.156046	-0.604998	0.261218
H256	H	0.343954	-0.104998	0.761218
H257	H	-0.171147	-0.544516	0.217179
H258	H	0.328853	-0.044516	0.717179
C259	C	-0.081296	-0.554217	0.158645
C260	C	0.418704	-0.054217	0.658645
C261	C	-0.098132	-0.591846	0.193388
C262	C	0.401868	-0.091846	0.693388
H263	H	-0.054030	-0.564999	0.134252
H264	H	0.445970	-0.064999	0.634252
H265	H	-0.073129	-0.542780	0.172588
H266	H	0.426871	-0.042780	0.672588
H267	H	-0.105310	-0.529347	0.145525
H268	H	0.394690	-0.029347	0.645525
H269	H	-0.074121	-0.616713	0.206512
H270	H	0.425879	-0.116713	0.706512
H271	H	-0.106294	-0.603287	0.179446
H272	H	0.393706	-0.103287	0.679446
H273	H	0.164745	-0.517463	0.353068
H274	H	0.664745	-0.017463	0.853068
H275	H	0.332093	-0.491119	0.540748
H276	H	0.832093	0.008881	1.040748
O277	O	0.021912	-0.369128	0.347594
O278	O	0.521912	0.130872	0.847594
C279	C	0.062702	-0.369013	0.306631
C280	C	0.562702	0.130987	0.806631
H281	H	0.095332	-0.397095	0.317040
H282	H	0.595332	0.102905	0.817040
H283	H	0.058862	-0.377282	0.280832
H284	H	0.558862	0.122718	0.780832
C285	C	0.028288	-0.285293	0.269892
C286	C	0.528288	0.214707	0.769892
C287	C	0.068366	-0.319781	0.282677
C288	C	0.568366	0.180219	0.782677
H289	H	0.031782	-0.254925	0.255114
H290	H	0.531782	0.245075	0.755114
H291	H	0.000806	-0.285371	0.297488
H292	H	0.500806	0.214629	0.797488
H293	H	0.025093	-0.292191	0.248395
H294	H	0.525093	0.207809	0.748395
H295	H	0.071557	-0.312887	0.304178
H296	H	0.571557	0.187113	0.804178
H297	H	0.095849	-0.319701	0.255083
H298	H	0.595849	0.180299	0.755083
H299	H	0.164551	0.008603	0.352745
H300	H	0.664551	0.508603	0.852745
O301	O	-0.042286	-0.519256	0.939361
O302	O	0.457714	-0.019256	1.439361
C303	C	-0.024986	-0.565938	0.939346
C304	C	0.475014	-0.065938	1.439346
H305	H	0.015463	-0.578440	0.924411
H306	H	0.515463	-0.078440	1.424411
H307	H	-0.037004	-0.590514	0.977226
H308	H	0.462996	-0.090514	1.477226
C309	C	-0.094175	-0.551489	0.926676
C310	C	0.405825	-0.051489	1.426676
C311	C	-0.044495	-0.566843	0.908329
C312	C	0.455505	-0.066843	1.408329
H313	H	-0.106210	-0.552048	0.907545
H314	H	0.393790	-0.052048	1.407545
H315	H	-0.105832	-0.520039	0.926688
H316	H	0.394168	-0.020039	1.426688
H317	H	-0.104184	-0.571971	0.958242
H318	H	0.395816	-0.071971	1.458242
H319	H	-0.034487	-0.546357	0.876766
H320	H	0.465513	-0.046357	1.376766
H321	H	-0.032837	-0.598289	0.908311
H322	H	0.467163	-0.098289	1.408311
O323	O	-0.063731	-0.484745	0.326458
O324	O	0.436269	0.015255	0.826458
C325	C	-0.046659	-0.464135	0.276666
C326	C	0.453341	0.035865	0.776666
H327	H	-0.016000	-0.492476	0.260684
H328	H	0.484000	0.007524	0.760684
H329	H	-0.076443	-0.448403	0.261871
H330	H	0.423557	0.051597	0.761871
C331	C	-0.066845	-0.389782	0.283478
C332	C	0.433155	0.110218	0.783478
C333	C	-0.029187	-0.424590	0.263849
C334	C	0.470813	0.075410	0.763849
H335	H	-0.056070	-0.365387	0.275571
H336	H	0.443930	0.134613	0.775571
H337	H	-0.078349	-0.403666	0.317024
H338	H	0.421651	0.096334	0.817024
H339	H	-0.091662	-0.376677	0.271147
H340	H	0.408338	0.123323	0.771147
H341	H	-0.004374	-0.437698	0.276184
H342	H	0.495626	0.062302	0.776184
H343	H	-0.017679	-0.410707	0.230304
H344	H	0.482321	0.089293	0.730304
H345	H	0.017768	-0.675232	0.307405
H346	H	0.517768	-0.175232	0.807405
H347	H	0.138503	-0.605120	0.939399
H348	H	0.638503	-0.105120	1.439399
O349	O	0.143646	-0.462017	0.939418
O350	O	0.643646	0.037983	1.439418
C351	C	0.126343	-0.415338	0.939443
C352	C	0.626343	0.084662	1.439443
H353	H	0.095849	-0.392869	0.924502
H354	H	0.595849	0.107131	1.424502
H355	H	0.113112	-0.416042	0.977337
H356	H	0.613112	0.083958	1.477337
C357	C	0.203961	-0.421349	0.926818
C358	C	0.703961	0.078651	1.426818
C359	C	0.166510	-0.393750	0.908463
C360	C	0.666510	0.106250	1.408463
H361	H	0.228738	-0.408032	0.907710
H362	H	0.728738	0.091968	1.407710
H363	H	0.215619	-0.452798	0.926803
H364	H	0.715619	0.047202	1.426803
H365	H	0.192929	-0.421933	0.958396
H366	H	0.692929	0.078067	1.458396
H367	H	0.177542	-0.393171	0.876889
H368	H	0.677542	0.106829	1.376889
H369	H	0.154856	-0.362301	0.908472
H370	H	0.654856	0.137699	1.408472
O371	O	0.549262	-0.397366	0.468852
O372	O	1.049262	0.102634	0.968852
C373	C	0.590124	-0.384542	0.436260
C374	C	1.090124	0.115458	0.936260
H375	H	0.618720	-0.414950	0.422313
H376	H	1.118720	0.085050	0.922313
H377	H	0.580822	-0.351468	0.405367
H378	H	1.080822	0.148532	0.905367
C379	C	0.573575	-0.336785	0.478362
C380	C	1.073575	0.163215	0.978362
C381	C	0.608698	-0.374134	0.461234
C382	C	1.108698	0.125866	0.961234
H383	H	0.585032	-0.330363	0.493766
H384	H	1.085032	0.169637	0.993766
H385	H	0.546045	-0.345423	0.500319
H386	H	1.046045	0.154577	1.000319
H387	H	0.565827	-0.309228	0.452614
H388	H	1.065827	0.190772	0.952614
H389	H	0.616442	-0.401692	0.486983
H390	H	1.116442	0.098308	0.986983
H391	H	0.636231	-0.365500	0.439283
H392	H	1.136231	0.134500	0.939283
H393	H	0.077330	-0.605181	0.528391
H394	H	0.577330	-0.105181	1.028391
H395	H	-0.134345	-0.632833	0.408685
H396	H	0.365655	-0.132833	0.908685
O397	O	0.044109	-0.376948	0.718527
O398	O	0.544109	0.123052	1.218527
C399	C	-0.002564	-0.369909	0.751157
C400	C	0.497436	0.130091	1.251157
H401	H	-0.002440	-0.399890	0.786585
H402	H	0.497560	0.100110	1.286585
H403	H	-0.016807	-0.334497	0.756455
H404	H	0.483193	0.165503	1.256455
C405	C	-0.034630	-0.332734	0.688274
C406	C	0.465370	0.167266	1.188274
C407	C	-0.034477	-0.369559	0.731786
C408	C	0.465523	0.130441	1.231786
H409	H	-0.054316	-0.332516	0.676324
H410	H	0.445684	0.167484	1.176324
H411	H	-0.003185	-0.337474	0.666290
H412	H	0.496815	0.162526	1.166290
H413	H	-0.046498	-0.303228	0.692695
H414	H	0.453502	0.196772	1.192695
H415	H	-0.022604	-0.399065	0.727363
H416	H	0.477396	0.100935	1.227363
H417	H	-0.065921	-0.364824	0.753769
H418	H	0.434079	0.135176	1.253769
H419	H	-0.064213	-0.463781	0.528541
H420	H	0.435787	0.036219	1.028541
H421	H	0.166612	-0.485121	0.812425
H422	H	0.666612	0.014879	1.312425
O423	O	0.021622	0.008133	0.347788
O424	O	0.521622	0.508133	0.847788
C425	C	0.010451	-0.032782	0.364171
C426	C	0.510451	0.467218	0.864171
H427	H	0.025796	-0.061358	0.393655
H428	H	0.525796	0.438642	0.893655
H429	H	-0.029763	-0.023548	0.378508
H430	H	0.470237	0.476452	0.878508
C431	C	0.012995	-0.016250	0.286663
C432	C	0.512995	0.483750	0.786663
C433	C	0.031846	-0.051349	0.322872
C434	C	0.531846	0.448651	0.822872
H435	H	0.026190	-0.027702	0.261188
H436	H	0.526190	0.472298	0.761188
H437	H	0.020520	0.011316	0.275625
H438	H	0.520520	0.511316	0.775625
H439	H	-0.020516	-0.008558	0.298616
H440	H	0.479484	0.491442	0.798616
H441	H	0.065355	-0.059036	0.310920
H442	H	0.565355	0.440964	0.810920
H443	H	0.024328	-0.078917	0.333907
H444	H	0.524328	0.421083	0.833907
O445	O	-0.071172	0.008251	0.534130
O446	O	0.428828	0.508251	1.034130
C447	C	-0.100741	0.008228	0.517063
C448	C	0.399259	0.508228	1.017063
H449	H	-0.087902	0.023174	0.476612
H450	H	0.412098	0.523174	0.976612
H451	H	-0.099454	-0.029667	0.529147
H452	H	0.400546	0.470333	1.029147
C453	C	-0.167893	0.020846	0.586422
C454	C	0.332107	0.520846	1.086422
C455	C	-0.152126	0.039207	0.536739
C456	C	0.347874	0.539207	1.036739
H457	H	-0.199590	0.039953	0.598560
H458	H	0.300410	0.539953	1.098560
H459	H	-0.147972	0.020860	0.597922
H460	H	0.352028	0.520860	1.097922
H461	H	-0.166817	-0.010733	0.596486
H462	H	0.333183	0.489267	1.096486
H463	H	-0.153197	0.070782	0.526676
H464	H	0.346803	0.570782	1.026676
H465	H	-0.172049	0.039198	0.525238
H466	H	0.327951	0.539198	1.025238
H467	H	0.196592	-0.455039	0.722237
H468	H	0.696592	0.044961	1.222237
O469	O	0.549405	-0.583811	0.561742
O470	O	1.049405	-0.083811	1.061742
C471	C	0.549409	-0.566706	0.591294
C472	C	1.049409	-0.066706	1.091294
H473	H	0.564322	-0.536200	0.568457
H474	H	1.064322	-0.036200	1.068457
H475	H	0.511529	-0.553547	0.615305
H476	H	1.011529	-0.053547	1.115305
C477	C	0.562122	-0.644474	0.650038
C478	C	1.062122	-0.144474	1.150038
C479	C	0.580442	-0.607009	0.621989
C480	C	1.080442	-0.107009	1.121989
H481	H	0.581262	-0.669335	0.668973
H482	H	1.081262	-0.169335	1.168973
H483	H	0.562117	-0.655998	0.630129
H484	H	1.062117	-0.155998	1.130129
H485	H	0.530556	-0.633503	0.670043
H486	H	1.030556	-0.133503	1.170043
H487	H	0.612005	-0.617980	0.601980
H488	H	1.112005	-0.117980	1.101980
H489	H	0.580452	-0.595488	0.641894
H490	H	1.080452	-0.095488	1.141894
H491	H	0.049100	-0.381393	0.549936
H492	H	0.549100	0.118607	1.049936
O493	O	-0.063625	-0.484741	0.161952
O494	O	0.436375	0.015259	0.661952
C495	C	-0.092429	-0.459756	0.194533
C496	C	0.407571	0.040244	0.694533
H497	H	-0.110545	-0.483441	0.229953
H498	H	0.389455	0.016559	0.729953
H499	H	-0.069515	-0.449059	0.199873
H500	H	0.430485	0.050941	0.699873
C501	C	-0.108127	-0.385825	0.131557
C502	C	0.391873	0.114175	0.631557
C503	C	-0.130380	-0.414915	0.175060
C504	C	0.369620	0.085085	0.675060
H505	H	-0.131535	-0.358164	0.119545
H506	H	0.368465	0.141836	0.619545
H507	H	-0.088720	-0.402658	0.109606
H508	H	0.411280	0.097342	0.609606
H509	H	-0.089032	-0.376917	0.136013
H510	H	0.410968	0.123083	0.636013
H511	H	-0.149469	-0.423828	0.170602
H512	H	0.350531	0.076172	0.670602
H513	H	-0.149791	-0.398083	0.197010
H514	H	0.350209	0.101917	0.697010
H515	H	0.019013	-0.411451	0.519888
H516	H	0.519013	0.088549	1.019888
H517	H	0.549027	-0.402547	0.325928
H518	H	1.049027	0.097453	0.825928
O519	O	0.171420	-0.489528	0.441661
O520	O	0.671420	0.010472	0.941661
C521	C	0.218118	-0.496573	0.434595
C522	C	0.718118	0.003427	0.934595
H523	H	0.218032	-0.466601	0.440148
H524	H	0.718032	0.033399	0.940148
H525	H	0.232390	-0.531992	0.461039
H526	H	0.732390	-0.031992	0.961039
C527	C	0.250072	-0.533723	0.376832
C528	C	0.750072	-0.033723	0.876832
C529	C	0.249966	-0.496908	0.383649
C530	C	0.749966	0.003092	0.883649
H531	H	0.269718	-0.533932	0.345407
H532	H	0.769718	-0.033932	0.845407
H533	H	0.218611	-0.528978	0.381593
H534	H	0.718611	-0.028978	0.881593
H535	H	0.261964	-0.563235	0.398872
H536	H	0.761964	-0.063235	0.898872
H537	H	0.238068	-0.467397	0.361614
H538	H	0.738068	0.032603	0.861614
H539	H	0.281426	-0.501648	0.378883
H540	H	0.781426	-0.001648	0.878883
H541	H	0.196371	-0.454985	0.476195
H542	H	0.696371	0.045015	0.976195
H543	H	0.422274	-0.521162	0.510626
H544	H	0.922274	-0.021162	1.010626
H545	H	0.422223	-0.375220	0.454977
H546	H	0.922223	0.124780	0.954977
O547	O	0.549258	-0.583519	0.411873
O548	O	1.049258	-0.083519	0.911873
C549	C	0.549313	-0.624508	0.452642
C550	C	1.049313	-0.124508	0.952642
H551	H	0.564290	-0.624094	0.475298
H552	H	1.064290	-0.124094	0.975298
H553	H	0.511440	-0.625109	0.474106
H554	H	1.011440	-0.125109	0.974106
C555	C	0.561905	-0.669542	0.409749
C556	C	1.061905	-0.169542	0.909749
C557	C	0.580304	-0.669034	0.437574
C558	C	1.080304	-0.169034	0.937574
H559	H	0.581021	-0.697008	0.400455
H560	H	1.081021	-0.197008	0.900455
H561	H	0.561867	-0.641926	0.382282
H562	H	1.061867	-0.141926	0.882282
H563	H	0.530345	-0.670040	0.427640
H564	H	1.030345	-0.170040	0.927640
H565	H	0.611862	-0.668530	0.419680
H566	H	1.111862	-0.168530	0.919680
H567	H	0.580349	-0.696651	0.465037
H568	H	1.080349	-0.196651	0.965037
O569	O	0.328200	-0.337542	0.483966
O570	O	0.828200	0.162458	0.983966
C571	C	0.360787	-0.312903	0.459533
C572	C	0.860787	0.187097	0.959533
H573	H	0.396239	-0.338415	0.465247
H574	H	0.896239	0.161585	0.965247
H575	H	0.366044	-0.297448	0.419985
H576	H	0.866044	0.202552	0.919985
C577	C	0.297853	-0.241070	0.471532
C578	C	0.797853	0.258930	0.971532
C579	C	0.341394	-0.272403	0.478553
C580	C	0.841394	0.227597	0.978553
H581	H	0.285890	-0.216087	0.483262
H582	H	0.785890	0.283913	0.983262
H583	H	0.275898	-0.257669	0.487991
H584	H	0.775898	0.242331	0.987991
H585	H	0.302239	-0.228196	0.438574
H586	H	0.802239	0.271804	0.938574
H587	H	0.337006	-0.285281	0.511510
H588	H	0.837006	0.214719	1.011510
H589	H	0.363348	-0.255806	0.462100
H590	H	0.863348	0.244194	0.962100
O591	O	0.163942	-0.212710	0.434273
O592	O	0.663942	0.287290	0.934273
C593	C	0.170950	-0.180098	0.387586
C594	C	0.670950	0.319902	0.887586
H595	H	0.140967	-0.144666	0.387697
H596	H	0.640967	0.355334	0.887697
H597	H	0.206360	-0.174796	0.373318
H598	H	0.706360	0.325204	0.873318
C599	C	0.208102	-0.243015	0.355577
C600	C	0.708102	0.256985	0.855577
C601	C	0.171273	-0.199498	0.355713
C602	C	0.671273	0.300502	0.855713
H603	H	0.208303	-0.254982	0.335915
H604	H	0.708303	0.245018	0.835915
H605	H	0.203382	-0.264987	0.387031
H606	H	0.703382	0.235013	0.887031
H607	H	0.237606	-0.238591	0.343688
H608	H	0.737606	0.261409	0.843688
H609	H	0.141770	-0.203923	0.367608
H610	H	0.641770	0.296077	0.867608
H611	H	0.175988	-0.177527	0.324261
H612	H	0.675988	0.322473	0.824261
H613	H	0.055841	-0.118733	0.556693
H614	H	0.555841	0.381267	1.056693
O615	O	0.131265	-0.114723	0.401717
O616	O	0.631265	0.385277	0.901717
C617	C	0.156292	-0.085962	0.389684
C618	C	0.656292	0.414038	0.889684
H619	H	0.147348	-0.078521	0.422442
H620	H	0.647348	0.421479	0.922442
H621	H	0.196080	-0.105109	0.376013
H622	H	0.696080	0.394891	0.876013
C623	C	0.152948	-0.047873	0.310522
C624	C	0.652948	0.452127	0.810522
C625	C	0.141960	-0.038730	0.350755
C626	C	0.641960	0.461270	0.850755
H627	H	0.144110	-0.018739	0.286508
H628	H	0.644110	0.481261	0.786508
H629	H	0.136089	-0.067251	0.318628
H630	H	0.636089	0.432749	0.818628
H631	H	0.186105	-0.063829	0.299135
H632	H	0.686105	0.436171	0.799135
H633	H	0.108803	-0.022779	0.362145
H634	H	0.608803	0.477221	0.862145
H635	H	0.158814	-0.019348	0.342651
H636	H	0.658814	0.480652	0.842651
O637	O	0.084121	-0.212800	0.594408
O638	O	0.584121	0.287200	1.094408
C639	C	0.101135	-0.200622	0.615018
C640	C	0.601135	0.299378	1.115018
H641	H	0.131781	-0.186950	0.586688
H642	H	0.631781	0.313050	1.086688
H643	H	0.071316	-0.171762	0.630711
H644	H	0.571316	0.328238	1.130711
C645	C	0.080964	-0.261567	0.689396
C646	C	0.580964	0.238433	1.189396
C647	C	0.118607	-0.244778	0.654601
C648	C	0.618607	0.255222	1.154601
H649	H	0.091739	-0.288803	0.713814
H650	H	0.591739	0.211197	1.213814
H651	H	0.069499	-0.269770	0.675511
H652	H	0.569499	0.230230	1.175511
H653	H	0.056118	-0.237512	0.702468
H654	H	0.556118	0.262488	1.202468
H655	H	0.143449	-0.268830	0.641526
H656	H	0.643449	0.231170	1.141526
H657	H	0.130076	-0.236579	0.668485
H658	H	0.630076	0.263421	1.168485
O659	O	0.016342	-0.644893	0.162024
O660	O	0.516342	-0.144893	0.662024
C661	C	-0.008780	-0.673587	0.174115
C662	C	0.491220	-0.173587	0.674115
H663	H	-0.037758	-0.674036	0.210180
H664	H	0.462242	-0.174036	0.710180
H665	H	-0.025601	-0.658622	0.146085
H666	H	0.474399	-0.158622	0.646085
C667	C	0.061238	-0.723988	0.132171
C668	C	0.561238	-0.223988	0.632171
C669	C	0.025648	-0.724543	0.176469
C670	C	0.525648	-0.224543	0.676469
H671	H	0.082474	-0.755420	0.133621
H672	H	0.582474	-0.255420	0.633621
H673	H	0.078163	-0.704656	0.124023
H674	H	0.578163	-0.204656	0.624023
H675	H	0.047214	-0.711515	0.108817
H676	H	0.547214	-0.211515	0.608817
H677	H	0.039671	-0.737010	0.199820
H678	H	0.539671	-0.237010	0.699820
H679	H	0.008726	-0.743879	0.184620
H680	H	0.508726	-0.243879	0.684620
O681	O	0.016015	-0.644893	0.406723
O682	O	0.516015	-0.144893	0.906723
C683	C	0.023049	-0.691577	0.413753
C684	C	0.523049	-0.191577	0.913753
H685	H	-0.006900	-0.691455	0.408132
H686	H	0.493100	-0.191455	0.908132
H687	H	0.058485	-0.705854	0.387334
H688	H	0.558485	-0.205854	0.887334
C689	C	0.060107	-0.723603	0.471614
C690	C	0.560107	-0.223603	0.971614
C691	C	0.023320	-0.723453	0.464715
C692	C	0.523320	-0.223453	0.964715
H693	H	0.060276	-0.743266	0.503049
H694	H	0.560276	-0.243266	1.003049
H695	H	0.055369	-0.692151	0.466877
H696	H	0.555369	-0.192151	0.966877
H697	H	0.089633	-0.735499	0.449595
H698	H	0.589633	-0.235499	0.949595
H699	H	-0.006205	-0.711551	0.486729
H700	H	0.493795	-0.211551	0.986729
H701	H	0.028053	-0.754904	0.469457
H702	H	0.528053	-0.254904	0.969457
H703	H	-0.018278	-0.669778	0.256062
H704	H	0.481722	-0.169778	0.756062
O705	O	0.055401	-0.769266	0.336353
O706	O	0.555401	-0.269266	0.836353
C707	C	0.080057	-0.736703	0.312002
C708	C	0.580057	-0.236703	0.812002
H709	H	0.058410	-0.701253	0.291594
H710	H	0.558410	-0.201253	0.791594
H711	H	0.085775	-0.731424	0.338633
H712	H	0.585775	-0.231424	0.838633
C713	C	0.155092	-0.799692	0.302062
C714	C	0.655092	-0.299692	0.802062
C715	C	0.128506	-0.756152	0.276993
C716	C	0.628506	-0.256152	0.776993
H717	H	0.184979	-0.811689	0.280468
H718	H	0.684979	-0.311689	0.780468
H719	H	0.138481	-0.821631	0.318469
H720	H	0.638481	-0.321631	0.818469
H721	H	0.159852	-0.795287	0.324253
H722	H	0.659852	-0.295287	0.824253
H723	H	0.123741	-0.760559	0.254806
H724	H	0.623741	-0.260559	0.754806
H725	H	0.145117	-0.734214	0.260581
H726	H	0.645117	-0.234214	0.760581
O727	O	-0.135779	-0.671183	0.363847
O728	O	0.364221	-0.171183	0.863847
C729	C	-0.150915	-0.683325	0.341470
C730	C	0.349085	-0.183325	0.841470
H731	H	-0.119137	-0.697032	0.312137
H732	H	0.380863	-0.197032	0.812137
H733	H	-0.167599	-0.712149	0.368700
H734	H	0.332401	-0.212149	0.868700
C735	C	-0.226867	-0.622302	0.355898
C736	C	0.273133	-0.122302	0.855898
C737	C	-0.187838	-0.639133	0.319867
C738	C	0.312162	-0.139133	0.819867
H739	H	-0.249645	-0.595044	0.342573
H740	H	0.250355	-0.095044	0.842573
H741	H	-0.216671	-0.614122	0.370975
H742	H	0.283329	-0.114122	0.870975
H743	H	-0.240764	-0.646326	0.378586
H744	H	0.259236	-0.146326	0.878586
H745	H	-0.173938	-0.615112	0.297183
H746	H	0.326062	-0.115112	0.797183
H747	H	-0.198033	-0.647308	0.304785
H748	H	0.301967	-0.147308	0.804785
O749	O	-0.103184	-0.769172	0.396572
O750	O	0.396816	-0.269172	0.896572
C751	C	-0.090780	-0.797951	0.371392
C752	C	0.409220	-0.297951	0.871392
H753	H	-0.069240	-0.783024	0.332751
H754	H	0.430760	-0.283024	0.832751
H755	H	-0.068660	-0.835647	0.387955
H756	H	0.431340	-0.335647	0.887955
C757	C	-0.162662	-0.816963	0.421169
C758	C	0.337338	-0.316963	0.921169
C759	C	-0.136210	-0.798628	0.373709
C760	C	0.363790	-0.298628	0.873709
H761	H	-0.190686	-0.817383	0.422600
H762	H	0.309314	-0.317383	0.922600
H763	H	-0.171019	-0.797576	0.438135
H764	H	0.328981	-0.297576	0.938135
H765	H	-0.144224	-0.848375	0.434967
H766	H	0.355776	-0.348375	0.934967
H767	H	-0.154647	-0.767215	0.359914
H768	H	0.345353	-0.267215	0.859914
H769	H	-0.127858	-0.818010	0.356741
H770	H	0.372142	-0.318010	0.856741
H771	H	-0.091926	-0.522444	0.298262
H772	H	0.408074	-0.022444	0.798262
O773	O	-0.228377	-0.604615	0.446298
O774	O	0.271623	-0.104615	0.946298
C775	C	-0.195836	-0.633414	0.471333
C776	C	0.304164	-0.133414	0.971333
H777	H	-0.160380	-0.651516	0.447662
H778	H	0.339620	-0.151516	0.947662
H779	H	-0.190568	-0.610494	0.482089
H780	H	0.309432	-0.110494	0.982089
C781	C	-0.258848	-0.649146	0.545196
C782	C	0.241152	-0.149146	1.045196
C783	C	-0.215302	-0.671382	0.516125
C784	C	0.284698	-0.171382	1.016125
H785	H	-0.270856	-0.672565	0.572828
H786	H	0.229144	-0.172565	1.072828
H787	H	-0.280772	-0.629742	0.528331
H788	H	0.219228	-0.129742	1.028331
H789	H	-0.254452	-0.630047	0.554155
H790	H	0.245548	-0.130047	1.054155
H791	H	-0.219700	-0.690476	0.507162
H792	H	0.280300	-0.190476	1.007162
H793	H	-0.193379	-0.690790	0.532990
H794	H	0.306621	-0.190790	1.032990
H795	H	-0.091873	-0.522445	0.255974
H796	H	0.408127	-0.022445	0.755974
H797	H	-0.224299	-0.529059	0.291228
H798	H	0.275701	-0.029059	0.791228
H799	H	-0.018458	-0.669769	0.372051
H800	H	0.481542	-0.169769	0.872051
