data_functionalizedCrystal
_audit_creation_method	'MofGen! by Chris Wilmer'
_symmetry_space_group_name_H-M	'P1'
_symmetry_Int_Tables_number	1
_symmetry_cell_setting	triclinic
loop_
_symmetry_equiv_pos_as_xyz
  x,y,z
_cell_length_a	27.780883
_cell_length_b	27.780936
_cell_length_c	27.780901
_cell_angle_alpha	120.000376
_cell_angle_beta	89.999779
_cell_angle_gamma	60.000310
loop_
_atom_site_label
_atom_site_type_symbol
_atom_site_fract_x
_atom_site_fract_y
_atom_site_fract_z
O1	O	-0.410289	0.424573	0.754795
O2	O	-0.340287	0.326007	0.586229
O3	O	-0.340288	0.424572	0.684794
O4	O	-0.410289	0.326008	0.656230
O5	O	-0.260228	0.344513	0.684794
O6	O	-0.260228	0.245948	0.586229
O7	O	-0.330230	0.344514	0.754795
Cu8	Cu	-0.287919	0.287921	0.670512
Cu9	Cu	-0.382598	0.382600	0.670512
O10	O	-0.330229	0.245949	0.656230
C11	C	-0.120436	0.090566	0.298161
C12	C	-0.056938	0.031166	0.268461
C13	C	-0.149673	0.119389	0.356090
C14	C	-0.207607	0.177723	0.298158
C15	C	-0.237313	0.211513	0.268454
C16	C	-0.236712	0.206414	0.356087
C17	C	-0.207607	0.177721	0.385323
C18	C	-0.237314	0.211508	0.448816
C19	C	-0.149672	0.119391	0.269057
C20	C	-0.261313	0.238806	0.500113
C21	C	-0.005637	-0.016821	0.244466
C22	C	-0.261311	0.238812	0.244456
C23	C	-0.291422	0.273051	0.564467
C24	C	0.058721	-0.077025	0.214364
C25	C	-0.291419	0.273060	0.214350
C26	C	-0.207612	0.579975	0.700422
C27	C	-0.237315	0.639382	0.696334
C28	C	-0.236716	0.551147	0.700829
C29	C	-0.120447	0.492808	0.700422
C30	C	-0.056952	0.459016	0.696334
C31	C	-0.149683	0.464113	0.700829
C32	C	-0.207614	0.492809	0.700422
C33	C	-0.237319	0.459019	0.696334
C34	C	-0.149681	0.551146	0.700829
C35	C	-0.261316	0.431719	0.693030
C36	C	-0.261311	0.687376	0.693031
C37	C	-0.005654	0.431715	0.693030
C38	C	-0.291423	0.397470	0.688887
C39	C	-0.291416	0.747587	0.688887
C40	C	0.058701	0.397465	0.688886
C41	C	-0.462895	0.090538	0.640602
C42	C	-0.433191	0.031131	0.644690
C43	C	-0.520826	0.119365	0.640195
C44	C	-0.462897	0.177705	0.640602
C45	C	-0.433194	0.211498	0.644690
C46	C	-0.520828	0.206400	0.640195
C47	C	-0.550062	0.177703	0.640602
C48	C	-0.613557	0.211493	0.644690
C49	C	-0.433793	0.119367	0.640195
C50	C	-0.664855	0.238793	0.647993
C51	C	-0.409193	-0.016862	0.647994
C52	C	-0.409198	0.238800	0.647994
C53	C	-0.729210	0.273041	0.652137
C54	C	-0.379086	-0.077074	0.652138
C55	C	-0.379093	0.273050	0.652137
O56	O	0.249030	0.325997	0.656230
O57	O	0.080465	0.424566	0.684793
O58	O	0.179030	0.325999	0.586229
O59	O	0.150465	0.424564	0.754794
O60	O	0.179026	0.245941	0.586229
O61	O	0.080461	0.344508	0.684793
O62	O	0.249026	0.245939	0.656230
Cu63	Cu	0.164743	0.287913	0.670512
Cu64	Cu	0.164748	0.382591	0.670511
O65	O	0.150462	0.344506	0.754795
O66	O	-0.330233	0.344525	0.095488
O67	O	-0.260223	0.245962	0.165488
O68	O	-0.260240	0.344540	0.165497
O69	O	-0.330215	0.245948	0.095479
O70	O	-0.340305	0.424589	0.245553
O71	O	-0.340288	0.326012	0.245544
O72	O	-0.410297	0.424575	0.175544
Cu73	Cu	-0.382603	0.382602	0.217854
Cu74	Cu	-0.287917	0.287935	0.123178
O75	O	-0.410280	0.325997	0.175535
O76	O	-0.410281	0.905257	0.656231
O77	O	-0.340280	0.765256	0.684794
O78	O	-0.340280	0.765255	0.586230
O79	O	-0.410281	0.905258	0.754795
O80	O	-0.260220	0.765256	0.586229
O81	O	-0.260220	0.765257	0.684794
O82	O	-0.330222	0.905257	0.656231
Cu83	Cu	-0.287911	0.835257	0.670512
Cu84	Cu	-0.382591	0.835256	0.670513
O85	O	-0.330222	0.905259	0.754795
O86	O	0.249053	-0.234671	0.175570
O87	O	0.080483	-0.094692	0.245560
O88	O	0.179036	-0.094669	0.245573
O89	O	0.150501	-0.234694	0.175557
O90	O	0.179037	-0.094667	0.165514
O91	O	0.080484	-0.094691	0.165501
O92	O	0.249054	-0.234669	0.095511
Cu93	Cu	0.164769	-0.164680	0.123196
Cu94	Cu	0.164768	-0.164682	0.217875
O95	O	0.150502	-0.234692	0.095497
C96	C	-0.550070	0.579982	1.042873
C97	C	-0.613565	0.639390	1.072577
C98	C	-0.520835	0.551155	1.071977
C99	C	-0.462903	0.492815	0.955707
C100	C	-0.433199	0.459023	0.892211
C101	C	-0.433801	0.464120	0.984942
C102	C	-0.462904	0.492817	1.042874
C103	C	-0.433201	0.459026	1.072578
C104	C	-0.520834	0.551154	0.984942
C105	C	-0.409205	0.431726	1.096575
C106	C	-0.664863	0.687384	1.096574
C107	C	-0.409201	0.431722	0.840913
C108	C	-0.379100	0.397477	1.126682
C109	C	-0.729218	0.747596	1.126679
C110	C	-0.379094	0.397471	0.776557
C111	C	0.194655	0.090530	0.298151
C112	C	0.190565	0.031124	0.268449
C113	C	0.195065	0.119356	0.269047
C114	C	0.194657	0.177696	0.385317
C115	C	0.190569	0.211489	0.448812
C116	C	0.195066	0.206389	0.356080
C117	C	0.194660	0.177693	0.298149
C118	C	0.190574	0.211482	0.268444
C119	C	0.195062	0.119359	0.356083
C120	C	0.187273	0.238781	0.244445
C121	C	0.187260	-0.016869	0.244453
C122	C	0.187265	0.238791	0.500110
C123	C	0.183131	0.273028	0.214338
C124	C	0.183114	-0.077079	0.214348
C125	C	0.183121	0.273042	0.564466
C126	C	0.134851	0.492791	1.042867
C127	C	0.138925	0.459005	1.072573
C128	C	0.134462	0.551117	1.071966
C129	C	0.134856	0.492790	0.955700
C130	C	0.138938	0.459003	0.892207
C131	C	0.134468	0.551116	0.984932
C132	C	0.134881	0.579938	1.042861
C133	C	0.138989	0.639331	1.072559
C134	C	0.134437	0.464101	0.984938
C135	C	0.142308	0.687314	1.096552
C136	C	0.142219	0.431709	1.096572
C137	C	0.142236	0.431706	0.840910
C138	C	0.146472	0.747511	1.126653
C139	C	0.146349	0.397465	1.126680
C140	C	0.146373	0.397461	0.776557
C141	C	-0.207665	0.580023	0.385373
C142	C	-0.237375	0.639427	0.448869
C143	C	-0.149735	0.551203	0.356144
C144	C	-0.207653	0.492854	0.298196
C145	C	-0.237350	0.459056	0.268483
C146	C	-0.149723	0.464166	0.269099
C147	C	-0.120494	0.492868	0.298211
C148	C	-0.056999	0.459085	0.268514
C149	C	-0.236762	0.551189	0.356129
C150	C	-0.005702	0.431791	0.244522
C151	C	-0.261377	0.687418	0.500169
C152	C	-0.261341	0.431750	0.244478
C153	C	0.058653	0.397550	0.214423
C154	C	-0.291489	0.747626	0.564526
C155	C	-0.291440	0.397494	0.214363
O156	O	0.150450	0.424560	0.175538
O157	O	0.179025	0.325994	0.245538
O158	O	0.080456	0.424536	0.245522
O159	O	0.249019	0.326018	0.175554
O160	O	0.080484	0.344458	0.165452
O161	O	0.179053	0.245916	0.165468
O162	O	0.150478	0.344482	0.095468
Cu163	Cu	0.164768	0.287887	0.123157
Cu164	Cu	0.164735	0.382588	0.217849
O165	O	0.249047	0.245940	0.095484
C166	C	-0.550026	0.177669	0.042822
C167	C	-0.613521	0.211452	0.072519
C168	C	-0.520785	0.119334	-0.015112
C169	C	-0.462867	0.177683	0.042836
C170	C	-0.433170	0.211481	0.072549
C171	C	-0.433758	0.119348	-0.015097
C172	C	-0.462855	0.090515	-0.044341
C173	C	-0.433145	0.031111	-0.107838
C174	C	-0.520797	0.206371	0.071933
C175	C	-0.409144	-0.016880	-0.159137
C176	C	-0.664818	0.238745	0.096511
C177	C	-0.409179	0.238787	0.096554
C178	C	-0.379032	-0.077088	-0.223494
C179	C	-0.729173	0.272986	0.126610
C180	C	-0.379080	0.273043	0.126669
H181	H	-0.126200	0.095256	0.379557
H182	H	-0.126273	0.575341	0.379622
Br183	Br	0.133370	0.591330	1.151299
Br184	Br	-0.316090	0.591380	0.395243
Br185	Br	-0.354469	0.385877	0.945823
Br186	Br	-0.110568	0.385877	0.701927
H187	H	0.195733	0.095217	0.221444
H188	H	-0.126247	0.417222	0.221501
H189	H	-0.284314	0.253350	0.379553
Br190	Br	0.133402	0.591315	0.945807
H191	H	0.195720	0.253334	0.379554
Br192	Br	-0.110541	0.079207	0.189737
H193	H	0.133773	0.417163	0.961470
H194	H	0.195724	0.095226	0.379550
Br195	Br	-0.354421	0.079134	-0.054205
Br196	Br	-0.559891	0.079105	-0.054242
H197	H	-0.544281	0.253321	0.119528
H198	H	-0.284315	0.575279	0.701487
H199	H	-0.386194	0.095238	0.639538
Br200	Br	-0.110557	0.591354	0.701919
H201	H	-0.544298	0.253343	0.639540
H202	H	-0.544291	0.095227	0.639528
H203	H	-0.544310	0.575285	1.119575
Br204	Br	-0.559953	0.591358	0.945817
