data_functionalizedCrystal
_audit_creation_method	'MofGen! by Chris Wilmer'
_symmetry_space_group_name_H-M	'P1'
_symmetry_Int_Tables_number	1
_symmetry_cell_setting	triclinic
loop_
_symmetry_equiv_pos_as_xyz
  x,y,z
_cell_length_a	6.817900
_cell_length_b	15.866870
_cell_length_c	19.453114
_cell_angle_alpha	113.120776
_cell_angle_beta	101.709288
_cell_angle_gamma	102.655915
loop_
_atom_site_label
_atom_site_type_symbol
_atom_site_fract_x
_atom_site_fract_y
_atom_site_fract_z
V1	V	-4.029387	-0.133791	-0.253639
O2	O	-3.993831	0.005401	-0.213432
O3	O	-4.003025	-0.264297	-0.285930
O4	O	-3.972031	-0.132185	-0.348736
O5	O	-4.025040	-0.127626	-0.150191
V6	V	-4.511320	-0.117089	-0.237132
O7	O	-4.294133	-0.170429	-0.289848
O8	O	-4.696770	-0.080451	-0.200924
O9	O	-4.314475	0.013416	-0.204841
O10	O	-4.664273	-0.256281	-0.277340
O11	O	-4.633063	-0.123255	-0.340580
O12	O	-4.345469	-0.118696	-0.142035
C13	C	-3.853677	-0.296097	-0.290709
C14	C	-3.913350	-0.402790	-0.317745
C15	C	-3.925870	-0.683731	-0.066963
C16	C	-3.981949	-0.783990	-0.092391
C17	C	-4.055444	-0.811962	-0.228274
C18	C	-3.999360	-0.711703	-0.202857
C19	C	-3.934578	-0.647595	-0.122201
C20	C	-4.008067	-0.675567	-0.258095
C21	C	-3.951998	-0.575317	-0.232680
C22	C	-3.887222	-0.511204	-0.152027
C23	C	-3.878509	-0.547345	-0.096786
C24	C	-4.072864	-0.739677	-0.338752
C25	C	-4.081572	-0.703541	-0.393990
C26	C	-4.025488	-0.603289	-0.368575
C27	C	-3.960711	-0.539176	-0.287922
C28	C	-4.034201	-0.567148	-0.423817
C29	C	-3.978132	-0.466898	-0.398402
C30	C	-3.904642	-0.438926	-0.262507
C31	C	-3.814139	-0.127574	-0.370823
C32	C	-3.848674	-0.127123	-0.448788
C33	C	-4.047493	-0.131729	-0.490238
C34	C	-4.079942	-0.131307	-0.563495
C35	C	-3.913572	-0.126297	-0.595307
C36	C	-3.714721	-0.121685	-0.553846
C37	C	-3.682272	-0.122098	-0.480587
N38	N	-3.862388	-0.176983	-0.727220
N39	N	-3.893227	-0.176593	-0.796814
C40	C	-4.011328	-0.125049	-0.816032
N41	N	-4.097462	-0.073924	-0.763033
N42	N	-4.066628	-0.074318	-0.693434
C43	C	-3.948737	-0.125848	-0.674744
C44	C	-4.245344	-0.129196	-0.936916
C45	C	-4.277783	-0.128767	-1.010172
C46	C	-3.912561	-0.119154	-1.000525
C47	C	-3.880122	-0.119574	-0.927266
C48	C	-4.046524	-0.124599	-0.895468
C49	C	-4.127166	0.045212	-0.200062
C50	C	-4.046731	0.151903	-0.173030
C51	C	-4.166704	-0.123310	-0.119946
C52	C	-4.111407	-0.123755	-0.041978
H53	H	-3.825725	-0.495143	-0.031106
H54	H	-4.086973	-0.619359	-0.489488
C55	C	-3.825534	-0.400926	-0.124064
C56	C	-3.640926	-0.348805	-0.142899
C57	C	-3.579234	-0.238527	-0.114935
C58	C	-3.702149	-0.180371	-0.068135
C59	C	-3.886768	-0.232491	-0.049297
C60	C	-3.948461	-0.342769	-0.077262
H61	H	-3.549926	-0.391856	-0.177546
H62	H	-3.442566	-0.199945	-0.128880
H63	H	-3.656481	-0.098736	-0.047434
H64	H	-3.977768	-0.189440	-0.014651
H65	H	-4.085129	-0.381351	-0.063316
H66	H	-4.118518	-0.821306	-0.359442
C67	C	-3.854563	-0.613186	0.021759
C68	C	-4.005873	-0.620069	0.069795
C69	C	-3.934556	-0.549517	0.158510
C70	C	-3.711928	-0.472081	0.199190
C71	C	-3.560604	-0.465195	0.151154
C72	C	-3.631922	-0.535747	0.062439
H73	H	-4.170687	-0.677394	0.039681
H74	H	-4.046577	-0.554615	0.194069
H75	H	-3.659135	-0.419854	0.264862
H76	H	-3.395790	-0.407870	0.181268
H77	H	-3.519900	-0.530649	0.026880
H78	H	-3.851858	-0.386724	-0.196828
H79	H	-3.974847	-0.813405	-0.047403
H80	H	-4.439685	-0.132510	-1.043917
H81	H	-4.108204	-0.864172	-0.293945
H82	H	-4.380837	-0.133284	-0.911023
H83	H	-4.134332	-0.755751	-0.459661
H84	H	-3.985255	-0.437477	-0.443383
H85	H	-4.182992	-0.135818	-0.464351
H86	H	-4.241854	-0.135062	-0.597252
H87	H	-3.579261	-0.117603	-0.579751
H88	H	-3.520362	-0.118340	-0.446835
H89	H	-3.718229	-0.115833	-0.893521
H90	H	-3.777093	-0.115067	-1.026422
