data_functionalizedCrystal
_audit_creation_method	'MofGen! by Chris Wilmer'
_symmetry_space_group_name_H-M	'P1'
_symmetry_Int_Tables_number	1
_symmetry_cell_setting	triclinic
loop_
_symmetry_equiv_pos_as_xyz
  x,y,z
_cell_length_a	10.654550
_cell_length_b	8.559649
_cell_length_c	9.730223
_cell_angle_alpha	90.000781
_cell_angle_beta	89.996251
_cell_angle_gamma	77.131784
loop_
_atom_site_label
_atom_site_type_symbol
_atom_site_fract_x
_atom_site_fract_y
_atom_site_fract_z
O1	O	1.644677	0.224178	-0.114394
O2	O	1.276992	0.245537	-0.114371
O3	O	1.493228	0.002614	-0.114383
O4	O	1.428441	0.467100	-0.114382
O5	O	1.493225	0.002620	0.114197
O6	O	1.276989	0.245543	0.114209
O7	O	1.644674	0.224184	0.114186
Zn8	Zn	1.460831	0.234864	0.150489
Zn9	Zn	1.460835	0.234856	-0.150675
O10	O	1.428438	0.467106	0.114198
C11	C	1.230355	0.243972	-0.000079
C12	C	1.091396	0.239279	-0.000070
C13	C	0.997136	0.382308	-0.000090
C14	C	0.866571	0.377890	-0.000114
C15	C	0.924542	0.087401	-0.000104
C16	C	1.055103	0.091821	-0.000070
C17	C	0.963666	0.550020	-0.000101
C18	C	0.833101	0.545601	-0.000125
C19	C	1.498136	-0.056858	-0.000096
C20	C	1.512750	-0.234076	-0.000105
C21	C	1.691311	0.225749	-0.000110
C22	C	1.830270	0.230441	-0.000128
C23	C	1.423530	0.526579	-0.000092
C24	C	1.408916	0.703797	-0.000093
N25	N	1.460838	0.234869	0.356026
N26	N	1.460839	0.234839	-0.356211
C27	C	1.556605	0.127340	0.427946
C28	C	1.556604	0.127320	0.571829
C29	C	1.365062	0.342373	0.571858
C30	C	1.365060	0.342384	0.427978
C31	C	1.667193	0.003185	0.427931
C32	C	1.667192	0.003165	0.571814
H33	H	0.782193	0.596288	0.098559
C34	C	1.793745	0.040113	0.624571
H35	H	1.845786	0.055338	0.548630
H36	H	1.838474	-0.046917	0.678795
H37	H	1.775040	0.134743	0.678819
C38	C	1.273716	-0.184914	-0.000097
H39	H	1.281298	-0.076408	-0.000116
H40	H	1.228213	-0.204815	0.079614
H41	H	1.228231	-0.204837	-0.079818
C42	C	1.647958	-0.345374	-0.000114
H43	H	1.640378	-0.453881	-0.000117
H44	H	1.693457	-0.325453	0.079587
H45	H	1.693444	-0.325465	-0.079845
C46	C	1.259695	0.460608	0.651003
H47	H	1.202648	0.524634	0.587559
H48	H	1.298374	0.527595	0.707153
H49	H	1.213033	0.402520	0.707109
C50	C	1.259710	0.460656	0.348869
H51	H	1.202679	0.524692	0.412331
H52	H	1.213042	0.402617	0.292740
H53	H	1.298418	0.527653	0.292745
C54	C	1.655335	-0.162536	0.375163
H55	H	1.650446	-0.230694	0.451099
H56	H	1.728515	-0.207891	0.320917
H57	H	1.579703	-0.151254	0.320934
C58	C	1.004390	0.622206	-0.133390
H59	H	1.093350	0.622806	-0.128821
H60	H	0.955568	0.728814	-0.143916
H61	H	0.989393	0.559512	-0.209663
C62	C	1.784951	0.055683	0.367626
H63	H	1.837396	0.079047	0.440335
H64	H	1.756839	0.148627	0.312680
H65	H	1.833283	-0.028260	0.312673
C66	C	1.642174	-0.153454	0.632099
H67	H	1.631039	-0.223192	0.559383
H68	H	1.566614	-0.130015	0.687061
H69	H	1.713458	-0.203795	0.687033
H70	H	1.131848	-0.024647	-0.000034
C71	C	0.884613	-0.074789	-0.000118
H72	H	0.793355	-0.056939	-0.000148
H73	H	0.917900	-0.133743	0.079596
H74	H	0.917939	-0.133738	-0.079836
H75	H	0.986220	0.615614	0.095564
H76	H	0.784843	0.608790	-0.095793
