data_functionalizedCrystal
_audit_creation_method	'MofGen! by Chris Wilmer'
_symmetry_space_group_name_H-M	'P1'
_symmetry_Int_Tables_number	1
_symmetry_cell_setting	triclinic
loop_
_symmetry_equiv_pos_as_xyz
  x,y,z
_cell_length_a	16.625548
_cell_length_b	29.839131
_cell_length_c	16.625539
_cell_angle_alpha	89.962116
_cell_angle_beta	89.982945
_cell_angle_gamma	90.036296
loop_
_atom_site_label
_atom_site_type_symbol
_atom_site_fract_x
_atom_site_fract_y
_atom_site_fract_z
Zn1	Zn	1.232581	-0.178848	-0.455845
Zn2	Zn	1.732581	0.321152	0.044155
Zn3	Zn	1.232462	-0.253976	-0.320985
Zn4	Zn	1.732462	0.246024	0.179015
Zn5	Zn	1.097751	-0.178863	-0.321026
Zn6	Zn	1.597751	0.321137	0.178974
Zn7	Zn	1.097683	-0.253953	-0.455775
Zn8	Zn	1.597683	0.246047	0.044225
O9	O	1.165119	-0.216410	-0.388408
O10	O	1.665119	0.283590	0.111592
O11	O	1.345398	-0.188818	-0.437968
O12	O	1.845398	0.311182	0.062032
O13	O	1.214571	-0.244028	-0.208158
O14	O	1.714571	0.255972	0.291842
O15	O	1.115715	-0.115994	-0.338956
O16	O	1.615715	0.384006	0.161044
O17	O	1.345311	-0.244014	-0.338887
O18	O	1.845311	0.255986	0.161113
O19	O	1.214774	-0.115983	-0.438007
O20	O	1.714774	0.384017	0.061993
O21	O	1.115600	-0.188843	-0.208188
O22	O	1.615600	0.311157	0.291812
O23	O	0.984910	-0.188820	-0.338888
O24	O	1.484910	0.311180	0.161112
O25	O	1.115599	-0.243974	-0.568617
O26	O	1.615599	0.256026	-0.068617
O27	O	0.984860	-0.243989	-0.437888
O28	O	1.484860	0.256011	0.062112
O29	O	1.214708	-0.188795	-0.568668
O30	O	1.714708	0.311205	-0.068668
O31	O	1.214506	-0.316841	-0.338820
O32	O	1.714506	0.183159	0.161180
O33	O	1.115484	-0.316823	-0.437849
O34	O	1.615484	0.183177	0.062151
C35	C	0.955629	-0.216404	-0.388385
C36	C	1.455629	0.283596	0.111615
C37	C	0.866007	-0.216412	-0.388395
C38	C	1.366007	0.283588	0.111605
C39	C	0.537832	-0.216415	-0.388429
C40	C	1.037832	0.283585	0.111571
C41	C	0.629140	-0.216413	-0.388417
C42	C	1.129140	0.283587	0.111583
C43	C	0.701917	-0.216413	-0.388411
C44	C	1.201917	0.283587	0.111589
C45	C	0.793231	-0.216411	-0.388401
C46	C	1.293231	0.283589	0.111599
C47	C	1.164996	-0.333133	-0.388340
C48	C	1.664996	0.166867	0.111660
C49	C	1.165018	-0.383067	-0.388338
C50	C	1.665018	0.116933	0.111662
C51	C	1.216688	-0.692670	-0.440057
C52	C	1.716688	-0.192670	0.059943
C53	C	1.216776	-0.880343	-0.440106
C54	C	1.716776	-0.380343	0.059894
O55	O	1.260587	-0.904573	-0.484029
O56	O	1.760587	-0.404573	0.015971
N57	N	1.165256	-0.903852	-0.388497
N58	N	1.665256	-0.403852	0.111503
C59	C	1.113708	-0.880440	-0.336877
C60	C	1.613708	-0.380440	0.163123
O61	O	1.069884	-0.904742	-0.292988
O62	O	1.569884	-0.404742	0.207012
C63	C	1.113617	-0.692768	-0.336833
C64	C	1.613617	-0.192768	0.163167
C65	C	1.165145	-0.669261	-0.388439
C66	C	1.665145	-0.169261	0.111561
C67	C	1.268212	-0.669163	-0.491660
C68	C	1.768212	-0.169163	0.008340
C69	C	1.268193	-0.622248	-0.491644
C70	C	1.768193	-0.122248	0.008356
C71	C	1.216650	-0.598839	-0.440026
C72	C	1.716650	-0.098839	0.059974
C73	C	1.165126	-0.622346	-0.388423
C74	C	1.665126	-0.122346	0.111577
C75	C	1.062065	-0.669357	-0.285217
C76	C	1.562065	-0.169357	0.214783
C77	C	1.062045	-0.622436	-0.285212
C78	C	1.562045	-0.122436	0.214788
C79	C	1.113574	-0.598929	-0.336818
C80	C	1.613574	-0.098929	0.163182
C81	C	1.113564	-0.552022	-0.336790
C82	C	1.613564	-0.052022	0.163210
N83	N	1.165083	-0.528512	-0.388398
N84	N	1.665083	-0.028512	0.111602
C85	C	1.216626	-0.551921	-0.440016
C86	C	1.716626	-0.051921	0.059984
C87	C	1.113760	-0.978971	-0.336902
C88	C	1.613760	-0.478971	0.163098
C89	C	1.113784	-1.025889	-0.336912
C90	C	1.613784	-0.525889	0.163088
C91	C	1.216851	-1.025788	-0.440142
C92	C	1.716851	-0.525788	0.059858
C93	C	1.216831	-0.978869	-0.440128
C94	C	1.716831	-0.478869	0.059872
C95	C	1.165280	-0.955462	-0.388511
C96	C	1.665280	-0.455462	0.111489
C97	C	1.216582	-0.453395	-0.439979
C98	C	1.716582	0.046605	0.060021
C99	C	1.216561	-0.406476	-0.439956
C100	C	1.716561	0.093524	0.060044
C101	C	1.113491	-0.406580	-0.336729
C102	C	1.613491	0.093420	0.163271
C103	C	1.113515	-0.453496	-0.336749
C104	C	1.613515	0.046504	0.163251
C105	C	1.165063	-0.476902	-0.388380
C106	C	1.665063	0.023098	0.111620
O107	O	1.069769	-0.527762	-0.292896
O108	O	1.569769	-0.027762	0.207104
O109	O	1.260431	-0.527611	-0.483911
O110	O	1.760431	-0.027611	0.016089
C111	C	1.216707	-0.739585	-0.440073
C112	C	1.716707	-0.239585	0.059927
C113	C	1.165184	-0.763092	-0.388471
C114	C	1.665184	-0.263092	0.111529
C115	C	1.113641	-0.739683	-0.336852
C116	C	1.613641	-0.239683	0.163148
C117	C	1.165207	-0.810010	-0.388480
C118	C	1.665207	-0.310010	0.111520
C119	C	1.216750	-0.833419	-0.440099
C120	C	1.716750	-0.333419	0.059901
C121	C	1.268270	-0.809910	-0.491707
C122	C	1.768270	-0.309910	0.008293
C123	C	1.268250	-0.762994	-0.491691
C124	C	1.768250	-0.262994	0.008309
C125	C	1.062122	-0.763193	-0.285244
C126	C	1.562122	-0.263193	0.214756
C127	C	1.062146	-0.810108	-0.285263
C128	C	1.562146	-0.310108	0.214737
C129	C	1.113689	-0.833517	-0.336882
C130	C	1.613689	-0.333517	0.163118
C131	C	1.375428	-0.216417	-0.388431
C132	C	1.875428	0.283583	0.111569
C133	C	1.465049	-0.216420	-0.388441
C134	C	1.965049	0.283580	0.111559
C135	C	1.165159	-0.216380	-0.598717
C136	C	1.665159	0.283620	-0.098717
C137	C	1.165176	-0.216368	-0.688338
C138	C	1.665176	0.283632	-0.188338
C139	C	1.165265	-0.099232	-0.388494
C140	C	1.665265	0.400768	0.111506
C141	C	1.165327	-0.049297	-0.388530
C142	C	1.665327	0.450703	0.111470
C143	C	1.165189	-0.216358	-0.761121
C144	C	1.665189	0.283642	-0.261121
C145	C	1.165208	-0.216341	-0.852429
C146	C	1.665208	0.283659	-0.352429
C147	C	1.165227	-0.216325	-0.925206
C148	C	1.665227	0.283675	-0.425206
C149	C	1.165247	-0.216309	-1.016520
C150	C	1.665247	0.283691	-0.516520
C151	C	1.165126	-0.216407	-0.178917
C152	C	1.665126	0.283593	0.321083
C153	C	1.165266	-0.216293	-0.089296
C154	C	1.665266	0.283707	0.410704
H155	H	1.258552	-0.472447	-0.482027
H156	H	1.758552	0.027553	0.017973
N157	N	1.061167	-1.049905	-0.284191
N158	N	1.561167	-0.549905	0.215809
N159	N	1.089578	-1.076093	-0.232841
N160	N	1.589578	-0.576093	0.267159
H161	H	1.052414	-1.093055	-0.195608
H162	H	1.552414	-0.593055	0.304392
H163	H	1.310241	-0.828977	-0.533734
H164	H	1.810241	-0.328977	-0.033734
N165	N	1.269212	-0.382462	-0.492656
N166	N	1.769212	0.117538	0.007344
N167	N	1.320604	-0.356277	-0.464314
N168	N	1.820604	0.143723	0.035686
H169	H	1.357793	-0.339320	-0.501529
H170	H	1.857793	0.160680	-0.001529
H171	H	1.020105	-0.688488	-0.243194
H172	H	1.520105	-0.188488	0.256806
H173	H	1.258820	-1.044855	-0.482171
H174	H	1.758820	-0.544855	0.017829
H175	H	1.258789	-0.959733	-0.482150
H176	H	1.758789	-0.459733	0.017850
N177	N	1.060831	-0.382662	-0.284020
N178	N	1.560831	0.117338	0.215980
N179	N	0.986428	-0.387931	-0.289310
N180	N	1.486428	0.112069	0.210690
H181	H	0.949233	-0.371037	-0.252088
H182	H	1.449233	0.128963	0.247912
H183	H	1.310149	-0.603111	-0.533669
H184	H	1.810149	-0.103111	-0.033669
H185	H	1.071780	-0.959915	-0.294868
H186	H	1.571780	-0.459915	0.205132
H187	H	1.310184	-0.688218	-0.533699
H188	H	1.810184	-0.188218	-0.033699
N189	N	1.009375	-0.598533	-0.232484
N190	N	1.509375	-0.098533	0.267516
N191	N	0.963374	-0.619530	-0.186418
N192	N	1.463374	-0.119530	0.313582
H193	H	0.926176	-0.602650	-0.149178
H194	H	1.426176	-0.102650	0.350822
H195	H	1.071563	-0.472636	-0.294720
H196	H	1.571563	0.027364	0.205280
H197	H	1.310210	-0.743858	-0.533714
H198	H	1.810210	-0.243858	-0.033714
N199	N	1.009508	-0.834110	-0.232533
N200	N	1.509508	-0.334110	0.267467
N201	N	0.963493	-0.813198	-0.186452
N202	N	1.463493	-0.313198	0.313548
H203	H	0.926314	-0.830147	-0.149216
H204	H	1.426314	-0.330147	0.350784
H205	H	1.020148	-0.744137	-0.243211
H206	H	1.520148	-0.244137	0.256789
