data_functionalizedCrystal
_audit_creation_method	'MofGen! by Chris Wilmer'
_symmetry_space_group_name_H-M	'P1'
_symmetry_Int_Tables_number	1
_symmetry_cell_setting	triclinic
loop_
_symmetry_equiv_pos_as_xyz
  x,y,z
_cell_length_a	12.811438
_cell_length_b	11.792241
_cell_length_c	11.295483
_cell_angle_alpha	94.123059
_cell_angle_beta	80.460799
_cell_angle_gamma	84.117944
loop_
_atom_site_label
_atom_site_type_symbol
_atom_site_fract_x
_atom_site_fract_y
_atom_site_fract_z
O1	O	1.411389	0.133557	-0.251431
O2	O	1.911389	0.633557	0.248569
O3	O	1.103540	0.152734	-0.218191
O4	O	1.603540	0.652734	0.281809
O5	O	1.264935	-0.022101	-0.235610
O6	O	1.764935	0.477899	0.264390
O7	O	1.249995	0.308391	-0.234013
O8	O	1.749995	0.808391	0.265987
O9	O	1.250759	-0.006768	-0.036029
O10	O	1.750759	0.493232	0.463971
O11	O	1.089364	0.168066	-0.018611
O12	O	1.589364	0.668066	0.481389
O13	O	1.397214	0.148889	-0.051851
O14	O	1.897214	0.648889	0.448149
Cu15	Cu	1.241995	0.159878	-0.017008
Cu16	Cu	1.741995	0.659878	0.482992
Cu17	Cu	1.258759	0.141745	-0.253035
Cu18	Cu	1.758759	0.641745	0.246965
O19	O	1.235819	0.323724	-0.034433
O20	O	1.735819	0.823724	0.465567
C21	C	1.057041	0.159795	-0.114146
C22	C	1.557041	0.659795	0.385854
C23	C	0.939607	0.157980	-0.101465
C24	C	1.439607	0.657980	0.398535
C25	C	0.766363	0.163779	0.025191
C26	C	1.266363	0.663779	0.525191
C27	C	0.876702	0.165486	0.013282
C28	C	1.376702	0.665486	0.513282
C29	C	0.892166	0.148770	-0.204312
C30	C	1.392166	0.648770	0.295688
C31	C	0.781827	0.147064	-0.192404
C32	C	1.281827	0.647064	0.307596
C33	C	0.718929	0.154567	-0.077648
C34	C	1.218929	0.654567	0.422352
C35	C	0.608589	0.152852	-0.065741
C36	C	1.108589	0.652852	0.434259
C37	C	0.624053	0.136144	-0.283334
C38	C	1.124053	0.636144	0.216666
C39	C	0.734393	0.137851	-0.295243
C40	C	1.234393	0.637851	0.204757
C41	C	1.256908	-0.056716	-0.135718
C42	C	1.756908	0.443284	0.364282
C43	C	1.254099	-0.182701	-0.135416
C44	C	1.754099	0.317299	0.364584
C45	C	1.248935	-0.413362	-0.134879
C46	C	1.748935	0.086638	0.365121
C47	C	1.251805	-0.285006	-0.135178
C48	C	1.751805	0.214994	0.364822
C49	C	1.443713	0.141827	-0.155899
C50	C	1.943713	0.641827	0.344101
C51	C	1.561147	0.143642	-0.168587
C52	C	2.061147	0.643642	0.331413
C53	C	1.243845	0.358339	-0.134327
C54	C	1.743845	0.858339	0.365673
C55	C	1.246655	0.484323	-0.134637
C56	C	1.746655	0.984323	0.365363
N57	N	1.230211	0.172630	0.149001
N58	N	1.730211	0.672630	0.649001
N59	N	1.270551	0.128983	-0.419044
N60	N	1.770551	0.628983	0.080956
C61	C	1.355375	0.037119	0.384782
C62	C	1.855375	0.537119	0.884782
C63	C	1.346478	0.046764	0.510406
C64	C	1.846478	0.546764	1.010406
C65	C	1.203515	0.201560	0.525875
C66	C	1.703515	0.701560	1.025875
C67	C	1.212412	0.191915	0.400251
C68	C	1.712412	0.691915	0.900251
C69	C	1.288346	0.109693	0.329709
C70	C	1.788346	0.609693	0.829709
C71	C	1.297247	0.100054	0.204082
C72	C	1.797247	0.600054	0.704082
C73	C	1.154280	0.254843	0.219554
C74	C	1.654280	0.754843	0.719554
C75	C	1.145383	0.264489	0.345178
C76	C	1.645383	0.764489	0.845178
H77	H	0.557378	0.158969	0.027699
H78	H	1.057378	0.658969	0.527699
Cl79	Cl	0.564412	0.124600	-0.412625
Cl80	Cl	1.064412	0.624600	0.087375
H81	H	1.359079	0.033107	0.146647
H82	H	1.859079	0.533107	0.646647
H83	H	1.083556	0.331430	0.402628
H84	H	1.583556	0.831430	0.902628
Cl85	Cl	1.070018	0.346089	0.150307
Cl86	Cl	1.570018	0.846089	0.650307
Cl87	Cl	1.450843	-0.066232	0.296097
Cl88	Cl	1.950843	0.433768	0.796097
H89	H	0.715150	0.169895	0.118630
H90	H	1.215150	0.669895	0.618630
H91	H	0.915317	0.172991	0.097025
H92	H	1.415317	0.672991	0.597025
H93	H	0.785618	0.131747	-0.388673
H94	H	1.285618	0.631747	0.111327
H95	H	0.943394	0.142672	-0.297741
H96	H	1.443394	0.642672	0.202259
Cl97	Cl	1.108050	0.304907	0.614570
Cl98	Cl	1.608050	0.804907	1.114570
Cl99	Cl	1.430745	-0.044478	0.579637
Cl100	Cl	1.930745	0.455522	1.079637
