data_functionalizedCrystal
_audit_creation_method	'MofGen! by Chris Wilmer'
_symmetry_space_group_name_H-M	'P1'
_symmetry_Int_Tables_number	1
_symmetry_cell_setting	triclinic
loop_
_symmetry_equiv_pos_as_xyz
  x,y,z
_cell_length_a	14.044220
_cell_length_b	14.044191
_cell_length_c	10.868271
_cell_angle_alpha	89.998192
_cell_angle_beta	89.993930
_cell_angle_gamma	93.190327
loop_
_atom_site_label
_atom_site_type_symbol
_atom_site_fract_x
_atom_site_fract_y
_atom_site_fract_z
O1	O	0.230200	1.277172	-0.102268
O2	O	0.221888	1.000500	-0.102284
O3	O	0.087708	1.134683	-0.102264
O4	O	0.364380	1.142989	-0.102288
O5	O	0.087702	1.134671	0.102381
O6	O	0.221881	1.000487	0.102361
O7	O	0.230194	1.277160	0.102376
Zn8	Zn	0.226036	1.138821	0.134860
Zn9	Zn	0.226045	1.138838	-0.134768
O10	O	0.364373	1.142976	0.102357
C11	C	0.218248	0.964872	0.000037
C12	C	0.207401	0.858728	0.000031
C13	C	0.052083	1.131041	0.000059
C14	C	-0.054060	1.120197	0.000060
C15	C	0.264501	0.613270	0.000039
C16	C	0.187585	0.664395	0.000043
C17	C	0.198613	0.772532	0.000037
C18	C	0.253474	0.505123	0.000045
C19	C	-0.248398	1.100370	0.000041
C20	C	-0.299526	1.177285	0.000041
C21	C	-0.407663	1.166253	0.000031
C22	C	-0.140252	1.111400	0.000051
C23	C	0.399998	1.146618	0.000031
C24	C	0.506142	1.157463	0.000022
C25	C	0.233834	1.312788	0.000053
C26	C	0.244681	1.418931	0.000051
N27	N	0.226030	1.138817	0.318875
N28	N	0.226044	1.138849	-0.318782
C29	C	0.226043	1.138833	0.569881
C30	C	0.226038	1.138821	0.430203
H31	H	0.113452	0.626952	-0.000037
H32	H	0.338628	0.650711	0.000029
O33	O	-0.254716	1.265659	0.000113
C34	C	-0.155157	1.257146	0.000092
H35	H	-0.138199	1.184580	0.038824
H36	H	-0.127023	1.264086	-0.098082
C37	C	-0.128146	1.425627	0.032795
C38	C	-0.107317	1.336502	0.080376
H39	H	-0.098635	1.474579	0.082313
H40	H	-0.195220	1.431363	0.032805
H41	H	-0.104700	1.431396	-0.049015
H42	H	-0.130774	1.330730	0.162179
H43	H	-0.040246	1.330767	0.080382
H44	H	-0.285837	1.026242	0.000034
