data_functionalizedCrystal
_audit_creation_method	'MofGen! by Chris Wilmer'
_symmetry_space_group_name_H-M	'P1'
_symmetry_Int_Tables_number	1
_symmetry_cell_setting	triclinic
loop_
_symmetry_equiv_pos_as_xyz
  x,y,z
_cell_length_a	15.944551
_cell_length_b	10.489741
_cell_length_c	8.965430
_cell_angle_alpha	90.001157
_cell_angle_beta	89.999468
_cell_angle_gamma	95.981044
loop_
_atom_site_label
_atom_site_type_symbol
_atom_site_fract_x
_atom_site_fract_y
_atom_site_fract_z
O1	O	0.118500	-1.692411	-0.123951
O2	O	0.129624	-1.321061	-0.123974
O3	O	0.001848	-1.516876	-0.123948
O4	O	0.246276	-1.496595	-0.123977
O5	O	0.001857	-1.516860	0.124130
O6	O	0.129633	-1.321044	0.124105
O7	O	0.118509	-1.692394	0.124128
Cu8	Cu	0.124071	-1.506718	0.146768
Cu9	Cu	0.124061	-1.506737	-0.146614
O10	O	0.246285	-1.496578	0.124102
C11	C	-0.029446	-1.516026	0.000091
C12	C	-0.122708	-1.513502	0.000092
C13	C	0.128788	-1.273532	0.000062
C14	C	0.126275	-1.131938	0.000054
C15	C	0.119345	-1.739922	0.000088
C16	C	0.121858	-1.881517	0.000087
C17	C	-0.338330	-1.386093	0.000063
C18	C	-0.398988	-1.445249	0.122385
C19	C	-0.293461	-1.508935	0.000080
C20	C	-0.398979	-1.445294	-0.122201
C21	C	-0.458400	-1.504515	0.000062
C22	C	-0.352890	-1.568126	0.122503
C23	C	-0.352875	-1.568154	-0.122193
C24	C	-0.413515	-1.627399	0.000158
C25	C	-0.198443	-1.511478	0.000092
C26	C	-0.553417	-1.501982	0.000061
C27	C	0.277579	-1.497429	0.000059
C28	C	0.370841	-1.499953	0.000049
N29	N	0.124078	-1.506713	0.353117
C30	C	0.044975	-1.064925	0.000077
C31	C	0.083376	-0.972274	-0.122240
C32	C	0.083403	-0.972291	0.122346
C33	C	0.164709	-1.041152	-0.122364
C34	C	0.164726	-1.041179	0.122332
C35	C	0.203186	-0.948554	-0.000015
N36	N	0.124048	-1.506752	-0.352963
C37	C	0.183150	-1.416127	0.450411
C38	C	0.200146	-1.531388	0.549830
C39	C	0.107089	-1.391501	0.549826
C40	C	0.141112	-1.622032	0.450347
C41	C	0.048022	-1.482069	0.450334
C42	C	0.064986	-1.597413	0.549708
H43	H	-0.305636	-1.284128	0.000179
H44	H	0.048992	-0.941783	0.225756
H45	H	0.155545	-1.719502	0.406834
H46	H	0.264453	-1.552259	0.593533
H47	H	0.092733	-1.294052	0.593526
H48	H	-0.021859	-1.115541	-0.000068
C49	C	-0.388251	-1.248767	0.261750
C50	C	-0.426559	-1.375105	0.261977
H51	H	-0.405275	-1.205459	0.347921
H52	H	-0.328711	-1.249186	0.262300
H53	H	-0.404801	-1.205971	0.174883
H54	H	-0.410004	-1.417904	0.348839
H55	H	-0.486112	-1.374692	0.261441
C56	C	0.015509	-1.821468	0.557725
C57	C	-0.002471	-1.700956	0.608217
H58	H	-0.026131	-1.885391	0.593858
H59	H	0.015464	-1.822470	0.451789
H60	H	0.069386	-1.838280	0.593309
H61	H	-0.056345	-1.684139	0.572624
H62	H	-0.002433	-1.699951	0.714175
C63	C	-0.056408	-1.333064	0.441397
C64	C	-0.038759	-1.453847	0.391270
H65	H	-0.109980	-1.315630	0.404921
H66	H	-0.056904	-1.332097	0.547328
H67	H	-0.014314	-1.269549	0.405911
H68	H	-0.080851	-1.517363	0.426765
H69	H	-0.038271	-1.454825	0.285316
C70	C	0.308578	-1.370574	0.303442
C71	C	0.250645	-1.312811	0.391528
H72	H	0.350242	-1.306793	0.267082
H73	H	0.334787	-1.430807	0.361751
H74	H	0.279993	-1.413278	0.221739
H75	H	0.279228	-1.270114	0.473238
H76	H	0.224434	-1.252555	0.333217
C77	C	-0.237790	-1.639863	0.261044
C78	C	-0.325485	-1.638192	0.262269
H79	H	-0.220871	-1.683109	0.347335
H80	H	-0.221643	-1.683213	0.174306
H81	H	-0.211382	-1.554396	0.260684
H82	H	-0.351893	-1.723660	0.262617
H83	H	-0.341640	-1.594845	0.349029
C84	C	0.290417	-0.747653	0.001119
C85	C	0.293500	-0.880566	-0.000107
H86	H	0.346172	-0.705681	0.001066
H87	H	0.261324	-0.723027	-0.084938
H88	H	0.261674	-0.724111	0.088077
H89	H	0.322237	-0.904109	-0.087072
H90	H	0.322605	-0.905201	0.085959
C91	C	-0.434199	-1.829152	0.128435
C92	C	-0.457461	-1.765162	0.000256
H93	H	-0.461336	-1.914196	0.128502
H94	H	-0.374810	-1.831489	0.129246
H95	H	-0.450689	-1.785177	0.214488
H96	H	-0.440964	-1.809132	-0.085798
H97	H	-0.516862	-1.762831	-0.000568
C98	C	0.281954	-1.141842	0.218605
C99	C	0.211132	-1.082453	0.261925
H100	H	0.310600	-1.167318	0.304795
H101	H	0.264564	-1.215085	0.159648
H102	H	0.318735	-1.083388	0.162014
H103	H	0.174347	-1.140910	0.318507
H104	H	0.228521	-1.009200	0.320907
C105	C	-0.237657	-1.640851	-0.259543
C106	C	-0.325272	-1.638246	-0.261789
H107	H	-0.220617	-1.684122	-0.345729
H108	H	-0.210882	-1.555617	-0.258679
H109	H	-0.222057	-1.684601	-0.172706
H110	H	-0.340872	-1.594487	-0.348621
H111	H	-0.352057	-1.723495	-0.262668
H112	H	-0.419372	-1.393328	-0.225622
H113	H	0.048972	-0.941743	-0.225644
C114	C	0.213001	-1.215274	-0.260916
C115	C	0.211100	-1.082124	-0.262133
H116	H	0.241634	-1.240568	-0.347208
H117	H	0.241692	-1.239398	-0.174180
H118	H	0.156963	-1.256155	-0.260559
H119	H	0.267138	-1.041242	-0.262479
H120	H	0.182410	-1.057987	-0.348892
