data_functionalizedCrystal
_audit_creation_method	'MofGen! by Chris Wilmer'
_symmetry_space_group_name_H-M	'P1'
_symmetry_Int_Tables_number	1
_symmetry_cell_setting	triclinic
loop_
_symmetry_equiv_pos_as_xyz
  x,y,z
_cell_length_a	9.065218
_cell_length_b	15.021413
_cell_length_c	9.065218
_cell_angle_alpha	89.994080
_cell_angle_beta	94.984115
_cell_angle_gamma	89.992497
loop_
_atom_site_label
_atom_site_type_symbol
_atom_site_fract_x
_atom_site_fract_y
_atom_site_fract_z
O1	O	1.960410	-0.074030	-0.216337
O2	O	2.460410	0.425970	0.283663
O3	O	1.531125	-0.074031	-0.234084
O4	O	2.031125	0.425969	0.265916
O5	O	1.754640	-0.074029	-0.010568
O6	O	2.254640	0.425971	0.489432
O7	O	1.736894	-0.074033	-0.439853
O8	O	2.236894	0.425967	0.060147
O9	O	1.754605	0.074035	-0.010600
O10	O	2.254605	0.574035	0.489400
O11	O	1.531089	0.074033	-0.234116
O12	O	2.031089	0.574033	0.265884
O13	O	1.960374	0.074034	-0.216369
O14	O	2.460374	0.574034	0.283631
Zn15	Zn	1.745726	0.097542	-0.225247
Zn16	Zn	2.245726	0.597542	0.274753
Zn17	Zn	1.745773	-0.097539	-0.225205
Zn18	Zn	2.245773	0.402461	0.274795
O19	O	1.736858	0.074032	-0.439885
O20	O	2.236858	0.574032	0.060115
C21	C	1.476120	0.000001	-0.232394
C22	C	1.976120	0.500001	0.267606
C23	C	1.312277	0.000000	-0.227294
C24	C	1.812277	0.500000	0.272706
N25	N	1.745705	0.230679	-0.225275
N26	N	2.245705	0.730679	0.274725
N27	N	1.745806	-0.230677	-0.225166
N28	N	2.245806	0.269323	0.274834
C29	C	2.015378	-0.000000	-0.218059
C30	C	2.515378	0.500000	0.281941
C31	C	2.179221	-0.000005	-0.223158
C32	C	2.679221	0.499995	0.276842
C33	C	1.642334	0.470362	-0.328580
C34	C	2.142334	0.970362	0.171420
C35	C	1.776049	0.529696	-0.359000
C36	C	2.276049	1.029696	0.141000
C37	C	1.745742	0.412286	-0.225239
C38	C	2.245742	0.912286	0.274761
C39	C	1.612064	0.529693	-0.194852
C40	C	2.112064	1.029693	0.305148
C41	C	1.745766	0.587710	-0.225207
C42	C	2.245766	1.087710	0.274793
C43	C	1.879524	0.470314	-0.255727
C44	C	2.379524	0.970314	0.244273
C45	C	1.715451	0.470307	-0.091520
C46	C	2.215451	0.970307	0.408480
C47	C	1.849261	0.529614	-0.121885
C48	C	2.349261	1.029614	0.378115
C49	C	1.745726	0.311229	-0.225261
C50	C	2.245726	0.811229	0.274739
C51	C	1.745797	0.688766	-0.225184
C52	C	2.245797	1.188766	0.274816
C53	C	1.752917	0.000002	0.044403
C54	C	2.252917	0.500002	0.544403
C55	C	1.747817	-0.000003	0.208245
C56	C	2.247817	0.499997	0.708245
C57	C	1.738582	-0.000001	-0.494855
C58	C	2.238582	0.499999	0.005145
C59	C	1.743681	-0.000003	-0.658698
C60	C	2.243681	0.499997	-0.158698
H61	H	1.801690	0.555782	-0.472070
H62	H	2.301690	1.055782	0.027930
H63	H	1.992610	0.444341	-0.281549
H64	H	2.492610	0.944341	0.218451
N65	N	1.965225	0.563869	-0.006099
N66	N	2.465225	1.063869	0.493901
H67	H	2.066111	0.542152	-0.029234
H68	H	2.566111	1.042152	0.470766
H69	H	1.963889	0.631099	-0.006188
H70	H	2.463889	1.131099	0.493812
N71	N	1.681447	0.435723	0.058212
N72	N	2.181447	0.935723	0.558212
H73	H	1.580383	0.457285	0.081065
H74	H	2.080383	0.957285	0.581065
H75	H	1.682740	0.368496	0.057258
H76	H	2.182740	0.868496	0.557258
N77	N	1.462315	0.564253	-0.160819
N78	N	1.962315	1.064253	0.339181
H79	H	1.384279	0.542700	-0.238963
H80	H	1.884279	1.042700	0.261037
H81	H	1.438749	0.541717	-0.060556
H82	H	1.938749	1.041717	0.439444
H83	H	1.554976	0.444345	-0.416044
H84	H	2.054976	0.944345	0.083956
