data_functionalizedCrystal
_audit_creation_method	'MofGen! by Chris Wilmer'
_symmetry_space_group_name_H-M	'P1'
_symmetry_Int_Tables_number	1
_symmetry_cell_setting	triclinic
loop_
_symmetry_equiv_pos_as_xyz
  x,y,z
_cell_length_a	18.215407
_cell_length_b	18.215404
_cell_length_c	18.215399
_cell_angle_alpha	90.027515
_cell_angle_beta	89.980167
_cell_angle_gamma	89.975729
loop_
_atom_site_label
_atom_site_type_symbol
_atom_site_fract_x
_atom_site_fract_y
_atom_site_fract_z
Zn1	Zn	1.125077	0.292983	-0.416118
Zn2	Zn	1.124988	0.416054	-0.293053
Zn3	Zn	1.002010	0.293007	-0.293065
Zn4	Zn	1.001978	0.416013	-0.416078
O5	O	1.063513	0.354514	-0.354578
O6	O	1.228050	0.309316	-0.399805
O7	O	1.108651	0.399759	-0.190070
O8	O	1.018386	0.190020	-0.309411
O9	O	1.227984	0.399736	-0.309389
O10	O	1.108803	0.190002	-0.399817
O11	O	1.018299	0.309357	-0.190079
O12	O	0.899021	0.309317	-0.309372
O13	O	1.018332	0.399666	-0.519067
O14	O	0.898998	0.399689	-0.399748
O15	O	1.108772	0.309276	-0.519097
O16	O	1.108620	0.519033	-0.309350
O17	O	1.018245	0.519003	-0.399736
C18	C	0.872307	0.354502	-0.354557
C19	C	0.790508	0.354514	-0.354566
C20	C	0.602321	0.401645	-0.401566
C21	C	0.525463	0.401647	-0.401575
C22	C	0.525457	0.307397	-0.307607
C23	C	0.602315	0.307392	-0.307602
C24	C	0.640745	0.354520	-0.354581
C25	C	0.487029	0.354528	-0.354595
C26	C	0.403695	0.354530	-0.354604
C27	C	0.724084	0.354517	-0.354572
C28	C	1.063439	0.545721	-0.354553
C29	C	1.063475	0.627520	-0.354567
C30	C	1.110647	0.815705	-0.307600
C31	C	1.110681	0.892563	-0.307622
C32	C	1.016492	0.892572	-0.401663
C33	C	1.016462	0.815715	-0.401644
C34	C	1.063539	0.777283	-0.354609
C35	C	1.063603	0.930999	-0.354649
C36	C	1.063640	1.014333	-0.354673
C37	C	1.063503	0.693944	-0.354585
C38	C	1.255466	0.354528	-0.354600
C39	C	1.337265	0.354533	-0.354609
C40	C	1.063558	0.354464	-0.546531
C41	C	1.063577	0.354442	-0.628330
C42	C	1.063613	1.162561	-0.354633
C43	C	1.063667	1.080763	-0.354691
C44	C	1.110687	0.307332	-0.816541
C45	C	1.110695	0.307311	-0.893400
C46	C	1.016520	0.401438	-0.893358
C47	C	1.016508	0.401455	-0.816500
C48	C	1.063596	0.354403	-0.778094
C49	C	1.063616	0.354365	-0.931810
C50	C	1.063625	0.354342	-1.015144
C51	C	1.063586	0.354425	-0.694755
C52	C	1.063511	0.354512	-0.163372
C53	C	1.063635	0.354326	-0.081574
H54	H	0.633600	0.269012	-0.269341
H55	H	0.633609	0.440018	-0.439820
O56	O	1.156447	0.778485	-0.261891
C57	C	1.198020	0.828883	-0.220392
H58	H	1.200571	0.883644	-0.250553
H59	H	1.171108	0.837121	-0.164476
C60	C	1.273207	0.731572	-0.172807
C61	C	1.276345	0.798829	-0.209855
H62	H	1.321521	0.713033	-0.166304
H63	H	1.245197	0.697617	-0.200764
H64	H	1.250777	0.738446	-0.126214
H65	H	1.298766	0.791952	-0.256450
H66	H	1.304361	0.832782	-0.181906
O67	O	1.156496	0.261726	-0.779198
C68	C	1.203993	0.303630	-0.734723
H69	H	1.208523	0.361587	-0.757870
H70	H	1.181227	0.306179	-0.676470
C71	C	1.274947	0.196487	-0.705136
C72	C	1.280515	0.267669	-0.733568
H73	H	1.322148	0.174304	-0.704420
H74	H	1.242945	0.168255	-0.735097
H75	H	1.255972	0.198621	-0.656594
H76	H	1.299480	0.265534	-0.782112
H77	H	1.312522	0.295900	-0.703615
H78	H	0.494158	0.269028	-0.269358
O79	O	0.488025	0.447357	-0.447191
C80	C	0.411947	0.437271	-0.437114
H81	H	0.401460	0.380446	-0.413113
H82	H	0.390103	0.480874	-0.397849
C83	C	0.385401	0.513906	-0.541046
C84	C	0.372519	0.444110	-0.511574
H85	H	0.361078	0.518128	-0.586976
H86	H	0.436655	0.520704	-0.547834
H87	H	0.367197	0.550234	-0.508318
H88	H	0.390731	0.407784	-0.544297
H89	H	0.321266	0.437306	-0.504793
O90	O	1.156560	0.929896	-0.262083
C91	C	1.204073	0.974263	-0.304073
H92	H	1.208511	0.951055	-0.362038
H93	H	1.181383	1.032547	-0.306580
C94	C	1.275178	1.003852	-0.197058
C95	C	1.280634	0.975344	-0.268250
H96	H	1.322404	1.004521	-0.174961
H97	H	1.243166	0.973963	-0.168768
H98	H	1.256267	1.052418	-0.199157
H99	H	1.299536	0.926775	-0.266150
H100	H	1.312651	1.005224	-0.296540
H101	H	0.978164	0.923873	-0.439957
O102	O	0.970841	0.447290	-0.779180
C103	C	0.986881	0.520635	-0.797955
H104	H	1.045674	0.524349	-0.819096
H105	H	0.947421	0.539863	-0.842553
C106	C	0.906076	0.565199	-0.703698
C107	C	0.978289	0.569762	-0.729657
H108	H	0.900773	0.595504	-0.661570
H109	H	0.895267	0.515785	-0.691050
H110	H	0.873201	0.581221	-0.740869
H111	H	1.011161	0.553731	-0.692490
H112	H	0.989103	0.619174	-0.742297
O113	O	0.970629	0.778501	-0.447335
C114	C	0.929093	0.828901	-0.488863
H115	H	0.926581	0.883712	-0.458732
H116	H	0.956013	0.837012	-0.544783
C117	C	0.853838	0.731636	-0.536397
C118	C	0.850747	0.798954	-0.499386
H119	H	0.805512	0.713163	-0.542891
H120	H	0.881823	0.697680	-0.508421
H121	H	0.876275	0.738405	-0.582993
H122	H	0.828320	0.792182	-0.452788
H123	H	0.822757	0.832908	-0.527354
H124	H	1.149040	0.268979	-0.924700
H125	H	0.978185	0.439748	-0.924637
