data_functionalizedCrystal
_audit_creation_method	'MofGen! by Chris Wilmer'
_symmetry_space_group_name_H-M	'P1'
_symmetry_Int_Tables_number	1
_symmetry_cell_setting	triclinic
loop_
_symmetry_equiv_pos_as_xyz
  x,y,z
_cell_length_a	13.185407
_cell_length_b	11.804917
_cell_length_c	16.109301
_cell_angle_alpha	78.167113
_cell_angle_beta	112.282518
_cell_angle_gamma	82.238254
loop_
_atom_site_label
_atom_site_type_symbol
_atom_site_fract_x
_atom_site_fract_y
_atom_site_fract_z
O1	O	1.425018	0.098976	0.194910
O2	O	1.925018	0.598976	0.694910
O3	O	1.107487	0.098990	0.110626
O4	O	1.607487	0.598990	0.610626
O5	O	1.274978	0.098971	0.275752
O6	O	1.774978	0.598971	0.775752
O7	O	1.257527	0.098996	0.029785
O8	O	1.757527	0.598996	0.529785
O9	O	1.319038	-0.099072	0.319176
O10	O	1.819038	0.400928	0.819176
O11	O	1.151547	-0.099053	0.154050
O12	O	1.651547	0.400947	0.654050
O13	O	1.469078	-0.099066	0.238334
O14	O	1.969078	0.400934	0.738334
Cu15	Cu	1.314336	-0.117143	0.200157
Cu16	Cu	1.814336	0.382857	0.700157
Cu17	Cu	1.262229	0.117066	0.148803
Cu18	Cu	1.762229	0.617066	0.648803
O19	O	1.301587	-0.099047	0.073208
O20	O	1.801587	0.400953	0.573208
C21	C	1.088885	-0.000030	0.123794
C22	C	1.588885	0.499970	0.623794
C23	C	0.967815	-0.000025	0.098343
C24	C	1.467815	0.499975	0.598343
N25	N	1.350992	-0.281872	0.236279
N26	N	1.850992	0.218128	0.736279
C27	C	0.678653	-0.000055	0.341230
C28	C	1.178653	0.499945	0.841230
C29	C	0.792407	-0.000067	0.365146
C30	C	1.292407	0.499933	0.865146
C31	C	0.836264	-0.000056	0.298448
C32	C	1.336264	0.499944	0.798448
C33	C	0.766357	-0.000034	0.207829
C34	C	1.266357	0.499966	0.707829
C35	C	0.652594	-0.000031	0.183912
C36	C	1.152594	0.499969	0.683912
C37	C	0.810206	-0.000032	0.141130
C38	C	1.310206	0.499968	0.641130
C39	C	0.740298	-0.000010	0.050510
C40	C	1.240298	0.499990	0.550510
C41	C	0.626547	-0.000006	0.026598
C42	C	1.126547	0.499994	0.526598
C43	C	0.582689	-0.000017	0.093297
C44	C	1.082689	0.499983	0.593297
C45	C	0.923969	-0.000035	0.165046
C46	C	1.423969	0.499965	0.665046
C47	C	0.897910	-0.000011	0.007728
C48	C	1.397910	0.499989	0.507728
C49	C	0.784156	0.000001	-0.016188
C50	C	1.284156	0.500001	0.483812
C51	C	1.137524	-0.655884	0.025920
C52	C	1.637524	-0.155884	0.525920
C53	C	1.109768	-0.531231	-0.001422
C54	C	1.609768	-0.031231	0.498578
C55	C	1.170072	-0.468885	0.058001
C56	C	1.670072	0.031115	0.558001
C57	C	1.258136	-0.531205	0.144770
C58	C	1.758136	-0.031205	0.644770
C59	C	1.285889	-0.655871	0.172118
C60	C	1.785889	-0.155871	0.672118
C61	C	1.318437	-0.468871	0.204199
C62	C	1.818437	0.031129	0.704199
C63	C	1.406501	-0.531191	0.290968
C64	C	1.906501	-0.031191	0.790968
C65	C	1.434251	-0.655845	0.318311
C66	C	1.934251	-0.155845	0.818311
C67	C	1.373946	-0.718191	0.258889
C68	C	1.873946	-0.218191	0.758889
C69	C	1.290684	-0.344206	0.176851
C70	C	1.790684	0.155794	0.676851
C71	C	1.439049	-0.344192	0.323049
C72	C	1.939049	0.155808	0.823049
C73	C	1.466806	-0.468846	0.350391
C74	C	1.966806	0.031154	0.850391
C75	C	1.487679	-0.000044	0.225166
C76	C	1.987679	0.499956	0.725166
C77	C	1.608748	-0.000041	0.250615
C78	C	2.108748	0.499959	0.750615
C79	C	1.296301	-0.000051	0.328281
C80	C	1.796301	0.499949	0.828281
C81	C	1.294183	-0.000053	0.420103
C82	C	1.794183	0.499947	0.920103
N83	N	1.225581	0.281796	0.112690
N84	N	1.725581	0.781796	0.612690
C85	C	1.280263	-0.000023	0.020679
C86	C	1.780263	0.499977	0.520679
C87	C	1.282379	-0.000013	-0.071145
C88	C	1.782379	0.499987	0.428855
C89	C	1.388637	-0.000038	0.663487
C90	C	1.888637	0.499962	1.163487
C91	C	1.386635	-0.000028	0.749759
C92	C	1.886635	0.499972	1.249759
C93	C	1.187918	-0.000024	0.685461
C94	C	1.687918	0.499976	1.185461
C95	C	1.189918	-0.000026	0.599190
C96	C	1.689918	0.499974	1.099190
C97	C	1.290282	-0.000039	0.588208
C98	C	1.790282	0.499961	1.088208
C99	C	1.286280	-0.000027	0.760750
C100	C	1.786280	0.499973	1.260750
C101	C	1.284110	-0.000017	0.854289
C102	C	1.784110	0.499983	1.354289
C103	C	1.292453	-0.000047	0.494663
C104	C	1.792453	0.499953	0.994663
H105	H	0.980876	-0.000052	0.238829
H106	H	1.480876	0.499948	0.738829
H107	H	1.470359	-0.000046	0.654550
H108	H	1.970359	0.499954	1.154550
H109	H	1.109820	-0.000023	0.537890
H110	H	1.609820	0.499977	1.037890
H111	H	1.488153	-0.293431	0.371438
H112	H	1.988153	0.206569	0.871438
H113	H	0.490061	-0.000001	0.073827
H114	H	0.990061	0.499999	0.573827
H115	H	1.538509	-0.519602	0.421042
H116	H	2.038509	-0.019602	0.921042
H117	H	0.727222	0.000018	-0.089971
H118	H	1.227222	0.500018	0.410029
H119	H	1.218982	-0.293476	0.106203
H120	H	1.718982	0.206524	0.606203
H121	H	1.396548	-0.819694	0.281148
H122	H	1.896548	-0.319694	0.781148
H123	H	0.933618	-0.000007	-0.046583
H124	H	1.433618	0.499993	0.453417
H125	H	1.147469	-0.367387	0.035735
H126	H	1.647469	0.132613	0.535735
H127	H	1.466725	-0.000025	0.811050
H128	H	1.966725	0.499975	1.311050
H129	H	1.505949	-0.706586	0.388969
H130	H	2.005949	-0.206586	0.888969
H131	H	1.106205	-0.000016	0.694416
H132	H	1.606205	0.499984	1.194416
H133	H	0.928889	-0.000066	0.317926
H134	H	1.428889	0.499934	0.817926
H135	H	1.038066	-0.480495	-0.072068
H136	H	1.538066	0.019505	0.427932
H137	H	0.849319	-0.000089	0.438930
H138	H	1.349319	0.499911	0.938930
H139	H	0.642940	-0.000097	0.395534
H140	H	1.142940	0.499903	0.895534
H141	H	0.569633	-0.000001	-0.047187
H142	H	1.069633	0.499999	0.452813
H143	H	1.088427	-0.706654	-0.022452
H144	H	1.588427	-0.206654	0.477548
