data_functionalizedCrystal
_audit_creation_method	'MofGen! by Chris Wilmer'
_symmetry_space_group_name_H-M	'P1'
_symmetry_Int_Tables_number	1
_symmetry_cell_setting	triclinic
loop_
_symmetry_equiv_pos_as_xyz
  x,y,z
_cell_length_a	27.732048
_cell_length_b	27.732048
_cell_length_c	26.210047
_cell_angle_alpha	90.000479
_cell_angle_beta	89.996535
_cell_angle_gamma	97.357345
loop_
_atom_site_label
_atom_site_type_symbol
_atom_site_fract_x
_atom_site_fract_y
_atom_site_fract_z
O1	O	0.640931	-0.057510	-0.042369
O2	O	1.140931	0.442490	0.457631
O3	O	0.500138	-0.066256	-0.042385
O4	O	1.000138	0.433744	0.457615
O5	O	0.574907	0.008514	-0.042367
O6	O	1.074907	0.508514	0.457633
O7	O	0.566162	-0.132279	-0.042387
O8	O	1.066162	0.367721	0.457613
O9	O	0.574893	0.008502	0.042491
O10	O	1.074893	0.508502	0.542491
O11	O	0.500123	-0.066267	0.042473
O12	O	1.000123	0.433733	0.542473
O13	O	0.640917	-0.057522	0.042489
O14	O	1.140917	0.442478	0.542489
Cu15	Cu	0.570519	-0.061896	0.050229
Cu16	Cu	1.070519	0.438104	0.550229
Cu17	Cu	0.570536	-0.061882	-0.050125
Cu18	Cu	1.070536	0.438118	0.449875
O19	O	0.566147	-0.132291	0.042471
O20	O	1.066147	0.367709	0.542471
C21	C	0.482124	-0.066078	0.000042
C22	C	0.982124	0.433922	0.500042
C23	C	0.428469	-0.065525	0.000036
C24	C	0.928469	0.434475	0.500036
C25	C	0.089654	-0.106229	0.000053
C26	C	0.589654	0.393771	0.500053
C27	C	-0.112006	-0.104178	0.000057
C28	C	0.387994	0.395822	0.500057
O29	O	-0.143262	-0.141398	0.000074
O30	O	0.356738	0.358602	0.500074
N31	N	-0.131130	-0.059843	0.000063
N32	N	0.368870	0.440157	0.500063
C33	C	-0.099835	-0.016017	0.000071
C34	C	0.400165	0.483983	0.500071
O35	O	-0.120728	0.021740	0.000081
O36	O	0.379272	0.521740	0.500081
C37	C	0.101824	-0.018068	0.000069
C38	C	0.601824	0.481932	0.500069
C39	C	0.120944	-0.062407	0.000059
C40	C	0.620944	0.437593	0.500059
C41	C	0.108775	-0.150563	0.000043
C42	C	0.608775	0.349437	0.500043
C43	C	0.159187	-0.151076	0.000039
C44	C	0.659187	0.348924	0.500039
C45	C	0.190477	-0.107253	0.000045
C46	C	0.690477	0.392747	0.500045
C47	C	0.171356	-0.062919	0.000055
C48	C	0.671356	0.437081	0.500055
C49	C	0.133117	0.025757	0.000081
C50	C	0.633117	0.525757	0.500081
C51	C	0.183535	0.025240	0.000082
C52	C	0.683535	0.525240	0.500082
C53	C	0.202655	-0.019098	0.000071
C54	C	0.702655	0.480902	0.500071
C55	C	0.253059	-0.019609	0.000057
C56	C	0.753059	0.480391	0.500057
N57	N	0.272183	-0.063944	0.000051
N58	N	0.772183	0.436056	0.500051
C59	C	0.240892	-0.107766	0.000045
C60	C	0.740892	0.392234	0.500045
C61	C	-0.205709	-0.014943	0.000070
C62	C	0.294291	0.485057	0.500070
C63	C	-0.256124	-0.014430	0.000070
C64	C	0.243876	0.485570	0.500070
C65	C	-0.268291	-0.102591	0.000057
C66	C	0.231709	0.397409	0.500057
C67	C	-0.217876	-0.103104	0.000054
C68	C	0.282124	0.396896	0.500054
C69	C	-0.186585	-0.059278	0.000065
C70	C	0.313415	0.440722	0.500065
C71	C	0.346761	-0.108839	0.000036
C72	C	0.846761	0.391161	0.500036
C73	C	0.397178	-0.109347	0.000030
C74	C	0.897178	0.390653	0.500030
C75	C	0.409341	-0.021186	0.000045
C76	C	0.909341	0.478814	0.500045
C77	C	0.358929	-0.020678	0.000049
C78	C	0.858929	0.479322	0.500049
C79	C	0.327639	-0.064508	0.000046
C80	C	0.827639	0.435492	0.500046
O81	O	0.284343	0.017592	0.000046
O82	O	0.784343	0.517592	0.500046
O83	O	0.261794	-0.145518	0.000047
O84	O	0.761794	0.354482	0.500047
C85	C	0.039242	-0.105716	0.000057
C86	C	0.539242	0.394284	0.500057
C87	C	0.020120	-0.061382	0.000067
C88	C	0.520120	0.438618	0.500067
C89	C	0.051411	-0.017560	0.000073
C90	C	0.551411	0.482440	0.500073
C91	C	-0.030294	-0.060869	0.000066
C92	C	0.469706	0.439131	0.500066
C93	C	-0.061585	-0.104691	0.000060
C94	C	0.438415	0.395309	0.500060
C95	C	-0.042461	-0.149026	0.000054
C96	C	0.457539	0.350974	0.500054
C97	C	0.007951	-0.149539	0.000050
C98	C	0.507951	0.350461	0.500050
C99	C	0.032287	0.026775	0.000078
C100	C	0.532287	0.526775	0.500078
C101	C	-0.018125	0.027284	0.000082
C102	C	0.481875	0.527284	0.500082
C103	C	-0.049416	-0.016538	0.000076
C104	C	0.450584	0.483462	0.500076
C105	C	0.574716	0.026515	0.000064
C106	C	1.074716	0.526515	0.500064
C107	C	0.574164	0.080170	0.000068
C108	C	1.074164	0.580170	0.500068
C109	C	0.658931	-0.057699	0.000061
C110	C	1.158931	0.442301	0.500061
C111	C	0.712586	-0.058252	0.000064
C112	C	1.212586	0.441748	0.500064
C113	C	0.566338	-0.150292	0.000040
C114	C	1.066338	0.349708	0.500040
C115	C	0.566891	-0.203947	0.000032
C116	C	1.066891	0.296053	0.500032
N117	N	0.570510	-0.061905	0.120813
N118	N	1.070510	0.438095	0.620813
C119	C	0.614867	0.418985	0.000046
C120	C	1.114867	0.918985	0.500046
C121	C	0.612816	0.620645	0.000039
C122	C	1.112816	1.120645	0.500039
O123	O	0.650037	0.651900	0.000021
O124	O	1.150037	1.151900	0.500021
N125	N	0.568481	0.639768	0.000034
N126	N	1.068481	1.139768	0.500034
C127	C	0.524656	0.608474	0.000028
C128	C	1.024656	1.108474	0.500028
O129	O	0.486899	0.629367	0.000019
O130	O	0.986899	1.129367	0.500019
C131	C	0.526707	0.406815	0.000032
C132	C	1.026707	0.906815	0.500032
C133	C	0.571045	0.387694	0.000042
C134	C	1.071045	0.887694	0.500042
C135	C	0.659202	0.399864	0.000056
C136	C	1.159202	0.899864	0.500056
C137	C	0.659714	0.349452	0.000060
C138	C	1.159714	0.849452	0.500060
C139	C	0.615892	0.318161	0.000056
C140	C	1.115892	0.818161	0.500056
C141	C	0.571557	0.337282	0.000046
C142	C	1.071557	0.837282	0.500046
C143	C	0.482882	0.375521	0.000022
C144	C	0.982882	0.875521	0.500022
C145	C	0.483399	0.325104	0.000022
C146	C	0.983399	0.825104	0.500022
C147	C	0.527737	0.305983	0.000032
C148	C	1.027737	0.805983	0.500032
C149	C	0.528247	0.255580	0.000046
C150	C	1.028247	0.755580	0.500046
N151	N	0.572583	0.236456	0.000051
N152	N	1.072583	0.736456	0.500051
C153	C	0.616405	0.267747	0.000056
C154	C	1.116405	0.767747	0.500056
C155	C	0.523582	0.714348	0.000027
C156	C	1.023582	1.214348	0.500027
C157	C	0.523069	0.764762	0.000027
C158	C	1.023069	1.264762	0.500027
C159	C	0.611230	0.776930	0.000037
C160	C	1.111230	1.276930	0.500037
C161	C	0.611742	0.726514	0.000041
C162	C	1.111742	1.226514	0.500041
C163	C	0.567917	0.695224	0.000032
C164	C	1.067917	1.195224	0.500032
C165	C	0.617477	0.161878	0.000066
C166	C	1.117477	0.661878	0.500066
C167	C	0.617986	0.111461	0.000073
C168	C	1.117986	0.611461	0.500073
C169	C	0.529825	0.099298	0.000060
C170	C	1.029825	0.599298	0.500060
C171	C	0.529316	0.149710	0.000056
C172	C	1.029316	0.649710	0.500056
C173	C	0.573147	0.180999	0.000057
C174	C	1.073147	0.680999	0.500057
O175	O	0.491047	0.224296	0.000059
O176	O	0.991047	0.724296	0.500059
O177	O	0.654156	0.246844	0.000054
O178	O	1.154156	0.746844	0.500054
C179	C	0.614355	0.469397	0.000042
C180	C	1.114355	0.969397	0.500042
C181	C	0.570021	0.488518	0.000033
C182	C	1.070021	0.988518	0.500033
C183	C	0.526198	0.457228	0.000028
C184	C	1.026198	0.957228	0.500028
C185	C	0.569508	0.538933	0.000033
C186	C	1.069508	1.038933	0.500033
C187	C	0.613330	0.570223	0.000037
C188	C	1.113330	1.070223	0.500037
C189	C	0.657665	0.551100	0.000042
C190	C	1.157665	1.051100	0.500042
C191	C	0.658177	0.500688	0.000046
C192	C	1.158177	1.000688	0.500046
C193	C	0.481863	0.476351	0.000023
C194	C	0.981863	0.976351	0.500023
C195	C	0.481355	0.526764	0.000019
C196	C	0.981355	1.026764	0.500019
C197	C	0.525177	0.558054	0.000024
C198	C	1.025177	1.058054	0.500024
N199	N	0.570548	-0.061868	-0.120709
N200	N	1.070548	0.438132	0.379291
C201	C	0.603640	-0.028781	0.473336
C202	C	1.103640	0.471219	0.973336
C203	C	0.603651	-0.028774	0.686994
C204	C	1.103651	0.471226	1.186994
O205	O	0.631801	-0.000614	0.714623
O206	O	1.131801	0.499386	1.214623
N207	N	0.570538	-0.061871	0.713707
N208	N	1.070538	0.438129	1.213707
C209	C	0.537419	-0.094970	0.687003
C210	C	1.037419	0.405030	1.187003
O211	O	0.509251	-0.123117	0.714626
O212	O	1.009251	0.376883	1.214626
C213	C	0.537406	-0.094974	0.473345
C214	C	1.037406	0.405026	0.973345
C215	C	0.570524	-0.061878	0.446635
C216	C	1.070524	0.438122	0.946635
C217	C	0.636755	0.004312	0.446625
C218	C	1.136755	0.504312	0.946625
C219	C	0.636754	0.004308	0.393214
C220	C	1.136754	0.504308	0.893214
C221	C	0.603638	-0.028789	0.366513
C222	C	1.103638	0.471211	0.866513
C223	C	0.570523	-0.061882	0.393223
C224	C	1.070523	0.438118	0.893223
C225	C	0.504284	-0.128070	0.446641
C226	C	1.004284	0.371930	0.946641
C227	C	0.504283	-0.128067	0.393223
C228	C	1.004283	0.371933	0.893223
C229	C	0.537401	-0.094971	0.366513
C230	C	1.037401	0.405029	0.866513
C231	C	0.537405	-0.094983	0.313111
C232	C	1.037405	0.405017	0.813111
N233	N	0.570518	-0.061886	0.286397
N234	N	1.070518	0.438114	0.786397
C235	C	0.603634	-0.028789	0.313098
C236	C	1.103634	0.471211	0.813098
C237	C	0.537428	-0.094966	0.799176
C238	C	1.037428	0.405034	1.299176
C239	C	0.537432	-0.094965	0.852590
C240	C	1.037432	0.405035	1.352590
C241	C	0.603664	-0.028769	0.852578
C242	C	1.103664	0.471231	1.352578
C243	C	0.603662	-0.028773	0.799163
C244	C	1.103662	0.471227	1.299163
C245	C	0.570541	-0.061869	0.772463
C246	C	1.070541	0.438131	1.272463
C247	C	0.603629	-0.028800	0.200931
C248	C	1.103629	0.471200	0.700931
C249	C	0.603626	-0.028808	0.147514
C250	C	1.103626	0.471192	0.647514
C251	C	0.537393	-0.095002	0.147531
C252	C	1.037393	0.404998	0.647531
C253	C	0.537397	-0.094996	0.200943
C254	C	1.037397	0.405004	0.700943
C255	C	0.570517	-0.061891	0.227641
C256	C	1.070517	0.438109	0.727641
O257	O	0.509267	-0.123125	0.285449
O258	O	1.009267	0.376875	0.785449
O259	O	0.631790	-0.000639	0.285466
O260	O	1.131790	0.499361	0.785466
C261	C	0.603641	-0.028777	0.526747
C262	C	1.103641	0.471223	1.026747
C263	C	0.570527	-0.061871	0.553457
C264	C	1.070527	0.438129	1.053457
C265	C	0.537410	-0.094968	0.526756
C266	C	1.037410	0.405032	1.026756
C267	C	0.570530	-0.061870	0.606872
C268	C	1.070530	0.438130	1.106872
C269	C	0.603646	-0.028773	0.633573
C270	C	1.103646	0.471227	1.133573
C271	C	0.636759	0.004323	0.606859
C272	C	1.136759	0.504323	1.106859
C273	C	0.636758	0.004320	0.553448
C274	C	1.136758	0.504320	1.053448
C275	C	0.504298	-0.128064	0.553470
C276	C	1.004298	0.371936	1.053470
C277	C	0.504302	-0.128058	0.606881
C278	C	1.004302	0.371942	1.106881
C279	C	0.537418	-0.094961	0.633582
C280	C	1.037418	0.405039	1.133582
H281	H	-0.202311	-0.139207	0.000049
H282	H	0.297689	0.360793	0.500049
O283	O	0.635848	0.003425	0.773298
O284	O	1.135848	0.503425	1.273298
C285	C	0.665085	0.032625	0.808325
C286	C	1.165085	0.532625	1.308325
H287	H	0.645273	0.033031	0.846403
H288	H	1.145273	0.533031	1.346403
H289	H	0.672750	0.071282	0.792896
H290	H	1.172750	0.571282	1.292896
H291	H	0.700874	0.017176	0.814001
H292	H	1.200874	0.517176	1.314001
H293	H	0.477334	-0.155013	0.628625
H294	H	0.977334	0.344987	1.128625
O295	O	0.668973	0.036495	0.632723
O296	O	1.168973	0.536495	1.132723
C297	C	0.698194	0.065720	0.597699
C298	C	1.198194	0.565720	1.097699
H299	H	0.698599	0.045906	0.559623
H300	H	1.198599	0.545906	1.059623
H301	H	0.736849	0.073365	0.613136
H302	H	1.236849	0.573365	1.113136
H303	H	0.682765	0.101519	0.592018
H304	H	1.182765	0.601519	1.092018
O305	O	0.439248	0.446028	0.000045
O306	O	0.939248	0.946028	0.500045
C307	C	0.400012	0.473724	0.000026
C308	C	0.900012	0.973724	0.500026
H309	H	0.412573	0.511446	0.016087
H310	H	0.912573	1.011446	0.516087
H311	H	0.369326	0.454909	0.024664
H312	H	0.869326	0.954909	0.524664
H313	H	0.386408	0.477212	-0.040685
H314	H	0.886408	0.977212	0.459315
H315	H	0.343360	0.015426	0.000050
H316	H	0.843360	0.515426	0.500050
O317	O	0.439810	0.021336	0.000075
O318	O	0.939810	0.521336	0.500075
C319	C	0.488406	0.011371	0.000060
C320	C	0.988406	0.511371	0.500060
H321	H	0.490055	-0.026587	0.016115
H322	H	0.990055	0.473413	0.516115
H323	H	0.511453	0.039318	0.024705
H324	H	1.011453	0.539318	0.524705
H325	H	0.503004	0.013323	-0.040650
H326	H	1.003004	0.513323	0.459350
O327	O	0.177819	-0.194113	0.000093
O328	O	0.677819	0.305887	0.500093
C329	C	0.206608	-0.197065	0.044044
C330	C	0.706608	0.302935	0.544044
H331	H	0.219444	-0.158875	0.058707
H332	H	0.719444	0.341125	0.558707
H333	H	0.239483	-0.216080	0.034149
H334	H	0.739483	0.283920	0.534149
H335	H	0.184175	-0.218629	0.074814
H336	H	0.684175	0.281371	0.574814
O337	O	0.472065	-0.160237	0.472500
O338	O	0.972065	0.339763	0.972500
C339	C	0.442847	-0.189450	0.437469
C340	C	0.942847	0.310550	0.937469
H341	H	0.442456	-0.169631	0.399395
H342	H	0.942456	0.330369	0.899395
H343	H	0.404187	-0.197088	0.452899
H344	H	0.904187	0.302912	0.952899
H345	H	0.458268	-0.225254	0.431785
H346	H	0.958268	0.274746	0.931785
O347	O	0.415810	-0.152388	0.000085
O348	O	0.915810	0.347612	0.500085
C349	C	0.444600	-0.155338	0.044036
C350	C	0.944600	0.344662	0.544036
H351	H	0.457436	-0.117146	0.058697
H352	H	0.957436	0.382854	0.558697
H353	H	0.477476	-0.174352	0.034142
H354	H	0.977476	0.325648	0.534142
H355	H	0.422169	-0.176900	0.074808
H356	H	0.922169	0.323100	0.574808
H357	H	0.445246	0.542327	0.000016
H358	H	0.945246	1.042327	0.500016
O359	O	0.213861	0.067857	0.000066
O360	O	0.713861	0.567857	0.500066
C361	C	0.186168	0.107096	0.000088
C362	C	0.686168	0.607096	0.500088
H363	H	0.148448	0.094539	-0.015976
H364	H	0.648448	0.594539	0.484024
H365	H	0.204988	0.137782	-0.024544
H366	H	0.704988	0.637782	0.475456
H367	H	0.182677	0.120698	0.040802
H368	H	0.682677	0.620698	0.540802
O369	O	0.026441	-0.192652	0.000066
O370	O	0.526441	0.307348	0.500066
C371	C	-0.011996	-0.231215	0.000049
C372	C	0.488004	0.268785	0.500049
H373	H	-0.046147	-0.217922	0.016117
H374	H	0.453853	0.282078	0.516117
H375	H	-0.001693	-0.262198	0.024681
H376	H	0.498307	0.237802	0.524681
H377	H	-0.019228	-0.244708	-0.040664
H378	H	0.480772	0.255292	0.459336
H379	H	0.487892	0.688875	0.000020
H380	H	0.987892	1.188875	0.500020
H381	H	0.510434	-0.121950	0.222691
H382	H	1.010434	0.378050	0.722691
H383	H	0.083302	-0.186251	0.000039
H384	H	0.583302	0.313749	0.500039
O385	O	-0.072911	-0.191564	-0.000019
O386	O	0.427089	0.308436	0.499981
C387	C	-0.102428	-0.193902	-0.043973
C388	C	0.397572	0.306098	0.456027
H389	H	-0.104690	-0.155551	-0.058620
H390	H	0.395310	0.344449	0.441380
H391	H	-0.140457	-0.212192	-0.034088
H392	H	0.359543	0.287808	0.465912
H393	H	-0.086005	-0.215853	-0.074751
H394	H	0.413995	0.284147	0.425249
H395	H	0.477330	-0.155015	0.531734
H396	H	0.977330	0.344985	1.031734
H397	H	0.321291	-0.144530	0.000036
H398	H	0.821291	0.355470	0.500036
O399	O	0.653755	0.807399	0.000015
O400	O	1.153755	1.307399	0.500015
C401	C	0.643789	0.855994	0.000025
C402	C	1.143789	1.355994	0.500025
H403	H	0.605835	0.857643	-0.016038
H404	H	1.105835	1.357643	0.483962
H405	H	0.671742	0.879042	-0.024616
H406	H	1.171742	1.379042	0.475384
H407	H	0.645731	0.870592	0.040734
H408	H	1.145731	1.370592	0.540734
H409	H	0.693347	0.576585	0.000048
H410	H	1.193347	1.076585	0.500048
O411	O	-0.298671	-0.145174	-0.000036
O412	O	0.201329	0.354826	0.499964
C413	C	-0.290048	-0.172123	-0.043979
C414	C	0.209952	0.327877	0.456021
H415	H	-0.272625	-0.146474	-0.074697
H416	H	0.227375	0.353526	0.425303
H417	H	-0.325965	-0.191776	-0.058729
H418	H	0.174035	0.308224	0.441271
H419	H	-0.264584	-0.199909	-0.034043
H420	H	0.235416	0.300091	0.465957
O421	O	0.635704	0.003417	0.121545
O422	O	1.135704	0.503417	0.621545
C423	C	0.609993	0.033062	0.090704
C424	C	1.109993	0.533062	0.590704
H425	H	0.572052	0.013499	0.082672
H426	H	1.072052	0.513499	0.582672
H427	H	0.630225	0.040934	0.053155
H428	H	1.130225	0.540934	0.553155
H429	H	0.606911	0.068724	0.111345
H430	H	1.106911	0.568724	0.611345
H431	H	-0.033688	0.063392	0.000086
H432	H	0.466312	0.563392	0.500086
H433	H	-0.180236	0.020747	0.000079
H434	H	0.319764	0.520747	0.500079
O435	O	-0.274614	0.028683	0.000097
O436	O	0.225386	0.528683	0.500097
C437	C	-0.236179	0.067248	0.000090
C438	C	0.263821	0.567248	0.500090
H439	H	-0.202029	0.053953	0.016153
H440	H	0.297971	0.553953	0.516153
H441	H	-0.246488	0.098223	0.024732
H442	H	0.253512	0.598223	0.524732
H443	H	-0.228942	0.080752	-0.040618
H444	H	0.271058	0.580752	0.459382
O445	O	0.062611	0.069391	0.000060
O446	O	0.562611	0.569391	0.500060
C447	C	0.034915	0.108627	0.000079
C448	C	0.534915	0.608627	0.500079
H449	H	-0.002806	0.096065	-0.015983
H450	H	0.497194	0.596065	0.484017
H451	H	0.053731	0.139312	-0.024556
H452	H	0.553731	0.639312	0.475444
H453	H	0.031423	0.122231	0.040792
H454	H	0.531423	0.622231	0.540792
H455	H	0.654093	0.095896	0.000082
H456	H	1.154093	0.595896	0.500082
O457	O	0.472176	-0.160239	0.367232
O458	O	0.972176	0.339761	0.867232
C459	C	0.497834	-0.189896	0.336344
C460	C	0.997834	0.310104	0.836344
H461	H	0.535802	-0.170385	0.328335
H462	H	1.035802	0.329615	0.828335
H463	H	0.477598	-0.197686	0.298787
H464	H	0.977598	0.302314	0.798787
H465	H	0.500849	-0.225598	0.356933
H466	H	1.000849	0.274402	0.856933
O467	O	0.505218	-0.127136	0.878454
O468	O	1.005218	0.372864	1.378454
C469	C	0.475998	-0.156353	0.843427
C470	C	0.975998	0.343647	1.343427
H471	H	0.475603	-0.136536	0.805352
H472	H	0.975603	0.363464	1.305352
H473	H	0.437340	-0.163993	0.858860
H474	H	0.937340	0.336007	1.358860
H475	H	0.491421	-0.192156	0.837743
H476	H	0.991421	0.307844	1.337743
H477	H	0.510432	-0.121951	0.125783
H478	H	1.010432	0.378049	0.625783
H479	H	0.510456	-0.121918	0.777440
H480	H	1.010456	0.378082	1.277440
H481	H	0.653168	0.187348	0.000065
H482	H	1.153168	0.687348	0.500065
O483	O	0.701235	0.482094	0.000142
O484	O	1.201235	0.982094	0.500142
C485	C	0.704164	0.453288	0.044085
C486	C	1.204164	0.953288	0.544085
H487	H	0.678989	0.465023	0.074801
H488	H	1.178989	0.965023	0.574801
H489	H	0.743154	0.458104	0.058839
H490	H	1.243154	0.958104	0.558839
H491	H	0.692718	0.413444	0.034148
H492	H	1.192718	0.913444	0.534148
O493	O	0.702797	0.330906	-0.000026
O494	O	1.202797	0.830906	0.499974
C495	C	0.729495	0.346943	-0.043967
C496	C	1.229495	0.846943	0.456033
H497	H	0.703563	0.357235	-0.074686
H498	H	1.203563	0.857235	0.425314
H499	H	0.749836	0.316554	-0.058717
H500	H	1.249836	0.816554	0.441283
H501	H	0.756675	0.380005	-0.034029
H502	H	1.256675	0.880005	0.465971
O503	O	0.114530	0.068816	0.000003
O504	O	0.614530	0.568816	0.500003
C505	C	0.085726	0.071764	-0.043937
C506	C	0.585726	0.571764	0.456063
H507	H	0.097459	0.046599	-0.074662
H508	H	0.597459	0.546599	0.425338
H509	H	0.090546	0.110760	-0.058678
H510	H	0.590546	0.610760	0.441322
H511	H	0.045881	0.060318	-0.034001
H512	H	0.545881	0.560318	0.465999
H513	H	0.630598	-0.001842	0.222662
H514	H	1.130598	0.498158	0.722662
H515	H	0.647846	0.710950	0.000048
H516	H	1.147846	1.210950	0.500048
O517	O	0.668873	0.036587	0.367365
O518	O	1.168873	0.536587	0.867365
C519	C	0.661300	0.084335	0.380536
C520	C	1.161300	0.584335	0.880536
H521	H	0.622575	0.084218	0.395175
H522	H	1.122575	0.584218	0.895175
H523	H	0.667059	0.108721	0.345476
H524	H	1.167059	0.608721	0.845476
H525	H	0.688140	0.098678	0.411607
H526	H	1.188140	0.598678	0.911607
O527	O	0.701762	0.430274	-0.000029
O528	O	1.201762	0.930274	0.499971
C529	C	0.704116	0.459812	-0.043970
C530	C	1.204116	0.959812	0.456030
H531	H	0.679260	0.441173	-0.074693
H532	H	1.179260	0.941173	0.425307
H533	H	0.743100	0.465757	-0.058714
H534	H	1.243100	0.965757	0.441286
H535	H	0.691892	0.496389	-0.034035
H536	H	1.191892	0.996389	0.465965
O537	O	0.479956	0.783252	0.000001
O538	O	0.979956	1.283252	0.500001
C539	C	0.441391	0.744818	0.000009
C540	C	0.941391	1.244818	0.500009
H541	H	0.454686	0.710667	-0.016054
H542	H	0.954686	1.210667	0.483946
H543	H	0.410417	0.755124	-0.024633
H544	H	0.910417	1.255124	0.475367
H545	H	0.427885	0.737584	0.040717
H546	H	0.927885	1.237584	0.540717
H547	H	0.446777	0.391080	0.000011
H548	H	0.946777	0.891080	0.500011
H549	H	0.447710	0.299629	0.000014
H550	H	0.947710	0.799629	0.500014
O551	O	0.668829	0.036553	0.527487
O552	O	1.168829	0.536553	1.027487
C553	C	0.643110	0.066201	0.496657
C554	C	1.143110	0.566201	0.996657
H555	H	0.605173	0.046630	0.488616
H556	H	1.105173	0.546630	0.988616
H557	H	0.663343	0.074092	0.459111
H558	H	1.163343	0.574092	0.959111
H559	H	0.640016	0.101853	0.517311
H560	H	1.140016	0.601853	1.017311
H561	H	0.663722	0.031266	0.468360
H562	H	1.163722	0.531266	0.968360
O563	O	0.486205	0.168206	0.000026
O564	O	0.986205	0.668206	0.500026
C565	C	0.447637	0.129775	0.000038
C566	C	0.947637	0.629775	0.500038
H567	H	0.460930	0.095619	-0.016017
H568	H	0.960930	0.595619	0.483983
H569	H	0.416665	0.140080	-0.024609
H570	H	0.916665	0.640080	0.475391
H571	H	0.434128	0.122549	0.040747
H572	H	0.934128	0.622549	0.540747
H573	H	0.630629	-0.001821	0.874327
H574	H	1.130629	0.498179	1.374327
H575	H	0.494146	0.073812	0.000058
H576	H	0.994146	0.573812	0.500058
