data_functionalizedCrystal
_audit_creation_method	'MofGen! by Chris Wilmer'
_symmetry_space_group_name_H-M	'P1'
_symmetry_Int_Tables_number	1
_symmetry_cell_setting	triclinic
loop_
_symmetry_equiv_pos_as_xyz
  x,y,z
_cell_length_a	19.288840
_cell_length_b	12.811415
_cell_length_c	17.766277
_cell_angle_alpha	84.562803
_cell_angle_beta	89.983415
_cell_angle_gamma	83.586086
loop_
_atom_site_label
_atom_site_type_symbol
_atom_site_fract_x
_atom_site_fract_y
_atom_site_fract_z
O1	O	0.922014	0.130809	-0.071648
O2	O	0.719839	0.148499	-0.072829
O3	O	0.826012	-0.013164	-0.061804
O4	O	0.815841	0.292472	-0.082672
O5	O	0.825993	-0.013172	0.063385
O6	O	0.719820	0.148491	0.052360
O7	O	0.921995	0.130801	0.053541
Cu8	Cu	0.820906	0.139645	0.064382
Cu9	Cu	0.820928	0.139655	-0.083669
O10	O	0.815822	0.292463	0.042517
C11	C	0.693950	0.147930	-0.010192
C12	C	0.616837	0.146235	-0.010067
C13	C	0.580640	0.145424	-0.078254
C14	C	0.508185	0.143820	-0.078153
C15	C	0.471932	0.143004	-0.009861
C16	C	0.508137	0.143820	0.058335
C17	C	0.580590	0.145435	0.058232
C18	C	0.362278	0.078964	0.046780
C19	C	0.289827	0.077342	0.046881
C20	C	0.248463	0.138026	-0.009540
C21	C	0.279560	0.200319	-0.066074
C22	C	0.352013	0.201934	-0.066177
C23	C	0.393369	0.141253	-0.009741
C24	C	0.133702	0.135477	-0.077623
C25	C	0.061245	0.133879	-0.077520
C26	C	0.061200	0.133869	0.058970
C27	C	0.133655	0.135478	0.058865
C28	C	0.169902	0.136277	-0.009434
C29	C	0.825432	-0.052269	0.003459
C30	C	0.823724	-0.168780	0.011410
C31	C	0.820523	-0.387694	-0.110147
C32	C	0.818918	-0.497166	-0.102680
C33	C	0.818905	-0.497196	0.033810
C34	C	0.820510	-0.387724	0.026343
C35	C	0.821319	-0.332977	-0.045638
C36	C	0.822929	-0.223505	-0.053104
C37	C	0.822911	-0.223536	0.083385
C38	C	0.821306	-0.333007	0.090852
C39	C	0.947884	0.131369	-0.009097
C40	C	1.024997	0.133065	-0.009227
C41	C	0.816402	0.331569	-0.022748
C42	C	0.818110	0.448079	-0.030704
N43	N	0.820895	0.139637	0.168512
N44	N	0.820944	0.139654	-0.187799
C45	C	0.867924	0.068088	0.212779
C46	C	0.867928	0.068083	0.291581
C47	C	0.820910	0.139646	0.326112
C48	C	0.773872	0.211201	0.281836
C49	C	0.773865	0.211196	0.203036
C50	C	0.812086	0.235280	0.444421
C51	C	0.812098	0.235286	0.523220
C52	C	0.820929	0.139658	0.569158
C53	C	0.829761	0.044021	0.536288
C54	C	0.829754	0.044017	0.457488
C55	C	0.820912	0.139658	0.411557
C56	C	0.867964	0.068098	0.698871
C57	C	0.867963	0.068092	0.777674
C58	C	0.773911	0.211218	0.767928
C59	C	0.773909	0.211215	0.689126
C60	C	0.820939	0.139656	0.654602
H61	H	0.245882	0.249738	-0.112016
O62	O	0.823779	-0.164524	0.152970
H63	H	0.776189	-0.175961	0.186491
H64	H	0.163215	0.136139	-0.133237
H65	H	0.820644	-0.377596	0.149456
H66	H	0.264515	0.026614	0.092911
H67	H	0.836951	-0.033848	0.573690
O68	O	0.723190	0.288391	0.641371
H69	H	0.732278	0.370181	0.650892
H70	H	0.478707	0.143162	-0.133681
O71	O	0.823795	-0.164447	-0.130736
H72	H	0.822961	-0.220890	-0.174337
H73	H	0.804911	0.313159	0.549976
H74	H	0.906217	0.009818	0.184672
H75	H	0.031774	0.133226	-0.133049
O76	O	0.839093	-0.059136	0.422039
H77	H	0.837543	-0.043070	0.359528
O78	O	0.385606	0.269065	-0.127137
H79	H	0.364682	0.353053	-0.125173
H80	H	0.906226	0.009817	0.327629
O81	O	0.821396	-0.328634	-0.187777
H82	H	0.820569	-0.385075	-0.231381
H83	H	0.804884	0.313157	0.407024
O84	O	0.469036	0.142943	0.131992
H85	H	0.506382	0.143787	0.179391
H86	H	0.818267	-0.541712	-0.155209
H87	H	0.031683	0.133211	0.114575
H88	H	0.906257	0.009827	0.670761
H89	H	0.163127	0.136130	0.114390
H90	H	0.906258	0.009822	0.813718
O91	O	0.723198	0.288410	0.805159
H92	H	0.731106	0.276398	0.867391
O93	O	0.818046	-0.556254	0.111442
H94	H	0.816804	-0.641570	0.105793
O95	O	0.723162	0.288394	0.319074
H96	H	0.731073	0.276386	0.381305
O97	O	0.406892	0.013501	0.107635
H98	H	0.373100	-0.030099	0.146953
H99	H	0.735568	0.269461	0.166993
O100	O	0.619632	0.146323	0.131781
H101	H	0.611712	0.074493	0.169414
O102	O	0.619735	0.146300	-0.151915
H103	H	0.582387	0.145477	-0.199314
