data_functionalizedCrystal
_audit_creation_method	'MofGen! by Chris Wilmer'
_symmetry_space_group_name_H-M	'P1'
_symmetry_Int_Tables_number	1
_symmetry_cell_setting	triclinic
loop_
_symmetry_equiv_pos_as_xyz
  x,y,z
_cell_length_a	13.032831
_cell_length_b	16.625546
_cell_length_c	13.033454
_cell_angle_alpha	82.779398
_cell_angle_beta	89.091650
_cell_angle_gamma	82.826778
loop_
_atom_site_label
_atom_site_type_symbol
_atom_site_fract_x
_atom_site_fract_y
_atom_site_fract_z
Zn1	Zn	1.498515	-0.391470	-0.780836
Zn2	Zn	1.831848	-0.058137	-0.447503
Zn3	Zn	2.165181	0.275197	-0.114169
Zn4	Zn	1.520227	-0.545315	-0.608830
Zn5	Zn	1.853560	-0.211982	-0.275497
Zn6	Zn	2.186894	0.121351	0.057837
Zn7	Zn	1.348355	-0.395768	-0.587066
Zn8	Zn	1.681688	-0.062435	-0.253732
Zn9	Zn	2.015022	0.270898	0.079601
Zn10	Zn	1.326492	-0.511528	-0.758967
Zn11	Zn	1.659825	-0.178194	-0.425634
Zn12	Zn	1.993159	0.155139	-0.092300
O13	O	1.423397	-0.461020	-0.683925
O14	O	1.756731	-0.127687	-0.350591
O15	O	2.090064	0.205646	-0.017258
O16	O	1.645316	-0.424219	-0.776280
O17	O	1.978649	-0.090886	-0.442946
O18	O	2.311983	0.242447	-0.109613
O19	O	1.515664	-0.541417	-0.462016
O20	O	1.848998	-0.208083	-0.128683
O21	O	2.182331	0.125250	0.204650
O22	O	1.368337	-0.282368	-0.612814
O23	O	1.701670	0.050966	-0.279480
O24	O	2.035004	0.384299	0.053853
O25	O	1.661268	-0.537249	-0.649907
O26	O	1.994601	-0.203916	-0.316574
O27	O	2.327935	0.129418	0.016759
O28	O	1.478659	-0.279210	-0.755176
O29	O	1.811992	0.054124	-0.421842
O30	O	2.145325	0.387457	-0.088509
O31	O	1.389391	-0.431545	-0.446026
O32	O	1.722724	-0.098212	-0.112693
O33	O	2.056057	0.235122	0.220640
O34	O	1.201534	-0.398783	-0.591608
O35	O	1.534867	-0.065449	-0.258275
O36	O	1.868200	0.267884	0.075058
O37	O	1.331075	-0.479663	-0.905794
O38	O	1.664408	-0.146329	-0.572461
O39	O	1.997741	0.187004	-0.239128
O40	O	1.185471	-0.483831	-0.717903
O41	O	1.518804	-0.150497	-0.384570
O42	O	1.852138	0.182836	-0.051237
O43	O	1.457459	-0.391457	-0.921861
O44	O	1.790792	-0.058124	-0.588528
O45	O	2.124126	0.275210	-0.255195
O46	O	1.494465	-0.653664	-0.628702
O47	O	1.827798	-0.320331	-0.295369
O48	O	2.161131	0.013003	0.037965
O49	O	1.352128	-0.628840	-0.739007
O50	O	1.685462	-0.295507	-0.405674
O51	O	2.018795	0.037826	-0.072341
C52	C	1.156185	-0.438107	-0.650022
C53	C	1.489518	-0.104774	-0.316688
C54	C	1.822852	0.228560	0.016645
C55	C	1.041868	-0.428321	-0.635542
C56	C	1.375201	-0.094988	-0.302209
C57	C	1.708534	0.238345	0.031125
C58	C	0.982993	-0.466128	-0.691482
C59	C	1.316326	-0.132794	-0.358148
C60	C	1.649660	0.200539	-0.024815
C61	C	0.864840	-0.456015	-0.676518
C62	C	1.198173	-0.122681	-0.343184
C63	C	1.531506	0.210652	-0.009851
C64	C	1.423305	-0.670508	-0.683869
C65	C	1.756639	-0.337174	-0.350536
C66	C	2.089972	-0.003841	-0.017203
C67	C	1.423356	-0.760131	-0.683892
C68	C	1.756689	-0.426798	-0.350559
C69	C	2.090022	-0.093465	-0.017225
C70	C	1.423522	-1.088311	-0.684022
C71	C	1.756855	-0.754977	-0.350688
C72	C	2.090188	-0.421644	-0.017355
C73	C	1.423472	-0.997001	-0.683988
C74	C	1.756805	-0.663667	-0.350655
C75	C	2.090138	-0.330334	-0.017321
C76	C	1.423438	-0.924224	-0.683956
C77	C	1.756771	-0.590891	-0.350623
C78	C	2.090105	-0.257557	-0.017290
C79	C	1.423390	-0.832908	-0.683924
C80	C	1.756723	-0.499575	-0.350590
C81	C	2.090056	-0.166241	-0.017257
C82	C	1.691653	-0.484024	-0.717961
C83	C	2.024986	-0.150690	-0.384627
C84	C	2.358319	0.182643	-0.051294
C85	C	1.805967	-0.493826	-0.732465
C86	C	2.139300	-0.160493	-0.399131
C87	C	2.472634	0.172840	-0.065798
C88	C	1.389406	-0.431312	-0.952190
C89	C	1.722740	-0.097978	-0.618856
C90	C	2.056073	0.235355	-0.285523
C91	C	1.374921	-0.418651	-1.066508
C92	C	1.708255	-0.085318	-0.733175
C93	C	2.041588	0.248015	-0.399842
C94	C	1.423515	-0.250715	-0.684006
C95	C	1.756848	0.082618	-0.350673
C96	C	2.090181	0.415952	-0.017340
C97	C	1.423565	-0.161095	-0.684041
C98	C	1.756898	0.172238	-0.350708
C99	C	2.090231	0.505571	-0.017374
C100	C	1.430941	-0.467369	-1.125387
C101	C	1.764274	-0.134036	-0.792053
C102	C	2.097608	0.199297	-0.458720
C103	C	1.415972	-0.454286	-1.243541
C104	C	1.749305	-0.120952	-0.910208
C105	C	2.082638	0.212381	-0.576875
C106	C	1.457315	-0.490560	-0.416711
C107	C	1.790648	-0.157227	-0.083377
C108	C	2.123982	0.176106	0.249956
C109	C	1.471999	-0.503010	-0.302418
C110	C	1.805333	-0.169677	0.030915
C111	C	2.138666	0.163656	0.364249
H112	H	1.004799	-0.388463	-0.576577
H113	H	1.338132	-0.055130	-0.243243
H114	H	1.671466	0.278203	0.090090
Cl115	Cl	1.522111	-0.546717	-1.068172
Cl116	Cl	1.855445	-0.213383	-0.734838
Cl117	Cl	2.188778	0.119950	-0.401505
Cl118	Cl	1.324812	-0.374925	-1.300754
Cl119	Cl	1.658145	-0.041591	-0.967421
Cl120	Cl	1.991479	0.291742	-0.634087
Cl121	Cl	0.863178	-0.555349	-0.823534
Cl122	Cl	1.196512	-0.222016	-0.490201
Cl123	Cl	1.529845	0.111317	-0.156867
Cl124	Cl	1.563168	-0.582367	-1.245209
Cl125	Cl	1.896501	-0.249033	-0.911876
Cl126	Cl	2.229834	0.084300	-0.578542
H127	H	0.827776	-0.416154	-0.617548
H128	H	1.161109	-0.082821	-0.284215
H129	H	1.494443	0.250513	0.049119
H130	H	1.315883	-0.367253	-1.103574
H131	H	1.649216	-0.033920	-0.770241
H132	H	1.982549	0.299414	-0.436908
H133	H	1.020061	-0.505979	-0.750455
H134	H	1.353394	-0.172645	-0.417122
H135	H	1.686727	0.160688	-0.083788
