data_functionalizedCrystal
_audit_creation_method	'MofGen! by Chris Wilmer'
_symmetry_space_group_name_H-M	'P1'
_symmetry_Int_Tables_number	1
_symmetry_cell_setting	triclinic
loop_
_symmetry_equiv_pos_as_xyz
  x,y,z
_cell_length_a	21.295420
_cell_length_b	21.295417
_cell_length_c	21.295411
_cell_angle_alpha	89.978356
_cell_angle_beta	89.975408
_cell_angle_gamma	90.026289
loop_
_atom_site_label
_atom_site_type_symbol
_atom_site_fract_x
_atom_site_fract_y
_atom_site_fract_z
Zn1	Zn	0.962355	-0.250752	-0.355912
Zn2	Zn	1.212355	-0.000752	-0.105912
Zn3	Zn	1.462355	0.249248	0.144088
Zn4	Zn	1.712355	0.499248	0.394088
Zn5	Zn	0.962258	-0.356004	-0.250637
Zn6	Zn	1.212258	-0.106004	-0.000637
Zn7	Zn	1.462258	0.143996	0.249363
Zn8	Zn	1.712258	0.393996	0.499363
Zn9	Zn	0.857079	-0.250744	-0.250657
Zn10	Zn	1.107079	-0.000744	-0.000657
Zn11	Zn	1.357079	0.249256	0.249343
Zn12	Zn	1.607079	0.499256	0.499343
Zn13	Zn	0.857048	-0.355979	-0.355869
Zn14	Zn	1.107048	-0.105979	-0.105869
Zn15	Zn	1.357048	0.144021	0.144131
Zn16	Zn	1.607048	0.394021	0.394131
O17	O	0.909685	-0.303370	-0.303269
O18	O	1.159685	-0.053370	-0.053269
O19	O	1.409685	0.196630	0.196731
O20	O	1.659685	0.446630	0.446731
O21	O	1.050432	-0.264727	-0.341957
O22	O	1.300432	-0.014727	-0.091957
O23	O	1.550432	0.235273	0.158043
O24	O	1.800432	0.485273	0.408043
O25	O	0.948277	-0.342048	-0.162550
O26	O	1.198277	-0.092048	0.087450
O27	O	1.448277	0.157952	0.337450
O28	O	1.698277	0.407952	0.587450
O29	O	0.871097	-0.162656	-0.264645
O30	O	1.121097	0.087344	-0.014645
O31	O	1.371097	0.337344	0.235355
O32	O	1.621097	0.587344	0.485355
O33	O	1.050360	-0.342055	-0.264612
O34	O	1.300360	-0.092055	-0.014612
O35	O	1.550360	0.157945	0.235388
O36	O	1.800360	0.407945	0.485388
O37	O	0.948444	-0.162661	-0.341976
O38	O	1.198444	0.087339	-0.091976
O39	O	1.448444	0.337339	0.158024
O40	O	1.698444	0.587339	0.408024
O41	O	0.871003	-0.264714	-0.162565
O42	O	1.121003	-0.014714	0.087435
O43	O	1.371003	0.235286	0.337435
O44	O	1.621003	0.485286	0.587435
O45	O	0.768985	-0.264691	-0.264604
O46	O	1.018985	-0.014691	-0.014604
O47	O	1.268985	0.235309	0.235396
O48	O	1.518985	0.485309	0.485396
O49	O	0.871045	-0.342014	-0.443964
O50	O	1.121045	-0.092014	-0.193964
O51	O	1.371045	0.157986	0.056036
O52	O	1.621045	0.407986	0.306036
O53	O	0.768963	-0.342006	-0.341903
O54	O	1.018963	-0.092006	-0.091903
O55	O	1.268963	0.157994	0.158097
O56	O	1.518963	0.407994	0.408097
O57	O	0.948414	-0.264703	-0.443996
O58	O	1.198414	-0.014703	-0.193996
O59	O	1.448414	0.235297	0.056004
O60	O	1.698414	0.485297	0.306004
O61	O	0.948248	-0.444090	-0.264570
O62	O	1.198248	-0.194090	-0.014570
O63	O	1.448248	0.055910	0.235430
O64	O	1.698248	0.305910	0.485430
O65	O	0.870951	-0.444072	-0.341884
O66	O	1.120951	-0.194072	-0.091884
O67	O	1.370951	0.055928	0.158116
O68	O	1.620951	0.305928	0.408116
C69	C	0.746133	-0.303346	-0.303251
C70	C	0.996133	-0.053346	-0.053251
C71	C	1.246133	0.196654	0.196749
C72	C	1.496133	0.446654	0.446749
C73	C	0.676165	-0.303351	-0.303258
C74	C	0.926165	-0.053351	-0.053258
C75	C	1.176165	0.196649	0.196742
C76	C	1.426165	0.446649	0.446742
C77	C	0.176744	-0.263200	-0.343617
C78	C	0.426744	-0.013200	-0.093617
C79	C	0.676744	0.236800	0.156383
C80	C	0.926744	0.486800	0.406383
C81	C	0.242486	-0.263195	-0.343617
C82	C	0.492486	-0.013195	-0.093617
C83	C	0.742486	0.236805	0.156383
C84	C	0.992486	0.486805	0.406383
C85	C	0.275326	-0.303389	-0.303283
C86	C	0.525326	-0.053389	-0.053283
C87	C	0.775326	0.196611	0.196717
C88	C	1.025326	0.446611	0.446717
C89	C	0.242417	-0.343602	-0.262958
C90	C	0.492417	-0.093602	-0.012958
C91	C	0.742417	0.156398	0.237042
C92	C	0.992417	0.406398	0.487042
C93	C	0.176676	-0.343610	-0.262964
C94	C	0.426676	-0.093610	-0.012964
C95	C	0.676676	0.156390	0.237036
C96	C	0.926676	0.406390	0.487036
N97	N	0.378516	-0.308125	-0.248164
N98	N	0.628516	-0.058125	0.001836
N99	N	0.878516	0.191875	0.251836
N100	N	1.128516	0.441875	0.501836
N101	N	0.440967	-0.308113	-0.248160
N102	N	0.690967	-0.058113	0.001840
N103	N	0.940967	0.191887	0.251840
N104	N	1.190967	0.441887	0.501840
C105	C	0.473400	-0.303368	-0.303265
C106	C	0.723400	-0.053368	-0.053265
C107	C	0.973400	0.196632	0.196735
C108	C	1.223400	0.446632	0.446735
N109	N	0.441023	-0.298623	-0.358375
N110	N	0.691023	-0.048623	-0.108375
N111	N	0.941023	0.201377	0.141625
N112	N	1.191023	0.451377	0.391625
N113	N	0.378566	-0.298631	-0.358377
N114	N	0.628566	-0.048631	-0.108377
N115	N	0.878566	0.201369	0.141623
N116	N	1.128566	0.451369	0.391623
C117	C	0.346611	-0.303385	-0.303273
C118	C	0.596611	-0.053385	-0.053273
C119	C	0.846611	0.196615	0.196727
C120	C	1.096611	0.446615	0.446727
C121	C	0.577587	-0.263156	-0.343591
C122	C	0.827587	-0.013156	-0.093591
C123	C	1.077587	0.236844	0.156409
C124	C	1.327587	0.486844	0.406409
C125	C	0.643330	-0.263156	-0.343592
C126	C	0.893330	-0.013156	-0.093592
C127	C	1.143330	0.236844	0.156408
C128	C	1.393330	0.486844	0.406408
C129	C	0.643260	-0.343559	-0.262927
C130	C	0.893260	-0.093559	-0.012927
C131	C	1.143260	0.156441	0.237073
C132	C	1.393260	0.406441	0.487073
C133	C	0.577517	-0.343562	-0.262932
C134	C	0.827517	-0.093562	-0.012932
C135	C	1.077517	0.156438	0.237068
C136	C	1.327517	0.406438	0.487068
C137	C	0.544685	-0.303358	-0.303263
C138	C	0.794685	-0.053358	-0.053263
C139	C	1.044685	0.196642	0.196737
C140	C	1.294685	0.446642	0.446737
C141	C	0.909602	-0.466921	-0.303234
C142	C	1.159602	-0.216921	-0.053234
C143	C	1.409602	0.033079	0.196766
C144	C	1.659602	0.283079	0.446766
C145	C	0.909625	-0.536890	-0.303240
C146	C	1.159625	-0.286890	-0.053240
C147	C	1.409625	-0.036890	0.196760
C148	C	1.659625	0.213110	0.446760
C149	C	0.949909	-0.569745	-0.263024
C150	C	1.199909	-0.319745	-0.013024
C151	C	1.449909	-0.069745	0.236976
C152	C	1.699909	0.180255	0.486976
C153	C	0.949939	-0.635487	-0.263038
C154	C	1.199939	-0.385487	-0.013038
C155	C	1.449939	-0.135487	0.236962
C156	C	1.699939	0.114513	0.486962
C157	C	0.909672	-0.668372	-0.303262
C158	C	1.159672	-0.418372	-0.053262
C159	C	1.409672	-0.168372	0.196738
C160	C	1.659672	0.081628	0.446738
C161	C	0.869385	-0.635509	-0.343485
C162	C	1.119385	-0.385509	-0.093485
C163	C	1.369385	-0.135509	0.156515
C164	C	1.619385	0.114491	0.406515
C165	C	0.869361	-0.569768	-0.343474
C166	C	1.119361	-0.319768	-0.093474
C167	C	1.369361	-0.069768	0.156526
C168	C	1.619361	0.180232	0.406526
N169	N	0.854605	-0.771635	-0.308055
N170	N	1.104605	-0.521635	-0.058055
N171	N	1.354605	-0.271635	0.191945
N172	N	1.604605	-0.021635	0.441945
N173	N	0.854630	-0.834086	-0.308061
N174	N	1.104630	-0.584086	-0.058061
N175	N	1.354630	-0.334086	0.191939
N176	N	1.604630	-0.084086	0.441939
C177	C	0.909743	-0.866447	-0.303298
C178	C	1.159743	-0.616447	-0.053298
C179	C	1.409743	-0.366447	0.196702
C180	C	1.659743	-0.116447	0.446702
N181	N	0.964832	-0.833997	-0.298515
N182	N	1.214832	-0.583997	-0.048515
N183	N	1.464832	-0.333997	0.201485
N184	N	1.714832	-0.083997	0.451485
N185	N	0.964807	-0.771540	-0.298505
N186	N	1.214807	-0.521540	-0.048505
N187	N	1.464807	-0.271540	0.201495
N188	N	1.714807	-0.021540	0.451495
C189	C	0.909694	-0.739657	-0.303278
C190	C	1.159694	-0.489657	-0.053278
C191	C	1.409694	-0.239657	0.196722
C192	C	1.659694	0.010343	0.446722
C193	C	0.950063	-0.970587	-0.263095
C194	C	1.200063	-0.720587	-0.013095
C195	C	1.450063	-0.470587	0.236905
C196	C	1.700063	-0.220587	0.486905
C197	C	0.950093	-1.036331	-0.263114
C198	C	1.200093	-0.786331	-0.013114
C199	C	1.450093	-0.536331	0.236886
C200	C	1.700093	-0.286331	0.486886
C201	C	0.869534	-1.036352	-0.343557
C202	C	1.119534	-0.786352	-0.093557
C203	C	1.369534	-0.536352	0.156443
C204	C	1.619534	-0.286352	0.406443
C205	C	0.869509	-0.970609	-0.343542
C206	C	1.119509	-0.720609	-0.093542
C207	C	1.369509	-0.470609	0.156458
C208	C	1.619509	-0.220609	0.406458
C209	C	0.909773	-0.937731	-0.303308
C210	C	1.159773	-0.687731	-0.053308
C211	C	1.409773	-0.437731	0.196692
C212	C	1.659773	-0.187731	0.446692
C213	C	1.073875	-0.303394	-0.303287
C214	C	1.323875	-0.053394	-0.053287
C215	C	1.573875	0.196606	0.196713
C216	C	1.823875	0.446606	0.446713
C217	C	1.143843	-0.303405	-0.303295
C218	C	1.393843	-0.053405	-0.053295
C219	C	1.643843	0.196595	0.196705
C220	C	1.893843	0.446595	0.446705
C221	C	0.909737	-0.303357	-0.467459
C222	C	1.159737	-0.053357	-0.217459
C223	C	1.409737	0.196643	0.032541
C224	C	1.659737	0.446643	0.282541
C225	C	0.909759	-0.303351	-0.537427
C226	C	1.159759	-0.053351	-0.287427
C227	C	1.409759	0.196649	-0.037427
C228	C	1.659759	0.446649	0.212573
C229	C	0.909785	-0.139180	-0.303318
C230	C	1.159785	0.110820	-0.053318
C231	C	1.409785	0.360820	0.196682
C232	C	1.659785	0.610820	0.446682
C233	C	0.909827	-0.069211	-0.303338
C234	C	1.159827	0.180789	-0.053338
C235	C	1.409827	0.430789	0.196662
C236	C	1.659827	0.680789	0.446662
C237	C	0.950044	-0.263094	-0.570311
C238	C	1.200044	-0.013094	-0.320311
C239	C	1.450044	0.236906	-0.070311
C240	C	1.700044	0.486906	0.179689
C241	C	0.950043	-0.263066	-0.636054
C242	C	1.200043	-0.013066	-0.386054
C243	C	1.450043	0.236934	-0.136054
C244	C	1.700043	0.486934	0.113946
C245	C	0.909764	-0.303308	-0.668910
C246	C	1.159764	-0.053308	-0.418910
C247	C	1.409764	0.196692	-0.168910
C248	C	1.659764	0.446692	0.081090
C249	C	0.869472	-0.343568	-0.636018
C250	C	1.119472	-0.093568	-0.386018
C251	C	1.369472	0.156432	-0.136018
C252	C	1.619472	0.406432	0.113982
C253	C	0.869470	-0.343589	-0.570276
C254	C	1.119470	-0.093589	-0.320276
C255	C	1.369470	0.156411	-0.070276
C256	C	1.619470	0.406411	0.179724
N257	N	0.904908	-0.358375	-0.772125
N258	N	1.154908	-0.108375	-0.522125
N259	N	1.404908	0.141625	-0.272125
N260	N	1.654908	0.391625	-0.022125
N261	N	0.904914	-0.358353	-0.834577
N262	N	1.154914	-0.108353	-0.584577
N263	N	1.404914	0.141647	-0.334577
N264	N	1.654914	0.391647	-0.084577
C265	C	0.909768	-0.303244	-0.866985
C266	C	1.159768	-0.053244	-0.616985
C267	C	1.409768	0.196756	-0.366985
C268	C	1.659768	0.446756	-0.116985
N269	N	0.914629	-0.248157	-0.834582
N270	N	1.164629	0.001843	-0.584582
N271	N	1.414629	0.251843	-0.334582
N272	N	1.664629	0.501843	-0.084582
N273	N	0.914626	-0.248180	-0.772125
N274	N	1.164626	0.001820	-0.522125
N275	N	1.414626	0.251820	-0.272125
N276	N	1.664626	0.501820	-0.022125
C277	C	0.909762	-0.303288	-0.740195
C278	C	1.159762	-0.053288	-0.490195
C279	C	1.409762	0.196712	-0.240195
C280	C	1.659762	0.446712	0.009805
C281	C	0.950054	-0.262953	-0.971154
C282	C	1.200054	-0.012953	-0.721154
C283	C	1.450054	0.237047	-0.471154
C284	C	1.700054	0.487047	-0.221154
C285	C	0.950048	-0.262925	-1.036898
C286	C	1.200048	-0.012925	-0.786898
C287	C	1.450048	0.237075	-0.536898
C288	C	1.700048	0.487075	-0.286898
C289	C	0.869481	-0.343432	-1.036861
C290	C	1.119481	-0.093432	-0.786861
C291	C	1.369481	0.156568	-0.536861
C292	C	1.619481	0.406568	-0.286861
C293	C	0.869483	-0.343455	-0.971118
C294	C	1.119483	-0.093455	-0.721118
C295	C	1.369483	0.156545	-0.471118
C296	C	1.619483	0.406545	-0.221118
C297	C	0.909773	-0.303216	-0.938269
C298	C	1.159773	-0.053216	-0.688269
C299	C	1.409773	0.196784	-0.438269
C300	C	1.659773	0.446784	-0.188269
C301	C	0.909669	-0.303338	-0.139717
C302	C	1.159669	-0.053338	0.110283
C303	C	1.409669	0.196662	0.360283
C304	C	1.659669	0.446662	0.610283
C305	C	0.909769	-0.303166	-0.069749
C306	C	1.159769	-0.053166	0.180251
C307	C	1.409769	0.196834	0.430251
C308	C	1.659769	0.446834	0.680251
H309	H	0.269159	-0.376329	-0.230120
H310	H	0.519159	-0.126329	0.019880
H311	H	0.769159	0.123671	0.269880
H312	H	1.019159	0.373671	0.519880
H313	H	0.982850	-0.943817	-0.230336
H314	H	1.232850	-0.693817	0.019664
H315	H	1.482850	-0.443817	0.269664
H316	H	1.732850	-0.193817	0.519664
H317	H	0.550853	-0.230419	-0.376430
H318	H	0.800853	0.019581	-0.126430
H319	H	1.050853	0.269581	0.123570
H320	H	1.300853	0.519581	0.373570
H321	H	0.982902	-1.063080	-0.230367
H322	H	1.232902	-0.813080	0.019633
H323	H	1.482902	-0.563080	0.269633
H324	H	1.732902	-0.313080	0.519633
H325	H	0.836679	-0.376191	-1.063611
H326	H	1.086679	-0.126191	-0.813611
H327	H	1.336679	0.123809	-0.563611
H328	H	1.586679	0.373809	-0.313611
H329	H	0.836752	-1.063126	-0.376311
H330	H	1.086752	-0.813126	-0.126311
H331	H	1.336752	-0.563126	0.123689
H332	H	1.586752	-0.313126	0.373689
Cl333	Cl	0.684692	-0.212613	-0.394293
Cl334	Cl	0.934692	0.037387	-0.144293
Cl335	Cl	1.184692	0.287387	0.105707
Cl336	Cl	1.434692	0.537387	0.355707
H337	H	0.669997	-0.376290	-0.230092
H338	H	0.919997	-0.126290	0.019908
H339	H	1.169997	0.123710	0.269908
H340	H	1.419997	0.373710	0.519908
Cl341	Cl	0.818768	-0.676849	-0.394055
Cl342	Cl	1.068768	-0.426849	-0.144055
Cl343	Cl	1.318768	-0.176849	0.105945
Cl344	Cl	1.568768	0.073151	0.355945
H345	H	0.836675	-0.376330	-0.662773
H346	H	1.086675	-0.126330	-0.412773
H347	H	1.336675	0.123670	-0.162773
H348	H	1.586675	0.373670	0.087227
H349	H	0.150016	-0.230465	-0.376460
H350	H	0.400016	0.019535	-0.126460
H351	H	0.650016	0.269535	0.123540
H352	H	0.900016	0.519535	0.373540
H353	H	0.982745	-0.662243	-0.230290
H354	H	1.232745	-0.412243	0.019710
H355	H	1.482745	-0.162243	0.269710
H356	H	1.732745	0.087757	0.519710
Cl357	Cl	0.818860	-0.929303	-0.394099
Cl358	Cl	1.068860	-0.679303	-0.144099
Cl359	Cl	1.318860	-0.429303	0.105901
Cl360	Cl	1.568860	-0.179303	0.355901
H361	H	0.982850	-0.230328	-0.543570
H362	H	1.232850	0.019672	-0.293570
H363	H	1.482850	0.269672	-0.043570
H364	H	1.732850	0.519672	0.206430
Cl365	Cl	0.536154	-0.394099	-0.212228
Cl366	Cl	0.786154	-0.144099	0.037772
Cl367	Cl	1.036154	0.105901	0.287772
Cl368	Cl	1.286154	0.355901	0.537772
Cl369	Cl	0.283856	-0.212646	-0.394310
Cl370	Cl	0.533856	0.037354	-0.144310
Cl371	Cl	0.783856	0.287354	0.105690
Cl372	Cl	1.033856	0.537354	0.355690
Cl373	Cl	0.818840	-0.394070	-0.929776
Cl374	Cl	1.068840	-0.144070	-0.679776
Cl375	Cl	1.318840	0.105930	-0.429776
Cl376	Cl	1.568840	0.355930	-0.179776
Cl377	Cl	0.135313	-0.394154	-0.212266
Cl378	Cl	0.385313	-0.144154	0.037734
Cl379	Cl	0.635313	0.105846	0.287734
Cl380	Cl	0.885313	0.355846	0.537734
H381	H	0.982695	-0.542977	-0.230265
H382	H	1.232695	-0.292977	0.019735
H383	H	1.482695	-0.042977	0.269735
H384	H	1.732695	0.207023	0.519735
Cl385	Cl	0.818713	-0.528462	-0.394035
Cl386	Cl	1.068713	-0.278462	-0.144035
Cl387	Cl	1.318713	-0.028462	0.105965
Cl388	Cl	1.568713	0.221538	0.355965
H389	H	0.982846	-0.230281	-0.662833
H390	H	1.232846	0.019719	-0.412833
H391	H	1.482846	0.269719	-0.162833
H392	H	1.732846	0.519719	0.087167
H393	H	0.836663	-0.376371	-0.543503
H394	H	1.086663	-0.126371	-0.293503
H395	H	1.336663	0.123629	-0.043503
H396	H	1.586663	0.373629	0.206497
H397	H	0.982856	-0.230185	-0.944407
H398	H	1.232856	0.019815	-0.694407
H399	H	1.482856	0.269815	-0.444407
H400	H	1.732856	0.519815	-0.194407
H401	H	0.982852	-0.230139	-1.063671
H402	H	1.232852	0.019861	-0.813671
H403	H	1.482852	0.269861	-0.563671
H404	H	1.732852	0.519861	-0.313671
