data_functionalizedCrystal
_audit_creation_method	'MofGen! by Chris Wilmer'
_symmetry_space_group_name_H-M	'P1'
_symmetry_Int_Tables_number	1
_symmetry_cell_setting	triclinic
loop_
_symmetry_equiv_pos_as_xyz
  x,y,z
_cell_length_a	11.792241
_cell_length_b	10.967926
_cell_length_c	9.482900
_cell_angle_alpha	92.549900
_cell_angle_beta	80.596456
_cell_angle_gamma	95.543052
loop_
_atom_site_label
_atom_site_type_symbol
_atom_site_fract_x
_atom_site_fract_y
_atom_site_fract_z
O1	O	-0.200408	1.611508	0.282862
O2	O	0.132925	1.944841	0.616195
O3	O	0.466259	2.278174	0.949529
O4	O	-0.202898	1.262310	0.195374
O5	O	0.130436	1.595644	0.528708
O6	O	0.463769	1.928977	0.862041
O7	O	-0.036810	1.445384	0.241233
O8	O	0.296524	1.778718	0.574566
O9	O	0.629857	2.112051	0.907900
O10	O	-0.366496	1.428434	0.237003
O11	O	-0.033163	1.761767	0.570337
O12	O	0.300171	2.095100	0.903670
O13	O	-0.070688	1.408199	0.473711
O14	O	0.262645	1.741532	0.807044
O15	O	0.595979	2.074866	1.140377
O16	O	-0.236776	1.225125	0.427852
O17	O	0.096557	1.558458	0.761185
O18	O	0.429891	1.891791	1.094519
O19	O	-0.234286	1.574322	0.515340
O20	O	0.099047	1.907655	0.848673
O21	O	0.432380	2.240989	1.182007
Cu22	Cu	-0.238625	1.396328	0.492823
Cu23	Cu	0.094709	1.729661	0.826156
Cu24	Cu	0.428042	2.062995	1.159490
Cu25	Cu	-0.198560	1.440304	0.217891
Cu26	Cu	0.134774	1.773638	0.551224
Cu27	Cu	0.468107	2.106971	0.884558
O28	O	-0.400374	1.391248	0.469481
O29	O	-0.067041	1.724581	0.802815
O30	O	0.266292	2.057915	1.136148
C31	C	-0.217096	1.199013	0.300412
C32	C	0.116238	1.532346	0.633746
C33	C	0.449571	1.865679	0.967079
C34	C	-0.208915	1.065806	0.267038
C35	C	0.124418	1.399139	0.600371
C36	C	0.457752	1.732473	0.933705
C37	C	-0.222817	0.987155	0.372589
C38	C	0.110516	1.320488	0.705922
C39	C	0.443849	1.653822	1.039256
C40	C	-0.214362	0.849479	0.338098
C41	C	0.118971	1.182812	0.671431
C42	C	0.452304	1.516145	1.004764
C43	C	-0.425768	1.410905	0.353511
C44	C	-0.092434	1.744238	0.686844
C45	C	0.240899	2.077572	1.020178
C46	C	-0.551906	1.414091	0.354316
C47	C	-0.218572	1.747424	0.687649
C48	C	0.114761	2.080757	1.020982
C49	C	-0.782840	1.419956	0.355748
C50	C	-0.449507	1.753289	0.689082
C51	C	-0.116173	2.086622	1.022415
C52	C	-0.654331	1.416697	0.354952
C53	C	-0.320998	1.750030	0.688285
C54	C	0.012335	2.083364	1.021619
C55	C	-0.011416	1.425728	0.357200
C56	C	0.321917	1.759061	0.690533
C57	C	0.655251	2.092395	1.023867
C58	C	0.114724	1.422544	0.356386
C59	C	0.448057	1.755877	0.689720
C60	C	0.781390	2.089210	1.023053
C61	C	-0.220088	1.637620	0.410299
C62	C	0.113246	1.970954	0.743632
C63	C	0.446579	2.304287	1.076965
C64	C	-0.228267	1.770828	0.443664
C65	C	0.105066	2.104162	0.776997
C66	C	0.438399	2.437495	1.110330
N67	N	-0.266804	1.365406	0.686198
N68	N	0.066530	1.698740	1.019531
N69	N	0.399863	2.032073	1.352864
N70	N	-0.170372	1.471236	0.024519
N71	N	0.162962	1.804569	0.357852
N72	N	0.496295	2.137902	0.691186
C73	C	-0.206865	1.431175	0.774871
C74	C	0.126469	1.764509	1.108205
C75	C	0.459802	2.097842	1.441538
C76	C	-0.230320	1.405457	0.935846
C77	C	0.103014	1.738790	1.269180
C78	C	0.436347	2.072123	1.602513
H79	H	-0.190750	1.031217	0.151137
H80	H	0.142583	1.364550	0.484471
H81	H	0.475917	1.697883	0.817804
H82	H	-0.138180	1.506519	0.731616
H83	H	0.195154	1.839852	1.064950
H84	H	0.528487	2.173186	1.398283
H85	H	-0.246427	0.805411	0.559573
H86	H	0.086907	1.138744	0.892907
H87	H	0.420240	1.472077	1.226240
F88	F	-0.246554	1.032360	0.524084
F89	F	0.086780	1.365693	0.857417
F90	F	0.420113	1.699026	1.190750
H91	H	-0.335480	1.290054	0.729452
H92	H	-0.002146	1.623388	1.062786
H93	H	0.331187	1.956721	1.396119
F94	F	-0.080793	1.569929	0.968047
F95	F	0.252540	1.903263	1.301380
F96	F	0.585874	2.236596	1.634714
H97	H	-0.196196	0.814895	0.222189
H98	H	0.137137	1.148229	0.555522
H99	H	0.470470	1.481562	0.888856
F100	F	-0.320090	1.306959	0.992371
F101	F	0.013243	1.640293	1.325704
F102	F	0.346577	1.973626	1.659037
