data_functionalizedCrystal
_audit_creation_method	'MofGen! by Chris Wilmer'
_symmetry_space_group_name_H-M	'P1'
_symmetry_Int_Tables_number	1
_symmetry_cell_setting	triclinic
loop_
_symmetry_equiv_pos_as_xyz
  x,y,z
_cell_length_a	9.065215
_cell_length_b	17.038274
_cell_length_c	7.540329
_cell_angle_alpha	90.011707
_cell_angle_beta	89.997574
_cell_angle_gamma	91.936758
loop_
_atom_site_label
_atom_site_type_symbol
_atom_site_fract_x
_atom_site_fract_y
_atom_site_fract_z
O1	O	1.971910	-0.114731	-0.147499
O2	O	2.305244	0.218602	0.185834
O3	O	2.638577	0.551936	0.519167
O4	O	1.543569	-0.124145	-0.147511
O5	O	1.876903	0.209188	0.185823
O6	O	2.210236	0.542522	0.519156
O7	O	1.755194	-0.005604	-0.147456
O8	O	2.088527	0.327729	0.185877
O9	O	2.421860	0.661062	0.519211
O10	O	1.760286	-0.233272	-0.147554
O11	O	2.093619	0.100062	0.185779
O12	O	2.426953	0.433395	0.519113
O13	O	1.755180	-0.005603	0.147509
O14	O	2.088513	0.327731	0.480842
O15	O	2.421847	0.661064	0.814176
O16	O	1.543556	-0.124143	0.147454
O17	O	1.876889	0.209190	0.480788
O18	O	2.210222	0.542523	0.814121
O19	O	1.971897	-0.114729	0.147466
O20	O	2.305230	0.218604	0.480799
O21	O	2.638563	0.551937	0.814132
Cu22	Cu	1.757725	-0.119436	0.174393
Cu23	Cu	2.091058	0.213897	0.507726
Cu24	Cu	2.424392	0.547230	0.841059
Cu25	Cu	1.757741	-0.119438	-0.174438
Cu26	Cu	2.091074	0.213895	0.158896
Cu27	Cu	2.424408	0.547229	0.492229
O28	O	1.760272	-0.233270	0.147411
O29	O	2.093606	0.100063	0.480744
O30	O	2.426939	0.433397	0.814078
C31	C	1.488485	-0.123240	-0.000029
C32	C	1.821818	0.210093	0.333305
C33	C	2.155152	0.543427	0.666638
C34	C	1.324371	-0.120536	-0.000031
C35	C	1.657704	0.212797	0.333303
C36	C	1.991037	0.546130	0.666636
C37	C	1.750556	0.023558	0.000035
C38	C	2.083889	0.356892	0.333369
C39	C	2.417223	0.690225	0.666702
C40	C	1.736739	0.110451	0.000061
C41	C	2.070073	0.443784	0.333394
C42	C	2.403406	0.777117	0.666728
C43	C	1.863587	0.159650	0.000081
C44	C	2.196921	0.492983	0.333414
C45	C	2.530254	0.826316	0.666747
C46	C	1.850596	0.241294	0.000089
C47	C	2.183930	0.574627	0.333422
C48	C	2.517263	0.907961	0.666755
C49	C	1.710756	0.273738	0.000090
C50	C	2.044090	0.607071	0.333423
C51	C	2.377423	0.940404	0.666757
C52	C	1.583899	0.224532	0.000065
C53	C	1.917233	0.557866	0.333398
C54	C	2.250566	0.891199	0.666732
C55	C	1.596891	0.142890	0.000044
C56	C	1.930225	0.476223	0.333378
C57	C	2.263558	0.809556	0.666711
C58	C	1.664858	0.519827	0.000140
C59	C	1.998191	0.853160	0.333474
C60	C	2.331524	1.186493	0.666807
C61	C	1.651875	0.601476	0.000166
C62	C	1.985208	0.934809	0.333500
C63	C	2.318542	1.268142	0.666833
C64	C	1.918574	0.618232	0.000186
C65	C	2.251907	0.951565	0.333520
C66	C	2.585240	1.284898	0.666853
C67	C	1.931554	0.536587	0.000176
C68	C	2.264887	0.869920	0.333510
C69	C	2.598220	1.203253	0.666843
C70	C	1.804696	0.487389	0.000142
C71	C	2.138030	0.820722	0.333476
C72	C	2.471363	1.154055	0.666809
C73	C	1.697474	0.357191	0.000104
C74	C	2.030808	0.690524	0.333437
C75	C	2.364141	1.023858	0.666770
C76	C	1.817979	0.403937	0.000116
C77	C	2.151313	0.737270	0.333449
C78	C	2.484646	1.070604	0.666783
C79	C	2.026981	-0.115634	-0.000020
C80	C	2.360314	0.217699	0.333313
C81	C	2.693648	0.551032	0.666646
C82	C	2.191095	-0.118338	-0.000030
C83	C	2.524429	0.214995	0.333303
C84	C	2.857762	0.548329	0.666637
N85	N	1.757724	-0.119435	0.419741
N86	N	2.091058	0.213899	0.753074
N87	N	2.424391	0.547232	1.086408
C88	C	1.764909	0.737567	-0.000007
C89	C	2.098242	1.070901	0.333326
C90	C	2.431576	1.404234	0.666660
C91	C	1.778723	0.650675	0.000186
C92	C	2.112056	0.984008	0.333519
C93	C	2.445389	1.317341	0.666852
N94	N	1.757753	-0.119434	-0.419786
N95	N	2.091086	0.213900	-0.086453
N96	N	2.424419	0.547233	0.246881
H97	H	1.977460	0.133241	0.000090
H98	H	2.310793	0.466574	0.333424
H99	H	2.644126	0.799908	0.666757
H100	H	1.953890	0.281349	0.000108
H101	H	2.287223	0.614682	0.333442
H102	H	2.620557	0.948016	0.666775
H103	H	2.045426	0.510178	0.000176
H104	H	2.378759	0.843511	0.333509
H105	H	2.712092	1.176844	0.666842
H106	H	1.470038	0.250954	0.000055
H107	H	1.803372	0.584288	0.333388
H108	H	2.136705	0.917621	0.666722
H109	H	2.021853	0.658297	0.000211
H110	H	2.355186	0.991631	0.333544
H111	H	2.688520	1.324964	0.666878
H112	H	1.583616	0.383616	0.000109
H113	H	1.916949	0.716949	0.333442
H114	H	2.250283	1.050282	0.666775
H115	H	1.931837	0.377518	0.000076
H116	H	2.265170	0.710851	0.333409
H117	H	2.598503	1.044184	0.666742
H118	H	1.561561	0.479779	0.000113
H119	H	1.894894	0.813112	0.333446
H120	H	2.228227	1.146446	0.666780
H121	H	1.537995	0.627888	0.000196
H122	H	1.871328	0.961221	0.333529
H123	H	2.204662	1.294554	0.666863
H124	H	1.493598	0.102832	0.000028
H125	H	1.826931	0.436165	0.333362
H126	H	2.160265	0.769499	0.666695
