data_functionalizedCrystal
_audit_creation_method	'MofGen! by Chris Wilmer'
_symmetry_space_group_name_H-M	'P1'
_symmetry_Int_Tables_number	1
_symmetry_cell_setting	triclinic
loop_
_symmetry_equiv_pos_as_xyz
  x,y,z
_cell_length_a	13.033748
_cell_length_b	16.120484
_cell_length_c	16.120704
_cell_angle_alpha	84.364775
_cell_angle_beta	80.339620
_cell_angle_gamma	99.720859
loop_
_atom_site_label
_atom_site_type_symbol
_atom_site_fract_x
_atom_site_fract_y
_atom_site_fract_z
Zn1	Zn	1.564909	-0.189608	0.322636
Zn2	Zn	1.898242	0.143726	0.655970
Zn3	Zn	2.231575	0.477059	0.989303
Zn4	Zn	1.564812	-0.322258	0.189954
Zn5	Zn	1.898145	0.011076	0.523287
Zn6	Zn	2.231478	0.344409	0.856621
Zn7	Zn	1.397248	-0.200418	0.200753
Zn8	Zn	1.730582	0.132916	0.534086
Zn9	Zn	2.063915	0.466249	0.867419
Zn10	Zn	1.378240	-0.349300	0.349569
Zn11	Zn	1.711574	-0.015967	0.682903
Zn12	Zn	2.044907	0.317366	1.016236
O13	O	1.476302	-0.265396	0.265728
O14	O	1.809636	0.067938	0.599061
O15	O	2.142969	0.401271	0.932395
O16	O	1.713143	-0.191362	0.289245
O17	O	2.046476	0.141971	0.622578
O18	O	2.379810	0.475304	0.955911
O19	O	1.550498	-0.299302	0.073578
O20	O	1.883831	0.034031	0.406912
O21	O	2.217165	0.367365	0.740245
O22	O	1.427484	-0.081161	0.210169
O23	O	1.760818	0.252172	0.543502
O24	O	2.094151	0.585505	0.876835
O25	O	1.713072	-0.288820	0.191764
O26	O	2.046405	0.044513	0.525097
O27	O	2.379738	0.377847	0.858430
O28	O	1.550664	-0.073219	0.299716
O29	O	1.883997	0.260114	0.633049
O30	O	2.217331	0.593448	0.966382
O31	O	1.427390	-0.209787	0.081512
O32	O	1.760723	0.123547	0.414845
O33	O	2.094057	0.456880	0.748179
O34	O	1.246480	-0.236009	0.236284
O35	O	1.579813	0.097325	0.569618
O36	O	1.913146	0.430658	0.902951
O37	O	1.395088	-0.334910	0.463805
O38	O	1.728421	-0.001577	0.797138
O39	O	2.061755	0.331757	1.130471
O40	O	1.232515	-0.345392	0.345619
O41	O	1.565848	-0.012059	0.678953
O42	O	1.899181	0.321275	1.012286
O43	O	1.532233	-0.217584	0.444017
O44	O	1.865566	0.115749	0.777350
O45	O	2.198899	0.449082	1.110684
O46	O	1.532067	-0.443667	0.217880
O47	O	1.865400	-0.110334	0.551213
O48	O	2.198733	0.222999	0.884546
O49	O	1.394994	-0.463535	0.335148
O50	O	1.728327	-0.130202	0.668482
O51	O	2.061660	0.203131	1.001815
C52	C	1.201058	-0.294809	0.295047
C53	C	1.534392	0.038525	0.628380
C54	C	1.867725	0.371858	0.961714
C55	C	1.083305	-0.307413	0.307611
C56	C	1.416638	0.025920	0.640944
C57	C	1.749972	0.359254	0.974277
C58	C	1.037688	-0.258840	0.259193
C59	C	1.371022	0.074493	0.592526
C60	C	1.704355	0.407827	0.925860
C61	C	0.915984	-0.271866	0.272177
C62	C	1.249318	0.061467	0.605511
C63	C	1.582651	0.394801	0.938844
C64	C	1.461485	-0.484149	0.278280
C65	C	1.794818	-0.150816	0.611613
C66	C	2.128151	0.182517	0.944947
C67	C	1.455241	-0.577724	0.283668
C68	C	1.788574	-0.244391	0.617001
C69	C	2.121907	0.088942	0.950334
C70	C	1.443846	-0.749046	0.293521
C71	C	1.777179	-0.415713	0.626854
C72	C	2.110512	-0.082379	0.960187
C73	C	1.508948	-0.780886	0.237929
C74	C	1.842281	-0.447552	0.571262
C75	C	2.175614	-0.114219	0.904596
C76	C	1.502607	-0.876215	0.243411
C77	C	1.835941	-0.542881	0.576745
C78	C	2.169274	-0.209548	0.910078
C79	C	1.450184	-0.653708	0.288040
C80	C	1.783518	-0.320375	0.621373
C81	C	2.116851	0.012958	0.954706
C82	C	1.752621	-0.235869	0.236295
C83	C	2.085954	0.097465	0.569629
C84	C	2.419288	0.430798	0.902962
C85	C	1.870372	-0.223286	0.223753
C86	C	2.203705	0.110047	0.557086
C87	C	2.537038	0.443381	0.890420
C88	C	1.461551	-0.278058	0.485311
C89	C	1.794884	0.055275	0.818645
C90	C	2.128218	0.388609	1.151978
C91	C	1.455265	-0.283454	0.578885
C92	C	1.788598	0.049880	0.912218
C93	C	2.121931	0.383213	1.245551
C94	C	1.491205	-0.045786	0.253142
C95	C	1.824539	0.287547	0.586476
C96	C	2.157872	0.620881	0.919809
C97	C	1.497556	0.047799	0.247779
C98	C	1.830889	0.381132	0.581112
C99	C	2.164223	0.714465	0.914446
C100	C	1.508812	-0.237612	0.782106
C101	C	1.842145	0.095721	1.115439
C102	C	2.175478	0.429054	1.448772
C103	C	1.443755	-0.293274	0.750200
C104	C	1.777088	0.040059	1.083533
C105	C	2.110421	0.373392	1.416866
C106	C	1.450161	-0.287808	0.654871
C107	C	1.783494	0.045525	0.988204
C108	C	2.116828	0.378858	1.321538
C109	C	1.502407	-0.243077	0.877443
C110	C	1.835740	0.090257	1.210776
C111	C	2.169074	0.423590	1.544109
C112	C	1.490993	-0.252810	1.047000
C113	C	1.824327	0.080524	1.380334
C114	C	2.157660	0.413857	1.713667
C115	C	1.497298	-0.247436	0.953426
C116	C	1.830632	0.085898	1.286760
C117	C	2.163965	0.419231	1.620093
H118	H	1.088736	-0.207614	0.208125
H119	H	1.422069	0.125719	0.541459
H120	H	1.755402	0.459052	0.874792
Cl121	Cl	1.004501	-0.386513	0.386449
Cl122	Cl	1.337834	-0.053180	0.719782
Cl123	Cl	1.671167	0.280153	1.053116
Cl124	Cl	1.602347	-0.712438	0.158087
Cl125	Cl	1.935681	-0.379105	0.491420
Cl126	Cl	2.269014	-0.045772	0.824754
H127	H	0.921414	-0.172056	0.172682
H128	H	1.254747	0.161277	0.506015
H129	H	1.588080	0.494611	0.839349
H130	H	1.383353	-0.793379	0.345227
H131	H	1.716686	-0.460045	0.678560
H132	H	2.050019	-0.126712	1.011894
Cl133	Cl	1.350335	-0.373188	0.818559
Cl134	Cl	1.683669	-0.039855	1.151892
Cl135	Cl	2.017002	0.293479	1.485225
H136	H	0.864941	-0.323100	0.323243
H137	H	1.198274	0.010233	0.656576
H138	H	1.531608	0.343566	0.989910
Cl139	Cl	1.602215	-0.157696	0.713748
Cl140	Cl	1.935548	0.175637	1.047081
Cl141	Cl	2.268881	0.508970	1.380414
