data_functionalizedCrystal
_audit_creation_method	'MofGen! by Chris Wilmer'
_symmetry_space_group_name_H-M	'P1'
_symmetry_Int_Tables_number	1
_symmetry_cell_setting	triclinic
loop_
_symmetry_equiv_pos_as_xyz
  x,y,z
_cell_length_a	15.455438
_cell_length_b	17.699083
_cell_length_c	17.699083
_cell_angle_alpha	96.716985
_cell_angle_beta	92.669600
_cell_angle_gamma	92.665725
loop_
_atom_site_label
_atom_site_type_symbol
_atom_site_fract_x
_atom_site_fract_y
_atom_site_fract_z
O1	O	0.072010	-1.000766	0.099021
O2	O	0.072039	-0.780386	0.111475
O3	O	0.072016	-0.896803	-0.004942
O4	O	0.072033	-0.884349	0.215437
O5	O	-0.072244	-0.903424	-0.011576
O6	O	-0.072222	-0.787007	0.104841
O7	O	-0.072250	-1.007387	0.092387
Cu8	Cu	-0.085408	-0.897802	0.098008
Cu9	Cu	0.085197	-0.889971	0.105854
O10	O	-0.072227	-0.890970	0.208803
C11	C	-0.000088	-0.755499	0.107712
C12	C	-0.000077	-0.671481	0.106374
N13	N	-0.205402	-0.903314	0.092489
C14	C	-0.000114	-0.899667	-0.036456
C15	C	-0.000114	-0.898328	-0.120474
C16	C	-0.250808	-0.853848	0.141928
C17	C	-0.341615	-0.858038	0.137752
C18	C	-0.387014	-0.911693	0.084132
C19	C	-0.341602	-0.961165	0.034691
C20	C	-0.250797	-0.956977	0.038872
C21	C	-0.658592	-0.929749	0.066106
C22	C	-0.749403	-0.933931	0.061927
C23	C	-0.749410	-0.830805	0.164990
C24	C	-0.658603	-0.826619	0.169163
C25	C	-0.613198	-0.876094	0.119724
N26	N	-0.479834	-0.915976	0.079860
N27	N	-0.520381	-0.871814	0.124000
N28	N	0.205191	-0.884465	0.111366
C29	C	-0.000122	-1.032273	0.096150
C30	C	-0.000127	-1.116292	0.097488
C31	C	-0.000072	-0.622860	0.174707
C32	C	-0.000083	-0.543917	0.173444
C33	C	-0.000093	-0.513597	0.103847
C34	C	-0.000101	-0.562224	0.035508
C35	C	-0.000096	-0.641166	0.036772
C36	C	-0.000123	-0.243862	0.030412
C37	C	-0.000125	-0.164914	0.029154
C38	C	-0.000110	-0.146613	0.167085
C39	C	-0.000105	-0.225555	0.168348
C40	C	-0.000117	-0.274176	0.100009
C41	C	-0.000107	-0.359774	0.101379
C42	C	-0.000098	-0.427999	0.102477
C43	C	-0.000124	-0.966662	-0.169095
C44	C	-0.000117	-0.965400	-0.248038
C45	C	-0.000105	-0.895803	-0.278359
C46	C	-0.000092	-0.827463	-0.229731
C47	C	-0.000094	-0.828726	-0.150789
C48	C	-0.000084	-0.822368	-0.548093
C49	C	-0.000085	-0.821110	-0.627041
C50	C	-0.000107	-0.959041	-0.645343
C51	C	-0.000109	-0.960304	-0.566401
C52	C	-0.000092	-0.891965	-0.517780
C53	C	-0.000098	-0.893335	-0.432181
C54	C	-0.000104	-0.894432	-0.363956
C55	C	-0.000095	-0.888106	0.240317
C56	C	-0.000089	-0.889444	0.324336
H57	H	-0.213850	-0.810153	0.185588
H58	H	-0.621631	-0.970032	0.025850
Br59	Br	-0.000049	-0.664000	0.269166
Br60	Br	-0.596988	-0.753800	0.241929
H61	H	-0.000122	-0.537532	-0.021159
Br62	Br	-0.000110	-0.707154	-0.055971
H63	H	-0.000127	-1.021044	-0.287623
H64	H	-0.000117	-1.014685	-0.684940
Br65	Br	-0.811033	-0.763666	0.232083
Br66	Br	-0.000095	-0.080624	0.259832
H67	H	-0.000077	-0.770796	-0.254423
H68	H	-0.000078	-0.504332	0.229089
Br69	Br	-0.811011	-1.006752	-0.010852
Br70	Br	-0.000083	-0.266699	0.262805
Br71	Br	-0.403212	-1.033989	-0.038075
Br72	Br	-0.000137	-0.123766	-0.065305
Br73	Br	-0.000124	-1.054760	-0.525256
H74	H	-0.000139	-1.023336	-0.144416
H75	H	-0.378584	-0.817759	0.178009
H76	H	-0.000133	-0.283440	-0.025234
Br77	Br	-0.000071	-0.726650	-0.668190
H78	H	-0.000085	-0.773082	-0.111202
Br79	Br	-0.189175	-1.024119	-0.028222
Br80	Br	-0.000055	-0.729621	-0.482117
