data_functionalizedCrystal
_audit_creation_method	'MofGen! by Chris Wilmer'
_symmetry_space_group_name_H-M	'P1'
_symmetry_Int_Tables_number	1
_symmetry_cell_setting	triclinic
loop_
_symmetry_equiv_pos_as_xyz
  x,y,z
_cell_length_a	12.759399
_cell_length_b	12.594517
_cell_length_c	12.759393
_cell_angle_alpha	90.027548
_cell_angle_beta	89.969094
_cell_angle_gamma	89.989946
loop_
_atom_site_label
_atom_site_type_symbol
_atom_site_fract_x
_atom_site_fract_y
_atom_site_fract_z
Zn1	Zn	-0.418357	-1.627292	-0.594202
Zn2	Zn	0.081643	-1.127292	-0.094202
Zn3	Zn	-0.594073	-1.627180	-0.418521
Zn4	Zn	-0.094073	-1.127180	0.081479
Zn5	Zn	-0.418393	-1.449291	-0.418517
Zn6	Zn	0.081607	-0.949291	0.081483
Zn7	Zn	-0.593979	-1.449281	-0.594138
Zn8	Zn	-0.093979	-0.949281	-0.094138
O9	O	-0.506201	-1.538261	-0.506345
O10	O	-0.006201	-1.038261	-0.006345
O11	O	-0.441691	-1.776223	-0.570926
O12	O	0.058309	-1.276223	-0.070926
O13	O	-0.570823	-1.603540	-0.271500
O14	O	-0.070823	-1.103540	0.228500
O15	O	-0.271367	-1.472954	-0.441847
O16	O	0.228633	-0.972954	0.058153
O17	O	-0.570788	-1.776141	-0.441854
O18	O	-0.070788	-1.276141	0.058146
O19	O	-0.271341	-1.603731	-0.570923
O20	O	0.228659	-1.103731	-0.070923
O21	O	-0.441751	-1.472845	-0.271497
O22	O	0.058249	-0.972845	0.228503
O23	O	-0.441661	-1.300344	-0.441785
O24	O	0.058339	-0.800344	0.058215
O25	O	-0.570629	-1.472937	-0.741168
O26	O	-0.070629	-0.972937	-0.241168
O27	O	-0.570663	-1.300337	-0.570813
O28	O	-0.070663	-0.800337	-0.070813
O29	O	-0.441600	-1.603721	-0.741215
O30	O	0.058400	-1.103721	-0.241215
O31	O	-0.741081	-1.603531	-0.441792
O32	O	-0.241081	-1.103531	0.058208
O33	O	-0.741013	-1.472829	-0.570817
O34	O	-0.241013	-0.972829	-0.070817
C35	C	-0.506156	-1.261720	-0.506292
C36	C	-0.006156	-0.761720	-0.006292
C37	C	-0.506163	-1.143415	-0.506295
C38	C	-0.006163	-0.643415	-0.006295
C39	C	-0.779168	-1.538196	-0.506321
C40	C	-0.279168	-1.038196	-0.006321
C41	C	-0.895945	-1.538265	-0.506346
C42	C	-0.395945	-1.038265	-0.006346
C43	C	-0.950807	-1.606399	-0.439239
C44	C	-0.450807	-1.106399	0.060761
C45	C	-1.060531	-1.606468	-0.439274
C46	C	-0.560531	-1.106468	0.060726
C47	C	-1.060520	-1.470259	-0.573526
C48	C	-0.560520	-0.970259	-0.073526
C49	C	-0.950798	-1.470196	-0.573495
C50	C	-0.450798	-0.970196	-0.073495
C51	C	-0.435897	-1.074134	-0.436245
C52	C	0.064103	-0.574134	0.063755
C53	C	-0.531726	-1.003324	-0.410397
C54	C	-0.031726	-0.503324	0.089603
C55	C	-0.410363	-1.003426	-0.532145
C56	C	0.089637	-0.503426	-0.032145
C57	C	-0.602042	-1.074163	-0.480396
C58	C	-0.102042	-0.574163	0.019604
C59	C	-0.480615	-1.074270	-0.602190
C60	C	0.019385	-0.574270	-0.102190
C61	C	-0.576510	-1.003492	-0.576377
C62	C	-0.076510	-0.503492	-0.076377
C63	C	-0.232167	-1.538356	-0.506392
C64	C	0.267833	-1.038356	-0.006392
C65	C	-0.115391	-1.538396	-0.506412
C66	C	0.384609	-1.038396	-0.006412
C67	C	-0.506100	-1.538341	-0.780378
C68	C	-0.006100	-1.038341	-0.280378
C69	C	-0.506057	-1.538375	-0.897155
C70	C	-0.006057	-1.038375	-0.397155
C71	C	-0.506225	-0.815882	-0.506378
C72	C	-0.006225	-0.315882	-0.006378
C73	C	-0.506181	-0.934187	-0.506343
C74	C	-0.006181	-0.434187	-0.006343
C75	C	-0.438861	-1.606479	-0.952043
C76	C	0.061139	-1.106479	-0.452043
C77	C	-0.438815	-1.606497	-1.061767
C78	C	0.061185	-1.106497	-0.561767
C79	C	-0.573171	-1.470303	-1.061705
C80	C	-0.073171	-0.970303	-0.561705
C81	C	-0.573210	-1.470281	-0.951983
C82	C	-0.073210	-0.970281	-0.451983
C83	C	-0.506225	-1.538243	-0.233377
C84	C	-0.006225	-1.038243	0.266623
C85	C	-0.505972	-1.538415	-0.116601
C86	C	-0.005972	-1.038415	0.383399
H87	H	-0.906148	-1.661827	-0.384563
H88	H	-0.406148	-1.161827	0.115437
O89	O	-0.709398	-1.115143	-0.451331
O90	O	-0.209398	-0.615143	0.048669
H91	H	-0.762751	-1.047054	-0.436950
H92	H	-0.262751	-0.547054	0.063050
H93	H	-1.105196	-1.661951	-0.384630
H94	H	-0.605196	-1.161951	0.115370
H95	H	-0.636008	-0.972669	-0.635637
H96	H	-0.136008	-0.472669	-0.135637
H97	H	-0.458962	-1.105457	-0.683241
H98	H	0.041038	-0.605457	-0.183241
O99	O	-1.119682	-1.396823	-0.645930
O100	O	-0.619682	-0.896823	-0.145930
H101	H	-1.205196	-1.408299	-0.634667
H102	H	-0.705196	-0.908299	-0.134667
H103	H	-0.627929	-1.414815	-0.907292
H104	H	-0.127929	-0.914815	-0.407292
H105	H	-0.906126	-1.414713	-0.628147
H106	H	-0.406126	-0.914713	-0.128147
H107	H	-0.376541	-1.105153	-0.376940
H108	H	0.123459	-0.605153	0.123060
H109	H	-0.553349	-0.972163	-0.329321
H110	H	-0.053349	-0.472163	0.170679
H111	H	-0.627848	-1.414866	-1.106360
H112	H	-0.127848	-0.914866	-0.606360
O113	O	-0.366433	-1.679920	-0.892905
O114	O	0.133567	-1.179920	-0.392905
H115	H	-0.312996	-1.632294	-0.842902
H116	H	0.187004	-1.132294	-0.342902
O117	O	-0.303053	-0.962244	-0.561103
O118	O	0.196947	-0.462244	-0.061103
H119	H	-0.249386	-1.030228	-0.574781
H120	H	0.250614	-0.530228	-0.074781
O121	O	-0.366347	-1.679958	-1.120972
O122	O	0.133653	-1.179958	-0.620972
H123	H	-0.319667	-1.727306	-1.064410
H124	H	0.180333	-1.227306	-0.564410
