data_functionalizedCrystal
_audit_creation_method	'MofGen! by Chris Wilmer'
_symmetry_space_group_name_H-M	'P1'
_symmetry_Int_Tables_number	1
_symmetry_cell_setting	triclinic
loop_
_symmetry_equiv_pos_as_xyz
  x,y,z
_cell_length_a	21.395362
_cell_length_b	16.120484
_cell_length_c	21.395356
_cell_angle_alpha	87.126786
_cell_angle_beta	90.035770
_cell_angle_gamma	92.942400
loop_
_atom_site_label
_atom_site_type_symbol
_atom_site_fract_x
_atom_site_fract_y
_atom_site_fract_z
Zn1	Zn	0.945194	-0.331598	0.367213
Zn2	Zn	0.939808	-0.471013	0.267744
Zn3	Zn	0.840422	-0.331654	0.262416
Zn4	Zn	0.835075	-0.471013	0.372449
O5	O	0.890125	-0.401320	0.317456
O6	O	1.032159	-0.350069	0.354057
O7	O	0.926608	-0.452551	0.179361
O8	O	0.858812	-0.214979	0.271897
O9	O	1.028202	-0.452496	0.280977
O10	O	0.935788	-0.214938	0.348890
O11	O	0.853590	-0.350164	0.175446
O12	O	0.752034	-0.350164	0.276974
O13	O	0.849699	-0.452496	0.459431
O14	O	0.748106	-0.452550	0.357815
O15	O	0.930603	-0.350068	0.455584
O16	O	0.921423	-0.587681	0.286055
O17	O	0.844476	-0.587681	0.362981
C18	C	0.727336	-0.401364	0.317385
C19	C	0.657693	-0.401403	0.317370
C20	C	0.881802	-0.617932	0.325678
C21	C	0.878299	-0.710600	0.329216
C22	C	0.622948	-0.454786	0.359406
C23	C	0.557513	-0.454766	0.359433
C24	C	0.526826	-0.401371	0.317413
C25	C	0.561579	-0.347977	0.275374
C26	C	0.627013	-0.347993	0.275352
C27	C	0.423364	-0.394664	0.260753
C28	C	0.357932	-0.394653	0.260774
C29	C	0.325007	-0.401316	0.317480
C30	C	0.357523	-0.408007	0.374169
C31	C	0.422956	-0.408023	0.374147
C32	C	0.455874	-0.401347	0.317432
C33	C	0.219310	-0.454680	0.359550
C34	C	0.153875	-0.454654	0.359578
C35	C	0.157942	-0.347870	0.275513
C36	C	0.223376	-0.347892	0.275490
C37	C	0.254056	-0.401301	0.317508
C38	C	0.871906	-0.880264	0.335690
C39	C	0.908456	-0.921535	0.299232
C40	C	0.904899	-1.015942	0.302834
C41	C	0.875462	-0.785848	0.332089
C42	C	1.053550	-0.401276	0.317527
C43	C	1.123192	-0.401258	0.317558
C44	C	0.890155	-0.401276	0.480877
C45	C	0.890168	-0.401257	0.550518
C46	C	0.898498	-0.183862	0.309215
C47	C	0.902065	-0.091194	0.305703
C48	C	0.890133	-0.401303	0.154667
C49	C	0.890250	-0.401087	0.085018
C50	C	0.928266	-0.454395	1.054346
C51	C	0.928254	-0.454422	0.988912
C52	C	0.890233	-0.401125	0.954151
C53	C	0.852210	-0.347813	0.984831
C54	C	0.852219	-0.347794	1.050265
C55	C	0.888164	-0.326043	0.847635
C56	C	0.888160	-0.326060	0.782203
C57	C	0.890203	-0.401184	0.752333
C58	C	0.892263	-0.476293	0.787903
C59	C	0.892272	-0.476274	0.853336
C60	C	0.890219	-0.401140	0.883200
C61	C	0.928207	-0.454526	0.650710
C62	C	0.928190	-0.454553	0.585274
C63	C	0.852150	-0.347938	0.581194
C64	C	0.852163	-0.347917	0.646629
C65	C	0.890195	-0.401210	0.681382
H66	H	0.647924	-0.498275	0.393621
H67	H	0.449428	-0.413468	0.420305
N68	N	0.969198	-0.512053	0.552193
H69	H	0.999528	-0.478165	0.523772
H70	H	0.942204	-0.550700	0.526534
H71	H	0.450166	-0.389234	0.214572
N72	N	0.116398	-0.512241	0.404917
H73	H	0.070290	-0.504125	0.398558
H74	H	0.128381	-0.499356	0.449188
N75	N	0.322864	-0.387444	0.199635
H76	H	0.353649	-0.383215	0.163708
H77	H	0.297707	-0.336070	0.198662
N78	N	0.528485	-0.290396	0.230044
H79	H	0.481760	-0.298492	0.236432
H80	H	0.539386	-0.303307	0.185770
N81	N	0.953442	-0.874424	0.254303
H82	H	0.943178	-0.889581	0.210091
H83	H	0.997630	-0.889465	0.264705
H84	H	0.886486	-0.264902	0.753247
H85	H	0.330717	-0.413431	0.420345
N86	N	0.826919	-0.927370	0.380613
H87	H	0.830724	-0.989111	0.376846
H88	H	0.782735	-0.912282	0.370235
H89	H	0.959233	-0.497793	1.082639
H90	H	0.132957	-0.304391	0.241302
H91	H	0.886542	-0.264859	0.871950
N92	N	0.811135	-0.290458	0.543712
H93	H	0.816896	-0.298560	0.497605
H94	H	0.823178	-0.230908	0.552895
N95	N	0.664486	-0.290406	0.230011
H96	H	0.652555	-0.303266	0.185719
H97	H	0.710582	-0.298542	0.236424
N98	N	0.894486	-0.557273	0.891706
H99	H	0.933941	-0.585639	0.881418
H100	H	0.856791	-0.594534	0.881701
N101	N	0.969258	-0.511923	0.955822
H102	H	0.993350	-0.545679	0.987770
H103	H	0.999553	-0.477979	0.927402
H104	H	0.893928	-0.537466	0.763584
N105	N	0.811198	-0.290332	0.947344
H106	H	0.816962	-0.298431	0.901237
H107	H	0.823241	-0.230782	0.956530
N108	N	0.252404	-0.512280	0.404870
H109	H	0.280897	-0.478461	0.432652
H110	H	0.277991	-0.550867	0.380768
N111	N	0.969222	-0.512004	0.688200
H112	H	0.993301	-0.545784	0.658838
H113	H	0.942238	-0.550584	0.716802
H114	H	0.821209	-0.304505	0.671602
N115	N	0.811213	-0.290295	1.083349
H116	H	0.823231	-0.230726	1.069708
H117	H	0.817006	-0.298441	1.130065
N118	N	0.520027	-0.512344	0.404775
H119	H	0.549392	-0.546179	0.431390
H120	H	0.491360	-0.550869	0.380690
H121	H	0.251666	-0.304425	0.241256
