data_functionalizedCrystal
_audit_creation_method	'MofGen! by Chris Wilmer'
_symmetry_space_group_name_H-M	'P1'
_symmetry_Int_Tables_number	1
_symmetry_cell_setting	triclinic
loop_
_symmetry_equiv_pos_as_xyz
  x,y,z
_cell_length_a	19.188879
_cell_length_b	14.853567
_cell_length_c	17.666332
_cell_angle_alpha	90.006378
_cell_angle_beta	89.983726
_cell_angle_gamma	96.620496
loop_
_atom_site_label
_atom_site_type_symbol
_atom_site_fract_x
_atom_site_fract_y
_atom_site_fract_z
O1	O	-0.091159	1.195843	0.062913
O2	O	-0.102018	0.933320	0.062928
O3	O	0.005044	1.072181	0.062896
O4	O	-0.198221	1.056982	0.062945
O5	O	0.005050	1.072157	-0.063000
O6	O	-0.102012	0.933296	-0.062969
O7	O	-0.091153	1.195818	-0.062984
Cu8	Cu	-0.096582	1.064555	-0.074472
Cu9	Cu	-0.096589	1.064584	0.074416
O10	O	-0.198215	1.056958	-0.062952
C11	C	-0.101523	0.899722	-0.000019
C12	C	-0.100049	0.799647	-0.000014
C13	C	-0.030219	0.387518	-0.000048
C14	C	-0.157411	0.365500	-0.000017
C15	C	-0.158797	0.459526	-0.000014
C16	C	-0.095893	0.517552	-0.000027
C17	C	-0.031603	0.481553	-0.000043
C18	C	-0.223087	0.495532	0.000009
C19	C	-0.224476	0.589563	0.000013
C20	C	-0.161571	0.647591	-0.000005
C21	C	-0.097278	0.611587	-0.000022
C22	C	-0.034374	0.669613	-0.000035
C23	C	0.029920	0.633610	-0.000057
C24	C	0.031302	0.539581	-0.000061
C25	C	-0.162953	0.741621	-0.000001
C26	C	-0.035758	0.763648	-0.000030
C27	C	-0.224232	1.057454	0.000002
C28	C	-0.301743	1.058909	0.000021
C29	C	-0.338125	1.059602	-0.068609
C30	C	-0.410952	1.060993	-0.068623
C31	C	-0.447394	1.061710	-0.000002
C32	C	-0.411004	1.061012	0.068637
C33	C	-0.338178	1.059611	0.068649
N34	N	-0.556594	1.115224	0.051058
N35	N	-0.625775	1.116556	0.051043
C36	C	-0.666812	1.065928	-0.000032
N37	N	-0.636054	1.013929	-0.051102
N38	N	-0.566867	1.012600	-0.051089
C39	C	-0.526360	1.063228	-0.000006
C40	C	-0.782162	1.068128	-0.068681
C41	C	-0.854992	1.069514	-0.068691
C42	C	-0.855041	1.069542	0.068571
C43	C	-0.782214	1.068147	0.068579
C44	C	-0.745778	1.067445	-0.000049
C45	C	0.031060	1.071684	-0.000056
C46	C	0.108572	1.070230	-0.000070
C47	C	-0.091648	1.229416	-0.000035
C48	C	-0.093123	1.329492	-0.000035
N49	N	-0.096577	1.064541	-0.179191
C50	C	-0.049193	1.126049	-0.218815
C51	C	-0.049190	1.126054	-0.298062
C52	C	-0.096582	1.064560	-0.337683
C53	C	-0.143970	1.003042	-0.298050
C54	C	-0.143967	1.003032	-0.218804
N55	N	-0.158352	1.052826	-0.462087
N56	N	-0.158352	1.052841	-0.537367
C57	C	-0.096592	1.064584	-0.576447
N58	N	-0.034830	1.076330	-0.537403
N59	N	-0.034830	1.076320	-0.462115
C60	C	-0.096590	1.064564	-0.423612
C61	C	-0.049201	1.126101	-0.702000
C62	C	-0.049196	1.126100	-0.781249
C63	C	-0.143983	1.003091	-0.781235
C64	C	-0.143981	1.003088	-0.701988
C65	C	-0.096591	1.064598	-0.662375
N66	N	-0.096589	1.064604	0.179135
H67	H	-0.215300	0.770930	0.000015
H68	H	-0.308463	1.059028	-0.124492
H69	H	-0.182568	0.953019	-0.813494
Br70	Br	-0.460338	1.061941	-0.161770
Br71	Br	-0.208284	0.919578	-0.351818
Br72	Br	-0.460457	1.061986	0.161767
H73	H	-0.010610	1.176183	-0.669746
Br74	Br	0.015124	1.209534	-0.351847
H75	H	-0.276827	0.618868	0.000031
H76	H	-0.308557	1.059046	0.124538
H77	H	-0.182568	0.953007	-0.669724
Br78	Br	0.049616	0.842392	-0.000057
H79	H	-0.010607	1.176184	-0.813512
Br80	Br	-0.732834	1.067213	0.161726
H81	H	0.081136	0.680868	-0.000062
H82	H	-0.752496	1.067549	-0.124562
Br83	Br	-0.208278	0.919551	-0.165024
H84	H	0.083646	0.510258	-0.000097
Br85	Br	-0.242777	0.286751	0.000015
Br86	Br	0.057033	0.338661	-0.000084
Br87	Br	-0.904493	1.070472	0.161701
Br88	Br	-0.308451	0.416780	0.000043
H89	H	-0.884613	1.070076	-0.124581
Br90	Br	0.015122	1.209520	-0.165054
