data_functionalizedCrystal
_audit_creation_method	'MofGen! by Chris Wilmer'
_symmetry_space_group_name_H-M	'P1'
_symmetry_Int_Tables_number	1
_symmetry_cell_setting	triclinic
loop_
_symmetry_equiv_pos_as_xyz
  x,y,z
_cell_length_a	21.395362
_cell_length_b	18.050589
_cell_length_c	21.395356
_cell_angle_alpha	89.977927
_cell_angle_beta	89.957023
_cell_angle_gamma	90.044101
loop_
_atom_site_label
_atom_site_type_symbol
_atom_site_fract_x
_atom_site_fract_y
_atom_site_fract_z
Zn1	Zn	0.957864	-0.295363	-0.354610
Zn2	Zn	1.207864	-0.045363	-0.104610
Zn3	Zn	1.457864	0.204637	0.145390
Zn4	Zn	1.707864	0.454637	0.395390
Zn5	Zn	0.957773	-0.419555	-0.249843
Zn6	Zn	1.207773	-0.169555	0.000157
Zn7	Zn	1.457773	0.080445	0.250157
Zn8	Zn	1.707773	0.330445	0.500157
Zn9	Zn	0.853081	-0.295418	-0.249811
Zn10	Zn	1.103081	-0.045418	0.000189
Zn11	Zn	1.353081	0.204582	0.250189
Zn12	Zn	1.603081	0.454582	0.500189
Zn13	Zn	0.853053	-0.419551	-0.354548
Zn14	Zn	1.103053	-0.169551	-0.104548
Zn15	Zn	1.353053	0.080449	0.145452
Zn16	Zn	1.603053	0.330449	0.395452
O17	O	0.905443	-0.357472	-0.302203
O18	O	1.155443	-0.107472	-0.052203
O19	O	1.405443	0.142528	0.197797
O20	O	1.655443	0.392528	0.447797
O21	O	1.045530	-0.311817	-0.340752
O22	O	1.295530	-0.061817	-0.090752
O23	O	1.545530	0.188183	0.159248
O24	O	1.795530	0.438183	0.409248
O25	O	0.943859	-0.403113	-0.162161
O26	O	1.193859	-0.153113	0.087839
O27	O	1.443859	0.096887	0.337839
O28	O	1.693859	0.346887	0.587839
O29	O	0.867031	-0.191486	-0.263726
O30	O	1.117031	0.058514	-0.013726
O31	O	1.367031	0.308514	0.236274
O32	O	1.617031	0.558514	0.486274
O33	O	1.045463	-0.403060	-0.263780
O34	O	1.295463	-0.153060	-0.013780
O35	O	1.545463	0.096940	0.236220
O36	O	1.795463	0.346940	0.486220
O37	O	0.944015	-0.191446	-0.340721
O38	O	1.194015	0.058554	-0.090721
O39	O	1.444015	0.308554	0.159279
O40	O	1.694015	0.558554	0.409279
O41	O	0.866942	-0.311910	-0.162138
O42	O	1.116942	-0.061910	0.087862
O43	O	1.366942	0.188090	0.337862
O44	O	1.616942	0.438090	0.587862
O45	O	0.765399	-0.311905	-0.263665
O46	O	1.015399	-0.061905	-0.013665
O47	O	1.265399	0.188095	0.236335
O48	O	1.515399	0.438095	0.486335
O49	O	0.866983	-0.403052	-0.442234
O50	O	1.116983	-0.153052	-0.192234
O51	O	1.366983	0.096948	0.057766
O52	O	1.616983	0.346948	0.307766
O53	O	0.765379	-0.403105	-0.340615
O54	O	1.015379	-0.153105	-0.090615
O55	O	1.265379	0.096895	0.159385
O56	O	1.515379	0.346895	0.409385
O57	O	0.943987	-0.311812	-0.442280
O58	O	1.193987	-0.061812	-0.192280
O59	O	1.443987	0.188188	0.057720
O60	O	1.693987	0.438188	0.307720
O61	O	0.943832	-0.523479	-0.263719
O62	O	1.193832	-0.273479	-0.013719
O63	O	1.443832	-0.023479	0.236281
O64	O	1.693832	0.226521	0.486281
O65	O	0.866895	-0.523476	-0.340645
O66	O	1.116895	-0.273476	-0.090645
O67	O	1.366895	-0.023476	0.159355
O68	O	1.616895	0.226524	0.409355
C69	C	0.742655	-0.357511	-0.302130
C70	C	0.992655	-0.107511	-0.052130
C71	C	1.242655	0.142489	0.197870
C72	C	1.492655	0.392489	0.447870
C73	C	0.673014	-0.357546	-0.302114
C74	C	0.923014	-0.107546	-0.052114
C75	C	1.173014	0.142454	0.197886
C76	C	1.423014	0.392454	0.447886
C77	C	0.640307	-0.405096	-0.342121
C78	C	0.890307	-0.155096	-0.092121
C79	C	1.140307	0.094904	0.157879
C80	C	1.390307	0.344904	0.407879
C81	C	0.574871	-0.405078	-0.342149
C82	C	0.824871	-0.155078	-0.092149
C83	C	1.074871	0.094922	0.157851
C84	C	1.324871	0.344922	0.407851
C85	C	0.542146	-0.357517	-0.302159
C86	C	0.792146	-0.107517	-0.052159
C87	C	1.042146	0.142483	0.197841
C88	C	1.292146	0.392483	0.447841
C89	C	0.574861	-0.309957	-0.262148
C90	C	0.824861	-0.059957	-0.012148
C91	C	1.074861	0.190043	0.237852
C92	C	1.324861	0.440043	0.487852
C93	C	0.640295	-0.309972	-0.262126
C94	C	0.890295	-0.059972	-0.012126
C95	C	1.140295	0.190028	0.237874
C96	C	1.390295	0.440028	0.487874
C97	C	0.438422	-0.351545	-0.245753
C98	C	0.688422	-0.101545	0.004247
C99	C	0.938422	0.148455	0.254247
C100	C	1.188422	0.398455	0.504247
C101	C	0.372989	-0.351536	-0.245774
C102	C	0.622989	-0.101536	0.004226
C103	C	0.872989	0.148464	0.254226
C104	C	1.122989	0.398464	0.504226
C105	C	0.340325	-0.357469	-0.302228
C106	C	0.590325	-0.107469	-0.052228
C107	C	0.840325	0.142531	0.197772
C108	C	1.090325	0.392531	0.447772
C109	C	0.373102	-0.363426	-0.358662
C110	C	0.623102	-0.113426	-0.108662
C111	C	0.873102	0.136574	0.141338
C112	C	1.123102	0.386574	0.391338
C113	C	0.438536	-0.363440	-0.358640
C114	C	0.688536	-0.113440	-0.108640
C115	C	0.938536	0.136560	0.141360
C116	C	1.188536	0.386560	0.391360
C117	C	0.471193	-0.357496	-0.302179
C118	C	0.721193	-0.107496	-0.052179
C119	C	0.971193	0.142504	0.197821
C120	C	1.221193	0.392504	0.447821
C121	C	0.236665	-0.405002	-0.342269
C122	C	0.486665	-0.155002	-0.092269
C123	C	0.736665	0.094998	0.157731
C124	C	0.986665	0.344998	0.407731
C125	C	0.171228	-0.404979	-0.342298
C126	C	0.421228	-0.154979	-0.092298
C127	C	0.671228	0.095021	0.157702
C128	C	0.921228	0.345021	0.407702
C129	C	0.171220	-0.309862	-0.262291
C130	C	0.421220	-0.059862	-0.012291
C131	C	0.671220	0.190138	0.237709
C132	C	0.921220	0.440138	0.487709
C133	C	0.236655	-0.309881	-0.262268
C134	C	0.486655	-0.059881	-0.012268
C135	C	0.736655	0.190119	0.237732
C136	C	0.986655	0.440119	0.487732
C137	C	0.269374	-0.357455	-0.302256
C138	C	0.519374	-0.107455	-0.052256
C139	C	0.769374	0.142545	0.197744
C140	C	1.019374	0.392545	0.447744
C141	C	0.905367	-0.550424	-0.302192
C142	C	1.155367	-0.300424	-0.052192
C143	C	1.405367	-0.050424	0.197808
C144	C	1.655367	0.199576	0.447808
C145	C	0.905392	-0.632970	-0.302209
C146	C	1.155392	-0.382970	-0.052209
C147	C	1.405392	-0.132970	0.197791
C148	C	1.655392	0.117030	0.447791
C149	C	0.863595	-0.832445	-0.344027
C150	C	1.113595	-0.582445	-0.094027
C151	C	1.363595	-0.332445	0.155973
C152	C	1.613595	-0.082445	0.405973
C153	C	0.848318	-0.881889	-0.286848
C154	C	1.098318	-0.631889	-0.036848
C155	C	1.348318	-0.381889	0.213152
C156	C	1.598318	-0.131889	0.463152
C157	C	0.905454	-0.784100	-0.302217
C158	C	1.155454	-0.534100	-0.052217
C159	C	1.405454	-0.284100	0.197783
C160	C	1.655454	-0.034100	0.447783
C161	C	0.920762	-0.881738	-0.359402
C162	C	1.170762	-0.631738	-0.109402
C163	C	1.420762	-0.381738	0.140598
C164	C	1.670762	-0.131738	0.390598
C165	C	0.905512	-0.930085	-0.302230
C166	C	1.155512	-0.680085	-0.052230
C167	C	1.405512	-0.430085	0.197770
C168	C	1.655512	-0.180085	0.447770
C169	C	0.890147	-0.832456	-0.245009
C170	C	1.140147	-0.582456	0.004991
C171	C	1.390147	-0.332456	0.254991
C172	C	1.640147	-0.082456	0.504991
C173	C	0.962617	-0.832301	-0.317601
C174	C	1.212617	-0.582301	-0.067601
C175	C	1.462617	-0.332301	0.182399
C176	C	1.712617	-0.082301	0.432399
C177	C	0.947362	-0.881722	-0.260383
C178	C	1.197362	-0.631722	-0.010383
C179	C	1.447362	-0.381722	0.239617
C180	C	1.697362	-0.131722	0.489617
C181	C	0.905419	-0.700002	-0.302211
C182	C	1.155419	-0.450002	-0.052211
C183	C	1.405419	-0.200002	0.197789
C184	C	1.655419	0.049998	0.447789
C185	C	0.905547	-1.014182	-0.302230
C186	C	1.155547	-0.764182	-0.052230
C187	C	1.405547	-0.514182	0.197770
C188	C	1.655547	-0.264182	0.447770
C189	C	1.068866	-0.357433	-0.302276
C190	C	1.318866	-0.107433	-0.052276
C191	C	1.568866	0.142567	0.197724
C192	C	1.818866	0.392567	0.447724
C193	C	1.138508	-0.357416	-0.302307
C194	C	1.388508	-0.107416	-0.052307
C195	C	1.638508	0.142584	0.197693
C196	C	1.888508	0.392584	0.447693
C197	C	0.905492	-0.357426	-0.465626
C198	C	1.155492	-0.107426	-0.215626
C199	C	1.405492	0.142574	0.034374
C200	C	1.655492	0.392574	0.284374
C201	C	0.905513	-0.357406	-0.535268
C202	C	1.155513	-0.107406	-0.285268
C203	C	1.405513	0.142594	-0.035268
C204	C	1.655513	0.392594	0.214732
C205	C	0.905536	-0.163766	-0.302227
C206	C	1.155536	0.086234	-0.052227
C207	C	1.405536	0.336234	0.197773
C208	C	1.655536	0.586234	0.447773
C209	C	0.905576	-0.081220	-0.302237
C210	C	1.155576	0.168780	-0.052237
C211	C	1.405576	0.418780	0.197763
C212	C	1.655576	0.668780	0.447763
C213	C	0.865473	-0.309911	-0.567959
C214	C	1.115473	-0.059911	-0.317959
C215	C	1.365473	0.190089	-0.067959
C216	C	1.615473	0.440089	0.182041
C217	C	0.865471	-0.309898	-0.633394
C218	C	1.115471	-0.059898	-0.383394
C219	C	1.365471	0.190102	-0.133394
C220	C	1.615471	0.440102	0.116606
C221	C	0.905520	-0.357371	-0.666136
C222	C	1.155520	-0.107371	-0.416136
C223	C	1.405520	0.142629	-0.166136
C224	C	1.655520	0.392629	0.083864
C225	C	0.945563	-0.404875	-0.633437
C226	C	1.195563	-0.154875	-0.383437
C227	C	1.445563	0.095125	-0.133437
C228	C	1.695563	0.345125	0.116563
C229	C	0.945559	-0.404892	-0.568003
C230	C	1.195559	-0.154892	-0.318003
C231	C	1.445559	0.095108	-0.068003
C232	C	1.695559	0.345108	0.181997
C233	C	0.961972	-0.363191	-0.769842
C234	C	1.211972	-0.113191	-0.519842
C235	C	1.461972	0.136809	-0.269842
C236	C	1.711972	0.386809	-0.019842
C237	C	0.961977	-0.363168	-0.835275
C238	C	1.211977	-0.113168	-0.585275
C239	C	1.461977	0.136832	-0.335275
C240	C	1.711977	0.386832	-0.085275
C241	C	0.905530	-0.357321	-0.867957
C242	C	1.155530	-0.107321	-0.617957
C243	C	1.405530	0.142679	-0.367957
C244	C	1.655530	0.392679	-0.117957
C245	C	0.849078	-0.351480	-0.835198
C246	C	1.099078	-0.101480	-0.585198
C247	C	1.349078	0.148520	-0.335198
C248	C	1.599078	0.398520	-0.085198
C249	C	0.849074	-0.351498	-0.769764
C250	C	1.099074	-0.101498	-0.519764
C251	C	1.349074	0.148502	-0.269764
C252	C	1.599074	0.398502	-0.019764
C253	C	0.905528	-0.357357	-0.737088
C254	C	1.155528	-0.107357	-0.487088
C255	C	1.405528	0.142643	-0.237088
C256	C	1.655528	0.392643	0.012912
C257	C	0.865485	-0.309808	-0.971601
C258	C	1.115485	-0.059808	-0.721601
C259	C	1.365485	0.190192	-0.471601
C260	C	1.615485	0.440192	-0.221601
C261	C	0.865482	-0.309800	-1.037037
C262	C	1.115482	-0.059800	-0.787037
C263	C	1.365482	0.190200	-0.537037
C264	C	1.615482	0.440200	-0.287037
C265	C	0.945579	-0.404773	-1.037079
C266	C	1.195579	-0.154773	-0.787079
C267	C	1.445579	0.095227	-0.537079
C268	C	1.695579	0.345227	-0.287079
C269	C	0.945577	-0.404786	-0.971643
C270	C	1.195577	-0.154786	-0.721643
C271	C	1.445577	0.095214	-0.471643
C272	C	1.695577	0.345214	-0.221643
C273	C	0.905530	-0.357299	-0.938908
C274	C	1.155530	-0.107299	-0.688908
C275	C	1.405530	0.142701	-0.438908
C276	C	1.655530	0.392701	-0.188908
C277	C	0.905430	-0.357464	-0.139415
C278	C	1.155430	-0.107464	0.110585
C279	C	1.405430	0.142536	0.360585
C280	C	1.655430	0.392536	0.610585
C281	C	0.905530	-0.357274	-0.069774
C282	C	1.155530	-0.107274	0.180226
C283	C	1.405530	0.142726	0.430226
C284	C	1.655530	0.392726	0.680226
H285	H	0.263306	-0.443736	-0.374833
H286	H	0.513306	-0.193736	-0.124833
H287	H	0.763306	0.056264	0.125167
H288	H	1.013306	0.306264	0.375167
H289	H	1.010920	-0.810506	-0.330628
H290	H	1.260920	-0.560506	-0.080628
H291	H	1.510920	-0.310506	0.169372
H292	H	1.760920	-0.060506	0.419372
H293	H	0.978167	-0.443568	-0.541386
H294	H	1.228167	-0.193568	-0.291386
H295	H	1.478167	0.056432	-0.041386
H296	H	1.728167	0.306432	0.208614
Cl297	Cl	0.808865	-0.799035	-0.398539
Cl298	Cl	1.058865	-0.549035	-0.148539
Cl299	Cl	1.308865	-0.299035	0.101461
Cl300	Cl	1.558865	-0.049035	0.351461
H301	H	0.803109	-0.346744	-0.743094
H302	H	1.053109	-0.096744	-0.493094
H303	H	1.303109	0.153256	-0.243094
H304	H	1.553109	0.403256	0.006906
Cl305	Cl	0.815127	-0.250218	-0.526809
Cl306	Cl	1.065127	-0.000218	-0.276809
Cl307	Cl	1.315127	0.249782	-0.026809
Cl308	Cl	1.565127	0.499782	0.223191
H309	H	0.978189	-0.443425	-1.063736
H310	H	1.228189	-0.193425	-0.813736
H311	H	1.478189	0.056575	-0.563736
H312	H	1.728189	0.306575	-0.313736
Cl313	Cl	0.940716	-0.915164	-0.434057
Cl314	Cl	1.190716	-0.665164	-0.184057
Cl315	Cl	1.440716	-0.415164	0.065943
Cl316	Cl	1.690716	-0.165164	0.315943
Cl317	Cl	0.815145	-0.250169	-0.674500
Cl318	Cl	1.065145	-0.000169	-0.424500
Cl319	Cl	1.315145	0.249831	-0.174500
Cl320	Cl	1.565145	0.499831	0.075500
H321	H	0.666925	-0.271248	-0.229547
H322	H	0.916925	-0.021248	0.020453
H323	H	1.166925	0.228752	0.270453
H324	H	1.416925	0.478752	0.520453
Cl325	Cl	0.995920	-0.464492	-0.930543
Cl326	Cl	1.245920	-0.214492	-0.680543
Cl327	Cl	1.495920	0.035508	-0.430543
Cl328	Cl	1.745920	0.285508	-0.180543
H329	H	0.803114	-0.346714	-0.861806
H330	H	1.053114	-0.096714	-0.611806
H331	H	1.303114	0.153286	-0.361806
H332	H	1.553114	0.403286	-0.111806
Cl333	Cl	0.815123	-0.250107	-1.078135
Cl334	Cl	1.065123	-0.000107	-0.828135
Cl335	Cl	1.315123	0.249893	-0.578135
Cl336	Cl	1.565123	0.499893	-0.328135
Cl337	Cl	0.773721	-0.915515	-0.266761
Cl338	Cl	1.023721	-0.665515	-0.016761
Cl339	Cl	1.273721	-0.415515	0.233239
Cl340	Cl	1.523721	-0.165515	0.483239
H341	H	0.832876	-0.271143	-0.944946
H342	H	1.082876	-0.021143	-0.694946
H343	H	1.332876	0.228857	-0.444946
H344	H	1.582876	0.478857	-0.194946
H345	H	1.007944	-0.367920	-0.861942
H346	H	1.257944	-0.117920	-0.611942
H347	H	1.507944	0.132080	-0.361942
H348	H	1.757944	0.382080	-0.111942
Cl349	Cl	0.995907	-0.464559	-0.674597
Cl350	Cl	1.245907	-0.214559	-0.424597
Cl351	Cl	1.495907	0.035441	-0.174597
Cl352	Cl	1.745907	0.285441	0.075403
H353	H	0.877166	-0.810898	-0.196640
H354	H	1.127166	-0.560898	0.053360
H355	H	1.377166	-0.310898	0.303360
H356	H	1.627166	-0.060898	0.553360
Cl357	Cl	1.032940	-0.370548	-0.728763
Cl358	Cl	1.282940	-0.120548	-0.478763
Cl359	Cl	1.532940	0.129452	-0.228763
Cl360	Cl	1.782940	0.379452	0.021237
H361	H	0.548236	-0.443799	-0.374731
H362	H	0.798236	-0.193799	-0.124731
H363	H	1.048236	0.056201	0.125269
H364	H	1.298236	0.306201	0.375269
Cl365	Cl	0.681435	-0.464900	-0.392395
Cl366	Cl	0.931435	-0.214900	-0.142395
Cl367	Cl	1.181435	0.035100	0.107605
Cl368	Cl	1.431435	0.285100	0.357605
Cl369	Cl	0.533721	-0.250163	-0.211877
Cl370	Cl	0.783721	-0.000163	0.038123
Cl371	Cl	1.033721	0.249837	0.288123
Cl372	Cl	1.283721	0.499837	0.538123
H373	H	0.263286	-0.271164	-0.229686
H374	H	0.513286	-0.021164	0.020314
H375	H	0.763286	0.228836	0.270314
H376	H	1.013286	0.478836	0.520314
Cl377	Cl	1.002055	-0.914920	-0.205743
Cl378	Cl	1.252055	-0.664920	0.044257
Cl379	Cl	1.502055	-0.414920	0.294257
Cl380	Cl	1.752055	-0.164920	0.544257
H381	H	0.465221	-0.368289	-0.404590
H382	H	0.715221	-0.118289	-0.154590
H383	H	0.965221	0.131711	0.095410
H384	H	1.215221	0.381711	0.345410
Cl385	Cl	0.130110	-0.464758	-0.392602
Cl386	Cl	0.380110	-0.214758	-0.142602
Cl387	Cl	0.630110	0.035242	0.107398
Cl388	Cl	0.880110	0.285242	0.357398
Cl389	Cl	0.332047	-0.370880	-0.429638
Cl390	Cl	0.582047	-0.120880	-0.179638
Cl391	Cl	0.832047	0.129120	0.070362
Cl392	Cl	1.082047	0.379120	0.320362
H393	H	0.346307	-0.346690	-0.199822
H394	H	0.596307	-0.096690	0.050178
H395	H	0.846307	0.153310	0.300178
H396	H	1.096307	0.403310	0.550178
Cl397	Cl	0.130085	-0.250065	-0.212020
Cl398	Cl	0.380085	-0.000065	0.037980
Cl399	Cl	0.630085	0.249935	0.287980
Cl400	Cl	0.880085	0.499935	0.537980
Cl401	Cl	0.479478	-0.344089	-0.174775
Cl402	Cl	0.729478	-0.094089	0.075225
Cl403	Cl	0.979478	0.155911	0.325225
Cl404	Cl	1.229478	0.405911	0.575225
