data_functionalizedCrystal
_audit_creation_method	'MofGen! by Chris Wilmer'
_symmetry_space_group_name_H-M	'P1'
_symmetry_Int_Tables_number	1
_symmetry_cell_setting	triclinic
loop_
_symmetry_equiv_pos_as_xyz
  x,y,z
_cell_length_a	11.026660
_cell_length_b	10.967829
_cell_length_c	9.482900
_cell_angle_alpha	87.494390
_cell_angle_beta	78.636107
_cell_angle_gamma	96.379957
loop_
_atom_site_label
_atom_site_type_symbol
_atom_site_fract_x
_atom_site_fract_y
_atom_site_fract_z
O1	O	1.652480	0.492544	-0.244293
O2	O	1.296430	0.434769	-0.229820
O3	O	1.475828	0.289372	-0.193388
O4	O	1.473082	0.637941	-0.280725
O5	O	1.439395	0.319057	0.040966
O6	O	1.259997	0.464454	0.004534
O7	O	1.616047	0.522229	-0.009939
Cu8	Cu	1.434696	0.496052	0.018696
Cu9	Cu	1.477781	0.460946	-0.258455
O10	O	1.436650	0.667627	-0.046371
C11	C	1.232496	0.438953	-0.109973
C12	C	1.096273	0.407179	-0.102013
C13	C	0.885844	0.462084	-0.115775
C14	C	1.026637	0.494926	-0.124000
C15	C	1.454659	0.258896	-0.064859
C16	C	1.445847	0.123858	-0.031034
C17	C	1.460792	0.048282	-0.137357
C18	C	1.451685	-0.091287	-0.102399
C19	C	1.679981	0.518045	-0.129789
C20	C	1.816206	0.549817	-0.137758
C21	C	1.457819	0.698102	-0.174903
C22	C	1.466632	0.833139	-0.208738
N23	N	1.404400	0.520745	0.213629
N24	N	1.508086	0.436246	-0.453386
C25	C	1.468837	0.468221	0.298989
C26	C	1.443640	0.488777	0.461255
H27	H	0.860819	0.649245	-0.162661
H28	H	1.480324	0.086905	-0.254264
O29	O	0.832653	0.343478	-0.085804
C30	C	0.850705	0.300841	0.050084
H31	H	0.867305	0.382509	0.117152
H32	H	0.935029	0.247723	0.035079
C33	C	0.713704	0.115392	0.045820
C34	C	0.734082	0.215698	0.128198
H35	H	0.641769	0.062867	0.094003
H36	H	0.701545	0.144114	-0.045733
H37	H	0.783983	0.071142	0.033322
H38	H	0.663812	0.259954	0.140680
H39	H	0.746227	0.186981	0.219756
H40	H	1.426302	0.085234	0.085874
O41	O	1.079752	0.613599	-0.153480
C42	C	1.023970	0.686982	-0.046663
H43	H	0.980987	0.626807	0.055944
H44	H	0.948184	0.733153	-0.086549
C45	C	1.176270	0.859967	-0.140730
C46	C	1.123486	0.786061	-0.014703
H47	H	1.237653	0.921088	-0.121018
H48	H	1.213849	0.810530	-0.212698
H49	H	1.113104	0.898431	-0.173955
H50	H	1.186649	0.747587	0.018510
H51	H	1.085920	0.835494	0.057272
H52	H	1.542653	0.408029	0.251943
O53	O	1.428530	-0.137192	0.037134
C54	C	1.523940	-0.087273	0.104852
H55	H	1.570746	0.003374	0.044821
H56	H	1.595902	-0.154489	0.103303
C57	C	1.410238	-0.175730	0.335740
C58	C	1.467719	-0.064390	0.262016
H59	H	1.375561	-0.161620	0.432688
H60	H	1.345960	-0.209366	0.290117
H61	H	1.470216	-0.231732	0.334434
H62	H	1.407738	-0.008396	0.263308
H63	H	1.531986	-0.030745	0.307643
O64	O	1.355482	0.560426	0.517566
C65	C	1.263362	0.490094	0.623222
H66	H	1.304042	0.408450	0.666318
H67	H	1.181085	0.455340	0.573378
C68	C	1.168962	0.670776	0.694822
C69	C	1.218929	0.570506	0.747761
H70	H	1.141548	0.720377	0.771641
H71	H	1.231022	0.718160	0.623636
H72	H	1.100404	0.641799	0.653285
H73	H	1.287495	0.599483	0.789280
H74	H	1.156880	0.523128	0.818957
O75	O	1.043085	0.288568	-0.072039
C76	C	1.061137	0.245932	0.063850
H77	H	1.077739	0.327601	0.130915
H78	H	1.145459	0.192812	0.048845
C79	C	0.924131	0.060485	0.059589
C80	C	0.944512	0.160792	0.141965
H81	H	0.852195	0.007963	0.107774
H82	H	0.911972	0.089207	-0.031964
H83	H	0.994408	0.016233	0.047092
H84	H	0.874243	0.205051	0.154446
H85	H	0.956656	0.132076	0.233523
O86	O	1.595991	0.364162	0.490790
C87	C	1.564312	0.244537	0.558100
H88	H	1.459795	0.228216	0.604055
H89	H	1.617162	0.234307	0.649024
C90	C	1.727872	0.169776	0.390286
C91	C	1.599500	0.149727	0.446717
H92	H	1.749581	0.111292	0.321583
H93	H	1.749218	0.250371	0.344940
H94	H	1.771898	0.161253	0.466068
H95	H	1.555476	0.158265	0.370939
H96	H	1.578146	0.069131	0.492048
H97	H	1.486156	-0.128247	-0.325654
H98	H	1.330575	0.580926	0.260679
