data_functionalizedCrystal
_audit_creation_method	'MofGen! by Chris Wilmer'
_symmetry_space_group_name_H-M	'P1'
_symmetry_Int_Tables_number	1
_symmetry_cell_setting	triclinic
loop_
_symmetry_equiv_pos_as_xyz
  x,y,z
_cell_length_a	19.805405
_cell_length_b	17.077404
_cell_length_c	17.077396
_cell_angle_alpha	89.980499
_cell_angle_beta	89.968350
_cell_angle_gamma	90.026635
loop_
_atom_site_label
_atom_site_type_symbol
_atom_site_fract_x
_atom_site_fract_y
_atom_site_fract_z
Zn1	Zn	-0.269459	1.200035	-0.443825
Zn2	Zn	0.230541	1.700035	0.056175
Zn3	Zn	-0.382652	1.199934	-0.312552
Zn4	Zn	0.117348	1.699934	0.187448
Zn5	Zn	-0.269483	1.068767	-0.312573
Zn6	Zn	0.230517	1.568767	0.187427
Zn7	Zn	-0.382612	1.068727	-0.443776
Zn8	Zn	0.117388	1.568727	0.056224
O9	O	-0.326052	1.134366	-0.378182
O10	O	0.173948	1.634366	0.121818
O11	O	-0.284481	1.309869	-0.426424
O12	O	0.215519	1.809869	0.073576
O13	O	-0.367667	1.182509	-0.202708
O14	O	0.132333	1.682509	0.297292
O15	O	-0.174763	1.086239	-0.330014
O16	O	0.325237	1.586239	0.169986
O17	O	-0.367644	1.309795	-0.329978
O18	O	0.132356	1.809795	0.170022
O19	O	-0.174746	1.182681	-0.426444
O20	O	0.325254	1.682681	0.073556
O21	O	-0.284522	1.086141	-0.202724
O22	O	0.215478	1.586141	0.297276
O23	O	-0.284483	0.958915	-0.329966
O24	O	0.215517	1.458915	0.170034
O25	O	-0.367575	1.086171	-0.553629
O26	O	0.132425	1.586171	-0.053629
O27	O	-0.367598	0.958886	-0.426360
O28	O	0.132402	1.458886	0.073640
O29	O	-0.284442	1.182643	-0.553666
O30	O	0.215558	1.682643	-0.053666
O31	O	-0.477363	1.182470	-0.329930
O32	O	0.022637	1.682470	0.170070
O33	O	-0.477334	1.086073	-0.426339
O34	O	0.022666	1.586073	0.073661
C35	C	-0.326039	0.930418	-0.378160
C36	C	0.173961	1.430418	0.121840
C37	C	-0.326050	0.843168	-0.378169
C38	C	0.173950	1.343168	0.121831
C39	C	-0.501908	1.134278	-0.378144
C40	C	-0.001908	1.634278	0.121856
C41	C	-0.577140	1.134312	-0.378154
C42	C	-0.077140	1.634312	0.121846
C43	C	-0.369394	0.802183	-0.428281
C44	C	0.130606	1.302183	0.071719
C45	C	-0.369395	0.720203	-0.428294
C46	C	0.130605	1.220203	0.071706
C47	C	-0.326056	0.679209	-0.378190
C48	C	0.173944	1.179209	0.121810
C49	C	-0.282708	0.720200	-0.328076
C50	C	0.217292	1.220200	0.171924
C51	C	-0.282703	0.802179	-0.328068
C52	C	0.217297	1.302179	0.171932
C53	C	-0.282721	0.549330	-0.328095
C54	C	0.217279	1.049330	0.171905
C55	C	-0.282726	0.467345	-0.328102
C56	C	0.217274	0.967345	0.171898
C57	C	-0.369413	0.467354	-0.428321
C58	C	0.130587	0.967354	0.071679
C59	C	-0.369409	0.549333	-0.428313
C60	C	0.130591	1.049333	0.071687
C61	C	-0.326061	0.590318	-0.378197
C62	C	0.173939	1.090318	0.121803
C63	C	-0.612477	1.184555	-0.328006
C64	C	-0.112477	1.684555	0.171994
C65	C	-0.683165	1.184588	-0.328023
C66	C	-0.183165	1.684588	0.171977
C67	C	-0.718515	1.134374	-0.378185
C68	C	-0.218515	1.634374	0.121815
C69	C	-0.683173	1.084129	-0.428338
C70	C	-0.183173	1.584129	0.071662
C71	C	-0.612486	1.084100	-0.428324
C72	C	-0.112486	1.584100	0.071676
C73	C	-0.968246	1.084245	-0.428397
C74	C	-0.468246	1.584245	0.071603
C75	C	-1.038938	1.084276	-0.428405
C76	C	-0.538938	1.584276	0.071595
C77	C	-1.038925	1.184733	-0.328095
C78	C	-0.538925	1.684733	0.171905
C79	C	-0.968238	1.184704	-0.328081
C80	C	-0.468238	1.684704	0.171919
C81	C	-0.932902	1.134462	-0.378237
C82	C	-0.432902	1.634462	0.121763
C83	C	-0.856254	1.134427	-0.378219
C84	C	-0.356254	1.634427	0.121781
C85	C	-0.795162	1.134404	-0.378200
C86	C	-0.295162	1.634404	0.121800
C87	C	-0.149509	1.134476	-0.378237
C88	C	0.350491	1.634476	0.121763
C89	C	-0.074277	1.134523	-0.378261
C90	C	0.425723	1.634523	0.121739
C91	C	-0.326002	1.134414	-0.582926
C92	C	0.173998	1.634414	-0.082926
C93	C	-0.325980	1.134434	-0.670176
C94	C	0.174020	1.634434	-0.170176
C95	C	-0.326064	1.339110	-0.378204
C96	C	0.173936	1.839110	0.121796
C97	C	-0.326070	1.426360	-0.378213
C98	C	0.173930	1.926360	0.121787
C99	C	-0.282690	1.184668	-0.711186
C100	C	0.217310	1.684668	-0.211186
C101	C	-0.282667	1.184678	-0.793167
C102	C	0.217333	1.684678	-0.293167
C103	C	-0.325939	1.134456	-0.834135
C104	C	0.174061	1.634456	-0.334135
C105	C	-0.369232	1.084216	-0.793119
C106	C	0.130768	1.584216	-0.293119
C107	C	-0.369251	1.084203	-0.711140
C108	C	0.130749	1.584203	-0.211140
C109	C	-0.369191	1.084248	-0.963989
C110	C	0.130809	1.584248	-0.463989
C111	C	-0.369174	1.084261	-1.045974
C112	C	0.130826	1.584261	-0.545974
C113	C	-0.282608	1.184722	-1.046016
C114	C	0.217392	1.684722	-0.546016
C115	C	-0.282626	1.184709	-0.964037
C116	C	0.217374	1.684709	-0.464037
C117	C	-0.325920	1.134470	-0.923026
C118	C	0.174080	1.634470	-0.423026
C119	C	-0.326052	1.134364	-0.174234
C120	C	0.173948	1.634364	0.325766
C121	C	-0.325883	1.134496	-0.086984
C122	C	0.174117	1.634496	0.413016
H123	H	-0.404688	0.835555	-0.469079
H124	H	0.095312	1.335555	0.030921
O125	O	-0.235911	1.238908	-1.090248
O126	O	0.264089	1.738908	-0.590248
H127	H	-0.205832	1.273835	-1.047987
H128	H	0.294168	1.773835	-0.547987
H129	H	-0.404691	0.686837	-0.469099
H130	H	0.095309	1.186837	0.030901
O131	O	-0.416149	0.593553	-0.482354
O132	O	0.083851	1.093553	0.017646
H133	H	-0.446286	0.551283	-0.517210
H134	H	0.053714	1.051283	-0.017210
O135	O	-0.416164	0.423156	-0.482382
O136	O	0.083836	0.923156	0.017618
H137	H	-0.408881	0.359264	-0.473980
H138	H	0.091119	0.859264	0.026020
H139	H	-0.247405	0.835548	-0.287266
H140	H	0.252595	1.335548	0.212734
O141	O	-0.415933	1.030012	-0.666901
O142	O	0.084067	1.530012	-0.166901
H143	H	-0.446021	0.995091	-0.709160
H144	H	0.053979	1.495091	-0.209160
O145	O	-0.930109	1.238867	-0.273984
O146	O	-0.430109	1.738867	0.226016
H147	H	-0.966557	1.273817	-0.239121
H148	H	-0.466557	1.773817	0.260879
H149	H	-0.247417	0.582697	-0.287293
H150	H	0.252583	1.082697	0.212707
H151	H	-0.247417	0.686816	-0.287284
H152	H	0.252583	1.186816	0.212716
O153	O	-0.235977	0.423125	-0.274072
O154	O	0.264023	0.923125	0.225928
H155	H	-0.205825	0.465395	-0.239232
H156	H	0.294175	0.965395	0.260768
O157	O	-0.415833	1.030085	-1.090169
O158	O	0.084167	1.530085	-0.590169
H159	H	-0.468964	1.043492	-1.074422
H160	H	0.031036	1.543492	-0.574422
H161	H	-1.067704	1.225645	-0.287259
H162	H	-0.567704	1.725645	0.212741
O163	O	-0.415881	1.030057	-0.919752
O164	O	0.084119	1.530057	-0.419752
H165	H	-0.445972	0.995140	-0.962011
H166	H	0.054028	1.495140	-0.462011
O167	O	-0.574349	1.238718	-0.273906
O168	O	-0.074349	1.738718	0.226094
H169	H	-0.610800	1.273666	-0.239045
H170	H	-0.110800	1.773666	0.260955
H171	H	-0.711933	1.225500	-0.287187
H172	H	-0.211933	1.725500	0.212813
O173	O	-1.077071	1.030120	-0.482516
O174	O	-0.577071	1.530120	0.017484
H175	H	-1.040624	0.995184	-0.517397
H176	H	-0.540624	1.495184	-0.017397
O177	O	-0.415900	1.030040	-0.837303
O178	O	0.084100	1.530040	-0.337303
H179	H	-0.450336	1.065154	-0.874644
H180	H	0.049664	1.565154	-0.374644
O181	O	-0.930137	1.030034	-0.482466
O182	O	-0.430137	1.530034	0.017534
H183	H	-0.966596	0.995110	-0.517333
H184	H	-0.466596	1.495110	-0.017333
H185	H	-0.711961	1.043247	-0.469184
H186	H	-0.211961	1.543247	0.030816
H187	H	-0.583715	1.043188	-0.469161
H188	H	-0.083715	1.543188	0.030839
H189	H	-0.247454	1.225567	-0.677836
H190	H	0.252546	1.725567	-0.177836
H191	H	-0.247417	1.225586	-0.826554
H192	H	0.252583	1.725586	-0.326554
H193	H	-0.247394	1.225609	-0.930683
H194	H	0.252606	1.725609	-0.430683
