data_functionalizedCrystal
_audit_creation_method	'MofGen! by Chris Wilmer'
_symmetry_space_group_name_H-M	'P1'
_symmetry_Int_Tables_number	1
_symmetry_cell_setting	triclinic
loop_
_symmetry_equiv_pos_as_xyz
  x,y,z
_cell_length_a	18.101398
_cell_length_b	18.101395
_cell_length_c	18.101389
_cell_angle_alpha	89.979213
_cell_angle_beta	89.977624
_cell_angle_gamma	90.026371
loop_
_atom_site_label
_atom_site_type_symbol
_atom_site_fract_x
_atom_site_fract_y
_atom_site_fract_z
Zn1	Zn	1.132107	-0.294972	-0.418847
Zn2	Zn	1.465440	0.038361	-0.085514
Zn3	Zn	1.798773	0.371695	0.247820
Zn4	Zn	1.132007	-0.418806	-0.295009
Zn5	Zn	1.465340	-0.085473	0.038325
Zn6	Zn	1.798674	0.247861	0.371658
Zn7	Zn	1.008270	-0.294973	-0.295008
Zn8	Zn	1.341603	0.038361	0.038325
Zn9	Zn	1.674937	0.371694	0.371659
Zn10	Zn	1.008216	-0.418766	-0.418797
Zn11	Zn	1.341550	-0.085433	-0.085464
Zn12	Zn	1.674883	0.247901	0.247869
O13	O	1.070150	-0.356879	-0.356915
O14	O	1.403483	-0.023546	-0.023582
O15	O	1.736817	0.309787	0.309751
O16	O	1.235726	-0.311415	-0.402440
O17	O	1.569060	0.021918	-0.069107
O18	O	1.902393	0.355251	0.264226
O19	O	1.115573	-0.402397	-0.191376
O20	O	1.448907	-0.069063	0.141958
O21	O	1.782240	0.264270	0.475291
O22	O	1.024761	-0.191340	-0.311456
O23	O	1.358095	0.141994	0.021877
O24	O	1.691428	0.475327	0.355211
O25	O	1.235653	-0.402396	-0.311457
O26	O	1.568986	-0.069062	0.021876
O27	O	1.902320	0.264271	0.355210
O28	O	1.115744	-0.191339	-0.402440
O29	O	1.449077	0.141994	-0.069106
O30	O	1.782410	0.475328	0.264227
O31	O	1.024664	-0.311417	-0.191375
O32	O	1.357998	0.021917	0.141958
O33	O	1.691331	0.355250	0.475292
O34	O	0.904630	-0.311378	-0.311408
O35	O	1.237963	0.021956	0.021925
O36	O	1.571297	0.355289	0.355259
O37	O	1.024670	-0.402327	-0.522437
O38	O	1.358004	-0.068994	-0.189103
O39	O	1.691337	0.264339	0.144230
O40	O	0.904591	-0.402328	-0.402355
O41	O	1.237924	-0.068995	-0.069022
O42	O	1.571257	0.264339	0.264311
O43	O	1.115692	-0.311376	-0.522473
O44	O	1.449025	0.021957	-0.189140
O45	O	1.782359	0.355290	0.144193
O46	O	1.115522	-0.522434	-0.311409
O47	O	1.448855	-0.189100	0.021924
O48	O	1.782188	0.144233	0.355258
O49	O	1.024573	-0.522404	-0.402356
O50	O	1.357907	-0.189071	-0.069023
O51	O	1.691240	0.144263	0.264311
C52	C	0.877739	-0.356849	-0.356877
C53	C	1.211073	-0.023516	-0.023543
C54	C	1.544406	0.309818	0.309790
C55	C	0.795425	-0.356854	-0.356878
C56	C	1.128759	-0.023521	-0.023544
C57	C	1.462092	0.309813	0.309789
C58	C	0.496334	-0.356900	-0.356940
C59	C	0.829668	-0.023567	-0.023606
C60	C	1.163001	0.309766	0.309727
C61	C	0.527660	-0.299391	-0.299997
C62	C	0.860993	0.033942	0.033336
C63	C	1.194326	0.367276	0.366669
C64	C	0.613278	-0.299545	-0.299754
C65	C	0.946611	0.033788	0.033579
C66	C	1.279944	0.367122	0.366912
C67	C	0.644717	-0.356877	-0.356909
C68	C	0.978050	-0.023543	-0.023576
C69	C	1.311384	0.309790	0.309758
C70	C	0.613600	-0.434886	-0.335587
C71	C	0.946933	-0.101553	-0.002253
C72	C	1.280266	0.231780	0.331080
C73	C	0.527954	-0.434567	-0.335191
C74	C	0.861288	-0.101233	-0.001857
C75	C	1.194621	0.232100	0.331476
C76	C	0.527946	-0.337079	-0.435339
C77	C	0.861280	-0.003745	-0.102005
C78	C	1.194613	0.329588	0.231328
C79	C	0.613597	-0.335341	-0.434911
C80	C	0.946930	-0.002008	-0.101577
C81	C	1.280264	0.331325	0.231756
C82	C	0.728576	-0.356868	-0.356893
C83	C	1.061910	-0.023535	-0.023559
C84	C	1.395243	0.309798	0.309774
C85	C	0.412475	-0.356914	-0.356954
C86	C	0.745808	-0.023581	-0.023621
C87	C	1.079142	0.309753	0.309712
C88	C	1.070051	-0.549290	-0.356893
C89	C	1.403384	-0.215956	-0.023560
C90	C	1.736718	0.117377	0.309773
C91	C	1.070076	-0.631604	-0.356909
C92	C	1.403410	-0.298271	-0.023576
C93	C	1.736743	0.035063	0.309758
C94	C	1.070239	-0.930695	-0.356949
C95	C	1.403572	-0.597361	-0.023615
C96	C	1.736905	-0.264028	0.309718
C97	C	1.013149	-0.899382	-0.414312
C98	C	1.346483	-0.566049	-0.080979
C99	C	1.679816	-0.232715	0.252354
C100	C	1.012878	-0.813764	-0.414133
C101	C	1.346211	-0.480431	-0.080799
C102	C	1.679545	-0.147097	0.252534
C103	C	1.070158	-0.782312	-0.356930
C104	C	1.403491	-0.448979	-0.023596
C105	C	1.736825	-0.115646	0.309737
C106	C	1.049032	-0.813453	-0.278878
C107	C	1.382365	-0.480120	0.054455
C108	C	1.715698	-0.146786	0.387789
C109	C	1.048664	-0.899098	-0.279221
C110	C	1.381997	-0.565765	0.054112
C111	C	1.715330	-0.232431	0.387445
C112	C	1.148580	-0.899047	-0.376950
C113	C	1.481913	-0.565714	-0.043617
C114	C	1.815246	-0.232381	0.289717
C115	C	1.148119	-0.813396	-0.378661
C116	C	1.481452	-0.480063	-0.045328
C117	C	1.814786	-0.146730	0.288005
C118	C	1.070114	-0.698453	-0.356914
C119	C	1.403447	-0.365119	-0.023581
C120	C	1.736780	-0.031786	0.309753
C121	C	1.070281	-1.014554	-0.356959
C122	C	1.403615	-0.681221	-0.023626
C123	C	1.736948	-0.347888	0.309707
C124	C	1.263312	-0.356910	-0.356954
C125	C	1.596645	-0.023577	-0.023621
C126	C	1.929979	0.309757	0.309712
C127	C	1.345626	-0.356923	-0.356971
C128	C	1.678959	-0.023590	-0.023638
C129	C	2.012293	0.309744	0.309696
C130	C	1.070186	-0.356847	-0.550077
C131	C	1.403520	-0.023514	-0.216744
C132	C	1.736853	0.309820	0.116589
C133	C	1.070202	-0.356834	-0.632391
C134	C	1.403535	-0.023500	-0.299058
C135	C	1.736868	0.309833	0.034275
C136	C	1.070270	-0.163717	-0.356953
C137	C	1.403603	0.169616	-0.023620
C138	C	1.736936	0.502949	0.309713
C139	C	1.070321	-0.081403	-0.356970
C140	C	1.403654	0.251930	-0.023636
C141	C	1.736987	0.585264	0.309697
C142	C	1.070229	-0.356776	-0.783100
C143	C	1.403563	-0.023443	-0.449767
C144	C	1.736896	0.309891	-0.116433
C145	C	1.012970	-0.413988	-0.814431
C146	C	1.346304	-0.080655	-0.481097
C147	C	1.679637	0.252679	-0.147764
C148	C	1.012762	-0.413787	-0.900049
C149	C	1.346095	-0.080454	-0.566716
C150	C	1.679429	0.252879	-0.233382
C151	C	1.070257	-0.356720	-0.931482
C152	C	1.403590	-0.023387	-0.598149
C153	C	1.736923	0.309946	-0.264816
C154	C	1.049370	-0.278624	-0.900396
C155	C	1.382703	0.054710	-0.567063
C156	C	1.716037	0.388043	-0.233730
C157	C	1.048938	-0.278987	-0.814751
C158	C	1.382272	0.054346	-0.481418
C159	C	1.715605	0.387680	-0.148084
C160	C	1.148526	-0.376966	-0.814675
C161	C	1.481859	-0.043632	-0.481342
C162	C	1.815193	0.289701	-0.148009
C163	C	1.148122	-0.378655	-0.900326
C164	C	1.481455	-0.045322	-0.566992
C165	C	1.814788	0.288011	-0.233659
C166	C	1.070274	-0.356684	-1.015342
C167	C	1.403607	-0.023351	-0.682009
C168	C	1.736940	0.309982	-0.348675
C169	C	1.070211	-0.356807	-0.699240
C170	C	1.403544	-0.023473	-0.365907
C171	C	1.736878	0.309860	-0.032574
C172	C	1.070157	-0.356858	-0.164505
C173	C	1.403490	-0.023524	0.168829
C174	C	1.736823	0.309809	0.502162
C175	C	1.070285	-0.356663	-0.082191
C176	C	1.403618	-0.023329	0.251142
C177	C	1.736951	0.310004	0.584476
H178	H	0.506374	-0.281185	-0.454725
H179	H	0.839707	0.052149	-0.121392
H180	H	1.173040	0.385482	0.211941
C181	C	1.169646	-0.785909	-0.456261
C182	C	1.502979	-0.452575	-0.122928
C183	C	1.836313	-0.119242	0.210405
H184	H	1.216853	-0.804905	-0.469096
H185	H	1.550186	-0.471571	-0.135762
H186	H	1.883519	-0.138238	0.197571
H187	H	1.171283	-0.733455	-0.456437
H188	H	1.504616	-0.400122	-0.123103
H189	H	1.837950	-0.066789	0.210230
H190	H	1.134081	-0.802423	-0.491132
H191	H	1.467415	-0.469089	-0.157799
H192	H	1.800748	-0.135756	0.175534
H193	H	0.992783	-0.261232	-0.921840
H194	H	1.326116	0.072102	-0.588506
H195	H	1.659449	0.405435	-0.255173
C196	C	1.208820	-0.326470	-0.929219
C197	C	1.542153	0.006864	-0.595886
C198	C	1.875487	0.340197	-0.262553
H199	H	1.187372	-0.290458	-0.960799
H200	H	1.520706	0.042876	-0.627466
H201	H	1.854039	0.376209	-0.294133
H202	H	1.244457	-0.354174	-0.955973
H203	H	1.577790	-0.020841	-0.622639
H204	H	1.911123	0.312493	-0.289306
H205	H	1.232068	-0.302564	-0.888704
H206	H	1.565401	0.030769	-0.555370
H207	H	1.898734	0.364102	-0.222037
H208	H	0.635001	-0.374176	-0.479611
H209	H	0.968334	-0.040843	-0.146277
H210	H	1.301667	0.292490	0.187056
H211	H	0.954753	-0.400389	-0.920531
H212	H	1.288086	-0.067055	-0.587198
H213	H	1.621420	0.266278	-0.253864
H214	H	0.507231	-0.478866	-0.374857
H215	H	0.840564	-0.145533	-0.041523
H216	H	1.173898	0.187801	0.291810
C217	C	0.641709	-0.221401	-0.317804
C218	C	0.975042	0.111933	0.015530
C219	C	1.308376	0.445266	0.348863
H220	H	0.694193	-0.221391	-0.317682
H221	H	1.027526	0.111942	0.015651
H222	H	1.360860	0.445276	0.348985
H223	H	0.624125	-0.187637	-0.281695
H224	H	0.957458	0.145696	0.051638
H225	H	1.290791	0.479030	0.384972
H226	H	0.624355	-0.206967	-0.365180
H227	H	0.957689	0.126366	-0.031847
H228	H	1.291022	0.459700	0.301487
H229	H	1.191113	-0.919296	-0.335170
H230	H	1.524447	-0.585963	-0.001837
H231	H	1.857780	-0.252629	0.331497
C232	C	1.169412	-0.456295	-0.927776
C233	C	1.502746	-0.122961	-0.594443
C234	C	1.836079	0.210372	-0.261109
H235	H	1.131016	-0.475267	-0.958102
H236	H	1.464349	-0.141934	-0.624769
H237	H	1.797682	0.191399	-0.291435
H238	H	1.176497	-0.488080	-0.886618
H239	H	1.509830	-0.154747	-0.553284
H240	H	1.843163	0.178587	-0.219951
H241	H	1.213857	-0.453431	-0.955562
H242	H	1.547190	-0.120097	-0.622228
H243	H	1.880523	0.213236	-0.288895
C244	C	1.030364	-0.492008	-0.928447
C245	C	1.363697	-0.158674	-0.595113
C246	C	1.697031	0.174659	-0.261780
H247	H	1.037704	-0.524195	-0.887640
H248	H	1.371037	-0.190861	-0.554306
H249	H	1.704371	0.142472	-0.220973
H250	H	1.073915	-0.490597	-0.957710
H251	H	1.407249	-0.157264	-0.624376
H252	H	1.740582	0.176070	-0.291043
H253	H	0.990316	-0.509497	-0.957499
H254	H	1.323649	-0.176164	-0.624166
H255	H	1.656983	0.157169	-0.290833
H256	H	0.633941	-0.277935	-0.450989
H257	H	0.967274	0.055398	-0.117655
H258	H	1.300607	0.388732	0.215678
C259	C	1.030728	-0.785311	-0.492313
C260	C	1.364062	-0.451977	-0.158980
C261	C	1.697395	-0.118644	0.174354
H262	H	1.030588	-0.732827	-0.492307
H263	H	1.363921	-0.399493	-0.158974
H264	H	1.697255	-0.066160	0.174359
H265	H	0.994544	-0.802904	-0.525993
H266	H	1.327877	-0.469571	-0.192659
H267	H	1.661210	-0.136237	0.140674
H268	H	1.078076	-0.802641	-0.506868
H269	H	1.411409	-0.469308	-0.173535
H270	H	1.744742	-0.135975	0.159798
H271	H	0.633963	-0.478883	-0.375763
H272	H	0.967296	-0.145549	-0.042430
H273	H	1.300629	0.187784	0.290904
H274	H	1.192904	-0.791983	-0.339927
H275	H	1.526237	-0.458650	-0.006593
H276	H	1.859570	-0.125316	0.326740
C277	C	0.972484	-0.784569	-0.255583
C278	C	1.305818	-0.451236	0.077751
C279	C	1.639151	-0.117902	0.411084
H280	H	0.953299	-0.753541	-0.293312
H281	H	1.286632	-0.420208	0.040022
H282	H	1.619965	-0.086874	0.373355
H283	H	0.976916	-0.757231	-0.211018
H284	H	1.310249	-0.423897	0.122316
H285	H	1.643583	-0.090564	0.455649
H286	H	0.940007	-0.825123	-0.248063
H287	H	1.273340	-0.491790	0.085270
H288	H	1.606673	-0.158457	0.418604
H289	H	0.507688	-0.378966	-0.477766
H290	H	0.841022	-0.045633	-0.144433
H291	H	1.174355	0.287700	0.188900
C292	C	1.102385	-0.927088	-0.219505
C293	C	1.435718	-0.593754	0.113828
C294	C	1.769051	-0.260421	0.447161
H295	H	1.124332	-0.886113	-0.195140
H296	H	1.457666	-0.552780	0.138193
H297	H	1.790999	-0.219447	0.471526
H298	H	1.139835	-0.956204	-0.241929
H299	H	1.473169	-0.622871	0.091405
H300	H	1.806502	-0.289538	0.424738
H301	H	1.076116	-0.956202	-0.184593
H302	H	1.409449	-0.622869	0.148740
H303	H	1.742783	-0.289535	0.482073
H304	H	1.088845	-0.234890	-0.794025
H305	H	1.422178	0.098443	-0.460692
H306	H	1.755512	0.431777	-0.127358
C307	C	1.103430	-0.785930	-0.219561
C308	C	1.436763	-0.452597	0.113772
C309	C	1.770096	-0.119264	0.447106
H310	H	1.139593	-0.755126	-0.241923
H311	H	1.472926	-0.421793	0.091410
H312	H	1.806260	-0.088460	0.424744
H313	H	1.126975	-0.827040	-0.197002
H314	H	1.460309	-0.493707	0.136332
H315	H	1.793642	-0.160373	0.469665
H316	H	1.077277	-0.758629	-0.183168
H317	H	1.410611	-0.425295	0.150165
H318	H	1.743944	-0.091962	0.483499
H319	H	1.026235	-0.919937	-0.472374
H320	H	1.359569	-0.586604	-0.139040
H321	H	1.692902	-0.253271	0.194293
H322	H	0.507089	-0.241367	-0.313215
H323	H	0.840422	0.091967	0.020118
H324	H	1.173755	0.425300	0.353452
C325	C	0.935179	-0.928525	-0.396639
C326	C	1.268512	-0.595191	-0.063305
C327	C	1.601845	-0.261858	0.270028
H328	H	0.937266	-0.959690	-0.354451
H329	H	1.270599	-0.626357	-0.021118
H330	H	1.603933	-0.293023	0.312215
H331	H	0.916982	-0.955772	-0.437621
H332	H	1.250316	-0.622438	-0.104287
H333	H	1.583649	-0.289105	0.229046
H334	H	0.903187	-0.888086	-0.386924
H335	H	1.236520	-0.554752	-0.053590
H336	H	1.569854	-0.221419	0.279743
H337	H	0.991715	-0.261905	-0.794769
H338	H	1.325048	0.071428	-0.461435
H339	H	1.658381	0.404762	-0.128102
C340	C	1.030355	-0.492476	-0.786606
C341	C	1.363689	-0.159142	-0.453273
C342	C	1.697022	0.174191	-0.119939
H343	H	1.072686	-0.491059	-0.755628
H344	H	1.406020	-0.157726	-0.422294
H345	H	1.739353	0.175608	-0.088961
H346	H	1.039709	-0.523883	-0.827583
H347	H	1.373042	-0.190550	-0.494250
H348	H	1.706376	0.142784	-0.160917
H349	H	0.989395	-0.510903	-0.759421
H350	H	1.322728	-0.177569	-0.426088
H351	H	1.656061	0.155764	-0.092755
C352	C	0.935039	-0.396127	-0.785357
C353	C	1.268372	-0.062794	-0.452024
C354	C	1.601705	0.270540	-0.118690
H355	H	0.937245	-0.353953	-0.754210
H356	H	1.270578	-0.020620	-0.420877
H357	H	1.603912	0.312714	-0.087543
H358	H	0.916686	-0.437071	-0.758105
H359	H	1.250019	-0.103737	-0.424772
H360	H	1.583353	0.229596	-0.091438
H361	H	0.903108	-0.386322	-0.825825
H362	H	1.236441	-0.052989	-0.492492
H363	H	1.569775	0.280344	-0.159159
C364	C	0.642521	-0.457990	-0.258995
C365	C	0.975854	-0.124657	0.074338
C366	C	1.309187	0.208676	0.407672
H367	H	0.673550	-0.420207	-0.239909
H368	H	1.006883	-0.086873	0.093424
H369	H	1.340216	0.246460	0.426757
H370	H	0.669865	-0.502558	-0.263331
H371	H	1.003199	-0.169224	0.070002
H372	H	1.336532	0.164109	0.403335
H373	H	0.601982	-0.465444	-0.226485
H374	H	0.935315	-0.132111	0.106849
H375	H	1.268648	0.201223	0.440182
C376	C	1.174601	-0.928161	-0.452528
C377	C	1.507934	-0.594827	-0.119195
C378	C	1.841268	-0.261494	0.214138
H379	H	1.137925	-0.959892	-0.472594
H380	H	1.471258	-0.626558	-0.139260
H381	H	1.804592	-0.293225	0.194073
H382	H	1.219404	-0.954798	-0.446538
H383	H	1.552738	-0.621465	-0.113205
H384	H	1.886071	-0.288132	0.220128
H385	H	1.182508	-0.887748	-0.485088
H386	H	1.515841	-0.554415	-0.151755
H387	H	1.849175	-0.221081	0.181579
H388	H	0.954810	-0.793334	-0.400884
H389	H	1.288143	-0.460001	-0.067550
H390	H	1.621476	-0.126668	0.265783
C391	C	1.103987	-0.219437	-0.927904
C392	C	1.437320	0.113897	-0.594571
C393	C	1.770653	0.447230	-0.261238
H394	H	1.140097	-0.241882	-0.958669
H395	H	1.473431	0.091452	-0.625335
H396	H	1.806764	0.424785	-0.292002
H397	H	1.127578	-0.196946	-0.886787
H398	H	1.460912	0.136387	-0.553453
H399	H	1.794245	0.469720	-0.220120
H400	H	1.077977	-0.182972	-0.955244
H401	H	1.411310	0.150362	-0.621911
H402	H	1.744643	0.483695	-0.288578
C403	C	1.174270	-0.452618	-0.785507
C404	C	1.507604	-0.119284	-0.452174
C405	C	1.840937	0.214049	-0.118841
H406	H	1.137504	-0.472599	-0.753797
H407	H	1.470837	-0.139266	-0.420463
H408	H	1.804170	0.194068	-0.087130
H409	H	1.219075	-0.446749	-0.758837
H410	H	1.552408	-0.113416	-0.425503
H411	H	1.885741	0.219917	-0.092170
H412	H	1.182096	-0.485185	-0.825900
H413	H	1.515430	-0.151852	-0.492566
H414	H	1.848763	0.181481	-0.159233
C415	C	0.498557	-0.316889	-0.221974
C416	C	0.831890	0.016444	0.111359
C417	C	1.165223	0.349778	0.444692
H418	H	0.467400	-0.359091	-0.223950
H419	H	0.800733	-0.025758	0.109383
H420	H	1.134067	0.307575	0.442716
H421	H	0.471309	-0.275873	-0.203861
H422	H	0.804643	0.057460	0.129472
H423	H	1.137976	0.390793	0.462805
H424	H	0.539014	-0.326516	-0.189977
H425	H	0.872347	0.006818	0.143356
H426	H	1.205680	0.340151	0.476689
H427	H	1.191184	-0.335293	-0.794420
H428	H	1.524517	-0.001959	-0.461086
H429	H	1.857850	0.331374	-0.127753
H430	H	0.991397	-0.919134	-0.262279
H431	H	1.324730	-0.585801	0.071054
H432	H	1.658063	-0.252468	0.404387
C433	C	0.640921	-0.317251	-0.221281
C434	C	0.974254	0.016082	0.112053
C435	C	1.307587	0.349415	0.445386
H436	H	0.693403	-0.317400	-0.220862
H437	H	1.026736	0.015934	0.112471
H438	H	1.360069	0.349267	0.445805
H439	H	0.623147	-0.364436	-0.206683
H440	H	0.956480	-0.031103	0.126651
H441	H	1.289814	0.302230	0.459984
H442	H	0.623274	-0.280830	-0.187882
H443	H	0.956608	0.052503	0.145452
H444	H	1.289941	0.385837	0.478785
C445	C	0.500919	-0.457268	-0.257766
C446	C	0.834252	-0.123935	0.075568
C447	C	1.167585	0.209398	0.408901
H448	H	0.542278	-0.466595	-0.226849
H449	H	0.875611	-0.133262	0.106484
H450	H	1.208945	0.200071	0.439818
H451	H	0.471677	-0.500700	-0.261445
H452	H	0.805011	-0.167367	0.071888
H453	H	1.138344	0.165966	0.405221
H454	H	0.472132	-0.418502	-0.237229
H455	H	0.805466	-0.085169	0.096105
H456	H	1.138799	0.248165	0.429438
