data_functionalizedCrystal
_audit_creation_method	'MofGen! by Chris Wilmer'
_symmetry_space_group_name_H-M	'P1'
_symmetry_Int_Tables_number	1
_symmetry_cell_setting	triclinic
loop_
_symmetry_equiv_pos_as_xyz
  x,y,z
_cell_length_a	15.298068
_cell_length_b	16.120444
_cell_length_c	15.296720
_cell_angle_alpha	78.012939
_cell_angle_beta	91.645182
_cell_angle_gamma	103.030534
loop_
_atom_site_label
_atom_site_type_symbol
_atom_site_fract_x
_atom_site_fract_y
_atom_site_fract_z
Zn1	Zn	1.237592	-0.252309	0.738455
Zn2	Zn	1.255727	-0.366217	0.596994
Zn3	Zn	1.116987	-0.244068	0.566260
Zn4	Zn	1.080981	-0.413764	0.720107
O5	O	1.172822	-0.319089	0.655454
O6	O	1.363602	-0.250969	0.740231
O7	O	1.259981	-0.326666	0.469329
O8	O	1.140465	-0.126471	0.583918
O9	O	1.376926	-0.334657	0.636300
O10	O	1.229073	-0.132526	0.710430
O11	O	1.158050	-0.236923	0.446749
O12	O	0.988606	-0.283028	0.566127
O13	O	1.079097	-0.415695	0.846129
O14	O	0.962152	-0.407704	0.679158
O15	O	1.194159	-0.297074	0.859609
O16	O	1.225067	-0.491214	0.618508
O17	O	1.096682	-0.526147	0.708959
C18	C	0.943329	-0.349632	0.617317
C19	C	0.845147	-0.362722	0.601024
C20	C	0.540553	-0.225743	0.771916
C21	C	0.632800	-0.213447	0.787229
C22	C	0.685891	-0.250764	0.740679
C23	C	0.646727	-0.300380	0.678813
C24	C	0.554470	-0.312683	0.663503
C25	C	0.699808	-0.337705	0.632266
C26	C	0.660643	-0.387321	0.570400
C27	C	0.568395	-0.399621	0.555093
C28	C	0.515304	-0.362303	0.601643
C29	C	0.792064	-0.325402	0.647576
C30	C	0.805981	-0.412342	0.539164
C31	C	0.713734	-0.424638	0.523850
C32	C	1.158956	-0.539456	0.665101
C33	C	1.153099	-0.633724	0.669271
C34	C	1.203384	-0.831001	0.634048
C35	C	1.142421	-0.806306	0.676897
C36	C	1.148364	-0.710272	0.672653
C37	C	1.197442	-0.927043	0.638291
C38	C	1.403210	-0.288429	0.693740
C39	C	1.501388	-0.275363	0.710056
C40	C	1.130589	-0.362607	0.885810
C41	C	1.112591	-0.381152	0.983974
C42	C	1.186762	-0.097863	0.645793
C43	C	1.192703	-0.003589	0.641675
C44	C	1.214945	-0.275673	0.426000
C45	C	1.233128	-0.256866	0.327854
C46	C	1.301493	-0.186394	1.288758
C47	C	1.318407	-0.168971	1.196529
C48	C	1.266955	-0.222015	1.143386
C49	C	1.198585	-0.292485	1.182481
C50	C	1.181673	-0.309913	1.274720
C51	C	1.147135	-0.345534	1.129348
C52	C	1.078765	-0.416004	1.168442
C53	C	1.061856	-0.433429	1.260673
C54	C	1.113309	-0.380386	1.313816
C55	C	1.164047	-0.328105	1.037108
C56	C	1.044227	-0.451624	1.023070
C57	C	1.027312	-0.469047	1.115299
H58	H	0.823943	-0.285003	0.697947
H59	H	1.085765	-0.857288	0.716768
H60	H	1.343383	-0.143218	1.332036
H61	H	0.761003	-0.240747	0.753148
H62	H	1.280731	-0.207824	1.068289
H63	H	1.260035	-0.780025	0.594178
H64	H	1.219714	-0.270727	1.005287
H65	H	1.374076	-0.111596	1.164705
H66	H	1.099540	-0.394568	1.388917
H67	H	0.681833	-0.465037	0.473479
H68	H	1.006191	-0.490817	1.292502
H69	H	0.971645	-0.526425	1.147143
H70	H	0.664680	-0.173052	0.837604
H71	H	0.497317	-0.195370	0.809816
H72	H	0.536509	-0.440029	0.504724
H73	H	1.002332	-0.494818	0.979801
H74	H	0.849207	-0.442734	0.501263
H75	H	0.440187	-0.372319	0.589184
