data_functionalizedCrystal
_audit_creation_method	'MofGen! by Chris Wilmer'
_symmetry_space_group_name_H-M	'P1'
_symmetry_Int_Tables_number	1
_symmetry_cell_setting	triclinic
loop_
_symmetry_equiv_pos_as_xyz
  x,y,z
_cell_length_a	9.065218
_cell_length_b	16.109301
_cell_length_c	8.140239
_cell_angle_alpha	89.995060
_cell_angle_beta	89.997198
_cell_angle_gamma	84.238683
loop_
_atom_site_label
_atom_site_type_symbol
_atom_site_fract_x
_atom_site_fract_y
_atom_site_fract_z
O1	O	1.957448	0.121905	-0.136624
O2	O	2.290782	0.455238	0.196709
O3	O	2.624115	0.788572	0.530043
O4	O	1.527922	0.131904	-0.136627
O5	O	1.861255	0.465238	0.196707
O6	O	2.194588	0.798571	0.530040
O7	O	1.754484	0.005964	-0.136608
O8	O	2.087818	0.339298	0.196725
O9	O	2.421151	0.672631	0.530058
O10	O	1.730885	0.247845	-0.136642
O11	O	2.064219	0.581178	0.196691
O12	O	2.397552	0.914512	0.530025
O13	O	1.754472	0.005963	0.136619
O14	O	2.087805	0.339296	0.469952
O15	O	2.421139	0.672629	0.803285
O16	O	1.527909	0.131903	0.136600
O17	O	1.861242	0.465236	0.469934
O18	O	2.194576	0.798569	0.803267
O19	O	1.957436	0.121904	0.136603
O20	O	2.290769	0.455237	0.469937
O21	O	2.624103	0.788570	0.803270
Zn22	Zn	1.742671	0.126903	0.179982
Zn23	Zn	2.076004	0.460236	0.513316
Zn24	Zn	2.409337	0.793570	0.846649
Zn25	Zn	1.742687	0.126905	-0.180006
Zn26	Zn	2.076020	0.460238	0.153327
Zn27	Zn	2.409354	0.793572	0.486661
O28	O	1.730873	0.247843	0.136585
O29	O	2.064206	0.581177	0.469918
O30	O	2.397540	0.914510	0.803252
C31	C	1.472952	0.130943	-0.000013
C32	C	1.806285	0.464276	0.333320
C33	C	2.139619	0.797609	0.666653
C34	C	1.309179	0.128069	-0.000014
C35	C	1.642512	0.461402	0.333319
C36	C	1.975845	0.794736	0.666653
C37	C	1.753522	-0.025019	0.000006
C38	C	2.086856	0.308315	0.333339
C39	C	2.420189	0.641648	0.666673
C40	C	1.750656	-0.117336	0.000008
C41	C	2.083990	0.215997	0.333342
C42	C	2.417323	0.549331	0.666675
C43	C	1.878430	-0.338627	-0.000017
C44	C	2.211764	-0.005293	0.333316
C45	C	2.545097	0.328040	0.666650
C46	C	1.875726	-0.425368	-0.000031
C47	C	2.209059	-0.092035	0.333303
C48	C	2.542393	0.241299	0.666636
C49	C	1.606917	-0.407559	-0.000026
C50	C	1.940250	-0.074225	0.333307
C51	C	2.273584	0.259108	0.666641
C52	C	1.609623	-0.320819	-0.000024
C53	C	1.942956	0.012514	0.333309
C54	C	2.276289	0.345847	0.666643
C55	C	1.745384	-0.286356	-0.000011
C56	C	2.078717	0.046978	0.333322
C57	C	2.412051	0.380311	0.666655
C58	C	1.739974	-0.459836	-0.000027
C59	C	2.073307	-0.126503	0.333307
C60	C	2.406640	0.206830	0.666640
C61	C	1.737040	-0.553885	-0.000041
C62	C	2.070374	-0.220552	0.333292
C63	C	2.403707	0.112782	0.666625
C64	C	1.748318	-0.192301	0.000000
C65	C	2.081651	0.141032	0.333334
C66	C	2.414985	0.474365	0.666667
C67	C	2.012405	0.122865	-0.000014
C68	C	2.345739	0.456199	0.333320
C69	C	2.679072	0.789532	0.666653
C70	C	2.176179	0.125739	-0.000024
C71	C	2.509512	0.459072	0.333309
C72	C	2.842846	0.792405	0.666643
C73	C	1.731835	0.278826	-0.000033
C74	C	2.065168	0.612160	0.333300
C75	C	2.398502	0.945493	0.666634
C76	C	1.734701	0.371144	-0.000046
C77	C	2.068034	0.704477	0.333287
C78	C	2.401368	1.037810	0.666621
N79	N	1.742670	0.126901	0.425665
N80	N	2.076003	0.460234	0.758998
N81	N	2.409337	0.793568	1.092332
N82	N	1.742699	0.126900	-0.425689
N83	N	2.076032	0.460234	-0.092355
N84	N	2.409366	0.793567	0.240978
H85	H	1.988976	-0.310570	-0.000010
H86	H	2.322309	0.022764	0.333323
H87	H	2.655642	0.356097	0.666657
H88	H	1.984066	-0.467924	-0.000039
H89	H	2.317399	-0.134591	0.333295
H90	H	2.650733	0.198743	0.666628
O91	O	1.460492	-0.444729	-0.000004
O92	O	1.793825	-0.111395	0.333329
O93	O	2.127158	0.221938	0.666662
H94	H	1.480959	-0.513826	0.000017
H95	H	1.814292	-0.180493	0.333351
H96	H	2.147626	0.152840	0.666684
H97	H	1.501274	-0.278258	-0.000024
H98	H	1.834607	0.055076	0.333309
H99	H	2.167940	0.388409	0.666642
