data_functionalizedCrystal
_audit_creation_method	'MofGen! by Chris Wilmer'
_symmetry_space_group_name_H-M	'P1'
_symmetry_Int_Tables_number	1
_symmetry_cell_setting	triclinic
loop_
_symmetry_equiv_pos_as_xyz
  x,y,z
_cell_length_a	14.519731
_cell_length_b	19.188924
_cell_length_c	18.266242
_cell_angle_alpha	89.991576
_cell_angle_beta	89.990875
_cell_angle_gamma	83.415409
loop_
_atom_site_label
_atom_site_type_symbol
_atom_site_fract_x
_atom_site_fract_y
_atom_site_fract_z
O1	O	1.223289	0.091595	-0.060886
O2	O	0.954748	0.102358	-0.060888
O3	O	1.096771	-0.004651	-0.060878
O4	O	1.081266	0.198605	-0.060895
O5	O	1.096747	-0.004657	0.060884
O6	O	0.954724	0.102352	0.060874
O7	O	1.223265	0.091590	0.060876
Zn8	Zn	1.088991	0.096970	0.080208
Zn9	Zn	1.089022	0.096978	-0.080219
O10	O	1.081242	0.198599	0.060867
C11	C	0.920380	0.101851	-0.000007
C12	C	0.818009	0.100340	-0.000007
C13	C	0.734872	0.099112	-0.000010
C14	C	0.630573	0.097578	-0.000010
C15	C	0.547442	0.096360	-0.000010
C16	C	0.443136	0.094826	-0.000011
C17	C	1.096258	-0.030667	0.000004
C18	C	1.094754	-0.108177	0.000006
C19	C	1.094065	-0.144575	-0.066367
C20	C	1.092639	-0.217403	-0.066373
C21	C	1.091920	-0.253832	-0.000002
C22	C	1.092604	-0.217424	0.066380
C23	C	1.094021	-0.144597	0.066383
N24	N	1.142165	-0.373315	0.049397
N25	N	1.140821	-0.442499	0.049389
C26	C	1.087648	-0.473256	-0.000009
N27	N	1.035882	-0.432219	-0.049409
N28	N	1.037231	-0.363030	-0.049403
C29	C	1.090383	-0.332801	0.000002
C30	C	1.085411	-0.588623	-0.066392
C31	C	1.083979	-0.661452	-0.066395
C32	C	1.083954	-0.661472	0.066359
C33	C	1.085376	-0.588644	0.066360
C34	C	1.086110	-0.552224	-0.000018
C35	C	1.257634	0.092097	-0.000007
C36	C	1.360004	0.093608	-0.000011
C37	C	1.081755	0.224615	-0.000017
C38	C	1.083259	0.302125	-0.000023
N39	N	1.088976	0.096965	0.189695
N40	N	1.089045	0.096978	-0.189706
C41	C	1.151884	0.049605	0.228008
C42	C	1.151890	0.049601	0.304652
C43	C	1.088996	0.096970	0.342981
C44	C	1.026076	0.144334	0.304659
C45	C	1.026066	0.144332	0.228016
N46	N	1.077007	0.158735	0.463308
N47	N	1.077022	0.158735	0.536117
C48	C	1.089022	0.096981	0.573904
N49	N	1.101025	0.035224	0.536132
N50	N	1.101014	0.035224	0.463318
C51	C	1.089000	0.096978	0.426088
C52	C	1.151941	0.049613	0.695324
C53	C	1.151940	0.049609	0.771970
C54	C	1.026130	0.144348	0.771976
C55	C	1.026126	0.144346	0.695331
C56	C	1.089036	0.096979	0.657010
H57	H	1.094660	-0.114927	-0.120417
H58	H	1.086003	-0.558968	-0.120441
H59	H	0.974904	0.182914	0.664134
O60	O	1.219724	-0.001493	0.186678
H61	H	1.291577	0.007526	0.201375
H62	H	1.083414	-0.691086	-0.120446
O63	O	1.086143	-0.549380	0.137948
H64	H	1.085414	-0.586945	0.184100
O65	O	1.083185	-0.700751	0.137949
H66	H	1.082091	-0.757509	0.126797
H67	H	0.974865	0.182902	0.335870
H68	H	1.203120	0.011033	0.335853
O69	O	1.091898	-0.256676	-0.137962
H70	H	1.092650	-0.219116	-0.184117
O71	O	1.094776	-0.105340	0.137978
H72	H	1.032580	-0.066018	0.141159
H73	H	1.092016	-0.247089	0.120419
O74	O	0.958219	0.195420	0.186685
H75	H	0.914487	0.228362	0.226210
O76	O	1.219777	-0.001480	0.653983
H77	H	1.263513	-0.034424	0.693505
H78	H	1.203165	0.011038	0.803165
O79	O	0.958293	0.195443	0.813303
H80	H	0.968871	0.187492	0.873036
