data_functionalizedCrystal
_audit_creation_method	'MofGen! by Chris Wilmer'
_symmetry_space_group_name_H-M	'P1'
_symmetry_Int_Tables_number	1
_symmetry_cell_setting	triclinic
loop_
_symmetry_equiv_pos_as_xyz
  x,y,z
_cell_length_a	27.440279
_cell_length_b	14.560438
_cell_length_c	14.560438
_cell_angle_alpha	89.999935
_cell_angle_beta	60.004457
_cell_angle_gamma	60.012984
loop_
_atom_site_label
_atom_site_type_symbol
_atom_site_fract_x
_atom_site_fract_y
_atom_site_fract_z
Zr1	Zr	0.533276	0.885103	-0.120297
O2	O	0.634919	0.738519	-0.266905
O3	O	0.431635	0.929994	-0.075382
O4	O	0.533277	0.930058	-0.266945
O5	O	0.533275	0.738455	0.075798
O6	O	0.533276	1.081198	-0.266943
O7	O	0.533276	0.738454	-0.075342
O8	O	0.351457	1.081083	0.075727
O9	O	0.715094	0.738570	-0.266872
O10	O	0.473440	1.061987	-0.056190
O11	O	0.473440	0.949193	0.056603
O12	O	0.593110	0.949269	-0.168937
O13	O	0.593110	0.836475	-0.056144
Zr14	Zr	0.533272	1.126154	0.120758
Zr15	Zr	0.533275	1.126154	-0.120294
Zr16	Zr	0.533274	0.885103	0.120756
Zr17	Zr	0.661147	0.885184	-0.120244
Zr18	Zr	0.405401	1.126073	0.120706
O19	O	0.634914	1.081263	0.075844
O20	O	0.634917	1.081263	-0.266901
O21	O	0.634915	0.738519	0.075840
O22	O	0.431630	1.272738	0.267367
O23	O	0.431633	1.272737	-0.075378
O24	O	0.431631	0.929994	0.267363
O25	O	0.533274	1.272802	-0.075337
O26	O	0.533271	1.081199	0.267407
O27	O	0.533272	0.930059	0.267405
O28	O	0.533272	1.272802	0.075804
O29	O	0.715093	0.930173	-0.266870
O30	O	0.351455	1.081083	0.267332
O31	O	0.351454	1.272687	0.267334
O32	O	0.351456	1.272687	0.075729
O33	O	0.715093	0.738570	-0.075267
O34	O	0.715092	0.930173	-0.075265
O35	O	0.473438	1.061988	0.169399
O36	O	0.473438	1.174782	0.056605
O37	O	0.593109	1.062063	-0.056141
O38	O	0.593108	0.949269	0.056652
C39	C	0.373327	1.005527	0.000165
C40	C	0.319042	1.005492	0.000143
C41	C	0.084283	0.946737	0.059115
C42	C	0.135313	0.946714	0.059100
O43	O	0.161689	0.896664	0.109195
N44	N	0.160839	1.005576	0.000209
C45	C	0.135326	1.064473	-0.058662
O46	O	0.161723	1.114538	-0.108755
C47	C	0.084294	1.064501	-0.058640
C48	C	0.058776	1.005626	0.000246
C49	C	0.058765	0.887867	0.117997
C50	C	0.007739	0.887888	0.118010
C51	C	-0.017768	0.946778	0.059141
C52	C	0.007750	1.005647	0.000259
C53	C	0.058779	1.123404	-0.117504
C54	C	0.007742	1.123427	-0.117476
C55	C	-0.017776	1.064553	-0.058590
C56	C	-0.068783	1.064557	-0.058598
N57	N	-0.094308	1.005695	0.000294
C58	C	-0.068801	0.946806	0.059163
C59	C	0.242498	1.064411	-0.058703
C60	C	0.293533	1.064378	-0.058732
C61	C	0.293516	0.946620	0.059032
C62	C	0.242483	0.946648	0.059055
C63	C	0.216972	1.005550	0.000189
C64	C	-0.175958	0.946853	0.059185
C65	C	-0.226986	0.946875	0.059189
C66	C	-0.226967	1.064636	-0.058571
C67	C	-0.175941	1.064610	-0.058580
C68	C	-0.150439	1.005716	0.000306
O69	O	-0.095193	1.114586	-0.108663
O70	O	-0.095210	0.896761	0.109259
C71	C	0.533276	0.704110	0.000228
C72	C	0.533276	0.601777	0.000226
C73	C	0.533277	1.005628	-0.301289
C74	C	0.533278	1.005628	-0.403622
C75	C	0.693221	1.005730	0.000297
C76	C	0.747506	1.005764	0.000319
C77	C	0.533278	0.553701	-0.083040
C78	C	0.533274	0.457553	-0.083034
C79	C	0.533268	0.457564	0.083510
C80	C	0.533267	0.553715	0.083508
C81	C	0.533273	1.307147	0.000234
C82	C	0.533272	1.409479	0.000235
C83	C	0.533278	1.088892	-0.451697
C84	C	0.533272	1.088895	-0.547843
C85	C	0.533268	0.922360	-0.547833
C86	C	0.533269	0.922363	-0.451684
C87	C	0.533271	1.005629	0.301751
C88	C	0.533270	1.005629	0.404084
C89	C	0.373325	1.307045	0.000168
C90	C	0.319040	1.409343	0.000147
C91	C	0.373324	1.005527	0.301685
C92	C	0.319038	1.005493	0.403995
C93	C	0.373322	1.307046	0.301688
C94	C	0.319036	1.409344	0.404000
C95	C	0.693226	0.704211	-0.301226
C96	C	0.747512	0.601913	-0.403538
C97	C	0.693223	0.704211	0.000294
C98	C	0.747508	0.601913	0.000315
C99	C	0.693224	1.005729	-0.301223
C100	C	0.747510	1.005764	-0.403533
C101	C	0.293548	1.398506	-0.058751
C102	C	0.242548	1.494617	-0.058794
C103	C	0.217038	1.601564	0.000069
C104	C	0.242535	1.612399	0.058970
C105	C	0.293538	1.516289	0.059005
C106	C	0.293544	1.064354	0.510930
C107	C	0.242544	1.064318	0.607071
C108	C	0.217036	1.005426	0.596275
C109	C	0.242535	0.946557	0.489329
C110	C	0.293537	0.946588	0.393190
C111	C	0.293543	1.516272	0.393169
C112	C	0.242543	1.612401	0.489293
C113	C	0.217033	1.601600	0.596246
C114	C	0.242531	1.494661	0.607074
C115	C	0.293534	1.398534	0.510951
C116	C	0.773011	0.494985	-0.392707
C117	C	0.824028	0.398856	-0.488831
C118	C	0.849540	0.409657	-0.595784
C119	C	0.824039	0.516596	-0.606612
C120	C	0.773027	0.612723	-0.510489
C121	C	0.773006	0.612751	0.059203
C122	C	0.824019	0.516640	0.059219
C123	C	0.849531	0.409693	0.000353
C124	C	0.824032	0.398858	-0.058543
C125	C	0.773022	0.494968	-0.058565
C126	C	0.773002	1.064667	-0.392701
C127	C	0.824003	1.064721	-0.488824
C128	C	0.849513	1.005865	-0.595777
C129	C	0.824016	0.946960	-0.606607
C130	C	0.773013	0.946913	-0.510486
H131	H	0.079526	0.839913	0.165941
H132	H	0.221710	0.898707	0.107005
C133	C	0.321601	1.129132	-0.123514
H134	H	0.299093	1.164211	-0.158562
H135	H	0.369753	1.078328	-0.179227
H136	H	0.313256	1.184832	-0.072703
C137	C	0.321565	1.528224	0.123812
H138	H	0.299059	1.605685	0.158870
H139	H	0.369721	1.493199	0.073032
H140	H	0.313192	1.493170	0.179539
H141	H	0.314292	0.898670	0.106968
H142	H	0.752242	0.486169	-0.305630
C143	C	0.214503	1.482684	-0.123574
H144	H	0.180479	1.555235	-0.115182
H145	H	0.194604	1.442725	-0.094493
H146	H	0.251128	1.442743	-0.201023
C147	C	0.321604	1.280875	-0.123508
H148	H	0.355628	1.225176	-0.115053
H149	H	0.341506	1.272455	-0.200961
H150	H	0.284984	1.272419	-0.094446
C151	C	0.533265	0.606606	0.175103
H152	H	0.533259	0.670760	0.163178
H153	H	0.573226	0.553214	0.171673
H154	H	0.493296	0.628498	0.246969
C155	C	0.533281	0.606578	-0.174636
H156	H	0.533287	0.670722	-0.162721
H157	H	0.493319	0.628459	-0.171200
H158	H	0.573249	0.553171	-0.246502
H159	H	0.891077	0.331375	-0.674044
H160	H	0.844757	1.112687	-0.479984
C161	C	0.214450	1.129189	-0.123477
H162	H	0.236969	1.164228	-0.158558
H163	H	0.166299	1.184904	-0.072670
H164	H	0.222793	1.078387	-0.179183
C165	C	0.160932	1.005402	0.702030
H166	H	0.149390	0.961893	0.680293
H167	H	0.121139	1.080394	0.745510
H168	H	0.177660	0.973884	0.745525
C169	C	-0.147872	1.129372	-0.123350
H170	H	-0.170377	1.164453	-0.158402
H171	H	-0.099719	1.078575	-0.179059
H172	H	-0.156223	1.185071	-0.072527
C173	C	0.086833	1.188175	-0.182272
H174	H	0.064319	1.223258	-0.217311
H175	H	0.134984	1.137378	-0.237993
H176	H	0.078488	1.243873	-0.131459
H177	H	0.752263	0.898942	-0.519321
H178	H	0.891043	1.005912	-0.674036
C179	C	0.321599	1.129134	0.522822
H180	H	0.355624	1.120737	0.450256
H181	H	0.341500	1.100063	0.562775
H182	H	0.284979	1.206576	0.562764
C183	C	0.321563	1.280919	0.522879
H184	H	0.299057	1.288265	0.600345
H185	H	0.369719	1.240972	0.487842
H186	H	0.313190	1.240968	0.487826
H187	H	0.752240	1.112595	-0.305623
H188	H	0.175508	1.679813	0.000033
H189	H	0.221789	1.112260	0.694141
H190	H	0.533267	0.854558	-0.412536
C191	C	0.533267	0.404684	0.175103
H192	H	0.533275	0.340527	0.163174
H193	H	0.493305	0.458081	0.246969
H194	H	0.573235	0.382799	0.171657
H195	H	0.221758	0.898609	0.480555
H196	H	0.844811	0.311769	-0.106471
C197	C	0.852098	0.528468	-0.724260
H198	H	0.829611	0.605917	-0.716956
H199	H	0.843739	0.493386	-0.764207
H200	H	0.900256	0.493437	-0.764196
H201	H	-0.013028	1.171396	-0.165410
C202	C	0.905638	0.303979	0.000387
H203	H	0.917186	0.238728	-0.043110
H204	H	0.888915	0.303975	0.075398
H205	H	0.945433	0.304011	-0.031125
C206	C	0.533270	0.404675	-0.174619
H207	H	0.533259	0.340536	-0.162684
H208	H	0.573232	0.382785	-0.246487
H209	H	0.493302	0.458086	-0.171169
H210	H	0.844772	0.525484	0.107183
C211	C	0.852122	0.882142	-0.724256
H212	H	0.829647	0.847032	-0.716953
H213	H	0.900275	0.826480	-0.764123
H214	H	0.843784	0.932913	-0.764271
H215	H	0.221787	1.699467	0.480456
H216	H	0.533284	1.156693	-0.412565
H217	H	-0.247741	1.112580	-0.106505
H218	H	0.314306	1.525087	0.306091
H219	H	0.314288	0.898660	0.306123
C220	C	0.533276	1.180482	-0.600725
H221	H	0.533286	1.230063	-0.558332
H222	H	0.493313	1.221590	-0.600580
H223	H	0.573243	1.146292	-0.675889
H224	H	-0.247759	0.898927	0.107140
H225	H	0.752266	0.699785	-0.519321
H226	H	0.175503	1.679882	0.674506
H227	H	0.844782	0.311791	-0.479992
C228	C	0.533268	0.830767	-0.600713
H229	H	0.533275	0.842683	-0.664869
H230	H	0.493307	0.834192	-0.547306
H231	H	0.573237	0.758912	-0.622609
H232	H	-0.155199	0.898893	0.107133
C233	C	0.214464	1.730043	0.123724
H234	H	0.180432	1.785721	0.115272
H235	H	0.251071	1.738524	0.094681
H236	H	0.194553	1.738469	0.201185
H237	H	0.221753	1.485883	0.694168
C238	C	0.744972	0.483033	-0.123330
H239	H	0.767470	0.405572	-0.158371
H240	H	0.753324	0.518093	-0.179049
H241	H	0.696816	0.518051	-0.072516
C242	C	0.744951	0.730379	0.123963
H243	H	0.767453	0.723053	0.159023
H244	H	0.696796	0.770305	0.179665
H245	H	0.753312	0.770342	0.073140
H246	H	-0.013035	0.839950	0.165965
