data_functionalizedCrystal
_audit_creation_method	'MofGen! by Chris Wilmer'
_symmetry_space_group_name_H-M	'P1'
_symmetry_Int_Tables_number	1
_symmetry_cell_setting	triclinic
loop_
_symmetry_equiv_pos_as_xyz
  x,y,z
_cell_length_a	14.044220
_cell_length_b	17.038272
_cell_length_c	12.503572
_cell_angle_alpha	93.777379
_cell_angle_beta	86.164750
_cell_angle_gamma	92.150217
loop_
_atom_site_label
_atom_site_type_symbol
_atom_site_fract_x
_atom_site_fract_y
_atom_site_fract_z
O1	O	1.278116	0.185401	-0.089207
O2	O	1.001597	0.178559	-0.089234
O3	O	1.138213	0.068050	-0.089212
O4	O	1.141501	0.295910	-0.089229
O5	O	1.127940	0.076376	0.089428
O6	O	0.991324	0.186885	0.089406
O7	O	1.267843	0.193727	0.089433
Cu8	Cu	1.128646	0.191066	0.105731
Cu9	Cu	1.140795	0.181220	-0.105532
O10	O	1.131228	0.304236	0.089411
C11	C	0.960905	0.179728	0.000083
C12	C	0.854959	0.170796	0.000072
C13	C	1.130087	0.042876	0.000108
C14	C	1.121168	-0.044541	0.000106
C15	C	0.660980	0.154469	0.000095
C16	C	0.608455	0.217814	0.000095
C17	C	0.500518	0.208729	0.000107
C18	C	0.768927	0.163552	0.000082
C19	C	1.203055	-0.088926	0.000115
C20	C	1.194670	-0.171064	0.000104
C21	C	1.104395	-0.208815	0.000092
C22	C	1.022502	-0.164424	0.000080
C23	C	1.030888	-0.082288	0.000083
C24	C	1.074766	-0.456646	0.000074
C25	C	1.066385	-0.538788	0.000074
C26	C	1.238555	-0.545422	0.000097
C27	C	1.246933	-0.463284	0.000107
C28	C	1.165040	-0.418901	0.000089
C29	C	1.095822	-0.292772	0.000084
C30	C	1.173615	-0.334945	0.000089
C31	C	1.308536	0.192558	0.000114
C32	C	1.414481	0.201490	0.000117
C33	C	1.139354	0.329410	0.000089
C34	C	1.148273	0.416827	0.000083
N35	N	1.120107	0.197992	0.254322
N36	N	1.149340	0.174289	-0.254123
C37	C	1.107548	0.208186	0.473435
C38	C	1.161896	0.164097	0.526771
C39	C	1.154908	0.169769	0.648693
C40	C	1.114535	0.202515	0.351502
H41	H	0.624887	0.093419	0.000105
N42	N	1.300423	-0.048211	0.000139
H43	H	1.351025	-0.088796	0.000142
H44	H	1.311464	-0.017359	-0.066082
H45	H	0.644550	0.278868	0.000085
N46	N	1.282991	-0.218937	0.000121
H47	H	1.341451	-0.182558	0.000139
H48	H	1.279444	-0.250077	0.066345
H49	H	0.992868	-0.569521	0.000081
N50	N	1.230489	0.108463	0.465967
H51	H	1.297794	0.123073	0.485471
H52	H	1.213724	0.052817	0.485491
H53	H	1.320444	-0.432554	0.000117
N54	N	0.925136	-0.205143	0.000070
H55	H	0.885154	-0.186312	0.066288
H56	H	0.892848	-0.192471	-0.066200
N57	N	0.942573	-0.034403	0.000095
H58	H	0.946021	-0.003257	-0.066123
H59	H	0.884152	-0.070823	0.000135
H60	H	1.305227	-0.581568	0.000110
N61	N	1.038965	0.263825	0.534228
H62	H	1.043635	0.260041	0.613969
H63	H	1.055698	0.319462	0.514639
N64	N	1.270978	-0.294230	0.000115
H65	H	1.321587	-0.334808	0.000125
H66	H	1.282019	-0.263378	-0.066107
H67	H	1.008082	-0.420519	0.000060
H68	H	1.022319	-0.323518	0.000076
