data_functionalizedCrystal
_audit_creation_method	'MofGen! by Chris Wilmer'
_symmetry_space_group_name_H-M	'P1'
_symmetry_Int_Tables_number	1
_symmetry_cell_setting	triclinic
loop_
_symmetry_equiv_pos_as_xyz
  x,y,z
_cell_length_a	14.560432
_cell_length_b	14.628931
_cell_length_c	14.628931
_cell_angle_alpha	60.000000
_cell_angle_beta	90.001120
_cell_angle_gamma	59.999957
loop_
_atom_site_label
_atom_site_type_symbol
_atom_site_fract_x
_atom_site_fract_y
_atom_site_fract_z
Zr1	Zr	0.884766	1.000566	-0.119940
O2	O	0.738116	1.191274	-0.265905
O3	O	0.929722	0.809859	-0.075194
O4	O	0.929721	1.000565	-0.265900
O5	O	0.738117	1.000568	0.075233
O6	O	1.080862	1.000563	-0.265896
O7	O	0.738117	1.000568	-0.075199
O8	O	1.080863	0.659424	0.075242
O9	O	0.738116	1.341706	-0.265905
O10	O	1.061689	0.888297	-0.056107
O11	O	0.948895	0.888299	0.056155
O12	O	0.948894	1.112831	-0.168376
O13	O	0.836100	1.112832	-0.056114
Zr14	Zr	1.125818	1.000562	0.119988
Zr15	Zr	1.125818	1.000562	-0.119934
Zr16	Zr	0.884766	1.000566	0.119981
Zr17	Zr	0.884765	1.240488	-0.119941
Zr18	Zr	1.125819	0.760640	0.119988
O19	O	1.080862	1.191269	0.075241
O20	O	1.080861	1.191269	-0.265896
O21	O	0.738117	1.191274	0.075232
O22	O	1.272468	0.809853	0.265953
O23	O	1.272467	0.809853	-0.075185
O24	O	0.929722	0.809859	0.265944
O25	O	1.272467	1.000559	-0.075185
O26	O	1.080863	1.000563	0.265947
O27	O	0.929722	1.000565	0.265943
O28	O	1.272467	1.000559	0.075247
O29	O	0.929720	1.341703	-0.265900
O30	O	1.080864	0.659424	0.265948
O31	O	1.272468	0.659421	0.265953
O32	O	1.272468	0.659421	0.075247
O33	O	0.738116	1.341706	-0.075200
O34	O	0.929721	1.341703	-0.075195
O35	O	1.061690	0.888297	0.168424
O36	O	1.174484	0.888295	0.056161
O37	O	1.061689	1.112829	-0.056108
O38	O	0.948894	1.112831	0.056155
C39	C	1.005293	0.700458	0.000024
C40	C	1.005293	0.598605	0.000025
C41	C	0.926162	0.631956	-0.078737
C42	C	0.926160	0.526688	-0.078739
C43	C	0.703772	1.000569	0.000016
C44	C	0.601439	1.000571	0.000013
C45	C	0.601415	1.000586	-0.165749
C46	C	0.553325	1.000598	-0.248630
C47	C	0.457175	1.000598	-0.248627
C48	C	0.409115	1.000582	-0.165731
C49	C	0.457205	1.000570	-0.082850
C50	C	0.553354	1.000574	-0.082865
C51	C	0.457234	1.000545	0.082915
C52	C	0.553379	1.000554	0.082909
C53	C	0.409174	1.000528	0.165811
C54	C	0.457259	1.000525	0.248689
C55	C	0.553413	1.000527	0.248681
C56	C	0.601469	1.000542	0.165790
C57	C	1.306812	1.000559	0.000032
C58	C	1.409145	1.000557	0.000034
C59	C	1.005291	1.000564	-0.300081
C60	C	1.005291	1.000564	-0.401934
C61	C	1.005291	1.300670	0.000023
C62	C	1.005291	1.402523	0.000023
C63	C	1.084422	1.000562	-0.447342
C64	C	1.084423	1.000562	-0.552612
C65	C	1.005293	1.000564	0.300129
C66	C	1.005293	1.000564	0.401982
C67	C	1.306812	0.700453	0.000032
C68	C	1.409145	0.598598	0.000035
C69	C	1.005293	0.700458	0.300130
C70	C	1.005294	0.598605	0.401983
C71	C	1.306813	0.700453	0.300137
C72	C	1.409146	0.598598	0.401993
C73	C	0.703771	1.300675	-0.300090
C74	C	0.601438	1.402530	-0.401946
C75	C	0.703772	1.300675	0.000015
C76	C	0.601439	1.402530	0.000013
C77	C	1.005291	1.300670	-0.300082
C78	C	1.005290	1.402523	-0.401935
C79	C	1.398815	0.553189	-0.055656
C80	C	1.504580	0.447917	-0.055655
C81	C	1.061248	0.553194	0.503085
C82	C	1.061249	0.447924	0.608357
C83	C	1.510723	0.553187	0.391714
C84	C	1.616492	0.447915	0.496986
H85	H	1.073040	0.492118	0.067453
C86	C	1.124944	0.605419	0.514655
C87	C	1.081872	0.660456	0.573218
C88	C	1.140506	0.708598	0.583886
H89	H	1.202437	0.536872	0.554426
H90	H	1.116422	0.669313	0.442387
H91	H	1.090403	0.596568	0.645474
H92	H	1.004385	0.729018	0.533465
H93	H	1.131985	0.772492	0.511617
H94	H	1.217997	0.640044	0.623654
H95	H	1.111284	0.745957	0.623612
H96	H	1.496291	0.559543	0.047711
H97	H	0.937539	1.000572	-0.558979
H98	H	1.152172	1.000554	-0.408280
H99	H	0.858420	0.738443	-0.146170
C100	C	1.732653	0.395709	0.485411
C101	C	1.744892	0.340673	0.426844
C102	C	1.851894	0.292551	0.416176
H103	H	1.741264	0.464266	0.445643
H104	H	1.788329	0.331818	0.557680
H105	H	1.689232	0.404558	0.354588
H106	H	1.736303	0.272101	0.466595
H107	H	1.907571	0.228660	0.488445
H108	H	1.860496	0.361115	0.376411
H109	H	1.860217	0.255193	0.376448
H110	H	0.937549	1.000558	-0.440990
C111	C	1.490071	0.454359	0.609837
C112	C	1.501043	0.392040	0.723512
C113	C	1.394123	0.439764	0.734378
H114	H	1.450048	0.544705	0.574988
H115	H	1.450128	0.438636	0.574959
H116	H	1.540968	0.407774	0.758376
H117	H	1.541046	0.301696	0.758384
H118	H	1.354180	0.424041	0.699499
H119	H	1.354108	0.530109	0.699524
H120	H	1.401553	0.397480	0.811505
H121	H	1.109155	0.408871	0.695088
H122	H	1.152167	1.000568	-0.591664
H123	H	0.858411	0.555067	-0.146167
H124	H	0.957386	0.559552	0.393361
C125	C	1.522052	0.605376	0.275968
C126	C	1.414893	0.699384	0.194565
C127	C	1.425289	0.747474	0.087929
H128	H	1.561911	0.642849	0.267357
H129	H	1.561923	0.536749	0.267457
H130	H	1.375038	0.768000	0.203073
H131	H	1.375016	0.661942	0.203140
H132	H	1.465160	0.678846	0.079418
H133	H	1.465151	0.784940	0.079330
H134	H	1.352585	0.811255	0.032684
H135	H	1.073037	0.374134	0.067461
C136	C	0.605371	1.000552	-0.338692
C137	C	0.542693	1.000528	-0.411255
C138	C	0.590611	1.000464	-0.494221
H139	H	0.605225	1.075513	-0.379746
H140	H	0.680542	0.925543	-0.304690
H141	H	0.467543	1.075530	-0.445255
H142	H	0.542835	0.925573	-0.370234
H143	H	0.665782	0.925455	-0.460219
H144	H	0.590462	1.075426	-0.535266
H145	H	0.548098	1.000436	-0.543459
C146	C	1.282523	0.605380	-0.119125
C147	C	1.200739	0.699389	-0.106478
C148	C	1.093601	0.747481	-0.164919
H149	H	1.273871	0.642854	-0.196271
H150	H	1.273970	0.536754	-0.090183
H151	H	1.209288	0.768003	-0.135424
H152	H	1.209355	0.661946	-0.029345
H153	H	1.085048	0.678855	-0.135977
H154	H	1.084960	0.784948	-0.242061
H155	H	1.038097	0.811262	-0.156337
C156	C	0.405043	1.000344	-0.338448
C157	C	0.405439	0.889709	-0.287980
C158	C	0.357437	0.889422	-0.370687
H159	H	0.329836	1.075238	-0.379419
H160	H	0.447439	1.000281	-0.387809
H161	H	0.363042	0.889784	-0.238638
H162	H	0.480632	0.814798	-0.247016
H163	H	0.399834	0.889359	-0.420048
H164	H	0.282233	0.964320	-0.411653
H165	H	0.357709	0.814352	-0.336457
H166	H	1.495911	0.408862	-0.103330
H167	H	0.679697	1.000602	-0.165769
H168	H	0.330833	1.000566	-0.165726
C169	C	1.617570	0.454535	0.063721
C170	C	1.565732	0.431287	0.145297
C171	C	1.576209	0.479213	0.203973
H172	H	1.694964	0.412448	0.098763
H173	H	1.582423	0.544918	0.013140
H174	H	1.600883	0.340922	0.195869
H175	H	1.488335	0.473375	0.110284
H176	H	1.541062	0.569596	0.153393
H177	H	1.653605	0.437122	0.239008
H178	H	1.541031	0.463457	0.259322
C179	C	0.304874	1.000346	0.166100
C180	C	0.273124	1.000244	0.256474
C181	C	0.177081	1.000010	0.256813
H182	H	0.245300	1.075275	0.098097
H183	H	0.320845	0.925305	0.173050
H184	H	0.257147	1.075277	0.249516
H185	H	0.332669	0.925320	0.324492
H186	H	0.193053	0.924969	0.263763
H187	H	0.117516	1.074940	0.188806
H188	H	0.155533	0.999928	0.318136
C189	C	0.405095	1.000710	0.338647
C190	C	0.372932	1.111312	0.333360
C191	C	0.324884	1.111520	0.416221
H192	H	0.340902	1.000769	0.326879
H193	H	0.458527	0.925767	0.410219
H194	H	0.319504	1.186235	0.261805
H195	H	0.437105	1.111276	0.345141
H196	H	0.378316	1.036577	0.487793
H197	H	0.260695	1.111576	0.404445
H198	H	0.303065	1.186556	0.412652
C199	C	0.941606	0.454551	0.482359
C200	C	1.016800	0.431304	0.424031
C201	C	0.958169	0.479238	0.317425
H202	H	0.906494	0.412469	0.489401
H203	H	0.885946	0.544934	0.442558
H204	H	1.072440	0.340938	0.463822
H205	H	1.051915	0.473387	0.416958
H206	H	0.902509	0.569621	0.277624
H207	H	0.923059	0.437152	0.324478
H208	H	1.009177	0.463483	0.277832
H209	H	0.592566	1.000509	0.316177
H210	H	1.400486	0.559544	0.488730
H211	H	0.679755	1.000550	0.165773
