data_functionalizedCrystal
_audit_creation_method	'MofGen! by Chris Wilmer'
_symmetry_space_group_name_H-M	'P1'
_symmetry_Int_Tables_number	1
_symmetry_cell_setting	triclinic
loop_
_symmetry_equiv_pos_as_xyz
  x,y,z
_cell_length_a	23.532407
_cell_length_b	10.540539
_cell_length_c	22.010155
_cell_angle_alpha	90.006440
_cell_angle_beta	89.996931
_cell_angle_gamma	83.687084
loop_
_atom_site_label
_atom_site_type_symbol
_atom_site_fract_x
_atom_site_fract_y
_atom_site_fract_z
O1	O	-0.756281	-0.154064	0.050447
O2	O	-0.590565	-0.176358	0.050464
O3	O	-0.677204	0.019620	0.050454
O4	O	-0.669643	-0.350041	0.050457
O5	O	-0.677188	0.019590	-0.050596
O6	O	-0.590549	-0.176387	-0.050586
O7	O	-0.756266	-0.154093	-0.050604
Cu8	Cu	-0.673406	-0.165243	-0.059822
Cu9	Cu	-0.673425	-0.165208	0.059682
O10	O	-0.669627	-0.350071	-0.050594
C11	C	-0.676629	0.066889	-0.000070
C12	C	-0.674933	0.207782	-0.000066
C13	C	-0.569338	-0.175805	-0.000059
C14	C	-0.506109	-0.174098	-0.000052
C15	C	-0.777493	-0.154646	-0.000079
C16	C	-0.840722	-0.156353	-0.000082
C17	C	-0.107702	-0.279368	-0.000079
C18	C	-0.048291	-0.277782	-0.000083
O19	O	-0.012191	-0.375368	-0.000104
N20	N	-0.024895	-0.161273	-0.000082
C21	C	-0.060914	-0.046343	-0.000085
O22	O	-0.035558	0.052903	-0.000085
C23	C	-0.120323	-0.047930	-0.000085
C24	C	-0.143715	-0.164446	-0.000079
C25	C	-0.131094	-0.395874	-0.000074
C26	C	-0.190501	-0.397460	-0.000069
C27	C	-0.226515	-0.282538	-0.000069
C28	C	-0.203122	-0.166031	-0.000074
C29	C	-0.156340	0.066999	-0.000092
C30	C	-0.215753	0.065402	-0.000093
C31	C	-0.239146	-0.051114	-0.000087
C32	C	-0.298542	-0.052694	-0.000070
N33	N	-0.321938	-0.169203	-0.000070
C34	C	-0.285924	-0.284125	-0.000070
C35	C	0.063851	-0.043019	-0.000084
C36	C	0.123259	-0.041431	-0.000079
C37	C	0.135878	-0.272870	-0.000079
C38	C	0.076468	-0.274457	-0.000079
C39	C	0.040455	-0.159528	-0.000085
C40	C	-0.410683	-0.287445	-0.000059
C41	C	-0.470095	-0.289020	-0.000052
C42	C	-0.482709	-0.057581	-0.000056
C43	C	-0.423302	-0.056005	-0.000060
C44	C	-0.387290	-0.170948	-0.000064
O45	O	-0.334677	0.044840	-0.000051
O46	O	-0.311288	-0.383354	-0.000077
C47	C	-0.670202	-0.397340	-0.000068
C48	C	-0.671898	-0.538233	-0.000068
N49	N	-0.673397	-0.165266	-0.143874
C50	C	-0.609924	0.389075	0.000167
C51	C	-0.611644	0.242514	-0.000060
C52	C	-0.705381	0.270422	-0.057774
C53	C	-0.703221	0.416896	-0.057823
C54	C	-0.704526	0.417490	0.057090
C55	C	-0.705109	0.270527	0.057853
C56	C	-0.711791	-0.078441	-0.563658
C57	C	-0.711793	-0.078433	-0.627266
O58	O	-0.744414	-0.004627	-0.660161
N59	N	-0.673424	-0.165182	-0.659081
C60	C	-0.635046	-0.251936	-0.627286
O61	O	-0.602410	-0.325721	-0.660189
C62	C	-0.635041	-0.251938	-0.563680
C63	C	-0.673417	-0.165192	-0.531867
C64	C	-0.750163	0.008298	-0.531845
C65	C	-0.750161	0.008288	-0.468242
C66	C	-0.711787	-0.078463	-0.436451
C67	C	-0.673415	-0.165203	-0.468264
C68	C	-0.596661	-0.338686	-0.531886
C69	C	-0.596659	-0.338679	-0.468275
C70	C	-0.635035	-0.251933	-0.436462
C71	C	-0.635039	-0.251964	-0.372870
N72	N	-0.673408	-0.165215	-0.341054
C73	C	-0.711782	-0.078464	-0.372845
C74	C	-0.635059	-0.251925	-0.760864
C75	C	-0.635066	-0.251930	-0.824469
C76	C	-0.711813	-0.078424	-0.824444
C77	C	-0.711808	-0.078426	-0.760838
C78	C	-0.673428	-0.165176	-0.729048
C79	C	-0.711775	-0.078494	-0.239274
C80	C	-0.711771	-0.078516	-0.175665
C81	C	-0.635023	-0.252016	-0.175695
C82	C	-0.635028	-0.252000	-0.239299
C83	C	-0.673407	-0.165228	-0.271086
O84	O	-0.602433	-0.325728	-0.339935
O85	O	-0.744407	-0.004681	-0.339935
N86	N	-0.673438	-0.165174	0.143735
H87	H	-0.381368	-0.381042	-0.000064
H88	H	-0.512042	0.035985	-0.000054
H89	H	-0.587504	0.199953	-0.041492
N90	N	-0.677404	0.458410	0.115027
H91	H	-0.663971	0.380603	0.140097
H92	H	-0.706402	0.515995	0.138945
H93	H	-0.682830	0.228950	0.100544
N94	N	-0.092243	-0.519818	-0.000074
H95	H	-0.067312	-0.524322	-0.037534
H96	H	-0.116113	-0.593803	-0.000050
N97	N	-0.766232	0.240462	0.062467
H98	H	-0.775269	0.185500	0.026918
H99	H	-0.792761	0.322567	0.061969
H100	H	-0.603807	-0.322577	-0.734984
N101	N	-0.765079	0.482025	0.057603
H102	H	-0.771371	0.539667	0.021010
H103	H	-0.771675	0.534336	0.095908
H104	H	-0.743023	-0.007877	-0.149765
N105	N	-0.753190	0.015136	-0.726521
H106	H	-0.793667	0.000978	-0.737583
H107	H	-0.746218	0.105107	-0.737601
N108	N	-0.555261	-0.432233	-0.566184
H109	H	-0.577235	-0.488210	-0.592579
H110	H	-0.530962	-0.487081	-0.536343
N111	N	-0.593676	-0.345493	-0.858778
H112	H	-0.615660	-0.401453	-0.885171
H113	H	-0.569378	-0.400356	-0.828942
H114	H	-0.565404	-0.409320	-0.442395
N115	N	-0.753172	0.015080	-0.273555
H116	H	-0.746255	0.105094	-0.262476
H117	H	-0.793624	0.000787	-0.262462
H118	H	-0.748737	0.466357	-0.060445
N119	N	-0.593642	-0.345555	-0.273620
H120	H	-0.615629	-0.401504	-0.300017
H121	H	-0.569341	-0.400433	-0.243792
H122	H	-0.603781	-0.322652	-0.149802
H123	H	-0.684217	0.227116	-0.100714
H124	H	-0.489138	-0.383905	-0.000047
N125	N	-0.791546	0.101862	-0.433934
H126	H	-0.816958	0.053651	-0.407545
H127	H	-0.815812	0.156790	-0.463772
H128	H	-0.209541	-0.492339	-0.000064
N129	N	-0.673397	0.453268	-0.114955
H130	H	-0.661773	0.374189	-0.139871
H131	H	-0.638274	0.495205	-0.103721
H132	H	-0.751858	0.249593	-0.059925
H133	H	0.057427	-0.369335	-0.000078
H134	H	0.165212	-0.366446	-0.000081
H135	H	-0.781411	0.078947	-0.557724
H136	H	-0.743058	-0.007786	-0.850340
H137	H	0.142300	0.053448	-0.000075
H138	H	-0.137305	0.161879	-0.000097
N139	N	0.025010	0.080949	-0.000087
H140	H	0.048850	0.154989	-0.000087
H141	H	0.000082	0.085350	0.037373
N142	N	-0.254596	0.189365	-0.000103
H143	H	-0.230758	0.263409	-0.000107
H144	H	-0.279522	0.193771	0.037359
H145	H	-0.404255	0.038872	-0.000056
H146	H	-0.587684	0.199136	0.041307
H147	H	-0.585018	0.418454	-0.040979
N148	N	-0.576809	0.425884	0.054981
H149	H	-0.601657	0.490041	0.080194
H150	H	-0.541638	0.464759	0.041164
