data_functionalizedCrystal
_audit_creation_method	'MofGen! by Chris Wilmer'
_symmetry_space_group_name_H-M	'P1'
_symmetry_Int_Tables_number	1
_symmetry_cell_setting	triclinic
loop_
_symmetry_equiv_pos_as_xyz
  x,y,z
_cell_length_a	12.645330
_cell_length_b	12.645331
_cell_length_c	16.120297
_cell_angle_alpha	87.113238
_cell_angle_beta	92.876762
_cell_angle_gamma	89.984155
loop_
_atom_site_label
_atom_site_type_symbol
_atom_site_fract_x
_atom_site_fract_y
_atom_site_fract_z
Zn1	Zn	-0.452501	-1.590322	-0.471228
Zn2	Zn	0.047499	-1.090322	0.028772
Zn3	Zn	-0.620790	-1.599199	-0.331827
Zn4	Zn	-0.120790	-1.099199	0.168173
Zn5	Zn	-0.443537	-1.422031	-0.331851
Zn6	Zn	0.056463	-0.922031	0.168149
Zn7	Zn	-0.629716	-1.413019	-0.471214
Zn8	Zn	-0.129716	-0.913019	0.028786
O9	O	-0.536636	-1.506143	-0.401530
O10	O	-0.036636	-1.006143	0.098470
O11	O	-0.474841	-1.739847	-0.452732
O12	O	0.025159	-1.239847	0.047268
O13	O	-0.589791	-1.583184	-0.215166
O14	O	-0.089791	-1.083184	0.284834
O15	O	-0.296380	-1.444411	-0.350356
O16	O	0.203620	-0.944411	0.149644
O17	O	-0.598482	-1.746369	-0.350314
O18	O	-0.098482	-1.246369	0.149686
O19	O	-0.302966	-1.568054	-0.452756
O20	O	0.197034	-1.068054	0.047244
O21	O	-0.459564	-1.453019	-0.215184
O22	O	0.040436	-0.953019	0.284816
O23	O	-0.468219	-1.272488	-0.350342
O24	O	0.031781	-0.772488	0.149658
O25	O	-0.613695	-1.429052	-0.587880
O26	O	-0.113695	-0.929052	-0.087880
O27	O	-0.605003	-1.265867	-0.452732
O28	O	-0.105003	-0.765867	0.047268
O29	O	-0.483495	-1.559316	-0.587891
O30	O	0.016505	-1.059316	-0.087891
O31	O	-0.770321	-1.574446	-0.350301
O32	O	-0.270321	-1.074446	0.149699
O33	O	-0.776878	-1.437660	-0.452708
O34	O	-0.276878	-0.937660	0.047292
C35	C	-0.536608	-1.230713	-0.401539
C36	C	-0.036608	-0.730713	0.098461
C37	C	-0.536622	-1.112881	-0.401562
C38	C	-0.036622	-0.612881	0.098438
C39	C	-0.812065	-1.506066	-0.401518
C40	C	-0.312065	-1.006066	0.098482
C41	C	-0.929897	-1.506129	-0.401541
C42	C	-0.429897	-1.006129	0.098459
C43	C	-0.623098	-0.941209	-0.465643
C44	C	-0.123098	-0.441209	0.034357
C45	C	-0.622851	-1.063752	-0.465908
C46	C	-0.122851	-0.563752	0.034092
C47	C	-0.426516	-1.066854	-0.425566
C48	C	0.073484	-0.566854	0.074434
C49	C	-0.427045	-0.944227	-0.426020
C50	C	0.072955	-0.444227	0.073980
C51	C	-0.559334	-0.951332	-0.313282
C52	C	-0.059334	-0.451332	0.186718
C53	C	-0.561808	-1.073908	-0.313756
C54	C	-0.061808	-0.573908	0.186244
C55	C	-1.101643	-1.420402	-0.466164
C56	C	-0.601643	-0.920402	0.033836
C57	C	-0.979070	-1.419998	-0.465957
C58	C	-0.479070	-0.919998	0.034043
C59	C	-0.968819	-1.481553	-0.313684
C60	C	-0.468819	-0.981553	0.186316
C61	C	-1.091442	-1.481030	-0.314076
C62	C	-0.591442	-0.981030	0.185924
C63	C	-1.098443	-1.616976	-0.424063
C64	C	-0.598443	-1.116976	0.075937
C65	C	-0.975960	-1.616164	-0.425984
C66	C	-0.475960	-1.116164	0.074016
C67	C	-0.260133	-1.506247	-0.401560
C68	C	0.239867	-1.006247	0.098440
C69	C	-0.142304	-1.506292	-0.401573
C70	C	0.357696	-1.006292	0.098427
C71	C	-0.550591	-1.492188	-0.618981
C72	C	-0.050591	-0.992188	-0.118981
C73	C	-0.556537	-1.486242	-0.711646
C74	C	-0.056537	-0.986242	-0.211646
C75	C	-0.536661	-0.782648	-0.401528
C76	C	-0.036661	-0.282648	0.098472
C77	C	-0.536661	-0.900477	-0.401542
C78	C	-0.036661	-0.400477	0.098458
C79	C	-0.567370	-1.475346	-0.881305
C80	C	-0.067370	-0.975346	-0.381305
C81	C	-0.505584	-1.537148	-0.922607
C82	C	-0.005584	-1.037148	-0.422607
C83	C	-0.511612	-1.531086	-1.017011
C84	C	-0.011612	-1.031086	-0.517011
C85	C	-0.561344	-1.481407	-0.786892
C86	C	-0.061344	-0.981407	-0.286892
C87	C	-0.522660	-1.520104	-0.184925
C88	C	-0.022660	-1.020104	0.315075
C89	C	-0.516414	-1.526256	-0.092261
C90	C	-0.016414	-1.026256	0.407739
H91	H	-0.704679	-1.094795	-0.450865
H92	H	-0.204679	-0.594795	0.049135
H93	H	-0.448160	-1.594611	-0.887067
H94	H	0.051840	-1.094611	-0.387067
H95	H	-0.942496	-1.683073	-0.382364
H96	H	-0.442496	-1.183073	0.117636
H97	H	-0.950984	-1.634801	-0.490643
H98	H	-0.450984	-1.134801	0.009357
H99	H	-0.624790	-1.417888	-0.916843
H100	H	-0.124790	-0.917888	-0.416843
H101	H	-1.133353	-1.640502	-0.487039
H102	H	-0.633353	-1.140502	0.012961
C103	C	-0.671214	-1.114785	-0.289288
C104	C	-0.171214	-0.614785	0.210712
H105	H	-0.701424	-1.155437	-0.332397
H106	H	-0.201424	-0.655437	0.167603
H107	H	-0.716141	-1.056405	-0.281087
H108	H	-0.216141	-0.556405	0.218913
H109	H	-0.663563	-1.157766	-0.239285
H110	H	-0.163563	-0.657766	0.260715
C111	C	-0.337480	-1.110128	-0.364459
C112	C	0.162520	-0.610128	0.135541
H113	H	-0.271611	-1.081278	-0.380115
H114	H	0.228389	-0.581278	0.119885
H115	H	-0.334912	-1.185103	-0.365739
H116	H	0.165088	-0.685103	0.134261
H117	H	-0.350986	-1.090673	-0.309816
H118	H	0.149014	-0.590673	0.190184
H119	H	-0.953122	-1.434717	-0.531103
H120	H	-0.453122	-0.934717	-0.031103
H121	H	-0.637955	-0.921818	-0.291466
H122	H	-0.137955	-0.421818	0.208534
H123	H	-0.936953	-1.401687	-0.294285
H124	H	-0.436953	-0.901687	0.205715
C125	C	-0.734025	-0.902658	-0.445557
C126	C	-0.234025	-0.402658	0.054443
H127	H	-0.728622	-0.861370	-0.397902
H128	H	-0.228622	-0.361370	0.102098
H129	H	-0.778236	-0.962000	-0.434840
H130	H	-0.278236	-0.462000	0.065160
H131	H	-0.763648	-0.860793	-0.491539
H132	H	-0.263648	-0.360793	0.008461
H133	H	-0.608762	-0.906222	-0.530660
H134	H	-0.108762	-0.406222	-0.030660
H135	H	-0.407147	-0.911488	-0.490541
H136	H	0.092853	-0.411488	0.009459
C137	C	-0.603177	-1.097707	-0.554247
C138	C	-0.103177	-0.597707	-0.054247
H139	H	-0.595293	-1.036574	-0.590110
H140	H	-0.095293	-0.536574	-0.090110
H141	H	-0.661558	-1.138138	-0.574156
H142	H	-0.161558	-0.638138	-0.074156
H143	H	-0.540518	-1.139344	-0.552976
H144	H	-0.040518	-0.639344	-0.052976
C145	C	-1.147204	-1.439930	-0.554442
C146	C	-0.647204	-0.939930	-0.054442
H147	H	-1.191423	-1.500646	-0.552703
H148	H	-0.691423	-1.000646	-0.052703
H149	H	-1.090868	-1.451131	-0.589856
H150	H	-0.590868	-0.951131	-0.089856
H151	H	-1.187492	-1.380034	-0.575220
H152	H	-0.687492	-0.880034	-0.075220
C153	C	-1.133394	-1.703310	-0.360456
C154	C	-0.633394	-1.203310	0.139544
H155	H	-1.174530	-1.672114	-0.320392
H156	H	-0.674530	-1.172114	0.179608
H157	H	-1.072627	-1.736287	-0.333406
H158	H	-0.572627	-1.236287	0.166594
H159	H	-1.174579	-1.754773	-0.388311
H160	H	-0.674579	-1.254773	0.111689
H161	H	-0.360653	-0.917420	-0.381472
H162	H	0.139347	-0.417420	0.118528
H163	H	-0.406135	-1.093460	-0.489387
H164	H	0.093865	-0.593460	0.010613
H165	H	-0.496304	-0.925397	-0.265521
H166	H	0.003696	-0.425397	0.234479
C167	C	-0.482315	-1.119642	-0.245770
C168	C	0.017685	-0.619642	0.254230
H169	H	-0.432498	-1.163292	-0.270155
H170	H	0.067502	-0.663292	0.229845
H171	H	-0.519141	-1.160517	-0.205487
H172	H	-0.019141	-0.660517	0.294513
H173	H	-0.446241	-1.063323	-0.219734
H174	H	0.053759	-0.563323	0.280266
H175	H	-1.131592	-1.338738	-0.451456
H176	H	-0.631592	-0.838738	0.048544
H177	H	-1.118901	-1.400287	-0.295022
H178	H	-0.618901	-0.900287	0.204978
C179	C	-0.938265	-1.308999	-0.445818
C180	C	-0.438265	-0.808999	0.054182
H181	H	-0.996622	-1.263981	-0.437725
H182	H	-0.496622	-0.763981	0.062275
H183	H	-0.899434	-1.280633	-0.490679
H184	H	-0.399434	-0.780633	0.009321
H185	H	-0.893576	-1.313904	-0.396608
H186	H	-0.393576	-0.813904	0.103392
C187	C	-1.127175	-1.562268	-0.246837
C188	C	-0.627175	-1.062268	0.253163
H189	H	-1.066754	-1.595438	-0.219398
H190	H	-0.566754	-1.095438	0.280602
H191	H	-1.170477	-1.614263	-0.272070
H192	H	-0.670477	-1.114263	0.227930
H193	H	-1.166324	-1.527204	-0.207545
H194	H	-0.666324	-1.027204	0.292455
C195	C	-0.925116	-1.563712	-0.246889
C196	C	-0.425116	-1.063712	0.253111
H197	H	-0.882639	-1.613849	-0.272050
H198	H	-0.382639	-1.113849	0.227950
H199	H	-0.982327	-1.599066	-0.221489
H200	H	-0.482327	-1.099066	0.278511
H201	H	-0.883400	-1.528904	-0.205926
H202	H	-0.383400	-1.028904	0.294074
