data_functionalizedCrystal
_audit_creation_method	'MofGen! by Chris Wilmer'
_symmetry_space_group_name_H-M	'P1'
_symmetry_Int_Tables_number	1
_symmetry_cell_setting	triclinic
loop_
_symmetry_equiv_pos_as_xyz
  x,y,z
_cell_length_a	27.732048
_cell_length_b	27.732046
_cell_length_c	26.809956
_cell_angle_alpha	89.963902
_cell_angle_beta	89.998605
_cell_angle_gamma	97.357683
loop_
_atom_site_label
_atom_site_type_symbol
_atom_site_fract_x
_atom_site_fract_y
_atom_site_fract_z
O1	O	0.640924	-0.057535	0.041422
O2	O	1.140924	0.442465	0.541422
O3	O	0.500131	-0.066280	0.041438
O4	O	1.000131	0.433720	0.541438
O5	O	0.574901	0.008489	0.041418
O6	O	1.074901	0.508489	0.541418
O7	O	0.566154	-0.132304	0.041442
O8	O	1.066154	0.367696	0.541442
O9	O	0.574899	0.008527	-0.041541
O10	O	1.074899	0.508527	0.458459
O11	O	0.500129	-0.066242	-0.041521
O12	O	1.000129	0.433758	0.458479
O13	O	0.640923	-0.057497	-0.041537
O14	O	1.140923	0.442503	0.458463
Zn15	Zn	0.570526	-0.061864	-0.054701
Zn16	Zn	1.070526	0.438136	0.445299
Zn17	Zn	0.570528	-0.061914	0.054602
Zn18	Zn	1.070528	0.438086	0.554602
O19	O	0.566153	-0.132266	-0.041517
O20	O	1.066153	0.367734	0.458483
C21	C	0.482123	-0.066078	-0.000040
C22	C	0.982123	0.433922	0.499960
C23	C	0.428468	-0.065525	-0.000034
C24	C	0.928468	0.434475	0.499966
C25	C	0.089653	-0.106229	-0.000049
C26	C	0.589653	0.393771	0.499951
C27	C	-0.112007	-0.104178	-0.000054
C28	C	0.387993	0.395822	0.499946
O29	O	-0.143262	-0.141399	-0.000069
O30	O	0.356738	0.358601	0.499931
N31	N	-0.131130	-0.059843	-0.000060
N32	N	0.368870	0.440157	0.499940
C33	C	-0.099835	-0.016017	-0.000069
C34	C	0.400165	0.483983	0.499931
O35	O	-0.120728	0.021740	-0.000079
O36	O	0.379272	0.521740	0.499921
C37	C	0.101823	-0.018068	-0.000067
C38	C	0.601823	0.481932	0.499933
C39	C	0.120944	-0.062407	-0.000056
C40	C	0.620944	0.437593	0.499944
C41	C	0.108774	-0.150563	-0.000038
C42	C	0.608774	0.349437	0.499962
C43	C	0.159186	-0.151076	-0.000034
C44	C	0.659186	0.348924	0.499966
C45	C	0.190477	-0.107253	-0.000041
C46	C	0.690477	0.392747	0.499959
C47	C	0.171356	-0.062919	-0.000052
C48	C	0.671356	0.437081	0.499948
C49	C	0.133117	0.025757	-0.000080
C50	C	0.633117	0.525757	0.499920
C51	C	0.183535	0.025240	-0.000081
C52	C	0.683535	0.525240	0.499919
C53	C	0.202655	-0.019098	-0.000069
C54	C	0.702655	0.480902	0.499931
C55	C	0.253059	-0.019609	-0.000055
C56	C	0.753059	0.480391	0.499945
N57	N	0.272182	-0.063944	-0.000049
N58	N	0.772182	0.436056	0.499951
C59	C	0.240891	-0.107766	-0.000042
C60	C	0.740891	0.392234	0.499958
C61	C	-0.205709	-0.014943	-0.000068
C62	C	0.294291	0.485057	0.499932
C63	C	-0.256124	-0.014430	-0.000068
C64	C	0.243876	0.485570	0.499932
C65	C	-0.268292	-0.102591	-0.000054
C66	C	0.231708	0.397409	0.499946
C67	C	-0.217876	-0.103104	-0.000051
C68	C	0.282124	0.396896	0.499949
C69	C	-0.186586	-0.059278	-0.000062
C70	C	0.313414	0.440722	0.499938
C71	C	0.346760	-0.108839	-0.000033
C72	C	0.846760	0.391161	0.499967
C73	C	0.397177	-0.109347	-0.000027
C74	C	0.897177	0.390653	0.499973
C75	C	0.409341	-0.021186	-0.000044
C76	C	0.909341	0.478814	0.499956
C77	C	0.358928	-0.020678	-0.000047
C78	C	0.858928	0.479322	0.499953
C79	C	0.327639	-0.064508	-0.000043
C80	C	0.827639	0.435492	0.499957
O81	O	0.284343	0.017592	-0.000045
O82	O	0.784343	0.517592	0.499955
O83	O	0.261794	-0.145518	-0.000042
O84	O	0.761794	0.354482	0.499958
C85	C	0.039241	-0.105717	-0.000053
C86	C	0.539241	0.394283	0.499947
C87	C	0.020120	-0.061382	-0.000064
C88	C	0.520120	0.438618	0.499936
C89	C	0.051411	-0.017560	-0.000071
C90	C	0.551411	0.482440	0.499929
C91	C	-0.030294	-0.060869	-0.000063
C92	C	0.469706	0.439131	0.499937
C93	C	-0.061585	-0.104691	-0.000056
C94	C	0.438415	0.395309	0.499944
C95	C	-0.042462	-0.149026	-0.000050
C96	C	0.457538	0.350974	0.499950
C97	C	0.007950	-0.149539	-0.000046
C98	C	0.507950	0.350461	0.499954
C99	C	0.032287	0.026775	-0.000077
C100	C	0.532287	0.526775	0.499923
C101	C	-0.018125	0.027284	-0.000081
C102	C	0.481875	0.527284	0.499919
C103	C	-0.049416	-0.016538	-0.000074
C104	C	0.450584	0.483462	0.499926
C105	C	0.574717	0.026515	-0.000063
C106	C	1.074717	0.526515	0.499937
C107	C	0.574164	0.080170	-0.000068
C108	C	1.074164	0.580170	0.499932
C109	C	0.614870	0.418985	-0.000056
C110	C	1.114870	0.918985	0.499944
C111	C	0.612820	0.620645	-0.000053
C112	C	1.112820	1.120645	0.499947
O113	O	0.650041	0.651901	-0.000037
O114	O	1.150041	1.151901	0.499963
N115	N	0.568485	0.639769	-0.000049
N116	N	1.068485	1.139769	0.499951
C117	C	0.524659	0.608474	-0.000043
C118	C	1.024659	1.108474	0.499957
O119	O	0.486902	0.629367	-0.000034
O120	O	0.986902	1.129367	0.499966
C121	C	0.526710	0.406815	-0.000041
C122	C	1.026710	0.906815	0.499959
C123	C	0.571047	0.387695	-0.000050
C124	C	1.071047	0.887695	0.499950
C125	C	0.659204	0.399864	-0.000064
C126	C	1.159204	0.899864	0.499936
C127	C	0.659716	0.349452	-0.000067
C128	C	1.159716	0.849452	0.499933
C129	C	0.615894	0.318161	-0.000062
C130	C	1.115894	0.818161	0.499938
C131	C	0.571559	0.337283	-0.000054
C132	C	1.071559	0.837283	0.499946
C133	C	0.482884	0.375522	-0.000031
C134	C	0.982884	0.875522	0.499969
C135	C	0.483401	0.325104	-0.000029
C136	C	0.983401	0.825104	0.499971
C137	C	0.527739	0.305984	-0.000038
C138	C	1.027739	0.805984	0.499962
C139	C	0.528249	0.255580	-0.000052
C140	C	1.028249	0.755580	0.499948
N141	N	0.572584	0.236456	-0.000056
N142	N	1.072584	0.736456	0.499944
C143	C	0.616407	0.267747	-0.000061
C144	C	1.116407	0.767747	0.499939
C145	C	0.523586	0.714348	-0.000044
C146	C	1.023586	1.214348	0.499956
C147	C	0.523073	0.764763	-0.000045
C148	C	1.023073	1.264763	0.499955
C149	C	0.611234	0.776930	-0.000055
C150	C	1.111234	1.276930	0.499945
C151	C	0.611746	0.726515	-0.000058
C152	C	1.111746	1.226515	0.499942
C153	C	0.567921	0.695225	-0.000048
C154	C	1.067921	1.195225	0.499952
C155	C	0.617478	0.161878	-0.000068
C156	C	1.117478	0.661878	0.499932
C157	C	0.617986	0.111461	-0.000074
C158	C	1.117986	0.611461	0.499926
C159	C	0.529826	0.099298	-0.000061
C160	C	1.029826	0.599298	0.499939
C161	C	0.529317	0.149710	-0.000058
C162	C	1.029317	0.649710	0.499942
C163	C	0.573148	0.181000	-0.000060
C164	C	1.073148	0.681000	0.499940
O165	O	0.491048	0.224296	-0.000063
O166	O	0.991048	0.724296	0.499937
O167	O	0.654158	0.246844	-0.000059
O168	O	1.154158	0.746844	0.499941
C169	C	0.614358	0.469397	-0.000052
C170	C	1.114358	0.969397	0.499948
C171	C	0.570024	0.488519	-0.000044
C172	C	1.070024	0.988519	0.499956
C173	C	0.526201	0.457228	-0.000039
C174	C	1.026201	0.957228	0.499961
C175	C	0.569511	0.538933	-0.000045
C176	C	1.069511	1.038933	0.499955
C177	C	0.613333	0.570224	-0.000050
C178	C	1.113333	1.070224	0.499950
C179	C	0.657668	0.551100	-0.000054
C180	C	1.157668	1.051100	0.499946
C181	C	0.658180	0.500688	-0.000058
C182	C	1.158180	1.000688	0.499942
C183	C	0.481866	0.476352	-0.000034
C184	C	0.981866	0.976352	0.499966
C185	C	0.481358	0.526764	-0.000032
C186	C	0.981358	1.026764	0.499968
C187	C	0.525180	0.558055	-0.000037
C188	C	1.025180	1.058055	0.499963
C189	C	0.658931	-0.057699	-0.000058
C190	C	1.158931	0.442301	0.499942
C191	C	0.712585	-0.058252	-0.000061
C192	C	1.212585	0.441748	0.499939
N193	N	0.570528	-0.061829	-0.129297
N194	N	1.070528	0.438171	0.370703
C195	C	0.566339	0.849708	-0.000041
C196	C	1.066339	1.349708	0.499959
C197	C	0.566896	0.796054	-0.000051
C198	C	1.066896	1.296054	0.499949
N199	N	0.570529	-0.061944	0.129198
N200	N	1.070529	0.438056	0.629198
C201	C	0.599571	-0.091059	0.526088
C202	C	1.099571	0.408941	1.026088
C203	C	0.599568	-0.091092	0.317211
C204	C	1.099568	0.408908	0.817211
O205	O	0.624272	-0.115896	0.290216
O206	O	1.124272	0.384104	0.790216
N207	N	0.570535	-0.061917	0.291076
N208	N	1.070535	0.438083	0.791076
C209	C	0.541502	-0.032730	0.317164
C210	C	1.041502	0.467270	0.817164
O211	O	0.516811	-0.007912	0.290143
O212	O	1.016811	0.492088	0.790143
C213	C	0.541509	-0.032695	0.526041
C214	C	1.041509	0.467305	1.026041
C215	C	0.570540	-0.061875	0.552173
C216	C	1.070540	0.438125	1.052173
C217	C	0.628601	-0.120236	0.552220
C218	C	1.128601	0.379764	1.052220
C219	C	0.628599	-0.120229	0.604436
C220	C	1.128599	0.379771	1.104436
C221	C	0.599568	-0.091046	0.630521
C222	C	1.099568	0.408954	1.130521
C223	C	0.570539	-0.061868	0.604389
C224	C	1.070539	0.438132	1.104389
C225	C	0.512479	-0.003505	0.552129
C226	C	1.012479	0.496495	1.052129
C227	C	0.512485	-0.003498	0.604351
C228	C	1.012485	0.496502	1.104351
C229	C	0.541516	-0.032678	0.630483
C230	C	1.041516	0.467322	1.130483
C231	C	0.541506	-0.032678	0.682690
C232	C	1.041506	0.467322	1.182690
N233	N	0.570540	-0.061852	0.708824
N234	N	1.070540	0.438148	1.208824
C235	C	0.599571	-0.091036	0.682740
C236	C	1.099571	0.408964	1.182740
C237	C	0.541500	-0.032751	0.207501
C238	C	1.041500	0.467249	0.707501
C239	C	0.541498	-0.032760	0.155282
C240	C	1.041498	0.467240	0.655282
C241	C	0.599564	-0.091122	0.155332
C242	C	1.099564	0.408878	0.655332
C243	C	0.599564	-0.091114	0.207552
C244	C	1.099564	0.408886	0.707552
C245	C	0.570534	-0.061926	0.233636
C246	C	1.070534	0.438074	0.733636
C247	C	0.599565	-0.091021	0.792398
C248	C	1.099565	0.408979	1.292398
C249	C	0.599559	-0.091013	0.844619
C250	C	1.099559	0.408987	1.344619
C251	C	0.541495	-0.032650	0.844564
C252	C	1.041495	0.467350	1.344564
C253	C	0.541499	-0.032659	0.792348
C254	C	1.041499	0.467341	1.292348
C255	C	0.570537	-0.061846	0.766266
C256	C	1.070537	0.438154	1.266266
O257	O	0.516819	-0.007883	0.709717
O258	O	1.016819	0.492117	1.209717
O259	O	0.624266	-0.115842	0.709770
O260	O	1.124266	0.384158	1.209770
C261	C	0.599573	-0.091065	0.473872
C262	C	1.099573	0.408935	0.973872
C263	C	0.570543	-0.061888	0.447740
C264	C	1.070543	0.438112	0.947740
C265	C	0.541512	-0.032704	0.473825
C266	C	1.041512	0.467296	0.973825
C267	C	0.570541	-0.061897	0.395521
C268	C	1.070541	0.438103	0.895521
C269	C	0.599572	-0.091081	0.369437
C270	C	1.099572	0.408919	0.869437
C271	C	0.628605	-0.120256	0.395571
C272	C	1.128605	0.379744	0.895571
C273	C	0.628604	-0.120249	0.447787
C274	C	1.128604	0.379751	0.947787
C275	C	0.512479	-0.003529	0.447691
C276	C	1.012479	0.496471	0.947691
C277	C	0.512482	-0.003539	0.395474
C278	C	1.012482	0.496461	0.895474
C279	C	0.541513	-0.032723	0.369390
C280	C	1.041513	0.467277	0.869390
H281	H	0.057760	0.062462	-0.000084
H282	H	0.557760	0.562462	0.499916
Br283	Br	-0.282066	0.045745	-0.000068
Br284	Br	0.217934	0.545745	0.499932
Br285	Br	0.473075	0.036063	0.360016
Br286	Br	0.973075	0.536063	0.860016
Br287	Br	0.422386	0.433893	-0.000025
Br288	Br	0.922386	0.933893	0.499975
H289	H	0.494147	0.073812	-0.000059
H290	H	0.994147	0.573812	0.499941
H291	H	0.652241	-0.144021	0.374324
H292	H	1.152241	0.355979	0.874324
Br293	Br	-0.310767	-0.162064	-0.000045
Br294	Br	0.189233	0.337936	0.499955
H295	H	0.694285	0.485125	-0.000065
H296	H	1.194285	0.985125	0.499935
Br297	Br	0.668006	-0.159848	0.516829
Br298	Br	1.168006	0.340152	1.016829
Br299	Br	0.033891	-0.209715	-0.000029
Br300	Br	0.533891	0.290285	0.499971
H301	H	0.653169	0.187348	-0.000068
H302	H	1.153169	0.687348	0.499932
Br303	Br	0.638975	-0.130631	0.757009
Br304	Br	1.138975	0.369369	1.257009
Br305	Br	0.423920	0.282641	-0.000014
Br306	Br	0.923920	0.782641	0.499986
H307	H	0.647850	0.710951	-0.000065
H308	H	1.147850	1.210951	0.499935
Br309	Br	0.638964	-0.130727	0.119921
Br310	Br	1.138964	0.369273	0.619921
Br311	Br	-0.084938	-0.208499	-0.000036
Br312	Br	0.415062	0.291501	0.499964
Br313	Br	-0.191933	-0.163279	-0.000035
Br314	Br	0.308067	0.336721	0.499965
H315	H	-0.033688	0.063392	-0.000086
H316	H	0.466312	0.563392	0.499914
H317	H	0.488845	0.020272	0.625586
H318	H	0.988845	0.520272	1.125586
H319	H	0.517859	-0.008981	0.228734
H320	H	1.017859	0.491019	0.728734
H321	H	0.693350	0.576586	-0.000061
H322	H	1.193350	1.076586	0.499939
H323	H	0.517853	-0.008905	0.771071
H324	H	1.017853	0.491095	1.271071
H325	H	0.654093	0.095896	-0.000082
H326	H	1.154093	0.595896	0.499918
H327	H	0.517858	-0.008891	0.865812
H328	H	1.017858	0.491109	1.365812
H329	H	0.623200	-0.114777	0.865893
H330	H	1.123200	0.385223	1.365893
Br331	Br	0.469144	0.175661	-0.000058
Br332	Br	0.969144	0.675661	0.499942
Br333	Br	0.421179	0.552707	-0.000023
Br334	Br	0.921179	1.052707	0.499977
H335	H	0.695821	0.333889	-0.000073
H336	H	1.195821	0.833889	0.499927
H337	H	0.209010	0.060929	-0.000090
H338	H	0.709010	0.560929	0.499910
Br339	Br	0.718686	0.442322	-0.000071
Br340	Br	1.218686	0.942322	0.499929
Br341	Br	0.473067	0.036074	0.483083
Br342	Br	0.973067	0.536074	0.983083
Br343	Br	0.462898	0.790706	-0.000045
Br344	Br	0.962898	1.290706	0.499955
Br345	Br	0.667992	-0.159843	0.639892
Br346	Br	1.167992	0.340157	1.139892
H347	H	0.623203	-0.114876	0.228825
H348	H	1.123203	0.385124	0.728825
Br349	Br	0.502087	0.006833	0.119824
Br350	Br	1.002087	0.506833	0.619824
H351	H	0.646916	0.802416	-0.000060
H352	H	1.146916	1.302416	0.499940
Br353	Br	0.107182	0.085934	-0.000084
Br354	Br	0.607182	0.585934	0.499916
H355	H	0.487896	0.688875	-0.000037
H356	H	0.987896	1.188875	0.499963
H357	H	0.652244	-0.144011	0.469059
H358	H	1.152244	0.355989	0.969059
Br359	Br	0.423123	-0.169524	-0.000008
Br360	Br	0.923123	0.330476	0.499992
Br361	Br	0.304304	-0.168323	-0.000029
Br362	Br	0.804304	0.331677	0.499971
H363	H	0.488840	0.020257	0.530861
H364	H	0.988840	0.520257	1.030861
Br365	Br	0.185127	-0.211252	-0.000021
Br366	Br	0.685127	0.288748	0.499979
H367	H	0.343360	0.015426	-0.000049
H368	H	0.843360	0.515426	0.499951
Br369	Br	-0.163250	0.044540	-0.000084
Br370	Br	0.336750	0.544540	0.499916
H371	H	0.446780	0.391081	-0.000020
H372	H	0.946780	0.891081	0.499980
Br373	Br	0.451816	0.038284	-0.000054
Br374	Br	0.951816	0.538284	0.499946
H375	H	0.083301	-0.186251	-0.000034
H376	H	0.583301	0.313749	0.499966
