data_functionalizedCrystal
_audit_creation_method	'MofGen! by Chris Wilmer'
_symmetry_space_group_name_H-M	'P1'
_symmetry_Int_Tables_number	1
_symmetry_cell_setting	triclinic
loop_
_symmetry_equiv_pos_as_xyz
  x,y,z
_cell_length_a	19.188933
_cell_length_b	19.188924
_cell_length_c	9.565339
_cell_angle_alpha	89.998167
_cell_angle_beta	89.997878
_cell_angle_gamma	83.143767
loop_
_atom_site_label
_atom_site_type_symbol
_atom_site_fract_x
_atom_site_fract_y
_atom_site_fract_z
O1	O	0.926141	0.087169	-0.116220
O2	O	0.722830	0.098902	-0.116234
O3	O	0.830355	-0.008620	-0.116210
O4	O	0.818616	0.194692	-0.116244
O5	O	0.830347	-0.008613	0.116310
O6	O	0.722821	0.098909	0.116287
O7	O	0.926133	0.087176	0.116300
Zn8	Zn	0.824476	0.093044	0.153211
Zn9	Zn	0.824487	0.093035	-0.153144
O10	O	0.818608	0.194698	0.116277
C11	C	0.696815	0.098525	0.000025
C12	C	0.619310	0.097384	0.000020
C13	C	0.066060	0.089235	-0.126710
C14	C	0.138884	0.090303	-0.126716
C15	C	0.175296	0.090844	0.000030
C16	C	0.138881	0.090299	0.126792
C17	C	0.066059	0.089224	0.126794
N18	N	0.284312	0.132266	0.094367
N19	N	0.353489	0.133289	0.094356
C20	C	0.394705	0.094082	0.000032
N21	N	0.364128	0.053823	-0.094302
N22	N	0.294944	0.052803	-0.094296
C23	C	0.254260	0.092010	0.000042
C24	C	0.510077	0.095781	-0.126727
C25	C	0.582903	0.096844	-0.126727
C26	C	0.582897	0.096847	0.126784
C27	C	0.510074	0.095776	0.126780
C28	C	0.473667	0.095246	0.000021
C29	C	0.829972	-0.034628	0.000052
C30	C	0.828833	-0.112133	0.000055
C31	C	0.828306	-0.148535	-0.126692
C32	C	0.827226	-0.221358	-0.126703
C33	C	0.826687	-0.257777	0.000041
C34	C	0.827210	-0.221365	0.126805
C35	C	0.828283	-0.148543	0.126812
N36	N	0.864731	-0.377437	0.094376
N37	N	0.863714	-0.446616	0.094361
C38	C	0.823453	-0.477186	0.000027
N39	N	0.784257	-0.435967	-0.094311
N40	N	0.785278	-0.366782	-0.094300
C41	C	0.825523	-0.336741	0.000047
C42	C	0.821754	-0.592552	-0.126740
C43	C	0.820670	-0.665375	-0.126745
C44	C	0.820661	-0.665382	0.126766
C45	C	0.821738	-0.592559	0.126767
C46	C	0.822288	-0.556149	0.000011
C47	C	0.952148	0.087553	0.000039
C48	C	1.029653	0.088694	0.000034
C49	C	0.818991	0.220706	0.000012
C50	C	0.820130	0.298211	-0.000001
N51	N	0.824473	0.093049	0.362290
N52	N	0.824495	0.093024	-0.362224
C53	C	0.774731	0.142758	0.453483
C54	C	0.837783	0.156114	0.546663
C55	C	0.761449	0.079699	0.546665
C56	C	0.887556	0.106436	0.453419
C57	C	0.811181	0.029994	0.453413
C58	C	0.874278	0.043322	0.546552
H59	H	0.480433	0.095347	-0.229942
H60	H	0.168533	0.090738	0.229989
H61	H	0.612545	0.097280	-0.229942
H62	H	0.826769	-0.251022	0.230000
H63	H	0.732704	0.184834	0.412618
O64	O	0.826587	-0.256754	-0.249782
C65	C	0.765519	-0.290798	-0.257334
H66	H	0.723585	-0.263185	-0.185424
H67	H	0.745219	-0.288922	-0.369440
H68	H	0.778372	-0.347814	-0.223247
H69	H	0.820217	-0.695033	0.229963
H70	H	0.708142	0.068418	0.587628
H71	H	0.612544	0.097285	0.229983
H72	H	0.480430	0.095338	0.229990
H73	H	0.828752	-0.118894	-0.229907
H74	H	0.168532	0.090748	-0.229930
O75	O	0.828826	-0.113290	0.250065
C76	C	0.828096	-0.161043	0.361936
H77	H	0.849431	-0.215912	0.324780
H78	H	0.862290	-0.144542	0.450592
H79	H	0.771978	-0.161289	0.400897
H80	H	0.822198	-0.562904	-0.229953
H81	H	0.820238	-0.695012	-0.229962
O82	O	0.030793	0.088735	0.250044
C83	C	0.078546	0.089420	0.361918
H84	H	0.127499	0.112282	0.324760
H85	H	0.052966	0.123000	0.450565
H86	H	0.093785	0.033533	0.400895
O87	O	0.822291	-0.557307	0.250016
C88	C	0.821568	-0.605062	0.361885
H89	H	0.842900	-0.659930	0.324721
H90	H	0.855768	-0.588563	0.450533
H91	H	0.765452	-0.605308	0.400861
H92	H	0.849041	0.209428	0.587622
H93	H	0.940875	0.117781	0.412632
O94	O	0.924614	-0.006770	0.594945
C95	C	0.990942	0.007549	0.547145
H96	H	0.988764	0.065746	0.521140
H97	H	1.031809	-0.006638	0.632171
H98	H	1.005886	-0.024880	0.449475
O99	O	0.797606	-0.033559	0.404563
C100	C	0.731071	-0.047424	0.452018
H101	H	0.697774	0.004151	0.478223
H102	H	0.704073	-0.075861	0.366707
H103	H	0.737564	-0.081773	0.549495
H104	H	0.036423	0.088801	-0.229928
