data_functionalizedCrystal
_audit_creation_method	'MofGen! by Chris Wilmer'
_symmetry_space_group_name_H-M	'P1'
_symmetry_Int_Tables_number	1
_symmetry_cell_setting	triclinic
loop_
_symmetry_equiv_pos_as_xyz
  x,y,z
_cell_length_a	16.625539
_cell_length_b	13.897449
_cell_length_c	13.897448
_cell_angle_alpha	90.018972
_cell_angle_beta	90.027549
_cell_angle_gamma	90.019431
loop_
_atom_site_label
_atom_site_type_symbol
_atom_site_fract_x
_atom_site_fract_y
_atom_site_fract_z
Zn1	Zn	-0.455889	-1.474690	0.383980
Zn2	Zn	0.044111	-0.974690	0.883980
Zn3	Zn	-0.321058	-1.474588	0.545293
Zn4	Zn	0.178942	-0.974588	1.045293
Zn5	Zn	-0.321072	-1.313383	0.384018
Zn6	Zn	0.178928	-0.813383	0.884018
Zn7	Zn	-0.455851	-1.313361	0.545239
Zn8	Zn	0.044149	-0.813361	1.045239
O9	O	-0.388468	-1.394006	0.464632
O10	O	0.111532	-0.894006	0.964632
O11	O	-0.438014	-1.609658	0.405386
O12	O	0.061986	-1.109658	0.905386
O13	O	-0.208228	-1.453170	0.523938
O14	O	0.291772	-0.953170	1.023938
O15	O	-0.338978	-1.334833	0.249031
O16	O	0.161022	-0.834833	0.749031
O17	O	-0.338954	-1.609583	0.523902
O18	O	0.161046	-1.109583	1.023902
O19	O	-0.438027	-1.453344	0.249004
O20	O	0.061973	-0.953344	0.749004
O21	O	-0.208238	-1.334734	0.405450
O22	O	0.291762	-0.834734	0.905450
O23	O	-0.338941	-1.178398	0.405397
O24	O	0.161059	-0.678398	0.905397
O25	O	-0.568688	-1.334795	0.523809
O26	O	-0.068688	-0.834795	1.023809
O27	O	-0.437962	-1.178382	0.523845
O28	O	0.062038	-0.678382	1.023845
O29	O	-0.568716	-1.453323	0.405333
O30	O	-0.068716	-0.953323	0.905333
O31	O	-0.338917	-1.453149	0.680268
O32	O	0.161083	-0.953149	1.180268
O33	O	-0.437948	-1.334696	0.680227
O34	O	0.062052	-0.834696	1.180227
C35	C	-0.388449	-1.143391	0.464620
C36	C	0.111551	-0.643391	0.964620
C37	C	-0.388460	-1.036177	0.464637
C38	C	0.111540	-0.536177	0.964637
C39	C	-0.388444	-1.393935	0.715247
C40	C	0.111556	-0.893935	1.215247
C41	C	-0.388461	-1.393993	0.822461
C42	C	0.111539	-0.893993	1.322461
C43	C	-0.598777	-1.394068	0.464561
C44	C	-0.098777	-0.894068	0.964561
C45	C	-0.688398	-1.394095	0.464530
C46	C	-0.188398	-0.894095	0.964530
C47	C	-1.016574	-1.394139	0.464422
C48	C	-0.516574	-0.894139	0.964422
C49	C	-0.925265	-1.394124	0.464455
C50	C	-0.425265	-0.894124	0.964455
C51	C	-0.852489	-1.394118	0.464477
C52	C	-0.352489	-0.894118	0.964477
C53	C	-0.761174	-1.394102	0.464508
C54	C	-0.261174	-0.894102	0.964508
C55	C	-0.178977	-1.393999	0.464634
C56	C	0.321023	-0.893999	0.964634
C57	C	-0.089356	-1.394159	0.464393
C58	C	0.410644	-0.894159	0.964393
C59	C	-0.388486	-1.645598	0.464646
C60	C	0.111514	-1.145598	0.964646
C61	C	-0.388495	-1.752812	0.464652
C62	C	0.111505	-1.252812	0.964652
C63	C	-0.388482	-0.839882	0.464641
C64	C	0.111518	-0.339882	0.964641
C65	C	-0.388468	-0.949115	0.464636
C66	C	0.111532	-0.449115	0.964636
C67	C	-0.388509	-1.394102	0.213039
C68	C	0.111491	-0.894102	0.713039
C69	C	-0.388526	-1.394144	0.105825
C70	C	0.111474	-0.894144	0.605825
C71	C	-0.388512	-1.394095	1.018756
C72	C	0.111488	-0.894095	1.518756
C73	C	-0.388486	-1.394036	0.909523
C74	C	0.111514	-0.894036	1.409523
