data_functionalizedCrystal
_audit_creation_method	'MofGen! by Chris Wilmer'
_symmetry_space_group_name_H-M	'P1'
_symmetry_Int_Tables_number	1
_symmetry_cell_setting	triclinic
loop_
_symmetry_equiv_pos_as_xyz
  x,y,z
_cell_length_a	16.959447
_cell_length_b	14.908571
_cell_length_c	14.908520
_cell_angle_alpha	90.205961
_cell_angle_beta	86.733916
_cell_angle_gamma	93.308220
loop_
_atom_site_label
_atom_site_type_symbol
_atom_site_fract_x
_atom_site_fract_y
_atom_site_fract_z
Zn1	Zn	-0.537362	-1.353918	0.437386
Zn2	Zn	-0.037362	-0.853918	0.937386
Zn3	Zn	-0.412339	-1.345146	0.587755
Zn4	Zn	0.087661	-0.845146	1.087755
Zn5	Zn	-0.397172	-1.203565	0.428733
Zn6	Zn	0.102828	-0.703565	0.928733
Zn7	Zn	-0.536448	-1.194846	0.579010
Zn8	Zn	-0.036448	-0.694846	1.079010
O9	O	-0.470830	-1.274369	0.508221
O10	O	0.029170	-0.774369	1.008221
O11	O	-0.527507	-1.478579	0.464614
O12	O	-0.027507	-0.978579	0.964614
O13	O	-0.299717	-1.326343	0.566700
O14	O	0.200283	-0.826343	1.066700
O15	O	-0.409803	-1.230830	0.304059
O16	O	0.090197	-0.730830	0.804059
O17	O	-0.435653	-1.472134	0.575090
O18	O	0.064347	-0.972134	1.075090
O19	O	-0.512800	-1.341294	0.310416
O20	O	-0.012800	-0.841294	0.810416
O21	O	-0.288573	-1.222324	0.449866
O22	O	0.211427	-0.722324	0.949866
O23	O	-0.408917	-1.076585	0.441386
O24	O	0.091083	-0.576585	0.941386
O25	O	-0.647179	-1.215970	0.560184
O26	O	-0.147179	-0.715970	1.060184
O27	O	-0.511243	-1.070179	0.551794
O28	O	-0.011243	-0.570179	1.051794
O29	O	-0.647850	-1.332840	0.456134
O30	O	-0.147850	-0.832840	0.956134
O31	O	-0.434768	-1.317888	0.712417
O32	O	0.065232	-0.817888	1.212417
O33	O	-0.525950	-1.207464	0.705992
O34	O	-0.025950	-0.707464	1.205992
C35	C	-0.481924	-1.260802	0.741830
C36	C	0.018076	-0.760802	1.241830
C37	C	-0.486701	-1.255081	0.841773
C38	C	0.013299	-0.755081	1.341773
C39	C	-0.458335	-1.040757	0.494703
C40	C	0.041665	-0.540757	0.994703
C41	C	-0.453010	-0.940815	0.488942
C42	C	0.046990	-0.440815	0.988942
C43	C	-0.676997	-1.274411	0.508149
C44	C	-0.176997	-0.774411	1.008149
C45	C	-0.764853	-1.274429	0.508118
C46	C	-0.264853	-0.774429	1.008118
C47	C	-1.135983	-1.213693	0.562204
C48	C	-0.635983	-0.713693	1.062204
C49	C	-1.136677	-1.335390	0.453855
C50	C	-0.636677	-0.835390	0.953855
C51	C	-1.054131	-1.335365	0.453873
C52	C	-0.554131	-0.835365	0.953873
C53	C	-1.012507	-1.274504	0.508058
C54	C	-0.512507	-0.774504	1.008058
C55	C	-1.053429	-1.213668	0.562225
C56	C	-0.553429	-0.713668	1.062225
C57	C	-1.013203	-1.396206	0.399713
C58	C	-0.513203	-0.896206	0.899713
C59	C	-0.930651	-1.396184	0.399729
C60	C	-0.430651	-0.896184	0.899729
C61	C	-0.889025	-1.335318	0.453910
C62	C	-0.389025	-0.835318	0.953910
C63	C	-0.929953	-1.274479	0.508079
C64	C	-0.429953	-0.774479	1.008079
C65	C	-0.888329	-1.213617	0.562264
C66	C	-0.388329	-0.713617	1.062264
C67	C	-0.929254	-1.152773	0.616429
C68	C	-0.429254	-0.652773	1.116429
C69	C	-1.011803	-1.152801	0.616406
C70	C	-0.511803	-0.652801	1.116406
C71	C	-0.806477	-1.335290	0.453933
C72	C	-0.306477	-0.835290	0.953933
C73	C	-0.805775	-1.213592	0.562285
C74	C	-0.305775	-0.713592	1.062285
C75	C	-0.265465	-1.274383	0.508231
C76	C	0.234535	-0.774383	1.008231
C77	C	-0.177607	-1.274554	0.508019
C78	C	0.322393	-0.774554	1.008019
C79	C	-0.483374	-1.508893	0.521793
C80	C	0.016626	-1.008893	1.021793
C81	C	-0.488719	-1.608834	0.527576
C82	C	0.011281	-1.108834	1.027576
C83	C	-0.549427	-0.746382	0.593261
C84	C	-0.049427	-0.246382	1.093261
C85	C	-0.544426	-0.652478	0.587851
C86	C	-0.044426	-0.152478	1.087851
C87	C	-0.438011	-0.659101	0.472706
C88	C	0.061989	-0.159101	0.972706
C89	C	-0.443012	-0.753005	0.478116
C90	C	0.056988	-0.253005	0.978116
C91	C	-0.498721	-0.796642	0.538397
C92	C	0.001279	-0.296642	1.038397
C93	C	-0.503718	-0.890548	0.543812
C94	C	-0.003718	-0.390548	1.043812
C95	C	-0.397307	-0.897170	0.428663
C96	C	0.102693	-0.397170	0.928663
C97	C	-0.392306	-0.803266	0.423252
C98	C	0.107694	-0.303266	0.923252
C99	C	-0.459711	-1.288013	0.273702
C100	C	0.040289	-0.788013	0.773702
C101	C	-0.454973	-1.293828	0.173763
C102	C	0.045027	-0.793828	0.673763
C103	C	-0.400817	-1.359432	1.036214
C104	C	0.099183	-0.859432	1.536214
C105	C	-0.405303	-1.354059	1.130120
C106	C	0.094697	-0.854059	1.630120
C107	C	-0.500163	-1.238967	1.123494
C108	C	-0.000163	-0.738967	1.623494
C109	C	-0.495677	-1.244340	1.029587
C110	C	0.004323	-0.744340	1.529587
C111	C	-0.446001	-1.304574	0.985951
C112	C	0.053999	-0.804574	1.485951
C113	C	-0.441512	-1.309941	0.892043
C114	C	0.058488	-0.809941	1.392043
C115	C	-0.536375	-1.194854	0.885418
C116	C	-0.036375	-0.694854	1.385418
C117	C	-0.540861	-1.189481	0.979324
C118	C	-0.040861	-0.689481	1.479324
H119	H	-0.771890	-1.164023	0.606401
H120	H	-0.271890	-0.664023	1.106401
H121	H	-0.346952	-0.767723	0.374171
H122	H	0.153048	-0.267723	0.874171
H123	H	-0.360363	-1.408471	1.000685
H124	H	0.139637	-0.908471	1.500685
H125	H	-0.895354	-1.103224	0.660550
H126	H	-0.395354	-0.603224	1.160550
H127	H	-0.368511	-1.398733	1.171041
H128	H	0.131489	-0.898733	1.671041
H129	H	-0.540611	-1.189933	1.159039
H130	H	-0.040611	-0.689933	1.659039
H131	H	-0.401061	-1.358984	0.856515
H132	H	0.098939	-0.858984	1.356515
H133	H	-0.581307	-1.140443	1.014866
H134	H	-0.081307	-0.640443	1.514866
H135	H	-0.573165	-1.150182	0.844483
H136	H	-0.073165	-0.650182	1.344483
H137	H	-0.392661	-0.623556	0.423623
H138	H	0.107339	-0.123556	0.923623
H139	H	-1.045132	-1.103268	0.660507
H140	H	-0.545132	-0.603268	1.160507
H141	H	-1.169308	-1.164152	0.606301
H142	H	-0.669308	-0.664152	1.106301
H143	H	-0.356017	-0.938102	0.383990
H144	H	0.143983	-0.438102	0.883990
H145	H	-0.549078	-0.926076	0.592897
H146	H	-0.049078	-0.426076	1.092897
H147	H	-1.170572	-1.384945	0.409745
H148	H	-0.670572	-0.884945	0.909745
H149	H	-0.897337	-1.445727	0.355625
H150	H	-0.397337	-0.945727	0.855625
H151	H	-1.047099	-1.445761	0.355605
H152	H	-0.547099	-0.945761	0.855605
H153	H	-0.773159	-1.384831	0.409836
H154	H	-0.273159	-0.884831	0.909836
H155	H	-0.585718	-0.611559	0.632525
H156	H	-0.085718	-0.111559	1.132525
H157	H	-0.594784	-0.781912	0.642349
H158	H	-0.094784	-0.281912	1.142349
