data_functionalizedCrystal
_audit_creation_method	'MofGen! by Chris Wilmer'
_symmetry_space_group_name_H-M	'P1'
_symmetry_Int_Tables_number	1
_symmetry_cell_setting	triclinic
loop_
_symmetry_equiv_pos_as_xyz
  x,y,z
_cell_length_a	14.971486
_cell_length_b	13.101039
_cell_length_c	14.971486
_cell_angle_alpha	86.633875
_cell_angle_beta	83.614129
_cell_angle_gamma	93.356744
loop_
_atom_site_label
_atom_site_type_symbol
_atom_site_fract_x
_atom_site_fract_y
_atom_site_fract_z
O1	O	1.191853	0.085097	0.111638
O2	O	0.931455	0.085125	0.125595
O3	O	1.068633	0.085103	-0.011583
O4	O	1.054675	0.085119	0.248816
O5	O	1.058790	-0.085326	-0.001724
O6	O	0.921612	-0.085304	0.135454
O7	O	1.182011	-0.085332	0.121497
Zn8	Zn	1.050249	-0.112377	0.130041
Zn9	Zn	1.063217	0.112170	0.117051
O10	O	1.044833	-0.085310	0.258675
C11	C	0.893209	-0.000086	0.129900
C12	C	0.793912	-0.000075	0.128029
N13	N	1.041405	-0.265624	0.138905
C14	C	0.736687	-0.000072	0.208618
C15	C	0.643387	-0.000087	0.206856
C16	C	0.607314	-0.000099	0.124503
C17	C	0.664546	-0.000105	0.043908
C18	C	0.757844	-0.000097	0.045672
C19	C	0.470083	-0.000120	0.040238
C20	C	0.376779	-0.000126	0.038474
C21	C	0.355626	-0.000110	0.201422
C22	C	0.448924	-0.000102	0.203185
C23	C	0.506150	-0.000106	0.122590
C24	C	1.029373	-0.474664	0.150973
C25	C	1.084096	-0.525549	0.096115
C26	C	1.077402	-0.641866	0.102830
C27	C	1.036067	-0.358337	0.144259
C28	C	1.220257	-0.000119	0.117192
C29	C	1.319553	-0.000122	0.119063
C30	C	1.063087	-0.000111	-0.039978
C31	C	1.061217	-0.000110	-0.139276
N32	N	1.072067	0.265417	0.108180
C33	C	1.141805	-0.000119	-0.196500
C34	C	1.140043	-0.000109	-0.289800
C35	C	1.057690	-0.000096	-0.325873
C36	C	0.977096	-0.000084	-0.268642
C37	C	0.978860	-0.000087	-0.175344
C38	C	0.973425	-0.000080	-0.463104
C39	C	0.971661	-0.000078	-0.556408
C40	C	1.134608	-0.000102	-0.577561
C41	C	1.136372	-0.000105	-0.484263
C42	C	1.055777	-0.000094	-0.427037
C43	C	1.050378	-0.000093	0.287070
C44	C	1.052249	-0.000088	0.386367
H45	H	0.596797	-0.000083	0.272479
H46	H	1.208866	-0.000136	-0.167137
N47	N	0.886506	-0.000073	-0.401368
H48	H	0.854221	0.063105	-0.416622
H49	H	0.847003	-0.063292	-0.409352
N50	N	0.960661	-0.532670	0.219861
H51	H	0.992443	-0.577181	0.261978
H52	H	0.925088	-0.482447	0.255479
H53	H	1.205666	-0.000119	-0.336390
H54	H	0.904601	-0.000085	-0.585775
H55	H	1.200232	-0.000107	-0.624159
N56	N	1.225192	-0.000131	-0.445351
H57	H	1.275981	-0.000136	-0.495759
H58	H	1.233121	0.063046	-0.410751
H59	H	0.910043	-0.000067	-0.298020
N60	N	0.891940	-0.000071	-0.113618
H61	H	0.839502	-0.000063	-0.150626
H62	H	0.885471	-0.063249	-0.070794
N63	N	0.487836	-0.000070	0.292004
H64	H	0.437428	-0.000066	0.342794
H65	H	0.522449	-0.063242	0.299944
H66	H	0.766050	-0.000062	0.275679
H67	H	0.309027	-0.000110	0.267046
N68	N	0.337856	-0.000147	-0.050340
H69	H	0.362353	0.063023	-0.089318
H70	H	0.355075	-0.063374	-0.081918
N71	N	0.531808	-0.000132	-0.046688
H72	H	0.494801	-0.000137	-0.099126
H73	H	0.574618	0.063051	-0.053159
H74	H	0.635168	-0.000130	-0.023144
H75	H	1.135975	-0.481755	0.044106
N76	N	0.819570	-0.000109	-0.041248
H77	H	0.782563	-0.000117	-0.093687
H78	H	0.862384	0.063071	-0.047724
