data_functionalizedCrystal
_audit_creation_method	'MofGen! by Chris Wilmer'
_symmetry_space_group_name_H-M	'P1'
_symmetry_Int_Tables_number	1
_symmetry_cell_setting	triclinic
loop_
_symmetry_equiv_pos_as_xyz
  x,y,z
_cell_length_a	11.792241
_cell_length_b	17.699083
_cell_length_c	16.176319
_cell_angle_alpha	90.005533
_cell_angle_beta	90.000399
_cell_angle_gamma	83.738215
loop_
_atom_site_label
_atom_site_type_symbol
_atom_site_fract_x
_atom_site_fract_y
_atom_site_fract_z
O1	O	-1.505666	-0.103724	0.068668
O2	O	-1.175197	-0.114415	0.068688
O3	O	-1.349768	0.001070	0.068670
O4	O	-1.331095	-0.219209	0.068686
O5	O	-1.349751	0.001049	-0.068823
O6	O	-1.175180	-0.114436	-0.068806
O7	O	-1.505649	-0.103745	-0.068825
Cu8	Cu	-1.340413	-0.109092	-0.081370
Cu9	Cu	-1.340433	-0.109067	0.081232
O10	O	-1.331078	-0.219230	-0.068808
C11	C	-1.349091	0.029260	-0.000077
C12	C	-1.347083	0.113289	-0.000077
C13	C	-1.132906	-0.113754	-0.000057
C14	C	-1.006916	-0.111744	-0.000049
C15	C	-1.547941	-0.104406	-0.000079
C16	C	-1.673930	-0.106416	-0.000081
C17	C	-0.776248	-0.108048	-0.000073
C18	C	-0.904609	-0.110101	-0.000060
C19	C	-1.331756	-0.247420	-0.000059
C20	C	-1.333763	-0.331449	-0.000053
N21	N	-1.340408	-0.109109	-0.195735
C22	C	-1.449553	0.161364	-0.000084
C23	C	-1.447660	0.240317	-0.000077
C24	C	-1.343297	0.271194	-0.000068
C25	C	-1.240819	0.223113	-0.000058
C26	C	-1.242713	0.144161	-0.000060
C27	C	-1.233178	0.541517	-0.000051
C28	C	-1.231292	0.620475	-0.000052
C29	C	-1.438126	0.637673	-0.000068
C30	C	-1.440020	0.558721	-0.000070
C31	C	-1.337543	0.510647	-0.000055
C32	C	-1.339596	0.425037	-0.000062
C33	C	-1.341242	0.356803	-0.000067
C34	C	-1.271742	-0.062837	-0.761124
C35	C	-1.271740	-0.062843	-0.674577
C36	C	-1.340438	-0.109061	-0.631310
C37	C	-1.409152	-0.155270	-0.674595
C38	C	-1.409160	-0.155259	-0.761141
C39	C	-1.409124	-0.155312	-0.325567
C40	C	-1.409108	-0.155321	-0.239015
C41	C	-1.271704	-0.062896	-0.239003
C42	C	-1.271711	-0.062886	-0.325549
C43	C	-1.340429	-0.109091	-0.368826
C44	C	-1.340433	-0.109083	-0.462670
C45	C	-1.340429	-0.109073	-0.537468
N46	N	-1.340448	-0.109044	0.195597
H47	H	-1.534538	0.136230	-0.000096
C48	C	-1.554816	0.524756	-0.000082
H49	H	-1.541267	0.470850	-0.000090
H50	H	-1.597009	0.541232	0.047861
H51	H	-1.596988	0.541225	-0.048039
C52	C	-1.484685	-0.206157	-0.191419
H53	H	-1.474826	-0.199550	-0.133678
H54	H	-1.562377	-0.192438	-0.205592
H55	H	-1.463453	-0.257851	-0.205615
H56	H	-1.465078	-0.192937	-0.360793
H57	H	-1.465093	-0.192898	-0.639360
H58	H	-1.521567	0.676825	-0.000075
H59	H	-1.146302	0.645611	-0.000047
C60	C	-1.126018	0.257072	-0.000042
H61	H	-1.065262	0.217131	-0.000029
H62	H	-1.120967	0.287511	-0.047987
H63	H	-1.120993	0.287516	0.047913
H64	H	-1.149735	0.502384	-0.000040
C65	C	-1.130000	0.091276	-0.000052
H66	H	-1.146074	0.039833	-0.000045
H67	H	-1.087185	0.100674	-0.047993
H68	H	-1.087210	0.100687	0.047906
C69	C	-1.484730	-0.206091	-0.808747
H70	H	-1.525635	-0.233624	-0.770586
H71	H	-1.537052	-0.175308	-0.842501
H72	H	-1.438118	-0.240714	-0.842517
C73	C	-1.560374	0.293200	-0.000076
H74	H	-1.544302	0.344643	-0.000061
H75	H	-1.603178	0.283797	-0.048024
H76	H	-1.603174	0.283791	0.047875
C77	C	-1.196163	-0.012003	-0.808710
H78	H	-1.155249	0.015518	-0.770536
H79	H	-1.143848	-0.042784	-0.842478
H80	H	-1.242771	0.022630	-0.842463
H81	H	-1.215754	-0.025271	-0.203756
H82	H	-1.215795	-0.025215	-0.639343
C83	C	-1.196147	-0.012045	-0.373138
H84	H	-1.155234	0.015480	-0.334966
H85	H	-1.143831	-0.042819	-0.406911
H86	H	-1.242768	0.022585	-0.406886
