data_functionalizedCrystal
_audit_creation_method	'MofGen! by Chris Wilmer'
_symmetry_space_group_name_H-M	'P1'
_symmetry_Int_Tables_number	1
_symmetry_cell_setting	triclinic
loop_
_symmetry_equiv_pos_as_xyz
  x,y,z
_cell_length_a	12.759401
_cell_length_b	11.169416
_cell_length_c	12.759393
_cell_angle_alpha	90.028644
_cell_angle_beta	90.019377
_cell_angle_gamma	90.012047
loop_
_atom_site_label
_atom_site_type_symbol
_atom_site_fract_x
_atom_site_fract_y
_atom_site_fract_z
Zn1	Zn	1.606287	-0.477682	0.594027
Zn2	Zn	1.606195	-0.678414	0.418356
Zn3	Zn	1.430589	-0.477750	0.418364
Zn4	Zn	1.430591	-0.678327	0.593995
O5	O	1.518416	-0.578043	0.506186
O6	O	1.753296	-0.504317	0.570735
O7	O	1.582861	-0.651861	0.271336
O8	O	1.453934	-0.309791	0.441683
O9	O	1.753228	-0.651795	0.441670
O10	O	1.583018	-0.309741	0.570742
O11	O	1.453844	-0.504433	0.271342
O12	O	1.283568	-0.504349	0.441652
O13	O	1.453937	-0.651646	0.741021
O14	O	1.283570	-0.651713	0.570687
O15	O	1.583020	-0.504233	0.741044
O16	O	1.582863	-0.846353	0.441639
O17	O	1.453848	-0.846289	0.570680
C18	C	1.245448	-0.578030	0.506167
C19	C	1.128672	-0.578053	0.506184
C20	C	0.964126	-0.501395	0.573504
C21	C	1.073850	-0.501392	0.573493
C22	C	1.073764	-0.654730	0.438890
C23	C	0.964042	-0.654739	0.438908
C24	C	0.964177	-0.412863	0.651212
C25	C	1.073901	-0.412859	0.651201
C26	C	1.518374	-0.889868	0.506178
C27	C	1.518452	-1.023268	0.506210
C28	C	1.792449	-0.578058	0.506205
C29	C	1.909226	-0.578064	0.506213
C30	C	1.518489	-0.577922	0.780219
C31	C	1.518521	-0.577871	0.896996
C32	C	1.518486	-0.265001	0.506217
C33	C	1.518516	-0.131601	0.506230
C34	C	1.518403	-0.578077	0.233218
C35	C	1.518575	-0.577791	0.116442
C36	C	1.585743	-0.501105	0.951872
C37	C	1.585768	-0.501062	1.061596
C38	C	1.451345	-0.654560	1.061559
C39	C	1.451315	-0.654596	0.951836
C40	C	1.663355	-0.412488	0.951895
C41	C	1.663380	-0.412444	1.061619
H42	H	1.107964	-0.446253	0.728446
C43	C	1.378271	-0.738052	0.892445
C44	C	1.319441	-0.805251	0.963960
C45	C	1.252143	-0.882150	0.909287
H46	H	1.332409	-0.692268	0.849650
H47	H	1.418397	-0.790438	0.849652
H48	H	1.279318	-0.752872	1.006735
H49	H	1.365275	-0.851059	1.006757
H50	H	1.292270	-0.934536	0.866494
H51	H	1.206288	-0.836357	0.866494
H52	H	1.212226	-0.927761	0.957801
C53	C	1.113415	-0.288830	0.622202
C54	C	1.027891	-0.212965	0.604481
C55	C	1.064251	-0.098717	0.577734
H56	H	1.154790	-0.257832	0.677857
H57	H	1.154707	-0.293791	0.560405
H58	H	0.986617	-0.208000	0.666270
H59	H	0.986508	-0.243926	0.548821
H60	H	1.105543	-0.103678	0.515938
H61	H	1.105626	-0.067730	0.633393
H62	H	1.006230	-0.047231	0.565698
C63	C	1.624731	-0.294695	1.107175
C64	C	1.703775	-0.243761	1.168924
C65	C	1.668197	-0.135307	1.210924
H66	H	1.607210	-0.241458	1.051847
H67	H	1.564504	-0.308920	1.149127
H68	H	1.763983	-0.229530	1.126975
H69	H	1.721305	-0.296963	1.224269
H70	H	1.607970	-0.149533	1.252876
H71	H	1.650676	-0.082081	1.155589
H72	H	1.721818	-0.100741	1.252833
H73	H	0.919346	-0.717180	0.384122
H74	H	0.930141	-0.324530	0.622201
C75	C	1.378503	-0.737820	1.121292
C76	C	1.392932	-0.721379	1.229128
C77	C	1.325859	-0.798073	1.284184
H78	H	1.307869	-0.720335	1.103433
H79	H	1.393868	-0.818493	1.103358
H80	H	1.377560	-0.640725	1.247054
H81	H	1.463552	-0.738873	1.247018
H82	H	1.341224	-0.878746	1.266250
H83	H	1.255229	-0.780582	1.266317
H84	H	1.335646	-0.786937	1.357356
C85	C	0.924637	-0.445997	0.759757
C86	C	0.961421	-0.362343	0.832792
C87	C	0.925020	-0.392817	0.932793
H88	H	0.850191	-0.445963	0.759904
H89	H	0.949459	-0.523449	0.777912
H90	H	0.936594	-0.284912	0.814642
H91	H	1.035863	-0.362365	0.832678
H92	H	0.949842	-0.470268	0.950947
H93	H	0.850575	-0.392782	0.932928
H94	H	0.949980	-0.336070	0.982360
C95	C	1.133227	-0.738170	0.365947
C96	C	1.106549	-0.856949	0.388677
C97	C	1.161314	-0.933848	0.321511
H98	H	1.115262	-0.720676	0.295345
H99	H	1.206446	-0.727269	0.375585
H100	H	1.033345	-0.867844	0.379030
H101	H	1.124516	-0.874481	0.459266
H102	H	1.234533	-0.922947	0.331149
H103	H	1.143344	-0.916343	0.250913
H104	H	1.143228	-1.014448	0.336930
C105	C	1.634098	-0.288604	0.912261
C106	C	1.534155	-0.258294	0.948948
C107	C	1.507162	-0.144193	0.912447
H108	H	1.683648	-0.231774	0.937066
H109	H	1.634016	-0.288602	0.837802
H110	H	1.534245	-0.258287	1.023392
H111	H	1.484583	-0.315094	0.924146
H112	H	1.507080	-0.144192	0.837988
H113	H	1.556718	-0.087373	0.937254
H114	H	1.439345	-0.123618	0.937325
H115	H	1.740629	-0.445806	0.917861
C116	C	1.771836	-0.445884	1.101287
C117	C	1.798316	-0.560094	1.064594
C118	C	1.898205	-0.590942	1.101130
H119	H	1.821591	-0.389320	1.076511
H120	H	1.771870	-0.445921	1.175747
H121	H	1.798291	-0.560047	0.990150
H122	H	1.748588	-0.616683	1.089367
H123	H	1.898239	-0.590979	1.175589
H124	H	1.947952	-0.534371	1.076351
H125	H	1.916181	-0.668440	1.076247
