data_functionalizedCrystal
_audit_creation_method	'MofGen! by Chris Wilmer'
_symmetry_space_group_name_H-M	'P1'
_symmetry_Int_Tables_number	1
_symmetry_cell_setting	triclinic
loop_
_symmetry_equiv_pos_as_xyz
  x,y,z
_cell_length_a	15.995300
_cell_length_b	15.995350
_cell_length_c	14.472310
_cell_angle_alpha	90.001162
_cell_angle_beta	89.985388
_cell_angle_gamma	83.482091
loop_
_atom_site_label
_atom_site_type_symbol
_atom_site_fract_x
_atom_site_fract_y
_atom_site_fract_z
O1	O	1.111023	0.107720	-0.076870
O2	O	0.867242	0.121092	-0.076864
O3	O	0.995796	-0.007483	-0.076866
O4	O	0.982468	0.236295	-0.076868
O5	O	0.995763	-0.007475	0.076816
O6	O	0.867209	0.121099	0.076818
O7	O	1.110990	0.107728	0.076812
Cu8	Cu	0.989096	0.114414	0.090847
Cu9	Cu	0.989135	0.114405	-0.090899
O10	O	0.982435	0.236302	0.076814
C11	C	0.836030	0.120550	-0.000022
C12	C	0.743077	0.118915	-0.000020
C13	C	0.572894	0.115896	-0.000027
C14	C	0.525428	0.207443	-0.000026
C15	C	0.428741	0.205773	-0.000377
C16	C	0.405337	0.112924	-0.000033
C17	C	0.446489	0.067499	-0.087620
C18	C	0.543122	0.069816	-0.087691
C19	C	0.543364	0.068469	0.087080
C20	C	0.446419	0.068477	0.088229
C21	C	0.310642	0.111239	-0.000040
C22	C	0.667590	0.117577	-0.000027
C23	C	0.995229	-0.038674	-0.000027
C24	C	0.993577	-0.131624	-0.000032
C25	C	0.987644	-0.469370	-0.000029
C26	C	0.896090	-0.421920	-0.000371
C27	C	0.897743	-0.325230	-0.000025
C28	C	0.990587	-0.301810	-0.000031
C29	C	1.035726	-0.342892	0.087726
C30	C	1.033426	-0.439527	0.087800
C31	C	1.035355	-0.439894	-0.086966
C32	C	1.035333	-0.342949	-0.088126
C33	C	0.992255	-0.207113	-0.000029
C34	C	0.985979	-0.564068	-0.000025
C35	C	1.142202	0.108269	-0.000032
C36	C	1.235154	0.109904	-0.000040
C37	C	0.983003	0.267493	-0.000027
C38	C	0.984655	0.360443	-0.000028
N39	N	0.989075	0.114420	0.218678
N40	N	0.989163	0.114393	-0.218730
C41	C	0.989134	0.114402	0.592769
C42	C	0.920117	0.182969	0.553605
C43	C	0.920276	0.183219	0.446517
C44	C	0.989104	0.114411	0.407178
C45	C	1.076471	0.133477	0.446013
C46	C	1.076083	0.133964	0.553135
C47	C	0.971565	0.026565	0.553300
C48	C	0.969561	0.027152	0.446172
C49	C	0.989092	0.114414	0.302290
C50	C	0.989152	0.114400	0.697658
H51	H	0.543906	0.244237	0.062773
H52	H	0.545050	0.243683	-0.062741
C53	C	1.097894	0.219025	0.409765
H54	H	1.150882	0.229999	0.433648
H55	H	1.055743	0.262120	0.429095
H56	H	1.100286	0.217727	0.344184
H57	H	1.016565	-0.026262	0.419398
H58	H	1.100643	-0.471787	0.091777
C59	C	1.127868	-0.323823	0.092140
H60	H	1.139655	-0.290555	0.040379
H61	H	1.164175	-0.375116	0.091325
H62	H	1.136615	-0.294015	0.147435
C63	C	0.391129	0.253798	-0.085671
H64	H	0.434952	0.274395	-0.120248
H65	H	0.352139	0.299671	-0.066249
H66	H	0.363103	0.216953	-0.123145
H67	H	0.561456	0.102547	-0.153412
C68	C	0.571027	0.109194	0.176792
H69	H	0.600847	0.155507	0.161958
H70	H	0.606492	0.068909	0.211215
H71	H	0.522797	0.128312	0.212538
H72	H	0.905293	0.012682	0.420792
H73	H	0.909240	0.008228	0.580369
C74	C	0.849797	-0.286823	-0.084997
H75	H	0.829129	-0.330310	-0.120038
H76	H	0.886699	-0.258541	-0.122132
H77	H	0.803964	-0.247936	-0.065237
H78	H	0.432390	-0.000724	-0.090631
C79	C	1.096992	0.220499	0.586883
H80	H	1.096943	0.221558	0.652518
H81	H	1.055963	0.263164	0.564227
H82	H	1.150981	0.230154	0.564733
C83	C	1.039549	-0.042368	0.587518
H84	H	1.078456	-0.017784	0.625673
H85	H	1.068333	-0.068812	0.536001
H86	H	1.013797	-0.083024	0.622011
H87	H	0.400264	0.241466	0.062395
C88	C	0.425673	-0.022961	0.095749
H89	H	0.391542	-0.035286	0.044925
H90	H	0.396290	-0.029855	0.151788
H91	H	0.476388	-0.060156	0.095155
C92	C	0.990827	-0.306058	-0.175835
H93	H	1.018185	-0.331192	-0.228891
H94	H	0.993081	-0.246987	-0.177447
H95	H	0.933756	-0.317247	-0.175284
C96	C	0.409472	0.113286	0.175768
H97	H	0.369173	0.158888	0.158608
H98	H	0.453346	0.133967	0.210149
H99	H	0.383085	0.074649	0.212545
H100	H	1.004347	-0.314501	0.153036
H101	H	0.861993	-0.297356	0.062992
H102	H	0.575396	0.002591	-0.091433
H103	H	1.129045	0.085992	0.579040
H104	H	1.005436	-0.460431	-0.153481
C105	C	1.147513	0.067814	0.411583
H106	H	1.124468	0.028096	0.373122
H107	H	1.174737	0.039620	0.463002
H108	H	1.187158	0.095220	0.377363
H109	H	1.000483	-0.457819	0.153404
C110	C	0.408205	0.109591	-0.176009
H111	H	0.367154	0.154839	-0.159723
H112	H	0.382505	0.069485	-0.211370
H113	H	0.451343	0.130435	-0.211457
C114	C	0.586299	-0.022710	0.088233
H115	H	0.568203	-0.051049	0.141019
H116	H	0.645613	-0.022375	0.090492
H117	H	0.571558	-0.050959	0.033893
C118	C	0.846665	-0.446957	-0.085377
H119	H	0.881417	-0.486576	-0.121420
H120	H	0.829834	-0.398380	-0.121517
H121	H	0.798253	-0.471382	-0.065633
H122	H	1.103041	-0.327599	-0.093429
C123	C	0.846847	-0.448375	0.084164
H124	H	0.791601	-0.419423	0.083422
H125	H	0.874782	-0.434723	0.139126
H126	H	0.843766	-0.507309	0.082085
C127	C	1.126540	-0.482822	-0.087778
H128	H	1.135526	-0.518540	-0.035425
H129	H	1.164368	-0.441166	-0.085856
H130	H	1.135972	-0.515262	-0.142551
C131	C	0.832533	0.167936	0.411040
H132	H	0.832510	0.168081	0.345395
H133	H	0.791875	0.211266	0.433055
H134	H	0.819084	0.115036	0.432775
C135	C	0.832101	0.167892	0.588453
H136	H	0.836654	0.119650	0.627205
H137	H	0.797014	0.159148	0.537219
H138	H	0.808341	0.215578	0.622458
C139	C	0.935062	0.270531	0.589946
H140	H	0.983183	0.265484	0.628881
H141	H	0.887264	0.293852	0.624052
H142	H	0.943979	0.306273	0.539319
C143	C	0.935437	0.271271	0.411879
H144	H	0.941530	0.307026	0.463277
H145	H	0.888937	0.294028	0.375452
H146	H	0.985213	0.267082	0.375550
