data_functionalizedCrystal
_audit_creation_method	'MofGen! by Chris Wilmer'
_symmetry_space_group_name_H-M	'P1'
_symmetry_Int_Tables_number	1
_symmetry_cell_setting	triclinic
loop_
_symmetry_equiv_pos_as_xyz
  x,y,z
_cell_length_a	23.096457
_cell_length_b	14.395555
_cell_length_c	14.395555
_cell_angle_alpha	60.000749
_cell_angle_beta	89.999254
_cell_angle_gamma	60.001365
loop_
_atom_site_label
_atom_site_type_symbol
_atom_site_fract_x
_atom_site_fract_y
_atom_site_fract_z
Zr1	Zr	0.557784	1.016801	-0.121951
O2	O	0.465340	1.210588	-0.270272
O3	O	0.586121	0.823008	-0.076480
O4	O	0.586125	1.016796	-0.270276
O5	O	0.465335	1.016808	0.076391
O6	O	0.681406	1.016798	-0.270282
O7	O	0.465336	1.016801	-0.076476
O8	O	0.681398	0.670148	0.076383
O9	O	0.465343	1.363458	-0.270274
O10	O	0.669316	0.902723	-0.057094
O11	O	0.598209	0.902726	0.056993
O12	O	0.598214	1.130885	-0.171177
O13	O	0.527107	1.130888	-0.057090
Zr14	Zr	0.709744	1.016817	0.121846
Zr15	Zr	0.709745	1.016806	-0.121960
Zr16	Zr	0.557783	1.016813	0.121855
Zr17	Zr	0.557789	1.260611	-0.121955
Zr18	Zr	0.709740	0.773007	0.121849
O19	O	0.681408	1.210610	0.076375
O20	O	0.681409	1.210594	-0.270285
O21	O	0.465338	1.210604	0.076388
O22	O	0.802188	0.823030	0.270167
O23	O	0.802190	0.823014	-0.076493
O24	O	0.586119	0.823024	0.270180
O25	O	0.802194	1.016810	-0.076496
O26	O	0.681403	1.016823	0.270171
O27	O	0.586123	1.016820	0.270177
O28	O	0.802193	1.016817	0.076371
O29	O	0.586132	1.363461	-0.270282
O30	O	0.681397	0.670157	0.270176
O31	O	0.802186	0.670160	0.270169
O32	O	0.802187	0.670152	0.076376
O33	O	0.465342	1.363466	-0.076482
O34	O	0.586131	1.363470	-0.076489
O35	O	0.669315	0.902733	0.171072
O36	O	0.740422	0.902730	0.056984
O37	O	0.669320	1.130892	-0.057098
O38	O	0.598213	1.130895	0.056989
C39	C	0.633759	0.711841	-0.000048
C40	C	0.633757	0.608337	-0.000046
C41	C	0.443684	1.016804	-0.000041
C42	C	0.379172	1.016802	-0.000038
C43	C	0.594988	0.547747	0.062163
C44	C	0.566891	0.561998	-0.045111
C45	C	0.661837	0.409691	0.107194
C46	C	0.605620	0.624015	-0.107383
C47	C	0.700604	0.471645	0.044999
C48	C	0.672523	0.485942	-0.062338
C49	C	0.385981	0.897707	0.059501
C50	C	0.325366	0.897705	0.059506
C51	C	0.257942	1.016805	-0.000050
C52	C	0.251136	1.135916	-0.059592
C53	C	0.311751	1.135914	-0.059585
N54	N	0.135148	1.105455	-0.096973
N55	N	0.077569	1.105449	-0.096977
C56	C	0.075309	1.016817	-0.000070
N57	N	0.132810	0.928172	0.096839
N58	N	0.190396	0.928175	0.096840
C59	C	0.192211	1.016820	-0.000063
C60	C	0.016394	0.897712	0.059480
C61	C	-0.044224	0.897715	0.059488
C62	C	-0.118454	1.135929	-0.059621
C63	C	-0.057836	1.135922	-0.059618
C64	C	0.009586	1.016810	-0.000070
C65	C	0.823845	1.016814	-0.000064
C66	C	0.888356	1.016816	-0.000068
C67	C	0.633766	1.016795	-0.305016
C68	C	0.633766	1.016791	-0.408518
C69	C	0.633770	1.321777	-0.000057
C70	C	0.633772	1.425281	-0.000059
C71	C	0.672538	0.892386	-0.406904
C72	C	0.605678	0.954575	-0.499923
C73	C	0.700610	0.954607	-0.499928
C74	C	0.566867	1.078980	-0.500174
C75	C	0.661847	1.078994	-0.500164
C76	C	0.594947	1.141274	-0.593200
C77	C	0.633763	1.016823	0.304911
C78	C	0.633762	1.016827	0.408413
C79	C	0.823839	0.711846	-0.000059
C80	C	0.888348	0.608344	-0.000061
C81	C	0.633757	0.711855	0.304916
C82	C	0.633755	0.608356	0.408419
C83	C	0.823837	0.711860	0.304904
C84	C	0.888347	0.608363	0.408404
C85	C	0.443691	1.321758	-0.305010
C86	C	0.379182	1.425255	-0.408509
C87	C	0.443690	1.321772	-0.000046
C88	C	0.379180	1.425274	-0.000044
C89	C	0.633771	1.321763	-0.305021
C90	C	0.633774	1.425262	-0.408524
C91	C	0.881526	0.559735	-0.059621
C92	C	0.942134	0.462498	-0.059646
C93	C	1.009563	0.413865	-0.000104
C94	C	1.016384	0.462484	0.059457
C95	C	0.955777	0.559726	0.059475
C96	C	0.955764	0.559758	0.397456
C97	C	1.016383	0.462525	0.494696
C98	C	1.009583	0.413892	0.602882
C99	C	0.942158	0.462507	0.613828
C100	C	0.881541	0.559744	0.516589
C101	C	0.311764	1.473872	-0.397561
C102	C	0.251145	1.571135	-0.494801
C103	C	0.257946	1.619773	-0.602987
C104	C	0.325370	1.571152	-0.613933
C105	C	0.385988	1.473898	-0.516694
C106	C	0.386002	1.473893	0.059505
C107	C	0.325395	1.571157	0.059503
C108	C	0.257965	1.619794	-0.000042
C109	C	0.251144	1.571170	-0.059598
C110	C	0.311751	1.473915	-0.059602
C111	C	0.594982	0.547770	0.406808
C112	C	0.661842	0.409675	0.499824
C113	C	0.566913	0.562005	0.499834
C114	C	0.700655	0.471561	0.500072
C115	C	0.605677	0.623965	0.500068
C116	C	0.672578	0.485879	0.593101
H117	H	0.562158	0.574974	0.114692
C118	C	0.716760	0.750288	-0.299153
H119	H	0.755010	0.735853	-0.255624
H120	H	0.687654	0.736464	-0.255026
H121	H	0.734907	0.690879	-0.320341
H122	H	-0.063383	1.232902	-0.108109
H123	H	0.330899	1.610766	-0.702030
H124	H	-0.173351	1.232902	-0.108114
H125	H	0.961342	0.599291	0.107982
H126	H	0.306214	1.434276	-0.309479
H127	H	0.510365	0.599180	-0.083222
H128	H	1.058908	0.334683	-0.000126
C129	C	0.550597	1.283490	-0.700777
H130	H	0.579820	1.297994	-0.744351
H131	H	0.512813	1.297485	-0.744933
H132	H	0.531805	1.342733	-0.679409
H133	H	0.961315	0.599340	0.309374
H134	H	1.071293	0.422872	0.107934
H135	H	1.071278	0.422953	0.485763
H136	H	0.581922	0.901996	-0.500852
C137	C	0.460140	0.766690	0.125012
H138	H	0.455510	0.695760	0.160480
H139	H	0.485334	0.761733	0.073616
H140	H	0.485324	0.761739	0.181376
H141	H	1.058947	0.334715	0.682051
H142	H	0.936632	0.422896	0.701926
C143	C	0.090558	0.766697	0.124999
H144	H	0.085930	0.695765	0.160477
H145	H	0.115754	0.761731	0.073608
H146	H	0.115738	0.761760	0.181356
C147	C	0.490548	0.612246	0.501072
H148	H	0.486627	0.611821	0.566958
H149	H	0.458557	0.699213	0.434987
H150	H	0.479355	0.556677	0.502051
H151	H	0.196251	1.610706	-0.485867
C152	C	0.460144	1.420413	-0.528751
H153	H	0.455505	1.463305	-0.607112
H154	H	0.485348	1.436337	-0.493295
H155	H	0.485323	1.328598	-0.493304
H156	H	0.510310	1.131519	-0.499349
H157	H	0.581812	0.715576	-0.198123
C158	C	0.934622	0.409020	-0.125152
H159	H	0.980371	0.344150	-0.116653
H160	H	0.909439	0.371079	-0.095729
H161	H	0.909430	0.478845	-0.203500
C162	C	0.716801	0.449516	-0.133509
H163	H	0.755058	0.359057	-0.086629
H164	H	0.687729	0.465983	-0.194120
H165	H	0.734940	0.501024	-0.163675
C166	C	0.776945	0.421455	0.096519
H167	H	0.796829	0.346214	0.172762
H168	H	0.804689	0.398808	0.053103
H169	H	0.776410	0.488377	0.095503
H170	H	0.208581	1.698964	-0.682156
C171	C	0.776975	0.883563	-0.501163
H172	H	0.780898	0.942727	-0.567048
H173	H	0.808967	0.853118	-0.435077
H174	H	0.788165	0.811015	-0.502142
C175	C	0.807385	0.613185	0.528646
H176	H	0.812023	0.570278	0.607006
H177	H	0.782184	0.704999	0.493190
H178	H	0.782202	0.597217	0.493199
H179	H	0.685579	0.318087	0.197891
C180	C	0.693961	1.149957	-0.498836
H181	H	0.741482	1.105620	-0.497837
H182	H	0.666903	1.237882	-0.564896
H183	H	0.693326	1.150117	-0.432930
H184	H	0.826627	0.599331	-0.108121
H185	H	0.440901	1.434301	0.108002
C186	C	0.332910	1.624613	0.125030
H187	H	0.381750	1.581695	0.160507
H188	H	0.310821	1.716423	0.073642
H189	H	0.310806	1.608670	0.181389
H190	H	0.208621	1.698986	-0.000029
C191	C	0.332846	0.766700	0.124994
H192	H	0.287089	0.783763	0.116465
H193	H	0.358030	0.717766	0.095580
H194	H	0.358026	0.717757	0.203348
C195	C	0.176970	1.624670	-0.125083
H196	H	0.141858	1.689542	-0.116533
H197	H	0.171640	1.662612	-0.203433
H198	H	0.171648	1.554853	-0.095657
C199	C	0.176973	1.266922	-0.125105
H200	H	0.141847	1.249867	-0.116591
H201	H	0.171652	1.315863	-0.095696
H202	H	0.171663	1.315854	-0.203455
C203	C	0.304238	1.420427	-0.125094
H204	H	0.255398	1.463318	-0.160542
H205	H	0.326338	1.436349	-0.181455
H206	H	0.326331	1.328612	-0.073679
C207	C	0.550759	0.584363	0.299061
H208	H	0.570824	0.508950	0.298279
H209	H	0.503465	0.615808	0.298868
H210	H	0.550719	0.650895	0.233556
C211	C	0.716935	0.449360	0.700677
H212	H	0.764397	0.416526	0.701339
H213	H	0.697398	0.525115	0.700776
H214	H	0.716385	0.383878	0.766289
C215	C	0.304265	1.266920	-0.124901
H216	H	0.350021	1.249861	-0.116308
H217	H	0.279072	1.316028	-0.203276
H218	H	0.279092	1.315688	-0.095343
C219	C	0.693931	0.285894	0.501098
H220	H	0.734729	0.213736	0.566984
H221	H	0.659908	0.266959	0.502073
H222	H	0.706962	0.300622	0.435019
H223	H	0.581904	0.715618	0.499082
C224	C	-0.036732	0.766703	0.124982
H225	H	0.012103	0.695770	0.160435
H226	H	-0.058834	0.761743	0.181338
H227	H	-0.058836	0.761762	0.073566
C228	C	0.777057	0.421060	0.498956
H229	H	0.776586	0.487561	0.432719
H230	H	0.804663	0.399170	0.564697
H231	H	0.797051	0.345299	0.498738
