data_functionalizedCrystal
_audit_creation_method	'MofGen! by Chris Wilmer'
_symmetry_space_group_name_H-M	'P1'
_symmetry_Int_Tables_number	1
_symmetry_cell_setting	triclinic
loop_
_symmetry_equiv_pos_as_xyz
  x,y,z
_cell_length_a	16.959455
_cell_length_b	16.625545
_cell_length_c	16.959447
_cell_angle_alpha	90.029927
_cell_angle_beta	90.014322
_cell_angle_gamma	90.022505
loop_
_atom_site_label
_atom_site_type_symbol
_atom_site_fract_x
_atom_site_fract_y
_atom_site_fract_z
Zn1	Zn	1.208354	-0.321051	0.446911
Zn2	Zn	1.708354	0.178949	0.946911
Zn3	Zn	1.208263	-0.455899	0.314733
Zn4	Zn	1.708263	0.044101	0.814733
Zn5	Zn	1.076182	-0.321077	0.314748
Zn6	Zn	1.576182	0.178923	0.814748
Zn7	Zn	1.076134	-0.455839	0.446872
Zn8	Zn	1.576134	0.044161	0.946872
O9	O	1.142233	-0.388466	0.380816
O10	O	1.642233	0.111534	0.880816
O11	O	1.318953	-0.338954	0.429387
O12	O	1.818953	0.161046	0.929387
O13	O	1.190725	-0.438050	0.204124
O14	O	1.690725	0.061950	0.704124
O15	O	1.093773	-0.208241	0.332303
O16	O	1.593773	0.291759	0.832303
O17	O	1.318886	-0.438026	0.332277
O18	O	1.818886	0.061974	0.832277
O19	O	1.190879	-0.208222	0.429402
O20	O	1.690879	0.291778	0.929402
O21	O	1.093685	-0.338997	0.204135
O22	O	1.593685	0.161003	0.704135
O23	O	0.965565	-0.338939	0.332265
O24	O	1.465565	0.161061	0.832265
O25	O	1.093691	-0.437923	0.557488
O26	O	1.593691	0.062077	1.057488
O27	O	0.965530	-0.437947	0.429335
O28	O	1.465530	0.062053	0.929335
O29	O	1.190832	-0.338895	0.557517
O30	O	1.690832	0.161105	1.057517
O31	O	1.190678	-0.568723	0.332239
O32	O	1.690678	-0.068723	0.832239
O33	O	1.093604	-0.568679	0.429321
O34	O	1.593604	-0.068679	0.929321
C35	C	0.936867	-0.388440	0.380798
C36	C	1.436867	0.111560	0.880798
C37	C	0.849010	-0.388448	0.380809
C38	C	1.349010	0.111552	0.880809
C39	C	0.477529	-0.336870	0.330377
C40	C	0.977529	0.163130	0.830377
C41	C	0.477541	-0.440129	0.431300
C42	C	0.977541	0.059871	0.931300
C43	C	0.560087	-0.440117	0.431295
C44	C	1.060087	0.059883	0.931295
C45	C	0.601358	-0.388482	0.380830
C46	C	1.101358	0.111518	0.880830
C47	C	0.560082	-0.336859	0.330369
C48	C	1.060082	0.163141	0.830369
C49	C	0.601368	-0.491746	0.481750
C50	C	1.101368	0.008254	0.981750
C51	C	0.683919	-0.491737	0.481746
C52	C	1.183919	0.008263	0.981746
C53	C	0.725191	-0.440097	0.431284
C54	C	1.225191	0.059903	0.931284
C55	C	0.683911	-0.388471	0.380822
C56	C	1.183911	0.111529	0.880822
C57	C	0.725182	-0.336836	0.330356
C58	C	1.225182	0.163164	0.830356
C59	C	0.683903	-0.285205	0.279897
C60	C	1.183903	0.214795	0.779897
C61	C	0.601355	-0.285219	0.279907
C62	C	1.101355	0.214781	0.779907
C63	C	0.807740	-0.440083	0.431275
C64	C	1.307740	0.059917	0.931275
C65	C	0.807735	-0.336824	0.330348
C66	C	1.307735	0.163176	0.830348
C67	C	1.142147	-0.597957	0.380791
C68	C	1.642147	-0.097957	0.880791
C69	C	1.142183	-0.687578	0.380807
C70	C	1.642183	-0.187578	0.880807
C71	C	1.142214	-0.760361	0.380823
C72	C	1.642214	-0.260361	0.880823
C73	C	1.142260	-0.851669	0.380840
C74	C	1.642260	-0.351669	0.880840
C75	C	1.142301	-0.924446	0.380850
C76	C	1.642301	-0.424446	0.880850
C77	C	1.142346	-1.015760	0.380866
C78	C	1.642346	-0.515760	0.880866
C79	C	1.348402	-0.388494	0.380835
C80	C	1.848402	0.111506	0.880835
C81	C	1.436258	-0.388505	0.380843
C82	C	1.936258	0.111495	0.880843
C83	C	1.142266	-0.388400	0.586984
C84	C	1.642266	0.111600	1.086984
C85	C	1.142280	-0.388371	0.674841
C86	C	1.642280	0.111629	1.174841
C87	C	1.142341	-0.178157	0.380858
C88	C	1.642341	0.321843	0.880858
C89	C	1.142387	-0.088536	0.380876
C90	C	1.642387	0.411464	0.880876
C91	C	1.142246	-0.388475	0.175450
C92	C	1.642246	0.111525	0.675450
C93	C	1.142385	-0.388276	0.087594
C94	C	1.642385	0.111724	0.587594
C95	C	1.091798	-0.439845	1.046304
C96	C	1.591798	0.060155	1.546304
C97	C	1.192952	-0.336727	1.046329
C98	C	1.692952	0.163273	1.546329
C99	C	1.192931	-0.336744	0.963783
C100	C	1.692931	0.163256	1.463783
C101	C	1.142343	-0.388313	0.922494
C102	C	1.642343	0.111687	1.422494
C103	C	1.091777	-0.439866	0.963751
C104	C	1.591777	0.060134	1.463751
C105	C	1.243502	-0.285199	0.922521
C106	C	1.743502	0.214801	1.422521
C107	C	1.243483	-0.285214	0.839970
C108	C	1.743483	0.214786	1.339970
C109	C	1.192891	-0.336780	0.798679
C110	C	1.692891	0.163220	1.298679
C111	C	1.142322	-0.388334	0.839941
C112	C	1.642322	0.111666	1.339941
C113	C	1.091735	-0.439903	0.798651
C114	C	1.591735	0.060097	1.298651
C115	C	1.041161	-0.491453	0.839911
C116	C	1.541161	0.008547	1.339911
C117	C	1.041185	-0.491431	0.922460
C118	C	1.541185	0.008569	1.422460
C119	C	1.192868	-0.336802	0.716130
C120	C	1.692868	0.163198	1.216130
C121	C	1.091714	-0.439923	0.716098
C122	C	1.591714	0.060077	1.216098
H123	H	0.717521	-0.533777	0.522834
H124	H	1.217521	-0.033777	1.022834
H125	H	1.050512	-0.481911	0.682486
H126	H	1.550512	0.018089	1.182486
H127	H	0.841345	-0.482122	0.472355
H128	H	1.341345	0.017878	0.972355
H129	H	0.717516	-0.243167	0.238805
H130	H	1.217516	0.256833	0.738805
H131	H	0.443933	-0.482173	0.472382
H132	H	0.943933	0.017827	0.972382
C133	C	0.508570	-0.503073	0.588056
C134	C	1.008570	-0.003073	1.088056
C135	C	0.555997	-0.548494	0.537220
C136	C	1.055997	-0.048494	1.037220
H137	H	0.480559	-0.538107	0.622305
H138	H	0.980559	-0.038107	1.122305
H139	H	0.472184	-0.472331	0.558003
H140	H	0.972184	0.027669	1.058003
H141	H	0.540807	-0.467985	0.618347
H142	H	1.040807	0.032015	1.118347
H143	H	0.523759	-0.583578	0.506924
H144	H	1.023759	-0.083578	1.006924
H145	H	0.592387	-0.579249	0.567276
H146	H	1.092387	-0.079249	1.067276
H147	H	1.000013	-0.533403	0.956061
H148	H	1.500013	-0.033403	1.456061
C149	C	1.292936	-0.234802	1.038065
C150	C	1.792936	0.265198	1.538065
C151	C	1.248557	-0.280045	1.091711
C152	C	1.748557	0.219955	1.591711
H153	H	1.327268	-0.199810	1.066085
H154	H	1.827268	0.300190	1.566085
H155	H	1.258504	-0.203963	1.005880
H156	H	1.758504	0.296037	1.505880
H157	H	1.323144	-0.269950	1.005854
H158	H	1.823144	0.230050	1.505854
H159	H	1.218345	-0.244897	1.123919
H160	H	1.718345	0.255103	1.623919
H161	H	1.282994	-0.310886	1.123909
H162	H	1.782994	0.189114	1.623909
H163	H	1.284692	-0.243219	0.956144
H164	H	1.784692	0.256781	1.456144
H165	H	0.567738	-0.243185	0.238825
H166	H	1.067738	0.256815	0.738825
H167	H	0.443916	-0.294831	0.289297
H168	H	0.943916	0.205169	0.789297
C169	C	1.046906	-0.485605	1.172829
C170	C	1.546906	0.014395	1.672829
C171	C	1.036211	-0.496510	1.091653
C172	C	1.536211	0.003490	1.591653
H173	H	1.012592	-0.520592	1.200824
H174	H	1.512592	-0.020592	1.700824
H175	H	1.035367	-0.431432	1.186367
H176	H	1.535367	0.068568	1.686367
H177	H	1.100014	-0.497411	1.186350
H178	H	1.600014	0.002589	1.686350
H179	H	0.983104	-0.484698	1.078131
H180	H	1.483104	0.015302	1.578131
H181	H	1.047745	-0.550696	1.078109
H182	H	1.547745	-0.050696	1.578109
C183	C	0.996225	-0.537265	0.713353
C184	C	1.496225	-0.037265	1.213353
C185	C	0.985556	-0.548137	0.794520
C186	C	1.485556	-0.048137	1.294520
H187	H	0.961893	-0.572256	0.685330
H188	H	1.461893	-0.072256	1.185330
H189	H	1.049319	-0.549080	0.699833
H190	H	1.549319	-0.049080	1.199833
H191	H	0.984684	-0.483088	0.699848
H192	H	1.484684	0.016912	1.199848
H193	H	0.997102	-0.602313	0.808026
H194	H	1.497102	-0.102313	1.308026
H195	H	0.932449	-0.536328	0.808046
H196	H	1.432449	-0.036328	1.308046
C197	C	1.343469	-0.183277	0.848295
C198	C	1.843469	0.316723	1.348295
C199	C	1.299065	-0.228545	0.794620
C200	C	1.799065	0.271455	1.294620
H201	H	1.377777	-0.148287	0.820296
H202	H	1.877777	0.351713	1.320296
H203	H	1.373696	-0.218404	0.880476
H204	H	1.873696	0.281596	1.380476
H205	H	1.309045	-0.152428	0.880507
H206	H	1.809045	0.347572	1.380507
H207	H	1.333488	-0.259398	0.762412
H208	H	1.833488	0.240602	1.262412
H209	H	1.268835	-0.193413	0.762426
H210	H	1.768835	0.306587	1.262426
H211	H	1.234046	-0.294833	0.682540
H212	H	1.734046	0.205167	1.182540
H213	H	0.841332	-0.294771	0.289257
H214	H	1.341332	0.205229	0.789257
