data_functionalizedCrystal
_audit_creation_method	'MofGen! by Chris Wilmer'
_symmetry_space_group_name_H-M	'P1'
_symmetry_Int_Tables_number	1
_symmetry_cell_setting	triclinic
loop_
_symmetry_equiv_pos_as_xyz
  x,y,z
_cell_length_a	12.827892
_cell_length_b	15.298563
_cell_length_c	12.827885
_cell_angle_alpha	80.356460
_cell_angle_beta	89.970024
_cell_angle_gamma	80.291908
loop_
_atom_site_label
_atom_site_type_symbol
_atom_site_fract_x
_atom_site_fract_y
_atom_site_fract_z
Zn1	Zn	-0.139193	-1.379159	-0.314918
Zn2	Zn	-0.313988	-1.379067	-0.140196
Zn3	Zn	-0.169520	-1.228302	-0.170374
Zn4	Zn	-0.344171	-1.228290	-0.345062
O5	O	-0.241718	-1.303704	-0.242637
O6	O	-0.137056	-1.505382	-0.266496
O7	O	-0.294885	-1.359035	0.002030
O8	O	-0.019252	-1.248356	-0.189562
O9	O	-0.265478	-1.505315	-0.138128
O10	O	0.003029	-1.359190	-0.295758
O11	O	-0.188744	-1.248268	-0.020141
O12	O	-0.218011	-1.102065	-0.218791
O13	O	-0.316920	-1.248336	-0.487293
O14	O	-0.346327	-1.102056	-0.347134
O15	O	-0.166323	-1.359179	-0.465146
O16	O	-0.464237	-1.359023	-0.167358
O17	O	-0.486412	-1.248248	-0.317872
C18	C	-0.288736	-1.069329	-0.289509
C19	C	-0.308875	-0.969062	-0.309586
C20	C	-0.513239	-1.303649	-0.242629
C21	C	-0.629380	-1.303707	-0.242644
C22	C	-0.385245	-0.921980	-0.385732
C23	C	-0.404162	-0.827774	-0.404605
C24	C	-0.346717	-0.780642	-0.347328
C25	C	-0.270351	-0.827724	-0.271176
C26	C	-0.251426	-0.921939	-0.252307
C27	C	-0.212898	-0.780600	-0.213903
C28	C	-0.136532	-0.827682	-0.137751
C29	C	-0.117612	-0.921888	-0.118885
C30	C	-0.175057	-0.969021	-0.176161
C31	C	-0.231823	-0.686385	-0.232772
C32	C	-0.098004	-0.686344	-0.099347
C33	C	-0.079087	-0.780550	-0.080474
C34	C	-0.790177	-1.358647	-0.168240
C35	C	-0.670138	-1.358588	-0.168222
C36	C	0.030868	-1.303785	-0.242664
C37	C	0.147028	-1.303819	-0.242675
C38	C	-0.241605	-1.303767	-0.515195
C39	C	-0.241557	-1.303793	-0.631343
C40	C	-0.194510	-0.538995	-0.195574
C41	C	-0.174374	-0.639262	-0.175493
C42	C	-0.189019	-1.249000	-0.694096
C43	C	-0.188969	-1.249026	-0.814141
C44	C	-0.241744	-1.303694	0.028871
C45	C	-0.241463	-1.303843	0.145053
H46	H	-0.362124	-0.703935	-0.362700
H47	H	-0.051225	-0.647969	-0.052711
H48	H	-0.286500	-1.350722	-0.666492
C49	C	-0.379490	-1.316210	-0.729594
C50	C	-0.302194	-1.367175	-0.782169
H51	H	-0.416985	-1.355310	-0.684664
H52	H	-0.346558	-1.281827	-0.688435
H53	H	-0.427358	-1.276940	-0.780033
H54	H	-0.254321	-1.406442	-0.731730
H55	H	-0.335126	-1.401574	-0.823331
C56	C	-0.198838	-1.127805	-0.961244
C57	C	-0.128248	-1.185688	-0.886924
H58	H	-0.161351	-1.088698	-1.006173
H59	H	-0.231751	-1.162200	-1.002404
H60	H	-0.251278	-1.093251	-0.925555
H61	H	-0.075812	-1.220247	-0.922613
H62	H	-0.095319	-1.151289	-0.845759
H63	H	-0.055423	-0.960220	-0.056882
C64	C	-0.732525	-1.291259	-0.385602
C65	C	-0.805591	-1.240390	-0.328695
H66	H	-0.703282	-1.252098	-0.438713
H67	H	-0.677581	-1.325640	-0.338900
H68	H	-0.767166	-1.330529	-0.417803
H69	H	-0.770947	-1.201124	-0.296487
H70	H	-0.860543	-1.205994	-0.375405
H71	H	-0.294000	-0.648060	-0.294778
C72	C	-0.544871	-1.371028	-0.025258
C73	C	-0.597305	-1.421958	-0.082185
H74	H	-0.499911	-1.410153	0.027864
H75	H	-0.503742	-1.336600	-0.071946
H76	H	-0.595405	-1.331800	0.006930
H77	H	-0.546772	-1.461182	-0.114380
H78	H	-0.638437	-1.456401	-0.035489
H79	H	-0.825285	-1.405628	-0.104522
H80	H	-0.466340	-0.789447	-0.466608
H81	H	-0.432004	-0.960364	-0.432363
H82	H	-0.144083	-1.202066	-0.658948
H83	H	-0.159663	-1.045731	-0.160794
H84	H	-0.016909	-0.818897	-0.018471
H85	H	-0.683333	-1.256768	-0.306378
