data_functionalizedCrystal
_audit_creation_method	'MofGen! by Chris Wilmer'
_symmetry_space_group_name_H-M	'P1'
_symmetry_Int_Tables_number	1
_symmetry_cell_setting	triclinic
loop_
_symmetry_equiv_pos_as_xyz
  x,y,z
_cell_length_a	19.188930
_cell_length_b	18.266242
_cell_length_c	19.188930
_cell_angle_alpha	89.988525
_cell_angle_beta	96.855221
_cell_angle_gamma	90.022918
loop_
_atom_site_label
_atom_site_type_symbol
_atom_site_fract_x
_atom_site_fract_y
_atom_site_fract_z
O1	O	0.926149	0.061124	-0.087169
O2	O	1.426149	0.561124	0.412831
O3	O	0.722838	0.061075	-0.098903
O4	O	1.222838	0.561075	0.401097
O5	O	0.830361	0.061087	0.008620
O6	O	1.330361	0.561087	0.508620
O7	O	0.818627	0.061113	-0.194691
O8	O	1.318627	0.561113	0.305309
O9	O	0.830343	-0.060675	0.008625
O10	O	1.330343	0.439325	0.508625
O11	O	0.722820	-0.060687	-0.098897
O12	O	1.222820	0.439313	0.401103
O13	O	0.926131	-0.060638	-0.087163
O14	O	1.426131	0.439362	0.412837
Zn15	Zn	0.824473	-0.079994	-0.093029
Zn16	Zn	1.324473	0.420006	0.406971
Zn17	Zn	0.824497	0.080432	-0.093037
Zn18	Zn	1.324497	0.580432	0.406963
O19	O	0.818608	-0.060649	-0.194686
O20	O	1.318608	0.439351	0.305314
C21	C	0.696818	0.000188	-0.098520
C22	C	1.196818	0.500188	0.401480
C23	C	0.619313	0.000169	-0.097380
C24	C	1.119313	0.500169	0.402620
N25	N	0.824461	-0.189481	-0.093024
N26	N	1.324461	0.310519	0.406976
C27	C	0.574389	0.000188	-0.160470
C28	C	1.074389	0.500188	0.339530
C29	C	0.501566	0.000196	-0.159399
C30	C	1.001566	0.500196	0.340601
C31	C	0.473669	0.000199	-0.095233
C32	C	0.973669	0.500199	0.404767
C33	C	0.518603	0.000175	-0.032133
C34	C	1.018603	0.500175	0.467867
C35	C	0.591425	0.000160	-0.033207
C36	C	1.091425	0.500160	0.466793
N37	N	0.365695	0.041663	-0.046188
N38	N	0.865695	0.541663	0.453812
N39	N	0.296516	0.041679	-0.045172
N40	N	0.796516	0.541679	0.454828
C41	C	0.254260	0.000243	-0.091994
C42	C	0.754260	0.500243	0.408006
N43	N	0.283795	-0.041200	-0.139881
N44	N	0.783795	0.458800	0.360119
N45	N	0.352980	-0.041213	-0.140899
N46	N	0.852980	0.458787	0.359101
C47	C	0.394707	0.000215	-0.094062
C48	C	0.894707	0.500215	0.405938
C49	C	0.130372	0.000270	-0.153928
C50	C	0.630372	0.500270	0.346072
C51	C	0.057547	0.000274	-0.152853
C52	C	0.557547	0.500274	0.347147
C53	C	0.074586	0.000261	-0.025586
C54	C	0.574586	0.500261	0.474414
C55	C	0.147409	0.000250	-0.026662
C56	C	0.647409	0.500250	0.473338
C57	C	0.175298	0.000258	-0.090835
C58	C	0.675298	0.500258	0.409165
C59	C	0.872088	-0.227785	-0.045436
C60	C	1.372088	0.272215	0.454564
C61	C	0.872092	-0.304430	-0.045433
C62	C	1.372092	0.195570	0.454567
C63	C	0.824477	-0.342768	-0.093030
C64	C	1.324477	0.157232	0.406970
C65	C	0.776841	-0.304455	-0.140621
C66	C	1.276841	0.195545	0.359379
C67	C	0.776834	-0.227812	-0.140618
C68	C	1.276834	0.272188	0.359382
N69	N	0.815401	-0.463094	-0.154837
N70	N	1.315401	0.036906	0.345163
N71	N	0.815413	-0.535902	-0.154838
N72	N	1.315413	-0.035902	0.345162
C73	C	0.824496	-0.573691	-0.093040
C74	C	1.324496	-0.073691	0.406960
N75	N	0.833582	-0.535920	-0.031239
N76	N	1.333582	-0.035920	0.468761
N77	N	0.833574	-0.463106	-0.031240
N78	N	1.333574	0.036894	0.468760
C79	C	0.824480	-0.425875	-0.093038
C80	C	1.324480	0.074125	0.406962
C81	C	0.872131	-0.695101	-0.045444
C82	C	1.372131	-0.195101	0.454556
C83	C	0.872130	-0.771748	-0.045440
C84	C	1.372130	-0.271748	0.454560
C85	C	0.776882	-0.771772	-0.140634
C86	C	1.276882	-0.271772	0.359366
C87	C	0.776879	-0.695127	-0.140632
C88	C	1.276879	-0.195127	0.359368
C89	C	0.824507	-0.656796	-0.093038
C90	C	1.324507	-0.156796	0.406962
C91	C	0.952151	0.000252	-0.087546
C92	C	1.452151	0.500252	0.412454
C93	C	1.029656	0.000276	-0.088687
C94	C	1.529656	0.500276	0.411313
C95	C	0.829972	0.000204	0.034634
C96	C	1.329972	0.500204	0.534634
C97	C	0.828831	0.000197	0.112138
C98	C	1.328831	0.500197	0.612138
N99	N	0.824513	0.189919	-0.093037
N100	N	1.324513	0.689919	0.406963
C101	C	0.818997	0.000236	-0.220700
C102	C	1.318997	0.500236	0.279300
C103	C	0.820138	0.000247	-0.298204
C104	C	1.320138	0.500247	0.201796
C105	C	0.891922	0.000209	0.157062
C106	C	1.391922	0.500209	0.657062
C107	C	0.890850	0.000220	0.229886
C108	C	1.390850	0.500220	0.729886
C109	C	0.826684	0.000206	0.257782
C110	C	1.326684	0.500206	0.757782
C111	C	0.763585	0.000198	0.212849
C112	C	1.263585	0.500198	0.712849
C113	C	0.764658	0.000194	0.140026
C114	C	1.264658	0.500194	0.640026
N115	N	0.777631	-0.041244	0.365789
N116	N	1.277631	0.458756	0.865789
N117	N	0.776615	-0.041242	0.434968
N118	N	1.276615	0.458758	0.934968
C119	C	0.823446	0.000220	0.477191
C120	C	1.323446	0.500220	0.977191
N121	N	0.871341	0.041669	0.447624
N122	N	1.371341	0.541669	0.947624
N123	N	0.872359	0.041664	0.378439
N124	N	1.372359	0.541664	0.878439
C125	C	0.825513	0.000210	0.336745
C126	C	1.325513	0.500210	0.836745
C127	C	0.885379	0.000245	0.601079
C128	C	1.385379	0.500245	1.101079
C129	C	0.884305	0.000261	0.673904
C130	C	1.384305	0.500261	1.173904
C131	C	0.757038	0.000231	0.656865
C132	C	1.257038	0.500231	1.156865
C133	C	0.758114	0.000222	0.584042
C134	C	1.258114	0.500222	1.084042
C135	C	0.822287	0.000226	0.556154
C136	C	1.322287	0.500226	1.056154
H137	H	0.597091	0.000196	-0.212725
H138	H	1.097091	0.500196	0.287275
Br139	Br	0.676502	0.000187	0.250706
Br140	Br	1.176502	0.500187	0.750706
Br141	Br	0.936733	-0.356423	0.019157
Br142	Br	1.436733	0.143577	0.519157
Br143	Br	0.712214	-0.356483	-0.205212
Br144	Br	1.212214	0.143517	0.294788
Br145	Br	0.936765	-0.643080	0.019149
Br146	Br	1.436765	-0.143080	0.519149
Br147	Br	0.440585	0.000218	-0.245028
Br148	Br	0.940585	0.500218	0.254972
Br149	Br	0.672486	0.000205	0.523070
Br150	Br	1.172486	0.500205	1.023070
H151	H	0.183988	0.000238	0.024713
H152	H	0.683988	0.500238	0.524713
H153	H	0.935683	0.000274	0.710481
H154	H	1.435683	0.500274	1.210481
Br155	Br	0.652398	0.000132	0.052423
Br156	Br	1.152398	0.500132	0.552423
Br157	Br	-0.003424	0.000294	-0.238485
Br158	Br	0.496576	0.500294	0.261515
H159	H	0.738049	-0.196624	-0.179371
H160	H	1.238049	0.303376	0.320629
Br161	Br	0.936765	-0.823736	0.019154
Br162	Br	1.436765	-0.323736	0.519154
Br163	Br	0.936721	-0.175764	0.019156
Br164	Br	1.436721	0.324236	0.519156
H165	H	0.713281	0.000184	0.103448
H166	H	1.213281	0.500184	0.603448
Br167	Br	0.036735	0.000253	0.061498
Br168	Br	0.536735	0.500253	0.561498
H169	H	0.738110	-0.802986	-0.179386
H170	H	1.238110	-0.302986	0.320614
H171	H	0.944176	0.000214	0.134360
H172	H	1.444176	0.500214	0.634360
Br173	Br	0.480745	0.000172	0.054950
Br174	Br	0.980745	0.500172	0.554950
H175	H	0.942228	0.000233	0.266470
H176	H	1.442228	0.500233	0.766470
Br177	Br	0.712243	-0.643137	-0.205221
Br178	Br	1.212243	-0.143137	0.294779
H179	H	0.937632	0.000251	0.578372
H180	H	1.437632	0.500251	1.078372
Br181	Br	0.669953	0.000218	0.694717
Br182	Br	1.169953	0.500218	1.194717
H183	H	0.153080	0.000267	-0.206181
H184	H	0.653080	0.500267	0.293819
