data_functionalizedCrystal
_audit_creation_method	'MofGen! by Chris Wilmer'
_symmetry_space_group_name_H-M	'P1'
_symmetry_Int_Tables_number	1
_symmetry_cell_setting	triclinic
loop_
_symmetry_equiv_pos_as_xyz
  x,y,z
_cell_length_a	14.971506
_cell_length_b	15.021413
_cell_length_c	14.971486
_cell_angle_alpha	90.003812
_cell_angle_beta	96.381742
_cell_angle_gamma	90.007631
loop_
_atom_site_label
_atom_site_type_symbol
_atom_site_fract_x
_atom_site_fract_y
_atom_site_fract_z
O1	O	1.186939	0.074039	-0.116637
O2	O	1.686939	0.574039	0.383363
O3	O	0.926541	0.074039	-0.130577
O4	O	1.426541	0.574039	0.369423
O5	O	1.063719	0.074033	0.006593
O6	O	1.563719	0.574033	0.506593
O7	O	1.049760	0.074045	-0.253806
O8	O	1.549760	0.574045	0.246194
O9	O	1.063697	-0.074032	0.006573
O10	O	1.563697	0.425968	0.506573
O11	O	0.926519	-0.074025	-0.130596
O12	O	1.426519	0.425975	0.369404
O13	O	1.186917	-0.074025	-0.116656
O14	O	1.686917	0.425975	0.383344
Zn15	Zn	1.056714	-0.097534	-0.123629
Zn16	Zn	1.556714	0.402466	0.376371
Zn17	Zn	1.056743	0.097547	-0.123604
Zn18	Zn	1.556743	0.597547	0.376396
O19	O	1.049738	-0.074019	-0.253826
O20	O	1.549738	0.425981	0.246174
C21	C	0.893205	0.000007	-0.129960
C22	C	1.393205	0.500007	0.370040
C23	C	0.793909	0.000007	-0.128082
C24	C	1.293909	0.500007	0.371918
N25	N	1.056701	-0.230671	-0.123647
N26	N	1.556701	0.269329	0.376353
C27	C	0.355627	0.000020	-0.201500
C28	C	0.855627	0.500020	0.298500
C29	C	0.448927	0.000024	-0.203258
C30	C	0.948927	0.500024	0.296742
C31	C	0.506147	0.000016	-0.122665
C32	C	1.006147	0.500016	0.377335
C33	C	0.470062	0.000013	-0.040310
C34	C	0.970062	0.500013	0.459690
C35	C	0.376764	0.000016	-0.038553
C36	C	0.876764	0.500016	0.461447
C37	C	0.664525	0.000006	-0.043977
C38	C	1.164525	0.500006	0.456023
C39	C	0.757831	0.000002	-0.045733
C40	C	1.257831	0.500002	0.454267
C41	C	0.736689	0.000014	-0.208681
C42	C	1.236689	0.500014	0.291319
C43	C	0.643390	0.000017	-0.206924
C44	C	1.143390	0.500017	0.293076
C45	C	0.607312	0.000012	-0.124569
C46	C	1.107312	0.500012	0.375431
C47	C	0.993260	-0.470351	-0.187044
C48	C	1.493260	0.029649	0.312956
C49	C	1.074101	-0.529685	-0.204497
C50	C	1.574101	-0.029685	0.295503
C51	C	1.056724	-0.412278	-0.123624
C52	C	1.556724	0.087722	0.376376
C53	C	0.975905	-0.529686	-0.106192
C54	C	1.475905	-0.029686	0.393808
C55	C	1.056739	-0.587702	-0.123605
C56	C	1.556739	-0.087702	0.376395
C57	C	1.137606	-0.470305	-0.141117
C58	C	1.637606	0.029695	0.358883
C59	C	1.039356	-0.470301	-0.042777
C60	C	1.539356	0.029699	0.457223
C61	C	1.120256	-0.529608	-0.060195
C62	C	1.620256	-0.029608	0.439805
C63	C	1.056714	-0.311221	-0.123638
C64	C	1.556714	0.188779	0.376362
C65	C	1.056758	-0.688757	-0.123590
C66	C	1.556758	-0.188757	0.376410
C67	C	1.220252	0.000009	-0.117273
C68	C	1.720252	0.500009	0.382727
C69	C	1.319548	0.000014	-0.119151
C70	C	1.819548	0.500014	0.380849
C71	C	1.063084	0.000001	0.039908
C72	C	1.563084	0.500001	0.539908
C73	C	1.061213	0.000002	0.139205
C74	C	1.561213	0.500002	0.639205
N75	N	1.056763	0.230685	-0.123580
N76	N	1.556763	0.730685	0.376420
C77	C	1.050374	0.000015	-0.287141
C78	C	1.550374	0.500015	0.212859
C79	C	1.052244	0.000020	-0.386438
C80	C	1.552244	0.500020	0.113562
C81	C	1.141802	0.000001	0.196424
C82	C	1.641802	0.500001	0.696424
C83	C	1.140038	0.000010	0.289724
C84	C	1.640038	0.500010	0.789724
C85	C	1.057686	0.000013	0.325802
C86	C	1.557686	0.500013	0.825802
C87	C	0.977091	0.000017	0.268575
C88	C	1.477091	0.500017	0.768575
C89	C	0.978855	0.000014	0.175278
C90	C	1.478855	0.500014	0.675278
C91	C	0.973420	0.000020	0.463038
C92	C	1.473420	0.500020	0.963038
C93	C	0.971656	0.000021	0.556342
C94	C	1.471656	0.500021	1.056342
C95	C	1.134603	0.000016	0.577485
C96	C	1.634603	0.500016	1.077485
C97	C	1.136367	0.000013	0.484187
C98	C	1.636367	0.500013	0.984187
C99	C	1.055772	0.000015	0.426966
C100	C	1.555772	0.500015	0.926966
H101	H	0.309044	0.000020	-0.267128
H102	H	0.809044	0.500020	0.232872
H103	H	0.907551	-0.555772	-0.091456
H104	H	1.407551	-0.055772	0.408544
H105	H	0.910038	0.000025	0.297958
H106	H	1.410038	0.500025	0.797958
H107	H	0.804417	0.000003	0.019892
H108	H	1.304417	0.500003	0.519892
H109	H	1.088805	-0.555769	-0.272859
H110	H	1.588805	-0.055769	0.227141
H111	H	1.205975	-0.444331	-0.155935
H112	H	1.705975	0.055669	0.344065
H113	H	1.208862	-0.000007	0.167057
H114	H	1.708862	0.499993	0.667057
H115	H	1.173990	-0.555463	-0.006552
H116	H	1.673990	-0.055463	0.493448
H117	H	0.635155	0.000007	0.023086
H118	H	1.135155	0.500007	0.523086
H119	H	0.478297	0.000037	-0.270314
H120	H	0.978297	0.500037	0.229686
H121	H	0.516658	0.000012	0.025310
H122	H	1.016658	0.500012	0.525310
H123	H	1.024628	-0.444197	0.025563
H124	H	1.524628	0.055803	0.525563
H125	H	1.205662	0.000007	0.336309
H126	H	1.705662	0.500007	0.836309
H127	H	1.203426	0.000004	0.454815
H128	H	1.703426	0.500004	0.954815
H129	H	1.200227	0.000017	0.624078
H130	H	1.700227	0.500017	1.124078
H131	H	0.904597	0.000009	0.585714
H132	H	1.404597	0.500009	1.085714
H133	H	0.907791	0.000024	0.416451
H134	H	1.407791	0.500024	0.916451
H135	H	0.596803	0.000017	-0.272550
H136	H	1.096803	0.500017	0.227450
H137	H	0.766067	0.000017	-0.275738
H138	H	1.266067	0.500017	0.224262
H139	H	0.347391	0.000013	0.028503
H140	H	0.847391	0.500013	0.528503
H141	H	0.913232	0.000015	0.128690
H142	H	1.413232	0.500015	0.628690
H143	H	0.939645	-0.444333	-0.240719
H144	H	1.439645	0.055667	0.259281
