data_functionalizedCrystal
_audit_creation_method	'MofGen! by Chris Wilmer'
_symmetry_space_group_name_H-M	'P1'
_symmetry_Int_Tables_number	1
_symmetry_cell_setting	triclinic
loop_
_symmetry_equiv_pos_as_xyz
  x,y,z
_cell_length_a	10.489716
_cell_length_b	10.489741
_cell_length_c	9.730217
_cell_angle_alpha	89.997012
_cell_angle_beta	89.998958
_cell_angle_gamma	84.534155
loop_
_atom_site_label
_atom_site_type_symbol
_atom_site_fract_x
_atom_site_fract_y
_atom_site_fract_z
O1	O	1.694066	0.179817	-0.114278
O2	O	1.322867	0.196742	-0.114283
O3	O	1.516913	0.002681	-0.114272
O4	O	1.500020	0.373878	-0.114289
O5	O	1.516907	0.002679	0.114308
O6	O	1.322861	0.196740	0.114297
O7	O	1.694060	0.179815	0.114302
Zn8	Zn	1.508460	0.188277	0.150591
Zn9	Zn	1.508467	0.188280	-0.150573
O10	O	1.500014	0.373876	0.114291
C11	C	1.275332	0.195470	0.000006
C12	C	1.133701	0.191665	0.000004
C13	C	1.036027	0.310669	-0.000004
C14	C	0.958678	0.247784	0.112707
C15	C	0.958690	0.247758	-0.112655
C16	C	1.058217	0.128829	0.112808
C17	C	1.058235	0.128820	-0.112655
C18	C	0.980935	0.065848	0.000084
C19	C	1.515634	-0.044852	0.000017
C20	C	1.511817	-0.186481	0.000014
C21	C	1.388351	-0.254610	0.000003
C22	C	1.446672	-0.346739	0.112705
C23	C	1.446707	-0.346711	-0.112657
C24	C	1.570189	-0.276744	0.112810
C25	C	1.570207	-0.276707	-0.112653
C26	C	1.628618	-0.368808	0.000077
C27	C	1.741596	0.181087	0.000009
C28	C	1.883227	0.184892	0.000002
C29	C	1.501293	0.421409	-0.000001
C30	C	1.505110	0.563038	-0.000008
N31	N	1.508464	0.188275	0.356128
N32	N	1.508474	0.188272	-0.356109
C33	C	1.680362	0.016484	0.356128
C34	C	1.766320	-0.069407	0.428068
C35	C	1.766333	-0.069408	0.571948
C36	C	1.680377	0.016489	0.643891
C37	C	1.594419	0.102381	0.571951
C38	C	1.594417	0.102375	0.428068
C39	C	1.422516	0.274164	0.571951
C40	C	1.422507	0.274173	0.428071
C41	C	1.336559	0.360061	0.643894
C42	C	1.250605	0.445961	0.571954
C43	C	1.250596	0.445959	0.428065
C44	C	1.336549	0.360064	0.356131
H45	H	0.915209	0.298019	-0.207930
C46	C	1.459191	-0.472186	0.319523
C47	C	1.376152	-0.388612	0.241328
H48	H	1.415649	-0.498025	0.398929
H49	H	1.486974	-0.545374	0.266081
H50	H	1.531258	-0.429825	0.346610
H51	H	1.304090	-0.430976	0.214233
H52	H	1.348351	-0.315411	0.294781
H53	H	1.622382	-0.245917	0.208198
C54	C	1.839236	-0.289509	0.616275
C55	C	1.860811	-0.163825	0.651036
H56	H	1.897566	-0.347795	0.665097
H57	H	1.753990	-0.304177	0.639863
H58	H	1.851542	-0.301794	0.520289
H59	H	1.848495	-0.151537	0.747021
H60	H	1.946077	-0.149151	0.627457
C61	C	1.065143	0.122931	0.359393
C62	C	1.116673	0.061060	0.241583
H63	H	1.101228	0.081090	0.438891
H64	H	1.084344	0.209609	0.359060
H65	H	0.974907	0.120034	0.360135
H66	H	1.206908	0.063965	0.240837
H67	H	1.097481	-0.025640	0.241917
C68	C	1.250370	-0.330315	-0.241057
C69	C	1.376169	-0.388521	-0.241289
H70	H	1.206822	-0.356117	-0.320470
H71	H	1.207342	-0.355464	-0.161039
H72	H	1.251632	-0.239885	-0.241527
H73	H	1.374907	-0.478951	-0.240809
H74	H	1.419208	-0.363380	-0.321328
C75	C	1.256300	-0.054648	-0.001078
C76	C	1.251317	-0.187562	0.000134
H77	H	1.171702	-0.013258	-0.001003
H78	H	1.300584	-0.029693	0.078174
H79	H	1.299976	-0.030850	-0.081242
H80	H	1.207649	-0.211362	0.080304
H81	H	1.207014	-0.212527	-0.079126
H82	H	1.180594	0.515898	0.369499
H83	H	1.730222	-0.418241	0.000141
C84	C	1.216126	0.333152	0.150036
C85	C	1.336539	0.360065	0.197976
H86	H	1.216122	0.333157	0.052397
H87	H	1.197952	0.251457	0.182590
H88	H	1.152645	0.396606	0.182592
H89	H	1.400019	0.296605	0.165428
H90	H	1.354728	0.441771	0.165408
H91	H	1.622406	-0.245666	-0.207939
C92	C	1.061175	-0.156297	0.001361
C93	C	0.947953	-0.073996	0.000184
H94	H	1.040812	-0.242628	0.001439
H95	H	1.110340	-0.141292	-0.077979
H96	H	1.109150	-0.140795	0.081438
H97	H	0.899983	-0.089491	-0.079898
H98	H	0.898768	-0.089007	0.079532
C99	C	0.767085	0.310246	0.240555
C100	C	0.899953	0.315603	0.241322
H101	H	0.730834	0.352117	0.319954
H102	H	0.731691	0.351654	0.160524
H103	H	0.748622	0.223330	0.240689
H104	H	0.918415	0.402520	0.241178
H105	H	0.935358	0.274198	0.321374
C106	C	1.018856	0.512440	0.118307
C107	C	1.069358	0.450401	0.000134
H108	H	1.039445	0.598699	0.118399
H109	H	0.928466	0.510952	0.119119
H110	H	1.054429	0.469752	0.197549
H111	H	1.033778	0.493084	-0.079108
H112	H	1.159767	0.451897	-0.000690
H113	H	1.680371	0.016487	0.238974
C114	C	1.842752	-0.145584	0.207506
C115	C	1.860873	-0.163752	0.348986
H116	H	1.901150	-0.203805	0.158691
H117	H	1.757536	-0.160347	0.183901
H118	H	1.857302	-0.060281	0.183974
H119	H	1.846314	-0.249053	0.372520
H120	H	1.946109	-0.148999	0.372601
H121	H	1.101733	0.078623	-0.207942
C122	C	1.653569	-0.103964	0.849999
C123	C	1.680385	0.016478	0.802046
H124	H	1.653582	-0.103969	0.947638
H125	H	1.571891	-0.122200	0.817459
H126	H	1.717064	-0.167401	0.817437
H127	H	1.616885	0.079915	0.834600
H128	H	1.762075	0.034729	0.834600
C129	C	1.430177	0.266547	0.850005
C130	C	1.336573	0.360067	0.802049
H131	H	1.430190	0.266563	0.947643
H132	H	1.411978	0.184854	0.817476
H133	H	1.511850	0.284814	0.817433
H134	H	1.254899	0.341794	0.834612
H135	H	1.354764	0.441778	0.834591
H136	H	1.180619	0.515887	0.630539
