data_functionalizedCrystal
_audit_creation_method	'MofGen! by Chris Wilmer'
_symmetry_space_group_name_H-M	'P1'
_symmetry_Int_Tables_number	1
_symmetry_cell_setting	triclinic
loop_
_symmetry_equiv_pos_as_xyz
  x,y,z
_cell_length_a	17.077404
_cell_length_b	19.805405
_cell_length_c	17.077396
_cell_angle_alpha	90.031650
_cell_angle_beta	90.019501
_cell_angle_gamma	90.026635
loop_
_atom_site_label
_atom_site_type_symbol
_atom_site_fract_x
_atom_site_fract_y
_atom_site_fract_z
Zn1	Zn	1.200035	-0.269459	0.443825
Zn2	Zn	1.199934	-0.382652	0.312552
Zn3	Zn	1.068767	-0.269483	0.312573
Zn4	Zn	1.068727	-0.382612	0.443776
O5	O	1.134366	-0.326052	0.378182
O6	O	1.309869	-0.284481	0.426424
O7	O	1.182509	-0.367667	0.202708
O8	O	1.086239	-0.174763	0.330014
O9	O	1.309795	-0.367644	0.329978
O10	O	1.182681	-0.174746	0.426444
O11	O	1.086141	-0.284522	0.202724
O12	O	0.958915	-0.284483	0.329966
O13	O	1.086171	-0.367575	0.553629
O14	O	0.958886	-0.367598	0.426360
O15	O	1.182643	-0.284442	0.553666
O16	O	1.182470	-0.477363	0.329930
O17	O	1.086073	-0.477334	0.426339
C18	C	0.930418	-0.326039	0.378160
C19	C	0.843168	-0.326050	0.378169
C20	C	0.802183	-0.369394	0.428281
C21	C	0.720203	-0.369395	0.428294
C22	C	0.679209	-0.326056	0.378190
C23	C	0.720200	-0.282708	0.328076
C24	C	0.802179	-0.282703	0.328068
C25	C	0.549330	-0.282721	0.328095
C26	C	0.467345	-0.282726	0.328102
C27	C	0.467354	-0.369413	0.428321
C28	C	0.549333	-0.369409	0.428313
C29	C	0.590318	-0.326061	0.378197
C30	C	1.134278	-0.501908	0.378144
C31	C	1.134312	-0.577140	0.378154
C32	C	1.184555	-0.612477	0.328006
C33	C	1.184588	-0.683165	0.328023
C34	C	1.134374	-0.718515	0.378185
C35	C	1.084129	-0.683173	0.428338
C36	C	1.084100	-0.612486	0.428324
C37	C	1.084245	-0.968246	0.428397
C38	C	1.084276	-1.038938	0.428405
C39	C	1.184733	-1.038925	0.328095
C40	C	1.184704	-0.968238	0.328081
C41	C	1.134462	-0.932902	0.378237
C42	C	1.134427	-0.856254	0.378219
C43	C	1.134404	-0.795162	0.378200
C44	C	1.339110	-0.326064	0.378204
C45	C	1.426360	-0.326070	0.378213
C46	C	1.134414	-0.326002	0.582926
C47	C	1.134434	-0.325980	0.670176
C48	C	1.134476	-0.149509	0.378237
C49	C	1.134523	-0.074277	0.378261
C50	C	1.134364	-0.326052	0.174234
C51	C	1.134496	-0.325883	0.086984
C52	C	1.184668	-0.282690	0.711186
C53	C	1.184678	-0.282667	0.793167
C54	C	1.134456	-0.325939	0.834135
C55	C	1.084216	-0.369232	0.793119
C56	C	1.084203	-0.369251	0.711140
C57	C	1.084248	-0.369191	0.963989
C58	C	1.084261	-0.369174	1.045974
C59	C	1.184722	-0.282608	1.046016
C60	C	1.184709	-0.282626	0.964037
C61	C	1.134470	-0.325920	0.923026
H62	H	0.835548	-0.247405	0.287266
H63	H	1.043325	-0.404435	0.930601
C64	C	1.290389	-1.118328	0.317315
C65	C	1.239985	-1.077760	0.272977
H66	H	1.324504	-1.142295	0.283288
H67	H	1.260491	-1.149501	0.347176
H68	H	1.320365	-1.090696	0.351542
H69	H	1.210004	-1.105393	0.238753
H70	H	1.269886	-1.046583	0.243102
C71	C	0.442075	-0.484071	0.466307
C72	C	0.422303	-0.417062	0.483406
H73	H	0.414254	-0.513488	0.500308
H74	H	0.496757	-0.490269	0.473477
H75	H	0.428608	-0.493905	0.413543
H76	H	0.435775	-0.407227	0.536170
H77	H	0.367608	-0.410861	0.476244
H78	H	1.043322	-0.404463	0.826482
C79	C	0.978710	-1.118500	0.439241
C80	C	1.029080	-1.077797	0.483552
H81	H	0.944635	-1.142486	0.473286
H82	H	1.008636	-1.149658	0.409379
H83	H	0.948690	-1.090958	0.405016
H84	H	1.059105	-1.105339	0.517773
H85	H	0.999152	-1.046635	0.513428
H86	H	1.225609	-0.247394	0.930683
H87	H	1.225628	-0.247355	1.079411
H88	H	0.686816	-0.247417	0.287284
H89	H	0.686837	-0.404691	0.469099
H90	H	1.225590	-0.939458	0.287232
C91	C	0.984925	-0.454834	0.719328
C92	C	1.028997	-0.416849	0.666058
H93	H	0.950848	-0.484224	0.691495
H94	H	0.954915	-0.425338	0.751300
H95	H	1.019127	-0.480710	0.751307
H96	H	0.994796	-0.390969	0.634083
H97	H	1.059010	-0.446349	0.634073
C98	C	0.375076	-0.273174	0.222570
C99	C	0.422267	-0.235070	0.273060
H100	H	0.347247	-0.243747	0.188596
H101	H	0.338952	-0.298999	0.252415
H102	H	0.407030	-0.302609	0.192448
H103	H	0.390313	-0.205639	0.303186
H104	H	0.458395	-0.209234	0.243211
C105	C	1.229437	-0.791517	0.283700
C106	C	1.239948	-0.722008	0.273032
H107	H	1.263660	-0.815495	0.249792
H108	H	1.176759	-0.803205	0.272040
H109	H	1.240777	-0.802992	0.336502
H110	H	1.228602	-0.710533	0.220231
H111	H	1.292638	-0.710315	0.284686
H112	H	0.835555	-0.404688	0.469079
H113	H	1.043247	-0.711961	0.469184
C114	C	0.641572	-0.378918	0.533866
C115	C	0.594396	-0.417046	0.483388
H116	H	0.669395	-0.408328	0.567865
H117	H	0.609617	-0.349470	0.563955
H118	H	0.677710	-0.353106	0.504009
H119	H	0.558254	-0.442855	0.513245
H120	H	0.626355	-0.446505	0.453295
H121	H	1.225567	-0.247454	0.677836
H122	H	0.582697	-0.247417	0.287293
H123	H	1.225441	-0.583699	0.287155
H124	H	1.043334	-0.939481	0.469234
H125	H	1.225586	-0.247417	0.826554
C126	C	0.984803	-0.619594	0.527481
C127	C	1.028873	-0.573641	0.483450
H128	H	0.950707	-0.595612	0.561513
H129	H	1.018999	-0.647123	0.557538
H130	H	0.954804	-0.647206	0.493251
H131	H	1.058876	-0.546032	0.517680
H132	H	0.994673	-0.546101	0.453391
C133	C	0.984945	-0.454732	1.037703
C134	C	1.029051	-0.416734	1.091009
H135	H	0.950857	-0.484090	1.065507
H136	H	1.019118	-0.480636	1.005726
H137	H	0.954936	-0.425238	1.005732
H138	H	1.059065	-0.446228	1.122976
H139	H	0.994874	-0.390828	1.122999
