data_functionalizedCrystal
_audit_creation_method	'MofGen! by Chris Wilmer'
_symmetry_space_group_name_H-M	'P1'
_symmetry_Int_Tables_number	1
_symmetry_cell_setting	triclinic
loop_
_symmetry_equiv_pos_as_xyz
  x,y,z
_cell_length_a	14.519709
_cell_length_b	13.339070
_cell_length_c	12.996460
_cell_angle_alpha	90.005393
_cell_angle_beta	90.000052
_cell_angle_gamma	80.345280
loop_
_atom_site_label
_atom_site_type_symbol
_atom_site_fract_x
_atom_site_fract_y
_atom_site_fract_z
O1	O	-0.462554	1.343121	0.085548
O2	O	-0.401841	1.048484	0.085550
O3	O	-0.299946	1.203614	0.085558
O4	O	-0.564449	1.187990	0.085540
O5	O	-0.299934	1.203598	-0.085575
O6	O	-0.401829	1.048468	-0.085584
O7	O	-0.462542	1.343105	-0.085585
Cu8	Cu	-0.432185	1.195785	-0.101211
Cu9	Cu	-0.432199	1.195804	0.101175
O10	O	-0.564437	1.187974	-0.085594
C11	C	-0.391580	1.010768	-0.000017
C12	C	-0.361010	0.898411	-0.000016
C13	C	-0.598702	0.534048	-0.000016
C14	C	-0.627426	0.639613	-0.000014
C15	C	-0.560825	0.704317	-0.000015
C16	C	-0.465494	0.663447	-0.000017
C17	C	-0.436767	0.557872	-0.000011
C18	C	-0.398889	0.728141	-0.000010
C19	C	-0.303559	0.687271	-0.000012
C20	C	-0.274836	0.581706	-0.000007
C21	C	-0.341438	0.517002	-0.000006
C22	C	-0.427617	0.833716	-0.000016
C23	C	-0.265682	0.857541	-0.000010
C24	C	-0.236957	0.751976	-0.000013
C25	C	-0.598988	1.188711	-0.000030
C26	C	-0.701924	1.190892	-0.000036
C27	C	-1.078863	1.198925	0.000004
C28	C	-0.973988	1.196695	-0.000007
C29	C	-0.890397	1.194909	-0.000017
C30	C	-0.785515	1.192678	-0.000027
C31	C	-0.265395	1.202878	-0.000004
C32	C	-0.162459	1.200696	0.000010
C33	C	-0.472804	1.380820	-0.000017
C34	C	-0.503373	1.493178	-0.000011
N35	N	-0.432176	1.195779	-0.243558
C36	C	-0.432199	1.195802	-0.663372
C37	C	-0.432195	1.195793	-0.546567
C38	C	-0.432188	1.195791	-0.453469
C39	C	-0.432183	1.195780	-0.336656
N40	N	-0.432202	1.195818	0.243522
H41	H	-0.505235	0.866982	-0.000018
O42	O	-0.201064	0.920486	0.000125
C43	C	-0.212828	0.982260	0.088766
H44	H	-0.287430	0.987733	0.118309
H45	H	-0.198760	1.061536	0.068830
H46	H	-0.161806	0.947464	0.150834
O47	O	-0.182244	0.541958	0.000184
C48	C	-0.160794	0.481600	0.088808
H49	H	-0.215403	0.506662	0.150751
H50	H	-0.088862	0.490946	0.118564
H51	H	-0.160772	0.398386	0.068775
O52	O	-0.663423	0.471237	0.000172
C53	C	-0.719716	0.489815	0.088789
H54	H	-0.680244	0.525826	0.150733
H55	H	-0.737543	0.414987	0.118549
H56	H	-0.786878	0.543653	0.068745
O57	O	-0.588884	0.806839	-0.000065
C58	C	-0.687305	0.829038	-0.000039
H59	H	-0.716600	0.761447	-0.032429
H60	H	-0.711441	0.898931	-0.049731
H61	H	-0.713460	0.844687	0.082062
O62	O	-0.313485	0.414460	-0.000185
C63	C	-0.259447	0.385719	-0.088798
H64	H	-0.277424	0.446338	-0.150750
H65	H	-0.275109	0.309954	-0.118549
H66	H	-0.182113	0.377622	-0.068752
H67	H	-0.705044	0.672881	-0.000004
O68	O	-0.144367	0.712220	0.000175
C69	C	-0.122920	0.651856	0.088796
H70	H	-0.177525	0.676923	0.150742
H71	H	-0.050984	0.661192	0.118550
H72	H	-0.122908	0.568646	0.068760
