data_functionalizedCrystal
_audit_creation_method	'MofGen! by Chris Wilmer'
_symmetry_space_group_name_H-M	'P1'
_symmetry_Int_Tables_number	1
_symmetry_cell_setting	triclinic
loop_
_symmetry_equiv_pos_as_xyz
  x,y,z
_cell_length_a	12.594516
_cell_length_b	12.594517
_cell_length_c	11.169409
_cell_angle_alpha	90.027976
_cell_angle_beta	89.968646
_cell_angle_gamma	89.989009
loop_
_atom_site_label
_atom_site_type_symbol
_atom_site_fract_x
_atom_site_fract_y
_atom_site_fract_z
Zn1	Zn	-0.423800	-1.627290	-0.678812
Zn2	Zn	-0.601826	-1.627174	-0.478132
Zn3	Zn	-0.423846	-1.449287	-0.478118
Zn4	Zn	-0.601721	-1.449276	-0.678749
O5	O	-0.512798	-1.538257	-0.578453
O6	O	-0.447440	-1.776220	-0.652224
O7	O	-0.578280	-1.603533	-0.310180
O8	O	-0.274894	-1.472952	-0.504761
O9	O	-0.578235	-1.776135	-0.504785
O10	O	-0.274860	-1.603730	-0.652210
O11	O	-0.447519	-1.472840	-0.310170
O12	O	-0.447417	-1.300340	-0.504699
O13	O	-0.578056	-1.472934	-0.846707
O14	O	-0.578101	-1.300331	-0.652102
O15	O	-0.447338	-1.603720	-0.846753
O16	O	-0.750758	-1.603522	-0.504724
O17	O	-0.750680	-1.472821	-0.652116
C18	C	-0.512753	-1.261716	-0.578393
C19	C	-0.512760	-1.143410	-0.578396
C20	C	-0.789339	-1.538187	-0.578441
C21	C	-0.907644	-1.538254	-0.578476
C22	C	-0.441578	-1.074131	-0.498370
C23	C	-0.538663	-1.003319	-0.468848
C24	C	-0.415704	-1.003423	-0.607920
C25	C	-0.609896	-1.074156	-0.548816
C26	C	-0.486872	-1.074267	-0.687940
C27	C	-0.584024	-1.003487	-0.658458
C28	C	-0.976894	-1.467159	-0.658586
C29	C	-1.047766	-1.441222	-0.549069
C30	C	-1.047572	-1.564288	-0.688012
C31	C	-0.976958	-1.512266	-0.468901
C32	C	-0.976757	-1.635377	-0.607918
C33	C	-1.047597	-1.609477	-0.498325
C34	C	-0.235177	-1.538356	-0.578491
C35	C	-0.116872	-1.538398	-0.578507
C36	C	-0.512680	-1.538338	-0.891495
C37	C	-0.512629	-1.538373	-1.024895
C38	C	-0.512822	-0.815877	-0.578491
C39	C	-0.512778	-0.934183	-0.578451
C40	C	-0.512839	-1.538236	-0.266628
C41	C	-0.512589	-1.538408	-0.133228
H42	H	-0.381448	-1.105149	-0.430620
H43	H	-0.946068	-1.490209	-0.376254
O44	O	-0.460826	-1.111360	-0.798484
C45	C	-0.505325	-1.116036	-1.008215
C46	C	-0.534943	-1.073930	-0.883099
H47	H	-0.565245	-1.085810	-1.076656
H48	H	-0.422531	-1.087003	-1.033336
H49	H	-0.506307	-1.206544	-1.007258
H50	H	-0.534022	-0.983425	-0.883961
H51	H	-0.617719	-1.103044	-0.858027
O52	O	-0.939562	-1.733228	-0.637863
C53	C	-0.933328	-1.871257	-0.787176
C54	C	-0.975503	-1.760423	-0.753409
H55	H	-0.962387	-1.893288	-0.880585
H56	H	-0.842818	-1.870462	-0.786090
H57	H	-0.963616	-1.932112	-0.719799
H58	H	-0.945294	-1.699506	-0.820752
H59	H	-1.066011	-1.761307	-0.754456
O60	O	-1.084452	-1.590371	-0.798595
C61	C	-1.090401	-1.544758	-1.007978
C62	C	-1.048549	-1.515123	-0.882813
H63	H	-1.061409	-1.483924	-1.076098
H64	H	-1.059943	-1.626883	-1.033815
H65	H	-1.180909	-1.545372	-1.006660
H66	H	-0.958044	-1.514448	-0.884035
H67	H	-1.079088	-1.433017	-0.857025
H68	H	-0.560574	-0.972157	-0.376232
H69	H	-0.945849	-1.406929	-0.726234
H70	H	-0.644298	-0.972664	-0.726157
H71	H	-0.333629	-0.972297	-0.632828
H72	H	-0.692007	-1.105097	-0.523764
O73	O	-1.084931	-1.343248	-0.519562
C74	C	-1.091018	-1.157464	-0.570556
C75	C	-1.048886	-1.268364	-0.604115
H76	H	-1.061874	-1.096886	-0.638885
H77	H	-1.181528	-1.158602	-0.570053
H78	H	-1.060780	-1.134791	-0.477820
H79	H	-1.079044	-1.291105	-0.696858
H80	H	-0.958376	-1.267166	-0.604535
H81	H	-1.078446	-1.669661	-0.430513
