data_functionalizedCrystal
_audit_creation_method	'MofGen! by Chris Wilmer'
_symmetry_space_group_name_H-M	'P1'
_symmetry_Int_Tables_number	1
_symmetry_cell_setting	triclinic
loop_
_symmetry_equiv_pos_as_xyz
  x,y,z
_cell_length_a	12.759401
_cell_length_b	17.077402
_cell_length_c	12.759393
_cell_angle_alpha	90.034688
_cell_angle_beta	90.020938
_cell_angle_gamma	90.024408
loop_
_atom_site_label
_atom_site_type_symbol
_atom_site_fract_x
_atom_site_fract_y
_atom_site_fract_z
Zn1	Zn	1.606207	-0.312438	0.593990
Zn2	Zn	2.106207	0.187562	1.093990
Zn3	Zn	1.606073	-0.443724	0.418297
Zn4	Zn	2.106073	0.056276	0.918297
Zn5	Zn	1.430505	-0.312480	0.418325
Zn6	Zn	1.930505	0.187520	0.918325
Zn7	Zn	1.430472	-0.443669	0.593934
Zn8	Zn	1.930472	0.056331	1.093934
O9	O	1.518314	-0.378078	0.506136
O10	O	2.018314	0.121922	1.006136
O11	O	1.753210	-0.329859	0.570695
O12	O	2.253210	0.170141	1.070695
O13	O	1.582741	-0.426355	0.271279
O14	O	2.082741	0.073645	0.771279
O15	O	1.453882	-0.202628	0.441662
O16	O	1.953882	0.297372	0.941662
O17	O	1.753111	-0.426314	0.441614
O18	O	2.253111	0.073686	0.941614
O19	O	1.582969	-0.202597	0.570722
O20	O	2.082969	0.297403	1.070722
O21	O	1.453753	-0.329930	0.271300
O22	O	1.953753	0.170070	0.771300
O23	O	1.283480	-0.329877	0.441608
O24	O	1.783480	0.170123	0.941608
O25	O	1.453826	-0.426221	0.740962
O26	O	1.953826	0.073779	1.240962
O27	O	1.283456	-0.426261	0.570627
O28	O	1.783456	0.073739	1.070627
O29	O	1.582937	-0.329806	0.741003
O30	O	2.082937	0.170194	1.241003
O31	O	1.582709	-0.553564	0.441560
O32	O	2.082709	-0.053564	0.941560
O33	O	1.453696	-0.553524	0.570600
O34	O	1.953696	-0.053524	1.070600
C35	C	1.245347	-0.378068	0.506115
C36	C	1.745347	0.121932	1.006115
C37	C	1.128570	-0.378083	0.506131
C38	C	1.628570	0.121917	1.006131
C39	C	1.073723	-0.428347	0.573206
C40	C	1.573723	0.071653	1.073206
C41	C	0.963999	-0.428350	0.573227
C42	C	1.463999	0.071650	1.073227
C43	C	0.963979	-0.327823	0.439089
C44	C	1.463979	0.172177	0.939089
C45	C	1.073701	-0.327817	0.439075
C46	C	1.573701	0.172183	0.939075
C47	C	1.518213	-0.582026	0.506094
C48	C	2.018213	-0.082026	1.006094
C49	C	1.518266	-0.669276	0.506111
C50	C	2.018266	-0.169276	1.006111
C51	C	1.585511	-0.710261	0.438993
C52	C	2.085511	-0.210261	0.938993
C53	C	1.585563	-0.792241	0.439019
C54	C	2.085563	-0.292241	0.939019
C55	C	1.518362	-0.833235	0.506161
C56	C	2.018362	-0.333235	1.006161
C57	C	1.451114	-0.792244	0.573287
C58	C	1.951114	-0.292244	1.073287
C59	C	1.451068	-0.710265	0.573265
C60	C	1.951068	-0.210265	1.073265
C61	C	1.451211	-0.963114	0.573327
C62	C	1.951211	-0.463114	1.073327
C63	C	1.451255	-1.045099	0.573348
C64	C	1.951255	-0.545099	1.073348
C65	C	1.585705	-1.045090	0.439082
C66	C	2.085705	-0.545090	0.939082
C67	C	1.585660	-0.963111	0.439059
C68	C	2.085660	-0.463111	0.939059
C69	C	1.518410	-0.922126	0.506184
C70	C	2.018410	-0.422126	1.006184
C71	C	1.792347	-0.378088	0.506158
C72	C	2.292347	0.121912	1.006158
C73	C	1.909124	-0.378093	0.506167
C74	C	2.409124	0.121907	1.006167
C75	C	1.518393	-0.378003	0.780170
C76	C	2.018393	0.121997	1.280170
C77	C	1.518426	-0.377971	0.896946
C78	C	2.018426	0.122029	1.396946
C79	C	1.518445	-0.173334	0.506201
C80	C	2.018445	0.326666	1.006201
C81	C	1.518500	-0.086084	0.506229
C82	C	2.018500	0.413916	1.006229
C83	C	1.518296	-0.378096	0.233169
C84	C	2.018296	0.121904	0.733169
C85	C	1.518466	-0.377907	0.116393
C86	C	2.018466	0.122093	0.616393
C87	C	1.585660	-0.327759	0.951831
C88	C	2.085660	0.172241	1.451831
C89	C	1.585677	-0.327725	1.061555
C90	C	2.085677	0.172275	1.561555
C91	C	1.451226	-0.428121	1.061500
C92	C	1.951226	0.071879	1.561500
C93	C	1.451203	-0.428150	0.951778
C94	C	1.951203	0.071850	1.451778
H95	H	1.118394	-0.469275	0.627811
H96	H	1.618394	0.030725	1.127811
H97	H	0.919347	-0.469279	0.627847
H98	H	1.419347	0.030721	1.127847
H99	H	1.640424	-0.286837	1.106238
H100	H	2.140424	0.213163	1.606238
C101	C	1.436357	-0.618001	0.714549
C102	C	1.936357	-0.118001	1.214549
C103	C	1.377152	-0.665210	0.647044
C104	C	1.877152	-0.165210	1.147044
H105	H	1.390724	-0.590190	0.760104
H106	H	1.890724	-0.090190	1.260104
H107	H	1.476363	-0.581861	0.674557
H108	H	1.976363	-0.081861	1.174557
H109	H	1.482124	-0.649940	0.754779
H110	H	1.982124	-0.149940	1.254779
H111	H	1.331389	-0.633270	0.606808
H112	H	1.831389	-0.133270	1.106808
H113	H	1.337128	-0.701354	0.687040
H114	H	1.837128	-0.201354	1.187040
C115	C	1.391565	-0.472658	1.229673
C116	C	1.891565	0.027342	1.729673
C117	C	1.377345	-0.483283	1.121775
C118	C	1.877345	0.016717	1.621775
H119	H	1.345958	-0.506719	1.266880
H120	H	1.845958	-0.006719	1.766880
H121	H	1.376226	-0.419918	1.247665
H122	H	1.876226	0.080082	1.747665
H123	H	1.462155	-0.484147	1.247650
H124	H	1.962155	0.015853	1.747650
H125	H	1.306756	-0.471789	1.103797
H126	H	1.806756	0.028211	1.603797
H127	H	1.392677	-0.536036	1.103776
H128	H	1.892677	-0.036036	1.603776
C129	C	1.718418	-0.718495	0.306284
C130	C	2.218418	-0.218495	0.806284
C131	C	1.659381	-0.665204	0.365187
C132	C	2.159381	-0.165204	0.865187
H133	H	1.764028	-0.690679	0.260725
H134	H	2.264028	-0.190679	0.760725
H135	H	1.672682	-0.750521	0.266068
H136	H	2.172682	-0.250521	0.766068
H137	H	1.758596	-0.750418	0.352117
H138	H	2.258596	-0.250418	0.852117
H139	H	1.619196	-0.633285	0.319355
H140	H	2.119196	-0.133285	0.819355
H141	H	1.705123	-0.633165	0.405407
H142	H	2.205123	-0.133165	0.905407
H143	H	1.118359	-0.286881	0.384454
H144	H	1.618359	0.213119	0.884454
H145	H	1.640394	-0.286897	0.907191
H146	H	2.140394	0.213103	1.407191
H147	H	1.396447	-0.469038	0.907090
H148	H	1.896447	0.030962	1.407090
H149	H	0.919291	-0.286900	0.384493
H150	H	1.419291	0.213100	0.884493
H151	H	1.396452	-0.929747	0.627991
H152	H	1.896452	-0.429747	1.127991
H153	H	1.640320	-0.825608	0.384364
H154	H	2.140320	-0.325608	0.884364
H155	H	1.640374	-0.929734	0.384383
H156	H	2.140374	-0.429734	0.884383
C157	C	1.436494	-0.884369	0.714615
C158	C	1.936494	-0.384369	1.214615
C159	C	1.377246	-0.837306	0.647089
C160	C	1.877246	-0.337306	1.147089
H161	H	1.390886	-0.912190	0.760170
H162	H	1.890886	-0.412190	1.260170
H163	H	1.482220	-0.852336	0.754834
H164	H	1.982220	-0.352336	1.254834
H165	H	1.476546	-0.920508	0.674630
H166	H	1.976546	-0.420508	1.174630
H167	H	1.337199	-0.801163	0.687073
H168	H	1.837199	-0.301163	1.187073
H169	H	1.331502	-0.869341	0.606865
H170	H	1.831502	-0.369341	1.106865
H171	H	1.640466	-1.078464	0.384429
H172	H	2.140466	-0.578464	0.884429
H173	H	1.396554	-1.078474	0.628040
H174	H	1.896554	-0.578474	1.128040
