data_functionalizedCrystal
_audit_creation_method	'MofGen! by Chris Wilmer'
_symmetry_space_group_name_H-M	'P1'
_symmetry_Int_Tables_number	1
_symmetry_cell_setting	triclinic
loop_
_symmetry_equiv_pos_as_xyz
  x,y,z
_cell_length_a	14.971486
_cell_length_b	14.971486
_cell_length_c	14.048226
_cell_angle_alpha	90.006640
_cell_angle_beta	90.001501
_cell_angle_gamma	83.614129
loop_
_atom_site_label
_atom_site_type_symbol
_atom_site_fract_x
_atom_site_fract_y
_atom_site_fract_z
O1	O	-1.186947	-0.116565	-0.079052
O2	O	-0.926547	-0.130523	-0.079078
O3	O	-1.063726	0.006656	-0.079057
O4	O	-1.049768	-0.253744	-0.079072
O5	O	-1.063710	0.006664	0.079264
O6	O	-0.926530	-0.130515	0.079244
O7	O	-1.186930	-0.116556	0.079270
Zn8	Zn	-1.056728	-0.123535	0.104394
Zn9	Zn	-1.056750	-0.123545	-0.104202
O10	O	-1.049751	-0.253736	0.079249
C11	C	-0.893214	-0.129895	0.000080
C12	C	-0.793917	-0.128024	0.000070
C13	C	-1.063094	0.039985	0.000103
C14	C	-1.061223	0.139282	0.000102
C15	C	-1.220263	-0.117185	0.000110
C16	C	-1.319561	-0.119056	0.000114
N17	N	-1.056719	-0.123527	0.246754
C18	C	-0.736692	-0.208614	0.000067
C19	C	-0.643392	-0.206850	0.000081
C20	C	-0.607320	-0.124497	0.000092
C21	C	-0.664552	-0.043902	0.000098
C22	C	-0.757850	-0.045666	0.000090
C23	C	-0.470090	-0.040231	0.000111
C24	C	-0.376786	-0.038466	0.000117
C25	C	-0.355632	-0.201415	0.000102
C26	C	-0.448930	-0.203179	0.000094
C27	C	-0.506156	-0.122584	0.000099
C28	C	-1.050384	-0.287065	0.000087
C29	C	-1.052254	-0.386362	0.000082
C30	C	-1.141812	0.196507	0.000111
C31	C	-1.140049	0.289807	0.000101
C32	C	-1.057696	0.325879	0.000089
C33	C	-0.977101	0.268646	0.000078
C34	C	-0.978865	0.175349	0.000081
C35	C	-0.973430	0.463109	0.000074
C36	C	-0.971665	0.556413	0.000073
C37	C	-1.134614	0.577567	0.000094
C38	C	-1.136378	0.484269	0.000097
C39	C	-1.055782	0.427043	0.000088
N40	N	-1.056765	-0.123546	-0.246562
C41	C	-1.117482	-0.062809	0.296581
C42	C	-1.117488	-0.062808	0.396239
C43	C	-1.056735	-0.123531	0.446068
C44	C	-0.995966	-0.184252	0.396234
C45	C	-0.995957	-0.184247	0.296578
C46	C	-0.995992	-0.184258	0.603948
C47	C	-0.996003	-0.184264	0.703611
C48	C	-1.117523	-0.062819	0.703609
C49	C	-1.117514	-0.062815	0.603953
C50	C	-1.056746	-0.123537	0.554126
H51	H	-0.596802	-0.272474	0.000077
O52	O	-1.216320	0.449122	-0.000018
C53	C	-1.222231	0.395797	-0.082024
H54	H	-1.151759	0.372635	-0.109368
H55	H	-1.257947	0.334667	-0.063578
H56	H	-1.261765	0.436966	-0.139438
H57	H	-1.167002	-0.013377	0.744184
H58	H	-1.200238	0.624165	0.000099
H59	H	-0.904606	0.585780	0.000079
H60	H	-0.516682	0.025399	0.000116
O61	O	-0.897024	0.303535	0.000021
C62	C	-0.826272	0.233017	0.000035
H63	H	-0.851419	0.169609	-0.029933
H64	H	-0.768787	0.252569	-0.045939
H65	H	-0.801397	0.219850	0.075986
O66	O	-0.300136	-0.279766	0.000230
C67	C	-0.316488	-0.329753	0.082228
H68	H	-0.387239	-0.307870	0.109559
H69	H	-0.309998	-0.404346	0.063776
H70	H	-0.265450	-0.317466	0.139653
O71	O	-0.771835	-0.288557	0.000180
C72	C	-0.825157	-0.294461	0.082181
H73	H	-0.848322	-0.223987	0.109523
H74	H	-0.886285	-0.330184	0.063730
H75	H	-0.783984	-0.333985	0.139598
O76	O	-0.936890	-0.243269	0.751869
C77	C	-0.883257	-0.296869	0.686523
H78	H	-0.882214	-0.260197	0.615487
H79	H	-0.811845	-0.310372	0.715326
H80	H	-0.912343	-0.363376	0.675916
O81	O	-0.483859	-0.283235	-0.000049
C82	C	-0.454635	-0.332356	-0.082061
H83	H	-0.389903	-0.307906	-0.109387
H84	H	-0.441762	-0.406829	-0.063629
H85	H	-0.508607	-0.322057	-0.139482
O86	O	-0.895056	0.407646	0.000105
C87	C	-0.821990	0.459488	0.000072
H88	H	-0.844613	0.529099	0.030047
H89	H	-0.765513	0.425136	0.046031
H90	H	-0.796760	0.466148	-0.075886
H91	H	-0.946496	-0.233690	0.436810
O92	O	-0.900605	0.119720	-0.000094
C93	C	-0.896772	0.065096	-0.082078
H94	H	-0.942481	0.099212	-0.139383
H95	H	-0.824737	0.054677	-0.109612
H96	H	-0.919996	-0.002767	-0.063537
H97	H	-0.347419	0.028593	0.000127
H98	H	-1.208874	0.167145	0.000126
O99	O	-1.176562	-0.003745	0.555695
C100	C	-1.230214	0.049835	0.621041
H101	H	-1.193554	0.050908	0.692087
H102	H	-1.243783	0.121245	0.592253
H103	H	-1.296687	0.020680	0.631622
H104	H	-1.166964	-0.013367	0.436808
H105	H	-0.946506	-0.233702	0.563382
O106	O	-1.176532	-0.003736	0.248330
C107	C	-1.230177	0.049841	0.313684
H108	H	-1.193511	0.050907	0.384727
H109	H	-1.243746	0.121253	0.284903
H110	H	-1.296650	0.020687	0.324268
H111	H	-0.946477	-0.233689	0.256010
H112	H	-1.205673	0.336396	0.000110
H113	H	-0.635175	0.023152	0.000120
H114	H	-0.804443	0.019958	0.000093
