data_functionalizedCrystal
_audit_creation_method	'MofGen! by Chris Wilmer'
_symmetry_space_group_name_H-M	'P1'
_symmetry_Int_Tables_number	1
_symmetry_cell_setting	triclinic
loop_
_symmetry_equiv_pos_as_xyz
  x,y,z
_cell_length_a	25.639239
_cell_length_b	18.050591
_cell_length_c	25.639243
_cell_angle_alpha	89.987189
_cell_angle_beta	90.009355
_cell_angle_gamma	89.968232
loop_
_atom_site_label
_atom_site_type_symbol
_atom_site_fract_x
_atom_site_fract_y
_atom_site_fract_z
Zn1	Zn	-0.208359	-1.135156	0.295746
Zn2	Zn	0.291641	-0.635156	0.795746
Zn3	Zn	-0.295764	-1.135069	0.208311
Zn4	Zn	0.204236	-0.635069	0.708311
Zn5	Zn	-0.208334	-1.011000	0.208310
Zn6	Zn	0.291666	-0.511000	0.708310
Zn7	Zn	-0.295755	-1.010901	0.295700
Zn8	Zn	0.204245	-0.510901	0.795700
O9	O	-0.252053	-1.073031	0.252017
O10	O	0.247947	-0.573031	0.752017
O11	O	-0.219968	-1.239069	0.284168
O12	O	0.280032	-0.739069	0.784168
O13	O	-0.284159	-1.118615	0.135146
O14	O	0.215841	-0.618615	0.635146
O15	O	-0.135172	-1.027548	0.219928
O16	O	0.364828	-0.527548	0.719928
O17	O	-0.284184	-1.239005	0.219929
O18	O	0.215816	-0.739005	0.719929
O19	O	-0.135191	-1.118765	0.284167
O20	O	0.364809	-0.618765	0.784167
O21	O	-0.219924	-1.027463	0.135145
O22	O	0.280076	-0.527463	0.635145
O23	O	-0.219916	-0.907062	0.219883
O24	O	0.280084	-0.407062	0.719883
O25	O	-0.284169	-1.027379	0.368872
O26	O	0.215831	-0.527379	0.868872
O27	O	-0.284144	-0.906990	0.284088
O28	O	0.215856	-0.406990	0.784088
O29	O	-0.219960	-1.118669	0.368906
O30	O	0.280040	-0.618669	0.868906
O31	O	-0.368928	-1.118519	0.219884
O32	O	0.131072	-0.618519	0.719884
O33	O	-0.368921	-1.027294	0.284089
O34	O	0.131079	-0.527294	0.784089
C35	C	-0.252027	-0.880079	0.251981
C36	C	0.247973	-0.380079	0.751981
C37	C	-0.252028	-0.797534	0.251978
C38	C	0.247972	-0.297534	0.751978
C39	C	-0.387896	-1.072907	0.251993
C40	C	0.112104	-0.572907	0.751993
C41	C	-0.446010	-1.072921	0.252000
C42	C	0.053990	-0.572921	0.752000
C43	C	-0.217053	-0.598101	0.217136
C44	C	0.282947	-0.098101	0.717136
C45	C	-0.264735	-0.548672	0.204265
C46	C	0.235265	-0.048672	0.704265
C47	C	-0.252038	-0.646403	0.251996
C48	C	0.247962	-0.146403	0.751996
C49	C	-0.204367	-0.548750	0.264859
C50	C	0.295633	-0.048750	0.764859
C51	C	-0.252044	-0.500418	0.252012
C52	C	0.247956	-0.000418	0.752012
C53	C	-0.299746	-0.598062	0.239100
C54	C	0.200254	-0.098062	0.739100
C55	C	-0.239345	-0.598144	0.299716
C56	C	0.260655	-0.098144	0.799716
C57	C	-0.287061	-0.548738	0.286864
C58	C	0.212939	-0.048738	0.786864
C59	C	-0.252034	-0.730502	0.251985
C60	C	0.247966	-0.230502	0.751985
C61	C	-0.252054	-0.416322	0.252023
C62	C	0.247946	0.083678	0.752023
C63	C	-0.806363	-1.120657	0.218643
C64	C	-0.306363	-0.620657	0.718643
C65	C	-0.860968	-1.120685	0.218650
C66	C	-0.360968	-0.620685	0.718650
O67	O	-0.889197	-1.161142	0.190261
O68	O	-0.389197	-0.661142	0.690261
N69	N	-0.888292	-1.073162	0.252052
N70	N	-0.388292	-0.573162	0.752052
C71	C	-0.861009	-1.025612	0.285453
C72	C	-0.361009	-0.525612	0.785453
O73	O	-0.889265	-0.985193	0.313865
O74	O	-0.389265	-0.485193	0.813865
C75	C	-0.806406	-1.025588	0.285448
C76	C	-0.306406	-0.525588	0.785448
C77	C	-0.779084	-1.073109	0.252040
C78	C	-0.279084	-0.573109	0.752040
C79	C	-0.779042	-1.168174	0.185238
C80	C	-0.279042	-0.668174	0.685238
C81	C	-0.724441	-1.168144	0.185230
C82	C	-0.224441	-0.668144	0.685230
C83	C	-0.697162	-1.120597	0.218627
C84	C	-0.197162	-0.620597	0.718627
C85	C	-0.724484	-1.073079	0.252032
C86	C	-0.224484	-0.573079	0.752032
C87	C	-0.779124	-0.978042	0.318851
C88	C	-0.279124	-0.478042	0.818851
C89	C	-0.724517	-0.978022	0.318844
C90	C	-0.224517	-0.478022	0.818844
C91	C	-0.697196	-1.025543	0.285436
C92	C	-0.197196	-0.525543	0.785436
C93	C	-0.642604	-1.025501	0.285422
C94	C	-0.142604	-0.525501	0.785422
N95	N	-0.615280	-1.073024	0.252020
N96	N	-0.115280	-0.573024	0.752020
C97	C	-0.642559	-1.120572	0.218623
C98	C	-0.142559	-0.620572	0.718623
C99	C	-0.975680	-1.025668	0.285461
C100	C	-0.475680	-0.525668	0.785461
C101	C	-1.030282	-1.025688	0.285463
C102	C	-0.530282	-0.525688	0.785463
C103	C	-1.030237	-1.120763	0.218661
C104	C	-0.530237	-0.620763	0.718661
C105	C	-0.975634	-1.120738	0.218656
C106	C	-0.475634	-0.620738	0.718656
C107	C	-0.948356	-1.073191	0.252059
C108	C	-0.448356	-0.573191	0.752059
C109	C	-0.527894	-1.120505	0.218609
C110	C	-0.027894	-0.620505	0.718609
C111	C	-0.473289	-1.120469	0.218603
C112	C	0.026711	-0.620469	0.718603
C113	C	-0.473339	-1.025398	0.285407
C114	C	0.026661	-0.525398	0.785407
C115	C	-0.527939	-1.025431	0.285411
C116	C	-0.027939	-0.525431	0.785411
C117	C	-0.555216	-1.072991	0.252011
C118	C	-0.055216	-0.572991	0.752011
O119	O	-0.614341	-0.985067	0.313797
O120	O	-0.114341	-0.485067	0.813797
O121	O	-0.614297	-1.160991	0.190220
O122	O	-0.114297	-0.660991	0.690220
C123	C	-0.115680	-1.073177	0.252052
C124	C	0.384320	-0.573177	0.752052
C125	C	-0.057566	-1.073239	0.252068
C126	C	0.442434	-0.573239	0.752068
C127	C	-0.252066	-1.073023	0.388390
C128	C	0.247934	-0.573023	0.888390
C129	C	-0.252072	-1.073019	0.446504
C130	C	0.247928	-0.573019	0.946504
C131	C	-0.252071	-0.266737	0.252044
C132	C	0.247929	0.233263	0.752044
C133	C	-0.252055	-0.349283	0.252031
C134	C	0.247945	0.150717	0.752031
C135	C	-0.285491	-1.025489	0.697674
C136	C	0.214509	-0.525489	1.197674
C137	C	-0.285492	-1.025485	0.643070
C138	C	0.214508	-0.525485	1.143070
O139	O	-0.313909	-0.985046	0.614813
O140	O	0.186091	-0.485046	1.114813
N141	N	-0.252064	-1.073017	0.615778
N142	N	0.247936	-0.573017	1.115778
C143	C	-0.218630	-1.120549	0.643093
C144	C	0.281370	-0.620549	1.143093
O145	O	-0.190197	-1.160977	0.614865
O146	O	0.309803	-0.660977	1.114865
C147	C	-0.218627	-1.120548	0.697696
C148	C	0.281373	-0.620548	1.197696
C149	C	-0.252061	-1.073019	0.724985
C150	C	0.247939	-0.573019	1.224985
C151	C	-0.318922	-0.977963	0.724963
C152	C	0.181078	-0.477963	1.224963
C153	C	-0.318922	-0.977967	0.779564
C154	C	0.181078	-0.477967	1.279564
C155	C	-0.285491	-1.025497	0.806875
C156	C	0.214509	-0.525497	1.306875
C157	C	-0.252061	-1.073023	0.779586
C158	C	0.247939	-0.573023	1.279586
C159	C	-0.185191	-1.168076	0.725011
C160	C	0.314809	-0.668076	1.225011
C161	C	-0.185191	-1.168070	0.779618
C162	C	0.314809	-0.668070	1.279618
C163	C	-0.218624	-1.120541	0.806907
C164	C	0.281376	-0.620541	1.306907
C165	C	-0.218630	-1.120558	0.861498
C166	C	0.281370	-0.620558	1.361498
N167	N	-0.252058	-1.073026	0.888790
N168	N	0.247942	-0.573026	1.388790
C169	C	-0.285488	-1.025496	0.861478
C170	C	0.214512	-0.525496	1.361478
C171	C	-0.218638	-1.120547	0.528423
C172	C	0.281362	-0.620547	1.028423
C173	C	-0.218643	-1.120552	0.473820
C174	C	0.281357	-0.620552	0.973820
C175	C	-0.285504	-1.025487	0.473801
C176	C	0.214496	-0.525487	0.973801
C177	C	-0.285501	-1.025486	0.528404
C178	C	0.214499	-0.525486	1.028404
C179	C	-0.252066	-1.073016	0.555714
C180	C	0.247934	-0.573016	1.055714
C181	C	-0.285486	-1.025509	0.976144
C182	C	0.214514	-0.525509	1.476144
C183	C	-0.285485	-1.025520	1.030749
C184	C	0.214515	-0.525520	1.530749
C185	C	-0.218622	-1.120582	1.030764
C186	C	0.281378	-0.620582	1.530764
C187	C	-0.218625	-1.120574	0.976163
C188	C	0.281375	-0.620574	1.476163
C189	C	-0.252059	-1.073032	0.948854
C190	C	0.247941	-0.573032	1.448854
O191	O	-0.190226	-1.160974	0.889789
O192	O	0.309774	-0.660974	1.389789
O193	O	-0.313912	-0.985068	0.889713
O194	O	0.186088	-0.485068	1.389713
C195	C	-0.252054	-1.073038	1.116174
C196	C	0.247946	-0.573038	1.616174
C197	C	-0.252054	-1.073050	1.058060
C198	C	0.247946	-0.573050	1.558060
H199	H	-0.275477	-0.526943	0.163916
H200	H	0.224523	-0.026943	0.663916
C201	C	-0.182291	-1.172191	0.444290
C202	C	0.317709	-0.672191	0.944290
C203	C	-0.153007	-1.213800	0.479902
C204	C	0.346993	-0.713800	0.979902
C205	C	-0.119506	-1.261368	0.452720
C206	C	0.380494	-0.761368	0.952720
H207	H	-0.202235	-1.204594	0.422988
H208	H	0.297765	-0.704594	0.922988
H209	H	-0.159475	-1.143824	0.423001
H210	H	0.340525	-0.643824	0.923001
H211	H	-0.175820	-1.242165	0.501182
H212	H	0.324180	-0.742165	1.001182
H213	H	-0.133052	-1.181416	0.501205
H214	H	0.366948	-0.681416	1.001205
H215	H	-0.096691	-1.233001	0.431432
H216	H	0.403309	-0.733001	0.931432
H217	H	-0.139455	-1.293766	0.431419
H218	H	0.360545	-0.793766	0.931419
H219	H	-0.099630	-1.289600	0.476879
H220	H	0.400370	-0.789600	0.976879
C221	C	-0.355281	-0.926328	0.695411
C222	C	0.144719	-0.426328	1.195411
C223	C	-0.384561	-0.884726	0.731007
C224	C	0.115439	-0.384726	1.231007
C225	C	-0.418071	-0.837161	0.703807
C226	C	0.081929	-0.337161	1.203807
H227	H	-0.335342	-0.893919	0.674103
H228	H	0.164658	-0.393919	1.174103
H229	H	-0.378097	-0.954696	0.674126
H230	H	0.121903	-0.454696	1.174126
H231	H	-0.361748	-0.856360	0.752283
H232	H	0.138252	-0.356360	1.252283
H233	H	-0.404511	-0.917115	0.752316
H234	H	0.095489	-0.417115	1.252316
H235	H	-0.440887	-0.865529	0.682522
H236	H	0.059113	-0.365529	1.182522
H237	H	-0.398128	-0.804757	0.682501
H238	H	0.101872	-0.304757	1.182501
H239	H	-0.437945	-0.808934	0.727955
H240	H	0.062055	-0.308934	1.227955
H241	H	-0.550185	-0.986738	0.312617
H242	H	-0.050185	-0.486738	0.812617
C243	C	-0.150640	-0.519720	0.279327
C244	C	0.349360	-0.019720	0.779327
C245	C	-0.151474	-0.442162	0.279588
C246	C	0.348526	0.057838	0.779588
C247	C	-0.101987	-0.415396	0.292901
C248	C	0.398013	0.084604	0.792901
H249	H	-0.141330	-0.537305	0.312987
H250	H	0.358670	-0.037305	0.812987
H251	H	-0.125814	-0.536579	0.254510
H252	H	0.374186	-0.036579	0.754510
H253	H	-0.176291	-0.425310	0.304404
H254	H	0.323709	0.074690	0.804404
H255	H	-0.160774	-0.424557	0.245933
H256	H	0.339226	0.075443	0.745933
H257	H	-0.077162	-0.432255	0.268085
H258	H	0.422838	0.067745	0.768085
H259	H	-0.092682	-0.432987	0.326561
H260	H	0.407318	0.067013	0.826561
H261	H	-0.102545	-0.362771	0.293076
H262	H	0.397455	0.137229	0.793076
H263	H	-0.312726	-0.986783	0.550619
H264	H	0.187274	-0.486783	1.050619
H265	H	-0.801247	-1.206897	0.158042
H266	H	-0.301247	-0.706897	0.658042
C267	C	-0.321741	-0.973905	0.444047
C268	C	0.178259	-0.473905	0.944047
C269	C	-0.314573	-0.984068	0.390388
C270	C	0.185427	-0.484068	0.890388
C271	C	-0.347938	-0.936560	0.362962
C272	C	0.152062	-0.436560	0.862962
H273	H	-0.356895	-0.984684	0.452926
H274	H	0.143105	-0.484684	0.952926
H275	H	-0.314075	-0.923998	0.452958
H276	H	0.185925	-0.423998	0.952958
H277	H	-0.322243	-1.033963	0.381481
H278	H	0.177757	-0.533963	0.881481
H279	H	-0.279426	-0.973284	0.381494
H280	H	0.220574	-0.473284	0.881494
H281	H	-0.340272	-0.886654	0.371873
H282	H	0.159728	-0.386654	0.871873
H283	H	-0.383090	-0.947343	0.371845
H284	H	0.116910	-0.447343	0.871845
H285	H	-0.343076	-0.943444	0.326552
H286	H	0.156924	-0.443444	0.826552
C287	C	-0.443809	-0.973704	0.321692
C288	C	0.056191	-0.473704	0.821692
C289	C	-0.479419	-0.932081	0.350946
C290	C	0.020581	-0.432081	0.850946
C291	C	-0.452234	-0.884454	0.384377
C292	C	0.047766	-0.384454	0.884377
H293	H	-0.422485	-1.002006	0.344533
H294	H	0.077515	-0.502006	0.844533
H295	H	-0.422542	-0.941318	0.301682
H296	H	0.077458	-0.441318	0.801682
H297	H	-0.500677	-0.964464	0.370955
H298	H	-0.000677	-0.464464	0.870955
H299	H	-0.500744	-0.903764	0.328119
H300	H	-0.000744	-0.403764	0.828119
H301	H	-0.430967	-0.852067	0.364367
H302	H	0.069033	-0.352067	0.864367
H303	H	-0.430911	-0.912762	0.407214
H304	H	0.069089	-0.412762	0.907214
H305	H	-0.476391	-0.856202	0.404226
H306	H	0.023609	-0.356202	0.904226
H307	H	-0.316683	-0.527200	0.316351
H308	H	0.183317	-0.027200	0.816351
H309	H	-0.451045	-1.159166	0.191396
H310	H	0.048955	-0.659166	0.691396
C311	C	-0.557409	-1.172165	0.182286
C312	C	-0.057409	-0.672165	0.682286
C313	C	-0.521786	-1.213753	0.153023
C314	C	-0.021786	-0.713753	0.653023
C315	C	-0.548955	-1.261338	0.119550
C316	C	-0.048955	-0.761338	0.619550
H317	H	-0.578685	-1.204582	0.202250
H318	H	-0.078685	-0.704582	0.702250
H319	H	-0.578722	-1.143812	0.159457
H320	H	-0.078722	-0.643812	0.659457
H321	H	-0.500481	-1.242104	0.175850
H322	H	-0.000481	-0.742104	0.675850
H323	H	-0.500508	-1.181356	0.133048
H324	H	-0.000508	-0.681356	0.633048
H325	H	-0.570268	-1.232985	0.096721
H326	H	-0.070268	-0.732985	0.596721
H327	H	-0.570230	-1.293750	0.139519
H328	H	-0.070230	-0.793750	0.639519
H329	H	-0.524789	-1.289556	0.099688
H330	H	-0.024789	-0.789556	0.599688
C331	C	-0.694714	-1.219788	0.149048
C332	C	-0.194714	-0.719788	0.649048
C333	C	-0.663320	-1.267327	0.178684
C334	C	-0.163320	-0.767327	0.678684
C335	C	-0.635927	-1.314909	0.145371
C336	C	-0.135927	-0.814909	0.645371
H337	H	-0.718726	-1.248180	0.129150
H338	H	-0.218726	-0.748180	0.629150
H339	H	-0.673407	-1.191423	0.126248
H340	H	-0.173407	-0.691423	0.626248
H341	H	-0.684626	-1.295689	0.201475
H342	H	-0.184626	-0.795689	0.701475
H343	H	-0.639299	-1.238956	0.198581
H344	H	-0.139299	-0.738956	0.698581
H345	H	-0.614619	-1.286544	0.122571
H346	H	-0.114619	-0.786544	0.622571
H347	H	-0.659942	-1.343295	0.125474
H348	H	-0.159942	-0.843295	0.625474
H349	H	-0.614619	-1.347164	0.165474
H350	H	-0.114619	-0.847164	0.665474
C351	C	-0.224898	-0.627107	0.353483
C352	C	0.275102	-0.127107	0.853483
C353	C	-0.174923	-0.602183	0.366742
C354	C	0.325077	-0.102183	0.866742
C355	C	-0.161588	-0.628859	0.416265
C356	C	0.338412	-0.128859	0.916265
H357	H	-0.249356	-0.609489	0.378394
H358	H	0.250644	-0.109489	0.878394
H359	H	-0.225286	-0.679735	0.353169
H360	H	0.274714	-0.179735	0.853169
H361	H	-0.174539	-0.549566	0.367061
H362	H	0.325461	-0.049566	0.867061
H363	H	-0.150454	-0.619800	0.341845
H364	H	0.349546	-0.119800	0.841845
H365	H	-0.161976	-0.681487	0.415951
H366	H	0.338024	-0.181487	0.915951
H367	H	-0.186049	-0.611238	0.441172
H368	H	0.313951	-0.111238	0.941172
H369	H	-0.127677	-0.611957	0.425266
H370	H	0.372323	-0.111957	0.925266
C371	C	-0.694873	-0.926521	0.355174
C372	C	-0.194873	-0.426521	0.855174
C373	C	-0.663498	-0.968516	0.388722
C374	C	-0.163498	-0.468516	0.888722
C375	C	-0.636188	-0.921100	0.422200
C376	C	-0.136188	-0.421100	0.922200
H377	H	-0.673556	-0.894159	0.335210
H378	H	-0.173556	-0.394159	0.835210
H379	H	-0.718950	-0.898239	0.375101
H380	H	-0.218950	-0.398239	0.875101
H381	H	-0.639423	-0.996786	0.368798
H382	H	-0.139423	-0.496786	0.868798
H383	H	-0.684802	-1.000877	0.408698
H384	H	-0.184802	-0.500877	0.908698
H385	H	-0.660266	-0.892818	0.442126
H386	H	-0.160266	-0.392818	0.942126
H387	H	-0.614875	-0.888740	0.402231
H388	H	-0.114875	-0.388740	0.902231
H389	H	-0.614902	-0.949587	0.444969
H390	H	-0.114902	-0.449587	0.944969
H391	H	-0.953392	-1.159434	0.191453
H392	H	-0.453392	-0.659434	0.691453
H393	H	-0.191405	-1.159282	0.953943
H394	H	0.308595	-0.659282	1.453943
C395	C	-1.059955	-1.172423	0.182501
C396	C	-0.559955	-0.672423	0.682501
C397	C	-1.113621	-1.162311	0.189690
C398	C	-0.613621	-0.662311	0.689690
C399	C	-1.141014	-1.209917	0.156415
C400	C	-0.641014	-0.709917	0.656415
H401	H	-1.051112	-1.161702	0.147325
H402	H	-0.551112	-0.661702	0.647325
H403	H	-1.050982	-1.222304	0.190237
H404	H	-0.550982	-0.722304	0.690237
H405	H	-1.122590	-1.112442	0.181950
H406	H	-0.622590	-0.612442	0.681950
H407	H	-1.122479	-1.173037	0.224859
H408	H	-0.622479	-0.673037	0.724859
H409	H	-1.132041	-1.259797	0.164151
H410	H	-0.632041	-0.759797	0.664151
H411	H	-1.132167	-1.199192	0.121241
H412	H	-0.632167	-0.699192	0.621241
H413	H	-1.177429	-1.203067	0.161291
H414	H	-0.677429	-0.703067	0.661291
H415	H	-1.052523	-0.986985	0.312662
H416	H	-0.552523	-0.486985	0.812662
H417	H	-0.187501	-0.619775	0.187626
H418	H	0.312499	-0.119775	0.687626
C419	C	-0.946160	-0.973953	0.321744
C420	C	-0.446160	-0.473953	0.821744
C421	C	-0.981782	-0.932331	0.350984
C422	C	-0.481782	-0.432331	0.850984
C423	C	-0.954611	-0.884678	0.384408
C424	C	-0.454611	-0.384678	0.884408
H425	H	-0.924834	-1.002236	0.344594
H426	H	-0.424834	-0.502236	0.844594
H427	H	-0.924897	-0.941567	0.301729
H428	H	-0.424897	-0.441567	0.801729
H429	H	-1.003036	-0.964713	0.370997
H430	H	-0.503036	-0.464713	0.870997
H431	H	-1.003109	-0.904032	0.328148
H432	H	-0.503109	-0.404032	0.828148
H433	H	-0.933347	-0.852292	0.364394
H434	H	-0.433347	-0.352292	0.864394
H435	H	-0.933286	-0.912967	0.407254
H436	H	-0.433286	-0.412967	0.907254
H437	H	-0.978776	-0.856427	0.404248
H438	H	-0.478776	-0.356427	0.904248
H439	H	-0.312712	-0.986816	1.052965
H440	H	0.187288	-0.486816	1.552965
C441	C	-0.355289	-0.926485	0.809210
C442	C	0.144711	-0.426485	1.309210
C443	C	-0.388820	-0.968495	0.840546
C444	C	0.111180	-0.468495	1.340546
C445	C	-0.422337	-0.921093	0.867853
C446	C	0.077663	-0.421093	1.367853
H447	H	-0.335351	-0.894126	0.830553
H448	H	0.164649	-0.394126	1.330553
H449	H	-0.375225	-0.898198	0.785131
H450	H	0.124775	-0.398198	1.285131
H451	H	-0.368886	-0.996770	0.864623
H452	H	0.131114	-0.496770	1.364623
H453	H	-0.408769	-1.000852	0.819217
H454	H	0.091231	-0.500852	1.319217
H455	H	-0.442273	-0.892807	0.843773
H456	H	0.057727	-0.392807	1.343773
H457	H	-0.402395	-0.888737	0.889192
H458	H	0.097605	-0.388737	1.389192
H459	H	-0.445095	-0.949591	0.889114
H460	H	0.054905	-0.449591	1.389114
H461	H	-0.312707	-0.986789	0.953915
H462	H	0.187293	-0.486789	1.453915
C463	C	-0.182273	-1.172038	0.558098
C464	C	0.317727	-0.672038	1.058098
C465	C	-0.148740	-1.130030	0.589432
C466	C	0.351260	-0.630030	1.089432
C467	C	-0.115228	-1.177435	0.616767
C468	C	0.384772	-0.677435	1.116767
H469	H	-0.202213	-1.204393	0.579444
H470	H	0.297787	-0.704393	1.079444
H471	H	-0.162337	-1.200329	0.534035
H472	H	0.337663	-0.700329	1.034035
H473	H	-0.168673	-1.101751	0.613492
H474	H	0.331327	-0.601751	1.113492
H475	H	-0.128788	-1.097677	0.568099
H476	H	0.371212	-0.597677	1.068099
H477	H	-0.095292	-1.205726	0.592705
H478	H	0.404708	-0.705726	1.092705
H479	H	-0.135172	-1.209787	0.638110
H480	H	0.364828	-0.709787	1.138110
H481	H	-0.092468	-1.148939	0.638027
H482	H	0.407532	-0.648939	1.138027
H483	H	-0.157966	-1.206780	0.702801
H484	H	0.342034	-0.706780	1.202801
H485	H	-0.157960	-1.206772	0.801851
H486	H	0.342040	-0.706772	1.301851
H487	H	-0.191405	-1.159282	1.053011
H488	H	0.308595	-0.659282	1.553011
H489	H	-0.801360	-0.939342	0.346053
H490	H	-0.301360	-0.439342	0.846053
H491	H	-0.340075	-0.619633	0.228183
H492	H	0.159925	-0.119633	0.728183
