data_functionalizedCrystal
_audit_creation_method	'MofGen! by Chris Wilmer'
_symmetry_space_group_name_H-M	'P1'
_symmetry_Int_Tables_number	1
_symmetry_cell_setting	triclinic
loop_
_symmetry_equiv_pos_as_xyz
  x,y,z
_cell_length_a	14.519709
_cell_length_b	13.596369
_cell_length_c	9.065218
_cell_angle_alpha	89.986598
_cell_angle_beta	95.651951
_cell_angle_gamma	89.999709
loop_
_atom_site_label
_atom_site_type_symbol
_atom_site_fract_x
_atom_site_fract_y
_atom_site_fract_z
O1	O	1.225285	0.081680	-0.193397
O2	O	0.956974	0.081712	-0.216171
O3	O	1.096675	0.081670	0.009962
O4	O	1.085584	0.081722	-0.419530
O5	O	1.096661	-0.081913	0.009974
O6	O	0.956960	-0.081871	-0.216159
O7	O	1.225270	-0.081903	-0.193385
Zn8	Zn	1.091113	-0.107859	-0.204770
Zn9	Zn	1.091132	0.107668	-0.204786
O10	O	1.085569	-0.081861	-0.419518
C11	C	0.922600	-0.000076	-0.215104
C12	C	0.820195	-0.000065	-0.211923
C13	C	0.445214	-0.000111	-0.200214
C14	C	0.549545	-0.000098	-0.203466
C15	C	0.632701	-0.000087	-0.206068
C16	C	0.737039	-0.000076	-0.209321
N17	N	1.091107	-0.254951	-0.204758
C18	C	1.091130	-0.656242	-0.204788
C19	C	1.091121	-0.544591	-0.204784
C20	C	1.091119	-0.455600	-0.204774
C21	C	1.091109	-0.343942	-0.204769
C22	C	1.259645	-0.000113	-0.194452
C23	C	1.362050	-0.000118	-0.197633
C24	C	1.095602	-0.000125	0.064935
C25	C	1.092415	-0.000138	0.228718
N26	N	1.091145	0.254760	-0.204786
C27	C	1.086642	-0.000090	0.525509
C28	C	1.089830	-0.000152	0.361726
