data_functionalizedCrystal
_audit_creation_method	'MofGen! by Chris Wilmer'
_symmetry_space_group_name_H-M	'P1'
_symmetry_Int_Tables_number	1
_symmetry_cell_setting	triclinic
loop_
_symmetry_equiv_pos_as_xyz
  x,y,z
_cell_length_a	21.395355
_cell_length_b	17.077404
_cell_length_c	17.077402
_cell_angle_alpha	90.020853
_cell_angle_beta	89.981955
_cell_angle_gamma	89.976690
loop_
_atom_site_label
_atom_site_type_symbol
_atom_site_fract_x
_atom_site_fract_y
_atom_site_fract_z
Zn1	Zn	-0.354243	1.200093	-0.312642
Zn2	Zn	-0.020909	1.533426	0.020692
Zn3	Zn	0.312424	1.866760	0.354025
Zn4	Zn	-0.249466	1.199989	-0.443890
Zn5	Zn	0.083867	1.533322	-0.110556
Zn6	Zn	0.417201	1.866655	0.222777
Zn7	Zn	-0.249482	1.068813	-0.312637
Zn8	Zn	0.083852	1.402147	0.020696
Zn9	Zn	0.417185	1.735480	0.354030
Zn10	Zn	-0.354209	1.068793	-0.443865
Zn11	Zn	-0.020875	1.402126	-0.110531
Zn12	Zn	0.312458	1.735459	0.222802
O13	O	-0.301850	1.134422	-0.378258
O14	O	0.031484	1.467755	-0.044925
O15	O	0.364817	1.801089	0.288408
O16	O	-0.340352	1.309926	-0.330064
O17	O	-0.007018	1.643259	0.003269
O18	O	0.326315	1.976593	0.336602
O19	O	-0.161790	1.182553	-0.426487
O20	O	0.171543	1.515886	-0.093154
O21	O	0.504876	1.849220	0.240180
O22	O	-0.263399	1.086280	-0.202791
O23	O	0.069934	1.419614	0.130543
O24	O	0.403267	1.752947	0.463876
O25	O	-0.263373	1.309849	-0.426492
O26	O	0.069961	1.643183	-0.093158
O27	O	0.403294	1.976516	0.240175
O28	O	-0.340367	1.182731	-0.202794
O29	O	-0.007033	1.516064	0.130539
O30	O	0.326300	1.849397	0.463873
O31	O	-0.161802	1.086179	-0.330057
O32	O	0.171532	1.419512	0.003277
O33	O	0.504865	1.752846	0.336610
O34	O	-0.263366	0.958964	-0.330032
O35	O	0.069967	1.292297	0.003301
O36	O	0.403300	1.625630	0.336634
O37	O	-0.441891	1.086245	-0.426449
O38	O	-0.108558	1.419578	-0.093116
O39	O	0.224776	1.752912	0.240218
O40	O	-0.340309	0.958949	-0.426445
O41	O	-0.006975	1.292282	-0.093111
O42	O	0.326358	1.625615	0.240222
O43	O	-0.441916	1.182711	-0.330040
O44	O	-0.108583	1.516044	0.003293
O45	O	0.224751	1.849377	0.336627
O46	O	-0.263340	1.182533	-0.553733
O47	O	0.069994	1.515866	-0.220400
O48	O	0.403327	1.849200	0.112933
O49	O	-0.340293	1.086144	-0.553715
O50	O	-0.006960	1.419477	-0.220382
O51	O	0.326373	1.752811	0.112952
C52	C	-0.301836	0.930474	-0.378236
C53	C	0.031498	1.263807	-0.044903
C54	C	0.364831	1.597141	0.288431
C55	C	-0.301845	0.843224	-0.378245
C56	C	0.031489	1.176558	-0.044912
C57	C	0.364822	1.509891	0.288421
C58	C	-0.341989	0.802275	-0.328125
C59	C	-0.008655	1.135608	0.005208
C60	C	0.324678	1.468941	0.338542
C61	C	-0.341992	0.720294	-0.328130
C62	C	-0.008658	1.053628	0.005203
C63	C	0.324675	1.386961	0.338537
C64	C	-0.301853	0.679265	-0.378260
C65	C	0.031480	1.012598	-0.044927
C66	C	0.364814	1.345932	0.288407
C67	C	-0.261705	0.720220	-0.428383
C68	C	0.071629	1.053553	-0.095049
C69	C	0.404962	1.386887	0.238284
C70	C	-0.261699	0.802199	-0.428373
C71	C	0.071634	1.135532	-0.095040
C72	C	0.404968	1.468866	0.238294
C73	C	-0.261720	0.549350	-0.428400
C74	C	0.071613	0.882683	-0.095067
C75	C	0.404947	1.216017	0.238266
C76	C	-0.261726	0.467365	-0.428411
C77	C	0.071607	0.800699	-0.095078
C78	C	0.404940	1.134032	0.238255
C79	C	-0.342013	0.467445	-0.328157
C80	C	-0.008679	0.800779	0.005176
C81	C	0.324654	1.134112	0.338509
C82	C	-0.342007	0.549424	-0.328148
C83	C	-0.008674	0.882758	0.005186
C84	C	0.324660	1.216091	0.338519
C85	C	-0.301859	0.590374	-0.378272
C86	C	0.031474	0.923707	-0.044938
C87	C	0.364807	1.257041	0.288395
C88	C	-0.465273	1.134487	-0.378242
C89	C	-0.131940	1.467820	-0.044909
C90	C	0.201394	1.801154	0.288424
C91	C	-0.534914	1.134515	-0.378236
C92	C	-0.201581	1.467848	-0.044902
C93	C	0.131752	1.801182	0.288431
C94	C	-0.567642	1.184742	-0.328033
C95	C	-0.234308	1.518076	0.005300
C96	C	0.099025	1.851409	0.338633
C97	C	-0.633077	1.184741	-0.328000
C98	C	-0.299744	1.518075	0.005334
C99	C	0.033590	1.851408	0.338667
C100	C	-0.665783	1.134521	-0.378182
C101	C	-0.332449	1.467854	-0.044849
C102	C	0.000884	1.801188	0.288485
C103	C	-0.633048	1.084284	-0.428388
C104	C	-0.299714	1.417617	-0.095055
C105	C	0.033619	1.750950	0.238279
C106	C	-0.567613	1.084281	-0.428415
C107	C	-0.234280	1.417614	-0.095081
C108	C	0.099053	1.750947	0.238252
C109	C	-0.769449	1.128297	-0.448862
C110	C	-0.436116	1.461630	-0.115528
C111	C	-0.102782	1.794963	0.217805
C112	C	-0.834882	1.128305	-0.448836
C113	C	-0.501549	1.461638	-0.115503
C114	C	-0.168215	1.794972	0.217831
C115	C	-0.867604	1.134526	-0.378099
C116	C	-0.534270	1.467859	-0.044766
C117	C	-0.200937	1.801192	0.288568
C118	C	-0.834884	1.140754	-0.307385
C119	C	-0.501551	1.474088	0.025948
C120	C	-0.168218	1.807421	0.359281
C121	C	-0.769450	1.140751	-0.307412
C122	C	-0.436117	1.474085	0.025921
C123	C	-0.102783	1.807418	0.359255
C124	C	-0.736735	1.134518	-0.378158
C125	C	-0.403402	1.467852	-0.044825
C126	C	-0.070069	1.801185	0.288508
C127	C	-0.971283	1.184755	-0.327856
C128	C	-0.637950	1.518088	0.005477
C129	C	-0.304617	1.851422	0.338811
C130	C	-1.036720	1.184748	-0.327821
C131	C	-0.703387	1.518082	0.005512
C132	C	-0.370053	1.851415	0.338846
C133	C	-1.036689	1.084295	-0.428216
C134	C	-0.703356	1.417628	-0.094883
C135	C	-0.370023	1.750961	0.238450
C136	C	-0.971254	1.084297	-0.428244
C137	C	-0.637921	1.417631	-0.094911
C138	C	-0.304587	1.750964	0.238422
C139	C	-0.938555	1.134531	-0.378065
C140	C	-0.605222	1.467865	-0.044732
C141	C	-0.271888	1.801198	0.288601
C142	C	-0.139062	1.134402	-0.378217
C143	C	0.194271	1.467736	-0.044884
C144	C	0.527604	1.801069	0.288449
C145	C	-0.069421	1.134527	-0.378003
C146	C	0.263912	1.467860	-0.044670
C147	C	0.597245	1.801193	0.288664
C148	C	-0.301825	1.134346	-0.582206
C149	C	0.031509	1.467679	-0.248873
C150	C	0.364842	1.801013	0.084461
C151	C	-0.301835	1.134386	-0.669456
C152	C	0.031498	1.467719	-0.336123
C153	C	0.364832	1.801052	-0.002789
C154	C	-0.301864	1.339166	-0.378281
C155	C	0.031469	1.672499	-0.044948
C156	C	0.364802	2.005833	0.288386
C157	C	-0.301870	1.426416	-0.378291
C158	C	0.031463	1.759749	-0.044958
C159	C	0.364796	2.093083	0.288376
C160	C	-0.261808	1.184627	-0.710429
C161	C	0.071525	1.517960	-0.377096
C162	C	0.404858	1.851293	-0.043763
C163	C	-0.261824	1.184665	-0.792410
C164	C	0.071509	1.517998	-0.459077
C165	C	0.404843	1.851332	-0.125743
C166	C	-0.301864	1.134458	-0.833415
C167	C	0.031469	1.467791	-0.500082
C168	C	0.364802	1.801124	-0.166749
C169	C	-0.341896	1.084214	-0.792436
C170	C	-0.008562	1.417548	-0.459103
C171	C	0.324771	1.750881	-0.125769
C172	C	-0.341882	1.084181	-0.710457
C173	C	-0.008549	1.417514	-0.377124
C174	C	0.324784	1.750847	-0.043790
C175	C	-0.341919	1.084287	-0.963306
C176	C	-0.008586	1.417621	-0.629973
C177	C	0.324747	1.750954	-0.296639
C178	C	-0.341932	1.084320	-1.045291
C179	C	-0.008599	1.417653	-0.711957
C180	C	0.324735	1.750986	-0.378624
C181	C	-0.261861	1.184772	-1.045259
C182	C	0.071472	1.518105	-0.711926
C183	C	0.404805	1.851438	-0.378592
C184	C	-0.261848	1.184738	-0.963280
C185	C	0.071485	1.518071	-0.629947
C186	C	0.404819	1.851404	-0.296613
C187	C	-0.301879	1.134493	-0.922306
C188	C	0.031455	1.467827	-0.588973
C189	C	0.364788	1.801160	-0.255640
C190	C	-0.301889	1.134519	-0.173514
C191	C	0.031445	1.467853	0.159819
C192	C	0.364778	1.801186	0.493153
C193	C	-0.301905	1.134561	-0.086264
C194	C	0.031428	1.467894	0.247069
C195	C	0.364762	1.801228	0.580403
H196	H	-0.374695	0.582828	-0.287332
H197	H	-0.041362	0.916162	0.046001
H198	H	0.291972	1.249495	0.379335
H199	H	-1.063318	1.043396	-0.469068
H200	H	-0.729984	1.376730	-0.135735
H201	H	-0.396651	1.710063	0.197599
H202	H	-0.374682	0.686957	-0.287318
H203	H	-0.041349	1.020290	0.046015
H204	H	0.291985	1.353623	0.379348
F205	F	-0.219187	1.238060	-0.666796
F206	F	0.114146	1.571394	-0.333462
F207	F	0.447479	1.904727	-0.000129
H208	H	-0.944607	1.043401	-0.469129
H209	H	-0.611274	1.376735	-0.135796
H210	H	-0.277941	1.710068	0.197537
F211	F	-0.384526	1.030813	-0.919701
F212	F	-0.051193	1.364146	-0.586367
F213	F	0.282140	1.697480	-0.253034
H214	H	-0.229230	1.225576	-0.825767
H215	H	0.104104	1.558909	-0.492434
H216	H	0.437437	1.892242	-0.159100
H217	H	-0.944658	1.225654	-0.286993
H218	H	-0.611325	1.558988	0.046340
H219	H	-0.277992	1.892321	0.379674
F220	F	-0.384513	1.030784	-0.836079
F221	F	-0.051180	1.364118	-0.502746
F222	F	0.282154	1.697451	-0.169412
H223	H	-0.229026	0.582689	-0.469215
H224	H	0.104308	0.916022	-0.135881
H225	H	0.437641	1.249355	0.197452
F226	F	-1.071551	1.238219	-0.274395
F227	F	-0.738217	1.571553	0.058939
F228	F	-0.404884	1.904886	0.392272
H229	H	-0.374477	1.043270	-0.677097
H230	H	-0.041144	1.376604	-0.343764
H231	H	0.292190	1.709937	-0.010430
H232	H	-0.742812	1.123021	-0.506449
H233	H	-0.409479	1.456354	-0.173116
H234	H	-0.076146	1.789688	0.160217
F235	F	-0.384713	0.845934	-0.274772
F236	F	-0.051380	1.179267	0.058561
F237	F	0.281953	1.512601	0.391894
H238	H	-0.229020	0.686807	-0.469196
H239	H	0.104313	1.020141	-0.135862
H240	H	0.437647	1.353474	0.197471
F241	F	-0.667915	1.238190	-0.274552
F242	F	-0.334582	1.571523	0.058781
F243	F	-0.001248	1.904856	0.392114
F244	F	-0.532782	1.030819	-0.481849
F245	F	-0.199448	1.364152	-0.148516
F246	F	0.133885	1.697486	0.184817
F247	F	-0.734630	1.147376	-0.232156
F248	F	-0.401297	1.480710	0.101178
F249	F	-0.067964	1.814043	0.434511
F250	F	-0.667856	1.030833	-0.481793
F251	F	-0.334523	1.364167	-0.148460
F252	F	-0.001190	1.697500	0.184873
F253	F	-0.869698	1.121683	-0.524096
F254	F	-0.536365	1.455016	-0.190762
F255	F	-0.203031	1.788350	0.142571
H256	H	-0.229009	0.835539	-0.469186
H257	H	0.104324	1.168872	-0.135852
H258	H	0.437658	1.502206	0.197481
F259	F	-0.384740	0.423863	-0.274810
F260	F	-0.051407	0.757196	0.058524
F261	F	0.281927	1.090530	0.391857
F262	F	-0.219232	1.238173	-0.919641
F263	F	0.114101	1.571506	-0.586307
F264	F	0.447435	1.904840	-0.252974
F265	F	-0.384541	1.030877	-1.088930
F266	F	-0.051208	1.364210	-0.755597
F267	F	0.282125	1.697543	-0.422263
H268	H	-0.229042	0.433961	-0.469232
H269	H	0.104291	0.767295	-0.135899
H270	H	0.437624	1.100628	0.197435
F271	F	-0.219253	1.238240	-1.088867
F272	F	0.114081	1.571574	-0.755533
F273	F	0.447414	1.904907	-0.422200
H274	H	-0.861525	1.145821	-0.249785
H275	H	-0.528192	1.479155	0.083549
H276	H	-0.194858	1.812488	0.416882
F277	F	-0.532845	1.238203	-0.274625
F278	F	-0.199511	1.571536	0.058709
F279	F	0.133822	1.904870	0.392042
