data_functionalizedCrystal
_audit_creation_method	'MofGen! by Chris Wilmer'
_symmetry_space_group_name_H-M	'P1'
_symmetry_Int_Tables_number	1
_symmetry_cell_setting	triclinic
loop_
_symmetry_equiv_pos_as_xyz
  x,y,z
_cell_length_a	23.532407
_cell_length_b	15.944551
_cell_length_c	15.021413
_cell_angle_alpha	90.002826
_cell_angle_beta	89.999348
_cell_angle_gamma	96.826292
loop_
_atom_site_label
_atom_site_type_symbol
_atom_site_fract_x
_atom_site_fract_y
_atom_site_fract_z
O1	O	0.073442	-1.113910	-0.073949
O2	O	0.573442	-0.613910	0.426051
O3	O	0.082498	-0.869284	-0.073972
O4	O	0.582498	-0.369284	0.426028
O5	O	-0.004933	-0.998974	-0.073943
O6	O	0.495067	-0.498974	0.426057
O7	O	0.160873	-0.984220	-0.073977
O8	O	0.660873	-0.484220	0.426023
O9	O	-0.004921	-0.998953	0.074121
O10	O	0.495079	-0.498953	0.574121
O11	O	0.082510	-0.869263	0.074092
O12	O	0.582510	-0.369263	0.574092
O13	O	0.073455	-1.113889	0.074116
O14	O	0.573455	-0.613889	0.574116
Zn15	Zn	0.077985	-0.991573	0.097612
Zn16	Zn	0.577985	-0.491573	0.597612
Zn17	Zn	0.077968	-0.991600	-0.097469
Zn18	Zn	0.577968	-0.491600	0.402531
O19	O	0.160886	-0.984200	0.074087
O20	O	0.660886	-0.484200	0.574087
C21	C	0.082128	-0.837983	0.000057
C22	C	0.582128	-0.337983	0.500057
C23	C	0.081001	-0.744746	0.000049
C24	C	0.581001	-0.244746	0.500049
C25	C	-0.026144	-0.998588	0.000091
C26	C	0.473856	-0.498588	0.500091
C27	C	-0.089366	-0.997458	0.000098
C28	C	0.410634	-0.497458	0.500098
N29	N	0.077995	-0.991561	0.230750
N30	N	0.577995	-0.491561	0.730750
C31	C	-0.488199	-1.067121	0.000056
C32	C	0.011801	-0.567121	0.500056
C33	C	-0.547603	-1.066072	0.000049
C34	C	-0.047603	-0.566072	0.500049
O35	O	-0.584098	-1.130650	0.000022
O36	O	-0.084098	-0.630650	0.500022
N37	N	-0.570528	-0.988971	0.000042
N38	N	-0.070528	-0.488971	0.500042
C39	C	-0.534045	-0.912915	0.000033
C40	C	-0.034045	-0.412915	0.500033
O41	O	-0.558999	-0.847239	0.000026
O42	O	-0.058999	-0.347239	0.500026
C43	C	-0.474642	-0.913965	0.000034
C44	C	0.025358	-0.413965	0.500034
C45	C	-0.451721	-0.991071	0.000049
C46	C	0.048279	-0.491071	0.500049
C47	C	-0.465277	-1.144220	0.000070
C48	C	0.034723	-0.644220	0.500070
C49	C	-0.405877	-1.145269	0.000079
C50	C	0.094123	-0.645269	0.500079
C51	C	-0.369399	-1.069219	0.000073
C52	C	0.130601	-0.569219	0.500073
C53	C	-0.392320	-0.992120	0.000058
C54	C	0.107680	-0.492120	0.500058
C55	C	-0.438160	-0.837910	0.000018
C56	C	0.061840	-0.337910	0.500018
C57	C	-0.378754	-0.838967	0.000018
C58	C	0.121246	-0.338967	0.500018
C59	C	-0.355832	-0.916072	0.000034
C60	C	0.144168	-0.416072	0.500034
C61	C	-0.296442	-0.917118	0.000060
C62	C	0.203558	-0.417118	0.500060
N63	N	-0.273517	-0.994219	0.000067
N64	N	0.226483	-0.494219	0.500067
C65	C	-0.309995	-1.070269	0.000073
C66	C	0.190005	-0.570269	0.500073
C67	C	-0.658796	-0.910716	0.000031
C68	C	-0.158796	-0.410716	0.500031
C69	C	-0.718198	-0.909664	0.000037
C70	C	-0.218198	-0.409664	0.500037
C71	C	-0.731752	-1.062821	0.000050
C72	C	-0.231752	-0.562821	0.500050
C73	C	-0.672349	-1.063872	0.000051
C74	C	-0.172349	-0.563872	0.500051
C75	C	-0.635871	-0.987816	0.000037
C76	C	-0.135871	-0.487816	0.500037
C77	C	-0.185250	-1.072466	0.000092
C78	C	0.314750	-0.572466	0.500092
C79	C	-0.125844	-1.073508	0.000104
C80	C	0.374156	-0.573508	0.500104
C81	C	-0.112295	-0.920352	0.000085
C82	C	0.387705	-0.420352	0.500085
C83	C	-0.171696	-0.919309	0.000078
C84	C	0.328304	-0.419309	0.500078
C85	C	-0.208173	-0.995373	0.000078
C86	C	0.291827	-0.495373	0.500078
O87	O	-0.259913	-0.852574	0.000083
O88	O	0.240087	-0.352574	0.500083
O89	O	-0.285033	-1.135935	0.000069
O90	O	0.214967	-0.635935	0.500069
C91	C	0.182097	-0.984586	0.000051
C92	C	0.682097	-0.484586	0.500051
C93	C	0.245318	-0.985715	0.000038
C94	C	0.745318	-0.485715	0.500038
C95	C	0.073824	-1.145190	0.000084
C96	C	0.573824	-0.645190	0.500084
C97	C	0.074951	-1.238427	0.000087
C98	C	0.574951	-0.738427	0.500087
C99	C	0.024113	-0.530369	0.000078
C100	C	0.524113	-0.030369	0.500078
C101	C	0.050524	-0.469137	-0.072931
C102	C	0.550524	0.030863	0.427069
C103	C	0.078962	-0.574038	0.000060
C104	C	0.578962	-0.074038	0.500060
C105	C	0.050549	-0.469138	0.073049
C106	C	0.550549	0.030862	0.573049
C107	C	0.076989	-0.409142	0.000075
C108	C	0.576989	0.090858	0.500075
C109	C	0.105388	-0.514033	-0.073009
C110	C	0.605388	-0.014033	0.426991
C111	C	0.105405	-0.514041	0.073036
C112	C	0.605405	-0.014041	0.573036
C113	C	0.131856	-0.452826	0.000010
C114	C	0.631856	0.047174	0.500010
C115	C	0.080097	-0.669030	0.000051
C116	C	0.580097	-0.169030	0.500051
C117	C	0.075858	-0.314150	0.000077
C118	C	0.575858	0.185850	0.500077
N119	N	0.077953	-0.991619	-0.230606
N120	N	0.577953	-0.491619	0.269394
C121	C	0.118404	-0.931583	0.470420
C122	C	0.618404	-0.431583	0.970420
C123	C	0.129461	-1.007390	0.529759
C124	C	0.629461	-0.507390	1.029759
C125	C	0.077981	-0.991582	0.412357
C126	C	0.577981	-0.491582	0.912357
C127	C	0.066938	-0.915796	0.529760
C128	C	0.566938	-0.415796	1.029760
C129	C	0.077969	-0.991596	0.587781
C130	C	0.577969	-0.491596	1.087781
C131	C	0.089063	-1.067428	0.470389
C132	C	0.589063	-0.567428	0.970389
C133	C	0.026518	-0.975783	0.470385
C134	C	0.526518	-0.475783	0.970385
C135	C	0.037552	-1.051645	0.529697
C136	C	0.537552	-0.551645	1.029697
C137	C	0.077990	-0.991573	0.311300
C138	C	0.577990	-0.491573	0.811300
C139	C	0.077960	-0.991614	0.688836
C140	C	0.577960	-0.491614	1.188836
H141	H	-0.107185	-1.136300	0.000119
H142	H	0.392815	-0.636300	0.500119
H143	H	-0.214943	-1.134405	0.000089
H144	H	0.285057	-0.634405	0.500089
C145	C	-0.618675	-0.827043	0.000027
C146	C	-0.118675	-0.327043	0.500027
N147	N	-0.588459	-0.764020	0.000024
N148	N	-0.088459	-0.264020	0.500024
C149	C	-0.037391	-0.575887	-0.000006
C150	C	0.462609	-0.075887	0.499994
N151	N	-0.083714	-0.610173	-0.000075
N152	N	0.416286	-0.110173	0.499925
C153	C	0.019176	-0.442237	-0.156300
C154	C	0.519176	0.057763	0.343700
N155	N	-0.004440	-0.421979	-0.219091
N156	N	0.495560	0.078021	0.280909
C157	C	-0.380672	-1.230092	0.000087
C158	C	0.119328	-0.730092	0.500087
N159	N	-0.361691	-1.293985	0.000089
N160	N	0.138309	-0.793985	0.500089
C161	C	-0.743404	-0.824843	0.000030
C162	C	-0.243404	-0.324843	0.500030
N163	N	-0.762387	-0.760952	0.000020
N164	N	-0.262387	-0.260952	0.500020
H165	H	-0.494973	-1.206153	0.000072
H166	H	0.005027	-0.706153	0.500072
H167	H	-0.349056	-0.777032	0.000006
H168	H	0.150944	-0.277032	0.500006
H169	H	0.128564	-0.533834	-0.134800
H170	H	0.628564	-0.033834	0.365200
H171	H	0.177423	-0.419284	-0.000040
H172	H	0.677423	0.080716	0.499960
C173	C	0.136724	-0.540971	0.156415
C174	C	0.636724	-0.040971	0.656415
N175	N	0.160309	-0.561258	0.219223
N176	N	0.660309	-0.061258	0.719223
C177	C	0.019203	-0.442257	0.156433
C178	C	0.519203	0.057743	0.656433
N179	N	-0.004410	-0.422014	0.219235
N180	N	0.495590	0.077986	0.719235
H181	H	0.152617	-0.880895	0.444393
H182	H	0.652617	-0.380895	0.944393
H183	H	0.172977	-1.020766	0.555839
H184	H	0.672977	-0.520766	1.055839
H185	H	-0.190359	-0.856524	0.000090
H186	H	0.309641	-0.356524	0.500090
H187	H	0.098450	-1.131539	0.444420
H188	H	0.598450	-0.631539	0.944420
H189	H	-0.653691	-1.126658	0.000063
H190	H	-0.153691	-0.626658	0.500063
H191	H	0.003360	-1.102446	0.555561
H192	H	0.503360	-0.602446	1.055561
H193	H	-0.016985	-0.962383	0.444284
H194	H	0.483015	-0.462383	0.944284
H195	H	0.057603	-0.851698	0.555841
H196	H	0.557603	-0.351698	1.055841
H197	H	-0.456812	-0.775123	0.000000
H198	H	0.043188	-0.275123	0.500000
C199	C	-0.771890	-1.146479	0.000048
C200	C	-0.271890	-0.646479	0.500048
N201	N	-0.802123	-1.209485	0.000045
N202	N	-0.302123	-0.709485	0.500045
C203	C	-0.072158	-0.836701	0.000072
C204	C	0.427842	-0.336701	0.500072
N205	N	-0.041925	-0.773694	0.000054
N206	N	0.458075	-0.273694	0.500054
