data_functionalizedCrystal
_audit_creation_method	'MofGen! by Chris Wilmer'
_symmetry_space_group_name_H-M	'P1'
_symmetry_Int_Tables_number	1
_symmetry_cell_setting	triclinic
loop_
_symmetry_equiv_pos_as_xyz
  x,y,z
_cell_length_a	12.594517
_cell_length_b	18.101395
_cell_length_c	18.101389
_cell_angle_alpha	90.016841
_cell_angle_beta	89.990535
_cell_angle_gamma	89.973009
loop_
_atom_site_label
_atom_site_type_symbol
_atom_site_fract_x
_atom_site_fract_y
_atom_site_fract_z
Zn1	Zn	1.627134	0.294989	-0.418553
Zn2	Zn	1.626985	0.418814	-0.294715
Zn3	Zn	1.449144	0.294982	-0.294746
Zn4	Zn	1.449074	0.418784	-0.418536
O5	O	1.538084	0.356892	-0.356638
O6	O	1.776060	0.311430	-0.402120
O7	O	1.603361	0.402398	-0.191086
O8	O	1.472847	0.191350	-0.311190
O9	O	1.775950	0.402404	-0.311137
O10	O	1.603616	0.191355	-0.402150
O11	O	1.472702	0.311419	-0.191109
O12	O	1.300189	0.311389	-0.311173
O13	O	1.472727	0.402352	-0.522171
O14	O	1.300137	0.402346	-0.402121
O15	O	1.603547	0.311400	-0.522184
O16	O	1.603292	0.522443	-0.311120
O17	O	1.472582	0.522421	-0.402090
C18	C	1.261543	0.356864	-0.356649
C19	C	1.143238	0.356870	-0.356671
C20	C	1.073987	0.406438	-0.406042
C21	C	1.003203	0.338920	-0.424259
C22	C	1.003223	0.424444	-0.338438
C23	C	1.074012	0.289316	-0.374923
C24	C	1.074038	0.374885	-0.289071
C25	C	1.003286	0.307321	-0.307262
C26	C	1.537942	0.549303	-0.356616
C27	C	1.537978	0.631617	-0.356631
C28	C	1.538146	0.356874	-0.549800
C29	C	1.538172	0.356866	-0.632114
C30	C	1.815705	0.356921	-0.356627
C31	C	1.934011	0.356933	-0.356622
C32	C	1.538256	0.163730	-0.356676
C33	C	1.538330	0.081416	-0.356692
C34	C	1.538212	0.930708	-0.356671
C35	C	1.456163	0.899399	-0.414049
C36	C	1.455773	0.813781	-0.413870
C37	C	1.538096	0.782325	-0.356652
C38	C	1.507728	0.813461	-0.278606
C39	C	1.507199	0.899106	-0.278949
C40	C	1.650808	0.899061	-0.376652
C41	C	1.650146	0.813410	-0.378364
C42	C	1.538032	0.698466	-0.356636
C43	C	1.538273	1.014567	-0.356682
C44	C	1.538234	0.356727	-0.931205
C45	C	1.455642	0.413769	-0.899872
C46	C	1.455865	0.414034	-0.814253
C47	C	1.538202	0.356796	-0.782822
C48	C	1.650344	0.377985	-0.813908
C49	C	1.649884	0.378360	-0.899553
C50	C	1.509660	0.278368	-0.899632
C51	C	1.507164	0.278820	-0.813982
C52	C	1.538191	0.356833	-0.698963
C53	C	1.538253	0.356691	-1.015064
C54	C	1.538084	0.356857	-0.164227
C55	C	1.538264	0.356657	-0.081913
H56	H	1.474974	0.919959	-0.472108
H57	H	1.714510	0.791994	-0.339617
H58	H	1.565609	0.793085	-0.234690
O59	O	1.115112	0.461866	-0.461407
H60	H	1.203232	0.461723	-0.460569
O61	O	1.480857	0.785885	-0.490537
H62	H	1.493380	0.833567	-0.528075
H63	H	0.972438	0.265381	-0.265490
H64	H	1.105175	0.390121	-0.231941
H65	H	1.474320	0.471497	-0.921395
O66	O	1.345152	0.396381	-0.927148
H67	H	1.313994	0.444153	-0.958890
O68	O	1.480716	0.490989	-0.787108
H69	H	1.492655	0.528155	-0.835154
O70	O	1.345228	0.786718	-0.396322
H71	H	1.289054	0.807380	-0.438808
H72	H	0.972123	0.481563	-0.323039
O73	O	1.346275	0.927968	-0.396741
H74	H	1.349842	0.964368	-0.347448
H75	H	1.424892	0.919142	-0.262022
H76	H	1.711937	0.919306	-0.334861
H77	H	0.972089	0.323705	-0.481406
H78	H	1.674987	0.434658	-0.792463
O79	O	1.681952	0.454236	-0.926030
H80	H	1.697638	0.490317	-0.877662
O81	O	1.582922	0.926538	-0.220388
H82	H	1.645787	0.960541	-0.246637
O83	O	1.397860	0.257637	-0.787060
H84	H	1.365765	0.302450	-0.751632
H85	H	1.673046	0.793059	-0.435801
O86	O	1.399855	0.785135	-0.255775
H87	H	1.367697	0.748892	-0.299884
O88	O	1.734172	0.325732	-0.927020
H89	H	1.775088	0.300131	-0.879128
H90	H	1.678495	0.920620	-0.432592
O91	O	1.345726	0.396446	-0.786403
H92	H	1.291820	0.387680	-0.834107
H93	H	1.713534	0.337744	-0.793550
H94	H	1.104977	0.232180	-0.390389
H95	H	1.429307	0.259063	-0.921232
O96	O	1.581035	0.219529	-0.785654
H97	H	1.641299	0.244825	-0.748763
H98	H	1.569816	0.235868	-0.919896
