data_functionalizedCrystal
_audit_creation_method	'MofGen! by Chris Wilmer'
_symmetry_space_group_name_H-M	'P1'
_symmetry_Int_Tables_number	1
_symmetry_cell_setting	triclinic
loop_
_symmetry_equiv_pos_as_xyz
  x,y,z
_cell_length_a	15.298068
_cell_length_b	17.637651
_cell_length_c	15.296720
_cell_angle_alpha	86.527926
_cell_angle_beta	88.354818
_cell_angle_gamma	108.513639
loop_
_atom_site_label
_atom_site_type_symbol
_atom_site_fract_x
_atom_site_fract_y
_atom_site_fract_z
Zn1	Zn	1.210368	-0.232445	-0.666218
Zn2	Zn	1.216213	-0.337385	-0.492144
Zn3	Zn	1.090653	-0.224852	-0.496382
Zn4	Zn	1.036337	-0.381189	-0.601644
O5	O	1.138393	-0.293968	-0.564097
O6	O	1.336524	-0.231210	-0.668377
O7	O	1.224735	-0.300948	-0.375803
O8	O	1.126819	-0.116514	-0.547709
O9	O	1.340818	-0.308310	-0.540486
O10	O	1.214773	-0.122092	-0.672487
O11	O	1.132486	-0.218270	-0.378916
O12	O	0.958068	-0.260745	-0.485095
O13	O	1.034245	-0.382967	-0.727113
O14	O	0.918162	-0.375605	-0.562430
O15	O	1.162105	-0.273685	-0.774556
O16	O	1.172066	-0.452541	-0.477871
O17	O	1.039912	-0.484724	-0.558321
C18	C	0.905605	-0.322105	-0.517216
C19	C	0.806010	-0.334165	-0.497174
C20	C	0.516196	-0.207970	-0.707285
C21	C	0.609770	-0.196642	-0.726118
C22	C	0.658834	-0.231022	-0.668884
C23	C	0.614316	-0.276731	-0.592813
C24	C	0.520732	-0.288066	-0.573980
C25	C	0.663370	-0.311117	-0.535580
C26	C	0.618852	-0.356827	-0.459508
C27	C	0.525277	-0.368159	-0.440679
C28	C	0.476212	-0.333779	-0.497914
C29	C	0.756954	-0.299783	-0.554412
C30	C	0.761490	-0.379879	-0.421108
C31	C	0.667917	-0.391207	-0.402274
C32	C	1.100750	-0.496985	-0.510652
C33	C	1.084722	-0.583832	-0.487832
C34	C	1.260680	-0.883765	-0.737835
C35	C	1.245594	-0.965372	-0.716372
C36	C	1.154106	-0.959642	-0.586353
C37	C	1.169188	-0.878033	-0.607803
C38	C	1.222475	-0.840101	-0.683545
C39	C	1.130983	-0.834368	-0.553513
C40	C	1.146060	-0.752767	-0.574964
C41	C	1.199342	-0.714830	-0.650704
C42	C	1.237552	-0.758499	-0.704996
C43	C	1.077691	-0.872303	-0.477774
C44	C	1.039486	-0.828639	-0.423484
C45	C	1.054568	-0.747035	-0.444931
C46	C	1.107850	-0.709097	-0.520672
C47	C	1.016358	-0.703365	-0.390639
C48	C	1.031435	-0.621763	-0.412090
C49	C	1.122927	-0.627496	-0.542122
C50	C	1.372089	-0.265721	-0.611162
C51	C	1.471677	-0.253684	-0.631218
C52	C	1.091464	-0.334059	-0.781994
C53	C	1.071466	-0.351144	-0.874848
C54	C	1.176203	-0.090158	-0.617774
C55	C	1.192316	-0.003307	-0.640648
C56	C	1.281381	-0.171719	-1.235392
C57	C	1.300176	-0.155668	-1.148152
C58	C	1.243000	-0.204535	-1.079822
C59	C	1.167026	-0.269457	-1.098741
C60	C	1.148234	-0.285514	-1.185990
C61	C	1.109853	-0.318330	-1.030419
C62	C	1.033879	-0.383252	-1.049338
C63	C	1.015090	-0.399306	-1.136579
C64	C	1.072266	-0.350438	-1.204909
C65	C	1.128645	-0.302273	-0.943170
C66	C	0.995498	-0.416068	-0.893768
C67	C	0.976703	-0.432120	-0.981008
C68	C	1.185201	-0.253969	-0.347073
C69	C	1.205413	-0.236643	-0.254312
H70	H	0.489031	-0.405386	-0.378741
Br71	Br	1.195263	-0.576005	-0.644907
H72	H	0.972964	-0.734263	-0.328975
Br73	Br	0.785829	-0.215647	-0.694445
Br74	Br	0.917904	-0.482399	-0.801041
H75	H	0.631657	-0.428425	-0.340336
Br76	Br	0.967159	-0.880127	-0.320701
H77	H	0.801437	-0.407878	-0.374506
Br78	Br	0.349216	-0.349146	-0.472352
H79	H	0.793192	-0.262565	-0.616349
Br80	Br	0.979586	-0.562499	-0.338410
Br81	Br	1.309888	-0.707009	-0.807780
Br82	Br	1.231750	-0.214169	-0.917505
Br83	Br	1.333016	-0.832274	-0.840619
Br84	Br	0.449601	-0.161332	-0.784960
H85	H	1.276694	-1.000924	-0.760596
H86	H	1.258307	-0.191463	-1.008788
Br87	Br	1.403279	-0.067565	-1.122480
Br88	Br	1.081779	-1.011131	-0.483570
Br89	Br	1.358977	-0.105416	-1.328125
Br90	Br	1.046764	-0.372223	-1.323314
H91	H	0.646008	-0.159428	-0.788058
H92	H	1.211617	-0.648384	-0.668167
H93	H	0.914845	-0.484980	-0.996425
H94	H	0.953233	-0.452175	-1.151979
H95	H	1.065407	-0.938751	-0.460318
