data_functionalizedCrystal
_audit_creation_method	'MofGen! by Chris Wilmer'
_symmetry_space_group_name_H-M	'P1'
_symmetry_Int_Tables_number	1
_symmetry_cell_setting	triclinic
loop_
_symmetry_equiv_pos_as_xyz
  x,y,z
_cell_length_a	23.096457
_cell_length_b	23.096457
_cell_length_c	19.377308
_cell_angle_alpha	90.003409
_cell_angle_beta	107.887211
_cell_angle_gamma	59.998275
loop_
_atom_site_label
_atom_site_type_symbol
_atom_site_fract_x
_atom_site_fract_y
_atom_site_fract_z
Zr1	Zr	0.610277	0.569496	0.079097
O2	O	0.702497	0.491332	0.175320
O3	O	0.498245	0.593459	0.049601
O4	O	0.581707	0.612124	0.175327
O5	O	0.648480	0.457941	-0.049583
O6	O	0.581707	0.707405	0.175330
O7	O	0.619035	0.472667	0.049594
O8	O	0.432409	0.674016	-0.049571
O9	O	0.797778	0.491330	0.175318
O10	O	0.551663	0.674784	0.037022
O11	O	0.573638	0.592687	-0.036995
O12	O	0.671904	0.614663	0.111031
O13	O	0.693878	0.532566	0.037014
Zr14	Zr	0.657240	0.697972	-0.079073
Zr15	Zr	0.610278	0.721458	0.079102
Zr16	Zr	0.657239	0.546010	-0.079079
Zr17	Zr	0.762240	0.569492	0.079094
Zr18	Zr	0.505277	0.697975	-0.079070
O19	O	0.769272	0.674008	-0.049577
O20	O	0.702498	0.707402	0.175328
O21	O	0.769271	0.457938	-0.049585
O22	O	0.565020	0.776135	-0.175296
O23	O	0.498246	0.809530	0.049609
O24	O	0.565019	0.560065	-0.175304
O25	O	0.619037	0.809527	0.049607
O26	O	0.685810	0.655343	-0.175303
O27	O	0.685810	0.560062	-0.175307
O28	O	0.648482	0.794801	-0.049570
O29	O	0.797779	0.612119	0.175322
O30	O	0.469738	0.655348	-0.175299
O31	O	0.469738	0.776138	-0.175294
O32	O	0.432410	0.794806	-0.049566
O33	O	0.835107	0.472661	0.049589
O34	O	0.835108	0.593451	0.049594
O35	O	0.595613	0.652804	-0.111007
O36	O	0.573639	0.734901	-0.036990
O37	O	0.693879	0.674780	0.037019
O38	O	0.715853	0.592684	-0.036998
C39	C	0.443675	0.633738	0.000015
C40	C	0.379163	0.633740	0.000017
C41	C	-0.092821	0.676587	0.038636
C42	C	-0.032203	0.676586	0.038642
C43	C	0.009581	0.633733	0.000006
C44	C	-0.009248	0.590866	-0.038624
C45	C	-0.069861	0.590863	-0.038624
N46	N	0.090642	0.629550	-0.062868
N47	N	0.148220	0.629557	-0.062867
C48	C	0.192207	0.633739	0.000004
N49	N	0.176433	0.637926	0.062873
N50	N	0.118847	0.637923	0.062871
C51	C	0.075307	0.633732	0.000002
C52	C	0.276761	0.676599	0.038644
C53	C	0.337383	0.676594	0.038652
C54	C	0.360333	0.590877	-0.038622
C55	C	0.299715	0.590879	-0.038623
C56	C	0.257931	0.633744	0.000008
C57	C	0.633757	0.443652	0.000005
C58	C	0.633757	0.379140	0.000002
C59	C	0.570993	0.380218	-0.038623
C60	C	0.570993	0.319602	-0.038626
C61	C	0.633757	0.257911	0.000010
C62	C	0.696530	0.256836	0.038637
C63	C	0.696530	0.317451	0.038633
N64	N	0.670345	0.144451	0.062890
N65	N	0.670340	0.086871	0.062892
C66	C	0.633760	0.075280	0.000023
N67	N	0.597173	0.123450	-0.062847
N68	N	0.597175	0.181036	-0.062848
C69	C	0.633763	0.192181	0.000018
C70	C	0.570992	0.010633	-0.038609
C71	C	0.570995	-0.049986	-0.038614
C72	C	0.696532	-0.112751	0.038656
C73	C	0.696529	-0.052133	0.038654
C74	C	0.633756	0.009557	0.000023
C75	C	0.823842	0.633729	0.000008
C76	C	0.888354	0.633728	0.000007
C77	C	0.575016	0.663111	0.197865
C78	C	0.555079	0.673082	0.265015
C79	C	0.633759	0.823815	0.000019
C80	C	0.633760	0.888327	0.000021
C81	C	0.803323	0.548954	0.679016
C82	C	0.784573	0.558326	0.742103
C83	C	0.659051	0.621087	0.664834
C84	C	0.677791	0.611718	0.601739
C85	C	0.749928	0.575651	0.608837
C86	C	0.624396	0.638415	0.531560
C87	C	0.643134	0.629049	0.468470
C88	C	0.715268	0.592986	0.475561
C89	C	0.768666	0.566285	0.545747
C90	C	0.552259	0.674486	0.524464
C91	C	0.498864	0.701183	0.454284
C92	C	0.517602	0.691813	0.391193
C93	C	0.589735	0.655750	0.398283
C94	C	0.464203	0.718514	0.321006
C95	C	0.482942	0.709148	0.257917
C96	C	0.608474	0.646384	0.335194
C97	C	0.692505	0.604357	0.802160
C98	C	0.712451	0.594387	0.735017
C99	C	0.443676	0.823820	0.000023
C100	C	0.379164	0.888333	0.000026
C101	C	0.502418	0.604361	-0.197838
C102	C	0.457842	0.594392	-0.264986
C103	C	0.502419	0.794442	-0.197831
C104	C	0.457844	0.848985	-0.264976
C105	C	0.765098	0.473025	0.197854
C106	C	0.809673	0.418482	0.265000
C107	C	0.823841	0.443648	0.000001
C108	C	0.888353	0.379134	-0.000003
C109	C	0.765099	0.663107	0.197861
C110	C	0.809675	0.673076	0.265010
C111	C	0.337396	0.887250	0.038668
C112	C	0.276784	0.947863	0.038686
C113	C	0.257938	1.009559	0.000058
C114	C	0.299713	1.010641	-0.038585
C115	C	0.360327	0.950029	-0.038598
C116	C	0.448382	0.621090	-0.335160
C117	C	0.406509	0.611720	-0.398259
C118	C	0.374092	0.575655	-0.391183
C119	C	0.383556	0.548953	-0.321002
C120	C	0.425433	0.558320	-0.257904
C121	C	0.425440	0.917459	-0.257873
C122	C	0.383563	0.968715	-0.320957
C123	C	0.374087	0.951495	-0.391145
C124	C	0.406496	0.883014	-0.398247
C125	C	0.448376	0.831760	-0.335163
C126	C	0.842084	0.350008	0.257896
C127	C	0.883980	0.298753	0.320981
C128	C	0.893459	0.315972	0.391169
C129	C	0.861046	0.384453	0.398271
C130	C	0.819156	0.435708	0.335187
C131	C	0.930126	0.380219	-0.038638
C132	C	0.990749	0.319608	-0.038639
C133	C	1.009596	0.257912	-0.000009
C134	C	0.967819	0.256830	0.038631
C135	C	0.907200	0.317441	0.038636
C136	C	0.842079	0.709144	0.257910
C137	C	0.883956	0.718524	0.320997
C138	C	0.893433	0.691830	0.391183
C139	C	0.861023	0.655761	0.398281
C140	C	0.819142	0.646386	0.335195
H141	H	0.024777	0.555974	-0.070081
Cl142	Cl	0.830175	0.742709	0.169684
H143	H	0.398774	0.869003	-0.455403
Cl144	Cl	0.321447	0.563887	-0.470514
Cl145	Cl	0.412860	0.536998	-0.087186
H146	H	0.242740	0.711500	0.070102
Cl147	Cl	0.946088	0.703620	0.470485
H148	H	0.474773	0.650456	-0.340935
H149	H	0.357157	0.519589	-0.315251
Cl150	Cl	1.085805	0.181721	-0.000024
H151	H	0.474754	0.776006	-0.340958
H152	H	0.433127	0.536580	-0.200768
H153	H	-0.126839	0.711488	0.070093
H154	H	0.730523	0.585363	0.424187
H155	H	0.834369	0.335974	0.200752
Cl156	Cl	1.043255	0.320984	-0.087222
H157	H	0.433147	0.931493	-0.200728
Cl158	Cl	0.408181	0.746521	0.445370
H159	H	-0.085187	0.555960	-0.070081
H160	H	0.927571	0.274231	0.442530
Cl161	Cl	0.342824	1.054799	-0.312012
H162	H	0.394330	0.950919	-0.070069
Cl163	Cl	0.924717	0.212669	0.312035
Cl164	Cl	0.321434	1.015938	-0.470445
Cl165	Cl	0.854687	0.316065	0.087206
Cl166	Cl	0.373521	0.763859	0.312095
Cl167	Cl	0.361053	0.730474	0.087226
Cl168	Cl	0.991519	0.179264	0.087188
Cl169	Cl	0.872967	0.406090	0.486513
Cl170	Cl	0.778416	0.601032	0.344134
H171	H	0.910342	0.747893	0.315203
H172	H	0.792765	0.491462	0.340980
H173	H	0.242777	0.946969	0.070154
H174	H	0.914788	0.430448	-0.070101
Cl175	Cl	0.872951	0.622200	0.486521
H176	H	0.519881	0.320480	-0.070080
H177	H	0.827407	0.536908	0.551529
H178	H	0.284386	0.555981	-0.070083
Cl179	Cl	-0.008531	0.730472	0.087206
H180	H	0.519877	0.430445	-0.070074
H181	H	0.747633	0.206603	0.070094
Cl182	Cl	0.775440	0.316095	0.087195
Cl183	Cl	0.492080	0.088187	-0.087176
Cl184	Cl	0.775438	-0.190301	0.087222
H185	H	0.747637	-0.053013	0.070112
Cl186	Cl	0.492087	-0.048629	-0.087184
Cl187	Cl	0.699162	0.601050	0.344112
H188	H	0.862064	0.519577	0.684797
H189	H	0.600317	0.650455	0.659066
Cl190	Cl	0.851707	0.524763	0.830332
H191	H	0.537005	0.682115	0.575837
Cl192	Cl	0.415816	0.742727	0.169687
H193	H	0.208581	1.058908	0.000075
Cl194	Cl	0.276010	1.088207	-0.087146
Cl195	Cl	0.361075	0.809698	0.087239
H196	H	0.398809	0.633467	-0.455397
