data_functionalizedCrystal
_audit_creation_method	'MofGen! by Chris Wilmer'
_symmetry_space_group_name_H-M	'P1'
_symmetry_Int_Tables_number	1
_symmetry_cell_setting	triclinic
loop_
_symmetry_equiv_pos_as_xyz
  x,y,z
_cell_length_a	23.532407
_cell_length_b	23.532407
_cell_length_c	12.503572
_cell_angle_alpha	93.496478
_cell_angle_beta	86.509276
_cell_angle_gamma	82.848678
loop_
_atom_site_label
_atom_site_type_symbol
_atom_site_fract_x
_atom_site_fract_y
_atom_site_fract_z
O1	O	0.758558	0.065826	-0.089196
O2	O	0.592696	0.075828	-0.089229
O3	O	0.680627	-0.012104	-0.089192
O4	O	0.670626	0.153758	-0.089233
O5	O	0.674014	-0.005480	0.089447
O6	O	0.586082	0.082452	0.089410
O7	O	0.751945	0.072450	0.089443
Cu8	Cu	0.668410	0.078056	0.105738
Cu9	Cu	0.676230	0.070222	-0.105524
O10	O	0.664013	0.160382	0.089406
C11	C	0.568173	0.078885	0.000086
C12	C	0.504957	0.078119	0.000075
C13	C	0.105852	0.125354	0.000111
C14	C	0.046452	0.124642	0.000118
O15	O	0.009706	0.168429	0.000146
N16	N	0.023825	0.072367	0.000129
C17	C	0.060602	0.020799	0.000145
O18	O	0.035902	-0.023731	0.000156
C19	C	0.120001	0.021511	0.000146
C20	C	0.142625	0.073790	0.000124
C21	C	0.128476	0.177628	0.000090
C22	C	0.187873	0.178339	0.000082
C23	C	0.224645	0.126775	0.000094
C24	C	0.202021	0.074501	0.000115
C25	C	0.156777	-0.030056	0.000169
C26	C	0.216179	-0.029339	0.000171
C27	C	0.238803	0.022940	0.000148
C28	C	0.298190	0.023648	0.000118
N29	N	0.320817	0.075924	0.000107
C30	C	0.284044	0.127488	0.000095
C31	C	-0.064140	0.019307	0.000145
C32	C	-0.123538	0.018595	0.000136
C33	C	-0.137685	0.122438	0.000111
C34	C	-0.078286	0.123151	0.000112
C35	C	-0.041514	0.071583	0.000133
C36	C	0.408782	0.128976	0.000076
C37	C	0.468184	0.129683	0.000062
C38	C	0.482325	0.025839	0.000093
C39	C	0.422928	0.025133	0.000100
C40	C	0.386157	0.076706	0.000095
O41	O	0.334970	-0.020116	0.000095
O42	O	0.308752	0.172011	0.000098
C43	C	0.677066	-0.030008	0.000130
C44	C	0.676300	-0.093225	0.000138
C45	C	0.723535	-0.492329	0.000089
C46	C	0.722824	-0.551730	0.000080
O47	O	0.766611	-0.588476	0.000050
N48	N	0.670548	-0.574357	0.000071
C49	C	0.618980	-0.537579	0.000059
O50	O	0.574450	-0.562279	0.000049
C51	C	0.619692	-0.478180	0.000059
C52	C	0.671971	-0.455557	0.000080
C53	C	0.775810	-0.469706	0.000108
C54	C	0.776521	-0.410309	0.000118
C55	C	0.724957	-0.373536	0.000109
C56	C	0.672682	-0.396160	0.000090
C57	C	0.568126	-0.441405	0.000039
C58	C	0.568842	-0.382002	0.000039
C59	C	0.621121	-0.359379	0.000060
C60	C	0.621829	-0.299991	0.000091
N61	N	0.674105	-0.277365	0.000101
C62	C	0.725669	-0.314137	0.000110
C63	C	0.617489	-0.662322	0.000055
C64	C	0.616776	-0.721720	0.000062
C65	C	0.720620	-0.735866	0.000082
C66	C	0.721332	-0.676467	0.000083
C67	C	0.669765	-0.639696	0.000065
C68	C	0.727158	-0.189400	0.000133
C69	C	0.727864	-0.129997	0.000147
C70	C	0.624020	-0.115856	0.000122
C71	C	0.623314	-0.175253	0.000113
C72	C	0.674887	-0.212024	0.000114
O73	O	0.578065	-0.263211	0.000118
O74	O	0.770192	-0.289430	0.000106
C75	C	0.776467	0.069393	0.000125
C76	C	0.839684	0.070159	0.000130
C77	C	0.667574	0.178286	0.000081
C78	C	0.668341	0.241502	0.000066
N79	N	0.662913	0.083565	0.254327
N80	N	0.681732	0.064708	-0.254114
C81	C	0.654828	0.091674	0.473439
C82	C	0.689815	0.056601	0.526781
C83	C	0.685316	0.061113	0.648702
C84	C	0.659326	0.087163	0.351507
H85	H	0.486600	0.172256	0.000044
H86	H	0.621497	0.125088	0.519333
C87	C	0.131903	-0.087563	0.000208
H88	H	0.162318	-0.118164	0.000231
H89	H	0.111326	-0.092321	-0.062080
H90	H	0.106727	-0.087686	0.062519
H91	H	0.512276	-0.016143	0.000099
H92	H	0.378849	0.170973	0.000075
H93	H	0.769154	-0.219333	0.000130
C94	C	0.777341	-0.776324	0.000072
H95	H	0.769426	-0.814940	0.000054
H96	H	0.796493	-0.767200	0.062367
H97	H	0.801092	-0.771801	-0.062232
H98	H	0.206287	0.220910	0.000063
C99	C	0.510618	-0.466278	0.000007
H100	H	0.480016	-0.435863	-0.000012
H101	H	0.505865	-0.486852	0.062297
H102	H	0.510490	-0.491457	-0.062302
C103	C	0.734862	0.011476	0.464784
H104	H	0.732027	0.014333	0.389784
H105	H	0.728181	-0.025823	0.483141
H106	H	0.772180	0.018094	0.483165
H107	H	0.574205	-0.740133	0.000064
H108	H	0.098541	0.219620	0.000084
C109	C	0.560761	-0.621877	0.000056
H110	H	0.529528	-0.643864	0.000060
H111	H	0.561179	-0.600714	-0.062236
H112	H	0.556573	-0.596108	0.062362
C113	C	0.512116	-0.341556	0.000024
H114	H	0.480883	-0.363541	0.000019
H115	H	0.512541	-0.320393	-0.062268
H116	H	0.507926	-0.315788	0.062331
H117	H	0.817802	-0.499641	0.000112
C118	C	0.567305	-0.075399	0.000106
H119	H	0.575221	-0.036785	0.000101
H120	H	0.543542	-0.079918	0.062390
H121	H	0.548166	-0.084531	-0.062209
C122	C	-0.053405	0.180657	0.000098
H123	H	-0.083818	0.211262	0.000095
H124	H	-0.028223	0.180786	-0.062195
H125	H	-0.032835	0.185405	0.062403
H126	H	-0.167636	0.164425	0.000107
C127	C	0.256625	-0.086065	0.000182
H128	H	0.234640	-0.117299	0.000185
H129	H	0.277793	-0.085640	0.062472
H130	H	0.282389	-0.090256	-0.062127
C131	C	-0.148417	-0.038912	0.000150
H132	H	-0.118005	-0.069517	0.000163
H133	H	-0.168995	-0.043662	-0.062140
H134	H	-0.173594	-0.039040	0.062459
H135	H	-0.034203	-0.022688	0.000152
C136	C	0.398041	-0.032373	0.000113
H137	H	0.428451	-0.062980	0.000122
H138	H	0.377461	-0.037119	-0.062174
H139	H	0.372866	-0.032498	0.062424
H140	H	0.770437	-0.111581	0.000167
H141	H	0.763902	-0.658052	0.000099
H142	H	0.819092	-0.391895	0.000131
H143	H	0.580743	-0.193673	0.000126
