data_functionalizedCrystal
_audit_creation_method	'MofGen! by Chris Wilmer'
_symmetry_space_group_name_H-M	'P1'
_symmetry_Int_Tables_number	1
_symmetry_cell_setting	triclinic
loop_
_symmetry_equiv_pos_as_xyz
  x,y,z
_cell_length_a	17.640112
_cell_length_b	18.050590
_cell_length_c	17.640968
_cell_angle_alpha	101.233828
_cell_angle_beta	87.860920
_cell_angle_gamma	101.243844
loop_
_atom_site_label
_atom_site_type_symbol
_atom_site_fract_x
_atom_site_fract_y
_atom_site_fract_z
Zn1	Zn	1.247780	-0.021338	0.195079
Zn2	Zn	1.747780	0.478662	0.695079
Zn3	Zn	1.222020	-0.174557	0.068090
Zn4	Zn	1.722020	0.325443	0.568090
Zn5	Zn	1.095115	-0.069647	0.093723
Zn6	Zn	1.595115	0.430353	0.593723
Zn7	Zn	1.120761	-0.164781	0.220672
Zn8	Zn	1.620761	0.335219	0.720672
O9	O	1.171419	-0.107581	0.144391
O10	O	1.671419	0.392419	0.644391
O11	O	1.350631	-0.025537	0.156795
O12	O	1.850631	0.474463	0.656795
O13	O	1.183673	-0.184949	-0.034784
O14	O	1.683673	0.315051	0.465216
O15	O	1.115414	0.040698	0.107185
O16	O	1.615414	0.540698	0.607185
O17	O	1.331706	-0.138106	0.063497
O18	O	1.831706	0.361894	0.563497
O19	O	1.227576	0.076190	0.181651
O20	O	1.727576	0.576190	0.681651
O21	O	1.090436	-0.107872	-0.015951
O22	O	1.590436	0.392128	0.484049
O23	O	0.992249	-0.098393	0.132001
O24	O	1.492249	0.401607	0.632001
O25	O	1.159123	-0.121445	0.323551
O26	O	1.659123	0.378555	0.823551
O27	O	1.011090	-0.168288	0.225271
O28	O	1.511090	0.331712	0.725271
O29	O	1.252443	-0.016058	0.304748
O30	O	1.752443	0.483942	0.804748
O31	O	1.208540	-0.277197	0.088314
O32	O	1.708540	0.222803	0.588314
O33	O	1.134145	-0.270015	0.200415
O34	O	1.634145	0.229985	0.700415
C35	C	0.974116	-0.137522	0.184195
C36	C	1.474116	0.362478	0.684195
C37	C	0.889712	-0.150345	0.201242
C38	C	1.389712	0.349655	0.701242
C39	C	0.563040	-0.010153	0.014898
C40	C	1.063040	0.489847	0.514898
C41	C	0.483732	-0.022215	0.030926
C42	C	0.983732	0.477785	0.530926
C43	C	0.503372	-0.095166	0.127879
C44	C	1.003372	0.404834	0.627879
C45	C	0.582684	-0.083107	0.111862
C46	C	1.082684	0.416893	0.611862
C47	C	0.612511	-0.040601	0.055370
C48	C	1.112511	0.459399	0.555370
C49	C	0.632155	-0.113555	0.152334
C50	C	1.132155	0.386445	0.652334
C51	C	0.711459	-0.101500	0.136315
C52	C	1.211459	0.398500	0.636315
C53	C	0.741292	-0.058998	0.079824
C54	C	1.241292	0.441002	0.579824
C55	C	0.691815	-0.028547	0.039351
C56	C	1.191815	0.471453	0.539351
C57	C	0.602326	-0.156065	0.208822
C58	C	1.102326	0.343935	0.708822
C59	C	0.651797	-0.186513	0.249295
C60	C	1.151797	0.313487	0.749295
C61	C	0.731103	-0.174454	0.233280
C62	C	1.231103	0.325546	0.733280
C63	C	0.760936	-0.131952	0.176788
C64	C	1.260936	0.368048	0.676788
C65	C	0.780581	-0.204905	0.273753
C66	C	1.280581	0.295095	0.773753
C67	C	0.859885	-0.192851	0.257734
C68	C	1.359885	0.307149	0.757734
C69	C	0.840241	-0.119897	0.160769
C70	C	1.340241	0.380103	0.660769
C71	C	1.171354	-0.300549	0.144373
C72	C	1.671354	0.199451	0.644373
C73	C	1.171401	-0.383085	0.144376
C74	C	1.671401	0.116915	0.644376
C75	C	1.211977	-0.586382	0.083465
C76	C	1.711977	-0.086382	0.583465
C77	C	1.244542	-0.617065	0.149036
C78	C	1.744542	-0.117065	0.649036
C79	C	1.171451	-0.534202	0.144398
C80	C	1.671451	-0.034202	0.644398
C81	C	1.138970	-0.650582	0.078842
C82	C	1.638970	-0.150582	0.578842
C83	C	1.171498	-0.680175	0.144412
C84	C	1.671498	-0.180175	0.644412
C85	C	1.204058	-0.563783	0.209998
C86	C	1.704058	-0.063783	0.709998
C87	C	1.098444	-0.597312	0.139764
C88	C	1.598444	-0.097312	0.639764
C89	C	1.130992	-0.627965	0.205388
C90	C	1.630992	-0.127965	0.705388
C91	C	1.171425	-0.450110	0.144388
C92	C	1.671425	0.049890	0.644388
C93	C	1.171526	-0.764263	0.144430
C94	C	1.671526	-0.264263	0.644430
C95	C	1.369493	-0.077523	0.104432
C96	C	1.869493	0.422477	0.604432
C97	C	1.453900	-0.064714	0.087404
C98	C	1.953900	0.435286	0.587404
C99	C	1.211517	-0.062272	0.342476
C100	C	1.711517	0.437728	0.842476
C101	C	1.228605	-0.042964	0.426888
C102	C	1.728605	0.457036	0.926888
C103	C	1.171508	0.086148	0.144422
C104	C	1.671508	0.586148	0.644422
C105	C	1.171546	0.168703	0.144435
C106	C	1.671546	0.668703	0.644435
C107	C	1.131520	-0.152653	-0.052932
C108	C	1.631520	0.347347	0.447068
C109	C	1.114580	-0.171729	-0.137373
C110	C	1.614580	0.328271	0.362627
C111	C	1.041898	-0.253812	0.753452
C112	C	1.541898	0.246188	1.253452
C113	C	1.057970	-0.235658	0.832766
C114	C	1.557970	0.264342	1.332766
C115	C	1.155137	-0.125928	0.813178
C116	C	1.655137	0.374072	1.313178
C117	C	1.139070	-0.144071	0.733860
C118	C	1.639070	0.355929	1.233860
C119	C	1.082450	-0.208015	0.704004
C120	C	1.582450	0.291985	1.204004
C121	C	1.179622	-0.098273	0.684412
C122	C	1.679622	0.401727	1.184412
C123	C	1.163559	-0.116417	0.605101
C124	C	1.663559	0.383583	1.105101
C125	C	1.106944	-0.180359	0.575238
C126	C	1.606944	0.319641	1.075238
C127	C	1.066387	-0.226159	0.624693
C128	C	1.566387	0.273841	1.124693
C129	C	1.236245	-0.034332	0.714270
C130	C	1.736245	0.465668	1.214270
C131	C	1.276797	0.011465	0.664822
C132	C	1.776797	0.511465	1.164822
C133	C	1.260731	-0.006676	0.585510
C134	C	1.760731	0.493324	1.085510
C135	C	1.204116	-0.070618	0.555647
C136	C	1.704116	0.429382	1.055647
C137	C	1.301287	0.039124	0.536056
C138	C	1.801287	0.539124	1.036056
C139	C	1.285224	0.020980	0.456744
C140	C	1.785224	0.520980	0.956744
C141	C	1.188053	-0.088762	0.476336
C142	C	1.688053	0.411238	0.976336
H143	H	0.587329	0.024473	-0.031093
H144	H	1.087329	0.524473	0.468907
O145	O	0.723996	0.017307	-0.021575
O146	O	1.223996	0.517307	0.478425
H147	H	0.752286	-0.019235	-0.067566
H148	H	1.252286	0.480765	0.432434
O149	O	0.430357	0.010602	-0.012740
O150	O	0.930357	0.510602	0.487260
H151	H	0.401113	0.050627	0.028604
H152	H	0.901113	0.550627	0.528604
H153	H	1.249323	-0.019563	0.778850
H154	H	1.749323	0.480437	1.278850
H155	H	1.246273	-0.567974	0.031977
H156	H	1.746273	-0.067974	0.531977
H157	H	0.900166	-0.217643	0.290691
H158	H	1.400166	0.282357	0.790691
O159	O	1.362339	0.108097	0.568276
O160	O	1.862339	0.608097	1.068276
H161	H	1.408277	0.088991	0.596617
H162	H	1.908277	0.588991	1.096617
O163	O	1.326350	-0.629204	0.154255
O164	O	1.826350	-0.129204	0.654255
H165	H	1.359857	-0.612695	0.103610
H166	H	1.859857	-0.112695	0.603610
O167	O	1.240550	-0.514199	0.283450
O168	O	1.740550	-0.014199	0.783450
H169	H	1.207150	-0.531177	0.333965
H170	H	1.707150	-0.031177	0.833965
O171	O	1.005314	-0.295126	0.592487
O172	O	1.505314	0.204874	1.092487
H173	H	0.959376	-0.276004	0.564161
H174	H	1.459376	0.223996	1.064161
H175	H	1.318245	0.058274	0.416483
H176	H	1.818245	0.558274	0.916483
H177	H	0.995775	-0.305867	0.729145
H178	H	1.495775	0.194133	1.229145
O179	O	1.085629	-0.652138	0.273711
O180	O	1.585629	-0.152138	0.773711
H181	H	1.112773	-0.616722	0.328017
H182	H	1.612773	-0.116722	0.828017
O183	O	1.337843	0.080449	0.697029
O184	O	1.837843	0.580449	1.197029
H185	H	1.342191	0.085382	0.760489
H186	H	1.842191	0.585382	1.260489
H187	H	0.864529	-0.085271	0.114779
H188	H	1.364529	0.414729	0.614779
O189	O	0.471202	-0.141005	0.188813
O190	O	0.971202	0.358995	0.688813
H191	H	0.407746	-0.144268	0.193158
H192	H	0.907746	0.355732	0.693158
H193	H	0.805867	-0.049186	0.066781
H194	H	1.305867	0.450814	0.566781
H195	H	1.093869	-0.195134	0.510657
H196	H	1.593869	0.304866	1.010657
O197	O	1.016655	-0.585139	0.134525
O198	O	1.516655	-0.085139	0.634525
H199	H	0.989789	-0.620392	0.080023
H200	H	1.489789	-0.120392	0.580023
O201	O	0.748425	-0.250767	0.334673
O202	O	1.248425	0.249233	0.834673
H203	H	0.720140	-0.214242	0.380683
H204	H	1.220140	0.285758	0.880683
O205	O	0.516792	-0.169092	0.226111
O206	O	1.016792	0.330908	0.726111
H207	H	0.498999	-0.112755	0.245802
H208	H	0.998999	0.387245	0.745802
H209	H	1.111479	-0.688087	0.023396
H210	H	1.611479	-0.188087	0.523396
H211	H	1.141929	-0.140816	0.452029
H212	H	1.641929	0.359184	0.952029
O213	O	1.014225	-0.285053	0.886105
O214	O	1.514225	0.214947	1.386105
H215	H	0.972153	-0.332559	0.852017
H216	H	1.472153	0.167441	1.352017
O217	O	1.216182	-0.056944	0.845385
O218	O	1.716182	0.443056	1.345385
H219	H	1.220530	-0.052011	0.908845
H220	H	1.720530	0.447989	1.408845
H221	H	0.627500	-0.221124	0.295288
H222	H	1.127500	0.278876	0.795288
