data_functionalizedCrystal
_audit_creation_method	'MofGen! by Chris Wilmer'
_symmetry_space_group_name_H-M	'P1'
_symmetry_Int_Tables_number	1
_symmetry_cell_setting	triclinic
loop_
_symmetry_equiv_pos_as_xyz
  x,y,z
_cell_length_a	9.065215
_cell_length_b	11.026607
_cell_length_c	8.140239
_cell_angle_alpha	89.998310
_cell_angle_beta	89.997810
_cell_angle_gamma	96.800357
loop_
_atom_site_label
_atom_site_type_symbol
_atom_site_fract_x
_atom_site_fract_y
_atom_site_fract_z
O1	O	2.004898	0.178436	-0.136589
O2	O	2.504898	0.678436	0.363411
O3	O	1.579264	0.193077	-0.136596
O4	O	2.079264	0.693077	0.363404
O5	O	1.756804	0.008716	-0.136587
O6	O	2.256804	0.508716	0.363413
O7	O	1.827357	0.362797	-0.136598
O8	O	2.327357	0.862797	0.363402
O9	O	1.756791	0.008714	0.136640
O10	O	2.256791	0.508714	0.636640
O11	O	1.579250	0.193075	0.136631
O12	O	2.079250	0.693075	0.636631
O13	O	2.004885	0.178434	0.136638
O14	O	2.504885	0.678434	0.636638
Zn15	Zn	1.792065	0.185754	0.180015
Zn16	Zn	2.292065	0.685754	0.680015
Zn17	Zn	1.792083	0.185757	-0.179973
Zn18	Zn	2.292083	0.685757	0.320027
O19	O	1.827344	0.362795	0.136629
O20	O	2.327344	0.862795	0.636629
C21	C	1.523920	0.191670	0.000017
C22	C	2.023920	0.691670	0.500017
C23	C	1.359028	0.187465	0.000014
C24	C	1.859028	0.687465	0.500014
C25	C	1.743782	-0.036639	0.000024
C26	C	2.243782	0.463361	0.500024
C27	C	1.704982	-0.171779	0.000018
C28	C	2.204982	0.328221	0.500018
C29	C	1.812116	-0.244408	0.000017
C30	C	2.312116	0.255592	0.500017
C31	C	1.772017	-0.384083	0.000011
C32	C	2.272017	0.115917	0.500011
C33	C	2.060229	0.179841	0.000022
C34	C	2.560229	0.679841	0.500022
C35	C	2.225120	0.184046	0.000014
C36	C	2.725120	0.684046	0.500014
C37	C	1.840366	0.408150	0.000014
C38	C	2.340366	0.908150	0.500014
C39	C	1.879166	0.543290	0.000010
C40	C	2.379166	1.043290	0.500010
N41	N	1.792064	0.185751	0.425698
N42	N	2.292064	0.685751	0.925698
N43	N	1.792093	0.185750	-0.425656
N44	N	2.292093	0.685750	0.074344
H45	H	1.650601	-0.425302	-0.000002
H46	H	2.150601	0.074698	0.499998
N47	N	2.039999	-0.402129	0.000000
N48	N	2.539999	0.097871	0.500000
H49	H	2.045851	-0.310087	0.000002
H50	H	2.545851	0.189913	0.500002
H51	H	2.090853	-0.429957	0.101289
H52	H	2.590853	0.070043	0.601289
H53	H	1.933523	-0.203183	0.000029
H54	H	2.433523	0.296817	0.500029
H55	H	1.583575	-0.213004	0.000005
H56	H	2.083575	0.286996	0.500005
