data_functionalizedCrystal
_audit_creation_method	'MofGen! by Chris Wilmer'
_symmetry_space_group_name_H-M	'P1'
_symmetry_Int_Tables_number	1
_symmetry_cell_setting	triclinic
loop_
_symmetry_equiv_pos_as_xyz
  x,y,z
_cell_length_a	16.625546
_cell_length_b	12.759401
_cell_length_c	12.759393
_cell_angle_alpha	90.018496
_cell_angle_beta	89.963806
_cell_angle_gamma	89.977371
loop_
_atom_site_label
_atom_site_type_symbol
_atom_site_fract_x
_atom_site_fract_y
_atom_site_fract_z
Zn1	Zn	-0.320951	-1.606199	-0.593948
Zn2	Zn	0.012383	-1.272865	-0.260614
Zn3	Zn	0.345716	-0.939532	0.072719
Zn4	Zn	-0.455807	-1.606069	-0.418253
Zn5	Zn	-0.122474	-1.272736	-0.084920
Zn6	Zn	0.210859	-0.939403	0.248413
Zn7	Zn	-0.320993	-1.430501	-0.418287
Zn8	Zn	0.012340	-1.097167	-0.084954
Zn9	Zn	0.345674	-0.763834	0.248380
Zn10	Zn	-0.455745	-1.430465	-0.593895
Zn11	Zn	-0.122412	-1.097132	-0.260562
Zn12	Zn	0.210921	-0.763799	0.072772
O13	O	-0.388374	-1.518308	-0.506096
O14	O	-0.055041	-1.184975	-0.172762
O15	O	0.278293	-0.851642	0.160571
O16	O	-0.338848	-1.753203	-0.570649
O17	O	-0.005515	-1.419869	-0.237316
O18	O	0.327819	-1.086536	0.096017
O19	O	-0.437968	-1.582740	-0.271237
O20	O	-0.104634	-1.249407	0.062097
O21	O	0.228699	-0.916073	0.395430
O22	O	-0.208155	-1.453876	-0.441625
O23	O	0.125179	-1.120543	-0.108291
O24	O	0.458512	-0.787210	0.225042
O25	O	-0.437927	-1.753107	-0.441568
O26	O	-0.104593	-1.419774	-0.108234
O27	O	0.228740	-1.086441	0.225099
O28	O	-0.208124	-1.582961	-0.570682
O29	O	0.125210	-1.249628	-0.237348
O30	O	0.458543	-0.916294	0.095985
O31	O	-0.338920	-1.453751	-0.271261
O32	O	-0.005587	-1.120417	0.062072
O33	O	0.327747	-0.787084	0.395405
O34	O	-0.338860	-1.283475	-0.441574
O35	O	-0.005526	-0.950142	-0.108240
O36	O	0.327807	-0.616808	0.225093
O37	O	-0.437821	-1.453816	-0.740923
O38	O	-0.104488	-1.120483	-0.407590
O39	O	0.228846	-0.787150	-0.074256
O40	O	-0.437862	-1.283449	-0.570592
O41	O	-0.104528	-0.950116	-0.237259
O42	O	0.228805	-0.616782	0.096075
O43	O	-0.338788	-1.582927	-0.740962
O44	O	-0.005454	-1.249593	-0.407628
O45	O	0.327879	-0.916260	-0.074295
O46	O	-0.568632	-1.582706	-0.441517
O47	O	-0.235298	-1.249373	-0.108183
O48	O	0.098035	-0.916039	0.225150
O49	O	-0.568586	-1.453691	-0.570560
O50	O	-0.235253	-1.120357	-0.237226
O51	O	0.098081	-0.787024	0.096107
C52	C	-0.388359	-1.245341	-0.506081
C53	C	-0.055026	-0.912008	-0.172748
C54	C	0.278307	-0.578674	0.160585
C55	C	-0.388372	-1.128564	-0.506100
C56	C	-0.055039	-0.795231	-0.172767
C57	C	0.278294	-0.461898	0.160566
C58	C	-0.597865	-1.518209	-0.506052
C59	C	-0.264532	-1.184876	-0.172718
C60	C	0.068802	-0.851542	0.160615
C61	C	-0.687486	-1.518263	-0.506068
C62	C	-0.354153	-1.184929	-0.172735
C63	C	-0.020819	-0.851596	0.160599
C64	C	-0.388293	-1.518382	-0.780129
C65	C	-0.054959	-1.185049	-0.446796
C66	C	0.278374	-0.851715	-0.113463
C67	C	-0.388258	-1.518413	-0.896906
C68	C	-0.054925	-1.185080	-0.563573
C69	C	0.278409	-0.851747	-0.230239
C70	C	-1.015662	-1.518446	-0.506177
C71	C	-0.682328	-1.185113	-0.172844
C72	C	-0.348995	-0.851779	0.160489
C73	C	-0.924353	-1.518392	-0.506150
C74	C	-0.591020	-1.185058	-0.172817
C75	C	-0.257686	-0.851725	0.160517
C76	C	-0.851577	-1.518353	-0.506122
C77	C	-0.518243	-1.185020	-0.172789
C78	C	-0.184910	-0.851687	0.160544
C79	C	-0.760262	-1.518301	-0.506096
C80	C	-0.426929	-1.184967	-0.172762
C81	C	-0.093596	-0.851634	0.160571
C82	C	-0.178065	-1.518437	-0.506163
C83	C	0.155268	-1.185104	-0.172830
C84	C	0.488602	-0.851770	0.160504
C85	C	-0.088444	-1.518492	-0.506191
C86	C	0.244889	-1.185158	-0.172858
C87	C	0.578223	-0.851825	0.160475
C88	C	-0.388390	-1.792342	-0.506111
C89	C	-0.055056	-1.459008	-0.172777
C90	C	0.278277	-1.125675	0.160556
C91	C	-0.388396	-1.909118	-0.506117
C92	C	-0.055063	-1.575785	-0.172784
C93	C	0.278271	-1.242452	0.160550
C94	C	-0.440005	-1.073717	-0.573169
C95	C	-0.106672	-0.740383	-0.239836
C96	C	0.226661	-0.407050	0.093498
C97	C	-0.440015	-0.963992	-0.573180
C98	C	-0.106682	-0.630659	-0.239847
C99	C	0.226651	-0.297326	0.093486
C100	C	-0.336758	-0.963974	-0.439045
C101	C	-0.003424	-0.630641	-0.105712
C102	C	0.329909	-0.297307	0.227621
C103	C	-0.336744	-1.073696	-0.439040
C104	C	-0.003411	-0.740363	-0.105707
C105	C	0.329923	-0.407029	0.227627
C106	C	-0.499623	-1.073726	-0.650608
C107	C	-0.166290	-0.740393	-0.317274
C108	C	0.167044	-0.407060	0.016059
C109	C	-0.499633	-0.964002	-0.650619
C110	C	-0.166300	-0.630669	-0.317286
C111	C	0.167034	-0.297335	0.016047
C112	C	-0.336687	-1.585650	-0.951790
C113	C	-0.003353	-1.252317	-0.618456
C114	C	0.329980	-0.918984	-0.285123
C115	C	-0.336657	-1.585675	-1.061514
C116	C	-0.003324	-1.252342	-0.728181
C117	C	0.330009	-0.919009	-0.394847
C118	C	-0.439778	-1.451223	-1.061461
C119	C	-0.106445	-1.117890	-0.728127
C120	C	0.226889	-0.784557	-0.394794
C121	C	-0.439803	-1.451194	-0.951739
C122	C	-0.106469	-1.117861	-0.618405
C123	C	0.226864	-0.784527	-0.285072
C124	C	-0.277153	-1.663279	-0.951821
C125	C	0.056180	-1.329945	-0.618488
C126	C	0.389514	-0.996612	-0.285155
C127	C	-0.277124	-1.663304	-1.061546
C128	C	0.056209	-1.329970	-0.728212
C129	C	0.389543	-0.996637	-0.394879
C130	C	-0.388397	-1.518296	-0.233128
C131	C	-0.055064	-1.184962	0.100205
C132	C	0.278270	-0.851629	0.433538
C133	C	-0.388204	-1.518468	-0.116352
C134	C	-0.054871	-1.185135	0.216981
C135	C	0.278462	-0.851801	0.550314
H136	H	-0.294694	-1.118349	-0.384433
H137	H	0.038639	-0.785016	-0.051100
H138	H	0.371973	-0.451683	0.282234
Br139	Br	-0.603679	-0.914312	-0.614018
Br140	Br	-0.270345	-0.580979	-0.280685
Br141	Br	0.062988	-0.247645	0.052649
H142	H	-0.214709	-1.641521	-0.922072
H143	H	0.118624	-1.308188	-0.588739
H144	H	0.451957	-0.974854	-0.255405
H145	H	-0.481794	-1.396439	-0.907056
H146	H	-0.148461	-1.063106	-0.573723
H147	H	0.184873	-0.729773	-0.240390
Br148	Br	-0.471871	-1.123424	-0.786290
Br149	Br	-0.138537	-0.790091	-0.452957
Br150	Br	0.194796	-0.456758	-0.119623
H151	H	-0.299539	-1.740546	-0.917783
H152	H	0.033795	-1.407213	-0.584450
H153	H	0.367128	-1.073880	-0.251116
H154	H	-0.558911	-1.107730	-0.621317
H155	H	-0.225577	-0.774397	-0.287984
H156	H	0.107756	-0.441063	0.045350
Br157	Br	-0.304984	-1.798920	-1.111186
Br158	Br	0.028350	-1.465587	-0.777852
Br159	Br	0.361683	-1.132254	-0.444519
H160	H	-0.477343	-0.930008	-0.727974
H161	H	-0.144010	-0.596675	-0.394640
H162	H	0.189324	-0.263342	-0.061307
H163	H	-0.294723	-0.919287	-0.384448
H164	H	0.038610	-0.585954	-0.051115
H165	H	0.371944	-0.252620	0.282219
H166	H	-0.217792	-1.634200	-1.095600
H167	H	0.115541	-1.300867	-0.762266
H168	H	0.448874	-0.967534	-0.428933
H169	H	-0.481742	-1.396493	-1.106119
H170	H	-0.148409	-1.063160	-0.772785
H171	H	0.184925	-0.729827	-0.439452
