data_functionalizedCrystal
_audit_creation_method	'MofGen! by Chris Wilmer'
_symmetry_space_group_name_H-M	'P1'
_symmetry_Int_Tables_number	1
_symmetry_cell_setting	triclinic
loop_
_symmetry_equiv_pos_as_xyz
  x,y,z
_cell_length_a	15.995350
_cell_length_b	10.654550
_cell_length_c	9.730223
_cell_angle_alpha	90.002595
_cell_angle_beta	90.000173
_cell_angle_gamma	96.011361
loop_
_atom_site_label
_atom_site_type_symbol
_atom_site_fract_x
_atom_site_fract_y
_atom_site_fract_z
O1	O	0.117600	-1.666295	-0.114395
O2	O	0.128804	-1.300671	-0.114373
O3	O	0.001372	-1.493478	-0.114383
O4	O	0.245032	-1.473488	-0.114385
O5	O	0.001374	-1.493480	0.114197
O6	O	0.128805	-1.300673	0.114207
O7	O	0.117601	-1.666298	0.114185
Zn8	Zn	0.123203	-1.483486	0.150488
Zn9	Zn	0.123202	-1.483483	-0.150676
O10	O	0.245033	-1.473491	0.114195
C11	C	-0.029827	-1.492652	-0.000096
C12	C	-0.122791	-1.490175	-0.000104
C13	C	0.127982	-1.253885	-0.000080
C14	C	0.125521	-1.114473	-0.000071
C15	C	0.118423	-1.713084	-0.000111
C16	C	0.120884	-1.852495	-0.000129
C17	C	-0.460591	-1.481278	-0.000098
C18	C	-0.413954	-1.343964	-0.000603
C19	C	-0.317249	-1.346442	-0.000087
C20	C	-0.293004	-1.485691	-0.000102
C21	C	-0.333688	-1.553420	0.130422
C22	C	-0.430344	-1.549971	0.130531
C23	C	-0.430687	-1.552805	-0.129407
C24	C	-0.333741	-1.552772	-0.131132
C25	C	-0.198292	-1.488192	-0.000099
C26	C	-0.555303	-1.478780	-0.000092
C27	C	0.276232	-1.474316	-0.000095
C28	C	0.369197	-1.476793	-0.000097
C29	C	0.200551	-1.034008	-0.000092
C30	C	0.198233	-0.903017	-0.000116
C31	C	0.045849	-0.932971	-0.000104
C32	C	0.048168	-1.063959	-0.000071
C33	C	0.288528	-1.016713	-0.000104
C34	C	0.286211	-0.885722	-0.000128
N35	N	0.123195	-1.483481	-0.356212
C36	C	0.071839	-1.407485	-0.428155
C37	C	0.071841	-1.407495	-0.572038
C38	C	0.174562	-1.559502	-0.572023
C39	C	0.174555	-1.559497	-0.428143
C40	C	0.012536	-1.319721	-0.428165
C41	C	0.012538	-1.319731	-0.572048
N42	N	0.123204	-1.483497	0.356024
H43	H	-0.289137	-1.293202	-0.093652
H44	H	0.038736	-1.224739	-0.383534
H45	H	-0.462006	-1.650784	0.136444
C46	C	0.326357	-1.064395	-0.133436
N47	N	0.354842	-1.100312	-0.233869
C48	C	0.231055	-1.643116	-0.651160
N49	N	0.273607	-1.706095	-0.710764
C50	C	0.322148	-0.823544	0.133173
N51	N	0.349220	-0.776709	0.233569
C52	C	0.330984	-0.828753	-0.129374
N53	N	0.364704	-0.785845	-0.226721
C54	C	-0.280022	-1.274041	0.126542
N55	N	-0.251983	-1.219507	0.221927
H56	H	0.216366	-1.621394	-0.369572
H57	H	-0.012929	-1.129471	-0.000034
C58	C	0.040189	-1.185508	-0.624806
N59	N	0.061018	-1.084415	-0.664542
C60	C	-0.455456	-1.483237	0.262347
N61	N	-0.474365	-1.432968	0.361631
H62	H	-0.017130	-0.891826	-0.000125
H63	H	-0.318968	-1.655723	0.135266
H64	H	-0.432805	-1.289080	-0.094203
H65	H	-0.050470	-1.360252	-0.616680
C66	C	0.335010	-1.055738	0.129135
N67	N	0.370017	-1.085133	0.226478
C68	C	-0.076630	-1.362905	-0.375422
N69	N	-0.143789	-1.395432	-0.335697
C70	C	-0.297271	-1.485937	-0.261583
N71	N	-0.269803	-1.435585	-0.359836
C72	C	-0.440826	-1.270162	0.125181
N73	N	-0.461059	-1.214584	0.219934
H74	H	-0.451487	-1.507909	-0.228337
C75	C	-0.295722	-1.489866	0.261658
N76	N	-0.267127	-1.441989	0.360502
H77	H	-0.461860	-1.654045	-0.130294
C78	C	-0.312199	-1.689962	-0.141789
N79	N	-0.295976	-1.793301	-0.149804
