data_functionalizedCrystal
_audit_creation_method	'MofGen! by Chris Wilmer'
_symmetry_space_group_name_H-M	'P1'
_symmetry_Int_Tables_number	1
_symmetry_cell_setting	triclinic
loop_
_symmetry_equiv_pos_as_xyz
  x,y,z
_cell_length_a	19.805407
_cell_length_b	12.594516
_cell_length_c	19.805399
_cell_angle_alpha	89.979203
_cell_angle_beta	89.980427
_cell_angle_gamma	90.016053
loop_
_atom_site_label
_atom_site_type_symbol
_atom_site_fract_x
_atom_site_fract_y
_atom_site_fract_z
Zn1	Zn	1.034784	-0.423767	-0.382752
Zn2	Zn	1.034720	-0.601760	-0.269577
Zn3	Zn	0.921599	-0.423796	-0.269576
Zn4	Zn	0.921583	-0.601704	-0.382723
O5	O	0.978172	-0.512757	-0.326157
O6	O	1.129492	-0.447389	-0.367751
O7	O	1.019694	-0.578189	-0.174860
O8	O	0.936647	-0.274846	-0.284601
O9	O	1.129445	-0.578160	-0.284602
O10	O	1.019804	-0.274825	-0.367750
O11	O	0.936584	-0.447439	-0.174860
O12	O	0.826880	-0.447385	-0.284573
O13	O	0.936620	-0.578064	-0.477444
O14	O	0.826869	-0.578092	-0.367702
O15	O	1.019788	-0.447335	-0.477464
O16	O	1.019678	-0.750698	-0.284574
O17	O	0.936557	-0.750657	-0.367703
C18	C	0.802316	-0.512736	-0.326135
C19	C	0.727084	-0.512753	-0.326142
C20	C	0.691751	-0.580915	-0.369357
C21	C	0.621063	-0.580917	-0.369366
C22	C	0.585708	-0.512762	-0.326157
C23	C	0.621045	-0.444592	-0.282940
C24	C	0.691733	-0.444586	-0.282934
C25	C	0.335972	-0.444615	-0.282962
C26	C	0.265280	-0.444629	-0.282970
C27	C	0.265302	-0.580947	-0.369394
C28	C	0.335989	-0.580941	-0.369389
C29	C	0.371321	-0.512768	-0.326175
C30	C	0.447969	-0.512765	-0.326166
C31	C	0.509061	-0.512769	-0.326162
C32	C	0.978127	-0.789298	-0.326150
C33	C	0.978170	-0.907603	-0.326170
C34	C	0.932956	-0.976872	-0.371352
C35	C	0.916467	-1.047728	-0.309590
C36	C	0.994721	-1.047546	-0.387943
C37	C	0.961649	-0.976901	-0.264375
C38	C	1.039931	-0.976712	-0.342770
C39	C	1.023465	-1.047536	-0.280965
C40	C	1.154714	-0.512778	-0.326179
C41	C	1.229946	-0.512787	-0.326189
C42	C	0.978209	-0.512690	-0.502700
C43	C	0.978226	-0.512661	-0.577932
C44	C	0.978235	-0.235136	-0.326178
C45	C	0.978261	-0.116830	-0.326188
C46	C	1.021533	-0.444587	-0.613288
C47	C	1.021539	-0.444556	-0.683976
C48	C	0.978242	-0.512605	-0.719307
C49	C	0.934931	-0.580683	-0.683947
C50	C	0.934921	-0.580707	-0.613259
C51	C	0.934969	-0.580583	-0.969020
C52	C	0.934984	-0.580556	-1.039712
C53	C	1.021588	-0.444432	-1.039737
C54	C	1.021578	-0.444457	-0.969050
C55	C	0.978264	-0.512530	-0.933695
C56	C	0.978256	-0.512561	-0.857046
C57	C	0.978253	-0.512580	-0.795955
C58	C	0.978173	-0.512747	-0.150301
C59	C	0.978288	-0.512475	-0.075069
H60	H	0.236527	-0.636453	-0.404584
Br61	Br	1.087263	-1.098927	-0.217225
H62	H	0.947627	-0.945998	-0.212128
H63	H	1.008682	-1.078577	-0.440176
Br64	Br	0.217299	-0.352127	-0.224324
H65	H	0.364730	-0.389113	-0.247769
H66	H	0.894652	-0.945843	-0.409505
Br67	Br	0.573113	-0.673424	-0.428020
Br68	Br	0.573065	-0.352084	-0.224304
Br69	Br	0.739685	-0.352070	-0.224287
H70	H	0.720532	-0.636419	-0.404541
Br71	Br	0.829481	-1.099715	-0.286190
H72	H	1.092106	-0.945498	-0.356826
H73	H	1.056792	-0.389176	-0.584526
H74	H	0.899723	-0.635972	-1.068477
Br75	Br	1.080347	-0.352215	-0.731957
Br76	Br	0.876141	-0.673091	-0.565275
H77	H	1.056837	-0.389047	-0.940287
H78	H	1.056853	-0.389000	-1.068531
Br79	Br	0.876185	-0.672966	-0.921047
H80	H	0.899675	-0.636086	-0.712719
H81	H	0.364771	-0.636444	-0.404572
