data_functionalizedCrystal
_audit_creation_method	'MofGen! by Chris Wilmer'
_symmetry_space_group_name_H-M	'P1'
_symmetry_Int_Tables_number	1
_symmetry_cell_setting	triclinic
loop_
_symmetry_equiv_pos_as_xyz
  x,y,z
_cell_length_a	13.101039
_cell_length_b	16.109301
_cell_length_c	16.109298
_cell_angle_alpha	96.539166
_cell_angle_beta	86.633336
_cell_angle_gamma	86.646051
loop_
_atom_site_label
_atom_site_type_symbol
_atom_site_fract_x
_atom_site_fract_y
_atom_site_fract_z
O1	O	0.085138	-1.107702	0.102281
O2	O	0.085152	-0.865640	0.115580
O3	O	0.085152	-0.993322	-0.012101
O4	O	0.085138	-0.980019	0.229962
O5	O	-0.085278	-0.984161	-0.002925
O6	O	-0.085277	-0.856479	0.124756
O7	O	-0.085292	-1.098540	0.111458
Zn8	Zn	-0.112344	-0.976055	0.119564
Zn9	Zn	0.112204	-0.988125	0.107474
O10	O	-0.085292	-0.970858	0.239138
C11	C	-0.000060	-0.830085	0.119629
C12	C	-0.000054	-0.737790	0.118014
N13	N	-0.265593	-0.967824	0.127814
C14	C	-0.000059	-0.988204	-0.038488
C15	C	-0.000047	-0.986590	-0.130784
C16	C	-0.474635	-0.956625	0.139047
C17	C	-0.525511	-1.007560	0.087987
C18	C	-0.641830	-1.001329	0.094237
C19	C	-0.358306	-0.962855	0.132798
N20	N	0.265453	-0.996363	0.099217
C21	C	-0.000077	-1.134096	0.107408
C22	C	-0.000077	-1.226391	0.109023
C23	C	-0.000070	-0.515516	0.190022
C24	C	-0.000077	-0.428795	0.188499
C25	C	-0.000064	-0.448672	0.037009
C26	C	-0.000065	-0.535391	0.038534
C27	C	-0.000063	-0.568810	0.115043
C28	C	-0.000068	-0.395371	0.111994
C29	C	-0.000075	-0.301344	0.110342
C30	C	-0.000057	-0.662842	0.116696
C31	C	0.092833	-0.986315	-0.434854
C32	C	0.092841	-0.987844	-0.348134
C33	C	-0.092971	-0.977868	-0.338115
C34	C	-0.092977	-0.976346	-0.424834
C35	C	-0.000072	-0.980565	-0.473201
C36	C	-0.000059	-0.983616	-0.299762
C37	C	-0.000052	-0.985273	-0.205737
C38	C	-0.000079	-0.978910	-0.567232
C39	C	-0.000079	-0.975977	0.265525
C40	C	-0.000084	-0.977591	0.357821
H41	H	-0.481709	-1.055847	0.039579
H42	H	-0.168612	-0.974431	-0.298725
H43	H	0.168483	-0.989751	-0.474231
H44	H	-0.168637	-0.971665	-0.456057
Br45	Br	-0.000092	-0.356469	0.290262
Br46	Br	-0.547635	-0.876148	0.219728
H47	H	-0.000076	-0.542723	0.252321
H48	H	-0.000072	-0.421450	-0.025282
Br49	Br	-0.000067	-0.607725	-0.063231
H50	H	0.168494	-0.992527	-0.316916
