data_functionalizedCrystal
_audit_creation_method	'MofGen! by Chris Wilmer'
_symmetry_space_group_name_H-M	'P1'
_symmetry_Int_Tables_number	1
_symmetry_cell_setting	triclinic
loop_
_symmetry_equiv_pos_as_xyz
  x,y,z
_cell_length_a	10.967926
_cell_length_b	6.394989
_cell_length_c	10.065875
_cell_angle_alpha	80.951547
_cell_angle_beta	93.120479
_cell_angle_gamma	94.416384
loop_
_atom_site_label
_atom_site_type_symbol
_atom_site_fract_x
_atom_site_fract_y
_atom_site_fract_z
O1	O	1.618414	-0.364675	0.267159
O2	O	1.268460	-0.370646	0.184850
O3	O	1.448405	-0.063983	0.227172
O4	O	1.438470	-0.671338	0.224837
O5	O	1.414095	-0.122706	0.446091
O6	O	1.234151	-0.429369	0.403769
O7	O	1.584105	-0.423397	0.486079
Zn8	Zn	1.403681	-0.435706	0.479682
Zn9	Zn	1.448884	-0.358337	0.191247
O10	O	1.404160	-0.730060	0.443757
C11	C	1.206438	-0.395136	0.283757
C12	C	1.072748	-0.380595	0.252312
C13	C	0.995371	-0.404532	0.351700
C14	C	0.857195	-0.389504	0.319203
C15	C	1.646127	-0.398907	0.387169
C16	C	1.779819	-0.413445	0.418605
C17	C	1.429287	-0.015369	0.336165
C18	C	1.423283	0.221334	0.334752
N19	N	1.372839	-0.488508	0.676534
N20	N	1.479735	-0.305520	-0.005603
C21	C	1.438146	-0.376695	0.759673
C22	C	1.414419	-0.417349	0.911260
H23	H	0.821150	-0.357878	0.210048
H24	H	1.340932	-0.543175	0.952297
N25	N	1.043108	-0.446409	0.496284
H26	H	1.135050	-0.451209	0.499004
H27	H	1.005246	-0.586815	0.541441
H28	H	1.553213	-0.179678	0.953358
H29	H	0.815862	-0.445059	0.527761
N30	N	1.025013	-0.338689	0.107728
H31	H	0.933071	-0.333886	0.105008
H32	H	1.047283	-0.455878	0.058898
H33	H	1.299357	-0.614325	0.717577
H34	H	1.511619	-0.250861	0.718629
