data_functionalizedCrystal
_audit_creation_method	'MofGen! by Chris Wilmer'
_symmetry_space_group_name_H-M	'P1'
_symmetry_Int_Tables_number	1
_symmetry_cell_setting	triclinic
loop_
_symmetry_equiv_pos_as_xyz
  x,y,z
_cell_length_a	11.169417
_cell_length_b	18.215405
_cell_length_c	11.169417
_cell_angle_alpha	90.012063
_cell_angle_beta	90.000863
_cell_angle_gamma	90.023610
loop_
_atom_site_label
_atom_site_type_symbol
_atom_site_fract_x
_atom_site_fract_y
_atom_site_fract_z
Zn1	Zn	1.834634	-0.293087	0.678505
Zn2	Zn	2.167968	0.040246	1.011838
Zn3	Zn	2.501301	0.373580	1.345172
Zn4	Zn	1.834547	-0.416125	0.477806
Zn5	Zn	2.167880	-0.082792	0.811140
Zn6	Zn	2.501213	0.250542	1.144473
Zn7	Zn	1.633987	-0.293079	0.477840
Zn8	Zn	1.967320	0.040255	0.811173
Zn9	Zn	2.300653	0.373588	1.144506
Zn10	Zn	1.633884	-0.416118	0.678451
Zn11	Zn	1.967218	-0.082785	1.011784
Zn12	Zn	2.300551	0.250548	1.345118
O13	O	1.734263	-0.354602	0.578151
O14	O	2.067596	-0.021269	0.911484
O15	O	2.400930	0.312064	1.244817
O16	O	2.002572	-0.309415	0.651891
O17	O	2.335906	0.023919	0.985224
O18	O	2.669239	0.357252	1.318557
O19	O	1.807948	-0.399802	0.309861
O20	O	2.141281	-0.066469	0.643194
O21	O	2.474615	0.266865	0.976528
O22	O	1.660682	-0.190096	0.504495
O23	O	1.994016	0.143238	0.837828
O24	O	2.327349	0.476571	1.171161
O25	O	2.002508	-0.399810	0.504438
O26	O	2.335841	-0.066477	0.837772
O27	O	2.669175	0.266857	1.171105
O28	O	1.808097	-0.190102	0.651923
O29	O	2.141431	0.143232	0.985256
O30	O	2.474764	0.476565	1.318589
O31	O	1.660598	-0.309401	0.309885
O32	O	1.993931	0.023933	0.643219
O33	O	2.327264	0.357266	0.976552
O34	O	1.466023	-0.309394	0.504442
O35	O	1.799357	0.023939	0.837776
O36	O	2.132690	0.357273	1.171109
O37	O	1.660508	-0.399798	0.846408
O38	O	1.993841	-0.066465	1.179741
O39	O	2.327175	0.266868	1.513075
O40	O	1.465948	-0.399790	0.651831
O41	O	1.799282	-0.066457	0.985164
O42	O	2.132615	0.266876	1.318498
O43	O	1.807998	-0.309408	0.846447
O44	O	2.141332	0.023925	1.179781
O45	O	2.474665	0.357259	1.513114
O46	O	1.807849	-0.519108	0.504386
O47	O	2.141182	-0.185775	0.837719
O48	O	2.474516	0.147558	1.171053
O49	O	1.660423	-0.519103	0.651799
O50	O	1.993756	-0.185770	0.985132
O51	O	2.327090	0.147563	1.318465
C52	C	1.422438	-0.354591	0.578135
C53	C	1.755772	-0.021258	0.911468
C54	C	2.089105	0.312076	1.244802
C55	C	1.289038	-0.354604	0.578157
C56	C	1.622372	-0.021271	0.911490
C57	C	1.955705	0.312063	1.244824
C58	C	1.734148	-0.545809	0.578109
C59	C	2.067481	-0.212475	0.911443
C60	C	2.400815	0.120858	1.244776
C61	C	1.734209	-0.627607	0.578132
C62	C	2.067542	-0.294274	0.911465
C63	C	2.400875	0.039059	1.244798
C64	C	1.811004	-0.815743	0.655001
C65	C	2.144337	-0.482410	0.988335
C66	C	2.477671	-0.149077	1.321668
C67	C	1.811048	-0.892602	0.655024
C68	C	2.144381	-0.559269	0.988357
C69	C	2.477714	-0.225936	1.321690
C70	C	1.657670	-0.892709	0.501374
C71	C	1.991004	-0.559376	0.834707
C72	C	2.324337	-0.226042	1.168041
C73	C	1.657622	-0.815852	0.501359
C74	C	1.990955	-0.482518	0.834692
C75	C	2.324288	-0.149185	1.168025
C76	C	1.734295	-0.777371	0.578170
C77	C	2.067629	-0.444038	0.911504
C78	C	2.400962	-0.110704	1.244837
C79	C	1.734388	-0.931087	0.578208
C80	C	2.067721	-0.597754	0.911542
C81	C	2.401054	-0.264420	1.244875
C82	C	1.734434	-1.014421	0.578232
C83	C	2.067768	-0.681087	0.911566
C84	C	2.401101	-0.347754	1.244899
C85	C	1.734247	-0.694032	0.578148
C86	C	2.067581	-0.360699	0.911482
C87	C	2.400914	-0.027365	1.244815
C88	C	2.047305	-0.354614	0.578167
C89	C	2.380639	-0.021281	0.911500
C90	C	2.713972	0.312053	1.244833
C91	C	2.180705	-0.354619	0.578174
C92	C	2.514039	-0.021286	0.911507
C93	C	2.847372	0.312048	1.244840
C94	C	1.734252	-0.354603	0.891193
C95	C	2.067585	-0.021270	1.224526
C96	C	2.400918	0.312063	1.557859
C97	C	1.734247	-0.354604	1.024593
C98	C	2.067580	-0.021271	1.357926
C99	C	2.400913	0.312063	1.691259
C100	C	1.734411	-0.162649	0.578218
C101	C	2.067744	0.170684	0.911552
C102	C	2.401078	0.504017	1.244885
C103	C	1.734474	-0.080850	0.578247
C104	C	2.067808	0.252483	0.911581
C105	C	2.401141	0.585816	1.244914
C106	C	1.734260	-0.354615	1.266326
C107	C	2.067594	-0.021281	1.599659
C108	C	2.400927	0.312052	1.932992
C109	C	1.734250	-0.354605	1.132926
C110	C	2.067583	-0.021272	1.466259
C111	C	2.400916	0.312062	1.799593
H112	H	1.873509	-0.923842	0.717590
H113	H	2.206842	-0.590508	1.050923
H114	H	2.540176	-0.257175	1.384257
H115	H	1.595150	-0.784607	0.438793
H116	H	1.928484	-0.451273	0.772127
H117	H	2.261817	-0.117940	1.105460
H118	H	1.595247	-0.924049	0.438835
H119	H	1.928581	-0.590716	0.772168
H120	H	2.261914	-0.257383	1.105501
H121	H	1.873435	-0.784414	0.717548
H122	H	2.206768	-0.451081	1.050881
H123	H	2.540101	-0.117748	1.384215
