data_functionalizedCrystal
_audit_creation_method	'MofGen! by Chris Wilmer'
_symmetry_space_group_name_H-M	'P1'
_symmetry_Int_Tables_number	1
_symmetry_cell_setting	triclinic
loop_
_symmetry_equiv_pos_as_xyz
  x,y,z
_cell_length_a	14.971482
_cell_length_b	27.732064
_cell_length_c	13.448316
_cell_angle_alpha	89.997477
_cell_angle_beta	89.993798
_cell_angle_gamma	83.131016
loop_
_atom_site_label
_atom_site_type_symbol
_atom_site_fract_x
_atom_site_fract_y
_atom_site_fract_z
O1	O	1.185961	0.062982	-0.082670
O2	O	0.925442	0.070527	-0.082673
O3	O	1.063785	-0.003604	-0.082675
O4	O	1.047618	0.137113	-0.082668
O5	O	1.063768	-0.003609	0.082709
O6	O	0.925425	0.070522	0.082710
O7	O	1.185944	0.062977	0.082714
Cu8	Cu	1.055683	0.066749	0.097813
Cu9	Cu	1.055703	0.066755	-0.097772
O10	O	1.047601	0.137109	0.082716
C11	C	0.892114	0.070188	0.000018
C12	C	0.792833	0.069177	0.000016
C13	C	0.746186	0.068699	0.090168
C14	C	0.652903	0.067742	0.090169
C15	C	0.606267	0.067267	0.000017
C16	C	0.652920	0.067744	-0.090142
C17	C	0.746203	0.068697	-0.090142
C18	C	0.458489	0.065758	-0.090135
C19	C	0.365200	0.064805	-0.090136
C20	C	0.365189	0.064803	0.090175
C21	C	0.458472	0.065756	0.090175
C22	C	0.505119	0.066234	0.000016
C23	C	1.063435	-0.021615	0.000014
C24	C	1.062406	-0.075274	0.000004
C25	C	0.973649	-0.452756	-0.000001
C26	C	0.977435	-0.251078	-0.000002
O27	O	0.908563	-0.220143	-0.000043
N28	N	1.059470	-0.231573	-0.000001
C29	C	1.140564	-0.262490	-0.000006
O30	O	1.210427	-0.241272	-0.000016
C31	C	1.136777	-0.464167	-0.000012
C32	C	1.054737	-0.483669	-0.000003
C33	C	0.891616	-0.472259	0.000007
C34	C	0.890670	-0.522675	0.000013
C35	C	0.971758	-0.553589	0.000011
C36	C	1.053791	-0.534086	0.000003
C37	C	1.217870	-0.495083	-0.000024
C38	C	1.216916	-0.545505	-0.000028
C39	C	1.134876	-0.565008	-0.000019
C40	C	1.133933	-0.615416	0.000006
N41	N	1.051898	-0.634921	0.000005
C42	C	0.970811	-0.604008	0.000007
C43	C	1.142547	-0.156607	-0.000001
C44	C	1.143494	-0.106188	0.000002
C45	C	0.980365	-0.094779	0.000004
C46	C	0.979419	-0.145199	0.000008
C47	C	1.060512	-0.176112	-0.000002
C48	C	0.968831	-0.709886	0.000020
C49	C	0.967892	-0.760308	0.000030
C50	C	1.131021	-0.771712	0.000023
C51	C	1.131960	-0.721295	0.000018
C52	C	1.050858	-0.690383	0.000013
O53	O	1.202769	-0.646380	0.000036
O54	O	0.900958	-0.625235	-0.000005
C55	C	0.974595	-0.402340	-0.000007
C56	C	1.056628	-0.382837	-0.000015
C57	C	1.137716	-0.413750	-0.000017
C58	C	1.057575	-0.332418	-0.000011
C59	C	0.976488	-0.301504	-0.000009
C60	C	0.894453	-0.321010	-0.000010
C61	C	0.893507	-0.371426	-0.000004
C62	C	1.219751	-0.394245	-0.000016
C63	C	1.220690	-0.343828	-0.000020
C64	C	1.139602	-0.312914	-0.000018
C65	C	1.219272	0.063317	0.000021
C66	C	1.318553	0.064327	0.000016
C67	C	1.047951	0.155119	0.000025
C68	C	1.048980	0.208779	0.000028
N69	N	1.055675	0.066745	0.235377
N70	N	1.055718	0.066755	-0.235337
C71	C	1.116952	0.033933	0.287417
C72	C	1.116958	0.033933	0.391520
C73	C	1.055690	0.066747	0.443582
C74	C	0.994406	0.099561	0.391535
C75	C	0.994397	0.099558	0.287434
C76	C	0.994431	0.099564	0.608515
C77	C	0.994441	0.099567	0.712624
C78	C	1.116992	0.033939	0.712602
C79	C	1.116982	0.033936	0.608500
C80	C	1.055700	0.066751	0.556461
H81	H	0.496466	0.066147	-0.163553
H82	H	0.902789	-0.684723	0.000016
H83	H	0.614942	0.067354	-0.163545
H84	H	0.823865	-0.538549	0.000011
H85	H	0.327205	0.064414	0.163586
H86	H	0.944550	0.126287	0.755007
Br87	Br	0.856545	-0.786772	0.000047
H88	H	0.944517	0.126277	0.433930
H89	H	1.208587	-0.181772	-0.000008
Br90	Br	0.870317	-0.052816	0.000009
H91	H	1.166853	0.007215	0.433890
H92	H	0.784181	0.069088	-0.163552
Br93	Br	1.200139	-0.010593	0.537841
Br94	Br	0.911256	0.144096	0.537893
Br95	Br	0.301908	0.064161	-0.212486
H96	H	0.825580	-0.447094	0.000005
Br97	Br	0.911226	0.144088	0.216809
H98	H	0.828428	-0.295831	-0.000002
Br99	Br	0.782161	-0.397885	0.000008
H100	H	1.287502	-0.327954	-0.000020
Br101	Br	0.809468	0.069349	0.212524
H102	H	0.912614	-0.161074	0.000020
H103	H	0.614929	0.067345	0.163579
H104	H	1.210299	-0.090314	0.000010
Br105	Br	1.329217	-0.468629	-0.000060
Br106	Br	1.326978	-0.587456	-0.000049
Br107	Br	1.243301	-0.694826	0.000048
Br108	Br	0.521762	0.066408	0.212525
H109	H	1.166889	0.007220	0.754978
H110	H	1.285784	-0.419410	-0.000019
Br111	Br	1.241063	-0.813675	0.000030
H112	H	1.166847	0.007214	0.245035
