data_functionalizedCrystal
_audit_creation_method	'MofGen! by Chris Wilmer'
_symmetry_space_group_name_H-M	'P1'
_symmetry_Int_Tables_number	1
_symmetry_cell_setting	triclinic
loop_
_symmetry_equiv_pos_as_xyz
  x,y,z
_cell_length_a	15.944551
_cell_length_b	14.044220
_cell_length_c	13.101039
_cell_angle_alpha	93.659868
_cell_angle_beta	93.361595
_cell_angle_gamma	91.656192
loop_
_atom_site_label
_atom_site_type_symbol
_atom_site_fract_x
_atom_site_fract_y
_atom_site_fract_z
O1	O	0.198266	-1.262927	-0.085109
O2	O	0.190957	-0.986959	-0.085135
O3	O	0.072901	-1.132479	-0.085112
O4	O	0.316322	-1.117408	-0.085132
O5	O	0.081387	-1.122038	0.085316
O6	O	0.199443	-0.976518	0.085293
O7	O	0.206752	-1.252486	0.085319
Zn8	Zn	0.204444	-1.112845	0.112365
Zn9	Zn	0.193264	-1.126601	-0.112181
O10	O	0.324807	-1.106967	0.085296
C11	C	0.192001	-0.946424	0.000076
C12	C	0.182459	-0.841198	0.000066
C13	C	0.045803	-1.126633	0.000102
C14	C	-0.047583	-1.124757	0.000102
N15	N	0.212075	-1.103463	0.265612
C16	C	-0.269531	-1.030074	0.000079
C17	C	-0.323071	-1.068894	0.084115
C18	C	-0.218563	-1.121364	0.000094
C19	C	-0.331419	-1.079209	-0.083914
C20	C	-0.383723	-1.118080	0.000082
C21	C	-0.270871	-1.160204	0.084199
C22	C	-0.279217	-1.170512	-0.083905
C23	C	-0.332734	-1.209397	0.000151
C24	C	-0.123419	-1.123253	0.000102
C25	C	-0.478865	-1.116197	0.000081
C26	C	0.351905	-1.112813	0.000079
C27	C	0.445291	-1.114689	0.000072
C28	C	0.205707	-1.293021	0.000106
C29	C	0.215249	-1.398248	0.000108
C30	C	0.165017	-0.648535	0.000088
C31	C	0.232688	-0.590906	0.000087
C32	C	0.222982	-0.483701	0.000099
C33	C	0.174721	-0.755749	0.000076
N34	N	0.185628	-1.135990	-0.265429
C35	C	0.222464	-1.090699	0.474653
C36	C	0.175242	-1.148750	0.525537
C37	C	0.181022	-1.141649	0.641855
C38	C	0.216684	-1.097800	0.358325
H39	H	-0.342534	-1.025929	0.155153
O40	O	0.121738	-1.214210	0.473142
C41	C	0.066829	-1.280750	0.307751
C42	C	0.127574	-1.206707	0.366965
H43	H	0.071514	-1.274696	0.221897
H44	H	0.084189	-1.355578	0.328543
H45	H	-0.000237	-1.266748	0.328989
H46	H	0.194660	-1.220620	0.345760
H47	H	0.110142	-1.131904	0.346169
O48	O	-0.236528	-0.939699	-0.000020
C49	C	-0.154281	-0.828300	-0.088620
C50	C	-0.191624	-0.930670	-0.088652
H51	H	-0.117953	-0.820973	-0.160260
H52	H	-0.207197	-0.775422	-0.087904
H53	H	-0.109997	-0.812735	-0.017621
H54	H	-0.235898	-0.946326	-0.159640
H55	H	-0.138665	-0.983492	-0.089315
O56	O	0.310565	-0.627930	0.000111
C57	C	0.459771	-0.595361	0.000013
C58	C	0.371632	-0.553297	0.000015
H59	H	0.509167	-0.535041	-0.000086
H60	H	0.471304	-0.636710	0.071345
H61	H	0.464085	-0.645488	-0.071303
H62	H	0.367255	-0.503130	0.071283
H63	H	0.360137	-0.512005	-0.071364
H64	H	0.099799	-0.617361	0.000099
O65	O	-0.255927	-1.221861	-0.168547
C66	C	-0.182659	-1.358072	-0.234462
C67	C	-0.208998	-1.300030	-0.138510
H68	H	-0.144698	-1.421273	-0.210211
H69	H	-0.241134	-1.385267	-0.283088
H70	H	-0.142595	-1.310597	-0.281128
H71	H	-0.249043	-1.347445	-0.091764
H72	H	-0.150488	-1.272825	-0.089960
O73	O	0.275859	-1.025136	0.527046
C74	C	0.330315	-0.958139	0.692446
C75	C	0.269823	-1.032442	0.633222
H76	H	0.325443	-0.964007	0.778299
H77	H	0.397496	-0.971890	0.671498
H78	H	0.312745	-0.883458	0.671373
H79	H	0.287315	-1.107153	0.654263
H80	H	0.202658	-1.018608	0.654175
H81	H	-0.244450	-1.194427	0.155322
H82	H	-0.360212	-1.285236	0.000205
H83	H	-0.357926	-1.044938	-0.154965
