data_functionalizedCrystal
_audit_creation_method	'MofGen! by Chris Wilmer'
_symmetry_space_group_name_H-M	'P1'
_symmetry_Int_Tables_number	1
_symmetry_cell_setting	triclinic
loop_
_symmetry_equiv_pos_as_xyz
  x,y,z
_cell_length_a	18.050591
_cell_length_b	18.050589
_cell_length_c	18.050582
_cell_angle_alpha	89.981795
_cell_angle_beta	90.004537
_cell_angle_gamma	89.970759
loop_
_atom_site_label
_atom_site_type_symbol
_atom_site_fract_x
_atom_site_fract_y
_atom_site_fract_z
Zn1	Zn	1.135292	0.295686	0.419729
Zn2	Zn	1.135203	0.419870	0.295549
Zn3	Zn	1.011112	0.295700	0.295576
Zn4	Zn	1.011060	0.419841	0.419720
O5	O	1.073167	0.357774	0.357643
O6	O	1.239205	0.312166	0.403249
O7	O	1.118727	0.403416	0.191628
O8	O	1.027644	0.191774	0.312060
O9	O	1.239140	0.403403	0.312014
O10	O	1.118879	0.191764	0.403275
O11	O	1.027557	0.312189	0.191648
O12	O	0.907180	0.312162	0.312051
O13	O	1.027555	0.403354	0.523646
O14	O	0.907142	0.403368	0.403259
O15	O	1.118828	0.312138	0.523653
O16	O	1.118676	0.523791	0.312005
O17	O	1.027468	0.523770	0.403233
C18	C	0.880215	0.357764	0.357658
C19	C	0.797669	0.357777	0.357681
C20	C	1.073077	0.550727	0.357631
C21	C	1.073107	0.633272	0.357651
C22	C	1.073196	0.357742	0.551349
C23	C	1.073208	0.357728	0.633895
C24	C	1.266872	0.357786	0.357630
C25	C	1.349418	0.357791	0.357624
C26	C	1.548833	0.407407	0.308028
C27	C	1.598256	0.339655	0.289878
C28	C	1.500548	0.357784	0.357643
C29	C	1.598207	0.425529	0.375777
C30	C	1.646534	0.357784	0.357660
C31	C	1.548884	0.289996	0.339457
C32	C	1.548831	0.375916	0.425388
C33	C	1.598232	0.308117	0.407263
C34	C	1.416450	0.357785	0.357631
C35	C	1.730630	0.357776	0.357672
C36	C	1.073277	0.164069	0.357672
C37	C	1.073324	0.081523	0.357684
C38	C	1.023557	0.832739	0.407243
C39	C	1.005459	0.882173	0.339479
C40	C	1.073180	0.784403	0.357660
C41	C	1.091314	0.882050	0.425432
C42	C	1.073249	0.930388	0.357676
C43	C	1.055046	0.832750	0.289860
C44	C	1.140933	0.832623	0.375859
C45	C	1.122861	0.882035	0.308049
C46	C	1.073138	0.700304	0.357653
C47	C	1.073291	1.014484	0.357676
C48	C	1.073181	0.357754	0.164691
C49	C	1.073312	0.357559	0.082146
C50	C	1.023612	0.407263	0.833342
C51	C	1.091367	0.425415	0.882722
C52	C	1.073245	0.357671	0.785025
C53	C	1.005527	0.339498	0.882727
C54	C	1.073274	0.357617	0.931011
C55	C	1.141036	0.375859	0.833319
C56	C	1.055150	0.289910	0.833319
C57	C	1.122952	0.308036	0.882677
C58	C	1.073227	0.357703	0.700927
C59	C	1.073300	0.357585	1.015107
H60	H	1.527144	0.449320	0.266032
H61	H	1.527105	0.391277	0.482655
H62	H	0.948246	0.324150	0.904430
C63	C	1.217496	0.396396	0.804655
C64	C	1.264979	0.409091	0.864656
C65	C	1.335420	0.428004	0.838278
H66	H	1.214143	0.440006	0.775377
H67	H	1.236430	0.356992	0.775345
H68	H	1.246050	0.448492	0.893953
H69	H	1.268354	0.365490	0.893939
H70	H	1.354353	0.388600	0.808968
H71	H	1.332059	0.471613	0.809001
H72	H	1.367647	0.436614	0.878984
H73	H	1.527309	0.232689	0.324060
H74	H	1.106625	0.903706	0.482740
C75	C	0.929157	0.911241	0.318812
C76	C	0.934385	0.953886	0.254220
C77	C	0.864109	0.980665	0.235160
H78	H	0.910471	0.940987	0.357991
H79	H	0.896625	0.870727	0.310506
H80	H	0.966905	0.994394	0.262530
H81	H	0.953059	0.924156	0.215027
H82	H	0.831577	0.940150	0.226853
H83	H	0.845429	1.010408	0.274343
H84	H	0.867646	1.009596	0.191329
C85	C	1.034516	0.803856	0.213486
C86	C	1.034669	0.726294	0.214382
C87	C	1.015748	0.699650	0.144045
H88	H	1.069539	0.821050	0.178179
H89	H	0.986541	0.821194	0.200478
H90	H	1.082637	0.708964	0.227381
H91	H	0.999646	0.709081	0.249675
H92	H	0.967774	0.716988	0.131037
H93	H	1.050773	0.716849	0.108744
H94	H	1.015843	0.647023	0.144646
C95	C	0.967578	0.803973	0.463182
C96	C	0.985992	0.830040	0.533869
C97	C	0.934435	0.803564	0.585412
H98	H	0.968212	0.751353	0.463201
H99	H	0.919478	0.820965	0.450182
H100	H	1.034079	0.813044	0.546865
H101	H	0.985353	0.882657	0.533874
H102	H	0.886335	0.820556	0.572412
H103	H	0.935072	0.750944	0.585424
H104	H	0.946917	0.821252	0.633377
C105	C	1.627178	0.319346	0.213448
C106	C	1.602172	0.371485	0.161717
C107	C	1.628809	0.352815	0.091304
H108	H	1.609586	0.271586	0.200122
H109	H	1.679806	0.319086	0.214098
H110	H	1.549555	0.371738	0.161064
H111	H	1.619762	0.419250	0.175018
H112	H	1.681437	0.352555	0.091954
H113	H	1.611215	0.305054	0.077986
H114	H	1.611852	0.388191	0.056197
H115	H	1.106690	0.482697	0.904423
C116	C	0.967687	0.463315	0.804595
C117	C	0.933383	0.498609	0.864542
C118	C	0.881872	0.550256	0.838089
H119	H	0.931341	0.438628	0.775654
H120	H	0.992368	0.499107	0.774934
H121	H	0.908703	0.462823	0.894191
H122	H	0.969709	0.523311	0.893490
H123	H	0.906552	0.586047	0.808428
H124	H	0.845531	0.525563	0.809148
H125	H	0.858595	0.574213	0.878758
C126	C	1.178746	0.910827	0.252032
C127	C	1.142264	0.954543	0.199326
C128	C	1.193719	0.981089	0.147716
H129	H	1.202096	0.870226	0.228036
H130	H	1.215043	0.939796	0.276775
H131	H	1.105981	0.925575	0.174585
H132	H	1.118917	0.995155	0.223300
H133	H	1.230015	1.010057	0.172459
H134	H	1.217066	0.940483	0.123725
H135	H	1.168974	1.010758	0.111952
H136	H	1.619783	0.266104	0.449229
H137	H	1.198184	0.810844	0.391271
C138	C	1.178943	0.251975	0.911273
C139	C	1.160425	0.181358	0.885112
C140	C	1.211996	0.129701	0.911428
H141	H	1.178415	0.251868	0.963894
H142	H	1.227019	0.264939	0.894236
H143	H	1.112362	0.168397	0.902153
H144	H	1.160959	0.181441	0.832494
H145	H	1.260071	0.142665	0.894391
H146	H	1.211463	0.129600	0.964049
H147	H	1.199442	0.081782	0.893677
C148	C	1.626994	0.501985	0.396125
C149	C	1.601947	0.553706	0.343997
C150	C	1.628440	0.624146	0.362715
H151	H	1.679615	0.501427	0.396415
H152	H	1.609322	0.515246	0.443892
H153	H	1.619623	0.540449	0.296241
H154	H	1.549330	0.554287	0.343699
H155	H	1.610768	0.637408	0.410483
H156	H	1.681060	0.623581	0.363005
H157	H	1.611444	0.659249	0.327353
C158	C	1.034542	0.213581	0.804392
C159	C	0.963539	0.194868	0.829366
C160	C	0.944517	0.124564	0.802723
H161	H	1.069245	0.178132	0.822000
H162	H	1.035086	0.214039	0.751763
H163	H	0.963001	0.194404	0.881983
H164	H	0.928820	0.230298	0.811760
H165	H	0.945061	0.125023	0.750094
H166	H	0.979225	0.089122	0.820333
H167	H	0.896338	0.111861	0.819658
