data_functionalizedCrystal
_audit_creation_method	'MofGen! by Chris Wilmer'
_symmetry_space_group_name_H-M	'P1'
_symmetry_Int_Tables_number	1
_symmetry_cell_setting	triclinic
loop_
_symmetry_equiv_pos_as_xyz
  x,y,z
_cell_length_a	13.897449
_cell_length_b	13.897448
_cell_length_c	18.215399
_cell_angle_alpha	89.971263
_cell_angle_beta	89.984477
_cell_angle_gamma	90.018972
loop_
_atom_site_label
_atom_site_type_symbol
_atom_site_fract_x
_atom_site_fract_y
_atom_site_fract_z
Zn1	Zn	1.474653	-0.383969	-0.416099
Zn2	Zn	1.974653	0.116031	0.083901
Zn3	Zn	1.474562	-0.545285	-0.293036
Zn4	Zn	1.974562	-0.045285	0.206964
Zn5	Zn	1.313357	-0.384010	-0.293049
Zn6	Zn	1.813357	0.115990	0.206951
Zn7	Zn	1.313324	-0.545227	-0.416064
Zn8	Zn	1.813324	-0.045227	0.083936
O9	O	1.393974	-0.464623	-0.354562
O10	O	1.893974	0.035377	0.145438
O11	O	1.609622	-0.405375	-0.399783
O12	O	2.109622	0.094625	0.100217
O13	O	1.453153	-0.523933	-0.190053
O14	O	1.953153	-0.023933	0.309947
O15	O	1.334805	-0.249023	-0.309392
O16	O	1.834805	0.250977	0.190608
O17	O	1.609555	-0.523894	-0.309370
O18	O	2.109555	-0.023894	0.190630
O19	O	1.453309	-0.248993	-0.399796
O20	O	1.953309	0.251007	0.100204
O21	O	1.334717	-0.405445	-0.190063
O22	O	1.834717	0.094555	0.309937
O23	O	1.178371	-0.405388	-0.309358
O24	O	1.678371	0.094612	0.190642
O25	O	1.334749	-0.523795	-0.519053
O26	O	1.834749	-0.023795	-0.019053
O27	O	1.178347	-0.523834	-0.399736
O28	O	1.678347	-0.023834	0.100264
O29	O	1.453277	-0.405319	-0.519078
O30	O	1.953277	0.094681	-0.019078
O31	O	1.453121	-0.680259	-0.309336
O32	O	1.953121	-0.180259	0.190664
O33	O	1.334660	-0.680217	-0.399724
O34	O	1.834660	-0.180217	0.100276
C35	C	1.393903	-0.715237	-0.354540
C36	C	1.893903	-0.215237	0.145460
C37	C	1.393962	-0.822451	-0.354556
C38	C	1.893962	-0.322451	0.145444
C39	C	1.143360	-0.464610	-0.354545
C40	C	1.643360	0.035390	0.145455
C41	C	1.036146	-0.464628	-0.354555
C42	C	1.536146	0.035372	0.145445
C43	C	0.839850	-0.464631	-0.354574
C44	C	1.339850	0.035369	0.145426
C45	C	0.949083	-0.464626	-0.354562
C46	C	1.449083	0.035374	0.145438
C47	C	1.394063	-1.018746	-0.354602
C48	C	1.894063	-0.518746	0.145398
C49	C	1.394004	-0.909514	-0.354579
C50	C	1.894004	-0.409514	0.145421
C51	C	1.645567	-0.464636	-0.354579
C52	C	2.145567	0.035364	0.145421
C53	C	1.752781	-0.464642	-0.354586
C54	C	2.252781	0.035358	0.145414
C55	C	1.394019	-0.464546	-0.546515
C56	C	1.894019	0.035454	-0.046515
C57	C	1.394039	-0.464513	-0.628314
C58	C	1.894039	0.035487	-0.128314
C59	C	1.394071	-0.213030	-0.354599
C60	C	1.894071	0.286970	0.145401
C61	C	1.394112	-0.105816	-0.354615
C62	C	1.894112	0.394184	0.145385
C63	C	1.332421	-0.402774	-0.816514
C64	C	1.832421	0.097226	-0.316514
C65	C	1.332438	-0.402755	-0.893372
C66	C	1.832438	0.097245	-0.393372
C67	C	1.455772	-0.526137	-0.893352
C68	C	1.955772	-0.026137	-0.393352
C69	C	1.455750	-0.526160	-0.816494
C70	C	1.955750	-0.026160	-0.316494
C71	C	1.394076	-0.464473	-0.778077
C72	C	1.894076	0.035527	-0.278077
C73	C	1.394115	-0.464430	-0.931793
C74	C	1.894115	0.035570	-0.431793
C75	C	1.394133	-0.464410	-1.015127
C76	C	1.894133	0.035590	-0.515127
C77	C	1.394055	-0.464495	-0.694738
C78	C	1.894055	0.035505	-0.194738
C79	C	1.393984	-0.464630	-0.163355
C80	C	1.893984	0.035370	0.336645
C81	C	1.394151	-0.464391	-0.081557
C82	C	1.894151	0.035609	0.418443
H83	H	1.282232	-0.352514	-0.924664
H84	H	1.782232	0.147486	-0.424664
H85	H	1.505985	-0.576359	-0.924640
H86	H	2.005985	-0.076359	-0.424640
O87	O	1.515598	-0.586232	-0.779233
O88	O	2.015598	-0.086232	-0.279233
C89	C	1.494473	-0.682364	-0.797979
C90	C	1.994473	-0.182364	-0.297979
H91	H	1.457413	-0.684347	-0.853782
H92	H	1.957413	-0.184347	-0.353782
H93	H	1.444853	-0.714863	-0.754716
H94	H	1.944853	-0.214863	-0.254716
C95	C	1.634006	-0.738360	-0.732978
C96	C	2.134006	-0.238360	-0.232978
C97	C	1.588495	-0.740796	-0.801519
C98	C	2.088495	-0.240796	-0.301519
H99	H	1.692002	-0.774406	-0.735158
H100	H	2.192002	-0.274406	-0.235158
H101	H	1.648237	-0.673595	-0.720346
H102	H	2.148237	-0.173595	-0.220346
H103	H	1.592647	-0.765441	-0.696932
H104	H	2.092647	-0.265441	-0.196932
H105	H	1.629850	-0.713705	-0.837561
H106	H	2.129850	-0.213705	-0.337561
H107	H	1.574274	-0.805559	-0.814157
H108	H	2.074274	-0.305559	-0.314157
O109	O	1.272415	-0.342832	-0.779308
O110	O	1.772415	0.157168	-0.279308
C111	C	1.218016	-0.288357	-0.829719
C112	C	1.718016	0.211643	-0.329719
H113	H	1.214684	-0.327849	-0.884497
H114	H	1.714684	0.172151	-0.384497
H115	H	1.253361	-0.215093	-0.837908
H116	H	1.753361	0.284907	-0.337908
C117	C	1.119442	-0.225964	-0.732444
C118	C	1.619442	0.274036	-0.232444
C119	C	1.115342	-0.274473	-0.799723
C120	C	1.615342	0.225527	-0.299723
H121	H	1.056109	-0.217395	-0.713941
H122	H	1.556109	0.282605	-0.213941
H123	H	1.156093	-0.262662	-0.698481
H124	H	1.656093	0.237338	-0.198481
H125	H	1.148900	-0.164916	-0.739278
H126	H	1.648900	0.335084	-0.239278
H127	H	1.085895	-0.335524	-0.792886
H128	H	1.585895	0.164476	-0.292886
H129	H	1.078683	-0.237785	-0.833684
H130	H	1.578683	0.262215	-0.333684
