data_functionalizedCrystal
_audit_creation_method	'MofGen! by Chris Wilmer'
_symmetry_space_group_name_H-M	'P1'
_symmetry_Int_Tables_number	1
_symmetry_cell_setting	triclinic
loop_
_symmetry_equiv_pos_as_xyz
  x,y,z
_cell_length_a	12.837943
_cell_length_b	14.519709
_cell_length_c	11.295483
_cell_angle_alpha	94.101713
_cell_angle_beta	85.461227
_cell_angle_gamma	89.254542
loop_
_atom_site_label
_atom_site_type_symbol
_atom_site_fract_x
_atom_site_fract_y
_atom_site_fract_z
O1	O	1.382869	0.234188	-0.099009
O2	O	1.081042	0.222343	-0.099016
O3	O	1.239958	0.094719	-0.099002
O4	O	1.223954	0.361812	-0.099023
O5	O	1.226000	0.105910	0.099048
O6	O	1.067084	0.233533	0.099034
O7	O	1.368911	0.245379	0.099040
Cu8	Cu	1.216723	0.240478	0.117121
Cu9	Cu	1.233230	0.227244	-0.117096
O10	O	1.209996	0.373002	0.099026
C11	C	1.035435	0.223937	0.000008
C12	C	0.920336	0.212002	0.000006
C13	C	0.679643	0.355473	0.000011
C14	C	0.571497	0.344264	0.000010
C15	C	0.595894	0.178377	0.000011
C16	C	0.704041	0.189586	0.000012
C17	C	0.745911	0.278137	0.000011
C18	C	0.854060	0.289344	0.000003
C19	C	0.878455	0.123458	0.000013
C20	C	0.770308	0.112249	0.000011
C21	C	1.232233	0.065890	0.000023
C22	C	1.229997	-0.036684	0.000024
C23	C	1.221771	-0.412293	-0.000007
C24	C	1.224055	-0.307787	0.000002
C25	C	1.225884	-0.224492	0.000010
C26	C	1.228169	-0.119979	0.000016
C27	C	1.414518	0.243785	0.000014
C28	C	1.529618	0.255719	0.000008
C29	C	1.217721	0.401831	-0.000001
C30	C	1.219957	0.504405	-0.000010
N31	N	1.205121	0.249786	0.281856
N32	N	1.244841	0.217929	-0.281831
C33	C	1.328362	0.150873	0.531156
C34	C	1.319601	0.157915	0.655819
C35	C	1.178834	0.270905	0.655847
C36	C	1.187595	0.263863	0.531184
C37	C	1.262362	0.203847	0.468843
C38	C	1.271127	0.196811	0.344178
C39	C	1.130356	0.309795	0.344208
C40	C	1.121596	0.316837	0.468871
H41	H	0.561777	0.106288	0.000111
O42	O	1.383749	0.106595	0.716481
C43	C	1.442756	0.165713	0.788550
H44	H	1.400288	0.235299	0.807235
H45	H	1.452927	0.133612	0.876209
H46	H	1.522767	0.176034	0.740485
O47	O	0.720434	0.441449	0.000163
C48	C	0.775009	0.458701	0.102750
H49	H	0.799390	0.390300	0.136955
H50	H	0.847522	0.500382	0.079679
H51	H	0.722249	0.499371	0.174570
O52	O	1.066392	0.361306	0.283549
C53	C	1.127096	0.419062	0.211456
H54	H	1.209464	0.388430	0.192760
H55	H	1.090012	0.424892	0.123803
H56	H	1.130897	0.490563	0.259507
H57	H	1.117954	0.319762	0.706621
O58	O	1.048921	0.375011	0.529567
C59	C	0.979782	0.324034	0.601670
H60	H	1.019623	0.256556	0.620335
H61	H	0.957295	0.366034	0.689338
H62	H	0.906521	0.308291	0.553645
H63	H	0.517545	0.407240	0.000014
H64	H	1.332009	0.147945	0.293421
O65	O	1.400884	0.092456	0.470631
C66	C	1.381762	0.001373	0.501102
H67	H	1.296352	-0.004494	0.535403
H68	H	1.399364	-0.048481	0.419105
H69	H	1.434106	-0.016557	0.573437
O70	O	0.894624	0.375397	-0.000155
C71	C	0.868022	0.417319	-0.102739
H72	H	0.795380	0.383663	-0.136937
H73	H	0.851533	0.494114	-0.079666
H74	H	0.935640	0.408079	-0.174564
O75	O	0.729594	0.026243	-0.000201
C76	C	0.674971	0.009020	-0.102757
H77	H	0.705690	0.055420	-0.174446
H78	H	0.686956	-0.066408	-0.137192
H79	H	0.588098	0.024118	-0.079564
H80	H	0.932423	0.060485	0.000004
