data_functionalizedCrystal
_audit_creation_method	'MofGen! by Chris Wilmer'
_symmetry_space_group_name_H-M	'P1'
_symmetry_Int_Tables_number	1
_symmetry_cell_setting	triclinic
loop_
_symmetry_equiv_pos_as_xyz
  x,y,z
_cell_length_a	10.654562
_cell_length_b	17.038272
_cell_length_c	9.130313
_cell_angle_alpha	89.998262
_cell_angle_beta	89.996930
_cell_angle_gamma	87.800830
loop_
_atom_site_label
_atom_site_type_symbol
_atom_site_fract_x
_atom_site_fract_y
_atom_site_fract_z
O1	O	1.678031	0.109922	-0.121898
O2	O	1.313526	0.120380	-0.121880
O3	O	1.493612	0.001324	-0.121877
O4	O	1.497945	0.228979	-0.121901
O5	O	1.493610	0.001327	0.121721
O6	O	1.313524	0.120383	0.121719
O7	O	1.678029	0.109925	0.121701
Cu8	Cu	1.495777	0.115155	0.143952
Cu9	Cu	1.495779	0.115151	-0.144132
O10	O	1.497943	0.228982	0.121698
C11	C	1.266656	0.119612	-0.000078
C12	C	1.127000	0.117308	-0.000071
C13	C	1.061368	0.116235	0.132703
C14	C	0.930145	0.114077	0.132679
C15	C	0.930197	0.114068	-0.132906
C16	C	1.061418	0.116220	-0.132880
C17	C	1.061337	0.116244	0.286037
C18	C	0.930114	0.114086	0.286013
C19	C	1.489671	-0.027825	-0.000078
C20	C	1.477914	-0.114684	-0.000078
C21	C	1.585857	-0.164192	-0.000082
C22	C	1.574803	-0.245805	-0.000095
C23	C	1.455803	-0.277908	-0.000094
C24	C	1.347852	-0.228393	-0.000095
C25	C	1.358907	-0.146782	-0.000092
C26	C	1.416746	-0.523885	-0.000112
C27	C	1.405698	-0.605502	-0.000111
C28	C	1.632651	-0.622908	-0.000114
C29	C	1.643696	-0.541295	-0.000102
C30	C	1.535744	-0.491788	-0.000110
C31	C	1.444501	-0.361329	-0.000103
C32	C	1.547047	-0.408368	-0.000112
C33	C	1.724900	0.110694	-0.000104
C34	C	1.864556	0.112997	-0.000121
C35	C	1.501885	0.258131	-0.000105
C36	C	1.513642	0.344990	-0.000115
N37	N	1.495784	0.115157	0.346575
N38	N	1.495781	0.115142	-0.346754
C39	C	1.575550	0.062457	0.423228
C40	C	1.575545	0.062447	0.576565
C41	C	1.416006	0.167845	0.576582
C42	C	1.416005	0.167850	0.423248
C43	C	1.667663	0.001608	0.423219
C44	C	1.667658	0.001599	0.576556
H45	H	1.096208	0.173300	0.333607
H46	H	0.895228	0.057033	0.333598
C47	C	1.133615	0.117399	-0.278927
H48	H	1.221159	0.118832	-0.259895
H49	H	1.107417	0.162582	-0.333503
H50	H	1.116824	0.071498	-0.333480
H51	H	1.351042	0.210756	0.360838
C52	C	0.858053	0.112878	-0.278983
H53	H	0.770501	0.111447	-0.259985
H54	H	0.884271	0.067692	-0.333537
H55	H	0.874865	0.158776	-0.333541
C56	C	0.874357	0.187127	0.365499
H57	H	0.940472	0.218634	0.398193
H58	H	0.826443	0.171143	0.447239
H59	H	0.821769	0.216673	0.300080
C60	C	1.117057	0.043209	0.365571
H61	H	1.050927	0.011707	0.398252
H62	H	1.164941	0.059199	0.447323
H63	H	1.169667	0.013656	0.300182
C64	C	1.631143	-0.079616	0.366993
H65	H	1.616112	-0.113023	0.447922
H66	H	1.697574	-0.101844	0.309186
H67	H	1.557190	-0.074089	0.309199
H68	H	1.662703	-0.286112	-0.000095
H69	H	1.328843	-0.483585	-0.000119
C70	C	1.774592	-0.505984	-0.000093
H71	H	1.765716	-0.450288	-0.000073
H72	H	1.819420	-0.522929	-0.085037
H73	H	1.819391	-0.522940	0.084870
C74	C	1.716758	-0.128886	-0.000083
H75	H	1.779461	-0.170063	-0.000101
H76	H	1.725791	-0.097414	0.084865
H77	H	1.725788	-0.097411	-0.085042
C78	C	1.751386	-0.677367	-0.000126
H79	H	1.727764	-0.730570	-0.000141
H80	H	1.799828	-0.667573	0.084816
H81	H	1.799814	-0.667563	-0.085091
C82	C	1.274793	-0.640814	-0.000135
H83	H	1.212083	-0.599641	-0.000157
H84	H	1.265749	-0.672292	0.084809
H85	H	1.265786	-0.672285	-0.085098
H86	H	1.250959	-0.254538	-0.000103
H87	H	1.351051	0.210746	0.639025
C88	C	1.240169	-0.092323	-0.000084
H89	H	1.167713	-0.123129	-0.000071
H90	H	1.239767	-0.060123	-0.085031
H91	H	1.239763	-0.060127	0.084876
H92	H	1.643936	-0.382227	-0.000145
C93	C	1.313606	-0.396641	-0.000102
H94	H	1.250894	-0.355470	-0.000107
H95	H	1.304576	-0.428124	0.084839
H96	H	1.304588	-0.428109	-0.085069
H97	H	1.760615	0.020664	0.375654
C98	C	1.619334	-0.075165	0.640810
H99	H	1.597821	-0.109346	0.563319
H100	H	1.547262	-0.063679	0.699381
H101	H	1.683126	-0.099837	0.699357
H102	H	1.765414	0.015005	0.618166
