data_functionalizedCrystal
_audit_creation_method	'MofGen! by Chris Wilmer'
_symmetry_space_group_name_H-M	'P1'
_symmetry_Int_Tables_number	1
_symmetry_cell_setting	triclinic
loop_
_symmetry_equiv_pos_as_xyz
  x,y,z
_cell_length_a	10.654541
_cell_length_b	17.699097
_cell_length_c	16.776229
_cell_angle_alpha	89.989262
_cell_angle_beta	89.993604
_cell_angle_gamma	83.886179
loop_
_atom_site_label
_atom_site_type_symbol
_atom_site_fract_x
_atom_site_fract_y
_atom_site_fract_z
O1	O	0.158888	1.005081	-0.066354
O2	O	0.179532	0.784836	-0.066341
O3	O	-0.013617	0.900023	-0.066343
O4	O	0.352038	0.889894	-0.066352
O5	O	-0.013629	0.900008	0.066233
O6	O	0.179520	0.784820	0.066235
O7	O	0.158877	1.005066	0.066222
Zn8	Zn	0.169197	0.894941	0.087278
Zn9	Zn	0.169212	0.894961	-0.087397
O10	O	0.352026	0.889878	0.066224
C11	C	0.178784	0.756626	-0.000051
C12	C	0.176556	0.672595	-0.000046
C13	C	0.162908	0.156798	-0.072346
C14	C	0.164993	0.235755	-0.072342
C15	C	0.166031	0.275220	-0.000071
C16	C	0.164971	0.235723	0.072201
C17	C	0.162878	0.156768	0.072196
C18	C	0.173412	0.554141	0.072221
C19	C	0.175510	0.633101	0.072221
C20	C	0.175527	0.633128	-0.072316
C21	C	0.173434	0.554173	-0.072321
C22	C	0.172368	0.514684	-0.000050
C23	C	0.170105	0.429070	-0.000055
C24	C	0.168302	0.360832	-0.000065
C25	C	-0.060408	0.899272	-0.000055
C26	C	-0.199813	0.897048	-0.000056
C27	C	-0.230184	1.034786	-0.000054
C28	C	-0.310860	1.102607	-0.000052
C29	C	-0.441842	1.100513	-0.000054
C30	C	-0.492149	1.030590	-0.000062
C31	C	-0.411473	0.962769	-0.000064
C32	C	-0.280490	0.964871	-0.000060
C33	C	-0.381102	0.825032	-0.000072
C34	C	-0.250120	0.827125	-0.000064
C35	C	-0.431409	0.755109	-0.000079
C36	C	-0.350732	0.687287	-0.000076
C37	C	-0.219743	0.689384	-0.000073
C38	C	-0.169444	0.759304	-0.000067
C39	C	0.398817	0.890629	-0.000065
C40	C	0.538222	0.892853	-0.000069
N41	N	0.169185	0.894932	0.206489
C42	C	0.159625	1.033275	-0.000069
C43	C	0.161853	1.117307	-0.000080
N44	N	0.169214	0.894975	-0.206608
C45	C	0.083693	0.945953	0.248206
C46	C	0.083692	0.945957	0.331658
C47	C	0.169190	0.894944	0.373392
C48	C	0.254686	0.843917	0.331670
C49	C	0.254680	0.843910	0.248220
C50	C	0.254711	0.843945	0.668217
C51	C	0.254712	0.843957	0.751674
C52	C	0.083723	0.945992	0.751656
C53	C	0.083717	0.945985	0.668205
C54	C	0.169208	0.894956	0.626490
C55	C	0.169206	0.894951	0.536002
C56	C	0.169199	0.894952	0.463879
H57	H	0.176354	0.665231	0.131076
H58	H	-0.598802	1.028891	-0.000073
H59	H	0.172526	0.522000	0.131069
C60	C	-0.530593	1.175111	-0.000054
H61	H	-0.615803	1.163845	-0.000062
H62	H	-0.515380	1.203746	0.046178
H63	H	-0.515361	1.203759	-0.046292
H64	H	0.324296	0.802377	0.365655
C65	C	-0.575484	0.752804	-0.000080
H66	H	-0.616329	0.803209	-0.000069
H67	H	-0.599504	0.726905	-0.046313
H68	H	-0.599506	0.726884	0.046158
H69	H	0.014101	0.987527	0.634227
H70	H	0.162031	0.124614	0.131042
H71	H	0.324322	0.802397	0.634260
C72	C	0.348726	0.787790	0.202332
H73	H	0.399655	0.757414	0.239138
H74	H	0.303612	0.756048	0.169791
H75	H	0.400950	0.815289	0.169765
C76	C	-0.255521	1.179517	-0.000040
H77	H	-0.165959	1.171054	-0.000031
H78	H	-0.283216	1.207483	-0.046270
H79	H	-0.283236	1.207456	0.046200
H80	H	-0.391704	0.630361	-0.000088
H81	H	0.014077	0.987498	0.214231
H82	H	0.165808	0.267862	0.131045
C83	C	-0.086108	1.037089	-0.000042
H84	H	-0.045266	0.986684	-0.000038
H85	H	-0.062067	1.063012	-0.046268
H86	H	-0.062105	1.062985	0.046202
C87	C	-0.131009	0.614779	-0.000076
H88	H	-0.179734	0.572841	-0.000076
H89	H	-0.079268	0.612743	-0.046305
H90	H	-0.079296	0.612722	0.046165
H91	H	-0.062794	0.761018	-0.000059
H92	H	0.172595	0.522045	-0.131171
H93	H	0.014078	0.987502	0.365623
C94	C	-0.010329	1.002116	0.797544
H95	H	0.001904	0.994811	0.853222
H96	H	0.003208	1.052695	0.783852
H97	H	-0.094130	0.993454	0.783875
C98	C	0.348741	0.787826	0.797581
H99	H	0.399643	0.757426	0.760786
H100	H	0.400976	0.815314	0.830126
H101	H	0.303598	0.756097	0.830144
H102	H	0.165845	0.267906	-0.131188
C103	C	0.161770	0.113391	-0.151842
H104	H	0.160384	0.060710	-0.141498
H105	H	0.088914	0.131724	-0.181536
H106	H	0.235329	0.120950	-0.181535
C107	C	0.176685	0.676569	-0.151814
H108	H	0.178066	0.729245	-0.141465
H109	H	0.249549	0.658249	-0.181509
H110	H	0.103134	0.669021	-0.181507
