data_functionalizedCrystal
_audit_creation_method	'MofGen! by Chris Wilmer'
_symmetry_space_group_name_H-M	'P1'
_symmetry_Int_Tables_number	1
_symmetry_cell_setting	triclinic
loop_
_symmetry_equiv_pos_as_xyz
  x,y,z
_cell_length_a	11.792241
_cell_length_b	11.792241
_cell_length_c	10.268362
_cell_angle_alpha	90.005428
_cell_angle_beta	89.996292
_cell_angle_gamma	95.806584
loop_
_atom_site_label
_atom_site_type_symbol
_atom_site_fract_x
_atom_site_fract_y
_atom_site_fract_z
O1	O	1.506909	-0.155569	-0.108275
O2	O	1.176568	-0.171602	-0.108283
O3	O	1.349755	0.001585	-0.108270
O4	O	1.333722	-0.328756	-0.108289
O5	O	1.349740	0.001593	0.108331
O6	O	1.176553	-0.171594	0.108317
O7	O	1.506894	-0.155561	0.108326
Cu8	Cu	1.341722	-0.163577	0.128099
Cu9	Cu	1.341740	-0.163586	-0.128057
O10	O	1.333707	-0.328748	0.108312
C11	C	1.134269	-0.170591	0.000016
C12	C	1.008255	-0.167576	0.000013
C13	C	1.348740	0.043880	0.000030
C14	C	1.345726	0.169894	0.000029
C15	C	1.549192	-0.156572	0.000023
C16	C	1.675206	-0.159587	0.000018
C17	C	1.905918	-0.165130	0.000018
C18	C	1.777533	-0.162050	0.000018
C19	C	1.334721	-0.371043	0.000009
C20	C	1.337736	-0.497057	0.000002
N21	N	1.341717	-0.163571	0.308265
C22	C	1.340183	0.400606	0.000007
C23	C	1.343262	0.272221	0.000019
N24	N	1.341753	-0.163584	-0.308222
C25	C	1.341734	-0.163584	0.573935
C26	C	1.341721	-0.163580	0.426097
