data_functionalizedCrystal
_audit_creation_method	'MofGen! by Chris Wilmer'
_symmetry_space_group_name_H-M	'P1'
_symmetry_Int_Tables_number	1
_symmetry_cell_setting	triclinic
loop_
_symmetry_equiv_pos_as_xyz
  x,y,z
_cell_length_a	13.032831
_cell_length_b	13.897448
_cell_length_c	13.032268
_cell_angle_alpha	82.851959
_cell_angle_beta	89.113023
_cell_angle_gamma	82.822399
loop_
_atom_site_label
_atom_site_type_symbol
_atom_site_fract_x
_atom_site_fract_y
_atom_site_fract_z
Zn1	Zn	1.498483	-0.651422	0.780818
Zn2	Zn	1.998483	-0.151422	1.280818
Zn3	Zn	1.520226	-0.795137	0.608835
Zn4	Zn	2.020226	-0.295137	1.108835
Zn5	Zn	1.348341	-0.611127	0.587060
Zn6	Zn	1.848341	-0.111127	1.087060
Zn7	Zn	1.326474	-0.789922	0.758960
Zn8	Zn	1.826474	-0.289922	1.258960
O9	O	1.423381	-0.711902	0.683918
O10	O	1.923381	-0.211902	1.183918
O11	O	1.645288	-0.689533	0.776265
O12	O	2.145288	-0.189533	1.276265
O13	O	1.515676	-0.756047	0.462030
O14	O	2.015676	-0.256047	0.962030
O15	O	1.368309	-0.481501	0.612798
O16	O	1.868309	0.018499	1.112798
O17	O	1.661262	-0.795119	0.649909
O18	O	2.161262	-0.295119	1.149909
O19	O	1.478618	-0.511106	0.755151
O20	O	1.978618	-0.011106	1.255151
O21	O	1.389393	-0.620856	0.446032
O22	O	1.889393	-0.120856	0.946032
O23	O	1.201520	-0.615798	0.591603
O24	O	1.701520	-0.115798	1.091603
O25	O	1.331040	-0.786231	0.905776
O26	O	1.831040	-0.286231	1.405776
O27	O	1.185454	-0.747158	0.717897
O28	O	1.685454	-0.247158	1.217897
O29	O	1.457414	-0.684476	0.921835
O30	O	1.957414	-0.184476	1.421835
O31	O	1.494472	-0.929417	0.628714
O32	O	1.994472	-0.429417	1.128714
O33	O	1.352124	-0.925585	0.739010
O34	O	1.852124	-0.425585	1.239010
C35	C	1.156170	-0.676541	0.650016
C36	C	1.656170	-0.176541	1.150016
C37	C	1.041852	-0.661439	0.635536
C38	C	1.541852	-0.161439	1.135536
C39	C	1.423310	-0.962504	0.683879
C40	C	1.923310	-0.462504	1.183879
C41	C	1.423369	-1.069728	0.683909
C42	C	1.923369	-0.569728	1.183909
C43	C	0.982977	-0.719784	0.691475
C44	C	1.482977	-0.219784	1.191475
C45	C	0.864824	-0.704177	0.676511
C46	C	1.364824	-0.204177	1.176511
C47	C	1.423469	-1.266044	0.683987
C48	C	1.923469	-0.766044	1.183987
C49	C	1.423410	-1.156800	0.683946
C50	C	1.923410	-0.656800	1.183946
C51	C	1.691635	-0.747403	0.717954
C52	C	2.191635	-0.247403	1.217954
C53	C	1.805950	-0.762531	0.732458
C54	C	2.305950	-0.262531	1.232458
C55	C	1.389363	-0.739266	0.952165
C56	C	1.889363	-0.239266	1.452165
C57	C	1.374866	-0.750927	1.066476
C58	C	1.874866	-0.250927	1.566476
C59	C	1.423478	-0.460328	0.683984
C60	C	1.923478	0.039672	1.183984
C61	C	1.423519	-0.353122	0.684012
C62	C	1.923519	0.146878	1.184012
C63	C	1.457326	-0.684583	0.416723
C64	C	1.957326	-0.184583	0.916723
C65	C	1.472021	-0.672677	0.302438
C66	C	1.972021	-0.172677	0.802438
C67	C	1.430931	-0.705779	1.125385
C68	C	1.930931	-0.205779	1.625385
C69	C	1.415949	-0.717831	1.243531
C70	C	1.915949	-0.217831	1.743531
H71	H	1.020043	-0.781288	0.750448
H72	H	1.520043	-0.281288	1.250448
F73	F	0.854384	-0.842920	0.809555
F74	F	1.354384	-0.342920	1.309555
H75	H	1.490017	-0.658201	1.088351
H76	H	1.990017	-0.158201	1.588351
H77	H	1.356848	-0.765401	1.280558
H78	H	1.856848	-0.265401	1.780558
H79	H	1.531110	-0.625093	1.265411
H80	H	2.031110	-0.125093	1.765411
F81	F	0.816385	-0.623773	0.599433
F82	F	1.316385	-0.123773	1.099433
H83	H	1.004785	-0.599929	0.576571
H84	H	1.504785	-0.099929	1.076571
F85	F	1.297624	-0.813106	1.114874
F86	F	1.797624	-0.313106	1.614874
