data_functionalizedCrystal
_audit_creation_method	'MofGen! by Chris Wilmer'
_symmetry_space_group_name_H-M	'P1'
_symmetry_Int_Tables_number	1
_symmetry_cell_setting	triclinic
loop_
_symmetry_equiv_pos_as_xyz
  x,y,z
_cell_length_a	18.101395
_cell_length_b	18.050591
_cell_length_c	18.101389
_cell_angle_alpha	90.025013
_cell_angle_beta	90.016841
_cell_angle_gamma	90.027110
loop_
_atom_site_label
_atom_site_type_symbol
_atom_site_fract_x
_atom_site_fract_y
_atom_site_fract_z
Zn1	Zn	-0.294986	1.135308	0.418860
Zn2	Zn	-0.418812	1.135203	0.295022
Zn3	Zn	-0.294980	1.011118	0.295020
Zn4	Zn	-0.418782	1.011069	0.418809
O5	O	-0.356890	1.073174	0.356928
O6	O	-0.311427	1.239218	0.402455
O7	O	-0.402395	1.118720	0.191389
O8	O	-0.191348	1.027656	0.311468
O9	O	-0.402401	1.239142	0.311472
O10	O	-0.191352	1.118898	0.402453
O11	O	-0.311417	1.027555	0.191387
O12	O	-0.311387	0.907187	0.311419
O13	O	-0.402350	1.027572	0.522449
O14	O	-0.402344	0.907151	0.402366
O15	O	-0.311398	1.118850	0.522487
O16	O	-0.522441	1.118672	0.311422
O17	O	-0.522419	1.027471	0.402368
C18	C	-0.356862	0.880222	0.356887
C19	C	-0.356868	0.797676	0.356887
C20	C	-0.549301	1.073075	0.356906
C21	C	-0.631615	1.073100	0.356922
C22	C	-0.930706	1.073263	0.356962
C23	C	-0.899397	1.016015	0.414324
C24	C	-0.813779	1.015743	0.414145
C25	C	-0.782323	1.073182	0.356942
C26	C	-0.813459	1.051994	0.278891
C27	C	-0.899104	1.051625	0.279234
C28	C	-0.899058	1.151826	0.376964
C29	C	-0.813408	1.151364	0.378675
C30	C	-0.698464	1.073138	0.356927
C31	C	-1.014565	1.073306	0.356972
C32	C	-0.307349	0.598224	0.307544
C33	C	-0.374893	0.548800	0.289321
C34	C	-0.356891	0.646546	0.356921
C35	C	-0.289370	0.548889	0.375142
C36	C	-0.356907	0.500561	0.356952
C37	C	-0.424471	0.598209	0.338662
C38	C	-0.338902	0.598302	0.424515
C39	C	-0.406493	0.548900	0.406317
C40	C	-0.356881	0.730644	0.356901
C41	C	-0.356924	0.416464	0.356971
C42	C	-0.163728	1.073294	0.356966
C43	C	-0.081414	1.073345	0.356982
C44	C	-0.356871	1.073217	0.550090
C45	C	-0.356863	1.073236	0.632404
C46	C	-0.356918	1.266880	0.356970
C47	C	-0.356930	1.349426	0.356987
C48	C	-0.356855	1.073174	0.164518
C49	C	-0.356655	1.073300	0.082204
C50	C	-0.356724	1.073279	0.931495
C51	C	-0.413767	1.015652	0.900146
C52	C	-0.414032	1.015807	0.814528
C53	C	-0.356793	1.073257	0.783113
C54	C	-0.377983	1.151502	0.814220
C55	C	-0.378357	1.151181	0.899865
C56	C	-0.278365	1.053341	0.899917
C57	C	-0.278818	1.051600	0.814266
C58	C	-0.356831	1.073249	0.699253
C59	C	-0.356689	1.073292	1.015355
H60	H	-0.792727	1.029000	0.472019
F61	F	-0.214727	0.520566	0.395268
F62	F	-0.326377	1.209173	0.926976
F63	F	-0.499137	0.626405	0.318449
H64	H	-0.235866	1.095315	0.920192
F65	F	-0.396696	0.939969	0.787033
H66	H	-0.793083	1.092379	0.234985
F67	F	-0.926271	1.033167	0.490217
F68	F	-0.461324	0.520769	0.460914
H69	H	-0.262839	0.994019	0.793933
H70	H	-0.919304	1.194478	0.335184
H71	H	-0.920618	1.171144	0.432909
F72	F	-0.252646	0.626533	0.252909
H73	H	-0.435639	1.168082	0.919850
F74	F	-0.787073	0.939629	0.396830
F75	F	-0.325385	1.209132	0.787628
F76	F	-0.489213	1.032650	0.928327
F77	F	-0.927617	0.940366	0.397237
H78	H	-0.323654	0.620063	0.481647
H79	H	-0.434656	1.168696	0.792779
F80	F	-0.925294	0.976562	0.257089
F81	F	-0.926178	1.103755	0.221461
F82	F	-0.786808	1.172251	0.453756
F83	F	-0.396609	0.939581	0.927045
F84	F	-0.489941	1.033047	0.787755
F85	F	-0.253134	0.980060	0.928127
F86	F	-0.220317	1.102465	0.786323
H87	H	-0.792067	0.995174	0.261645
F88	F	-0.785410	1.210067	0.328052
F89	F	-0.394797	0.520379	0.214623
