data_functionalizedCrystal
_audit_creation_method	'MofGen! by Chris Wilmer'
_symmetry_space_group_name_H-M	'P1'
_symmetry_Int_Tables_number	1
_symmetry_cell_setting	triclinic
loop_
_symmetry_equiv_pos_as_xyz
  x,y,z
_cell_length_a	14.853569
_cell_length_b	15.995350
_cell_length_c	13.330367
_cell_angle_alpha	89.997588
_cell_angle_beta	89.994419
_cell_angle_gamma	83.563970
loop_
_atom_site_label
_atom_site_type_symbol
_atom_site_fract_x
_atom_site_fract_y
_atom_site_fract_z
O1	O	1.196221	0.109323	-0.083372
O2	O	1.696221	0.609323	0.416628
O3	O	0.933744	0.122344	-0.083384
O4	O	1.433744	0.622344	0.416616
O5	O	1.072157	-0.006046	-0.083377
O6	O	1.572157	0.493954	0.416623
O7	O	1.057807	0.237713	-0.083379
O8	O	1.557807	0.737713	0.416621
O9	O	1.072137	-0.006049	0.083470
O10	O	1.572137	0.493951	0.583470
O11	O	0.933724	0.122341	0.083463
O12	O	1.433724	0.622341	0.583463
O13	O	1.196201	0.109320	0.083475
O14	O	1.696201	0.609320	0.583475
Cu15	Cu	1.064960	0.115830	0.098703
Cu16	Cu	1.564960	0.615830	0.598703
Cu17	Cu	1.064984	0.115834	-0.098613
Cu18	Cu	1.564984	0.615834	0.401387
O19	O	1.057787	0.237710	0.083468
O20	O	1.557787	0.737710	0.583468
C21	C	0.900146	0.121752	0.000038
C22	C	1.400146	0.621752	0.500038
C23	C	0.800065	0.119984	0.000034
C24	C	1.300065	0.619984	0.500034
C25	C	1.071554	-0.037243	0.000045
C26	C	1.571554	0.462757	0.500045
C27	C	1.069775	-0.130195	0.000039
C28	C	1.569775	0.369805	0.500039
C29	C	0.763792	0.042888	0.000031
C30	C	1.263792	0.542888	0.500031
C31	C	0.742297	0.195418	0.000040
C32	C	1.242297	0.695418	0.500040
C33	C	0.648265	0.193759	0.000042
C34	C	1.148265	0.693759	0.500042
C35	C	0.611992	0.116663	0.000039
C36	C	1.111992	0.616663	0.500039
C37	C	0.669752	0.041226	0.000035
C38	C	1.169752	0.541226	0.500035
C39	C	0.590499	0.269195	0.000056
C40	C	1.090499	0.769195	0.500056
C41	C	0.496461	0.267538	0.000058
C42	C	0.996461	0.767538	0.500058
C43	C	0.460186	0.190441	0.000048
C44	C	0.960186	0.690441	0.500048
C45	C	0.517952	0.115001	0.000043
C46	C	1.017952	0.615001	0.500043
C47	C	0.481679	0.037905	0.000040
C48	C	0.981679	0.537905	0.500040
C49	C	0.539443	-0.037536	0.000028
C50	C	1.039443	0.462464	0.500028
C51	C	0.633477	-0.035871	0.000025
C52	C	1.133477	0.464129	0.500025
C53	C	0.366152	0.188777	0.000051
C54	C	0.866152	0.688777	0.500051
C55	C	0.387639	0.036244	0.000044
C56	C	0.887639	0.536244	0.500044
C57	C	1.063388	-0.467950	0.000042
C58	C	1.563388	0.032050	0.500042
C59	C	0.964813	-0.420631	-0.000337
C60	C	1.464813	0.079369	0.499663
C61	C	0.966591	-0.323939	0.000040
C62	C	1.466591	0.176061	0.500040
C63	C	1.066556	-0.300386	0.000040
C64	C	1.566556	0.199614	0.500040
C65	C	1.115166	-0.341408	0.095318
C66	C	1.615166	0.158592	0.595318
C67	C	1.112689	-0.438047	0.095398
C68	C	1.612689	0.061953	0.595398
C69	C	1.114749	-0.438399	-0.094339
C70	C	1.614749	0.061601	0.405661
C71	C	1.114725	-0.341454	-0.095598
C72	C	1.614725	0.158546	0.404402
C73	C	1.068352	-0.205686	0.000042
C74	C	1.568352	0.294314	0.500042
C75	C	1.061595	-0.562650	0.000047
C76	C	1.561595	-0.062650	0.500047
C77	C	1.229798	0.109912	0.000050
C78	C	1.729798	0.609912	0.500050
C79	C	1.329880	0.111681	0.000048
C80	C	1.829880	0.611681	0.500048
C81	C	1.058390	0.268907	0.000044
C82	C	1.558390	0.768907	0.500044
C83	C	1.060169	0.361859	0.000043
C84	C	1.560169	0.861859	0.500043
N85	N	1.064950	0.115828	0.237485
N86	N	1.564950	0.615828	0.737485
N87	N	1.065001	0.115830	-0.237394
N88	N	1.565001	0.615830	0.262606
C89	C	1.003692	0.172662	0.710105
C90	C	1.503692	0.672662	1.210105
C91	C	1.126300	0.058999	0.710079
C92	C	1.626300	0.558999	1.210079
C93	C	1.126290	0.058996	0.605061
C94	C	1.626290	0.558996	1.105061
C95	C	1.064981	0.115828	0.552559
C96	C	1.564981	0.615828	1.052559
C97	C	1.003682	0.172663	0.605077
C98	C	1.503682	0.672663	1.105077
C99	C	1.187594	0.002168	0.552535
C100	C	1.687594	0.502168	1.052535
C101	C	1.187587	0.002164	0.447511
C102	C	1.687587	0.502164	0.947511
C103	C	1.126273	0.058993	0.395008
C104	C	1.626273	0.558993	0.895008
C105	C	1.064971	0.115829	0.447531
C106	C	1.564971	0.615829	0.947531
C107	C	1.003661	0.172662	0.395030
C108	C	1.503661	0.672662	0.895030
C109	C	0.942354	0.229495	0.447552
C110	C	1.442354	0.729495	0.947552
C111	C	0.942367	0.229492	0.552574
C112	C	1.442367	0.729492	1.052574
C113	C	1.126259	0.058995	0.289986
C114	C	1.626259	0.558995	0.789986
C115	C	1.003651	0.172662	0.290002
C116	C	1.503651	0.672662	0.790002
H117	H	0.358114	-0.026538	0.000037
H118	H	0.858114	0.473462	0.500037
C119	C	1.193694	-0.003517	0.232217
C120	C	1.693694	0.496483	0.732217
N121	N	1.244487	-0.050606	0.188706
N122	N	1.744487	0.449394	0.688706
H123	H	1.082528	-0.458975	-0.166554
H124	H	1.582528	0.041025	0.333446
H125	H	0.953722	0.218939	0.247262
H126	H	1.453722	0.718939	0.747262
H127	H	1.237515	-0.044099	0.595285
H128	H	1.737515	0.455901	1.095285
C129	C	0.914963	-0.285598	-0.092225
C130	C	1.414963	0.214402	0.407775
N131	N	0.876069	-0.256722	-0.161719
N132	N	1.376069	0.243278	0.338281
C133	C	1.069529	-0.303128	0.191106
C134	C	1.569529	0.196872	0.691106
N135	N	1.035149	-0.274298	0.263252
N136	N	1.535149	0.225702	0.763252
C137	C	0.782201	0.280219	0.000050
C138	C	1.282201	0.780219	0.500050
N139	N	0.812259	0.344095	0.000055
N140	N	1.312259	0.844095	0.500055
H141	H	1.079186	-0.314245	-0.166082
H142	H	1.579186	0.185755	0.333918
H143	H	1.188607	-0.327197	0.098862
H144	H	1.688607	0.172803	0.598862
C145	C	0.827332	-0.040093	0.000025
C146	C	1.327332	0.459907	0.500025
N147	N	0.875191	-0.102595	0.000024
N148	N	1.375191	0.397405	0.500024
C149	C	0.914604	-0.286354	0.092465
C150	C	1.414604	0.213646	0.592465
N151	N	0.875446	-0.258046	0.162085
N152	N	1.375446	0.241954	0.662085
H153	H	0.319125	0.250200	0.000070
H154	H	0.819125	0.750200	0.500070
H155	H	1.185062	-0.470210	0.099721
H156	H	1.685062	0.029790	0.599721
C157	C	0.874916	0.292009	0.389787
C158	C	1.374916	0.792009	0.889787
N159	N	0.824123	0.339093	0.346274
N160	N	1.324123	0.839093	0.846274
C161	C	1.193737	-0.003513	0.767834
C162	C	1.693737	0.496487	1.267834
N163	N	1.244531	-0.050601	0.811339
N164	N	1.744531	0.449399	1.311339
H165	H	0.509898	-0.100308	0.000019
H166	H	1.009898	0.399692	0.500019
C167	C	0.630405	0.353994	0.000067
C168	C	1.130405	0.853994	0.500067
N169	N	0.660466	0.417869	0.000076
N170	N	1.160466	0.917869	0.500076
H171	H	1.077226	-0.456391	0.166619
H172	H	1.577226	0.043609	0.666619
H173	H	1.237506	-0.044113	0.404754
H174	H	1.737506	0.455887	0.904754
H175	H	0.449437	0.328967	0.000066
H176	H	0.949437	0.828967	0.500066
C177	C	0.697023	-0.118848	0.000030
C178	C	1.197023	0.381152	0.500030
N179	N	0.744890	-0.181346	0.000041
N180	N	1.244890	0.318654	0.500041
H181	H	0.953774	0.218933	0.752870
H182	H	1.453774	0.718933	1.252870
H183	H	0.925580	-0.440272	0.067606
H184	H	1.425580	0.059728	0.567606
C185	C	0.911588	-0.445736	-0.092635
C186	C	1.411588	0.054264	0.407365
N187	N	0.871498	-0.464653	-0.162155
N188	N	1.371498	0.035347	0.337845
H189	H	1.187624	-0.326007	-0.101350
H190	H	1.687624	0.173993	0.398650
H191	H	1.187428	-0.470075	-0.094979
H192	H	1.687428	0.029925	0.405021
C193	C	0.874931	0.291999	0.610355
C194	C	1.374931	0.791999	1.110355
N195	N	0.824137	0.339078	0.653880
N196	N	1.324137	0.839078	1.153880
