data_functionalizedCrystal
_audit_creation_method	'MofGen! by Chris Wilmer'
_symmetry_space_group_name_H-M	'P1'
_symmetry_Int_Tables_number	1
_symmetry_cell_setting	triclinic
loop_
_symmetry_equiv_pos_as_xyz
  x,y,z
_cell_length_a	16.120444
_cell_length_b	21.295420
_cell_length_c	16.120256
_cell_angle_alpha	87.122604
_cell_angle_beta	95.616860
_cell_angle_gamma	87.075933
loop_
_atom_site_label
_atom_site_type_symbol
_atom_site_fract_x
_atom_site_fract_y
_atom_site_fract_z
Zn1	Zn	-0.356822	-0.929939	-0.489488
Zn2	Zn	-0.489508	-0.929858	-0.356800
Zn3	Zn	-0.349747	-0.830293	-0.349730
Zn4	Zn	-0.496547	-0.819020	-0.496520
O5	O	-0.423156	-0.877278	-0.423135
O6	O	-0.374438	-1.018017	-0.471902
O7	O	-0.465062	-0.921335	-0.238899
O8	O	-0.233720	-0.848263	-0.362368
O9	O	-0.471922	-1.017957	-0.374417
O10	O	-0.238918	-0.921473	-0.465048
O11	O	-0.362380	-0.848185	-0.233706
O12	O	-0.369206	-0.740710	-0.369187
O13	O	-0.483918	-0.829050	-0.612550
O14	O	-0.477058	-0.732428	-0.477032
O15	O	-0.381263	-0.910542	-0.607383
O16	O	-0.607407	-0.910404	-0.381235
O17	O	-0.612579	-0.828972	-0.483887
C18	C	-0.423129	-0.713728	-0.423106
C19	C	-0.423138	-0.643760	-0.423114
C20	C	-0.479396	-0.140003	-0.479227
C21	C	-0.479397	-0.205746	-0.479220
C22	C	-0.423163	-0.242918	-0.423148
C23	C	-0.366939	-0.214342	-0.367065
C24	C	-0.366945	-0.148600	-0.367069
N25	N	-0.349661	-0.349352	-0.413152
N26	N	-0.349658	-0.411804	-0.413154
C27	C	-0.423143	-0.440994	-0.423133
N28	N	-0.496633	-0.405373	-0.433127
N29	N	-0.496636	-0.342915	-0.433130
C30	C	-0.423151	-0.314204	-0.423138
C31	C	-0.479369	-0.540848	-0.479201
C32	C	-0.479371	-0.606592	-0.479188
C33	C	-0.366906	-0.615187	-0.367037
C34	C	-0.366911	-0.549444	-0.367046
C35	C	-0.423142	-0.512278	-0.423133
C36	C	-0.640322	-0.868472	-0.434109
C37	C	-0.733228	-0.864761	-0.438832
C38	C	-0.942138	-0.896674	-0.398814
C39	C	-0.903323	-0.857998	-0.447464
C40	C	-0.808673	-0.861762	-0.442660
C41	C	-1.036797	-0.892911	-0.403617
C42	C	-0.205143	-0.886135	-0.412135
C43	C	-0.112239	-0.889909	-0.407448
C44	C	-0.434165	-0.868547	-0.641142
C45	C	-0.438856	-0.864827	-0.734043
C46	C	-0.423179	-0.041466	-0.423158
C47	C	-0.423175	-0.111435	-0.423155
C48	C	-0.398670	-0.896679	-0.942969
C49	C	-0.447387	-0.858015	-0.904128
C50	C	-0.442639	-0.861806	-0.809484
C51	C	-0.403416	-0.892888	-1.037622
C52	C	-0.412129	-0.886013	-0.205973
C53	C	-0.407203	-0.889865	-0.113060
H54	H	-0.525186	-0.109747	-0.524894
H55	H	-0.904289	-0.932611	-0.353557
H56	H	-0.492656	-0.822063	-0.941955
Cl57	Cl	-0.961761	-0.802507	-0.517338
H58	H	-0.321161	-0.125340	-0.321407
Cl59	Cl	-0.328764	-0.952170	-0.884570
H60	H	-0.525178	-0.229011	-0.524883
H61	H	-0.525156	-0.510586	-0.524869
Cl62	Cl	-0.296248	-0.261071	-0.296572
H63	H	-0.525159	-0.629851	-0.524846
H64	H	-0.321127	-0.526183	-0.321389
Cl65	Cl	-0.296219	-0.661911	-0.296539
