data_functionalizedCrystal
_audit_creation_method	'MofGen! by Chris Wilmer'
_symmetry_space_group_name_H-M	'P1'
_symmetry_Int_Tables_number	1
_symmetry_cell_setting	triclinic
loop_
_symmetry_equiv_pos_as_xyz
  x,y,z
_cell_length_a	31.640172
_cell_length_b	14.560438
_cell_length_c	14.560438
_cell_angle_alpha	120.003716
_cell_angle_beta	90.003554
_cell_angle_gamma	59.995003
loop_
_atom_site_label
_atom_site_type_symbol
_atom_site_fract_x
_atom_site_fract_y
_atom_site_fract_z
Zr1	Zr	0.407178	1.005228	0.120628
O2	O	0.339686	1.196857	0.267285
O3	O	0.427867	0.813613	0.075661
O4	O	0.427863	1.005229	0.267280
O5	O	0.339694	1.005235	-0.075477
O6	O	0.497420	1.005214	0.267286
O7	O	0.339690	1.005241	0.075666
O8	O	0.497426	0.662448	-0.075485
O9	O	0.339687	1.348001	0.267294
O10	O	0.488601	0.892410	0.056498
O11	O	0.436694	0.892417	-0.056303
O12	O	0.436690	1.118020	0.169304
O13	O	0.384783	1.118027	0.056504
Zr14	Zr	0.518118	1.005193	-0.120418
Zr15	Zr	0.518112	1.005203	0.120637
Zr16	Zr	0.407183	1.005218	-0.120427
Zr17	Zr	0.407179	1.246285	0.120643
Zr18	Zr	0.518117	0.764136	-0.120433
O19	O	0.497428	1.196808	-0.075451
O20	O	0.497420	1.196822	0.267298
O21	O	0.339694	1.196843	-0.075465
O22	O	0.585609	0.813564	-0.267075
O23	O	0.585601	0.813578	0.075675
O24	O	0.427875	0.813599	-0.267088
O25	O	0.585602	1.005186	0.075687
O26	O	0.497432	1.005192	-0.267070
O27	O	0.427876	1.005207	-0.267076
O28	O	0.585605	1.005180	-0.075456
O29	O	0.427865	1.347981	0.267302
O30	O	0.497431	0.662440	-0.267092
O31	O	0.585609	0.662420	-0.267084
O32	O	0.585604	0.662428	-0.075478
O33	O	0.339691	1.347993	0.075688
O34	O	0.427869	1.347973	0.075695
O35	O	0.488606	0.892401	-0.169094
O36	O	0.540512	0.892394	-0.056293
O37	O	0.488601	1.118004	0.056513
O38	O	0.436695	1.118011	-0.056288
C39	C	0.462647	0.703685	0.000086
C40	C	0.462646	0.601350	0.000079
C41	C	0.424324	0.636576	0.083359
C42	C	0.424327	0.540436	0.083388
C43	C	0.500975	0.373845	-0.083154
C44	C	0.500974	0.469984	-0.083177
C45	C	0.323886	1.005241	0.000093
C46	C	0.276792	1.005252	0.000089
C47	C	-0.015216	1.005191	0.083369
C48	C	-0.192202	1.005174	0.083377
O49	O	-0.215077	1.005120	0.154164
N50	N	-0.214331	1.005173	0.000112
C51	C	-0.192209	1.005168	-0.083165
O52	O	-0.215088	1.005154	-0.153993
C53	C	-0.015221	1.005175	-0.083177
C54	C	0.006903	1.005189	0.000100
C55	C	0.006908	1.005203	0.166638
C56	C	0.051150	1.005214	0.166638
C57	C	0.073269	1.005213	0.083370
C58	C	0.051145	1.005200	0.000101
C59	C	0.006903	1.005161	-0.166457
C60	C	0.051154	1.005159	-0.166455
C61	C	0.073277	1.005173	-0.083178
C62	C	0.117506	1.005210	-0.083167
N63	N	0.139635	1.005211	0.000097
C64	C	0.117516	1.005212	0.083366
C65	C	-0.285130	1.005167	-0.083151
C66	C	-0.329378	1.005168	-0.083147
C67	C	-0.329368	1.005171	0.083393
C68	C	-0.285122	1.005180	0.083393
C69	C	-0.263002	1.005168	0.000113
C70	C	0.210428	1.005237	0.083361
C71	C	0.254673	1.005253	0.083357
C72	C	0.254661	1.005243	-0.083186
C73	C	0.210418	1.005233	-0.083179
C74	C	0.188304	1.005226	0.000100
O75	O	0.140411	1.005250	-0.153924
O76	O	0.140410	1.005198	0.154169
C77	C	-0.059458	1.005179	0.083368
C78	C	-0.081582	1.005167	0.000099
C79	C	-0.059463	1.005165	-0.083170
C80	C	-0.125829	1.005167	0.000103
C81	C	-0.147948	1.005169	0.083371
C82	C	-0.125819	1.005170	0.166636
C83	C	-0.081577	1.005181	0.166636
C84	C	-0.081592	1.005165	-0.166434
C85	C	-0.125835	1.005155	-0.166427
C86	C	-0.147953	1.005156	-0.083159
C87	C	0.601409	1.005179	0.000117
C88	C	0.648504	1.005169	0.000121
C89	C	0.462641	1.005223	0.301628
C90	C	0.462638	1.005227	0.403962
C91	C	0.462649	1.306736	0.000124
C92	C	0.462649	1.409071	0.000131
C93	C	0.435541	1.122993	0.510923
C94	C	0.435546	1.122989	0.607073
C95	C	0.489746	0.887444	0.489288
C96	C	0.489744	0.887449	0.393141
C97	C	0.462652	1.005204	0.698585
C98	C	0.462646	1.005219	0.596260
C99	C	0.601408	0.703654	0.000098
C100	C	0.648503	0.601308	0.000095
C101	C	0.462654	0.703672	-0.301438
C102	C	0.462656	0.601333	-0.403778
C103	C	0.601415	0.703641	-0.301425
C104	C	0.648512	0.601292	-0.403762
C105	C	0.323880	1.306780	0.301636
C106	C	0.276784	1.409129	0.403972
C107	C	0.323887	1.306767	0.000112
C108	C	0.276793	1.409112	0.000115
C109	C	0.462642	1.306749	0.301648
C110	C	0.462640	1.409088	0.403988
C111	C	0.643521	0.553254	0.058980
C112	C	0.687767	0.457103	0.059000
C113	C	0.736993	0.409001	0.000128
C114	C	0.741974	0.457065	-0.058758
C115	C	0.697729	0.553221	-0.058771
C116	C	0.697728	0.553223	-0.392940
C117	C	0.741985	0.457068	-0.489087
C118	C	0.737024	0.408977	-0.596055
C119	C	0.687802	0.457054	-0.606875
C120	C	0.643547	0.553214	-0.510729
C121	C	0.227567	1.457209	0.393150
C122	C	0.183311	1.553394	0.489297
C123	C	0.188272	1.601491	0.596265
C124	C	0.237493	1.553407	0.607085
C125	C	0.281749	1.457231	0.510939
C126	C	0.281774	1.457177	-0.058760
C127	C	0.237529	1.553354	-0.058754
C128	C	0.188302	1.601460	0.000122
C129	C	0.183322	1.553392	0.059004
C130	C	0.227567	1.457222	0.059003
C131	C	0.489754	0.553243	-0.510734
C132	C	0.489750	0.457094	-0.606891
C133	C	0.435549	0.457128	-0.489121
C134	C	0.435551	0.553283	-0.392967
H135	H	0.393122	0.569130	0.151204
F136	F	0.074694	1.005220	0.255267
F137	F	0.682530	0.405858	-0.720728
F138	F	0.383534	0.776383	0.171970
F139	F	0.591168	0.604356	-0.522265
F140	F	0.141166	1.703851	0.698584
F141	F	0.406705	0.604472	-0.279127
H142	H	0.321853	1.418016	-0.106711
H143	H	0.532180	0.266879	-0.150938
F144	F	0.541765	0.432487	-0.171817
F145	F	0.242765	1.604606	0.720938
H146	H	0.143237	1.592528	0.480465
H147	H	0.511815	0.417945	-0.693976
F148	F	0.278215	1.005272	0.171997
H149	H	0.782059	0.417933	-0.480257
F150	F	0.186899	1.005229	0.171997
H151	H	0.241594	1.592475	-0.106707
F152	F	-0.352924	1.005177	-0.171769
H153	H	-0.011103	1.005148	-0.234269
F154	F	-0.016626	1.005202	0.255270
H155	H	0.192401	1.005241	-0.150981
F156	F	0.334127	1.406063	0.522475
H157	H	0.152279	1.679767	0.000113
H158	H	-0.267111	1.005190	0.151203
F159	F	-0.352916	1.005173	0.172014
H160	H	0.223504	1.418091	0.106943
F161	F	0.130927	1.604599	0.121656
F162	F	0.703020	0.604395	-0.279105
H163	H	-0.267123	1.005158	-0.150970
H164	H	0.773063	0.330677	-0.674334
H165	H	-0.063567	1.005192	0.234448
F166	F	0.406705	0.405979	-0.477627
H167	H	0.223518	1.418054	0.306060
H168	H	0.069163	1.005145	-0.234274
F169	F	0.591134	0.604434	0.121648
H170	H	0.272675	1.005247	-0.150980
F171	F	-0.149368	1.005177	0.255260
F172	F	-0.149378	1.005149	-0.255063
H173	H	-0.063586	1.005161	-0.234243
F174	F	0.406697	1.248342	0.522444
H175	H	0.511822	0.592368	-0.519543
H176	H	0.701792	0.592334	-0.106729
F177	F	0.518588	0.762104	0.477783
F178	F	0.518585	0.762101	0.279295
F179	F	0.406707	1.248331	0.720908
H180	H	0.683701	0.417982	0.106953
F181	F	0.784079	0.306661	0.000151
F182	F	0.794369	0.405855	-0.121413
