data_functionalizedCrystal
_audit_creation_method	'MofGen! by Chris Wilmer'
_symmetry_space_group_name_H-M	'P1'
_symmetry_Int_Tables_number	1
_symmetry_cell_setting	triclinic
loop_
_symmetry_equiv_pos_as_xyz
  x,y,z
_cell_length_a	27.732064
_cell_length_b	27.732048
_cell_length_c	13.101039
_cell_angle_alpha	93.329410
_cell_angle_beta	86.677803
_cell_angle_gamma	82.646040
loop_
_atom_site_label
_atom_site_type_symbol
_atom_site_fract_x
_atom_site_fract_y
_atom_site_fract_z
O1	O	0.643596	0.054873	-0.085041
O2	O	0.976929	0.388206	0.248292
O3	O	1.310262	0.721540	0.581625
O4	O	0.502805	0.063609	-0.085085
O5	O	0.836138	0.396942	0.248248
O6	O	1.169471	0.730275	0.581582
O7	O	0.577572	-0.011155	-0.085042
O8	O	0.910905	0.322178	0.248291
O9	O	1.244239	0.655512	0.581624
O10	O	0.568828	0.129637	-0.085084
O11	O	0.902161	0.462970	0.248249
O12	O	1.235495	0.796303	0.581583
O13	O	0.572208	-0.005782	0.085384
O14	O	0.905541	0.327551	0.418718
O15	O	1.238874	0.660885	0.752051
O16	O	0.497440	0.068982	0.085342
O17	O	0.830773	0.402315	0.418675
O18	O	1.164107	0.735648	0.752008
O19	O	0.638231	0.060246	0.085385
O20	O	0.971564	0.393579	0.418719
O21	O	1.304898	0.726913	0.752052
Zn22	Zn	0.566984	0.065467	0.112422
Zn23	Zn	0.900317	0.398800	0.445756
Zn24	Zn	1.233650	0.732134	0.779089
Zn25	Zn	0.574052	0.058388	-0.112122
Zn26	Zn	0.907385	0.391721	0.221211
Zn27	Zn	1.240718	0.725054	0.554544
O28	O	0.563463	0.135010	0.085343
O29	O	0.896797	0.468343	0.418676
O30	O	1.230130	0.801676	0.752009
C31	C	0.482116	0.066110	0.000123
C32	C	0.815449	0.399444	0.333456
C33	C	1.148782	0.732777	0.666790
C34	C	0.428462	0.065554	0.000107
C35	C	0.761795	0.398887	0.333440
C36	C	1.095128	0.732221	0.666774
C37	C	0.051387	0.017589	0.000180
C38	C	0.384720	0.350922	0.333513
C39	C	0.718053	0.684256	0.666846
C40	C	0.253048	0.019634	0.000152
C41	C	0.586381	0.352968	0.333486
C42	C	0.919715	0.686301	0.666819
O43	O	0.284299	-0.017585	0.000202
O44	O	0.617632	0.315748	0.333535
O45	O	0.950966	0.649082	0.666868
N46	N	0.272176	0.063968	0.000135
N47	N	0.605509	0.397301	0.333468
N48	N	0.938843	0.730635	0.666801
C49	C	0.240885	0.107794	0.000131
C50	C	0.574218	0.441127	0.333464
C51	C	0.907552	0.774460	0.666797
O52	O	0.261781	0.145550	0.000125
O53	O	0.595115	0.478883	0.333459
O54	O	0.928448	0.812216	0.666792
C55	C	0.039225	0.105748	0.000165
C56	C	0.372558	0.439082	0.333499
C57	C	0.705891	0.772415	0.666832
C58	C	0.020100	0.061411	0.000172
C59	C	0.353433	0.394745	0.333506
C60	C	0.686767	0.728078	0.666839
C61	C	0.032261	-0.026744	0.000188
C62	C	0.365595	0.306589	0.333522
C63	C	0.698928	0.639922	0.666855
C64	C	-0.018151	-0.027255	0.000189
C65	C	0.315183	0.306078	0.333523
C66	C	0.648516	0.639411	0.666856
C67	C	-0.049438	0.016567	0.000182
C68	C	0.283896	0.349900	0.333516
C69	C	0.617229	0.683234	0.666849
C70	C	-0.030312	0.060900	0.000174
C71	C	0.303021	0.394234	0.333507
C72	C	0.636354	0.727567	0.666840
C73	C	0.007934	0.149574	0.000168
C74	C	0.341268	0.482907	0.333502
C75	C	0.674601	0.816240	0.666835
C76	C	-0.042483	0.149058	0.000180
C77	C	0.290850	0.482392	0.333513
C78	C	0.624183	0.815725	0.666846
C79	C	-0.061608	0.104721	0.000187
C80	C	0.271725	0.438055	0.333520
C81	C	0.605058	0.771388	0.666854
C82	C	-0.112011	0.104211	0.000168
C83	C	0.221322	0.437545	0.333501
C84	C	0.554655	0.770878	0.666834
N85	N	-0.131139	0.059878	0.000185
N86	N	0.202194	0.393211	0.333519
N87	N	0.535527	0.726544	0.666852
C88	C	-0.099852	0.016055	0.000193
C89	C	0.233481	0.349389	0.333526
C90	C	0.566814	0.682722	0.666859
C91	C	0.346760	0.108865	0.000110
C92	C	0.680093	0.442198	0.333444
C93	C	1.013427	0.775531	0.666777
C94	C	0.397175	0.109376	0.000100
C95	C	0.730508	0.442709	0.333433
C96	C	1.063842	0.776043	0.666767
C97	C	0.409334	0.021217	0.000124
C98	C	0.742668	0.354550	0.333457
C99	C	1.076001	0.687883	0.666790
C100	C	0.358919	0.020705	0.000127
C101	C	0.692252	0.354039	0.333460
C102	C	1.025585	0.687372	0.666794
C103	C	0.327632	0.064531	0.000128
C104	C	0.660965	0.397864	0.333461
C105	C	0.994299	0.731198	0.666795
C106	C	-0.205722	0.014986	0.000194
C107	C	0.127611	0.348319	0.333528
C108	C	0.460945	0.681652	0.666861
C109	C	-0.256139	0.014478	0.000191
C110	C	0.077194	0.347812	0.333525
C111	C	0.410528	0.681145	0.666858
C112	C	-0.268294	0.102638	0.000173
C113	C	0.065039	0.435971	0.333506
C114	C	0.398372	0.769304	0.666840
C115	C	-0.217881	0.103145	0.000171
C116	C	0.115452	0.436478	0.333504
C117	C	0.448785	0.769812	0.666837
C118	C	-0.186596	0.059315	0.000185
C119	C	0.146737	0.392649	0.333518
C120	C	0.480070	0.725982	0.666851
O121	O	-0.143291	0.141411	0.000130
O122	O	0.190042	0.474745	0.333463
O123	O	0.523376	0.808078	0.666797
O124	O	-0.120759	-0.021694	0.000221
O125	O	0.212574	0.311639	0.333554
O126	O	0.545908	0.644973	0.666887
C127	C	0.101799	0.018100	0.000178
C128	C	0.435132	0.351433	0.333512
C129	C	0.768466	0.684767	0.666845
C130	C	0.120924	0.062433	0.000170
C131	C	0.454258	0.395767	0.333503
C132	C	0.787591	0.729100	0.666837
C133	C	0.089637	0.106256	0.000163
C134	C	0.422971	0.439589	0.333496
C135	C	0.756304	0.772922	0.666829
C136	C	0.171339	0.062945	0.000160
C137	C	0.504672	0.396278	0.333493
C138	C	0.838006	0.729611	0.666826
C139	C	0.202626	0.019123	0.000167
C140	C	0.535959	0.352456	0.333500
C141	C	0.869293	0.685789	0.666833
C142	C	0.183498	-0.025211	0.000184
C143	C	0.516831	0.308122	0.333518
C144	C	0.850165	0.641456	0.666851
C145	C	0.133086	-0.025722	0.000186
C146	C	0.466419	0.307611	0.333519
C147	C	0.799752	0.640944	0.666852
C148	C	0.108765	0.150589	0.000145
C149	C	0.442099	0.483923	0.333478
C150	C	0.775432	0.817256	0.666812
C151	C	0.159178	0.151097	0.000143
C152	C	0.492511	0.484430	0.333476
C153	C	0.825845	0.817763	0.666809
C154	C	0.190465	0.107274	0.000150
C155	C	0.523798	0.440608	0.333483
C156	C	0.857132	0.773941	0.666817
C157	C	0.574706	-0.026475	0.000174
C158	C	0.908040	0.306858	0.333507
C159	C	1.241373	0.640191	0.666840
C160	C	0.574153	-0.080130	0.000182
C161	C	0.907486	0.253203	0.333515
C162	C	1.240820	0.586537	0.666849
C163	C	0.614858	-0.418944	0.000142
C164	C	0.948191	-0.085611	0.333475
C165	C	1.281525	0.247723	0.666809
C166	C	0.612807	-0.620604	0.000127
C167	C	0.946141	-0.287271	0.333460
C168	C	1.279474	0.046063	0.666794
O169	O	0.650029	-0.651859	0.000094
O170	O	0.983362	-0.318525	0.333427
O171	O	1.316695	0.014808	0.666760
N172	N	0.568473	-0.639731	0.000114
N173	N	0.901806	-0.306398	0.333448
N174	N	1.235140	0.026936	0.666781
C175	C	0.524648	-0.608439	0.000099
C176	C	0.857981	-0.275106	0.333432
C177	C	1.191315	0.058227	0.666765
O178	O	0.486892	-0.629335	0.000077
O179	O	0.820226	-0.296002	0.333410
O180	O	1.153559	0.037331	0.666743
C181	C	0.526699	-0.406780	0.000106
C182	C	0.860033	-0.073447	0.333439
C183	C	1.193366	0.259886	0.666773
C184	C	0.571036	-0.387656	0.000129
C185	C	0.904370	-0.054323	0.333463
C186	C	1.237703	0.279010	0.666796
C187	C	0.659191	-0.399819	0.000164
C188	C	0.992525	-0.066486	0.333497
C189	C	1.325858	0.266847	0.666831
C190	C	0.659703	-0.349407	0.000173
C191	C	0.993037	-0.016074	0.333507
C192	C	1.326370	0.317260	0.666840
C193	C	0.615882	-0.318119	0.000161
C194	C	0.949215	0.015214	0.333494
C195	C	1.282548	0.348547	0.666827
C196	C	0.571548	-0.337244	0.000139
C197	C	0.904882	-0.003911	0.333472
C198	C	1.238215	0.329423	0.666805
C199	C	0.482875	-0.375490	0.000083
C200	C	0.816209	-0.042157	0.333416
C201	C	1.149542	0.291177	0.666750
C202	C	0.483392	-0.325073	0.000082
C203	C	0.816726	0.008261	0.333416
C204	C	1.150059	0.341594	0.666749
C205	C	0.527729	-0.305949	0.000105
C206	C	0.861063	0.027385	0.333439
C207	C	1.194396	0.360718	0.666772
C208	C	0.528239	-0.255544	0.000135
C209	C	0.861572	0.077789	0.333469
C210	C	1.194906	0.411123	0.666802
N211	N	0.572573	-0.236417	0.000148
N212	N	0.905907	0.096916	0.333481
N213	N	1.239240	0.430249	0.666815
C214	C	0.616395	-0.267705	0.000161
C215	C	0.949728	0.065628	0.333494
C216	C	1.283061	0.398962	0.666827
C217	C	0.523574	-0.714314	0.000097
C218	C	0.856908	-0.380980	0.333430
C219	C	1.190241	-0.047647	0.666763
C220	C	0.523061	-0.764728	0.000096
C221	C	0.856395	-0.431395	0.333430
C222	C	1.189728	-0.098061	0.666763
C223	C	0.611221	-0.776889	0.000123
C224	C	0.944554	-0.443556	0.333457
C225	C	1.277887	-0.110223	0.666790
C226	C	0.611733	-0.726474	0.000131
C227	C	0.945066	-0.393140	0.333464
C228	C	1.278400	-0.059807	0.666797
C229	C	0.567909	-0.695187	0.000109
C230	C	0.901242	-0.361853	0.333443
C231	C	1.234575	-0.028520	0.666776
C232	C	0.617467	-0.161835	0.000181
C233	C	0.950800	0.171498	0.333515
C234	C	1.284133	0.504832	0.666848
C235	C	0.617975	-0.111418	0.000195
C236	C	0.951308	0.221916	0.333528
C237	C	1.284641	0.555249	0.666861
C238	C	0.529816	-0.099261	0.000163
C239	C	0.863149	0.234072	0.333496
C240	C	1.196482	0.567406	0.666829
C241	C	0.529307	-0.149674	0.000154
C242	C	0.862641	0.183660	0.333488
C243	C	1.195974	0.516993	0.666821
C244	C	0.573137	-0.180960	0.000160
C245	C	0.906470	0.152373	0.333494
C246	C	1.239803	0.485707	0.666827
O247	O	0.491038	-0.224262	0.000157
O248	O	0.824371	0.109072	0.333490
O249	O	1.157704	0.442405	0.666824
O250	O	0.654146	-0.246800	0.000160
O251	O	0.987479	0.086533	0.333493
O252	O	1.320813	0.419867	0.666826
C253	C	0.614346	-0.469356	0.000133
C254	C	0.947679	-0.136023	0.333466
C255	C	1.281013	0.197310	0.666799
C256	C	0.570012	-0.488481	0.000111
C257	C	0.903346	-0.155147	0.333444
C258	C	1.236679	0.178186	0.666777
C259	C	0.526191	-0.457193	0.000098
C260	C	0.859524	-0.123860	0.333431
C261	C	1.192858	0.209474	0.666765
C262	C	0.569499	-0.538895	0.000111
C263	C	0.902833	-0.205562	0.333444
C264	C	1.236166	0.127771	0.666777
C265	C	0.613321	-0.570183	0.000123
C266	C	0.946654	-0.236850	0.333457
C267	C	1.279988	0.096484	0.666790
C268	C	0.657655	-0.551056	0.000136
C269	C	0.990989	-0.217723	0.333469
C270	C	1.324322	0.115611	0.666803
C271	C	0.658167	-0.500644	0.000145
C272	C	0.991501	-0.167311	0.333479
C273	C	1.324834	0.166023	0.666812
C274	C	0.481857	-0.476320	0.000085
C275	C	0.815190	-0.142987	0.333418
C276	C	1.148523	0.190347	0.666752
C277	C	0.481348	-0.526733	0.000077
C278	C	0.814681	-0.193399	0.333410
C279	C	1.148015	0.139934	0.666744
C280	C	0.525170	-0.558020	0.000090
C281	C	0.858503	-0.224687	0.333423
C282	C	1.191836	0.108646	0.666756
C283	C	0.658920	0.057744	0.000175
C284	C	0.992253	0.391078	0.333508
C285	C	1.325587	0.724411	0.666842
C286	C	0.712574	0.058300	0.000184
C287	C	1.045907	0.391634	0.333517
C288	C	1.379241	0.724967	0.666851
C289	C	0.566329	0.150330	0.000124
C290	C	0.899663	0.483663	0.333458
C291	C	1.232996	0.816997	0.666791
C292	C	0.566883	0.203984	0.000109
C293	C	0.900216	0.537318	0.333443
C294	C	1.233549	0.870651	0.666776
N295	N	0.562164	0.070298	0.265668
N296	N	0.895497	0.403631	0.599002
N297	N	1.228830	0.736965	0.932335
N298	N	0.578876	0.053553	-0.265368
N299	N	0.912209	0.386886	0.067965
N300	N	1.245543	0.720219	0.401299
C301	C	0.555605	0.076875	0.474707
C302	C	0.888939	0.410208	0.808040
C303	C	1.222272	0.743542	1.141374
C304	C	0.585432	0.046977	0.525600
C305	C	0.918766	0.380311	0.858933
C306	C	1.252099	0.713644	1.192266
C307	C	0.581783	0.050637	0.641916
C308	C	0.915117	0.383970	0.975249
C309	C	1.248450	0.717304	1.308583
C310	C	0.559254	0.073216	0.358380
C311	C	0.892587	0.406549	0.691713
C312	C	1.225921	0.739883	1.025047
H313	H	-0.271707	-0.021628	0.000195
H314	H	0.061626	0.311706	0.333528
H315	H	0.394960	0.645039	0.666861
Br316	Br	-0.310764	0.162108	0.000155
Br317	Br	0.022569	0.495441	0.333489
Br318	Br	0.355903	0.828774	0.666822
H319	H	0.653157	-0.187303	0.000182
H320	H	0.986490	0.146030	0.333515
H321	H	1.319824	0.479363	0.666849
Br322	Br	0.719879	-0.323462	0.000176
Br323	Br	1.053212	0.009871	0.333509
Br324	Br	1.386546	0.343205	0.666843
Br325	Br	0.717126	-0.593528	0.000162
Br326	Br	1.050460	-0.260194	0.333495
Br327	Br	1.383793	0.073139	0.666828
Br328	Br	0.508479	0.124117	0.547680
Br329	Br	0.841813	0.457451	0.881013
Br330	Br	1.175146	0.790784	1.214347
Br331	Br	0.332969	-0.039468	0.000139
Br332	Br	0.666303	0.293865	0.333473
Br333	Br	0.999636	0.627199	0.666806
Br334	Br	-0.163271	-0.044498	0.000213
Br335	Br	0.170062	0.288835	0.333547
Br336	Br	0.503395	0.622168	0.666880
Br337	Br	-0.044097	-0.087430	0.000186
Br338	Br	0.289236	0.245903	0.333519
Br339	Br	0.622570	0.579236	0.666852
Br340	Br	0.185126	0.211274	0.000122
Br341	Br	0.518460	0.544607	0.333456
Br342	Br	0.851793	0.877941	0.666789
Br343	Br	0.421170	-0.552679	0.000054
Br344	Br	0.754504	-0.219346	0.333387
Br345	Br	1.087837	0.113987	0.666720
H346	H	0.654081	-0.095850	0.000216
H347	H	0.987414	0.237483	0.333550
H348	H	1.320747	0.570817	0.666883
Br349	Br	0.422378	-0.433865	0.000063
Br350	Br	0.755712	-0.100532	0.333396
Br351	Br	1.089045	0.232801	0.666729
Br352	Br	0.632764	-0.000064	0.452627
Br353	Br	0.966098	0.333269	0.785961
Br354	Br	1.299431	0.666603	1.119294
H355	H	0.057731	-0.062432	0.000197
H356	H	0.391064	0.270902	0.333531
H357	H	0.724397	0.604235	0.666864
Br358	Br	0.423913	-0.282614	0.000049
Br359	Br	0.757246	0.050719	0.333382
Br360	Br	1.090580	0.384052	0.666715
Br361	Br	0.451805	-0.038256	0.000130
Br362	Br	0.785138	0.295077	0.333463
Br363	Br	1.118471	0.628410	0.666797
Br364	Br	0.066312	0.210069	0.000132
Br365	Br	0.399645	0.543402	0.333466
Br366	Br	0.732978	0.876735	0.666799
Br367	Br	0.718672	-0.442273	0.000180
Br368	Br	1.052005	-0.108939	0.333514
Br369	Br	1.385338	0.224394	0.666847
Br370	Br	0.671906	-0.700525	0.000164
Br371	Br	1.005240	-0.367192	0.333497
Br372	Br	1.338573	-0.033858	0.666831
Br373	Br	0.225969	-0.084684	0.000188
Br374	Br	0.559302	0.248650	0.333521
Br375	Br	0.892636	0.581983	0.666854
H376	H	0.486957	-0.780293	0.000095
H377	H	0.820290	-0.446960	0.333429
H378	H	1.153624	-0.113627	0.666762
Br379	Br	0.423124	0.169549	0.000064
Br380	Br	0.756457	0.502882	0.333397
Br381	Br	1.089791	0.836216	0.666731
Br382	Br	0.304306	0.168348	0.000105
Br383	Br	0.637639	0.501682	0.333439
Br384	Br	0.970973	0.835015	0.666772
Br385	Br	-0.084942	0.208540	0.000189
Br386	Br	0.248392	0.541873	0.333522
Br387	Br	0.581725	0.875206	0.666856
Br388	Br	0.464092	-0.671859	0.000066
Br389	Br	0.797426	-0.338526	0.333399
Br390	Br	1.130759	-0.005193	0.666732
Br391	Br	0.469135	-0.175628	0.000147
Br392	Br	0.802468	0.157705	0.333480
Br393	Br	1.135801	0.491038	0.666813
Br394	Br	0.107139	-0.085897	0.000188
Br395	Br	0.440473	0.247436	0.333521
Br396	Br	0.773806	0.580769	0.666854
Br397	Br	-0.191925	0.163316	0.000144
Br398	Br	0.141409	0.496650	0.333477
Br399	Br	0.474742	0.829983	0.666810
H400	H	0.023497	0.185677	0.000158
H401	H	0.356830	0.519011	0.333491
H402	H	0.690163	0.852344	0.666824
H403	H	0.446772	-0.391052	0.000058
H404	H	0.780105	-0.057718	0.333391
H405	H	1.113438	0.275615	0.666725
H406	H	0.646902	-0.802373	0.000134
H407	H	0.980235	-0.469039	0.333467
H408	H	1.313568	-0.135706	0.666801
H409	H	0.694271	-0.485078	0.000164
H410	H	1.027604	-0.151745	0.333497
H411	H	1.360938	0.181589	0.666831
H412	H	0.494137	-0.073777	0.000156
H413	H	0.827471	0.259556	0.333489
H414	H	1.160804	0.592889	0.666823
