data_functionalizedCrystal
_audit_creation_method	'MofGen! by Chris Wilmer'
_symmetry_space_group_name_H-M	'P1'
_symmetry_Int_Tables_number	1
_symmetry_cell_setting	triclinic
loop_
_symmetry_equiv_pos_as_xyz
  x,y,z
_cell_length_a	11.026607
_cell_length_b	10.540539
_cell_length_c	9.482900
_cell_angle_alpha	99.430988
_cell_angle_beta	78.636152
_cell_angle_gamma	96.555754
loop_
_atom_site_label
_atom_site_type_symbol
_atom_site_fract_x
_atom_site_fract_y
_atom_site_fract_z
O1	O	1.633556	0.517017	-0.120883
O2	O	1.279725	0.456370	-0.120886
O3	O	1.464712	0.303756	-0.120883
O4	O	1.448568	0.669632	-0.120886
O5	O	1.427139	0.334914	0.120909
O6	O	1.242151	0.487529	0.120905
O7	O	1.595982	0.548176	0.120909
Cu8	Cu	1.415636	0.520697	0.142985
Cu9	Cu	1.460071	0.483849	-0.142962
O10	O	1.410994	0.700790	0.120905
C11	C	1.215630	0.460761	0.000009
C12	C	1.080627	0.427408	0.000008
C13	C	1.007620	0.519500	0.000006
C14	C	0.868087	0.485031	0.000004
C15	C	1.444715	0.271766	0.000011
C16	C	1.441094	0.130024	0.000003
C17	C	1.302374	-0.083877	-0.000541
C18	C	1.305961	0.063616	0.000003
C19	C	1.484669	0.100404	0.138078
C20	C	1.480039	-0.047136	0.138195
C21	C	1.525516	-0.082485	-0.136768
C22	C	1.527044	0.064534	-0.138593
C23	C	1.660077	0.543785	0.000010
C24	C	1.795082	0.577136	0.000002
C25	C	1.430992	0.732779	0.000009
C26	C	1.434615	0.874520	0.000007
N27	N	1.384391	0.546616	0.344104
N28	N	1.491325	0.457922	-0.344082
C29	C	1.450847	0.491485	0.416305
C30	C	1.424860	0.513061	0.583722
H31	H	0.827302	0.380657	-0.000032
N32	N	1.217311	0.120907	0.131337
H33	H	1.264612	0.187296	0.194249
H34	H	1.152194	0.163403	0.098539
N35	N	1.395134	-0.080830	0.274907
H36	H	1.361059	0.000110	0.334528
H37	H	1.324314	-0.143806	0.248034
N38	N	1.403672	0.161240	0.274188
H39	H	1.432442	0.141632	0.362445
H40	H	1.409677	0.257759	0.275628
H41	H	0.835869	0.681507	0.000011
N42	N	1.607473	-0.081422	0.146503
H43	H	1.666403	-0.000714	0.150081
H44	H	1.602666	-0.122046	0.237004
H45	H	1.048415	0.623863	0.000013
N46	N	1.211676	-0.122498	0.129877
H47	H	1.255877	-0.166826	0.189313
H48	H	1.176271	-0.042988	0.191421
H49	H	1.526977	0.428305	0.354178
N50	N	1.026602	0.289164	-0.000003
H51	H	1.094494	0.232441	-0.000003
H52	H	0.960617	0.282876	0.089632
N53	N	1.283533	0.630288	0.426390
H54	H	1.320889	0.705229	0.489536
H55	H	1.242787	0.664021	0.355116
N56	N	1.323995	0.596738	0.665995
H57	H	1.319725	0.600288	0.773930
H58	H	1.343159	0.686770	0.639466
N59	N	1.258553	0.088321	-0.131098
H60	H	1.235129	0.003276	-0.189763
H61	H	1.183249	0.139250	-0.098006
H62	H	1.583109	0.145156	0.143213
H63	H	1.567460	0.394739	0.593795
N64	N	1.252031	-0.154149	-0.131691
H65	H	1.314452	-0.213639	-0.192026
H66	H	1.171799	-0.206368	-0.098621
N67	N	1.489138	-0.154831	-0.275398
H68	H	1.413355	-0.216218	-0.250938
H69	H	1.469835	-0.091387	-0.335314
N70	N	1.485125	0.087512	-0.273907
H71	H	1.410774	0.140128	-0.245566
H72	H	1.554882	0.135827	-0.335181
H73	H	1.626862	0.109261	-0.146930
N74	N	1.654999	-0.116873	-0.138007
H75	H	1.654839	-0.160091	-0.050451
H76	H	1.683314	-0.177686	-0.229666
