data_functionalizedCrystal
_audit_creation_method	'MofGen! by Chris Wilmer'
_symmetry_space_group_name_H-M	'P1'
_symmetry_Int_Tables_number	1
_symmetry_cell_setting	triclinic
loop_
_symmetry_equiv_pos_as_xyz
  x,y,z
_cell_length_a	14.044209
_cell_length_b	17.666332
_cell_length_c	19.188930
_cell_angle_alpha	90.011603
_cell_angle_beta	91.833632
_cell_angle_gamma	89.996366
loop_
_atom_site_label
_atom_site_type_symbol
_atom_site_fract_x
_atom_site_fract_y
_atom_site_fract_z
O1	O	-1.257017	0.062873	0.168277
O2	O	-0.981072	0.062894	0.162206
O3	O	-1.127008	0.062869	0.064100
O4	O	-1.111082	0.062899	0.266384
O5	O	-1.126982	-0.063028	0.064093
O6	O	-0.981047	-0.063002	0.162199
O7	O	-1.256991	-0.063023	0.168270
Cu8	Cu	-1.119017	-0.074508	0.165234
Cu9	Cu	-1.119047	0.074379	0.165242
O10	O	-1.111056	-0.062997	0.266376
C11	C	-0.945756	-0.000052	0.159545
C12	C	-0.840563	-0.000044	0.151616
C13	C	-0.647962	-0.000060	0.137122
C14	C	-0.590095	-0.000054	0.193357
C15	C	-0.482925	-0.000063	0.185292
C16	C	-0.755142	-0.000051	0.145186
N17	N	-1.119003	-0.179228	0.165228
C18	C	-1.183644	-0.218849	0.121811
C19	C	-1.183649	-0.298096	0.121808
C20	C	-1.119023	-0.337720	0.165234
C21	C	-1.054370	-0.298089	0.208654
C22	C	-1.054359	-0.218843	0.208651
N23	N	-1.106704	-0.462129	0.226247
N24	N	-1.106719	-0.537409	0.226248
C25	C	-1.119048	-0.576484	0.165246
N26	N	-1.131379	-0.537434	0.104241
N27	N	-1.131368	-0.462147	0.104241
C28	C	-1.119026	-0.423649	0.165242
C29	C	-1.183698	-0.702034	0.121822
C30	C	-1.183697	-0.781283	0.121817
C31	C	-1.054422	-0.781274	0.208670
C32	C	-1.054419	-0.702027	0.208668
C33	C	-1.119062	-0.662412	0.165245
C34	C	-0.292307	-0.000074	0.170933
C35	C	-0.397499	-0.000069	0.178866
C36	C	-1.126479	-0.000082	0.038052
C37	C	-1.124931	-0.000088	-0.039552
N38	N	-1.119069	0.179099	0.165243
C39	C	-1.210561	-0.000099	-0.078951
C40	C	-1.209107	-0.000086	-0.151869
C41	C	-1.122017	-0.000079	-0.185385
C42	C	-1.036376	-0.000065	-0.145977
C43	C	-1.037833	-0.000069	-0.073061
N44	N	-1.055439	-0.042919	-0.297688
N45	N	-1.054061	-0.042916	-0.366955
C46	C	-1.117622	-0.000063	-0.405077
N47	N	-1.182628	0.042777	-0.371315
N48	N	-1.184009	0.042771	-0.302041
C49	C	-1.120428	-0.000074	-0.264450
C50	C	-1.201681	-0.000059	-0.523542
C51	C	-1.200223	-0.000042	-0.596460
C52	C	-1.027490	-0.000028	-0.590567
C53	C	-1.028950	-0.000038	-0.517650
C54	C	-1.116049	-0.000057	-0.484141
C55	C	-1.111585	-0.000045	0.292424
C56	C	-1.113133	-0.000034	0.370029
H57	H	-1.236289	-0.330362	0.086451
C58	C	-1.253840	-0.824206	0.074562
C59	C	-1.238790	-0.804931	0.005005
C60	C	-1.303398	-0.844449	-0.038546
H61	H	-1.244658	-0.877088	0.080685
H62	H	-1.317065	-0.811191	0.086074
H63	H	-1.175580	-0.817951	-0.006503
H64	H	-1.247980	-0.752056	-0.001140
H65	H	-1.366623	-0.831434	-0.027034
H66	H	-1.294210	-0.897329	-0.032417
H67	H	-1.293201	-0.831372	-0.085744
H68	H	-1.001748	-0.330354	0.244011
H69	H	-0.617017	-0.000072	0.082925
C70	C	-1.253707	-0.176015	0.074432
C71	C	-1.238449	-0.195465	0.004937
C72	C	-1.302962	-0.156074	-0.038779
H73	H	-1.316959	-0.189000	0.085853
H74	H	-1.244552	-0.123110	0.080488
H75	H	-1.247612	-0.248358	-0.001116
H76	H	-1.175210	-0.182478	-0.006506
H77	H	-1.293807	-0.103168	-0.032722
H78	H	-1.366210	-0.169061	-0.027351
H79	H	-1.292613	-0.169259	-0.085936
H80	H	-1.001798	-0.813535	0.244026
C81	C	-0.631534	0.000023	0.265571
C82	C	-0.731135	0.000057	0.259320
C83	C	-0.769346	0.000149	0.325825
H84	H	-0.610752	-0.043857	0.290285
H85	H	-0.610683	0.043954	0.290207
H86	H	-0.751978	-0.043870	0.234694
H87	H	-0.751944	0.043934	0.234618
H88	H	-0.748495	0.044080	0.350461
H89	H	-0.748557	-0.043732	0.350534
H90	H	-0.836928	0.000179	0.321593
C91	C	-0.984136	-0.175958	0.255872
C92	C	-0.927550	-0.227615	0.293915
C93	C	-0.862860	-0.188136	0.337430
H94	H	-0.944705	-0.145050	0.228364
H95	H	-1.018076	-0.145050	0.287103
H96	H	-0.893613	-0.258509	0.262687
H97	H	-0.966955	-0.258524	0.321436
H98	H	-0.896800	-0.157228	0.368661
H99	H	-0.823436	-0.157229	0.309917
H100	H	-0.824465	-0.223179	0.363252
C101	C	-0.984352	-0.659047	0.255935
C102	C	-0.999452	-0.678291	0.325492
C103	C	-0.934928	-0.638706	0.369056
H104	H	-0.921101	-0.672013	0.244483
H105	H	-0.993604	-0.606169	0.249764
H106	H	-0.990192	-0.731157	0.331661
H107	H	-1.062690	-0.665323	0.336967
H108	H	-0.944180	-0.585828	0.362885
H109	H	-0.871682	-0.651675	0.357598
H110	H	-0.945171	-0.651752	0.416256
H111	H	-0.959221	-0.000034	-0.485571
H112	H	-1.281483	-0.000111	-0.051673
C113	C	-1.253753	-0.658890	0.074679
C114	C	-1.203502	-0.613360	0.028796
C115	C	-1.268019	-0.573586	-0.014612
H116	H	-1.292310	-0.693729	0.048749
H117	H	-1.293038	-0.627943	0.102292
H118	H	-1.164233	-0.644304	0.001187
H119	H	-1.164948	-0.578507	0.054707
H120	H	-1.307305	-0.542640	0.013000
H121	H	-1.306573	-0.608430	-0.040537
H122	H	-1.233934	-0.542684	-0.045744
H123	H	-1.269956	-0.000046	-0.628538
H124	H	-1.278839	-0.000092	-0.183953
C125	C	-0.941889	0.000060	-0.182454
C126	C	-0.936034	0.064823	-0.224144
C127	C	-0.849010	0.064963	-0.257764
H128	H	-0.891015	0.000104	-0.148622
H129	H	-0.937712	-0.043819	-0.210825
H130	H	-0.940202	0.108691	-0.195776
H131	H	-0.986888	0.064792	-0.257989
H132	H	-0.844832	0.021083	-0.286135
H133	H	-0.798142	0.065005	-0.223926
H134	H	-0.845029	0.108899	-0.286059
C135	C	-0.944756	-0.000102	-0.030403
C136	C	-0.868171	-0.000108	-0.075357
C137	C	-0.782414	-0.000150	-0.036085
H138	H	-0.941609	0.043786	-0.001816
H139	H	-0.941673	-0.044026	-0.001862
H140	H	-0.871252	0.043811	-0.103886
H141	H	-0.871286	-0.043993	-0.103945
H142	H	-0.779331	-0.044074	-0.007544
H143	H	-0.779277	0.043738	-0.007499
H144	H	-0.730441	-0.000161	-0.066580
C145	C	-1.296337	-0.000026	-0.487284
C146	C	-1.371020	-0.000001	-0.537399
C147	C	-1.458231	0.000043	-0.504028
H148	H	-1.300630	-0.043919	-0.458975
H149	H	-1.300549	0.043893	-0.458969
H150	H	-1.366811	-0.043916	-0.565703
H151	H	-1.366760	0.043888	-0.565712
H152	H	-1.462442	0.043962	-0.475712
H153	H	-1.462513	-0.043850	-0.475719
H154	H	-1.508913	0.000067	-0.538026
H155	H	-0.956580	-0.000019	-0.617855
