data_functionalizedCrystal
_audit_creation_method	'MofGen! by Chris Wilmer'
_symmetry_space_group_name_H-M	'P1'
_symmetry_Int_Tables_number	1
_symmetry_cell_setting	triclinic
loop_
_symmetry_equiv_pos_as_xyz
  x,y,z
_cell_length_a	18.215407
_cell_length_b	16.625546
_cell_length_c	18.215399
_cell_angle_alpha	90.029176
_cell_angle_beta	90.019833
_cell_angle_gamma	90.022916
loop_
_atom_site_label
_atom_site_type_symbol
_atom_site_fract_x
_atom_site_fract_y
_atom_site_fract_z
Zn1	Zn	1.125084	-0.321000	0.416110
Zn2	Zn	1.375084	-0.071000	0.666110
Zn3	Zn	1.625084	0.179000	0.916110
Zn4	Zn	1.875084	0.429000	1.166110
Zn5	Zn	1.124998	-0.455841	0.293041
Zn6	Zn	1.374998	-0.205841	0.543041
Zn7	Zn	1.624998	0.044159	0.793041
Zn8	Zn	1.874998	0.294159	1.043041
Zn9	Zn	1.002017	-0.321027	0.293057
Zn10	Zn	1.252017	-0.071027	0.543057
Zn11	Zn	1.502017	0.178973	0.793057
Zn12	Zn	1.752017	0.428973	1.043057
Zn13	Zn	1.001988	-0.455796	0.416066
Zn14	Zn	1.251988	-0.205796	0.666066
Zn15	Zn	1.501988	0.044204	0.916066
Zn16	Zn	1.751988	0.294204	1.166066
O17	O	1.063522	-0.388416	0.354568
O18	O	1.313522	-0.138416	0.604568
O19	O	1.563522	0.111584	0.854568
O20	O	1.813522	0.361584	1.104568
O21	O	1.228057	-0.338895	0.399796
O22	O	1.478057	-0.088895	0.649796
O23	O	1.728057	0.161105	0.899796
O24	O	1.978057	0.411105	1.149796
O25	O	1.108660	-0.437987	0.190059
O26	O	1.358660	-0.187987	0.440059
O27	O	1.608660	0.062013	0.690059
O28	O	1.858660	0.312013	0.940059
O29	O	1.018390	-0.208191	0.309405
O30	O	1.268390	0.041809	0.559405
O31	O	1.518390	0.291809	0.809405
O32	O	1.768390	0.541809	1.059405
O33	O	1.227994	-0.437961	0.309378
O34	O	1.477994	-0.187961	0.559378
O35	O	1.727994	0.062039	0.809378
O36	O	1.977994	0.312039	1.059378
O37	O	1.108807	-0.208171	0.399812
O38	O	1.358807	0.041829	0.649812
O39	O	1.608807	0.291829	0.899812
O40	O	1.858807	0.541829	1.149812
O41	O	1.018307	-0.338940	0.190070
O42	O	1.268307	-0.088940	0.440070
O43	O	1.518307	0.161060	0.690070
O44	O	1.768307	0.411060	0.940070
O45	O	0.899029	-0.338896	0.309363
O46	O	1.149029	-0.088896	0.559363
O47	O	1.399029	0.161104	0.809363
O48	O	1.649029	0.411104	1.059363
O49	O	1.018341	-0.437885	0.519056
O50	O	1.268341	-0.187885	0.769056
O51	O	1.518341	0.062115	1.019056
O52	O	1.768341	0.312115	1.269056
O53	O	0.899008	-0.437910	0.399737
O54	O	1.149008	-0.187910	0.649737
O55	O	1.399008	0.062090	0.899737
O56	O	1.649008	0.312090	1.149737
O57	O	1.108779	-0.338851	0.519088
O58	O	1.358779	-0.088851	0.769088
O59	O	1.608779	0.161149	1.019088
O60	O	1.858779	0.411149	1.269088
O61	O	1.108632	-0.568667	0.309335
O62	O	1.358632	-0.318667	0.559335
O63	O	1.608632	-0.068667	0.809335
O64	O	1.858632	0.181333	1.059335
O65	O	1.018257	-0.568634	0.399721
O66	O	1.268257	-0.318634	0.649721
O67	O	1.518257	-0.068634	0.899721
O68	O	1.768257	0.181366	1.149721
C69	C	0.872315	-0.388402	0.354547
C70	C	1.122315	-0.138402	0.604547
C71	C	1.372315	0.111598	0.854547
C72	C	1.622315	0.361598	1.104547
C73	C	0.790517	-0.388415	0.354556
C74	C	1.040517	-0.138415	0.604556
C75	C	1.290517	0.111585	0.854556
C76	C	1.540517	0.361585	1.104556
C77	C	1.063452	-0.597907	0.354537
C78	C	1.313452	-0.347907	0.604537
C79	C	1.563452	-0.097907	0.854537
C80	C	1.813452	0.152093	1.104537
C81	C	1.063490	-0.687528	0.354549
C82	C	1.313490	-0.437528	0.604549
C83	C	1.563490	-0.187528	0.854549
C84	C	1.813490	0.062472	1.104549
C85	C	0.602331	-0.440053	0.401554
C86	C	0.852331	-0.190053	0.651554
C87	C	1.102331	0.059947	0.901554
C88	C	1.352331	0.309947	1.151554
C89	C	0.525472	-0.440056	0.401563
C90	C	0.775472	-0.190056	0.651563
C91	C	1.025472	0.059944	0.901563
C92	C	1.275472	0.309944	1.151563
C93	C	0.525465	-0.336793	0.307598
C94	C	0.775465	-0.086793	0.557598
C95	C	1.025465	0.163207	0.807598
C96	C	1.275465	0.413207	1.057598
C97	C	0.602322	-0.336787	0.307593
C98	C	0.852322	-0.086787	0.557593
C99	C	1.102322	0.163213	0.807593
C100	C	1.352322	0.413213	1.057593
C101	C	0.640753	-0.388422	0.354570
C102	C	0.890753	-0.138422	0.604570
C103	C	1.140753	0.111578	0.854570
C104	C	1.390753	0.361578	1.104570
C105	C	0.487037	-0.388430	0.354584
C106	C	0.737037	-0.138430	0.604584
C107	C	0.987037	0.111570	0.854584
C108	C	1.237037	0.361570	1.104584
C109	C	0.403703	-0.388433	0.354594
C110	C	0.653703	-0.138433	0.604594
C111	C	0.903703	0.111567	0.854594
C112	C	1.153703	0.361567	1.104594
C113	C	0.724092	-0.388418	0.354562
C114	C	0.974092	-0.138418	0.604562
C115	C	1.224092	0.111582	0.854562
C116	C	1.474092	0.361582	1.104562
C117	C	1.063618	-1.015703	0.354625
C118	C	1.313618	-0.765703	0.604625
C119	C	1.563618	-0.515703	0.854625
C120	C	1.813618	-0.265703	1.104625
C121	C	1.063580	-0.924395	0.354606
C122	C	1.313580	-0.674395	0.604606
C123	C	1.563580	-0.424395	0.854606
C124	C	1.813580	-0.174395	1.104606
C125	C	1.063553	-0.851618	0.354587
C126	C	1.313553	-0.601618	0.604587
C127	C	1.563553	-0.351618	0.854587
C128	C	1.813553	-0.101618	1.104587
C129	C	1.063516	-0.760304	0.354568
C130	C	1.313516	-0.510304	0.604568
C131	C	1.563516	-0.260304	0.854568
C132	C	1.813516	-0.010304	1.104568
C133	C	1.255475	-0.388430	0.354590
C134	C	1.505475	-0.138430	0.604590
C135	C	1.755475	0.111570	0.854590
C136	C	2.005475	0.361570	1.104590
C137	C	1.337274	-0.388436	0.354599
C138	C	1.587274	-0.138436	0.604599
C139	C	1.837274	0.111564	0.854599
C140	C	2.087274	0.361564	1.104599
C141	C	1.063567	-0.388360	0.546521
C142	C	1.313567	-0.138360	0.796521
C143	C	1.563567	0.111640	1.046521
C144	C	1.813567	0.361640	1.296521
C145	C	1.063586	-0.388336	0.628320
C146	C	1.313586	-0.138336	0.878320
C147	C	1.563586	0.111664	1.128320
C148	C	1.813586	0.361664	1.378320
C149	C	1.063612	-0.178107	0.354615
C150	C	1.313612	0.071893	0.604615
C151	C	1.563612	0.321893	0.854615
C152	C	1.813612	0.571893	1.104615
C153	C	1.063650	-0.088486	0.354635
C154	C	1.313650	0.161514	0.604635
C155	C	1.563650	0.411514	0.854635
C156	C	1.813650	0.661514	1.104635
C157	C	1.063519	-0.388413	0.163362
C158	C	1.313519	-0.138413	0.413362
C159	C	1.563519	0.111587	0.663362
C160	C	1.813519	0.361587	0.913362
C161	C	1.063643	-0.388209	0.081563
C162	C	1.313643	-0.138209	0.331563
C163	C	1.563643	0.111791	0.581563
C164	C	1.813643	0.361791	0.831563
C165	C	1.110694	-0.336721	0.816532
C166	C	1.360694	-0.086721	1.066532
C167	C	1.610694	0.163279	1.316532
C168	C	1.860694	0.413279	1.566532
C169	C	1.110703	-0.336698	0.893391
C170	C	1.360703	-0.086698	1.143391
C171	C	1.610703	0.163302	1.393391
C172	C	1.860703	0.413302	1.643391
C173	C	1.016530	-0.439827	0.893346
C174	C	1.266530	-0.189827	1.143346
C175	C	1.516530	0.060173	1.393346
C176	C	1.766530	0.310173	1.643346
C177	C	1.016518	-0.439846	0.816489
C178	C	1.266518	-0.189846	1.066489
C179	C	1.516518	0.060154	1.316489
C180	C	1.766518	0.310154	1.566489
C181	C	1.063604	-0.388294	0.778084
C182	C	1.313604	-0.138294	1.028084
C183	C	1.563604	0.111706	1.278084
C184	C	1.813604	0.361706	1.528084
C185	C	1.063625	-0.388252	0.931800
C186	C	1.313625	-0.138252	1.181800
C187	C	1.563625	0.111748	1.431800
C188	C	1.813625	0.361748	1.681800
C189	C	1.063634	-0.388227	1.015134
C190	C	1.313634	-0.138227	1.265134
C191	C	1.563634	0.111773	1.515134
C192	C	1.813634	0.361773	1.765134
C193	C	1.063594	-0.388318	0.694745
C194	C	1.313594	-0.138318	0.944745
C195	C	1.563594	0.111682	1.194745
C196	C	1.813594	0.361682	1.444745
H197	H	0.633619	-0.482096	0.439808
H198	H	0.883619	-0.232096	0.689808
H199	H	1.133619	0.017904	0.939808
H200	H	1.383619	0.267904	1.189808
Br201	Br	0.473330	-0.510127	0.465334
Br202	Br	0.723330	-0.260127	0.715334
Br203	Br	0.973330	-0.010127	0.965334
Br204	Br	1.223330	0.239873	1.215334
H205	H	0.494165	-0.294755	0.269350
H206	H	0.744165	-0.044755	0.519350
H207	H	0.994165	0.205245	0.769350
H208	H	1.244165	0.455245	1.019350
Br209	Br	1.174595	-0.266758	0.764413
Br210	Br	1.424595	-0.016758	1.014413
Br211	Br	1.674595	0.233242	1.264413
Br212	Br	1.924595	0.483242	1.514413
Br213	Br	1.174619	-0.266709	0.945569
Br214	Br	1.424619	-0.016709	1.195569
Br215	Br	1.674619	0.233291	1.445569
Br216	Br	1.924619	0.483291	1.695569
Br217	Br	0.654472	-0.266702	0.243832
Br218	Br	0.904472	-0.016702	0.493832
Br219	Br	1.154472	0.233298	0.743832
Br220	Br	1.404472	0.483298	0.993832
Br221	Br	0.952632	-0.509789	0.945472
Br222	Br	1.202632	-0.259789	1.195472
Br223	Br	1.452632	-0.009789	1.445472
Br224	Br	1.702632	0.240211	1.695472
H225	H	0.978166	-0.481842	0.785183
H226	H	1.228166	-0.231842	1.035183
H227	H	1.478166	0.018158	1.285183
H228	H	1.728166	0.268158	1.535183
