data_functionalizedCrystal
_audit_creation_method	'MofGen! by Chris Wilmer'
_symmetry_space_group_name_H-M	'P1'
_symmetry_Int_Tables_number	1
_symmetry_cell_setting	triclinic
loop_
_symmetry_equiv_pos_as_xyz
  x,y,z
_cell_length_a	16.109301
_cell_length_b	13.339070
_cell_length_c	15.186229
_cell_angle_alpha	89.998719
_cell_angle_beta	89.999362
_cell_angle_gamma	99.545388
loop_
_atom_site_label
_atom_site_type_symbol
_atom_site_fract_x
_atom_site_fract_y
_atom_site_fract_z
O1	O	1.133153	0.130020	-0.073168
O2	O	1.633153	0.630020	0.426832
O3	O	0.894827	0.146201	-0.073182
O4	O	1.394827	0.646201	0.426818
O5	O	0.986638	-0.009144	-0.073174
O6	O	1.486638	0.490856	0.426826
O7	O	1.041342	0.285365	-0.073176
O8	O	1.541342	0.785365	0.426824
O9	O	0.986629	-0.009146	0.073283
O10	O	1.486629	0.490854	0.573283
O11	O	0.894818	0.146199	0.073275
O12	O	1.394818	0.646199	0.573275
O13	O	1.133144	0.130018	0.073289
O14	O	1.633144	0.630018	0.573289
Zn15	Zn	1.013980	0.138108	0.096535
Zn16	Zn	1.513980	0.638108	0.596535
Zn17	Zn	1.013992	0.138111	-0.096428
Zn18	Zn	1.513992	0.638111	0.403572
O19	O	1.041333	0.285363	0.073281
O20	O	1.541333	0.785363	0.573281
C21	C	0.863697	0.145545	0.000045
C22	C	1.363697	0.645545	0.500045
C23	C	0.770947	0.143580	0.000040
C24	C	1.270947	0.643580	0.500040
C25	C	0.568905	0.231189	0.000049
C26	C	1.068905	0.731189	0.500049
C27	C	0.481756	0.229335	0.000055
C28	C	0.981756	0.729335	0.500055
C29	C	0.459072	0.045023	0.000053
C30	C	0.959072	0.545023	0.500053
C31	C	0.546219	0.046879	0.000053
C32	C	1.046219	0.546879	0.500053
C33	C	0.601133	0.139965	0.000047
C34	C	1.101133	0.639965	0.500047
C35	C	0.426838	0.136255	0.000052
C36	C	0.926838	0.636255	0.500052
C37	C	0.332347	0.134244	0.000058
C38	C	0.832347	0.634244	0.500058
C39	C	0.695630	0.141976	0.000043
C40	C	1.195630	0.641976	0.500043
C41	C	0.977393	-0.046831	0.000053
C42	C	1.477393	0.453169	0.500053
C43	C	0.949849	-0.159124	0.000048
C44	C	1.449849	0.340876	0.500048
C45	C	1.164017	-0.523987	0.000060
C46	C	1.664017	-0.023987	0.500060
C47	C	1.189898	-0.418483	0.000070
C48	C	1.689898	0.081517	0.500070
C49	C	1.129888	-0.353638	0.000064
C50	C	1.629888	0.146362	0.500064
C51	C	1.043992	-0.394307	0.000049
C52	C	1.543992	0.105693	0.500049
C53	C	1.018108	-0.499822	0.000046
C54	C	1.518108	0.000178	0.500046
C55	C	0.983979	-0.329473	0.000050
C56	C	1.483979	0.170527	0.500050
C57	C	0.898083	-0.370142	0.000035
C58	C	1.398083	0.129858	0.500035
C59	C	0.872203	-0.475647	0.000032
C60	C	1.372203	0.024353	0.500032
C61	C	0.932213	-0.540492	0.000038
C62	C	1.432213	-0.040492	0.500038
C63	C	1.009863	-0.223958	0.000053
C64	C	1.509863	0.276042	0.500053
C65	C	0.863954	-0.199793	0.000039
C66	C	1.363954	0.300207	0.500039
C67	C	0.838073	-0.305297	0.000029
C68	C	1.338073	0.194703	0.500029
C69	C	1.164275	0.130675	0.000060
C70	C	1.664275	0.630675	0.500060
C71	C	1.257024	0.132640	0.000060
C72	C	1.757024	0.632640	0.500060
C73	C	1.050578	0.323050	0.000052
C74	C	1.550578	0.823050	0.500052
C75	C	1.078122	0.435343	0.000052
C76	C	1.578122	0.935343	0.500052
N77	N	1.013977	0.138106	0.228228
N78	N	1.513977	0.638106	0.728228
N79	N	1.013998	0.138106	-0.228121
N80	N	1.513998	0.638106	0.271879
C81	C	1.054656	0.069342	0.453954
C82	C	1.554656	0.569342	0.953954
C83	C	1.054658	0.069340	0.546144
C84	C	1.554658	0.569340	1.046144
C85	C	0.973315	0.206873	0.546146
C86	C	1.473315	0.706873	1.046146
C87	C	0.973308	0.206869	0.453958
C88	C	1.473308	0.706869	0.953958
C89	C	1.013984	0.138105	0.407865
C90	C	1.513984	0.638105	0.907865
C91	C	1.013992	0.138106	0.592242
C92	C	1.513992	0.638106	1.092242
C93	C	1.013994	0.138104	0.692198
C94	C	1.513994	0.638104	1.192198
C95	C	1.013980	0.138106	0.307902
C96	C	1.513980	0.638106	0.807902
H97	H	0.572459	-0.027412	0.000054
H98	H	1.072459	0.472588	0.500054
F99	F	0.930030	0.280056	0.595208
F100	F	1.430030	0.780056	1.095208
F101	F	0.627346	0.330259	0.000046
F102	F	1.127346	0.830259	0.500046
F103	F	1.157436	-0.241351	0.000072
F104	F	1.657436	0.258649	0.500072
H105	H	0.455520	0.303619	0.000059
H106	H	0.955520	0.803619	0.500059
H107	H	1.259835	-0.385378	0.000084
H108	H	1.759835	0.114622	0.500084
F109	F	0.400621	-0.054040	0.000055
F110	F	0.900621	0.445960	0.500055
F111	F	1.227873	-0.593004	0.000080
F112	F	1.727873	-0.093004	0.500080
H113	H	0.815089	-0.146996	0.000039
H114	H	1.315089	0.353004	0.500039
F115	F	1.097945	-0.003849	0.595193
F116	F	1.597945	0.496151	1.095193
H117	H	0.802261	-0.508756	0.000026
H118	H	1.302261	-0.008756	0.500026
H119	H	1.087775	0.013349	0.416427
H120	H	1.587775	0.513349	0.916427
H121	H	0.768134	-0.338426	0.000018
H122	H	1.268134	0.161574	0.500018
H123	H	0.940184	0.262865	0.416429
H124	H	1.440184	0.762865	0.916429
H125	H	1.079800	-0.190856	0.000066
H126	H	1.579800	0.309144	0.500066
H127	H	0.911145	-0.626403	0.000026
H128	H	1.411145	-0.126403	0.500026
