data_functionalizedCrystal
_audit_creation_method	'MofGen! by Chris Wilmer'
_symmetry_space_group_name_H-M	'P1'
_symmetry_Int_Tables_number	1
_symmetry_cell_setting	triclinic
loop_
_symmetry_equiv_pos_as_xyz
  x,y,z
_cell_length_a	17.699083
_cell_length_b	17.699083
_cell_length_c	16.176319
_cell_angle_alpha	90.000050
_cell_angle_beta	90.004339
_cell_angle_gamma	96.716985
loop_
_atom_site_label
_atom_site_type_symbol
_atom_site_fract_x
_atom_site_fract_y
_atom_site_fract_z
O1	O	0.095710	-1.004078	0.068632
O2	O	0.108162	-0.783699	0.068660
O3	O	-0.008253	-0.900115	0.068638
O4	O	0.212125	-0.887662	0.068654
O5	O	-0.008254	-0.900101	-0.068855
O6	O	0.108162	-0.783686	-0.068834
O7	O	0.095709	-1.004064	-0.068861
Cu8	Cu	0.101935	-0.893874	-0.081401
Cu9	Cu	0.101936	-0.893890	0.081200
O10	O	0.212125	-0.887649	-0.068839
C11	C	0.107716	-0.755495	-0.000084
C12	C	0.106377	-0.671477	-0.000073
C13	C	-0.036451	-0.899662	-0.000109
C14	C	-0.120469	-0.898323	-0.000109
N15	N	0.101935	-0.893868	-0.195767
C16	C	-0.169090	-0.966656	-0.000119
C17	C	-0.248033	-0.965394	-0.000111
C18	C	-0.278354	-0.895798	-0.000100
C19	C	-0.229727	-0.827459	-0.000088
C20	C	-0.150785	-0.828722	-0.000089
C21	C	-0.548090	-0.822364	-0.000080
C22	C	-0.627038	-0.821106	-0.000081
C23	C	-0.645338	-0.959036	-0.000102
C24	C	-0.566396	-0.960299	-0.000104
C25	C	-0.517776	-0.891961	-0.000087
C26	C	-0.432177	-0.893330	-0.000094
C27	C	-0.363951	-0.894427	-0.000099
C28	C	0.240322	-0.888102	-0.000091
C29	C	0.324340	-0.889440	-0.000085
C30	C	0.096156	-1.032268	-0.000116
C31	C	0.097494	-1.116286	-0.000121
C32	C	0.174710	-0.622856	-0.000069
C33	C	0.173448	-0.543913	-0.000079
C34	C	0.103852	-0.513592	-0.000089
C35	C	0.035513	-0.562219	-0.000096
C36	C	0.036776	-0.641161	-0.000091
C37	C	0.030418	-0.243856	-0.000117
C38	C	0.029160	-0.164908	-0.000120
C39	C	0.167090	-0.146608	-0.000105
C40	C	0.168353	-0.225550	-0.000100
C41	C	0.100015	-0.274170	-0.000112
C42	C	0.101384	-0.359769	-0.000102
C43	C	0.102481	-0.427995	-0.000093
C44	C	0.147783	-0.939683	-0.239030
C45	C	0.147781	-0.939691	-0.325577
C46	C	0.101933	-0.893879	-0.368859
C47	C	0.056079	-0.848063	-0.325590
C48	C	0.056078	-0.848059	-0.239045
C49	C	0.056080	-0.848077	-0.674618
C50	C	0.056085	-0.848082	-0.761170
C51	C	0.147782	-0.939708	-0.761151
C52	C	0.147781	-0.939705	-0.674605
C53	C	0.101925	-0.893891	-0.631344
C54	C	0.101927	-0.893884	-0.537499
C55	C	0.101933	-0.893882	-0.462702
N56	N	0.101931	-0.893902	0.195565
H57	H	-0.144409	-1.023330	-0.000133
H58	H	0.185119	-0.977014	-0.796385
O59	O	-0.039555	-0.529522	-0.000110
H60	H	-0.028955	-0.466461	-0.000105
O61	O	-0.036930	-0.693602	-0.000096
H62	H	-0.039654	-0.730000	-0.056140
H63	H	0.222734	-0.107012	-0.000100
O64	O	0.006628	-0.798647	-0.372267
H65	H	0.014337	-0.806339	-0.439716
H66	H	-0.111198	-0.773078	-0.000081
O67	O	-0.262423	-0.752391	-0.000084
H68	H	-0.325485	-0.762991	-0.000097
H69	H	0.018740	-0.810773	-0.639405
H70	H	0.185123	-0.976983	-0.203795
O71	O	0.006632	-0.798641	-0.192376
H72	H	-0.025243	-0.766779	-0.237011
O73	O	0.197234	-0.989102	-0.372242
H74	H	0.229122	-1.020949	-0.327606
H75	H	-0.651721	-0.764429	-0.000074
H76	H	0.018748	-0.810775	-0.796408
H77	H	-0.287618	-1.021038	-0.000121
O78	O	0.249776	-0.655559	-0.000066
H79	H	0.297079	-0.608484	-0.000076
H80	H	-0.541714	-1.016971	-0.000117
H81	H	-0.684934	-1.014680	-0.000111
H82	H	-0.508512	-0.766718	-0.000067
H83	H	0.225025	-0.250232	-0.000089
O84	O	0.247150	-0.491469	-0.000075
H85	H	0.295756	-0.525815	-0.000057
O86	O	-0.045908	-0.132201	-0.000144
H87	H	-0.093216	-0.179271	-0.000162
O88	O	0.197232	-0.989113	-0.627919
H89	H	0.229110	-1.020978	-0.672544
H90	H	-0.025228	-0.283434	-0.000127
