data_functionalizedCrystal
_audit_creation_method	'MofGen! by Chris Wilmer'
_symmetry_space_group_name_H-M	'P1'
_symmetry_Int_Tables_number	1
_symmetry_cell_setting	triclinic
loop_
_symmetry_equiv_pos_as_xyz
  x,y,z
_cell_length_a	10.654550
_cell_length_b	13.448316
_cell_length_c	10.654551
_cell_angle_alpha	90.004814
_cell_angle_beta	84.485180
_cell_angle_gamma	90.003497
loop_
_atom_site_label
_atom_site_type_symbol
_atom_site_fract_x
_atom_site_fract_y
_atom_site_fract_z
O1	O	1.667846	0.082613	0.176402
O2	O	1.302367	0.082631	0.193208
O3	O	1.493509	0.082620	0.002066
O4	O	1.476704	0.082625	0.367544
O5	O	1.493484	-0.082764	0.002054
O6	O	1.302343	-0.082753	0.193196
O7	O	1.667821	-0.082770	0.176390
Cu8	Cu	1.485080	-0.097862	0.184792
Cu9	Cu	1.485109	0.097723	0.184806
O10	O	1.476680	-0.082759	0.367532
C11	C	1.255557	-0.000058	0.191968
C12	C	1.116114	-0.000051	0.188276
N13	N	1.485069	-0.235427	0.184781
C14	C	1.036629	-0.000053	0.300818
C15	C	0.905608	-0.000070	0.297341
C16	C	0.933570	-0.000081	0.068772
C17	C	1.064589	-0.000070	0.072249
C18	C	1.569733	-0.287472	0.100179
C19	C	1.569741	-0.391575	0.100178
C20	C	1.485090	-0.443631	0.184786
C21	C	1.400416	-0.391578	0.269393
C22	C	1.400404	-0.287477	0.269387
C23	C	1.400451	-0.608559	0.269401
C24	C	1.400466	-0.712667	0.269409
C25	C	1.569789	-0.712657	0.100192
C26	C	1.569776	-0.608555	0.100186
C27	C	1.485104	-0.556510	0.184795
C28	C	1.714632	-0.000079	0.177630
C29	C	1.854075	-0.000079	0.181322
C30	C	1.492262	-0.000071	-0.044738
C31	C	1.488570	-0.000066	-0.184181
N32	N	1.485130	0.235287	0.184807
C33	C	1.486850	0.090086	-0.249679
C34	C	1.483370	0.090087	-0.380699
C35	C	1.483335	-0.090223	-0.380714
C36	C	1.486806	-0.090223	-0.249695
C37	C	1.477926	-0.000066	0.414336
C38	C	1.481619	-0.000065	0.553779
H39	H	1.078576	-0.000045	0.395294
H40	H	1.638680	-0.433950	0.031287
C41	C	1.152033	-0.000068	-0.051549
H42	H	1.237441	-0.000070	-0.032857
H43	H	1.136308	0.057600	-0.099078
H44	H	1.136309	-0.057753	-0.099074
C45	C	0.818180	-0.000064	0.421137
H46	H	0.867636	-0.000044	0.490731
H47	H	0.766490	-0.057741	0.424538
H48	H	0.766487	0.057612	0.424527
H49	H	1.638711	-0.566172	0.031298
H50	H	0.891602	-0.000102	-0.025693
C51	C	1.481482	0.189251	-0.452747
H52	H	1.479148	0.176343	-0.540159
H53	H	1.555167	0.226288	-0.440215
H54	H	1.408940	0.226298	-0.422325
C55	C	1.662849	-0.230220	0.007106
H56	H	1.713264	-0.276130	-0.043288
H57	H	1.715515	-0.189596	0.052764
H58	H	1.617205	-0.189624	-0.045602
C59	C	1.307262	-0.448832	0.362425
H60	H	1.256818	-0.402923	0.412791
H61	H	1.352857	-0.489446	0.415145
H62	H	1.254609	-0.489438	0.316716
H63	H	1.331532	-0.755046	0.338305
H64	H	1.638731	-0.755038	0.031302
H65	H	1.481901	-0.163627	-0.434071
C66	C	1.307278	-0.230227	0.362454
H67	H	1.256872	-0.276137	0.412854
H68	H	1.254605	-0.189628	0.316787
H69	H	1.352911	-0.189607	0.415157
C70	C	1.488702	-0.189395	-0.177643
H71	H	1.487172	-0.243090	-0.235426
H72	H	1.416947	-0.193137	-0.117592
H73	H	1.563174	-0.193144	-0.135476
C74	C	1.488776	0.189255	-0.177616
H75	H	1.487241	0.242945	-0.235392
H76	H	1.563238	0.193002	-0.135443
H77	H	1.417011	0.193005	-0.117566
H78	H	1.331498	-0.566186	0.338295
