data_functionalizedCrystal
_audit_creation_method	'MofGen! by Chris Wilmer'
_symmetry_space_group_name_H-M	'P1'
_symmetry_Int_Tables_number	1
_symmetry_cell_setting	triclinic
loop_
_symmetry_equiv_pos_as_xyz
  x,y,z
_cell_length_a	15.538191
_cell_length_b	11.026607
_cell_length_c	9.482900
_cell_angle_alpha	78.599815
_cell_angle_beta	84.435542
_cell_angle_gamma	102.070945
loop_
_atom_site_label
_atom_site_type_symbol
_atom_site_fract_x
_atom_site_fract_y
_atom_site_fract_z
O1	O	1.198388	0.390442	-0.120920
O2	O	0.946238	0.260061	-0.120916
O3	O	1.051414	0.492699	-0.120913
O4	O	1.093211	0.157805	-0.120924
O5	O	1.030075	0.445303	0.120879
O6	O	0.924898	0.212666	0.120875
O7	O	1.177048	0.343047	0.120872
Cu8	Cu	1.049025	0.273529	0.142951
Cu9	Cu	1.074261	0.329579	-0.142996
O10	O	1.071872	0.110409	0.120868
C11	C	0.902786	0.222722	-0.000020
C12	C	0.805102	0.182089	-0.000019
N13	N	1.031281	0.234110	0.344071
C14	C	1.033034	0.510816	-0.000018
C15	C	1.010049	0.635406	-0.000023
C16	C	0.448859	0.585767	-0.000028
C17	C	0.357073	0.547558	-0.000030
C18	C	0.371075	0.332642	-0.000037
C19	C	0.462864	0.370831	-0.000028
C20	C	0.501749	0.497396	-0.000025
C21	C	0.515753	0.282460	-0.000024
C22	C	0.607535	0.320648	-0.000023
C23	C	0.646427	0.447208	-0.000024
C24	C	0.593530	0.535584	-0.000023
C25	C	0.476868	0.155898	-0.000038
C26	C	0.529757	0.067527	-0.000034
C27	C	0.621539	0.105712	-0.000022
C28	C	0.660431	0.232272	-0.000024
C29	C	0.674436	0.017336	-0.000023
C30	C	0.766218	0.055525	-0.000022
C31	C	0.752213	0.270460	-0.000022
C32	C	1.220501	0.380387	-0.000028
C33	C	1.318185	0.421022	-0.000039
C34	C	1.090252	0.092293	-0.000030
C35	C	1.113238	-0.032296	-0.000034
C36	C	1.073516	0.737168	-0.000026
C37	C	1.049762	0.865940	-0.000031
N38	N	1.092011	0.369011	-0.344115
C39	C	1.069021	0.317956	0.416271
C40	C	1.054265	0.285152	0.583688
H41	H	0.783874	0.373520	-0.000011
N42	N	0.954483	0.876792	-0.000013
H43	H	0.915391	0.791189	-0.000006
H44	H	0.950097	0.940845	-0.089647
H45	H	1.011024	0.189079	0.645811
H46	H	1.185176	0.959524	-0.000144
H47	H	0.938127	0.643620	-0.000032
N48	N	1.126264	0.445232	0.333992
H49	H	1.128680	0.450633	0.226058
H50	H	1.188353	0.454644	0.360479
N51	N	1.168788	0.726307	-0.000010
H52	H	1.172252	0.635854	0.000001
H53	H	1.190993	0.750393	0.089633
N54	N	0.487816	-0.068975	-0.000046
H55	H	0.421647	-0.079760	-0.000050
H56	H	0.499002	-0.126795	0.089593
N57	N	0.490806	0.722276	-0.000020
H58	H	0.556974	0.733053	-0.000018
H59	H	0.463795	0.744954	0.089622
H60	H	1.135244	0.465089	0.593762
N61	N	0.974004	0.106857	0.426357
H62	H	1.010535	0.059465	0.489500
H63	H	0.950855	0.055511	0.355082
N64	N	0.745418	0.488415	-0.000022
H65	H	0.778192	0.472993	-0.089653
H66	H	0.762289	0.437840	0.089671
N67	N	0.635474	0.672091	-0.000000
H68	H	0.624355	0.730005	-0.089627
H69	H	0.701628	0.682752	0.000057
H70	H	0.339403	0.229594	-0.000045
N71	N	0.300026	0.642881	-0.000043
H72	H	0.338590	0.728851	-0.000044
H73	H	0.253727	0.614154	0.089590
N74	N	0.377876	0.114686	-0.000038
H75	H	0.360924	0.165248	-0.089664
H76	H	0.345170	0.130091	0.089660
H77	H	0.642763	-0.085709	-0.000040
N78	N	0.823271	-0.039782	-0.000025
H79	H	0.784711	-0.125755	-0.000023
H80	H	0.853746	-0.046184	0.089610
