data_functionalizedCrystal
_audit_creation_method	'MofGen! by Chris Wilmer'
_symmetry_space_group_name_H-M	'P1'
_symmetry_Int_Tables_number	1
_symmetry_cell_setting	triclinic
loop_
_symmetry_equiv_pos_as_xyz
  x,y,z
_cell_length_a	17.038278
_cell_length_b	9.065218
_cell_length_c	8.140239
_cell_angle_alpha	90.001686
_cell_angle_beta	89.987453
_cell_angle_gamma	91.936807
loop_
_atom_site_label
_atom_site_type_symbol
_atom_site_fract_x
_atom_site_fract_y
_atom_site_fract_z
O1	O	1.039680	-0.320630	-0.136984
O2	O	0.812013	-0.315542	-0.136904
O3	O	0.930552	-0.103916	-0.136942
O4	O	0.921140	-0.532256	-0.136945
O5	O	0.930546	-0.103912	0.136285
O6	O	0.812006	-0.315539	0.136324
O7	O	1.039673	-0.320626	0.136244
Zn8	Zn	0.925839	-0.318082	0.179664
Zn9	Zn	0.925847	-0.318087	-0.180324
O10	O	0.921134	-0.532253	0.136282
C11	C	0.782848	-0.310910	-0.000280
C12	C	0.695955	-0.297096	-0.000249
C13	C	0.929644	-0.048837	-0.000331
C14	C	0.926940	0.115278	-0.000338
C15	C	1.068838	-0.325258	-0.000384
C16	C	1.155731	-0.339073	-0.000425
C17	C	1.646756	-0.423943	-0.000257
C18	C	1.565111	-0.410951	-0.000276
C19	C	1.532668	-0.271111	-0.000299
C20	C	1.581874	-0.144254	-0.000286
C21	C	1.663517	-0.157247	-0.000255
C22	C	1.286579	-0.225209	-0.000381
C23	C	1.204931	-0.212226	-0.000417
C24	C	1.188173	-0.478924	-0.000404
C25	C	1.269818	-0.491905	-0.000383
C26	C	1.319017	-0.365048	-0.000362
C27	C	1.449215	-0.257828	-0.000324
C28	C	1.402469	-0.378333	-0.000325
C29	C	0.922042	-0.587332	-0.000333
C30	C	0.924746	-0.751446	-0.000337
N31	N	0.925838	-0.318079	0.425347
N32	N	0.925854	-0.318079	-0.426007
H33	H	1.525056	-0.514244	-0.000285
C34	C	1.339857	-0.087306	-0.000449
C35	C	1.293966	0.037935	-0.000524
C36	C	1.343022	0.165003	-0.000607
H37	H	1.372050	-0.086611	0.094821
H38	H	1.372062	-0.086751	-0.095753
H39	H	1.261774	0.037380	0.094770
H40	H	1.261775	0.037288	-0.095787
H41	H	1.375228	0.165558	-0.095910
H42	H	1.375213	0.165683	0.094664
H43	H	1.311893	0.249993	-0.000673
C44	C	1.546608	0.007536	-0.000649
C45	C	1.500271	0.022786	-0.141262
C46	C	1.467781	0.162605	-0.141669
H47	H	1.515033	0.018310	0.094504
H48	H	1.587582	0.081270	-0.000726
H49	H	1.459303	-0.050926	-0.141170
H50	H	1.531828	0.012041	-0.236438
H51	H	1.508755	0.236338	-0.141746
H52	H	1.436210	0.173366	-0.046509
H53	H	1.436344	0.172975	-0.237079
H54	H	1.296227	-0.605778	-0.000384
H55	H	1.148108	-0.582203	-0.000418
H56	H	1.422791	-0.143969	-0.000295
H57	H	1.673164	-0.537816	-0.000240
H58	H	1.703575	-0.053954	-0.000250
H59	H	1.178519	-0.098346	-0.000437
H60	H	1.428887	-0.492190	-0.000298
