data_functionalizedCrystal
_audit_creation_method	'MofGen! by Chris Wilmer'
_symmetry_space_group_name_H-M	'P1'
_symmetry_Int_Tables_number	1
_symmetry_cell_setting	triclinic
loop_
_symmetry_equiv_pos_as_xyz
  x,y,z
_cell_length_a	13.033293
_cell_length_b	18.050590
_cell_length_c	13.032268
_cell_angle_alpha	97.145544
_cell_angle_beta	89.079182
_cell_angle_gamma	97.187921
loop_
_atom_site_label
_atom_site_type_symbol
_atom_site_fract_x
_atom_site_fract_y
_atom_site_fract_z
Zn1	Zn	1.498459	-0.231049	-0.781466
Zn2	Zn	1.998459	0.268951	-0.281466
Zn3	Zn	1.520200	-0.337772	-0.609486
Zn4	Zn	2.020200	0.162228	-0.109486
Zn5	Zn	1.348319	-0.227127	-0.587642
Zn6	Zn	1.848319	0.272873	-0.087642
Zn7	Zn	1.326451	-0.368731	-0.759524
Zn8	Zn	1.826451	0.131269	-0.259524
O9	O	1.423357	-0.291170	-0.684529
O10	O	1.923357	0.208830	-0.184529
O11	O	1.645262	-0.233891	-0.776977
O12	O	2.145262	0.266109	-0.276977
O13	O	1.515651	-0.308497	-0.462681
O14	O	2.015651	0.191503	0.037319
O15	O	1.368289	-0.123722	-0.613395
O16	O	1.868289	0.376278	-0.113395
O17	O	1.661235	-0.312300	-0.650624
O18	O	2.161235	0.187700	-0.150624
O19	O	1.478596	-0.126603	-0.755796
O20	O	1.978596	0.373397	-0.255796
O21	O	1.389371	-0.227207	-0.446632
O22	O	1.889371	0.272793	0.053368
O23	O	1.201499	-0.257226	-0.592118
O24	O	1.701499	0.242774	-0.092118
O25	O	1.331017	-0.365065	-0.906342
O26	O	1.831017	0.134935	-0.406342
O27	O	1.185433	-0.361262	-0.718398
O28	O	1.685433	0.138738	-0.218398
O29	O	1.457391	-0.263910	-0.922463
O30	O	1.957391	0.236090	-0.422463
O31	O	1.494446	-0.445805	-0.629347
O32	O	1.994446	0.054195	-0.129347
O33	O	1.352099	-0.468550	-0.739579
O34	O	1.852099	0.031450	-0.239579
C35	C	1.156149	-0.312179	-0.650507
C36	C	1.656149	0.187821	-0.150507
C37	C	1.041834	-0.321187	-0.635977
C38	C	1.541834	0.178813	-0.135977
C39	C	0.982952	-0.286487	-0.692113
C40	C	1.482952	0.213513	-0.192113
C41	C	0.864801	-0.295797	-0.677096
C42	C	1.364801	0.204203	-0.177096
C43	C	1.423283	-0.484124	-0.684478
C44	C	1.923283	0.015876	-0.184478
C45	C	1.423342	-0.566667	-0.684503
C46	C	1.923342	-0.066667	-0.184503
C47	C	1.500881	-0.753720	-0.624673
C48	C	2.000881	-0.253720	-0.124673
C49	C	1.514078	-0.810616	-0.721723
C50	C	2.014078	-0.310616	-0.221723
C51	C	1.423395	-0.717797	-0.684551
C52	C	1.923395	-0.217797	-0.184551
C53	C	1.410296	-0.807979	-0.587556
C54	C	1.910296	-0.307979	-0.087556
C55	C	1.423449	-0.863780	-0.684590
C56	C	1.923449	-0.363780	-0.184590
C57	C	1.436634	-0.773606	-0.781657
C58	C	1.936634	-0.273606	-0.281657
C59	C	1.332817	-0.770962	-0.647422
C60	C	1.832817	-0.270962	-0.147422
C61	C	1.345971	-0.827845	-0.744532
C62	C	1.845971	-0.327845	-0.244532
C63	C	1.423366	-0.633699	-0.684528
C64	C	1.923366	-0.133699	-0.184528
C65	C	1.423476	-0.947878	-0.684624
C66	C	1.923476	-0.447878	-0.184624
C67	C	1.691608	-0.270080	-0.718685
C68	C	2.191608	0.229920	-0.218685
C69	C	1.805921	-0.261092	-0.733240
C70	C	2.305921	0.238908	-0.233240
C71	C	1.389339	-0.318378	-0.952759
C72	C	1.889339	0.181622	-0.452759
C73	C	1.374843	-0.329973	-1.067063
C74	C	1.874843	0.170027	-0.567063
C75	C	1.423457	-0.097462	-0.684607
C76	C	1.923457	0.402538	-0.184607
C77	C	1.423499	-0.014916	-0.684640
C78	C	1.923499	0.485084	-0.184640
C79	C	1.430907	-0.285093	-1.125999
C80	C	1.930907	0.214907	-0.625999
C81	C	1.415926	-0.297076	-1.244138
C82	C	1.915926	0.202924	-0.744138
C83	C	1.457302	-0.264009	-0.417351
C84	C	1.957302	0.235991	0.082649
C85	C	1.471998	-0.252190	-0.303073
C86	C	1.971998	0.247810	0.196927
H87	H	1.020013	-0.249885	-0.751286
H88	H	1.520013	0.250115	-0.251286
C89	C	1.451762	-0.752995	-0.892541
C90	C	1.951762	-0.252995	-0.392541
N91	N	1.463160	-0.737467	-0.976057
N92	N	1.963160	-0.237467	-0.476057
C93	C	1.510734	-0.221197	-1.076014
C94	C	2.010734	0.278803	-0.576014
N95	N	1.570862	-0.173069	-1.038366
N96	N	2.070862	0.326931	-0.538366
C97	C	0.991772	-0.370632	-0.556029
C98	C	1.491772	0.129368	-0.056029
N99	N	0.954067	-0.407876	-0.495811
N100	N	1.454067	0.092124	0.004189
C101	C	1.617589	-0.834372	-0.764175
C102	C	2.117589	-0.334372	-0.264175
N103	N	1.695557	-0.852264	-0.796142
N104	N	2.195557	-0.352264	-0.296142
C105	C	1.551834	-0.188292	-1.253095
C106	C	2.051834	0.311708	-0.753095
N107	N	1.611967	-0.140166	-1.215450
N108	N	2.111967	0.359834	-0.715450
C109	C	0.855976	-0.211645	-0.813194
C110	C	1.355976	0.288355	-0.313194
N111	N	0.893678	-0.174403	-0.873416
N112	N	1.393678	0.325597	-0.373416
C113	C	1.257464	-0.871092	-0.813051
C114	C	1.757464	-0.371092	-0.313051
N115	N	1.190803	-0.903666	-0.864662
N116	N	1.690803	-0.403666	-0.364662
C117	C	1.589419	-0.710293	-0.556355
C118	C	2.089419	-0.210293	-0.056355
N119	N	1.656108	-0.677580	-0.504905
N120	N	2.156108	-0.177580	-0.004905
H121	H	1.256221	-0.753360	-0.615970
H122	H	1.756221	-0.253360	-0.115970
C123	C	1.395293	-0.828706	-0.476718
C124	C	1.895293	-0.328706	0.023282
N125	N	1.383999	-0.844313	-0.393233
N126	N	1.883999	-0.344313	0.106767
H127	H	1.315746	-0.377263	-1.104066
H128	H	1.815746	0.122737	-0.604066
C129	C	0.814744	-0.345244	-0.597144
C130	C	1.314744	0.154756	-0.097144
N131	N	0.777038	-0.382488	-0.536926
N132	N	1.277038	0.117512	-0.036926
C133	C	1.336088	-0.360971	-1.294118
C134	C	1.836088	0.139029	-0.794118
N135	N	1.275955	-0.409096	-1.331765
N136	N	1.775955	0.090904	-0.831765
