data_functionalizedCrystal
_audit_creation_method	'MofGen! by Chris Wilmer'
_symmetry_space_group_name_H-M	'P1'
_symmetry_Int_Tables_number	1
_symmetry_cell_setting	triclinic
loop_
_symmetry_equiv_pos_as_xyz
  x,y,z
_cell_length_a	12.759401
_cell_length_b	15.297327
_cell_length_c	12.759393
_cell_angle_alpha	99.641734
_cell_angle_beta	89.981504
_cell_angle_gamma	99.706546
loop_
_atom_site_label
_atom_site_type_symbol
_atom_site_fract_x
_atom_site_fract_y
_atom_site_fract_z
Zn1	Zn	1.533799	-0.359102	-0.666297
Zn2	Zn	1.503249	-0.509990	-0.521002
Zn3	Zn	1.358091	-0.359150	-0.490645
Zn4	Zn	1.327659	-0.509920	-0.696630
O5	O	1.430699	-0.434541	-0.593643
O6	O	1.676766	-0.379127	-0.647033
O7	O	1.483944	-0.490029	-0.369964
O8	O	1.406921	-0.232898	-0.488547
O9	O	1.654320	-0.489984	-0.540286
O10	O	1.536012	-0.232864	-0.617597
O11	O	1.377297	-0.379208	-0.347661
O12	O	1.207035	-0.379140	-0.517960
O13	O	1.355053	-0.489865	-0.839617
O14	O	1.184677	-0.489911	-0.669295
O15	O	1.506503	-0.379060	-0.817332
O16	O	1.454435	-0.636226	-0.569698
O17	O	1.325430	-0.636175	-0.698731
C18	C	1.157735	-0.434524	-0.593626
C19	C	1.040956	-0.434539	-0.593648
C20	C	1.383343	-0.668934	-0.640823
C21	C	1.363180	-0.769208	-0.661042
C22	C	0.974461	-0.492309	-0.672355
C23	C	0.864734	-0.492321	-0.672369
C24	C	0.888009	-0.376788	-0.514958
C25	C	0.997734	-0.376773	-0.514949
C26	C	1.017683	-0.550075	-0.751054
C27	C	0.951186	-0.607851	-0.829768
C28	C	0.841460	-0.607862	-0.829781
C29	C	0.798230	-0.550098	-0.751081
C30	C	1.575241	-1.051846	-0.449495
C31	C	1.594185	-0.957633	-0.430493
C32	C	1.536436	-0.910523	-0.488129
C33	C	1.459739	-0.957634	-0.564769
C34	C	1.440787	-1.051856	-0.583767
C35	C	1.401982	-0.910532	-0.622401
C36	C	1.325285	-0.957643	-0.699042
C37	C	1.306338	-1.051856	-0.718037
C38	C	1.364087	-1.098967	-0.660401
C39	C	1.420933	-0.816310	-0.603403
C40	C	1.286480	-0.816320	-0.737676
C41	C	1.267536	-0.910532	-0.756677
C42	C	1.704729	-0.434558	-0.593662
C43	C	1.821504	-0.434565	-0.593670
C44	C	1.430791	-0.434450	-0.867659
C45	C	1.430831	-0.434411	-0.984427
C46	C	1.478269	-0.199232	-0.546302
C47	C	1.498541	-0.098957	-0.526129
C48	C	1.509701	-0.376709	-1.027686
C49	C	1.509733	-0.376676	-1.137404
C50	C	1.352019	-0.492055	-1.160596
C51	C	1.351984	-0.492083	-1.050879
C52	C	1.588548	-0.319037	-0.961234
C53	C	1.667426	-0.261331	-1.004492
C54	C	1.667457	-0.261299	-1.114210
C55	C	1.588611	-0.318972	-1.180669
C56	C	1.430681	-0.434566	-0.320681
C57	C	1.430897	-0.434351	-0.203862
H58	H	1.107026	-0.550073	-0.751050
C59	C	1.266415	-0.554634	-1.003696
C60	C	1.283245	-0.542293	-0.893384
C61	C	1.204429	-0.599888	-0.849881
H62	H	1.269464	-0.615284	-1.033743
H63	H	1.198480	-0.541410	-1.018953
H64	H	1.351163	-0.555522	-0.878136
H65	H	1.280186	-0.481655	-0.863308
H66	H	1.136493	-0.586665	-0.865138
H67	H	1.207484	-0.660535	-0.879936
H68	H	1.215831	-0.591517	-0.775029
C69	C	0.997953	-0.670706	-0.915182
C70	C	0.953213	-0.759945	-0.910117
C71	C	0.996255	-0.817871	-0.988796
H72	H	1.072816	-0.662551	-0.903995
H73	H	0.982617	-0.657629	-0.983184
H74	H	0.968556	-0.773017	-0.842131
H75	H	0.878354	-0.768129	-0.921316
H76	H	0.980920	-0.804794	-1.056799
H77	H	1.071117	-0.809708	-0.977602
H78	H	0.965898	-0.878426	-0.985377
C79	C	1.753083	-0.198616	-0.932511
C80	C	1.822144	-0.148057	-0.993879
C81	C	1.901056	-0.090264	-0.927607
H82	H	1.791983	-0.233042	-0.896633
H83	H	1.720862	-0.159268	-0.881813
H84	H	1.854362	-0.187400	-1.044557
H85	H	1.783275	-0.113614	-1.029756
H86	H	1.868836	-0.050916	-0.876910
H87	H	1.939948	-0.124697	-0.891732
H88	H	1.947917	-0.055947	-0.969234
C89	C	1.677539	-0.906650	-0.347290
C90	C	1.724081	-0.968069	-0.300904
C91	C	1.800889	-0.921135	-0.224262
H92	H	1.644876	-0.869949	-0.293985
H93	H	1.730750	-0.869858	-0.380081
H94	H	1.670879	-1.004845	-0.268113
H95	H	1.756766	-1.004771	-0.354182
H96	H	1.854099	-0.884343	-0.257052
H97	H	1.768216	-0.884436	-0.170964
H98	H	1.832483	-0.962800	-0.192786
H99	H	1.588633	-0.318930	-1.270006
H100	H	1.205089	-0.948904	-0.819079
C101	C	0.769408	-0.670532	-0.915400
C102	C	0.800104	-0.651011	-1.015455
C103	C	0.733765	-0.708737	-1.094353
H104	H	0.697841	-0.662327	-0.904294
H105	H	0.775169	-0.731144	-0.912164
H106	H	0.794333	-0.590414	-1.018689
H107	H	0.871660	-0.659222	-1.026596
H108	H	0.739525	-0.769348	-1.091117
H109	H	0.662201	-0.700526	-1.083237
H110	H	0.754588	-0.695505	-1.162250
H111	H	1.731677	-0.214306	-1.149425
H112	H	0.708884	-0.550104	-0.751106
C113	C	0.840864	-0.314186	-0.429566
C114	C	0.730535	-0.326585	-0.446400
C115	C	0.687069	-0.268944	-0.367745
H116	H	0.870961	-0.253544	-0.432776
H117	H	0.856109	-0.327330	-0.361574
H118	H	0.715298	-0.313434	-0.514375
H119	H	0.700409	-0.387215	-0.443180
H120	H	0.702314	-0.282088	-0.299753
H121	H	0.717174	-0.208306	-0.370962
H122	H	0.612206	-0.277355	-0.379151
C123	C	1.266549	-0.554642	-1.232933
C124	C	1.283480	-0.542286	-1.338280
C125	C	1.204777	-0.599938	-1.404947
H126	H	1.198566	-0.541499	-1.212435
H127	H	1.269674	-0.615282	-1.227203
H128	H	1.280344	-0.481660	-1.344005
H129	H	1.351447	-0.555435	-1.358810
H130	H	1.207902	-0.660578	-1.399218
H131	H	1.136799	-0.586790	-1.384440
H132	H	1.216259	-0.591569	-1.476433
H133	H	1.051878	-0.329724	-0.450865
H134	H	1.483380	-0.777960	-0.541002
H135	H	1.551863	-0.833810	-0.472652
H136	H	1.622246	-1.090213	-0.402570
H137	H	1.348670	-1.175683	-0.675871
H138	H	1.243874	-1.090211	-0.780430
H139	H	1.588533	-0.319059	-0.871896
H140	H	1.239453	-0.777962	-0.784606
