data_functionalizedCrystal
_audit_creation_method	'MofGen! by Chris Wilmer'
_symmetry_space_group_name_H-M	'P1'
_symmetry_Int_Tables_number	1
_symmetry_cell_setting	triclinic
loop_
_symmetry_equiv_pos_as_xyz
  x,y,z
_cell_length_a	25.639242
_cell_length_b	12.827893
_cell_length_c	12.827893
_cell_angle_alpha	90.002335
_cell_angle_beta	89.991606
_cell_angle_gamma	90.005560
loop_
_atom_site_label
_atom_site_type_symbol
_atom_site_fract_x
_atom_site_fract_y
_atom_site_fract_z
Zn1	Zn	-0.799314	-0.416468	0.591012
Zn2	Zn	-0.799302	-0.591176	0.416288
Zn3	Zn	-0.711901	-0.416422	0.416272
Zn4	Zn	-0.711889	-0.591140	0.590974
O5	O	-0.755601	-0.503801	0.503637
O6	O	-0.872477	-0.439677	0.567858
O7	O	-0.787709	-0.567991	0.270050
O8	O	-0.723507	-0.270192	0.439461
O9	O	-0.872469	-0.568035	0.439488
O10	O	-0.787728	-0.270226	0.567842
O11	O	-0.723496	-0.439600	0.270038
O12	O	-0.638735	-0.439565	0.439424
O13	O	-0.723485	-0.567973	0.737215
O14	O	-0.638725	-0.567929	0.567776
O15	O	-0.787716	-0.439642	0.737243
O16	O	-0.787697	-0.737407	0.439451
O17	O	-0.723474	-0.737380	0.567792
C18	C	-0.619759	-0.503738	0.503595
C19	C	-0.561645	-0.503737	0.503602
C20	C	-0.310464	-0.437063	0.570574
C21	C	-0.365068	-0.437055	0.570572
O22	O	-0.393315	-0.380333	0.627521
N23	N	-0.392371	-0.503772	0.503627
C24	C	-0.365067	-0.570508	0.436689
O25	O	-0.393304	-0.627256	0.379748
C26	C	-0.310463	-0.570520	0.436698
C27	C	-0.283163	-0.503792	0.503639
C28	C	-0.283164	-0.370341	0.637511
C29	C	-0.228563	-0.370347	0.637512
C30	C	-0.201263	-0.437076	0.570577
C31	C	-0.228563	-0.503798	0.503640
C32	C	-0.283160	-0.637261	0.369765
C33	C	-0.228553	-0.637268	0.369780
C34	C	-0.201253	-0.570539	0.436722
C35	C	-0.146662	-0.570534	0.436706
N36	N	-0.119359	-0.503817	0.503650
C37	C	-0.146659	-0.437088	0.570586
C38	C	-0.479737	-0.570479	0.436677
C39	C	-0.534340	-0.570462	0.436662
C40	C	-0.534337	-0.437010	0.570546
C41	C	-0.479734	-0.437023	0.570555
C42	C	-0.452434	-0.503762	0.503621
C43	C	-0.031994	-0.437107	0.570582
C44	C	0.022611	-0.437116	0.570574
C45	C	0.022604	-0.570571	0.436694
C46	C	-0.031997	-0.570558	0.436698
C47	C	-0.059294	-0.503822	0.503650
O48	O	-0.118380	-0.627230	0.379788
O49	O	-0.118416	-0.380360	0.627527
C50	C	-0.755597	-0.775311	0.503641
C51	C	-0.755643	-0.891464	0.503679
C52	C	-0.755600	-0.503808	0.776207
C53	C	-0.755600	-0.503811	0.892360
C54	C	0.108026	-0.503853	0.503664
C55	C	0.049912	-0.503845	0.503639
C56	C	-0.755620	-0.231231	0.503655
C57	C	-0.755628	-0.115078	0.503662
C58	C	-0.787415	0.056738	0.440175
C59	C	-0.787408	-0.063313	0.440165
C60	C	-0.787379	-0.440317	0.944159
C61	C	-0.787380	-0.440318	1.064209
C62	C	-0.755599	-0.503818	1.232127
C63	C	-0.755599	-0.503815	1.115974
H64	H	-0.457510	-0.382685	0.625064
H65	H	-0.814585	-0.385952	0.899629
O66	O	-0.723100	-0.062000	0.568421
C67	C	-0.634183	-0.028414	0.619146
C68	C	-0.670961	-0.088580	0.545724
H69	H	-0.592021	-0.049898	0.600837
H70	H	-0.639925	0.058952	0.607595
H71	H	-0.643383	-0.049809	0.703422
H72	H	-0.661784	-0.067272	0.461420
H73	H	-0.665212	-0.175931	0.557366
H74	H	-0.814589	-0.385962	1.108755
H75	H	0.044842	-0.624896	0.382193
O76	O	-0.819826	0.110013	0.375353
C77	C	-0.849423	0.278240	0.316336
C78	C	-0.812682	0.218039	0.389784
H79	H	-0.843668	0.365589	0.327994
H80	H	-0.840250	0.256929	0.232025
H81	H	-0.891585	0.256757	0.334667
H82	H	-0.770508	0.239489	0.371547
H83	H	-0.821900	0.239355	0.474074
H84	H	-0.728392	-0.558181	1.071435
O85	O	-0.819860	-0.116607	0.375430
C86	C	-0.849425	-0.284855	0.316365
C87	C	-0.812644	-0.224628	0.389729
H88	H	-0.843596	-0.372200	0.327885
H89	H	-0.891599	-0.263532	0.334757
H90	H	-0.840283	-0.263409	0.232077
H91	H	-0.821739	-0.246041	0.474042
H92	H	-0.770481	-0.245956	0.371247
O93	O	-0.453163	-0.635159	0.371591
C94	C	-0.391533	-0.649009	0.230432
C95	C	-0.421582	-0.575642	0.304088
H96	H	-0.366001	-0.600918	0.175823
H97	H	-0.365944	-0.703723	0.278260
H98	H	-0.420440	-0.696709	0.182637
H99	H	-0.392713	-0.527875	0.351900
H100	H	-0.447179	-0.520997	0.256201
O101	O	-0.723215	-0.568782	0.945518
C102	C	-0.716229	-0.709720	1.068910
C103	C	-0.752965	-0.636218	1.008761
H104	H	-0.740267	-0.764245	1.120073
H105	H	-0.692312	-0.757603	1.011284
H106	H	-0.688905	-0.661666	1.119960
H107	H	-0.780321	-0.684190	0.957710
H108	H	-0.776846	-0.588331	1.066444
H109	H	-0.728438	0.064005	0.558044
O110	O	0.049049	-0.372262	0.635706
C111	C	0.043278	-0.239853	0.768456
C112	C	0.013276	-0.313258	0.694768
H113	H	0.014369	-0.192114	0.816212
H114	H	0.068819	-0.287869	0.823093
H115	H	0.068865	-0.185180	0.720555
H116	H	-0.012339	-0.367946	0.742585
H117	H	-0.012232	-0.265177	0.640128
H118	H	-0.305379	-0.691599	0.315254
H119	H	-0.054214	-0.382763	0.625101
H120	H	-0.305386	-0.316002	0.692024
O121	O	-0.202072	-0.305646	0.702699
C122	C	-0.185423	-0.255173	0.880549
C123	C	-0.215440	-0.328529	0.806836
H124	H	-0.196228	-0.273633	0.964758
H125	H	-0.141698	-0.266632	0.869162
H126	H	-0.196146	-0.170886	0.862283
H127	H	-0.204760	-0.412844	0.825056
H128	H	-0.259157	-0.316979	0.818236
O129	O	-0.560943	-0.372293	0.635544
C130	C	-0.645069	-0.313115	0.694821
C131	C	-0.615001	-0.386470	0.621182
H132	H	-0.688780	-0.324536	0.683219
H133	H	-0.634383	-0.331608	0.779079
H134	H	-0.634296	-0.228831	0.676628
H135	H	-0.625757	-0.470779	0.639280
H136	H	-0.625689	-0.367888	0.536946
H137	H	-0.556563	-0.624788	0.382140
H138	H	-0.054226	-0.624885	0.382179
O139	O	-0.202116	-0.702134	0.304659
C140	C	-0.207886	-0.834554	0.171920
C141	C	-0.237889	-0.761133	0.245599
H142	H	-0.236796	-0.882290	0.124167
H143	H	-0.182328	-0.786550	0.117281
H144	H	-0.182317	-0.889230	0.219829
H145	H	-0.263487	-0.706443	0.197774
H146	H	-0.263415	-0.809202	0.300241
