data_functionalizedCrystal
_audit_creation_method	'MofGen! by Chris Wilmer'
_symmetry_space_group_name_H-M	'P1'
_symmetry_Int_Tables_number	1
_symmetry_cell_setting	triclinic
loop_
_symmetry_equiv_pos_as_xyz
  x,y,z
_cell_length_a	21.395362
_cell_length_b	16.625546
_cell_length_c	16.625539
_cell_angle_alpha	89.969603
_cell_angle_beta	89.960022
_cell_angle_gamma	90.038346
loop_
_atom_site_label
_atom_site_type_symbol
_atom_site_fract_x
_atom_site_fract_y
_atom_site_fract_z
Zn1	Zn	0.957871	-0.320658	-0.456315
Zn2	Zn	1.207871	-0.070658	-0.206315
Zn3	Zn	1.457871	0.179342	0.043685
Zn4	Zn	1.707871	0.429342	0.293685
Zn5	Zn	0.957796	-0.455502	-0.321478
Zn6	Zn	1.207796	-0.205502	-0.071478
Zn7	Zn	1.457796	0.044498	0.178522
Zn8	Zn	1.707796	0.294498	0.428522
Zn9	Zn	0.853093	-0.320724	-0.321450
Zn10	Zn	1.103093	-0.070724	-0.071450
Zn11	Zn	1.353093	0.179276	0.178550
Zn12	Zn	1.603093	0.429276	0.428550
Zn13	Zn	0.853070	-0.455490	-0.456222
Zn14	Zn	1.103070	-0.205490	-0.206222
Zn15	Zn	1.353070	0.044510	0.043778
Zn16	Zn	1.603070	0.294510	0.293778
O17	O	0.905457	-0.388093	-0.388866
O18	O	1.155457	-0.138093	-0.138866
O19	O	1.405457	0.111907	0.111134
O20	O	1.655457	0.361907	0.361134
O21	O	1.045539	-0.338523	-0.438479
O22	O	1.295539	-0.088523	-0.188479
O23	O	1.545539	0.161477	0.061521
O24	O	1.795539	0.411477	0.311521
O25	O	0.943885	-0.437655	-0.208642
O26	O	1.193885	-0.187655	0.041358
O27	O	1.443885	0.062345	0.291358
O28	O	1.693885	0.312345	0.541358
O29	O	0.867033	-0.207883	-0.339368
O30	O	1.117033	0.042117	-0.089368
O31	O	1.367033	0.292117	0.160632
O32	O	1.617033	0.542117	0.410632
O33	O	1.045484	-0.437592	-0.339415
O34	O	1.295484	-0.187592	-0.089415
O35	O	1.545484	0.062408	0.160585
O36	O	1.795484	0.312408	0.410585
O37	O	0.944013	-0.207835	-0.438453
O38	O	1.194013	0.042165	-0.188453
O39	O	1.444013	0.292165	0.061547
O40	O	1.694013	0.542165	0.311547
O41	O	0.866960	-0.338635	-0.208621
O42	O	1.116960	-0.088635	0.041379
O43	O	1.366960	0.161365	0.291379
O44	O	1.616960	0.411365	0.541379
O45	O	0.765412	-0.338624	-0.339277
O46	O	1.015412	-0.088624	-0.089277
O47	O	1.265412	0.161376	0.160723
O48	O	1.515412	0.411376	0.410723
O49	O	0.866994	-0.437572	-0.569067
O50	O	1.116994	-0.187572	-0.319067
O51	O	1.366994	0.062428	-0.069067
O52	O	1.616994	0.312428	0.180933
O53	O	0.765395	-0.437636	-0.438293
O54	O	1.015395	-0.187636	-0.188293
O55	O	1.265395	0.062364	0.061707
O56	O	1.515395	0.312364	0.311707
O57	O	0.943991	-0.338512	-0.569135
O58	O	1.193991	-0.088512	-0.319135
O59	O	1.443991	0.161488	-0.069135
O60	O	1.693991	0.411488	0.180865
O61	O	0.943862	-0.568332	-0.339324
O62	O	1.193862	-0.318332	-0.089324
O63	O	1.443862	-0.068332	0.160676
O64	O	1.693862	0.181668	0.410676
O65	O	0.866921	-0.568324	-0.438320
O66	O	1.116921	-0.318324	-0.188320
O67	O	1.366921	-0.068324	0.061680
O68	O	1.616921	0.181676	0.311680
C69	C	0.742670	-0.388136	-0.388773
C70	C	0.992670	-0.138136	-0.138773
C71	C	1.242670	0.111864	0.111227
C72	C	1.492670	0.361864	0.361227
C73	C	0.673028	-0.388174	-0.388752
C74	C	0.923028	-0.138174	-0.138752
C75	C	1.173028	0.111826	0.111248
C76	C	1.423028	0.361826	0.361248
C77	C	0.640323	-0.439798	-0.440232
C78	C	0.890323	-0.189798	-0.190232
C79	C	1.140323	0.060202	0.059768
C80	C	1.390323	0.310202	0.309768
C81	C	0.574888	-0.439778	-0.440268
C82	C	0.824888	-0.189778	-0.190268
C83	C	1.074888	0.060222	0.059732
C84	C	1.324888	0.310222	0.309732
C85	C	0.542160	-0.388143	-0.388809
C86	C	0.792160	-0.138143	-0.138809
C87	C	1.042160	0.111857	0.111191
C88	C	1.292160	0.361857	0.361191
C89	C	0.574874	-0.336509	-0.337325
C90	C	0.824874	-0.086509	-0.087325
C91	C	1.074874	0.163491	0.162675
C92	C	1.324874	0.413491	0.412675
C93	C	0.640308	-0.336524	-0.337296
C94	C	0.890308	-0.086524	-0.087296
C95	C	1.140308	0.163476	0.162704
C96	C	1.390308	0.413476	0.412704
C97	C	0.438439	-0.381662	-0.316222
C98	C	0.688439	-0.131662	-0.066222
C99	C	0.938439	0.118338	0.183778
C100	C	1.188439	0.368338	0.433778
C101	C	0.373006	-0.381652	-0.316249
C102	C	0.623006	-0.131652	-0.066249
C103	C	0.873006	0.118348	0.183751
C104	C	1.123006	0.368348	0.433751
C105	C	0.340339	-0.388090	-0.388898
C106	C	0.590339	-0.138090	-0.138898
C107	C	0.840339	0.111910	0.111102
C108	C	1.090339	0.361910	0.361102
C109	C	0.373114	-0.394555	-0.461523
C110	C	0.623114	-0.144555	-0.211523
C111	C	0.873114	0.105445	0.038477
C112	C	1.123114	0.355445	0.288477
C113	C	0.438548	-0.394570	-0.461494
C114	C	0.688548	-0.144570	-0.211494
C115	C	0.938548	0.105430	0.038506
C116	C	1.188548	0.355430	0.288506
C117	C	0.471208	-0.388120	-0.388835
C118	C	0.721208	-0.138120	-0.138835
C119	C	0.971208	0.111880	0.111165
C120	C	1.221208	0.361880	0.361165
C121	C	0.236681	-0.439695	-0.440422
C122	C	0.486681	-0.189695	-0.190422
C123	C	0.736681	0.060305	0.059578
C124	C	0.986681	0.310305	0.309578
C125	C	0.171245	-0.439670	-0.440459
C126	C	0.421245	-0.189670	-0.190459
C127	C	0.671245	0.060330	0.059541
C128	C	0.921245	0.310330	0.309541
C129	C	0.171232	-0.336405	-0.337509
C130	C	0.421232	-0.086405	-0.087509
C131	C	0.671232	0.163595	0.162491
C132	C	0.921232	0.413595	0.412491
C133	C	0.236667	-0.336426	-0.337479
C134	C	0.486667	-0.086426	-0.087479
C135	C	0.736667	0.163574	0.162521
C136	C	0.986667	0.413574	0.412521
C137	C	0.269388	-0.388076	-0.388934
C138	C	0.519388	-0.138076	-0.138934
C139	C	0.769388	0.111924	0.111066
C140	C	1.019388	0.361924	0.361066
C141	C	0.905398	-0.597584	-0.388832
C142	C	1.155398	-0.347584	-0.138832
C143	C	1.405398	-0.097584	0.111168
C144	C	1.655398	0.152416	0.361168
C145	C	0.905430	-0.687205	-0.388845
C146	C	1.155430	-0.437205	-0.138845
C147	C	1.405430	-0.187205	0.111155
C148	C	1.655430	0.062795	0.361155
C149	C	0.905539	-1.015381	-0.388929
C150	C	1.155539	-0.765381	-0.138929
C151	C	1.405539	-0.515381	0.111071
C152	C	1.655539	-0.265381	0.361071
C153	C	0.905507	-0.924073	-0.388908
C154	C	1.155507	-0.674073	-0.138908
C155	C	1.405507	-0.424073	0.111092
C156	C	1.655507	-0.174073	0.361092
C157	C	0.905484	-0.851296	-0.388887
C158	C	1.155484	-0.601296	-0.138887
C159	C	1.405484	-0.351296	0.111113
C160	C	1.655484	-0.101296	0.361113
C161	C	0.905453	-0.759982	-0.388866
C162	C	1.155453	-0.509982	-0.138866
C163	C	1.405453	-0.259982	0.111134
C164	C	1.655453	-0.009982	0.361134
C165	C	1.068881	-0.388051	-0.388961
C166	C	1.318881	-0.138051	-0.138961
C167	C	1.568881	0.111949	0.111039
C168	C	1.818881	0.361949	0.361039
C169	C	1.138522	-0.388033	-0.389001
C170	C	1.388522	-0.138033	-0.139001
C171	C	1.638522	0.111967	0.110999
C172	C	1.888522	0.361967	0.360999
C173	C	0.905498	-0.388033	-0.599175
C174	C	1.155498	-0.138033	-0.349175
C175	C	1.405498	0.111967	-0.099175
C176	C	1.655498	0.361967	0.150825
C177	C	0.905516	-0.388008	-0.688796
C178	C	1.155516	-0.138008	-0.438796
C179	C	1.405516	0.111992	-0.188796
C180	C	1.655516	0.361992	0.061204
C181	C	0.905534	-0.177785	-0.388918
C182	C	1.155534	0.072215	-0.138918
C183	C	1.405534	0.322215	0.111082
C184	C	1.655534	0.572215	0.361082
C185	C	0.905567	-0.088163	-0.388940
C186	C	1.155567	0.161837	-0.138940
C187	C	1.405567	0.411837	0.111060
C188	C	1.655567	0.661837	0.361060
C189	C	0.905544	-0.387917	-1.016972
C190	C	1.155544	-0.137917	-0.766972
C191	C	1.405544	0.112083	-0.516972
C192	C	1.655544	0.362083	-0.266972
C193	C	0.905535	-0.387945	-0.925664
C194	C	1.155535	-0.137945	-0.675664
C195	C	1.405535	0.112055	-0.425664
C196	C	1.655535	0.362055	-0.175664
C197	C	0.905530	-0.387963	-0.852887
C198	C	1.155530	-0.137963	-0.602887
C199	C	1.405530	0.112037	-0.352887
C200	C	1.655530	0.362037	-0.102887
C201	C	0.905520	-0.387990	-0.761573
C202	C	1.155520	-0.137990	-0.511573
C203	C	1.405520	0.112010	-0.261573
C204	C	1.655520	0.362010	-0.011573
C205	C	0.905453	-0.388095	-0.179375
C206	C	1.155453	-0.138095	0.070625
C207	C	1.405453	0.111905	0.320625
C208	C	1.655453	0.361905	0.570625
C209	C	0.905557	-0.387894	-0.089755
C210	C	1.155557	-0.137894	0.160245
C211	C	1.405557	0.112106	0.410245
C212	C	1.655557	0.362106	0.660245
H213	H	0.666960	-0.481854	-0.482133
H214	H	0.916960	-0.231854	-0.232133
H215	H	1.166960	0.018146	0.017867
H216	H	1.416960	0.268146	0.267867
Br217	Br	0.126824	-0.266319	-0.267678
Br218	Br	0.376824	-0.016319	-0.017678
Br219	Br	0.626824	0.233681	0.232322
Br220	Br	0.876824	0.483681	0.482322
Br221	Br	0.281057	-0.266361	-0.267608
Br222	Br	0.531057	-0.016361	-0.017608
Br223	Br	0.781057	0.233639	0.232392
Br224	Br	1.031057	0.483639	0.482392
H225	H	0.666936	-0.294483	-0.295375
H226	H	0.916936	-0.044483	-0.045375
H227	H	1.166936	0.205517	0.204625
H228	H	1.416936	0.455517	0.454625
Br229	Br	0.482765	-0.372925	-0.217617
Br230	Br	0.732765	-0.122925	0.032383
Br231	Br	0.982765	0.127075	0.282383
Br232	Br	1.232765	0.377075	0.532383
H233	H	0.548223	-0.294466	-0.295428
H234	H	0.798223	-0.044466	-0.045428
H235	H	1.048223	0.205534	0.204572
H236	H	1.298223	0.455534	0.454572
H237	H	0.465231	-0.399832	-0.520627
H238	H	0.715231	-0.149832	-0.270627
H239	H	0.965231	0.100168	-0.020627
H240	H	1.215231	0.350168	0.229373
Br241	Br	0.530491	-0.509842	-0.510141
Br242	Br	0.780491	-0.259842	-0.260141
Br243	Br	1.030491	-0.009842	-0.010141
Br244	Br	1.280491	0.240158	0.239859
H245	H	0.346519	-0.399795	-0.520681
H246	H	0.596519	-0.149795	-0.270681
H247	H	0.846519	0.100205	-0.020681
H248	H	1.096519	0.350205	0.229319
H249	H	0.263324	-0.481747	-0.482324
H250	H	0.513324	-0.231747	-0.232324
H251	H	0.763324	0.018253	0.017676
H252	H	1.013324	0.268253	0.267676
H253	H	0.144617	-0.481707	-0.482386
H254	H	0.394617	-0.231707	-0.232386
H255	H	0.644617	0.018293	0.017614
H256	H	0.894617	0.268293	0.267614
H257	H	0.346325	-0.376394	-0.257114
H258	H	0.596325	-0.126394	-0.007114
H259	H	0.846325	0.123606	0.242886
H260	H	1.096325	0.373606	0.492886
