data_functionalizedCrystal
_audit_creation_method	'MofGen! by Chris Wilmer'
_symmetry_space_group_name_H-M	'P1'
_symmetry_Int_Tables_number	1
_symmetry_cell_setting	triclinic
loop_
_symmetry_equiv_pos_as_xyz
  x,y,z
_cell_length_a	10.268362
_cell_length_b	11.792254
_cell_length_c	11.792241
_cell_angle_alpha	95.803993
_cell_angle_beta	89.994572
_cell_angle_gamma	90.005778
loop_
_atom_site_label
_atom_site_type_symbol
_atom_site_fract_x
_atom_site_fract_y
_atom_site_fract_z
O1	O	-0.108338	-1.506900	0.155637
O2	O	-0.108332	-1.176561	0.171655
O3	O	-0.108326	-1.349747	-0.001524
O4	O	-0.108344	-1.333714	0.328816
O5	O	0.108275	-1.349732	-0.001531
O6	O	0.108268	-1.176546	0.171648
O7	O	0.108263	-1.506885	0.155630
Cu8	Cu	0.128043	-1.341714	0.163638
Cu9	Cu	-0.128112	-1.341732	0.163647
O10	O	0.108257	-1.333699	0.328809
C11	C	-0.000031	-1.134263	0.170642
C12	C	-0.000029	-1.008250	0.167622
N13	N	0.308209	-1.341710	0.163632
N14	N	-0.308278	-1.341745	0.163645
C15	C	-0.000032	-0.905913	0.165168
C16	C	-0.000029	-0.777527	0.162100
C17	C	0.573880	-1.341726	0.163644
C18	C	0.426042	-1.341713	0.163641
C19	C	-0.000026	-1.348732	-0.043819
C20	C	-0.000027	-1.345718	-0.169832
C21	C	-0.000035	-0.549183	0.156643
C22	C	-0.000027	-0.675196	0.159663
C23	C	-0.000049	-1.340175	-0.400545
C24	C	-0.000037	-1.343255	-0.272160
C25	C	-0.000046	-1.334714	0.371104
C26	C	-0.000053	-1.337728	0.497118
