data_functionalizedCrystal
_audit_creation_method	'MofGen! by Chris Wilmer'
_symmetry_space_group_name_H-M	'P1'
_symmetry_Int_Tables_number	1
_symmetry_cell_setting	triclinic
loop_
_symmetry_equiv_pos_as_xyz
  x,y,z
_cell_length_a	14.560432
_cell_length_b	14.628931
_cell_length_c	14.628931
_cell_angle_alpha	89.999882
_cell_angle_beta	59.995363
_cell_angle_gamma	60.000830
loop_
_atom_site_label
_atom_site_type_symbol
_atom_site_fract_x
_atom_site_fract_y
_atom_site_fract_z
Zr1	Zr	1.005344	0.880602	-0.120063
O2	O	1.196957	0.734639	-0.266042
O3	O	0.813730	0.925350	-0.075299
O4	O	1.005343	0.925347	-0.266024
O5	O	1.005344	0.734641	0.075114
O6	O	1.005343	1.075779	-0.266024
O7	O	1.005344	0.734642	-0.075318
O8	O	0.662582	1.075784	0.075147
O9	O	1.348105	0.734637	-0.266058
O10	O	0.892543	1.056698	-0.056224
O11	O	0.892544	0.944432	0.056041
O12	O	1.118144	0.944429	-0.168512
O13	O	1.118144	0.832163	-0.056246
Zr14	Zr	1.005344	1.120524	0.119858
Zr15	Zr	1.005344	1.120524	-0.120063
Zr16	Zr	1.005344	0.880602	0.119858
Zr17	Zr	1.246408	0.880599	-0.120087
Zr18	Zr	0.764280	1.120527	0.119882
O19	O	1.196958	1.075776	0.075094
O20	O	1.196957	1.075776	-0.266043
O21	O	1.196958	0.734638	0.075095
O22	O	0.813731	1.266487	0.265837
O23	O	0.813730	1.266488	-0.075300
O24	O	0.813731	0.925350	0.265838
O25	O	1.005344	1.266485	-0.075319
O26	O	1.005345	1.075779	0.265818
O27	O	1.005345	0.925347	0.265819
O28	O	1.005344	1.266485	0.075113
O29	O	1.348105	0.925342	-0.266058
O30	O	0.662582	1.075784	0.265853
O31	O	0.662582	1.266489	0.265852
O32	O	0.662582	1.266490	0.075147
O33	O	1.348106	0.734636	-0.075352
O34	O	1.348106	0.925342	-0.075353
O35	O	0.892544	1.056697	0.168307
O36	O	0.892544	1.168963	0.056041
O37	O	1.118144	1.056694	-0.056247
O38	O	1.118144	0.944428	0.056019
C39	C	0.703809	1.000568	-0.000072
C40	C	0.601471	1.000569	-0.000062
C41	C	0.575812	0.834792	-0.165906
C42	C	0.707174	0.751915	-0.248772
C43	C	0.803304	0.751921	-0.248739
C44	C	0.768065	0.834811	-0.165828
C45	C	0.636703	0.917687	-0.082962
C46	C	0.540580	0.917674	-0.083007
C47	C	0.470110	1.083446	0.082804
C48	C	0.373978	1.083446	0.082768
C49	C	0.434871	1.166335	0.165715
C50	C	0.303507	1.249218	0.248578
C51	C	0.207375	1.249209	0.248540
C52	C	0.242616	1.166323	0.165634
C53	C	1.005344	0.700458	-0.000102
C54	C	1.005344	0.598605	-0.000102
C55	C	1.005344	0.553196	-0.078861
C56	C	1.005344	0.447925	-0.078863
C57	C	1.306878	1.000558	-0.000133
C58	C	1.409217	1.000557	-0.000143
C59	C	1.005343	1.000563	-0.300207
C60	C	1.005343	1.000564	-0.402060
C61	C	1.005344	1.300668	-0.000103
C62	C	1.005344	1.402521	-0.000103
C63	C	1.117256	0.944871	-0.503172
C64	C	1.117258	0.944870	-0.608443
C65	C	1.005345	1.000563	0.300002
C66	C	1.005345	1.000562	0.401855
C67	C	0.703809	1.300673	-0.000073
C68	C	0.601471	1.402527	-0.000063
C69	C	0.703810	1.000567	0.300032
C70	C	0.601472	1.000569	0.401895
C71	C	0.703810	1.300672	0.300032
C72	C	0.601472	1.402527	0.401895
C73	C	1.306878	0.700454	-0.300237
C74	C	1.409215	0.598599	-0.402100
C75	C	1.306878	0.700453	-0.000132
C76	C	1.409217	0.598599	-0.000142
C77	C	1.306878	1.000559	-0.300238
C78	C	1.409215	1.000557	-0.402101
C79	C	0.555846	1.392246	-0.055750
C80	C	0.450074	1.497517	-0.055741
C81	C	0.555847	1.056261	0.503000
C82	C	0.450076	1.056263	0.608282
C83	C	0.555847	1.503628	0.391617
C84	C	0.450076	1.608901	0.496896
H85	H	0.497547	0.834796	-0.165960
C86	C	0.745929	0.660748	-0.339971
H87	H	0.669868	0.672616	-0.328134
H88	H	0.795895	0.589204	-0.336535
H89	H	0.795921	0.664195	-0.411513
C90	C	0.608852	1.120674	0.514652
H91	H	0.672982	1.112229	0.442361
H92	H	0.646406	1.091753	0.554383
H93	H	0.539858	1.197793	0.554388
H94	H	1.005351	0.441562	0.067326
H95	H	0.410835	1.695632	0.488270
H96	H	0.443680	0.952896	0.511269
C97	C	0.397081	1.120674	0.725448
H98	H	0.332951	1.112218	0.780838
H99	H	0.359528	1.197786	0.733907
H100	H	0.466077	1.091734	0.733889
H101	H	0.443679	1.511887	0.606629
C102	C	0.264757	1.340383	0.339766
H103	H	0.340822	1.328517	0.327917
H104	H	0.214755	1.336956	0.411309
H105	H	0.214805	1.411928	0.336313
H106	H	0.410833	1.488889	-0.103412
H107	H	1.213067	0.897196	-0.511802
H108	H	0.562232	1.489265	0.047615
C109	C	0.548475	1.390865	0.519064
H110	H	0.590824	1.313783	0.511861
H111	H	0.457688	1.425803	0.558819
H112	H	0.564246	1.425797	0.558794
H113	H	0.910266	0.684424	-0.316203
C114	C	0.548473	0.936153	0.390238
H115	H	0.590820	0.901205	0.313153
H116	H	0.457686	0.986767	0.425184
H117	H	0.564242	0.880725	0.425169
H118	H	0.909532	1.048247	-0.393431
H119	H	0.595094	1.512251	0.304878
C120	C	0.608848	1.275081	-0.120169
H121	H	0.566513	1.282281	-0.155111
H122	H	0.593096	1.235339	-0.069553
H123	H	0.699639	1.235344	-0.175606
C124	C	0.873806	0.834812	-0.165788
H125	H	0.957086	0.773584	-0.227015
H126	H	0.864768	0.827940	-0.097674
H127	H	0.864809	0.902913	-0.172670
C128	C	0.540604	1.166346	0.165760
H129	H	0.500804	1.227573	0.227009
H130	H	0.593131	1.173227	0.097668
H131	H	0.593096	1.098245	0.172654
H132	H	0.100415	1.316694	0.316024
C133	C	1.246698	0.880454	-0.725616
H134	H	1.229719	0.888909	-0.780999
H135	H	1.295116	0.803342	-0.734074
H136	H	1.295110	0.909388	-0.734073
C137	C	1.005347	0.605949	-0.169955
H138	H	1.005357	0.669778	-0.158009
H139	H	0.930014	0.627799	-0.166537
H140	H	1.080696	0.552813	-0.241528
C141	C	0.136879	1.166313	0.165594
H142	H	0.053597	1.227544	0.226815
H143	H	0.145887	1.098210	0.172461
H144	H	0.145912	1.173198	0.097479
H145	H	0.909527	1.048240	-0.511409
C146	C	0.457441	1.610292	0.064369
H147	H	0.415091	1.687375	0.099318
H148	H	0.548227	1.575355	0.013747
H149	H	0.441672	1.575361	0.119799
C150	C	1.005332	0.395184	-0.169951
H151	H	1.005320	0.331357	-0.157996
H152	H	1.080663	0.373335	-0.241525
H153	H	0.929980	0.448325	-0.166511
C154	C	1.005346	0.545853	0.090992
H155	H	1.005338	0.587997	0.140409
H156	H	1.080681	0.471024	0.056892
H157	H	0.929998	0.546015	0.131892
