data_functionalizedCrystal
_audit_creation_method	'MofGen! by Chris Wilmer'
_symmetry_space_group_name_H-M	'P1'
_symmetry_Int_Tables_number	1
_symmetry_cell_setting	triclinic
loop_
_symmetry_equiv_pos_as_xyz
  x,y,z
_cell_length_a	23.532355
_cell_length_b	14.971486
_cell_length_c	13.448316
_cell_angle_alpha	90.002432
_cell_angle_beta	90.002669
_cell_angle_gamma	83.220814
loop_
_atom_site_label
_atom_site_type_symbol
_atom_site_fract_x
_atom_site_fract_y
_atom_site_fract_z
O1	O	-0.755746	-0.108353	-0.082557
O2	O	-0.255746	0.391647	0.417443
O3	O	-0.589946	-0.124112	-0.082589
O4	O	-0.089946	0.375888	0.417411
O5	O	-0.677290	0.014015	-0.082565
O6	O	-0.177290	0.514015	0.417435
O7	O	-0.668402	-0.246481	-0.082581
O8	O	-0.168402	0.253519	0.417419
O9	O	-0.677275	0.014012	0.082819
O10	O	-0.177275	0.514012	0.582819
O11	O	-0.589932	-0.124116	0.082795
O12	O	-0.089932	0.375884	0.582795
O13	O	-0.755732	-0.108357	0.082827
O14	O	-0.255732	0.391643	0.582827
Cu15	Cu	-0.672830	-0.116237	0.097912
Cu16	Cu	-0.172830	0.383763	0.597912
Cu17	Cu	-0.672848	-0.116233	-0.097674
Cu18	Cu	-0.172848	0.383767	0.402326
O19	O	-0.668388	-0.246485	0.082803
O20	O	-0.168388	0.253515	0.582803
C21	C	-0.676885	0.047334	0.000126
C22	C	-0.176885	0.547334	0.500126
C23	C	-0.675694	0.146618	0.000125
C24	C	-0.175694	0.646618	0.500125
C25	C	-0.568721	-0.123720	0.000099
C26	C	-0.068721	0.376280	0.500099
C27	C	-0.505497	-0.122536	0.000087
C28	C	-0.005497	0.377464	0.500087
C29	C	-0.776957	-0.108749	0.000136
C30	C	-0.276957	0.391251	0.500136
C31	C	-0.840181	-0.109934	0.000142
C32	C	-0.340181	0.390066	0.500142
C33	C	-0.113443	-0.115097	0.090280
C34	C	0.386557	0.384903	0.590280
C35	C	-0.054039	-0.113970	0.090284
C36	C	0.445961	0.386030	0.590284
O37	O	-0.023311	-0.113359	0.166953
O38	O	0.476689	0.386641	0.666953
N39	N	-0.024336	-0.113409	0.000133
N40	N	0.475664	0.386591	0.500133
C41	C	-0.054041	-0.113966	-0.090027
C42	C	0.445959	0.386034	0.409973
O43	O	-0.023322	-0.113385	-0.166706
O44	O	0.476678	0.386615	0.333294
C45	C	-0.113445	-0.115086	-0.090030
C46	C	0.386555	0.384914	0.409970
C47	C	-0.143144	-0.115656	0.000127
C48	C	0.356856	0.384344	0.500127
C49	C	-0.143142	-0.115665	0.180429
C50	C	0.356858	0.384335	0.680429
C51	C	-0.202542	-0.116794	0.180424
C52	C	0.297458	0.383206	0.680424
C53	C	-0.232243	-0.117353	0.090271
C54	C	0.267757	0.382647	0.590271
C55	C	-0.202544	-0.116785	0.000122
C56	C	0.297456	0.383215	0.500122
C57	C	-0.143150	-0.115637	-0.180189
C58	C	0.356850	0.384363	0.319811
C59	C	-0.202558	-0.116757	-0.180184
C60	C	0.297442	0.383243	0.319816
C61	C	-0.232257	-0.117327	-0.090028
C62	C	0.267743	0.382673	0.409972
C63	C	-0.291645	-0.118473	-0.090035
C64	C	0.208355	0.381527	0.409965
N65	N	-0.321348	-0.119033	0.000115
N66	N	0.178652	0.380967	0.500115
C67	C	-0.291647	-0.118474	0.090268
C68	C	0.208353	0.381526	0.590268
C69	C	0.070710	-0.111612	-0.090014
C70	C	0.570710	0.388388	0.409986
C71	C	0.130113	-0.110498	-0.090012
C72	C	0.630113	0.389502	0.409988
C73	C	0.130112	-0.110500	0.090299
C74	C	0.630112	0.389500	0.590299
C75	C	0.070708	-0.111620	0.090296
C76	C	0.570708	0.388380	0.590296
C77	C	0.041007	-0.112173	0.000137
C78	C	0.541007	0.387827	0.500137
C79	C	-0.416391	-0.120844	0.090253
C80	C	0.083609	0.379156	0.590253
C81	C	-0.475796	-0.121976	0.090240
C82	C	0.024204	0.378024	0.590240
C83	C	-0.475789	-0.121970	-0.090070
C84	C	0.024211	0.378030	0.409930
C85	C	-0.416389	-0.120842	-0.090058
C86	C	0.083611	0.379158	0.409942
C87	C	-0.386692	-0.120276	0.000111
C88	C	0.113308	0.379724	0.500111
O89	O	-0.322411	-0.119081	-0.166665
O90	O	0.177589	0.380919	0.333335
O91	O	-0.322374	-0.119043	0.166935
O92	O	0.177626	0.380957	0.666935
C93	C	-0.668793	-0.279804	0.000109
C94	C	-0.168793	0.220196	0.500109
C95	C	-0.669984	-0.379088	0.000104
C96	C	-0.169984	0.120912	0.500104
N97	N	-0.672822	-0.116239	0.235476
N98	N	-0.172822	0.383761	0.735476
C99	C	-0.727006	0.204400	0.000136
C100	C	-0.227006	0.704400	0.500136
C101	C	-0.725884	0.297688	0.000126
C102	C	-0.225884	0.797688	0.500126
C103	C	-0.673448	0.333191	0.000112
C104	C	-0.173448	0.833191	0.500112
C105	C	-0.622132	0.275401	0.000098
C106	C	-0.122132	0.775401	0.500098
C107	C	-0.623256	0.182116	0.000102
C108	C	-0.123256	0.682116	0.500102
C109	C	-0.619795	0.469838	0.000094
C110	C	-0.119795	0.969838	0.500094
C111	C	-0.618671	0.563130	0.000093
C112	C	-0.118671	1.063130	0.500093
C113	C	-0.722423	0.585410	0.000118
C114	C	-0.222423	1.085410	0.500118
C115	C	-0.723546	0.492125	0.000122
C116	C	-0.223546	0.992125	0.500122
C117	C	-0.672230	0.434341	0.000110
C118	C	-0.172230	0.934341	0.500110
N119	N	-0.672860	-0.116223	-0.235238
N120	N	-0.172860	0.383777	0.264762
C121	C	-0.711542	-0.055085	0.712705
C122	C	-0.211542	0.444915	1.212705
C123	C	-0.711537	-0.055091	0.608602
C124	C	-0.211537	0.444909	1.108602
C125	C	-0.672848	-0.116232	0.556557
C126	C	-0.172848	0.383768	1.056557
C127	C	-0.634164	-0.177376	0.608621
C128	C	-0.134164	0.322624	1.108621
C129	C	-0.634172	-0.177374	0.712723
C130	C	-0.134172	0.322626	1.212723
C131	C	-0.634150	-0.177376	0.391641
C132	C	-0.134150	0.322624	0.891641
C133	C	-0.634141	-0.177378	0.287533
C134	C	-0.134141	0.322622	0.787533
C135	C	-0.711514	-0.055093	0.287520
C136	C	-0.211514	0.444907	0.787520
C137	C	-0.711522	-0.055090	0.391621
C138	C	-0.211522	0.444910	0.891621
C139	C	-0.672838	-0.116234	0.443679
C140	C	-0.172838	0.383766	0.943679
H141	H	-0.499974	-0.122443	0.163660
H142	H	0.000026	0.377557	0.663660
H143	H	-0.575974	0.592033	0.000098
H144	H	-0.075974	1.092033	0.500098
H145	H	-0.392206	-0.120393	-0.163471
H146	H	0.107794	0.379607	0.336529
H147	H	-0.226719	-0.117252	0.253839
H148	H	0.273281	0.382748	0.753839
H149	H	0.154305	-0.110043	0.163707
H150	H	0.654305	0.389957	0.663707
H151	H	-0.602636	-0.227166	0.245164
H152	H	-0.102636	0.272834	0.745164
H153	H	-0.743012	-0.005308	0.245129
H154	H	-0.243012	0.494692	0.745129
H155	H	-0.743023	-0.005301	0.433996
H156	H	-0.243023	0.494699	0.933996
H157	H	-0.579439	0.304315	0.000081
H158	H	-0.079439	0.804315	0.500081
H159	H	-0.743035	-0.005308	0.566217
H160	H	-0.243035	0.494692	1.066217
H161	H	-0.392218	-0.120392	0.163677
H162	H	0.107782	0.379608	0.663677
H163	H	-0.578008	0.422793	0.000082
H164	H	-0.078008	0.922793	0.500082
H165	H	0.046531	-0.112085	0.163709
H166	H	0.546531	0.387915	0.663709
H167	H	-0.602651	-0.227169	0.434023
H168	H	-0.102651	0.272831	0.934023
H169	H	-0.581472	0.135069	0.000093
H170	H	-0.081472	0.635069	0.500093
H171	H	-0.118966	-0.115208	0.253846
H172	H	0.381034	0.384792	0.753846
H173	H	0.154290	-0.110048	-0.163426
H174	H	0.654290	0.389952	0.336574
H175	H	-0.602664	-0.227163	0.566241
H176	H	-0.102664	0.272837	1.066241
H177	H	-0.743045	-0.005293	0.755073
H178	H	-0.243045	0.494707	1.255073
H179	H	-0.602675	-0.227160	0.755107
H180	H	-0.102675	0.272840	1.255107
H181	H	0.046532	-0.112070	-0.163437
H182	H	0.546532	0.387930	0.336563
H183	H	-0.118979	-0.115172	-0.253604
H184	H	0.381021	0.384828	0.246396
H185	H	-0.226736	-0.117207	-0.253604
H186	H	0.273264	0.382793	0.246396
H187	H	-0.499982	-0.122429	-0.163470
H188	H	0.000018	0.377571	0.336530
H189	H	-0.769705	0.175502	0.000153
H190	H	-0.269705	0.675502	0.500153
H191	H	-0.766244	0.463222	0.000140
H192	H	-0.266244	0.963222	0.500140
H193	H	-0.767667	0.344731	0.000136
H194	H	-0.267667	0.844731	0.500136
H195	H	-0.764207	0.632462	0.000125
H196	H	-0.264207	1.132462	0.500125
