data_functionalizedCrystal
_audit_creation_method	'MofGen! by Chris Wilmer'
_symmetry_space_group_name_H-M	'P1'
_symmetry_Int_Tables_number	1
_symmetry_cell_setting	triclinic
loop_
_symmetry_equiv_pos_as_xyz
  x,y,z
_cell_length_a	17.019372
_cell_length_b	17.038272
_cell_length_c	13.448316
_cell_angle_alpha	89.993314
_cell_angle_beta	93.869658
_cell_angle_gamma	87.242864
loop_
_atom_site_label
_atom_site_type_symbol
_atom_site_fract_x
_atom_site_fract_y
_atom_site_fract_z
O1	O	1.053348	0.099573	0.007428
O2	O	0.824539	0.112280	-0.012150
O3	O	0.937584	-0.007887	-0.002470
O4	O	0.940304	0.219741	-0.002253
O5	O	0.937568	-0.007895	0.162913
O6	O	0.824524	0.112273	0.153232
O7	O	1.053332	0.099566	0.172810
Cu8	Cu	0.938927	0.105919	0.178122
Cu9	Cu	0.938945	0.105927	-0.017462
O10	O	0.940288	0.219734	0.163130
C11	C	0.795111	0.111796	0.068024
C12	C	0.707445	0.110354	0.060523
C13	C	0.935102	-0.037017	0.080010
C14	C	0.927722	-0.123804	0.079378
C15	C	0.211628	0.102173	0.013510
C16	C	0.293999	0.103528	0.020571
C17	C	0.335167	0.104207	0.114252
C18	C	0.293961	0.103524	0.200878
C19	C	0.211592	0.102163	0.193816
C20	C	0.583869	0.108310	0.140086
C21	C	0.666244	0.109673	0.147142
C22	C	0.666276	0.109676	-0.033166
C23	C	0.583905	0.108320	-0.040220
C24	C	0.542706	0.107632	0.046405
C25	C	0.419364	0.105595	0.121473
C26	C	0.458512	0.106239	0.039184
C27	C	0.995481	-0.173978	0.085177
C28	C	0.988542	-0.255522	0.084574
C29	C	0.913843	-0.286891	0.078179
C30	C	0.846079	-0.236710	0.072376
C31	C	0.853019	-0.155167	0.072973
C32	C	0.889326	-0.532627	0.076067
C33	C	0.882391	-0.614176	0.075474
C34	C	1.024854	-0.632983	0.087670
C35	C	1.031788	-0.551437	0.088272
C36	C	0.964024	-0.501264	0.082464
C37	C	0.906748	-0.370242	0.077565
C38	C	0.971119	-0.417914	0.083071
C39	C	1.082761	0.100050	0.092634
C40	C	1.170427	0.101492	0.100129
C41	C	0.942769	0.248863	0.080648
C42	C	0.950150	0.335650	0.081273
N43	N	0.938919	0.105912	0.315686
N44	N	0.938958	0.105928	-0.155025
C45	C	0.988993	0.052724	0.372014
C46	C	0.988998	0.052723	0.476118
C47	C	0.938932	0.105915	0.523891
C48	C	0.888853	0.159106	0.467555
C49	C	0.888844	0.159102	0.363453
C50	C	0.888875	0.159111	0.684537
C51	C	0.888884	0.159116	0.788646
C52	C	0.989029	0.052732	0.797202
C53	C	0.989021	0.052728	0.693100
C54	C	0.938942	0.105920	0.636771
H55	H	0.327541	0.104078	-0.049964
O56	O	0.840206	0.210859	0.629970
C57	C	0.740852	0.316355	0.632462
C58	C	0.795936	0.257804	0.694380
H59	H	0.705033	0.354314	0.684510
H60	H	0.777487	0.355442	0.586869
H61	H	0.699215	0.282609	0.580152
H62	H	0.837583	0.291485	0.746745
H63	H	0.759252	0.218717	0.739906
H64	H	1.029804	0.009421	0.843071
O65	O	1.104370	-0.521010	0.094309
C66	C	1.228288	-0.512173	0.019277
C67	C	1.146105	-0.546666	0.012297
H68	H	1.262061	-0.532916	-0.047009
H69	H	1.221661	-0.445270	0.018651
H70	H	1.262005	-0.532842	0.091408
H71	H	1.112343	-0.526058	-0.059827
H72	H	1.152788	-0.613566	0.012979
O73	O	0.418479	0.105720	-0.051793
C74	C	0.321059	0.171864	-0.164747
C75	C	0.366363	0.172554	-0.061695
H76	H	0.278901	0.225885	-0.172778
H77	H	0.364611	0.172638	-0.225495
H78	H	0.286085	0.116517	-0.172232
H79	H	0.401339	0.227892	-0.054113
H80	H	0.322771	0.171738	-0.000998
H81	H	0.821559	-0.639713	0.070283
H82	H	0.452893	0.106149	0.197748
H83	H	0.178047	0.101617	0.264351
O84	O	1.043739	-0.387577	0.089242
C85	C	1.184313	-0.414826	0.101341
C86	C	1.102120	-0.449296	0.094329
H87	H	1.231535	-0.464709	0.105477
H88	H	1.191181	-0.377142	0.032699
H89	H	1.191068	-0.377097	0.171115
H90	H	1.095309	-0.487061	0.024597
H91	H	1.095289	-0.486935	0.163020
O92	O	0.544041	0.107617	-0.131302
C93	C	0.552766	0.107792	-0.309397
C94	C	0.598011	0.108572	-0.206311
H95	H	0.596380	0.108581	-0.370070
H96	H	0.517782	0.052454	-0.316956
H97	H	0.510627	0.161825	-0.317476
H98	H	0.640190	0.054577	-0.198162
H99	H	0.632943	0.163946	-0.198798
O100	O	0.706118	0.110288	0.238228
C101	C	0.697397	0.110172	0.416325
C102	C	0.652143	0.109455	0.313242
H103	H	0.653777	0.109516	0.477000
H104	H	0.739492	0.056110	0.424504
H105	H	0.732428	0.165482	0.423780
H106	H	0.617067	0.054181	0.305716
H107	H	0.610096	0.163554	0.305109
H108	H	0.178114	0.101626	-0.062776
H109	H	0.848068	0.202413	0.317591
H110	H	0.848114	0.202430	0.827538
H111	H	0.327488	0.104072	0.277156
H112	H	1.056309	-0.148444	0.090391
H113	H	0.834147	-0.491785	0.071339
O114	O	0.543835	0.107500	0.224208
C115	C	0.455203	0.038269	0.321249
C116	C	0.500513	0.039083	0.225946
H117	H	0.420153	-0.017032	0.322676
H118	H	0.498754	0.038938	0.389446
H119	H	0.413115	0.092339	0.322147
H120	H	0.542602	-0.014977	0.224952
H121	H	0.456918	0.038455	0.157793
H122	H	1.043719	-0.296371	0.089298
H123	H	1.080024	-0.673842	0.092396
O124	O	0.773576	-0.267309	0.066213
C125	C	0.699746	-0.384592	0.059837
C126	C	0.781904	-0.350047	0.066841
H127	H	0.706451	-0.451490	0.060321
H128	H	0.665961	-0.363983	0.126175
H129	H	0.665995	-0.363869	-0.012248
H130	H	0.815720	-0.370754	0.138884
H131	H	0.815629	-0.370652	0.000452
H132	H	0.848084	0.202414	0.506458
O133	O	0.787117	-0.106537	0.067377
C134	C	0.645081	-0.096484	0.055150
C135	C	0.719652	-0.151646	0.061513
H136	H	0.590516	-0.132932	0.050387
H137	H	0.644703	-0.057856	0.124345
H138	H	0.644825	-0.057818	-0.014070
H139	H	0.719957	-0.190361	0.130691
H140	H	0.720001	-0.190221	-0.007730
H141	H	0.845928	-0.395791	0.072360
H142	H	0.699829	0.110235	-0.103692
H143	H	1.029766	0.009412	0.333125
H144	H	1.029772	0.009412	0.521980
H145	H	1.029792	0.009419	0.654203
