data_functionalizedCrystal
_audit_creation_method	'MofGen! by Chris Wilmer'
_symmetry_space_group_name_H-M	'P1'
_symmetry_Int_Tables_number	1
_symmetry_cell_setting	triclinic
loop_
_symmetry_equiv_pos_as_xyz
  x,y,z
_cell_length_a	12.759401
_cell_length_b	12.645330
_cell_length_c	12.759393
_cell_angle_alpha	89.969952
_cell_angle_beta	89.981504
_cell_angle_gamma	90.017853
loop_
_atom_site_label
_atom_site_type_symbol
_atom_site_fract_x
_atom_site_fract_y
_atom_site_fract_z
Zn1	Zn	1.606234	-0.421972	-0.593992
Zn2	Zn	1.606119	-0.599276	-0.418317
Zn3	Zn	1.430536	-0.422028	-0.418332
Zn4	Zn	1.430515	-0.599195	-0.593959
O5	O	1.518351	-0.510618	-0.506150
O6	O	1.753239	-0.445503	-0.570697
O7	O	1.582788	-0.575821	-0.271298
O8	O	1.453899	-0.273673	-0.441654
O9	O	1.753155	-0.575767	-0.441629
O10	O	1.582983	-0.273632	-0.570711
O11	O	1.453788	-0.445598	-0.271309
O12	O	1.283512	-0.445518	-0.441621
O13	O	1.453864	-0.575628	-0.740984
O14	O	1.283497	-0.575682	-0.570653
O15	O	1.582964	-0.445424	-0.741009
O16	O	1.582768	-0.747613	-0.441596
O17	O	1.453753	-0.747553	-0.570639
C18	C	1.245383	-0.510598	-0.506136
C19	C	1.128607	-0.510615	-0.506155
C20	C	1.073764	-0.578500	-0.573231
C21	C	0.964040	-0.578514	-0.573242
C22	C	0.964011	-0.442755	-0.439092
C23	C	1.073733	-0.442737	-0.439087
C24	C	1.073781	-0.656883	-0.650678
C25	C	0.964056	-0.656896	-0.650689
C26	C	1.518274	-0.786048	-0.506135
C27	C	1.518337	-0.903878	-0.506164
C28	C	1.437509	-1.071448	-0.587595
C29	C	1.437095	-0.948888	-0.587334
C30	C	1.488364	-0.948482	-0.395443
C31	C	1.487871	-1.071080	-0.395937
C32	C	1.629634	-1.070964	-0.534556
C33	C	1.628952	-0.948357	-0.536977
C34	C	1.792384	-0.510638	-0.506165
C35	C	1.909161	-0.510647	-0.506171
C36	C	1.518424	-0.510511	-0.780183
C37	C	1.518456	-0.510465	-0.896960
C38	C	1.518456	-0.234112	-0.506188
C39	C	1.518501	-0.116282	-0.506204
C40	C	1.585687	-0.442661	-0.951837
C41	C	1.585712	-0.442623	-1.061561
C42	C	1.451271	-0.578202	-1.061522
C43	C	1.451242	-0.578234	-0.951800
C44	C	1.663309	-0.364389	-0.951860
C45	C	1.663334	-0.364351	-1.061584
C46	C	1.518338	-0.510648	-0.233183
C47	C	1.518510	-0.510395	-0.116407
H48	H	1.456089	-1.100852	-0.669964
C49	C	1.766339	-0.403795	-0.906612
C50	C	1.784543	-0.507420	-0.940650
C51	C	1.879449	-0.543752	-0.899000
H52	H	1.762883	-0.402567	-0.832256
H53	H	1.821833	-0.359382	-0.929647
H54	H	1.729063	-0.551822	-0.917609
H55	H	1.788019	-0.508677	-1.015000
H56	H	1.934943	-0.499339	-0.922034
H57	H	1.875984	-0.542517	-0.824645
H58	H	1.891817	-0.614061	-0.922096
C59	C	1.378421	-0.651742	-1.121255
C60	C	1.392851	-0.637221	-1.229091
C61	C	1.325769	-0.704961	-1.284146
H62	H	1.307789	-0.636296	-1.103397
H63	H	1.393776	-0.723000	-1.103319
H64	H	1.377488	-0.565980	-1.247019
H65	H	1.463469	-0.652675	-1.246979
H66	H	1.341125	-0.776219	-1.266211
H67	H	1.255142	-0.689510	-1.266280
H68	H	1.335558	-0.695125	-1.357318
C69	C	0.924516	-0.766395	-0.621373
C70	C	1.010024	-0.833360	-0.603430
C71	C	0.973641	-0.934229	-0.576410
H72	H	0.883200	-0.793885	-0.676967
H73	H	0.883160	-0.761905	-0.559605
H74	H	1.051363	-0.837855	-0.665190
H75	H	1.051349	-0.805904	-0.547832
H76	H	0.932284	-0.929739	-0.514642
H77	H	0.932324	-0.961709	-0.632007
H78	H	1.031651	-0.979675	-0.564223
H79	H	0.930060	-0.627590	-0.728040
H80	H	1.455848	-0.918727	-0.669433
H81	H	1.544302	-1.100743	-0.333226
H82	H	1.634224	-0.286344	-1.095630
H83	H	1.103590	-0.634988	-0.732084
C84	C	1.771731	-0.393810	-1.101457
C85	C	1.764889	-0.485604	-1.162389
C86	C	1.864716	-0.512759	-1.199151
H87	H	1.817015	-0.406138	-1.043654
H88	H	1.798800	-0.337636	-1.142884
H89	H	1.737835	-0.541765	-1.120963
H90	H	1.719625	-0.473301	-1.220206
H91	H	1.891785	-0.456585	-1.240578
H92	H	1.909992	-0.525082	-1.141343
H93	H	1.860086	-0.575037	-1.240505
H94	H	1.355635	-1.102351	-0.569052
H95	H	1.118381	-0.387451	-0.384474
C96	C	1.710096	-1.109835	-0.455618
C97	C	1.713588	-1.220481	-0.457609
C98	C	1.787699	-1.256332	-0.384916
H99	H	1.690989	-1.086688	-0.387428
H100	H	1.777117	-1.082257	-0.473162
H101	H	1.646582	-1.248048	-0.440059
H102	H	1.732707	-1.243656	-0.525781
H103	H	1.854720	-1.228754	-0.402459
H104	H	1.768585	-1.233179	-0.316731
H105	H	1.790085	-1.331408	-0.386263
C106	C	1.327187	-0.910107	-0.562207
C107	C	1.260893	-0.997064	-0.547204
C108	C	1.159638	-0.961381	-0.524035
H109	H	1.301803	-0.868402	-0.618691
H110	H	1.328853	-0.868633	-0.500165
H111	H	1.259222	-1.038521	-0.609239
H112	H	1.286242	-1.038778	-0.490717
H113	H	1.161305	-0.919906	-0.461993
H114	H	1.134265	-0.919675	-0.580522
H115	H	1.114647	-1.020375	-0.513843
C116	C	1.634066	-0.254964	-0.912230
C117	C	1.534126	-0.228189	-0.948919
C118	C	1.507146	-0.127405	-0.912421
H119	H	1.683622	-0.204768	-0.937035
H120	H	1.633984	-0.254962	-0.837770
H121	H	1.534215	-0.228182	-1.023362
H122	H	1.484547	-0.278357	-0.924117
H123	H	1.507064	-0.127403	-0.837961
H124	H	1.556708	-0.077218	-0.937229
H125	H	1.439331	-0.109229	-0.937301
C126	C	1.379467	-1.109140	-0.363948
C127	C	1.315034	-1.021749	-0.344351
C128	C	1.215159	-1.056763	-0.314896
H129	H	1.384708	-1.150993	-0.302332
H130	H	1.350174	-1.150307	-0.418893
H131	H	1.344319	-0.980600	-0.289410
H132	H	1.309763	-0.979887	-0.405953
H133	H	1.185867	-1.097929	-0.369841
H134	H	1.220411	-1.098616	-0.253282
H135	H	1.171427	-0.997474	-0.301605
H136	H	1.545485	-0.919329	-0.333143
H137	H	1.107791	-0.734832	-0.621395
C138	C	1.666159	-1.111862	-0.640442
C139	C	1.682638	-1.026398	-0.708289
C140	C	1.716287	-1.064032	-0.805837
H141	H	1.614217	-1.157262	-0.669058
H142	H	1.729767	-1.149952	-0.631973
H143	H	1.619039	-0.988325	-0.716760
H144	H	1.734586	-0.980990	-0.679707
H145	H	1.779894	-1.102123	-0.797369
H146	H	1.664340	-1.109433	-0.834443
H147	H	1.727481	-1.006051	-0.851881
H148	H	1.407972	-0.917873	-0.370989
C149	C	1.378188	-0.651947	-0.892408
C150	C	1.319350	-0.711301	-0.963922
C151	C	1.252044	-0.779223	-0.909249
H152	H	1.332331	-0.611506	-0.849614
H153	H	1.418308	-0.698219	-0.849613
H154	H	1.279233	-0.665035	-1.006699
H155	H	1.365180	-0.751764	-1.006718
H156	H	1.292165	-0.825495	-0.866454
H157	H	1.206194	-0.738773	-0.866457
H158	H	1.212122	-0.819510	-0.957762
H159	H	0.919319	-0.387489	-0.384489
H160	H	1.651556	-0.919199	-0.618463
H161	H	1.692473	-0.917711	-0.482013
