data_functionalizedCrystal
_audit_creation_method	'MofGen! by Chris Wilmer'
_symmetry_space_group_name_H-M	'P1'
_symmetry_Int_Tables_number	1
_symmetry_cell_setting	triclinic
loop_
_symmetry_equiv_pos_as_xyz
  x,y,z
_cell_length_a	10.540539
_cell_length_b	14.971486
_cell_length_c	9.616153
_cell_angle_alpha	90.005977
_cell_angle_beta	89.999247
_cell_angle_gamma	95.930190
loop_
_atom_site_label
_atom_site_type_symbol
_atom_site_fract_x
_atom_site_fract_y
_atom_site_fract_z
O1	O	1.684453	-0.126055	-0.115581
O2	O	1.314906	-0.137932	-0.115598
O3	O	1.509584	-0.001849	-0.115579
O4	O	1.489775	-0.262137	-0.115600
O5	O	1.509574	-0.001841	0.115712
O6	O	1.314896	-0.137924	0.115693
O7	O	1.684443	-0.126047	0.115710
Zn8	Zn	1.499668	-0.131985	0.152424
Zn9	Zn	1.499681	-0.131994	-0.152312
O10	O	1.489765	-0.262130	0.115692
C11	C	1.267608	-0.137037	0.000045
C12	C	1.126690	-0.134372	0.000039
C13	C	1.508693	0.031484	0.000066
C14	C	1.506039	0.130797	0.000065
N15	N	1.499668	-0.131977	0.360399
C16	C	0.944422	-0.032264	0.000587
C17	C	1.091009	-0.034965	0.000051
C18	C	1.064480	-0.182216	-0.132038
C19	C	0.917974	-0.178823	-0.132134
C20	C	0.917451	-0.180837	0.130887
C21	C	1.064423	-0.181752	0.132618
C22	C	1.731741	-0.126942	0.000064
C23	C	1.872659	-0.129607	0.000061
C24	C	1.490656	-0.295463	0.000043
C25	C	1.493310	-0.394775	0.000035
C26	C	1.620407	0.187377	0.000071
C27	C	1.617905	0.280691	0.000057
C28	C	1.501033	0.317422	0.000046
C29	C	1.386656	0.260834	0.000036
C30	C	1.389159	0.167522	0.000040
C31	C	1.381446	0.455325	0.000031
C32	C	1.378942	0.548644	0.000029
C33	C	1.610192	0.568495	0.000047
C34	C	1.612695	0.475183	0.000052
C35	C	1.498317	0.418601	0.000044
N36	N	1.499691	-0.131995	-0.360287
C37	C	1.603866	-0.059191	0.419408
C38	C	1.604249	-0.059393	0.580575
C39	C	1.528207	-0.225620	0.581172
C40	C	1.528942	-0.225183	0.419955
C41	C	1.366645	-0.111980	0.419829
C42	C	1.367547	-0.109875	0.581057
H43	H	1.134046	0.002680	0.094731
O44	O	1.430355	-0.299177	0.631916
H45	H	1.360195	-0.269714	0.699565
H46	H	1.624101	-0.243457	0.621542
O47	O	1.330207	-0.023381	0.366023
H48	H	1.406512	0.007390	0.296314
H49	H	1.711035	0.326756	0.000065
H50	H	1.087826	-0.254227	0.140587
H51	H	1.345899	-0.040995	0.619321
H52	H	1.625943	-0.242622	0.382345
H53	H	1.286408	-0.159366	0.621308
H54	H	0.869409	-0.252638	0.131774
H55	H	1.288307	0.409258	0.000021
H56	H	1.289109	-0.165046	0.381666
H57	H	1.296028	0.121454	0.000035
H58	H	0.916278	0.007011	0.095308
H59	H	1.703322	0.614568	0.000050
H60	H	0.869194	-0.250315	-0.138135
O61	O	1.252896	0.588272	0.000007
H62	H	1.197950	0.565610	-0.094281
O63	O	0.905000	0.019547	-0.124156
H64	H	0.834521	-0.023733	-0.186533
H65	H	1.291496	0.290747	0.000019
H66	H	1.587330	0.010163	0.620158
H67	H	1.715578	0.157479	0.000088
H68	H	1.086005	-0.255218	-0.136958
H69	H	1.133189	0.002939	-0.094786
H70	H	1.587241	0.010596	0.380628
O71	O	1.733847	-0.076079	0.365619
H72	H	1.797122	-0.087820	0.454589
O73	O	1.735017	-0.076507	0.631665
H74	H	1.806707	-0.022782	0.592820
H75	H	1.455705	-0.280903	0.380917
H76	H	1.107450	-0.148987	-0.230328
O77	O	0.881130	-0.131976	-0.262884
H78	H	0.967915	-0.111950	-0.325448
O79	O	0.876176	-0.138213	0.263508
H80	H	0.823268	-0.080033	0.237651
H81	H	1.707862	0.445280	0.000070
H82	H	1.105777	-0.146801	0.230329
