data_functionalizedCrystal
_audit_creation_method	'MofGen! by Chris Wilmer'
_symmetry_space_group_name_H-M	'P1'
_symmetry_Int_Tables_number	1
_symmetry_cell_setting	triclinic
loop_
_symmetry_equiv_pos_as_xyz
  x,y,z
_cell_length_a	12.594517
_cell_length_b	12.594516
_cell_length_c	17.640968
_cell_angle_alpha	101.228257
_cell_angle_beta	101.226039
_cell_angle_gamma	90.017605
loop_
_atom_site_label
_atom_site_type_symbol
_atom_site_fract_x
_atom_site_fract_y
_atom_site_fract_z
Zn1	Zn	1.748945	-0.302060	0.446997
Zn2	Zn	2.248945	0.197940	0.946997
Zn3	Zn	1.712846	-0.516046	0.314824
Zn4	Zn	2.212846	-0.016046	0.814824
Zn5	Zn	1.534965	-0.338079	0.314825
Zn6	Zn	2.034965	0.161921	0.814825
Zn7	Zn	1.570915	-0.480004	0.446962
Zn8	Zn	2.070915	0.019996	0.946962
O9	O	1.641918	-0.409047	0.380902
O10	O	2.141918	0.090953	0.880902
O11	O	1.893106	-0.330454	0.429479
O12	O	2.393106	0.169546	0.929479
O13	O	1.659097	-0.522596	0.204209
O14	O	2.159097	-0.022596	0.704209
O15	O	1.563413	-0.184351	0.332373
O16	O	2.063413	0.315649	0.832373
O17	O	1.866584	-0.487669	0.332371
O18	O	2.366584	0.012331	0.832371
O19	O	1.720623	-0.157888	0.429479
O20	O	2.220623	0.342112	0.929479
O21	O	1.528409	-0.391845	0.204210
O22	O	2.028409	0.108155	0.704210
O23	O	1.390784	-0.356897	0.332338
O24	O	1.890784	0.143103	0.832338
O25	O	1.624684	-0.426242	0.557581
O26	O	2.124684	0.073758	1.057581
O27	O	1.417196	-0.461169	0.429419
O28	O	1.917196	0.038831	0.929419
O29	O	1.755482	-0.295506	0.557607
O30	O	2.255482	0.204494	1.057607
O31	O	1.693955	-0.660215	0.332337
O32	O	2.193955	-0.160215	0.832337
O33	O	1.589680	-0.633735	0.429418
O34	O	2.089680	-0.133735	0.929418
C35	C	1.365370	-0.409031	0.380875
C36	C	1.865370	0.090969	0.880875
C37	C	1.247066	-0.409045	0.380883
C38	C	1.747066	0.090955	0.880883
C39	C	1.092686	-0.352221	0.328201
C40	C	1.592686	0.147779	0.828201
C41	C	1.183183	-0.306655	0.400332
C42	C	1.683183	0.193345	0.900332
C43	C	1.158143	-0.454561	0.308760
C44	C	1.658143	0.045439	0.808760
C45	C	1.126804	-0.363444	0.453109
C46	C	1.626804	0.136556	0.953109
C47	C	1.101744	-0.511409	0.361489
C48	C	1.601744	-0.011409	0.861489
C49	C	1.192223	-0.465867	0.433669
C50	C	1.692223	0.034133	0.933669
C51	C	1.641835	-0.685591	0.380891
C52	C	2.141835	-0.185591	0.880891
C53	C	1.641904	-0.803891	0.380913
C54	C	2.141904	-0.303891	0.880913
C55	C	1.585239	-0.929551	0.433689
C56	C	2.085239	-0.429551	0.933689
C57	C	1.687554	-0.853362	0.453083
C58	C	2.187554	-0.353362	0.953083
C59	C	1.539608	-0.878499	0.361553
C60	C	2.039608	-0.378499	0.861553
C61	C	1.744462	-0.938468	0.400375
C62	C	2.244462	-0.438468	0.900375
C63	C	1.596442	-0.963621	0.308811
C64	C	2.096442	-0.463621	0.808811
C65	C	1.698816	-0.887471	0.328178
C66	C	2.198816	-0.387471	0.828178
C67	C	1.919546	-0.409064	0.380929
C68	C	2.419546	0.090936	0.880929
C69	C	2.037855	-0.409071	0.380940
C70	C	2.537855	0.090929	0.880940
C71	C	1.698120	-0.352836	0.587077
C72	C	2.198120	0.147164	1.087077
C73	C	1.722070	-0.328882	0.674937
C74	C	2.222070	0.171118	1.174937
C75	C	1.642035	-0.131419	0.380930
C76	C	2.142035	0.368581	0.880930
C77	C	1.642085	-0.013110	0.380942
C78	C	2.142085	0.486890	0.880942
C79	C	1.585996	-0.464963	0.175528
C80	C	2.085996	0.035037	0.675528
C81	C	1.562252	-0.488617	0.087669
C82	C	2.062252	0.011383	0.587669
C83	C	1.460381	-0.590444	0.963829
C84	C	1.960381	-0.090444	1.463829
C85	C	1.482908	-0.567922	1.046387
C86	C	1.982908	-0.067922	1.546387
C87	C	1.619096	-0.431799	1.046403
C88	C	2.119096	0.068201	1.546403
C89	C	1.596577	-0.454306	0.963844
C90	C	2.096577	0.045694	1.463844
C91	C	1.517219	-0.533630	0.922563
C92	C	2.017219	-0.033630	1.422563
C93	C	1.653415	-0.397492	0.922578
C94	C	2.153415	0.102508	1.422578
C95	C	1.630901	-0.420001	0.840026
C96	C	2.130901	0.079999	1.340026
C97	C	1.551549	-0.499324	0.798740
C98	C	2.051549	0.000676	1.298740
C99	C	1.494705	-0.556139	0.840011
C100	C	1.994705	-0.056139	1.340011
C101	C	1.732778	-0.318173	0.963861
C102	C	2.232778	0.181827	1.463861
C103	C	1.789616	-0.261360	0.922595
C104	C	2.289616	0.238640	1.422595
C105	C	1.767098	-0.283863	0.840041
C106	C	2.267098	0.216137	1.340041
C107	C	1.687746	-0.363186	0.798755
C108	C	2.187746	0.136814	1.298755
C109	C	1.823942	-0.227048	0.798770
C110	C	2.323942	0.272952	1.298770
C111	C	1.801428	-0.249557	0.716218
C112	C	2.301428	0.250443	1.216218
C113	C	1.665232	-0.385695	0.716203
C114	C	2.165232	0.114305	1.216203
H115	H	1.049472	-0.304095	0.283681
H116	H	1.549472	0.195905	0.783681
Br117	Br	1.042353	-0.655651	0.334065
Br118	Br	1.542353	-0.155651	0.834065
Br119	Br	1.751783	-0.773728	0.554732
Br120	Br	2.251783	-0.273728	1.054732
Br121	Br	1.242509	-0.162381	0.427731
Br122	Br	1.742509	0.337619	0.927731
Br123	Br	1.505380	-0.961111	0.508107
Br124	Br	2.005380	-0.461111	1.008107
H125	H	1.888562	-0.162470	0.832393
H126	H	2.388562	0.337530	1.332393
Br127	Br	1.878572	-0.172460	0.660209
Br128	Br	2.378572	0.327540	1.160209
Br129	Br	1.103006	-0.299133	0.554840
Br130	Br	1.603006	0.200867	1.054840
H131	H	1.235271	-0.513918	0.478296
H132	H	1.735271	-0.013918	0.978296
Br133	Br	1.778921	-0.856223	0.253809
Br134	Br	2.278921	-0.356223	0.753809
H135	H	1.557886	-1.011419	0.247841
H136	H	2.057886	-0.511419	0.747841
Br137	Br	1.352667	-0.698087	0.907797
Br138	Br	1.852667	-0.198087	1.407797
Br139	Br	1.888855	-0.982425	0.427803
Br140	Br	2.388855	-0.482425	0.927803
Br141	Br	1.182182	-0.518704	0.207062
Br142	Br	1.682182	-0.018704	0.707062
H143	H	1.453020	-0.851969	0.345167
H144	H	1.953020	-0.351969	0.845167
H145	H	1.751109	-0.299852	1.031080
H146	H	2.251109	0.200148	1.531080
H147	H	1.436618	-0.614193	1.079982
H148	H	1.936618	-0.114193	1.579982
H149	H	1.600585	-0.450264	0.682590
H150	H	2.100585	0.049736	1.182590
H151	H	1.533224	-0.517654	0.731521
H152	H	2.033224	-0.017654	1.231521
Br153	Br	1.386991	-0.663783	0.783980
Br154	Br	1.886991	-0.163783	1.283980
Br155	Br	1.726798	-0.324153	1.102434
Br156	Br	2.226798	0.175847	1.602434
H157	H	1.854233	-0.196777	0.956217
H158	H	2.354233	0.303223	1.456217
