data_functionalizedCrystal
_audit_creation_method	'MofGen! by Chris Wilmer'
_symmetry_space_group_name_H-M	'P1'
_symmetry_Int_Tables_number	1
_symmetry_cell_setting	triclinic
loop_
_symmetry_equiv_pos_as_xyz
  x,y,z
_cell_length_a	22.610064
_cell_length_b	19.188930
_cell_length_c	19.188922
_cell_angle_alpha	83.142936
_cell_angle_beta	90.001561
_cell_angle_gamma	89.977918
loop_
_atom_site_label
_atom_site_type_symbol
_atom_site_fract_x
_atom_site_fract_y
_atom_site_fract_z
O1	O	0.049378	-0.926147	-0.087158
O2	O	0.382711	-0.592814	0.246175
O3	O	0.716045	-0.259480	0.579508
O4	O	0.049338	-0.722835	-0.098893
O5	O	0.382671	-0.389502	0.234441
O6	O	0.716004	-0.056169	0.567774
O7	O	0.049351	-0.830361	0.008630
O8	O	0.382685	-0.497028	0.341964
O9	O	0.716018	-0.163695	0.675297
O10	O	0.049364	-0.818621	-0.194682
O11	O	0.382698	-0.485287	0.138652
O12	O	0.716031	-0.151954	0.471985
O13	O	-0.049018	-0.830342	0.008615
O14	O	0.284316	-0.497009	0.341948
O15	O	0.617649	-0.163676	0.675281
O16	O	-0.049031	-0.722816	-0.098908
O17	O	0.284302	-0.389483	0.234425
O18	O	0.617635	-0.056150	0.567758
O19	O	-0.048991	-0.926128	-0.087174
O20	O	0.284342	-0.592795	0.246159
O21	O	0.617675	-0.259461	0.579493
Zn22	Zn	-0.064630	-0.824469	-0.093044
Zn23	Zn	0.268704	-0.491136	0.240290
Zn24	Zn	0.602037	-0.157802	0.573623
Zn25	Zn	0.064976	-0.824494	-0.093023
Zn26	Zn	0.398309	-0.491161	0.240310
Zn27	Zn	0.731643	-0.157827	0.573644
O28	O	-0.049005	-0.818602	-0.194697
O29	O	0.284328	-0.485268	0.138636
O30	O	0.617662	-0.151935	0.471969
C31	C	0.000148	-0.696815	-0.098521
C32	C	0.333481	-0.363481	0.234813
C33	C	0.666815	-0.030148	0.568146
C34	C	0.000132	-0.619310	-0.097380
C35	C	0.333466	-0.285977	0.235953
C36	C	0.666799	0.047356	0.569287
N37	N	-0.153082	-0.824457	-0.093057
N38	N	0.180251	-0.491124	0.240276
N39	N	0.513585	-0.157790	0.573609
C40	C	0.000166	-0.829973	0.034634
C41	C	0.333499	-0.496639	0.367967
C42	C	0.666833	-0.163306	0.701300
C43	C	0.000164	-0.828835	0.112139
C44	C	0.333497	-0.495501	0.445472
C45	C	0.666830	-0.162168	0.778805
C46	C	-0.561717	-0.872109	-0.045419
C47	C	-0.228384	-0.538775	0.287914
C48	C	0.104949	-0.205442	0.621248
C49	C	-0.623637	-0.872112	-0.045414
C50	C	-0.290304	-0.538779	0.287919
C51	C	0.043029	-0.205446	0.621253
O52	O	-0.655651	-0.912598	-0.004921
O53	O	-0.322318	-0.579265	0.328413
O54	O	0.011016	-0.245931	0.661746
N55	N	-0.654619	-0.824494	-0.093009
N56	N	-0.321286	-0.491160	0.240325
N57	N	0.012047	-0.157827	0.573658
C58	C	-0.623678	-0.776863	-0.140607
C59	C	-0.290345	-0.443530	0.192727
C60	C	0.042989	-0.110197	0.526060
O61	O	-0.655716	-0.736360	-0.181089
O62	O	-0.322383	-0.403026	0.152245
O63	O	0.010951	-0.069693	0.485578
C64	C	-0.561759	-0.776857	-0.140608
C65	C	-0.228426	-0.443524	0.192725
C66	C	0.104908	-0.110190	0.526059
C67	C	-0.530780	-0.824484	-0.093015
C68	C	-0.197447	-0.491150	0.240318
C69	C	0.135886	-0.157817	0.573652
C70	C	-0.530739	-0.919731	0.002171
C71	C	-0.197405	-0.586398	0.335504
C72	C	0.135928	-0.253064	0.668837
C73	C	-0.468823	-0.919728	0.002164
C74	C	-0.135490	-0.586395	0.335498
C75	C	0.197844	-0.253062	0.668831
C76	C	-0.437886	-0.872103	-0.045431
C77	C	-0.104553	-0.538770	0.287902
C78	C	0.228781	-0.205436	0.621235
C79	C	-0.468865	-0.824481	-0.093021
C80	C	-0.135532	-0.491147	0.240312
C81	C	0.197802	-0.157814	0.573646
C82	C	-0.530819	-0.729224	-0.188202
C83	C	-0.197486	-0.395891	0.145131
C84	C	0.135848	-0.062557	0.478465
C85	C	-0.468896	-0.729221	-0.188199
C86	C	-0.135563	-0.395888	0.145135
C87	C	0.197771	-0.062555	0.478468
C88	C	-0.437917	-0.776848	-0.140606
C89	C	-0.104584	-0.443515	0.192728
C90	C	0.228749	-0.110181	0.526061
C91	C	-0.376012	-0.776853	-0.140623
C92	C	-0.042679	-0.443519	0.192710
C93	C	0.290654	-0.110186	0.526044
N94	N	-0.345030	-0.824472	-0.093028
N95	N	-0.011697	-0.491138	0.240305
N96	N	0.321636	-0.157805	0.573638
C97	C	-0.375967	-0.872097	-0.045433
C98	C	-0.042634	-0.538763	0.287901
C99	C	0.290699	-0.205430	0.621234
C100	C	-0.753712	-0.776879	-0.140600
C101	C	-0.420378	-0.443546	0.192734
C102	C	-0.087045	-0.110213	0.526067
C103	C	-0.815629	-0.776889	-0.140602
C104	C	-0.482296	-0.443555	0.192731
C105	C	-0.148963	-0.110222	0.526064
C106	C	-0.815584	-0.872137	-0.045409
C107	C	-0.482251	-0.538804	0.287925
C108	C	-0.148918	-0.205470	0.621258
C109	C	-0.753666	-0.872131	-0.045410
C110	C	-0.420332	-0.538797	0.287923
C111	C	-0.086999	-0.205464	0.621257
C112	C	-0.722730	-0.824498	-0.093005
C113	C	-0.389396	-0.491165	0.240328
C114	C	-0.056063	-0.157832	0.573662
C115	C	-0.245940	-0.872087	-0.045449
C116	C	0.087393	-0.538754	0.287884
C117	C	0.420727	-0.205421	0.621217
C118	C	-0.184019	-0.872082	-0.045462
C119	C	0.149314	-0.538749	0.287872
C120	C	0.482648	-0.205416	0.621205
C121	C	-0.184069	-0.776832	-0.140653
C122	C	0.149264	-0.443498	0.192681
C123	C	0.482597	-0.110165	0.526014
C124	C	-0.245985	-0.776839	-0.140643
C125	C	0.087348	-0.443506	0.192690
C126	C	0.420682	-0.110172	0.526024
C127	C	-0.276919	-0.824470	-0.093036
C128	C	0.056415	-0.491136	0.240298
C129	C	0.389748	-0.157803	0.573631
O130	O	-0.343959	-0.736386	-0.181094
O131	O	-0.010626	-0.403053	0.152240
O132	O	0.322707	-0.069719	0.485573
O133	O	-0.343922	-0.912587	-0.004951
O134	O	-0.010588	-0.579254	0.328382
O135	O	0.322745	-0.245921	0.661715
N136	N	0.153428	-0.824512	-0.093004
N137	N	0.486762	-0.491178	0.240329
N138	N	0.820095	-0.157845	0.573663
C139	C	0.000200	-0.952148	-0.087546
C140	C	0.333533	-0.618815	0.245787
C141	C	0.666867	-0.285482	0.579120
C142	C	0.000219	-1.029653	-0.088687
C143	C	0.333553	-0.696320	0.244646
C144	C	0.666886	-0.362986	0.577980
C145	C	0.000146	-0.574384	-0.160471
C146	C	0.333479	-0.241051	0.172862
C147	C	0.666812	0.092282	0.506196
C148	C	0.000152	-0.501560	-0.159399
C149	C	0.333485	-0.168227	0.173934
C150	C	0.666819	0.165106	0.507267
C151	C	0.000157	-0.473666	-0.095233
C152	C	0.333490	-0.140333	0.238100
C153	C	0.666824	0.193001	0.571434
C154	C	0.000140	-0.518602	-0.032134
C155	C	0.333474	-0.185268	0.301200
C156	C	0.666807	0.148065	0.634533
C157	C	0.000128	-0.591424	-0.033207
C158	C	0.333461	-0.258091	0.300126
C159	C	0.666795	0.075243	0.633460
N160	N	0.033657	-0.365694	-0.046180
N161	N	0.366990	-0.032361	0.287153
N162	N	0.700324	0.300973	0.620486
N163	N	0.033670	-0.296515	-0.045165
N164	N	0.367003	0.036818	0.288168
N165	N	0.700337	0.370151	0.621502
C166	C	0.000193	-0.254257	-0.091995
C167	C	0.333526	0.079076	0.241339
C168	C	0.666860	0.412409	0.574672
N169	N	-0.033290	-0.283790	-0.139889
N170	N	0.300043	0.049543	0.193444
N171	N	0.633377	0.382876	0.526778
N172	N	-0.033300	-0.352975	-0.140907
N173	N	0.300033	-0.019641	0.192427
N174	N	0.633366	0.313692	0.525760
C175	C	0.000170	-0.394704	-0.094062
C176	C	0.333503	-0.061370	0.239271
C177	C	0.666837	0.271963	0.572605
C178	C	0.000213	-0.130367	-0.153928
C179	C	0.333546	0.202966	0.179405
C180	C	0.666879	0.536300	0.512738
C181	C	0.000215	-0.057542	-0.152854
C182	C	0.333549	0.275791	0.180479
C183	C	0.666882	0.609124	0.513813
C184	C	0.000210	-0.074585	-0.025586
C185	C	0.333543	0.258748	0.307747
C186	C	0.666876	0.592081	0.641080
C187	C	0.000201	-0.147408	-0.026663
C188	C	0.333534	0.185925	0.306671
C189	C	0.666868	0.519258	0.640004
C190	C	0.000205	-0.175295	-0.090835
C191	C	0.333538	0.158039	0.242498
C192	C	0.666872	0.491372	0.575831
C193	C	0.053785	-0.828314	0.148546
C194	C	0.387118	-0.494980	0.481879
C195	C	0.720451	-0.161647	0.815213
C196	C	0.053788	-0.827234	0.221369
C197	C	0.387122	-0.493901	0.554702
C198	C	0.720455	-0.160568	0.888036
C199	C	0.000168	-0.826690	0.257783
C200	C	0.333502	-0.493357	0.591117
C201	C	0.666835	-0.160023	0.924450
C202	C	-0.053460	-0.827207	0.221366
C203	C	0.279874	-0.493874	0.554700
C204	C	0.613207	-0.160540	0.888033
C205	C	-0.053462	-0.828279	0.148544
C206	C	0.279871	-0.494946	0.481877
C207	C	0.613205	-0.161613	0.815211
N208	N	-0.039733	-0.864731	0.377440
N209	N	0.293600	-0.531398	0.710774
N210	N	0.626934	-0.198064	1.044107
N211	N	-0.039727	-0.863714	0.446619
N212	N	0.293606	-0.530380	0.779952
N213	N	0.626940	-0.197047	1.113285
C214	C	0.000172	-0.823458	0.477193
C215	C	0.333505	-0.490124	0.810526
C216	C	0.666839	-0.156791	1.143859
N217	N	0.040074	-0.784266	0.435976
N218	N	0.373407	-0.450932	0.769309
N219	N	0.706741	-0.117599	1.102643
N220	N	0.040070	-0.785286	0.366792
N221	N	0.373403	-0.451953	0.700125
N222	N	0.706736	-0.118620	1.033458
C223	C	0.000165	-0.825527	0.336747
C224	C	0.333498	-0.492193	0.670080
C225	C	0.666831	-0.158860	1.003413
C226	C	0.053801	-0.821765	0.592563
C227	C	0.387134	-0.488432	0.925896
C228	C	0.720467	-0.155099	1.259229
C229	C	0.053802	-0.820682	0.665386
C230	C	0.387136	-0.487348	0.998720
C231	C	0.720469	-0.154015	1.332053
C232	C	-0.053447	-0.820661	0.665383
C233	C	0.279886	-0.487328	0.998717
C234	C	0.613219	-0.153995	1.332050
C235	C	-0.053447	-0.821738	0.592560
C236	C	0.279886	-0.488405	0.925894
C237	C	0.613219	-0.155071	1.259227
C238	C	0.000178	-0.822293	0.556155
C239	C	0.333512	-0.488960	0.889488
C240	C	0.666845	-0.155627	1.222821
C241	C	0.000180	-0.818992	0.779300
C242	C	0.333514	-0.485659	1.112633
C243	C	0.666847	-0.152326	1.445966
C244	C	0.000182	-0.820136	0.701795
C245	C	0.333515	-0.486803	1.035129
C246	C	0.666848	-0.153469	1.368462
H247	H	-0.158798	-0.910868	-0.006706
H248	H	0.174535	-0.577535	0.326628
H249	H	0.507869	-0.244201	0.659961
H250	H	0.097466	-0.822214	0.562919
H251	H	0.430799	-0.488880	0.896253
H252	H	0.764132	-0.155547	1.229586
C253	C	-0.112442	-0.826607	0.261416
C254	C	0.220892	-0.493274	0.594749
C255	C	0.554225	-0.159940	0.928082
H256	H	-0.144378	-0.827065	0.229299
H257	H	0.188955	-0.493732	0.562632
H258	H	0.522289	-0.160399	0.895966
H259	H	-0.114665	-0.866894	0.295274
H260	H	0.218669	-0.533561	0.628607
H261	H	0.552002	-0.200228	0.961940
H262	H	-0.114675	-0.785477	0.284372
H263	H	0.218659	-0.452143	0.617706
H264	H	0.551992	-0.118810	0.951039
H265	H	-0.097128	-0.828700	0.118901
H266	H	0.236205	-0.495367	0.452234
H267	H	0.569539	-0.162034	0.785568
H268	H	-0.840784	-0.910915	-0.006653
H269	H	-0.507451	-0.577582	0.326681
H270	H	-0.174118	-0.244248	0.660014
H271	H	0.000207	-0.153073	-0.206182
H272	H	0.333541	0.180260	0.127152
H273	H	0.666874	0.513594	0.460485
C274	C	-0.719594	-0.924514	0.006947
C275	C	-0.386261	-0.591181	0.340280
C276	C	-0.052928	-0.257847	0.673614
H277	H	-0.746893	-0.952874	0.035293
H278	H	-0.413560	-0.619540	0.368627
H279	H	-0.080226	-0.286207	0.701960
H280	H	-0.695427	-0.953497	-0.018093
H281	H	-0.362093	-0.620164	0.315240
H282	H	-0.028760	-0.286830	0.648573
H283	H	-0.695453	-0.899484	0.035955
H284	H	-0.362119	-0.566151	0.369288
H285	H	-0.028786	-0.232818	0.702622
C286	C	0.000169	-0.452130	-0.228800
C287	C	0.333503	-0.118797	0.104533
C288	C	0.666836	0.214537	0.437867
H289	H	0.000173	-0.404766	-0.218968
H290	H	0.333506	-0.071433	0.114365
H291	H	0.666840	0.261900	0.447698
H292	H	0.034474	-0.460588	-0.255113
H293	H	0.367807	-0.127254	0.078220
H294	H	0.701140	0.206079	0.411553
H295	H	-0.034138	-0.460536	-0.255130
H296	H	0.299196	-0.127203	0.078204
H297	H	0.632529	0.206131	0.411537
H298	H	-0.271119	-0.910872	-0.006682
H299	H	0.062214	-0.577538	0.326651
H300	H	0.395547	-0.244205	0.659984
C301	C	-0.849699	-0.724500	-0.192955
C302	C	-0.516366	-0.391167	0.140378
C303	C	-0.183032	-0.057833	0.473711
H304	H	-0.822401	-0.696134	-0.221295
H305	H	-0.489067	-0.362801	0.112038
H306	H	-0.155734	-0.029467	0.445371
H307	H	-0.873850	-0.749516	-0.221960
H308	H	-0.540517	-0.416183	0.111373
H309	H	-0.207183	-0.082849	0.444706
H310	H	-0.873858	-0.695514	-0.167901
H311	H	-0.540525	-0.362181	0.165432
H312	H	-0.207191	-0.028847	0.498766
H313	H	-0.728527	-0.738093	-0.179363
H314	H	-0.395193	-0.404760	0.153970
H315	H	-0.061860	-0.071426	0.487303
H316	H	0.097451	-0.828764	0.118909
H317	H	0.430784	-0.495431	0.452242
H318	H	0.764117	-0.162097	0.785576
H319	H	0.097469	-0.820254	0.695028
H320	H	0.430802	-0.486921	1.028361
H321	H	0.764135	-0.153587	1.361694
C322	C	-0.112429	-0.820057	0.705430
C323	C	0.220905	-0.486723	1.038763
C324	C	0.554238	-0.153390	1.372096
H325	H	-0.104748	-0.819345	0.754015
H326	H	0.228585	-0.486012	1.087349
H327	H	0.561918	-0.152679	1.420682
H328	H	-0.134467	-0.779521	0.688042
H329	H	0.198866	-0.446188	1.021375
H330	H	0.532199	-0.112855	1.354708
H331	H	-0.134455	-0.860939	0.698948
H332	H	0.198878	-0.527606	1.032282
H333	H	0.532212	-0.194272	1.365615
H334	H	0.000250	-0.051874	0.026659
H335	H	0.333584	0.281459	0.359992
H336	H	0.666917	0.614792	0.693326
H337	H	0.000223	-0.020964	-0.204233
H338	H	0.333556	0.312370	0.129101
H339	H	0.666889	0.645703	0.462434
C340	C	-0.150033	-0.724446	-0.193005
C341	C	0.183300	-0.391113	0.140329
C342	C	0.516633	-0.057780	0.473662
H343	H	-0.177348	-0.696084	-0.221354
H344	H	0.155985	-0.362751	0.111979
H345	H	0.489319	-0.029417	0.445313
H346	H	-0.125888	-0.695466	-0.167956
H347	H	0.207446	-0.362133	0.165377
H348	H	0.540779	-0.028800	0.498711
H349	H	-0.125872	-0.749473	-0.222011
H350	H	0.207461	-0.416139	0.111322
H351	H	0.540795	-0.082806	0.444655
H352	H	0.000193	-0.183988	0.024713
H353	H	0.333527	0.149345	0.358047
H354	H	0.666860	0.482678	0.691380
H355	H	-0.271208	-0.738064	-0.179404
H356	H	0.062125	-0.404730	0.153929
H357	H	0.395458	-0.071397	0.487262
C358	C	0.112773	-0.826689	0.261429
C359	C	0.446107	-0.493356	0.594763
C360	C	0.779440	-0.160023	0.928096
H361	H	0.144710	-0.827185	0.229319
H362	H	0.478043	-0.493851	0.562652
H363	H	0.811376	-0.160518	0.895986
H364	H	0.115012	-0.785574	0.284400
H365	H	0.448345	-0.452241	0.617734
H366	H	0.781679	-0.118908	0.951067
H367	H	0.114992	-0.866992	0.295277
H368	H	0.448325	-0.533659	0.628611
H369	H	0.781658	-0.200326	0.961944
H370	H	0.000153	-0.495885	0.020111
H371	H	0.333486	-0.162552	0.353445
H372	H	0.666819	0.170781	0.686778
C373	C	-0.112429	-0.822316	0.552507
C374	C	0.220904	-0.488982	0.885841
C375	C	0.554237	-0.155649	1.219174
H376	H	-0.104752	-0.823026	0.503922
H377	H	0.228582	-0.489693	0.837255
H378	H	0.561915	-0.156359	1.170588
H379	H	-0.134457	-0.862840	0.569890
H380	H	0.198876	-0.529506	0.903223
H381	H	0.532210	-0.196173	1.236556
H382	H	-0.134466	-0.781422	0.558992
H383	H	0.198867	-0.448089	0.892325
H384	H	0.532201	-0.114756	1.225659
C385	C	-0.434754	-0.972110	0.054525
C386	C	-0.101421	-0.638777	0.387859
C387	C	0.231912	-0.305443	0.721192
H388	H	-0.462055	-1.000465	0.082873
H389	H	-0.128721	-0.667132	0.416207
H390	H	0.204612	-0.333798	0.749540
H391	H	-0.410587	-1.001098	0.029489
H392	H	-0.077254	-0.667764	0.362822
H393	H	0.256079	-0.334431	0.696156
H394	H	-0.410612	-0.947078	0.083531
H395	H	-0.077278	-0.613745	0.416865
H396	H	0.256055	-0.280412	0.750198
H397	H	-0.555922	-0.958513	0.040932
H398	H	-0.222589	-0.625180	0.374265
H399	H	0.110745	-0.291847	0.707599
H400	H	0.000118	-0.628004	0.018171
H401	H	0.333451	-0.294670	0.351504
H402	H	0.666784	0.038663	0.684838
C403	C	0.000139	-0.605056	-0.231058
C404	C	0.333473	-0.271722	0.102275
C405	C	0.666806	0.061611	0.435609
H406	H	0.000142	-0.567865	-0.268480
H407	H	0.333475	-0.234532	0.064854
H408	H	0.666809	0.098802	0.398187
H409	H	0.034436	-0.633137	-0.234121
H410	H	0.367769	-0.299804	0.099212
H411	H	0.701102	0.033530	0.432545
H412	H	-0.034176	-0.633081	-0.234125
H413	H	0.299158	-0.299747	0.099208
H414	H	0.632491	0.033586	0.432542
H415	H	-0.556033	-0.690442	-0.226956
H416	H	-0.222700	-0.357108	0.106377
H417	H	0.110633	-0.023775	0.439711
H418	H	-0.443711	-0.690431	-0.226956
H419	H	-0.110378	-0.357098	0.106377
H420	H	0.222956	-0.023764	0.439711
