data_functionalizedCrystal
_audit_creation_method	'MofGen! by Chris Wilmer'
_symmetry_space_group_name_H-M	'P1'
_symmetry_Int_Tables_number	1
_symmetry_cell_setting	triclinic
loop_
_symmetry_equiv_pos_as_xyz
  x,y,z
_cell_length_a	12.759400
_cell_length_b	12.827893
_cell_length_c	12.827885
_cell_angle_alpha	90.021189
_cell_angle_beta	89.969506
_cell_angle_gamma	89.987106
loop_
_atom_site_label
_atom_site_type_symbol
_atom_site_fract_x
_atom_site_fract_y
_atom_site_fract_z
Zn1	Zn	-0.418266	-1.597675	-0.590897
Zn2	Zn	-0.593981	-1.597571	-0.416155
Zn3	Zn	-0.418311	-1.422916	-0.416165
Zn4	Zn	-0.593898	-1.422904	-0.590849
O5	O	-0.506114	-1.510266	-0.503517
O6	O	-0.441590	-1.743897	-0.567733
O7	O	-0.570732	-1.574365	-0.269920
O8	O	-0.271284	-1.446147	-0.439367
O9	O	-0.570688	-1.743821	-0.439351
O10	O	-0.271251	-1.574541	-0.567742
O11	O	-0.441668	-1.446046	-0.269927
O12	O	-0.441587	-1.276678	-0.439321
O13	O	-0.570546	-1.446125	-0.737092
O14	O	-0.570590	-1.276669	-0.567661
O15	O	-0.441509	-1.574529	-0.737127
O16	O	-0.740991	-1.574352	-0.439305
O17	O	-0.740930	-1.446025	-0.567652
C18	C	-0.506085	-1.238756	-0.503488
C19	C	-0.506098	-1.122603	-0.503500
C20	C	-0.569892	-0.950737	-0.439901
C21	C	-0.569880	-1.070787	-0.439886
C22	C	-0.779081	-1.510204	-0.503495
C23	C	-0.895858	-1.510273	-0.503520
C24	C	-0.950717	-1.577168	-0.436764
C25	C	-1.060441	-1.577232	-0.436796
C26	C	-1.060437	-1.443499	-0.570344
C27	C	-0.950715	-1.443440	-0.570316
C28	C	-0.895860	-1.644001	-0.369968
C29	C	-0.950719	-1.710899	-0.303205
C30	C	-1.060443	-1.710964	-0.303237
C31	C	-1.115308	-1.644129	-0.370032
C32	C	-0.232081	-1.510357	-0.503561
C33	C	-0.115304	-1.510396	-0.503580
C34	C	-0.506013	-1.510337	-0.776087
C35	C	-0.505970	-1.510368	-0.892240
C36	C	-0.506135	-0.782836	-0.503538
C37	C	-0.506122	-0.898990	-0.503525
C38	C	-0.442106	-1.573913	-0.944042
C39	C	-0.442060	-1.573946	-1.064093
C40	C	-0.506139	-1.510256	-0.232007
C41	C	-0.505886	-1.510428	-0.115854
H42	H	-0.451513	-0.943564	-0.557982
H43	H	-0.451503	-1.078109	-0.557978
C44	C	-1.236008	-1.644207	-0.370067
N45	N	-1.326918	-1.644263	-0.370089
H46	H	-0.624492	-0.906163	-0.385435
H47	H	-0.806517	-1.643953	-0.369931
C48	C	-0.368281	-1.647376	-0.883893
N49	N	-0.312674	-1.702711	-0.838590
H50	H	-0.624481	-1.115289	-0.385421
C51	C	-0.579756	-1.436925	-1.055681
N52	N	-0.635393	-1.381560	-1.010351
C53	C	-1.120793	-1.369976	-0.643803
N54	N	-1.166253	-1.314593	-0.699129
H55	H	-0.906042	-1.765320	-0.248829
C56	C	-1.120785	-1.784554	-0.229800
N57	N	-1.166232	-1.839981	-0.174480
C58	C	-0.890367	-1.369838	-0.643736
N59	N	-0.844912	-1.314395	-0.699035
C60	C	-0.368190	-1.647442	-1.124272
N61	N	-0.312546	-1.702800	-1.169603
H62	H	-0.560605	-1.455982	-0.936767
