data_functionalizedCrystal
_audit_creation_method	'MofGen! by Chris Wilmer'
_symmetry_space_group_name_H-M	'P1'
_symmetry_Int_Tables_number	1
_symmetry_cell_setting	triclinic
loop_
_symmetry_equiv_pos_as_xyz
  x,y,z
_cell_length_a	9.065218
_cell_length_b	14.971486
_cell_length_c	14.048226
_cell_angle_alpha	89.993360
_cell_angle_beta	89.993494
_cell_angle_gamma	84.315007
loop_
_atom_site_label
_atom_site_type_symbol
_atom_site_fract_x
_atom_site_fract_y
_atom_site_fract_z
O1	O	1.957746	0.131155	-0.079164
O2	O	1.528243	0.141913	-0.079165
O3	O	1.754506	0.006420	-0.079158
O4	O	1.731482	0.266649	-0.079171
O5	O	1.754479	0.006412	0.079164
O6	O	1.528216	0.141905	0.079156
O7	O	1.957719	0.131147	0.079158
Zn8	Zn	1.742963	0.136525	0.104294
Zn9	Zn	1.742999	0.136536	-0.104301
O10	O	1.731455	0.266640	0.079150
C11	C	1.753463	-0.026916	0.000003
C12	C	1.750377	-0.126237	0.000002
C13	C	1.473263	0.140875	-0.000005
C14	C	1.309483	0.137784	-0.000005
C15	C	1.883301	-0.182471	0.000003
C16	C	1.880393	-0.275792	-0.000007
C17	C	1.744560	-0.312877	-0.000010
C18	C	1.611626	-0.256635	-0.000014
C19	C	1.614535	-0.163316	-0.000012
C20	C	1.605571	-0.451143	-0.000018
C21	C	1.602660	-0.544468	-0.000019
C22	C	1.871428	-0.563619	-0.000013
C23	C	1.874338	-0.470300	-0.000010
C24	C	1.741403	-0.414064	-0.000012
C25	C	2.012698	0.132185	-0.000005
C26	C	2.176478	0.135277	-0.000011
C27	C	1.732498	0.299977	-0.000012
C28	C	1.735584	0.399297	-0.000018
N29	N	1.742949	0.136517	0.246655
N30	N	1.743024	0.136537	-0.246662
C31	C	1.843170	0.076546	0.296476
C32	C	1.843180	0.076545	0.396134
C33	C	1.742975	0.136521	0.445968
C34	C	1.642743	0.196495	0.396140
C35	C	1.642727	0.196490	0.296484
C36	C	1.642786	0.196502	0.603854
C37	C	1.642803	0.196508	0.703517
C38	C	1.843238	0.076557	0.703504
C39	C	1.843222	0.076552	0.603848
C40	C	1.742992	0.136527	0.554026
H41	H	1.993912	-0.152285	0.000012
H42	H	1.501028	-0.286837	-0.000024
H43	H	1.506295	-0.117530	-0.000013
H44	H	1.561204	0.245345	0.744087
H45	H	1.492053	-0.574659	-0.000007
H46	H	1.924774	0.027711	0.255907
O47	O	1.476302	-0.396643	0.000020
C48	C	1.355787	-0.449383	-0.000006
H49	H	1.393102	-0.518716	0.029967
H50	H	1.314172	-0.456354	-0.075961
C51	C	1.184120	-0.318764	0.025268
C52	C	1.229948	-0.403917	0.062089
H53	H	1.106492	-0.290718	0.063567
H54	H	1.265312	-0.283231	0.025282
H55	H	1.149451	-0.324585	-0.038027
H56	H	1.264633	-0.398095	0.125378
H57	H	1.148758	-0.439449	0.062087
O58	O	2.000427	-0.618370	-0.000064
C59	C	1.968739	-0.708689	-0.000052
H60	H	1.852857	-0.713198	-0.030026
H61	H	1.974273	-0.735641	0.075900
C62	C	2.225515	-0.759310	-0.025331
C63	C	2.083191	-0.764849	-0.062154
H64	H	2.296117	-0.793954	-0.063635
H65	H	2.246865	-0.698461	-0.025336
H66	H	2.230105	-0.781769	0.037961
H67	H	2.078598	-0.742380	-0.125440
H68	H	2.061842	-0.825696	-0.062161
O69	O	1.545321	0.254834	0.248232
C70	C	1.456856	0.307758	0.313584
H71	H	1.517353	0.309285	0.384613
H72	H	1.347221	0.277786	0.324205
C73	C	1.352297	0.402117	0.187436
C74	C	1.426606	0.403999	0.274673
H75	H	1.333630	0.461482	0.163433
H76	H	1.411893	0.366460	0.143406
H77	H	1.260943	0.377136	0.196299
H78	H	1.517966	0.428969	0.265807
H79	H	1.367025	0.439663	0.318700
H80	H	1.561163	0.245337	0.563293
O81	O	1.940490	0.018173	0.444420
C82	C	1.916360	-0.070581	0.420103
H83	H	1.859472	-0.070958	0.347758
H84	H	1.842911	-0.098874	0.476210
C85	C	2.135935	-0.128341	0.504329
C86	C	2.066075	-0.128805	0.415470
H87	H	2.228284	-0.164258	0.501475
H88	H	2.152190	-0.068546	0.520715
H89	H	2.074712	-0.151917	0.551075
H90	H	2.127289	-0.105219	0.368728
H91	H	2.049834	-0.188597	0.399076
O92	O	1.940455	0.018324	0.752042
C93	C	1.919006	0.031197	0.850687
H94	H	1.801774	0.063633	0.864309
H95	H	2.002581	0.076769	0.878951
C96	C	2.085026	-0.099956	0.885129
C97	C	1.941035	-0.060124	0.901861
H98	H	2.098621	-0.156286	0.916697
H99	H	2.099482	-0.108627	0.818670
H100	H	2.154655	-0.061970	0.908682
H101	H	1.871410	-0.098105	0.878297
H102	H	1.926568	-0.051462	0.968317
H103	H	1.561147	0.245325	0.436721
H104	H	1.988633	-0.321575	-0.000004
H105	H	1.984945	-0.440109	0.000000
H106	H	1.924824	0.027720	0.563273
