data_functionalizedCrystal
_audit_creation_method	'MofGen! by Chris Wilmer'
_symmetry_space_group_name_H-M	'P1'
_symmetry_Int_Tables_number	1
_symmetry_cell_setting	triclinic
loop_
_symmetry_equiv_pos_as_xyz
  x,y,z
_cell_length_a	17.077404
_cell_length_b	15.299816
_cell_length_c	17.077396
_cell_angle_alpha	80.343631
_cell_angle_beta	90.021444
_cell_angle_gamma	80.349447
loop_
_atom_site_label
_atom_site_type_symbol
_atom_site_fract_x
_atom_site_fract_y
_atom_site_fract_z
Zn1	Zn	1.254124	-0.359105	0.498025
Zn2	Zn	1.754124	0.140895	0.998025
Zn3	Zn	1.276741	-0.509936	0.389499
Zn4	Zn	1.776741	-0.009936	0.889499
Zn5	Zn	1.122860	-0.359132	0.366772
Zn6	Zn	1.622860	0.140868	0.866772
Zn7	Zn	1.145525	-0.509878	0.520710
Zn8	Zn	1.645525	-0.009878	1.020710
O9	O	1.199812	-0.434513	0.443752
O10	O	1.699812	0.065487	0.943752
O11	O	1.366973	-0.379127	0.483646
O12	O	1.866973	0.120873	0.983646
O13	O	1.256308	-0.489967	0.276643
O14	O	1.756308	0.010033	0.776643
O15	O	1.121321	-0.232917	0.365178
O16	O	1.621321	0.267083	0.865178
O17	O	1.383590	-0.489942	0.403913
O18	O	1.883590	0.010058	0.903913
O19	O	1.217761	-0.232898	0.461609
O20	O	1.717761	0.267102	0.961609
O21	O	1.143252	-0.379172	0.259946
O22	O	1.643252	0.120828	0.759946
O23	O	1.016017	-0.379115	0.387175
O24	O	1.516017	0.120885	0.887175
O25	O	1.159951	-0.489842	0.627542
O26	O	1.659951	0.010158	1.127542
O27	O	1.032669	-0.489867	0.500272
O28	O	1.532669	0.010133	1.000272
O29	O	1.239738	-0.379070	0.610876
O30	O	1.739738	0.120930	1.110876
O31	O	1.278286	-0.636139	0.425910
O32	O	1.778286	-0.136139	0.925910
O33	O	1.181882	-0.636096	0.522309
O34	O	1.681882	-0.136096	1.022309
C35	C	0.995861	-0.434488	0.443719
C36	C	1.495861	0.065512	0.943719
C37	C	0.908613	-0.434499	0.443727
C38	C	1.408613	0.065501	0.943727
C39	C	0.524164	-0.376940	0.485397
C40	C	1.024164	0.123060	0.985397
C41	C	0.606144	-0.376933	0.485387
C42	C	1.106144	0.123067	0.985387
C43	C	0.655769	-0.434532	0.443774
C44	C	1.155769	0.065468	0.943774
C45	C	0.623411	-0.492147	0.402175
C46	C	1.123411	0.007853	0.902175
C47	C	0.541434	-0.492157	0.402189
C48	C	1.041434	0.007843	0.902189
C49	C	0.794277	-0.492120	0.402145
C50	C	1.294277	0.007880	0.902145
C51	C	0.876260	-0.492108	0.402129
C52	C	1.376260	0.007892	0.902129
C53	C	0.858987	-0.376896	0.485343
C54	C	1.358987	0.123104	0.985343
C55	C	0.777010	-0.376906	0.485358
C56	C	1.277010	0.123094	0.985358
C57	C	0.744658	-0.434520	0.443757
C58	C	1.244658	0.065480	0.943757
C59	C	1.235019	-0.668843	0.479054
C60	C	1.735019	-0.168843	0.979054
C61	C	1.250152	-0.769091	0.494183
C62	C	1.750152	-0.269091	0.994183
C63	C	1.092167	-1.052011	0.335889
C64	C	1.592167	-0.552011	0.835889
C65	C	1.077944	-0.957823	0.321677
C66	C	1.577944	-0.457823	0.821677
C67	C	1.120995	-0.910635	0.364802
C68	C	1.620995	-0.410635	0.864802
C69	C	1.178271	-0.957644	0.422143
C70	C	1.678271	-0.457644	0.922143
C71	C	1.192490	-1.051841	0.436361
C72	C	1.692490	-0.551841	0.936361
C73	C	1.221319	-0.910466	0.465273
C74	C	1.721319	-0.410466	0.965273
C75	C	1.278594	-0.957475	0.522614
C76	C	1.778594	-0.457475	1.022614
C77	C	1.292812	-1.051662	0.536829
C78	C	1.792812	-0.551662	1.036829
C79	C	1.249761	-1.098850	0.493704
C80	C	1.749761	-0.598850	0.993704
C81	C	1.207099	-0.816269	0.451055
C82	C	1.707099	-0.316269	0.951055
C83	C	1.307423	-0.816099	0.551527
C84	C	1.807423	-0.316099	1.051527
C85	C	1.321645	-0.910287	0.565739
C86	C	1.821645	-0.410287	1.065739
C87	C	1.404560	-0.434538	0.443785
C88	C	1.904560	0.065462	0.943785
C89	C	1.491812	-0.434549	0.443799
C90	C	1.991812	0.065451	0.943799
C91	C	1.199850	-0.434446	0.648486
C92	C	1.699850	0.065554	1.148486
C93	C	1.199866	-0.434418	0.735732
C94	C	1.699866	0.065582	1.235732
C95	C	1.164490	-0.199267	0.408328
C96	C	1.664490	0.300733	0.908328
C97	C	1.149437	-0.099020	0.393233
C98	C	1.649437	0.400980	0.893233
C99	C	1.199810	-0.434514	0.239804
C100	C	1.699810	0.065486	0.739804
C101	C	1.199908	-0.434288	0.152521
C102	C	1.699908	0.065712	0.652521
C103	C	1.241412	-0.376734	0.768044
C104	C	1.741412	0.123266	1.268044
C105	C	1.241417	-0.376704	0.850020
C106	C	1.741417	0.123296	1.350020
C107	C	1.199880	-0.434363	0.899683
C108	C	1.699880	0.065637	1.399683
C109	C	1.158328	-0.492049	0.867365
C110	C	1.658328	0.007951	1.367365
C111	C	1.158319	-0.492074	0.785390
C112	C	1.658319	0.007926	1.285390
C113	C	1.158352	-0.491995	1.038227
C114	C	1.658352	0.008005	1.538227
C115	C	1.158362	-0.491972	1.120208
C116	C	1.658362	0.008028	1.620208
C117	C	1.241450	-0.376625	1.102857
C118	C	1.741450	0.123375	1.602857
C119	C	1.241441	-0.376650	1.020882
C120	C	1.741441	0.123350	1.520882
C121	C	1.199890	-0.434338	0.988570
C122	C	1.699890	0.065662	1.488570
H123	H	0.515095	-0.539070	0.368318
H124	H	1.015095	-0.039070	0.868318
Cl125	Cl	1.135099	-0.757184	0.378971
Cl126	Cl	1.635099	-0.257184	0.878971
Cl127	Cl	0.899657	-0.304461	0.537636
Cl128	Cl	1.399657	0.195539	1.037636
Cl129	Cl	0.714624	-0.304492	0.537668
Cl130	Cl	1.214624	0.195508	1.037668
Cl131	Cl	1.005936	-0.898733	0.249604
Cl132	Cl	1.505936	-0.398733	0.749604
Cl133	Cl	1.106085	-0.564591	0.744768
Cl134	Cl	1.606085	-0.064591	1.244768
H135	H	1.057117	-1.090440	0.300787
H136	H	1.557117	-0.590440	0.800787
H137	H	1.124537	-0.538921	1.160642
H138	H	1.624537	-0.038921	1.660642
Cl139	Cl	1.102840	-0.792228	0.347208
Cl140	Cl	1.602840	-0.292228	0.847208
H141	H	1.275239	-0.329784	0.727614
H142	H	1.775239	0.170216	1.227614
H143	H	1.261340	-1.175545	0.505270
H144	H	1.761340	-0.675545	1.005270
H145	H	0.483764	-0.330031	0.519278
H146	H	0.983764	0.169969	1.019278
Cl147	Cl	1.364800	-1.110757	0.608930
Cl148	Cl	1.864800	-0.610757	1.108930
H149	H	1.342477	-0.777680	0.586644
H150	H	1.842477	-0.277680	1.086644
Cl151	Cl	1.393645	-0.969395	0.637823
Cl152	Cl	1.893645	-0.469395	1.137823
Cl153	Cl	1.293690	-0.304224	0.890644
Cl154	Cl	1.793690	0.195776	1.390644
H155	H	1.275269	-0.329704	0.980449
H156	H	1.775269	0.170296	1.480449
Cl157	Cl	0.646813	-0.304512	0.537689
Cl158	Cl	1.146813	0.195488	1.037689
Cl159	Cl	1.293685	-0.304105	1.143478
Cl160	Cl	1.793685	0.195895	1.643478
Cl161	Cl	0.938649	-0.564544	0.349841
Cl162	Cl	1.438649	-0.064544	0.849841
H163	H	1.124503	-0.538956	1.011920
H164	H	1.624503	-0.038956	1.511920
Cl165	Cl	1.106107	-0.564532	0.929798
Cl166	Cl	1.606107	-0.064532	1.429798
H167	H	0.767940	-0.539039	0.368273
H168	H	1.267940	-0.039039	0.868273
Cl169	Cl	0.685798	-0.564561	0.349865
Cl170	Cl	1.185798	-0.064561	0.849865
