data_functionalizedCrystal
_audit_creation_method	'MofGen! by Chris Wilmer'
_symmetry_space_group_name_H-M	'P1'
_symmetry_Int_Tables_number	1
_symmetry_cell_setting	triclinic
loop_
_symmetry_equiv_pos_as_xyz
  x,y,z
_cell_length_a	16.992694
_cell_length_b	15.944551
_cell_length_c	16.053802
_cell_angle_alpha	92.564789
_cell_angle_beta	87.249047
_cell_angle_gamma	87.083481
loop_
_atom_site_label
_atom_site_type_symbol
_atom_site_fract_x
_atom_site_fract_y
_atom_site_fract_z
O1	O	1.043704	0.174798	-0.069327
O2	O	1.543704	0.674798	0.430673
O3	O	0.815419	0.172843	-0.069352
O4	O	1.315419	0.672843	0.430648
O5	O	0.935795	0.051964	-0.069332
O6	O	1.435795	0.551964	0.430668
O7	O	0.923328	0.295677	-0.069348
O8	O	1.423328	0.795677	0.430652
O9	O	0.929169	0.058588	0.069526
O10	O	1.429169	0.558588	0.569526
O11	O	0.808793	0.179467	0.069506
O12	O	1.308793	0.679467	0.569506
O13	O	1.037078	0.181422	0.069530
O14	O	1.537078	0.681422	0.569530
Zn15	Zn	0.921884	0.181497	0.091565
Zn16	Zn	1.421884	0.681497	0.591565
Zn17	Zn	0.930613	0.172769	-0.091386
Zn18	Zn	1.430613	0.672769	0.408614
O19	O	0.916702	0.302301	0.069510
O20	O	1.416702	0.802301	0.569510
C21	C	0.782894	0.173641	0.000074
C22	C	1.282894	0.673641	0.500074
C23	C	0.695850	0.166141	0.000065
C24	C	1.195850	0.666141	0.500065
C25	C	0.645613	0.238506	0.000061
C26	C	1.145613	0.738506	0.500061
C27	C	0.563826	0.231454	0.000073
C28	C	1.063826	0.731454	0.500073
C29	C	0.532276	0.152037	0.000083
C30	C	1.032276	0.652037	0.500083
C31	C	0.582519	0.079667	0.000089
C32	C	1.082519	0.579667	0.500089
C33	C	0.664305	0.086719	0.000083
C34	C	1.164305	0.586719	0.500083
C35	C	0.288676	0.122807	0.000107
C36	C	0.788676	0.622807	0.500107
C37	C	0.206884	0.115759	0.000111
C38	C	0.706884	0.615759	0.500111
C39	C	0.188196	0.267548	0.000095
C40	C	0.688196	0.767548	0.500095
C41	C	0.269984	0.274593	0.000084
C42	C	0.769984	0.774593	0.500084
C43	C	0.320220	0.202223	0.000095
C44	C	0.820220	0.702223	0.500095
N45	N	0.448677	0.144827	0.000092
N46	N	0.948677	0.644827	0.500092
N47	N	0.403818	0.209434	0.000092
N48	N	0.903818	0.709434	0.500092
C49	C	0.931964	0.023948	0.000097
C50	C	1.431964	0.523948	0.500097
C51	C	0.930413	-0.069402	0.000098
C52	C	1.430413	0.430598	0.500098
C53	C	0.852090	-0.289513	0.000078
C54	C	1.352090	0.210487	0.500078
C55	C	0.885194	-0.344825	0.068547
C56	C	1.385194	0.155175	0.568547
C57	C	0.927606	-0.240317	0.000091
C58	C	1.427606	0.259683	0.500091
C59	C	0.891744	-0.351338	-0.068356
C60	C	1.391744	0.148662	0.431644
C61	C	0.924889	-0.405412	0.000081
C62	C	1.424889	0.094588	0.500081
C63	C	0.960728	-0.294396	0.068617
C64	C	1.460728	0.205604	0.568617
C65	C	0.967271	-0.300907	-0.068348
C66	C	1.467271	0.199093	0.431652
C67	C	1.000429	-0.356196	0.000138
C68	C	1.500429	0.143804	0.500138
C69	C	0.929169	-0.145209	0.000098
C70	C	1.429169	0.354791	0.500098
C71	C	0.923332	-0.500518	0.000080
C72	C	1.423332	-0.000518	0.500080
C73	C	1.069603	0.180624	0.000103
C74	C	1.569603	0.680624	0.500103
C75	C	1.156648	0.188124	0.000106
C76	C	1.656648	0.688124	0.500106
C77	C	0.920533	0.330318	0.000079
C78	C	1.420533	0.830318	0.500079
C79	C	0.922085	0.423667	0.000073
C80	C	1.422085	0.923667	0.500073
N81	N	0.915931	0.187453	0.216424
N82	N	1.415931	0.687453	0.716424
N83	N	0.936572	0.166806	-0.216246
N84	N	1.436572	0.666806	0.283754
C85	C	0.967170	0.136040	0.260127
C86	C	1.467170	0.636040	0.760127
C87	C	0.963014	0.140215	0.347533
C88	C	1.463014	0.640215	0.847533
C89	C	0.907622	0.195808	0.391235
C90	C	1.407622	0.695808	0.891235
C91	C	0.856378	0.247223	0.347526
C92	C	1.356378	0.747223	0.847526
C93	C	0.860531	0.243043	0.260121
C94	C	1.360531	0.743043	0.760121
C95	C	0.889481	0.214042	0.652641
C96	C	1.389481	0.714042	1.152641
C97	C	0.885333	0.218220	0.740052
C98	C	1.385333	0.718220	1.240052
C99	C	0.991968	0.111209	0.740053
C100	C	1.491968	0.611209	1.240053
C101	C	0.996120	0.107038	0.652646
C102	C	1.496120	0.607038	1.152646
C103	C	0.944873	0.158450	0.608945
C104	C	1.444873	0.658450	1.108945
N105	N	0.903374	0.200078	0.480578
N106	N	1.403374	0.700078	0.980578
N107	N	0.949118	0.154175	0.519604
N108	N	1.449118	0.654175	1.019604
H109	H	0.556825	0.015004	0.000110
H110	H	1.056825	0.515004	0.500110
H111	H	1.001946	-0.281397	-0.126229
H112	H	1.501946	0.218603	0.373771
N113	N	1.026901	0.076069	0.212985
N114	N	1.526901	0.576069	0.712985
H115	H	1.063342	0.108778	0.176706
H116	H	1.563342	0.608778	0.676706
H117	H	1.058674	0.044137	0.253982
H118	H	1.558674	0.544137	0.753982
H119	H	0.862556	-0.376319	-0.126245
H120	H	1.362556	0.123681	0.373755
N121	N	0.718492	0.008670	0.000094
N122	N	1.218492	0.508670	0.500094
H123	H	0.686098	-0.042711	0.000101
H124	H	1.186098	0.457289	0.500101
H125	H	0.755284	0.005830	-0.051382
H126	H	1.255284	0.505830	0.448618
N127	N	0.509673	0.309534	0.000137
N128	N	1.009673	0.809534	0.500137
H129	H	0.522256	0.341519	-0.051322
H130	H	1.022256	0.841519	0.448678
H131	H	0.453082	0.292995	0.000202
H132	H	0.953082	0.792995	0.500202
N133	N	1.055872	0.047084	0.605515
N134	N	1.555872	0.547084	1.105515
H135	H	1.050733	0.052244	0.543514
H136	H	1.550733	0.552244	1.043514
H137	H	1.110762	0.061302	0.620792
H138	H	1.610762	0.561302	1.120792
N139	N	0.805265	0.298501	0.212988
N140	N	1.305265	0.798501	0.712988
H141	H	0.836947	0.335988	0.176710
H142	H	1.336947	0.835988	0.676710
H143	H	0.772283	0.262257	0.176786
H144	H	1.272283	0.762257	0.676786
N145	N	0.825583	0.278174	0.787198
N146	N	1.325583	0.778174	1.287198
H147	H	0.853825	0.319130	0.823448
H148	H	1.353825	0.819130	1.323448
H149	H	0.793760	0.310053	0.746205
H150	H	1.293760	0.810053	1.246205
N151	N	0.134011	0.345599	0.000113
N152	N	0.634011	0.845599	0.500113
H153	H	0.166408	0.396979	0.000111
H154	H	0.666408	0.896979	0.500111
H155	H	0.102110	0.343536	-0.051356
H156	H	0.602110	0.843536	0.448644
N157	N	0.172845	0.030103	0.000138
N158	N	0.672845	0.530103	0.500138
H159	H	0.141777	0.021334	-0.051334
H160	H	0.641777	0.521334	0.448666
H161	H	0.217115	-0.014625	0.000180
H162	H	0.717115	0.485375	0.500180
N163	N	0.304012	0.360249	0.000057
N164	N	0.804012	0.860249	0.500057
H165	H	0.259776	0.405023	0.000053
H166	H	0.759776	0.905023	0.500053
H167	H	0.335095	0.368948	0.051526
H168	H	0.835095	0.868948	0.551526
N169	N	1.047239	0.055760	0.787186
N170	N	1.547239	0.555760	1.287186
H171	H	1.036205	0.066841	0.849188
H172	H	1.536205	0.566841	1.349188
H173	H	1.038906	-0.005172	0.771920
H174	H	1.538906	0.494828	1.271920
H175	H	1.004736	0.098349	0.383115
H176	H	1.504736	0.598349	0.883115
H177	H	0.850491	-0.364314	0.126426
H178	H	1.350491	0.135686	0.626426
H179	H	0.811273	0.292485	0.383113
H180	H	1.311273	0.792485	0.883113
N181	N	0.834206	0.269486	0.605513
N182	N	1.334206	0.769486	1.105513
H183	H	0.798488	0.305337	0.646463
H184	H	1.298488	0.805337	1.146463
H185	H	0.865938	0.306923	0.569232
H186	H	1.365938	0.806923	1.069232
H187	H	0.329568	0.063878	0.000117
H188	H	0.829568	0.563878	0.500117
H189	H	0.789404	-0.260406	0.000139
H190	H	1.289404	0.239594	0.500139
H191	H	0.989876	-0.269501	0.126566
H192	H	1.489876	0.230499	0.626566
H193	H	0.671294	0.303176	0.000052
H194	H	1.171294	0.803176	0.500052
H195	H	1.063164	-0.385145	0.000184
H196	H	1.563164	0.114855	0.500184
