data_functionalizedCrystal
_audit_creation_method	'MofGen! by Chris Wilmer'
_symmetry_space_group_name_H-M	'P1'
_symmetry_Int_Tables_number	1
_symmetry_cell_setting	triclinic
loop_
_symmetry_equiv_pos_as_xyz
  x,y,z
_cell_length_a	10.489746
_cell_length_b	10.489741
_cell_length_c	8.965430
_cell_angle_alpha	89.998489
_cell_angle_beta	90.001189
_cell_angle_gamma	84.540238
loop_
_atom_site_label
_atom_site_type_symbol
_atom_site_fract_x
_atom_site_fract_y
_atom_site_fract_z
O1	O	1.694050	0.179988	0.123938
O2	O	1.322855	0.196874	0.123963
O3	O	1.516899	0.002834	0.123941
O4	O	1.500006	0.374029	0.123960
O5	O	1.516882	0.002850	-0.124138
O6	O	1.322838	0.196890	-0.124116
O7	O	1.694033	0.180004	-0.124141
Cu8	Cu	1.508434	0.188449	-0.146780
Cu9	Cu	1.508454	0.188430	0.146602
O10	O	1.499989	0.374045	-0.124119
C11	C	1.275315	0.195606	-0.000073
C12	C	1.133686	0.191786	-0.000064
C13	C	0.980828	0.066062	-0.000091
C14	C	1.058213	0.128927	-0.122400
C15	C	1.058186	0.128940	0.122187
C16	C	0.958722	0.247908	-0.122510
C17	C	0.958689	0.247905	0.122186
C18	C	1.036025	0.310856	-0.000152
C19	C	1.515614	-0.044690	-0.000097
C20	C	1.511797	-0.186320	-0.000094
C21	C	1.388333	-0.254462	-0.000075
C22	C	1.446648	-0.346575	-0.122395
C23	C	1.446694	-0.346566	0.122192
C24	C	1.570163	-0.276568	-0.122515
C25	C	1.570192	-0.276549	0.122181
C26	C	1.628597	-0.368635	-0.000168
C27	C	1.741573	0.181273	-0.000101
C28	C	1.883202	0.185093	-0.000101
C29	C	1.501273	0.421569	-0.000077
C30	C	1.505091	0.563198	-0.000070
N31	N	1.508428	0.188461	-0.353129
C32	C	1.419435	0.278899	-0.549829
C33	C	1.392580	0.163755	-0.450368
C34	C	1.535226	0.303596	-0.450382
C35	C	1.481557	0.073204	-0.549777
C36	C	1.624254	0.213122	-0.549799
C37	C	1.597447	0.097894	-0.450384
N38	N	1.508470	0.188407	0.352951
H39	H	0.915196	0.298101	0.225601
H40	H	1.672726	0.021307	-0.406997
H41	H	1.060501	0.414436	-0.000214
H42	H	1.344107	0.355314	-0.593493
O43	O	1.384118	-0.383490	-0.245646
C44	C	1.257490	-0.324789	-0.245228
H45	H	1.228146	-0.297357	-0.126196
H46	H	1.251621	-0.235129	-0.317720
C47	C	1.202773	-0.452530	-0.453833
C48	C	1.166729	-0.418848	-0.307634
H49	H	1.146787	-0.510546	-0.492334
H50	H	1.288086	-0.492075	-0.454119
H51	H	1.197881	-0.377805	-0.514225
H52	H	1.171636	-0.493570	-0.247241
H53	H	1.081414	-0.379317	-0.307339
H54	H	1.394445	-0.377537	0.225613
O55	O	1.110245	0.068880	-0.245612
C56	C	1.198560	-0.034021	-0.201713
H57	H	1.233687	-0.016361	-0.083856
H58	H	1.149997	-0.126718	-0.204066
C59	C	1.270035	-0.066754	-0.454542
C60	C	1.313188	-0.045058	-0.309792
H61	H	1.340741	-0.073567	-0.521212
H62	H	1.210533	0.002569	-0.484119
H63	H	1.229566	-0.144000	-0.456481
H64	H	1.353641	0.032194	-0.307851
H65	H	1.372700	-0.114369	-0.280217
H66	H	1.458794	-0.024208	-0.593255
O67	O	1.562089	0.419882	-0.398447
C68	C	1.467970	0.514954	-0.449074
H69	H	1.420610	0.479736	-0.553789
H70	H	1.392586	0.535928	-0.358524
C71	C	1.589134	0.681302	-0.356633
C72	C	1.530973	0.638050	-0.485252
H73	H	1.627994	0.757236	-0.378943
H74	H	1.652542	0.617250	-0.322518
H75	H	1.526303	0.698771	-0.281186
H76	H	1.593806	0.620567	-0.560689
H77	H	1.467577	0.702102	-0.519380
O78	O	0.951386	-0.057429	-0.000502
C79	C	1.002331	-0.119736	-0.129693
H80	H	1.017169	-0.045538	-0.219379
H81	H	1.098055	-0.175348	-0.101781
C82	C	0.890407	-0.304037	-0.077215
C83	C	0.908621	-0.212905	-0.187373
H84	H	0.832607	-0.361513	-0.112792
H85	H	0.856088	-0.262062	0.009827
H86	H	0.970185	-0.350366	-0.053965
H87	H	0.828848	-0.166567	-0.210607
H88	H	0.942925	-0.254875	-0.274420
H89	H	0.915435	0.298129	-0.226032
H90	H	1.101636	0.078663	0.225592
H91	H	1.286821	-0.204813	-0.000192
H92	H	1.722157	0.234049	-0.593511
H93	H	1.294648	0.142870	-0.406683
O94	O	1.632302	-0.239332	0.245584
C95	C	1.549198	-0.153395	0.329414
H96	H	1.470953	-0.106639	0.253600
H97	H	1.503767	-0.207670	0.422523
C98	C	1.721590	-0.106789	0.490737
C99	C	1.625494	-0.049355	0.397619
H100	H	1.768652	-0.042616	0.532816
H101	H	1.777578	-0.164690	0.434264
H102	H	1.683716	-0.152017	0.568316
H103	H	1.663370	-0.004143	0.320033
H104	H	1.569514	0.008556	0.454081
H105	H	1.622351	-0.245728	-0.226043
H106	H	1.730200	-0.418057	-0.000243
