data_functionalizedCrystal
_audit_creation_method	'MofGen! by Chris Wilmer'
_symmetry_space_group_name_H-M	'P1'
_symmetry_Int_Tables_number	1
_symmetry_cell_setting	triclinic
loop_
_symmetry_equiv_pos_as_xyz
  x,y,z
_cell_length_a	19.805405
_cell_length_b	19.805407
_cell_length_c	19.805398
_cell_angle_alpha	90.017356
_cell_angle_beta	89.972363
_cell_angle_gamma	89.974605
loop_
_atom_site_label
_atom_site_type_symbol
_atom_site_fract_x
_atom_site_fract_y
_atom_site_fract_z
Zn1	Zn	-0.269508	-1.034711	-0.382738
Zn2	Zn	0.230492	-0.534711	0.117262
Zn3	Zn	-0.382693	-1.034633	-0.269547
Zn4	Zn	0.117307	-0.534633	0.230453
Zn5	Zn	-0.269522	-0.921533	-0.269560
Zn6	Zn	0.230478	-0.421533	0.230440
Zn7	Zn	-0.382659	-0.921489	-0.382691
Zn8	Zn	0.117341	-0.421489	0.117309
O9	O	-0.326096	-0.978091	-0.326134
O10	O	0.173904	-0.478091	0.173866
O11	O	-0.284531	-1.129417	-0.367738
O12	O	0.215469	-0.629417	0.132262
O13	O	-0.367701	-1.019616	-0.174832
O14	O	0.132299	-0.519616	0.325168
O15	O	-0.174803	-0.936597	-0.284599
O16	O	0.325197	-0.436597	0.215401
O17	O	-0.367688	-1.129360	-0.284576
O18	O	0.132312	-0.629360	0.215424
O19	O	-0.174793	-1.019748	-0.367751
O20	O	0.325207	-0.519748	0.132249
O21	O	-0.284554	-0.936522	-0.174842
O22	O	0.215446	-0.436522	0.325158
O23	O	-0.284521	-0.826810	-0.284553
O24	O	0.215479	-0.326810	0.215447
O25	O	-0.367629	-0.936522	-0.477414
O26	O	0.132371	-0.436522	0.022586
O27	O	-0.367642	-0.826778	-0.367669
O28	O	0.132358	-0.326778	0.132331
O29	O	-0.284498	-1.019706	-0.477449
O30	O	0.215502	-0.519706	0.022551
O31	O	-0.477405	-1.019573	-0.284530
O32	O	0.022595	-0.519573	0.215470
O33	O	-0.477380	-0.936447	-0.367656
O34	O	0.022620	-0.436447	0.132344
C35	C	-0.326079	-0.802235	-0.326108
C36	C	0.173921	-0.302235	0.173892
C37	C	-0.326089	-0.727003	-0.326112
C38	C	0.173911	-0.227003	0.173888
C39	C	-0.501952	-0.978015	-0.326101
C40	C	-0.001952	-0.478015	0.173899
C41	C	-0.577184	-0.978045	-0.326110
C42	C	-0.077184	-0.478045	0.173890
C43	C	-0.369435	-0.691660	-0.369320
C44	C	0.130565	-0.191660	0.130680
C45	C	-0.369435	-0.620972	-0.369328
C46	C	0.130565	-0.120972	0.130672
C47	C	-0.326092	-0.585628	-0.326124
C48	C	0.173908	-0.085628	0.173876
C49	C	-0.282741	-0.620976	-0.282914
C50	C	0.217259	-0.120976	0.217086
C51	C	-0.282738	-0.691663	-0.282910
C52	C	0.217262	-0.191663	0.217090
C53	C	-0.282751	-0.335903	-0.282929
C54	C	0.217249	0.164097	0.217071
C55	C	-0.282759	-0.265211	-0.282935
C56	C	0.217241	0.234789	0.217065
C57	C	-0.369447	-0.265211	-0.369346
C58	C	0.130553	0.234789	0.130654
C59	C	-0.369445	-0.335899	-0.369343
C60	C	0.130555	0.164101	0.130657
C61	C	-0.326092	-0.371241	-0.326136
C62	C	0.173908	0.128759	0.173864
C63	C	-0.326091	-0.447889	-0.326129
C64	C	0.173909	0.052111	0.173871
C65	C	-0.326095	-0.508981	-0.326127
C66	C	0.173905	-0.008981	0.173873
C67	C	-0.612518	-1.021371	-0.282871
C68	C	-0.112518	-0.521371	0.217129
C69	C	-0.683207	-1.021399	-0.282886
C70	C	-0.183207	-0.521399	0.217114
C71	C	-0.718559	-0.978098	-0.326137
C72	C	-0.218559	-0.478098	0.173863
C73	C	-0.683219	-0.934770	-0.369380
C74	C	-0.183219	-0.434770	0.130620
C75	C	-0.612532	-0.934746	-0.369368
C76	C	-0.112532	-0.434746	0.130632
C77	C	-0.968292	-0.934870	-0.369430
C78	C	-0.468292	-0.434870	0.130570
C79	C	-1.038985	-0.934897	-0.369438
C80	C	-0.538985	-0.434897	0.130562
C81	C	-1.038967	-1.021524	-0.282949
C82	C	-0.538967	-0.521524	0.217051
C83	C	-0.968280	-1.021499	-0.282936
C84	C	-0.468280	-0.521499	0.217064
C85	C	-0.932946	-0.978174	-0.326182
C86	C	-0.432946	-0.478174	0.173818
C87	C	-0.856298	-0.978144	-0.326166
C88	C	-0.356298	-0.478144	0.173834
C89	C	-0.795206	-0.978124	-0.326150
C90	C	-0.295206	-0.478124	0.173850
C91	C	-0.149553	-0.978186	-0.326182
C92	C	0.350447	-0.478186	0.173818
C93	C	-0.074321	-0.978227	-0.326202
C94	C	0.425679	-0.478227	0.173798
C95	C	-0.326058	-0.978118	-0.502677
C96	C	0.173942	-0.478118	-0.002677
C97	C	-0.326042	-0.978129	-0.577909
C98	C	0.173958	-0.478129	-0.077909
C99	C	-0.326108	-0.154634	-0.326154
C100	C	0.173892	0.345366	0.173846
C101	C	-0.326102	-0.229866	-0.326146
C102	C	0.173898	0.270134	0.173854
C103	C	-0.282636	-1.021525	-1.039719
C104	C	0.217364	-0.521525	-0.539719
C105	C	-0.282657	-1.021514	-0.969031
C106	C	0.217343	-0.521514	-0.469031
C107	C	-0.325948	-0.978199	-0.933671
C108	C	0.174052	-0.478199	-0.433671
C109	C	-0.369226	-0.934896	-0.969003
C110	C	0.130774	-0.434896	-0.469003
C111	C	-0.369208	-0.934911	-1.039690
C112	C	0.130792	-0.434911	-0.539690
C113	C	-0.369300	-0.934837	-0.683929
C114	C	0.130700	-0.434837	-0.183929
C115	C	-0.369313	-0.934825	-0.613237
C116	C	0.130687	-0.434825	-0.113237
C117	C	-0.282748	-1.021441	-0.613270
C118	C	0.217252	-0.521441	-0.113270
C119	C	-0.282730	-1.021455	-0.683958
C120	C	0.217270	-0.521455	-0.183958
C121	C	-0.326010	-0.978155	-0.719283
C122	C	0.173990	-0.478155	-0.219283
C123	C	-0.325988	-0.978168	-0.795932
C124	C	0.174012	-0.478168	-0.295932
C125	C	-0.325967	-0.978182	-0.857024
C126	C	0.174033	-0.478182	-0.357024
C127	C	-0.326084	-0.978104	-0.150278
C128	C	0.173916	-0.478104	0.349722
C129	C	-0.325909	-0.978224	-0.075046
C130	C	0.174091	-0.478224	0.424954
H131	H	-0.404732	-0.592199	-0.404511
H132	H	0.095268	-0.092199	0.095489
H133	H	-1.067745	-1.056804	-0.247739
H134	H	-0.567745	-0.556804	0.252261
O135	O	-0.240668	-0.370333	-0.241017
O136	O	0.259332	0.129667	0.258983
C137	C	-0.249966	-0.440302	-0.250262
C138	C	0.250034	0.059698	0.249738
H139	H	-0.272198	-0.449971	-0.302457
H140	H	0.227802	0.050029	0.197543
H141	H	-0.285957	-0.460333	-0.210049
H142	H	0.214043	0.039667	0.289951
C143	C	-0.154164	-0.464740	-0.180068
C144	C	0.345836	0.035260	0.319932
C145	C	-0.181465	-0.476616	-0.244177
C146	C	0.318535	0.023384	0.255823
H147	H	-0.111911	-0.487141	-0.176312
H148	H	0.388089	0.012859	0.323688
H149	H	-0.147901	-0.417601	-0.173837
H150	H	0.352099	0.082399	0.326163
H151	H	-0.184164	-0.481432	-0.146565
H152	H	0.315836	0.018568	0.353435
H153	H	-0.151470	-0.459916	-0.277679
H154	H	0.348530	0.040084	0.222321
H155	H	-0.187722	-0.523754	-0.250413
H156	H	0.312278	-0.023754	0.249587
O157	O	-1.073222	-0.892814	-0.411522
O158	O	-0.573222	-0.392814	0.088478
C159	C	-1.026879	-0.854558	-0.449679
C160	C	-0.526879	-0.354558	0.050321
H161	H	-0.976466	-0.882260	-0.452041
H162	H	-0.476466	-0.382260	0.047959
H163	H	-1.019418	-0.803163	-0.424848
H164	H	-0.519418	-0.303163	0.075152
C165	C	-1.116352	-0.810749	-0.518808
C166	C	-0.616352	-0.310749	-0.018808
C167	C	-1.054435	-0.844777	-0.521715
C168	C	-0.554435	-0.344777	-0.021715
H169	H	-1.133350	-0.804713	-0.563243
H170	H	-0.633350	-0.304713	-0.063243
H171	H	-1.147575	-0.836521	-0.493100
H172	H	-0.647575	-0.336521	0.006900
H173	H	-1.110126	-0.767924	-0.498113
H174	H	-0.610126	-0.267924	0.001887
H175	H	-1.060663	-0.887604	-0.542402
H176	H	-0.560663	-0.387604	-0.042402
H177	H	-1.023214	-0.819012	-0.547429
H178	H	-0.523214	-0.319012	-0.047429
H179	H	-0.247448	-0.592193	-0.247740
H180	H	0.252552	-0.092193	0.252260
H181	H	-0.404741	-0.364672	-0.404522
H182	H	0.095259	0.135328	0.095478
O183	O	-0.240562	-0.726027	-0.241032
O184	O	0.259438	-0.226027	0.258968
C185	C	-0.196906	-0.766958	-0.279644
C186	C	0.303094	-0.266958	0.220356
H187	H	-0.192798	-0.745677	-0.332961
H188	H	0.307202	-0.245677	0.167039
H189	H	-0.217832	-0.820524	-0.281933
H190	H	0.282168	-0.320524	0.218067
C191	C	-0.131543	-0.794195	-0.181219
C192	C	0.368457	-0.294195	0.318781
C193	C	-0.126494	-0.768055	-0.246703
C194	C	0.373506	-0.268055	0.253297
H195	H	-0.088111	-0.794875	-0.160899
H196	H	0.411889	-0.294875	0.339101
H197	H	-0.160957	-0.766621	-0.155205
H198	H	0.339043	-0.266621	0.344795
H199	H	-0.148985	-0.838831	-0.183136
H200	H	0.351015	-0.338831	0.316864
H201	H	-0.109060	-0.723417	-0.244785
H202	H	0.390940	-0.223417	0.255215
H203	H	-0.097076	-0.795622	-0.272716
H204	H	0.402924	-0.295622	0.227284
H205	H	-0.404565	-0.899548	-0.584449
H206	H	0.095435	-0.399548	-0.084449
O207	O	-0.411610	-0.726020	-0.411193
O208	O	0.088390	-0.226020	0.088807
C209	C	-0.455264	-0.766891	-0.372580
C210	C	0.044736	-0.266891	0.127420
H211	H	-0.459377	-0.745569	-0.319264
H212	H	0.040623	-0.245569	0.180736
H213	H	-0.434333	-0.820471	-0.370284
H214	H	0.065667	-0.320471	0.129716
C215	C	-0.520619	-0.794145	-0.471005
C216	C	-0.020619	-0.294145	0.028995
C217	C	-0.525675	-0.767955	-0.405523
C218	C	-0.025675	-0.267955	0.094477
H219	H	-0.564051	-0.794805	-0.491327
H220	H	-0.064051	-0.294805	0.008673
H221	H	-0.491208	-0.766612	-0.497020
H222	H	0.008792	-0.266612	0.002980
H223	H	-0.503174	-0.838793	-0.469083
H224	H	-0.003174	-0.338793	0.030917
H225	H	-0.543112	-0.723305	-0.407447
H226	H	-0.043112	-0.223305	0.092553
H227	H	-0.555091	-0.795480	-0.379509
H228	H	-0.055091	-0.295480	0.120491
H229	H	-0.247509	-1.056699	-0.584500
H230	H	0.252491	-0.556699	-0.084500
H231	H	-0.247421	-1.056776	-0.940271
H232	H	0.252579	-0.556776	-0.440271
O233	O	-0.578107	-1.063467	-0.240950
O234	O	-0.078107	-0.563467	0.259050
C235	C	-0.537170	-1.107155	-0.279520
C236	C	-0.037170	-0.607155	0.220480
H237	H	-0.526564	-1.083246	-0.330788
H238	H	-0.026564	-0.583246	0.169212
H239	H	-0.564369	-1.157319	-0.287011
H240	H	-0.064369	-0.657319	0.212989
C241	C	-0.483068	-1.148779	-0.179308
C242	C	0.016932	-0.648779	0.320692
C243	C	-0.470036	-1.119411	-0.242275
C244	C	0.029964	-0.619411	0.257725
H245	H	-0.441658	-1.156342	-0.156333
H246	H	0.058342	-0.656342	0.343667
H247	H	-0.510649	-1.119348	-0.153322
H248	H	-0.010649	-0.619348	0.346678
H249	H	-0.505735	-1.190579	-0.185560
H250	H	-0.005735	-0.690579	0.314440
H251	H	-0.447378	-1.077608	-0.236023
H252	H	0.052622	-0.577608	0.263977
H253	H	-0.442450	-1.148836	-0.268259
H254	H	0.057550	-0.648836	0.231741
H255	H	-0.404540	-0.899579	-0.712683
H256	H	0.095460	-0.399579	-0.212683
O257	O	-0.240750	-0.230850	-0.240887
O258	O	0.259250	0.269150	0.259113
C259	C	-0.279233	-0.189926	-0.197112
C260	C	0.220767	0.310074	0.302888
H261	H	-0.332534	-0.211210	-0.192838
H262	H	0.167466	0.288790	0.307162
H263	H	-0.281597	-0.136358	-0.218032
H264	H	0.218403	0.363642	0.281968
C265	C	-0.180610	-0.162693	-0.132056
C266	C	0.319390	0.337307	0.367944
C267	C	-0.246074	-0.188837	-0.126803
C268	C	0.253926	0.311163	0.373197
H269	H	-0.160156	-0.162019	-0.088687
H270	H	0.339844	0.337981	0.411313
H271	H	-0.154683	-0.190263	-0.161550
H272	H	0.345317	0.309737	0.338450
H273	H	-0.182590	-0.118055	-0.149492
H274	H	0.317410	0.381945	0.350508
H275	H	-0.244093	-0.233477	-0.109375
H276	H	0.255907	0.266523	0.390625
H277	H	-0.272001	-0.161275	-0.097304
H278	H	0.227999	0.338725	0.402696
H279	H	-0.711974	-1.056679	-0.247677
H280	H	-0.211974	-0.556679	0.252323
H281	H	-0.939499	-1.056757	-0.247716
H282	H	-0.439499	-0.556757	0.252284
O283	O	-0.240656	-1.063596	-0.718201
O284	O	0.259344	-0.563596	-0.218201
C285	C	-0.202453	-1.101802	-0.671862
C286	C	0.297547	-0.601802	-0.171862
H287	H	-0.230188	-1.104120	-0.621466
H288	H	0.269812	-0.604120	-0.121466
H289	H	-0.151046	-1.077044	-0.664355
H290	H	0.348954	-0.577044	-0.164355
C291	C	-0.158637	-1.171003	-0.761356
C292	C	0.341363	-0.671003	-0.261356
C293	C	-0.192704	-1.173855	-0.699461
C294	C	0.307296	-0.673855	-0.199461
H295	H	-0.152619	-1.215448	-0.778381
H296	H	0.347381	-0.715448	-0.278381
H297	H	-0.184372	-1.145262	-0.792577
H298	H	0.315628	-0.645262	-0.292577
H299	H	-0.115801	-1.150368	-0.755092
H300	H	0.384199	-0.650368	-0.255092
H301	H	-0.235541	-1.194482	-0.705728
H302	H	0.264459	-0.694482	-0.205728
H303	H	-0.166975	-1.199602	-0.668242
H304	H	0.333025	-0.699602	-0.168242
O305	O	-0.411354	-0.892808	-0.934761
O306	O	0.088646	-0.392808	-0.434761
C307	C	-0.449539	-0.854587	-0.981102
C308	C	0.050461	-0.354587	-0.481102
H309	H	-0.451860	-0.882315	-1.031495
H310	H	0.048140	-0.382315	-0.531495
H311	H	-0.424761	-0.803188	-0.988613
H312	H	0.075239	-0.303188	-0.488613
C313	C	-0.518738	-0.810755	-0.891609
C314	C	-0.018738	-0.310755	-0.391609
C315	C	-0.521593	-0.844814	-0.953501
C316	C	-0.021593	-0.344814	-0.453501
H317	H	-0.563184	-0.804723	-0.874583
H318	H	-0.063184	-0.304723	-0.374583
H319	H	-0.493011	-0.836503	-0.860387
H320	H	0.006989	-0.336503	-0.360387
H321	H	-0.498087	-0.767926	-0.897876
H322	H	0.001913	-0.267926	-0.397876
H323	H	-0.542236	-0.887645	-0.947231
H324	H	-0.042236	-0.387645	-0.447231
H325	H	-0.547326	-0.819073	-0.984721
H326	H	-0.047326	-0.319073	-0.484721
O327	O	-0.411316	-0.892944	-1.074039
O328	O	0.088684	-0.392944	-0.574039
C329	C	-0.455013	-0.931466	-1.114931
C330	C	0.044987	-0.431466	-0.614931
H331	H	-0.459202	-0.984768	-1.093632
H332	H	0.040798	-0.484768	-0.593632
H333	H	-0.434074	-0.933820	-1.168509
H334	H	0.065926	-0.433820	-0.668509
C335	C	-0.520230	-0.832898	-1.142157
C336	C	-0.020230	-0.332898	-0.642157
C337	C	-0.525379	-0.898363	-1.115994
C338	C	-0.025379	-0.398363	-0.615994
H339	H	-0.563634	-0.812478	-1.142816
H340	H	-0.063634	-0.312478	-0.642816
H341	H	-0.490789	-0.806944	-1.114609
H342	H	0.009211	-0.306944	-0.614609
H343	H	-0.502778	-0.834869	-1.186803
H344	H	-0.002778	-0.334869	-0.686803
H345	H	-0.542823	-0.896391	-1.071346
H346	H	-0.042823	-0.396391	-0.571346
H347	H	-0.554825	-0.924316	-1.143534
H348	H	-0.054825	-0.424316	-0.643534
H349	H	-0.404745	-0.236427	-0.404530
H350	H	0.095255	0.263573	0.095470
H351	H	-0.939529	-0.899592	-0.404641
H352	H	-0.439529	-0.399592	0.095359
H353	H	-0.712009	-0.899517	-0.404598
H354	H	-0.212009	-0.399517	0.095402
H355	H	-0.583763	-0.899466	-0.404578
H356	H	-0.083763	-0.399466	0.095422
H357	H	-0.247379	-1.056793	-1.068505
H358	H	0.252621	-0.556793	-0.568505
