data_functionalizedCrystal
_audit_creation_method	'MofGen! by Chris Wilmer'
_symmetry_space_group_name_H-M	'P1'
_symmetry_Int_Tables_number	1
_symmetry_cell_setting	triclinic
loop_
_symmetry_equiv_pos_as_xyz
  x,y,z
_cell_length_a	16.974897
_cell_length_b	14.519731
_cell_length_c	16.053802
_cell_angle_alpha	92.569546
_cell_angle_beta	83.774775
_cell_angle_gamma	83.544620
loop_
_atom_site_label
_atom_site_type_symbol
_atom_site_fract_x
_atom_site_fract_y
_atom_site_fract_z
O1	O	1.056057	0.109729	-0.140711
O2	O	1.556057	0.609729	0.359289
O3	O	0.825128	0.125558	-0.125126
O4	O	1.325128	0.625558	0.374874
O5	O	0.946706	-0.016635	-0.133324
O6	O	1.446706	0.483365	0.366676
O7	O	0.934479	0.251923	-0.132514
O8	O	1.434479	0.751923	0.367486
O9	O	0.940014	-0.008840	0.005987
O10	O	1.440014	0.491160	0.505987
O11	O	0.818436	0.133353	0.014184
O12	O	1.318436	0.633353	0.514184
O13	O	1.049365	0.117524	-0.001401
O14	O	1.549365	0.617524	0.498599
Zn15	Zn	0.932838	0.126676	0.028510
Zn16	Zn	1.432838	0.626676	0.528510
Zn17	Zn	0.941655	0.116406	-0.155037
Zn18	Zn	1.441655	0.616406	0.344963
O19	O	0.927786	0.259717	0.006797
O20	O	1.427786	0.759717	0.506797
C21	C	0.792227	0.128996	-0.053476
C22	C	1.292227	0.628996	0.446524
C23	C	0.704164	0.127615	-0.047533
C24	C	1.204164	0.627615	0.452467
C25	C	0.666432	0.122720	-0.120672
C26	C	1.166432	0.622720	0.379328
C27	C	0.583685	0.121438	-0.115076
C28	C	1.083685	0.621438	0.384924
C29	C	0.538672	0.125045	-0.036338
C30	C	1.038672	0.625045	0.463662
C31	C	0.576409	0.129943	0.036807
C32	C	1.076409	0.629943	0.536807
C33	C	0.659154	0.131232	0.031209
C34	C	1.159154	0.631232	0.531209
C35	C	0.290811	0.121653	-0.011454
C36	C	0.790811	0.621653	0.488546
C37	C	0.208061	0.120362	-0.005862
C38	C	0.708061	0.620362	0.494138
C39	C	0.215342	0.111859	-0.157745
C40	C	0.715342	0.611859	0.342255
C41	C	0.298088	0.113142	-0.163336
C42	C	0.798088	0.613142	0.336664
C43	C	0.335818	0.118045	-0.090191
C44	C	0.835818	0.618045	0.409809
N45	N	0.454092	0.123732	-0.030616
N46	N	0.954092	0.623732	0.469384
N47	N	0.420396	0.119365	-0.095914
N48	N	0.920396	0.619365	0.404086
C49	C	0.942787	-0.047093	-0.063630
C50	C	1.442787	0.452907	0.436370
C51	C	0.941070	-0.149462	-0.063513
C52	C	1.441070	0.350538	0.436487
C53	C	0.939675	-0.232596	-0.063421
C54	C	1.439675	0.267404	0.436579
C55	C	0.937932	-0.336893	-0.063310
C56	C	1.437932	0.163107	0.436690
C57	C	0.936549	-0.420023	-0.063222
C58	C	1.436549	0.079977	0.436778
C59	C	0.934806	-0.524327	-0.063109
C60	C	1.434806	-0.024327	0.436891
C61	C	1.082265	0.114086	-0.073053
C62	C	1.582265	0.614086	0.426947
C63	C	1.170329	0.115467	-0.079001
C64	C	1.670329	0.615467	0.420999
C65	C	0.931706	0.290175	-0.062899
C66	C	1.431706	0.790175	0.437101
C67	C	0.933423	0.392543	-0.063021
C68	C	1.433423	0.892543	0.436979
N69	N	0.926826	0.133684	0.153776
N70	N	1.426826	0.633684	0.653776
N71	N	0.947673	0.109391	-0.280303
N72	N	1.447673	0.609391	0.219697
C73	C	0.978577	0.073202	0.193980
C74	C	1.478577	0.573202	0.693980
C75	C	0.974379	0.078113	0.281670
C76	C	1.474379	0.578113	0.781670
C77	C	0.918434	0.143511	0.329153
C78	C	1.418434	0.643511	0.829153
C79	C	0.866678	0.203996	0.288943
C80	C	1.366678	0.703996	0.788943
C81	C	0.870872	0.199080	0.201255
C82	C	1.370872	0.699080	0.701255
C83	C	0.900111	0.164959	0.591798
C84	C	1.400111	0.664959	1.091798
C85	C	0.895922	0.169873	0.679492
C86	C	1.395922	0.669873	1.179492
C87	C	1.003623	0.043988	0.672213
C88	C	1.503623	0.543988	1.172213
C89	C	1.007815	0.039081	0.584524
C90	C	1.507815	0.539081	1.084524
C91	C	0.956057	0.099563	0.544321
C92	C	1.456057	0.599563	1.044321
N93	N	0.914143	0.148535	0.418786
N94	N	1.414143	0.648535	0.918786
N95	N	0.960344	0.094534	0.454690
N96	N	1.460344	0.594534	0.954690
H97	H	0.184613	0.107869	-0.217295
H98	H	0.684613	0.607869	0.282705
H99	H	0.828730	0.248330	0.168522
H100	H	1.328730	0.748330	0.668522
H101	H	1.024136	0.019952	0.155324
H102	H	1.524136	0.519952	0.655324
H103	H	0.703076	0.119781	-0.184789
H104	H	1.203076	0.619781	0.315211
H105	H	1.016518	0.028863	0.314404
H106	H	1.516518	0.528863	0.814404
O107	O	1.062182	-0.024532	0.538529
O108	O	1.562182	0.475468	1.038529
C109	C	1.106973	-0.076849	0.592818
C110	C	1.606973	0.423151	1.092818
H111	H	1.071461	-0.074248	0.657529
H112	H	1.571461	0.425752	1.157529
H113	H	1.165496	-0.046635	0.598145
H114	H	1.665496	0.453365	1.098145
C115	C	1.168432	-0.181517	0.478034
C116	C	1.668432	0.318483	0.978034
C117	C	1.124813	-0.178330	0.557511
C118	C	1.624813	0.321670	1.057511
H119	H	1.179441	-0.244115	0.456254
H120	H	1.679441	0.255885	0.956254
H121	H	1.138258	-0.146269	0.441457
H122	H	1.638258	0.353731	0.941457
H123	H	1.217196	-0.156334	0.482483
H124	H	1.717196	0.343666	0.982483
H125	H	1.076047	-0.203502	0.553059
H126	H	1.576047	0.296498	1.053059
H127	H	1.154980	-0.213585	0.594086
H128	H	1.654980	0.286415	1.094086
H129	H	0.689874	0.135221	0.090767
H130	H	1.189874	0.635221	0.590767
H131	H	1.045761	-0.005254	0.704954
H132	H	1.545761	0.494746	1.204954
H133	H	0.850362	0.223132	0.718150
H134	H	1.350362	0.723132	1.218150
O135	O	0.849803	0.223810	0.552885
O136	O	1.349803	0.723810	1.052885
C137	C	0.799516	0.282571	0.613602
C138	C	1.299516	0.782571	1.113602
H139	H	0.829054	0.286974	0.673903
H140	H	1.329054	0.786974	1.173903
H141	H	0.740102	0.253403	0.626931
H142	H	1.240102	0.753403	1.126931
C143	C	0.748666	0.374803	0.506401
C144	C	1.248666	0.874803	1.006401
C145	C	0.784948	0.380217	0.580462
C146	C	1.284948	0.880217	1.080462
H147	H	0.739676	0.435035	0.485958
H148	H	1.239676	0.935035	0.985958
H149	H	0.782542	0.335213	0.465494
H150	H	1.282542	0.835213	0.965494
H151	H	0.699158	0.350493	0.517519
H152	H	1.199158	0.850493	1.017519
H153	H	0.834459	0.404516	0.569341
H154	H	1.334459	0.904516	1.069341
H155	H	0.751079	0.419814	0.621366
H156	H	1.251079	0.919814	1.121366
H157	H	0.552967	0.117453	-0.174634
H158	H	1.052967	0.617453	0.325366
H159	H	0.334733	0.110199	-0.227452
H160	H	0.834733	0.610199	0.272548
O161	O	0.812223	0.267428	0.335038
O162	O	1.312223	0.767428	0.835038
C163	C	0.734705	0.251583	0.318919
C164	C	1.234705	0.751583	0.818919
H165	H	0.735367	0.176398	0.294858
H166	H	1.235367	0.676398	0.794858
H167	H	0.713912	0.299947	0.269586
H168	H	1.213912	0.799947	0.769586
C169	C	0.676412	0.362850	0.430008
C170	C	1.176412	0.862850	0.930008
C171	C	0.677223	0.270504	0.400462
C172	C	1.177223	0.770504	0.900462
H173	H	0.640953	0.374525	0.480305
H174	H	1.140953	0.874525	0.980305
H175	H	0.728636	0.373528	0.440866
H176	H	1.228636	0.873528	0.940866
H177	H	0.659086	0.403142	0.388890
H178	H	1.159086	0.903142	0.888890
H179	H	0.694558	0.230214	0.441575
H180	H	1.194558	0.730214	0.941575
H181	H	0.625000	0.259819	0.389613
H182	H	1.125000	0.759819	0.889613
H183	H	0.171410	0.123325	0.058259
H184	H	0.671410	0.623325	0.558259
O185	O	0.327333	0.126372	0.059679
O186	O	0.827333	0.626372	0.559679
C187	C	0.269855	0.129298	0.130371
C188	C	0.769855	0.629298	0.630371
H189	H	0.215180	0.097936	0.111877
H190	H	0.715180	0.597936	0.611877
H191	H	0.251726	0.204447	0.154864
H192	H	0.751726	0.704447	0.654864
C193	C	0.372570	0.111866	0.222203
C194	C	0.872570	0.611866	0.722203
C195	C	0.305420	0.073339	0.199489
C196	C	0.805420	0.573339	0.699489
H197	H	0.394508	0.077352	0.264840
H198	H	0.894508	0.577352	0.764840
H199	H	0.411294	0.109898	0.174577
H200	H	0.911294	0.609898	0.674577
H201	H	0.357452	0.174489	0.242608
H202	H	0.857452	0.674489	0.742608
H203	H	0.320540	0.010721	0.179075
H204	H	0.820540	0.510721	0.679075
H205	H	0.266698	0.075295	0.247114
H206	H	0.766698	0.575295	0.747114
O207	O	0.532801	0.133492	0.113360
O208	O	1.032801	0.633492	0.613360
C209	C	0.583854	0.138066	0.176714
C210	C	1.083854	0.638066	0.676714
H211	H	0.640663	0.166937	0.150679
H212	H	1.140663	0.666937	0.650679
H213	H	0.599745	0.065529	0.198917
H214	H	1.099745	0.565529	0.698917
C215	C	0.471639	0.166588	0.283073
C216	C	0.971639	0.666588	0.783073
C217	C	0.541411	0.202055	0.251098
C218	C	1.041411	0.702055	0.751098
H219	H	0.445459	0.206055	0.328959
H220	H	0.945459	0.706055	0.828959
H221	H	0.437244	0.163503	0.240391
H222	H	0.937244	0.663503	0.740391
H223	H	0.484892	0.106141	0.301569
H224	H	0.984892	0.606141	0.801569
H225	H	0.528157	0.262495	0.232593
H226	H	1.028157	0.762495	0.732593
H227	H	0.575804	0.205151	0.293779
H228	H	1.075804	0.705151	0.793779
