data_functionalizedCrystal
_audit_creation_method	'MofGen! by Chris Wilmer'
_symmetry_space_group_name_H-M	'P1'
_symmetry_Int_Tables_number	1
_symmetry_cell_setting	triclinic
loop_
_symmetry_equiv_pos_as_xyz
  x,y,z
_cell_length_a	14.908783
_cell_length_b	15.298852
_cell_length_c	14.908308
_cell_angle_alpha	95.878360
_cell_angle_beta	90.211273
_cell_angle_gamma	83.034221
loop_
_atom_site_label
_atom_site_type_symbol
_atom_site_fract_x
_atom_site_fract_y
_atom_site_fract_z
Zn1	Zn	1.401796	-0.309373	0.537603
Zn2	Zn	1.435742	-0.448308	0.364687
Zn3	Zn	1.259934	-0.308415	0.378730
Zn4	Zn	1.279859	-0.465246	0.503559
O5	O	1.344333	-0.382836	0.446145
O6	O	1.530906	-0.321115	0.523036
O7	O	1.418288	-0.422262	0.241942
O8	O	1.256208	-0.184763	0.419929
O9	O	1.555845	-0.423190	0.395995
O10	O	1.360433	-0.185466	0.536653
O11	O	1.289123	-0.319483	0.252260
O12	O	1.137971	-0.335907	0.386918
O13	O	1.290167	-0.452058	0.632682
O14	O	1.152610	-0.451130	0.478629
O15	O	1.379753	-0.337538	0.657694
O16	O	1.437609	-0.574335	0.362984
O17	O	1.323083	-0.586778	0.465013
C18	C	1.112981	-0.395253	0.430604
C19	C	1.014011	-0.400588	0.423973
C20	C	0.802083	-0.304487	0.543949
C21	C	0.709091	-0.309497	0.537722
C22	C	0.735032	-0.415612	0.405289
C23	C	0.828024	-0.410602	0.411516
C24	C	0.861546	-0.355039	0.480849
C25	C	0.954541	-0.350034	0.487079
C26	C	0.980479	-0.456144	0.354643
C27	C	0.887487	-0.461154	0.348416
C28	C	1.386215	-0.612651	0.408801
C29	C	1.404212	-0.710964	0.392861
C30	C	1.216283	-1.014131	0.560198
C31	C	1.199375	-0.921761	0.575181
C32	C	1.250583	-0.869057	0.529602
C33	C	1.318701	-0.908733	0.469038
C34	C	1.335615	-1.001112	0.454058
C35	C	1.369915	-0.856038	0.423463
C36	C	1.438033	-0.895714	0.362898
C37	C	1.454943	-0.988084	0.347921
C38	C	1.403736	-1.040787	0.393500
C39	C	1.353001	-0.763659	0.438442
C40	C	1.472333	-0.750640	0.332302
C41	C	1.489240	-0.843010	0.317319
C42	C	1.576588	-0.370370	0.461747
C43	C	1.675561	-0.365058	0.468396
C44	C	1.333396	-0.396794	0.678401
C45	C	1.328735	-0.402743	0.777375
C46	C	1.302311	-0.152123	0.483655
C47	C	1.284404	-0.053807	0.499640
C48	C	1.355267	-0.368865	0.214806
C49	C	1.360054	-0.362658	0.115884
C50	C	1.413257	-0.294651	0.989407
C51	C	1.408880	-0.300237	1.082403
C52	C	1.315600	-0.419495	1.056363
C53	C	1.319977	-0.413910	0.963368
C54	C	1.368808	-0.351486	0.929894
C55	C	1.373190	-0.345905	0.836896
C56	C	1.279905	-0.465159	0.810859
C57	C	1.275528	-0.470745	0.903854
H58	H	1.297539	-0.731364	0.487754
H59	H	1.236812	-0.793846	0.541805
C60	C	1.159964	-1.072104	0.610326
H61	H	1.179791	-1.132800	0.592726
H62	H	1.167349	-1.059832	0.673498
H63	H	1.097997	-1.059455	0.595667
H64	H	0.660678	-0.268330	0.589103
C65	C	0.838962	-0.243377	0.620214
H66	H	0.790228	-0.213985	0.656902
H67	H	0.879604	-0.277648	0.655875
H68	H	0.869793	-0.200783	0.594910
C69	C	1.261881	-0.488145	1.093198
H70	H	1.265643	-0.483329	1.157106
H71	H	1.200414	-0.477496	1.076040
H72	H	1.286459	-0.545968	1.069181
H73	H	1.143915	-0.889461	0.624493
H74	H	0.707720	-0.460838	0.348834
H75	H	0.860179	-0.506389	0.291965
C76	C	1.045890	-0.511754	0.285230
H77	H	1.106075	-0.500812	0.298864
H78	H	1.040879	-0.572802	0.287488
H79	H	1.031078	-0.495943	0.226515
C80	C	1.426894	-0.277237	0.800075
H81	H	1.452730	-0.244182	0.848842
H82	H	1.473566	-0.306801	0.760901
H83	H	1.387506	-0.238348	0.767778
C84	C	1.221821	-0.539407	0.940682
H85	H	1.225585	-0.534599	1.004590
H86	H	1.160353	-0.528768	0.923526
H87	H	1.246411	-0.597225	0.916657
H88	H	1.417493	-1.116003	0.381298
C89	C	0.991415	-0.288916	0.563339
H90	H	0.942678	-0.259520	0.600021
H91	H	1.032056	-0.323179	0.599009
H92	H	1.022246	-0.246326	0.538030
C93	C	1.529874	-1.031725	0.281307
H94	H	1.557945	-0.987110	0.256300
H95	H	1.573629	-1.067680	0.312167
H96	H	1.504269	-1.067298	0.234342
C97	C	1.564170	-0.886655	0.250705
H98	H	1.592244	-0.842043	0.225697
H99	H	1.607922	-0.922613	0.281565
H100	H	1.538561	-0.922227	0.203742
C101	C	1.528650	-0.692676	0.282147
H102	H	1.508811	-0.631979	0.299730
H103	H	1.590617	-0.705318	0.296787
H104	H	1.521244	-0.704957	0.218974
C105	C	1.466966	-0.225989	0.952582
H106	H	1.492809	-0.192936	1.001347
H107	H	1.513633	-0.255559	0.913406
H108	H	1.427580	-0.187097	0.920286
H109	H	1.445073	-0.253953	1.130857
C110	C	1.231008	-0.527680	0.745392
H111	H	1.240603	-0.515412	0.685212
H112	H	1.254149	-0.587325	0.751850
H113	H	1.168099	-0.518859	0.758717
