data_functionalizedCrystal
_audit_creation_method	'MofGen! by Chris Wilmer'
_symmetry_space_group_name_H-M	'P1'
_symmetry_Int_Tables_number	1
_symmetry_cell_setting	triclinic
loop_
_symmetry_equiv_pos_as_xyz
  x,y,z
_cell_length_a	15.944499
_cell_length_b	16.109301
_cell_length_c	14.586319
_cell_angle_alpha	90.000787
_cell_angle_beta	89.999455
_cell_angle_gamma	96.530455
loop_
_atom_site_label
_atom_site_type_symbol
_atom_site_fract_x
_atom_site_fract_y
_atom_site_fract_z
O1	O	0.107969	-1.103146	-0.076176
O2	O	0.121405	-0.861086	-0.076189
O3	O	-0.007593	-0.988748	-0.076184
O4	O	0.236967	-0.975483	-0.076181
O5	O	-0.007595	-0.988740	0.076297
O6	O	0.121404	-0.861077	0.076291
O7	O	0.107967	-1.103137	0.076305
Cu8	Cu	0.114685	-0.982106	0.090221
Cu9	Cu	0.114687	-0.982117	-0.090105
O10	O	0.236965	-0.975475	0.076299
C11	C	0.120860	-0.830106	0.000049
C12	C	0.119228	-0.737811	0.000044
C13	C	-0.038888	-0.988201	0.000054
C14	C	-0.132136	-0.986573	0.000047
N15	N	0.114683	-0.982105	0.217053
C16	C	-0.423697	-1.060741	0.000057
C17	C	-0.362660	-1.022182	0.075239
C18	C	-0.467771	-0.980657	0.000058
C19	C	-0.362664	-1.022169	-0.075095
C20	C	-0.302863	-0.983568	0.000051
C21	C	-0.407962	-0.942076	0.075302
C22	C	-0.407972	-0.942075	-0.075100
C23	C	-0.346953	-0.903457	0.000101
C24	C	-0.562770	-0.978983	0.000062
C25	C	-0.207864	-0.985236	0.000053
C26	C	0.268261	-0.976022	0.000059
C27	C	0.361509	-0.977650	0.000060
C28	C	0.108512	-1.134116	0.000065
C29	C	0.110144	-1.226412	0.000064
C30	C	0.191979	-0.515549	0.000055
C31	C	0.190439	-0.428828	0.000061
C32	C	0.037387	-0.448681	0.000056
C33	C	0.038928	-0.535400	0.000056
C34	C	0.116226	-0.568831	0.000051
C35	C	0.113146	-0.395392	0.000056
C36	C	0.111476	-0.301365	0.000063
C37	C	0.117897	-0.662863	0.000047
N38	N	0.114683	-0.982125	-0.216937
C39	C	0.057582	-1.038653	0.452062
C40	C	0.057580	-1.038655	0.548043
C41	C	0.171787	-0.925571	0.548047
C42	C	0.171784	-0.925565	0.452068
C43	C	0.114683	-0.982111	0.404077
C44	C	0.114683	-0.982119	0.596038
C45	C	0.114681	-0.982121	0.700105
C46	C	0.114683	-0.982108	0.300004
H47	H	-0.457048	-1.127203	0.000132
H48	H	0.218283	-0.879518	0.412996
H49	H	-0.342594	-1.056060	-0.138650
C50	C	-0.406878	-1.095233	0.213576
C51	C	-0.335546	-1.067905	0.161042
H52	H	-0.390141	-1.123469	0.266541
H53	H	-0.434295	-1.048501	0.231646
H54	H	-0.444570	-1.132277	0.178170
H55	H	-0.297857	-1.030856	0.196446
H56	H	-0.308117	-1.114644	0.142974
C57	C	-0.522597	-0.895275	0.160443
C58	C	-0.434914	-0.896382	0.161199
H59	H	-0.539236	-0.867071	0.213474
H60	H	-0.538460	-0.867024	0.107123
H61	H	-0.549559	-0.950982	0.160232
H62	H	-0.407952	-0.840675	0.161403
H63	H	-0.419043	-0.924631	0.214533
C64	C	-0.087829	-1.087463	0.422565
C65	C	-0.005210	-1.100798	0.399332
H66	H	-0.126601	-1.125826	0.390016
H67	H	-0.095973	-1.095546	0.486591
H68	H	-0.096948	-1.031975	0.406827
H69	H	0.003911	-1.156284	0.415076
H70	H	0.002937	-1.092721	0.335292
H71	H	0.254921	-0.542765	0.000058
H72	H	-0.428073	-0.908233	-0.138666
C73	C	-0.324966	-0.771938	0.078933
C74	C	-0.302117	-0.813664	0.000153
H75	H	-0.297279	-0.716507	0.078969
H76	H	-0.384338	-0.770404	0.079429
H77	H	-0.308761	-0.800601	0.131828
H78	H	-0.318327	-0.785004	-0.052743
H79	H	-0.242731	-0.815193	-0.000352
H80	H	0.252125	-0.385448	0.000066
C81	C	-0.056737	-1.056723	0.655972
C82	C	-0.005187	-1.100809	0.600786
H83	H	-0.095492	-1.095097	0.688528
H84	H	-0.022732	-1.023061	0.698289
H85	H	-0.086960	-1.022124	0.618521
H86	H	0.025040	-1.135404	0.638238
H87	H	-0.039197	-1.134486	0.558465
C88	C	-0.053131	-0.362681	-0.078340
C89	C	-0.047577	-0.411930	0.000049
H90	H	-0.105588	-0.339999	-0.078348
H91	H	-0.008241	-0.318540	-0.078332
H92	H	-0.049344	-0.396110	-0.131505
H93	H	-0.051357	-0.378500	0.053214
H94	H	-0.092479	-0.456078	0.000048
C95	C	-0.112519	-0.546321	0.000040
C96	C	-0.044346	-0.593976	0.000048
H97	H	-0.163925	-0.582485	0.000032
H98	H	-0.109942	-0.512086	0.053210
H99	H	-0.109929	-0.512083	-0.053137
H100	H	-0.046932	-0.628209	0.053230
H101	H	-0.046924	-0.628225	-0.053127
C102	C	0.222509	-0.875374	0.695180
C103	C	0.234559	-0.863426	0.600802
H104	H	0.261268	-0.837012	0.727745
H105	H	0.166454	-0.866350	0.710910
H106	H	0.231647	-0.930862	0.710892
H107	H	0.225415	-0.807940	0.585089
H108	H	0.290627	-0.872444	0.585065
