data_functionalizedCrystal
_audit_creation_method	'MofGen! by Chris Wilmer'
_symmetry_space_group_name_H-M	'P1'
_symmetry_Int_Tables_number	1
_symmetry_cell_setting	triclinic
loop_
_symmetry_equiv_pos_as_xyz
  x,y,z
_cell_length_a	14.044220
_cell_length_b	19.188930
_cell_length_c	13.101039
_cell_angle_alpha	93.345801
_cell_angle_beta	86.340132
_cell_angle_gamma	88.166830
loop_
_atom_site_label
_atom_site_type_symbol
_atom_site_fract_x
_atom_site_fract_y
_atom_site_fract_z
O1	O	1.262233	0.164759	-0.085127
O2	O	1.762233	0.664759	0.414873
O3	O	0.986290	0.158685	-0.085152
O4	O	1.486290	0.658685	0.414848
O5	O	1.132223	0.060581	-0.085119
O6	O	1.632223	0.560581	0.414881
O7	O	1.116300	0.262863	-0.085160
O8	O	1.616300	0.762863	0.414840
O9	O	1.121753	0.067633	0.085309
O10	O	1.621753	0.567633	0.585309
O11	O	0.975820	0.165737	0.085275
O12	O	1.475820	0.665737	0.585275
O13	O	1.251762	0.171810	0.085300
O14	O	1.751762	0.671810	0.585300
Zn15	Zn	1.112128	0.169893	0.112347
Zn16	Zn	1.612128	0.669893	0.612347
Zn17	Zn	1.125924	0.160602	-0.112199
Zn18	Zn	1.625924	0.660602	0.387801
O19	O	1.105829	0.269914	0.085267
O20	O	1.605829	0.769914	0.585267
C21	C	0.945752	0.159553	0.000059
C22	C	1.445752	0.659553	0.500059
C23	C	0.840559	0.151623	0.000050
C24	C	1.340559	0.651623	0.500050
C25	C	0.647957	0.137129	0.000073
C26	C	1.147957	0.637129	0.500073
C27	C	0.590091	0.193363	0.000066
C28	C	1.090091	0.693363	0.500066
C29	C	0.482920	0.185298	0.000079
C30	C	0.982920	0.685298	0.500079
C31	C	0.755137	0.145193	0.000060
C32	C	1.255137	0.645193	0.500060
C33	C	1.126472	0.038063	0.000098
C34	C	1.626472	0.538063	0.500098
C35	C	1.124923	-0.039541	0.000106
C36	C	1.624923	0.460459	0.500106
C37	C	1.210553	-0.078939	0.000119
C38	C	1.710553	0.421061	0.500119
C39	C	1.209099	-0.151857	0.000103
C40	C	1.709099	0.348143	0.500103
C41	C	1.122010	-0.185374	0.000094
C42	C	1.622010	0.314626	0.500094
C43	C	1.036370	-0.145968	0.000075
C44	C	1.536370	0.354032	0.500075
C45	C	1.037827	-0.073051	0.000082
C46	C	1.537827	0.426949	0.500082
N47	N	1.051878	-0.295275	0.058088
N48	N	1.551878	0.204725	0.558088
N49	N	1.050500	-0.364543	0.058084
N50	N	1.550500	0.135457	0.558084
C51	C	1.117617	-0.405067	0.000073
C52	C	1.617617	0.094933	0.500073
N53	N	1.186177	-0.373707	-0.057921
N54	N	1.686177	0.126293	0.442079
N55	N	1.187558	-0.304433	-0.057913
N56	N	1.687558	0.195567	0.442087
C57	C	1.120421	-0.264440	0.000086
C58	C	1.620421	0.235560	0.500086
C59	C	1.201676	-0.523532	0.000066
C60	C	1.701676	-0.023532	0.500066
C61	C	1.200219	-0.596452	0.000043
C62	C	1.700219	-0.096452	0.500043
C63	C	1.027487	-0.590560	0.000026
C64	C	1.527487	-0.090560	0.500026
C65	C	1.028947	-0.517642	0.000039
C66	C	1.528947	-0.017642	0.500039
C67	C	1.116043	-0.484132	0.000064
C68	C	1.616043	0.015868	0.500064
C69	C	1.292301	0.170943	0.000087
C70	C	1.792301	0.670943	0.500087
C71	C	1.397494	0.178872	0.000089
C72	C	1.897494	0.678872	0.500089
C73	C	1.111580	0.292433	0.000048
C74	C	1.611580	0.792433	0.500048
C75	C	1.113129	0.370037	0.000033
C76	C	1.613129	0.870037	0.500033
N77	N	1.102720	0.176234	0.265593
N78	N	1.602720	0.676234	0.765593
N79	N	1.135340	0.154257	-0.265445
N80	N	1.635340	0.654257	0.234555
C81	C	1.089920	0.184867	0.474633
C82	C	1.589920	0.684867	0.974633
C83	C	1.148137	0.145626	0.525522
C84	C	1.648137	0.645626	1.025522
C85	C	1.141014	0.150429	0.641839
C86	C	1.641014	0.650429	1.141839
C87	C	1.097041	0.180064	0.358306
C88	C	1.597041	0.680064	0.858306
H89	H	0.617011	0.082932	0.000090
H90	H	1.117011	0.582932	0.500090
N91	N	0.628902	0.261361	0.000060
N92	N	1.128902	0.761361	0.500060
N93	N	0.677114	0.282466	0.071890
N94	N	1.177114	0.782466	0.571890
H95	H	0.704528	0.330488	0.071885
H96	H	1.204528	0.830488	0.571885
H97	H	1.034735	0.222068	0.518417
H98	H	1.534735	0.722068	1.018417
H99	H	1.278831	-0.183941	0.000109
H100	H	1.778831	0.316059	0.500109
N101	N	1.299525	-0.044722	0.000141
N102	N	1.799525	0.455278	0.500141
N103	N	1.375975	-0.079913	0.000150
N104	N	1.875975	0.420087	0.500150
H105	H	1.438814	-0.055747	0.000164
H106	H	1.938814	0.444253	0.500164
H107	H	1.203327	0.108423	0.481732
H108	H	1.703327	0.608423	0.981732
N109	N	0.947419	-0.180213	0.000080
N110	N	1.447419	0.319787	0.500080
N111	N	0.922928	-0.217280	0.071918
N112	N	1.422928	0.282720	0.571918
H113	H	0.860104	-0.241467	0.071919
H114	H	1.360104	0.258533	0.571919
N115	N	0.950356	-0.032804	0.000053
N116	N	1.450356	0.467196	0.500053
N117	N	0.896785	-0.041934	-0.071798
N118	N	1.396785	0.458066	0.428202
H119	H	0.835007	-0.013508	-0.071819
H120	H	1.335007	0.486492	0.428181
N121	N	1.290646	-0.489308	0.000094
N122	N	1.790646	0.010692	0.500094
N123	N	1.367098	-0.524497	0.000099
N124	N	1.867098	-0.024497	0.500099
H125	H	1.429935	-0.500329	0.000120
H126	H	1.929935	-0.000329	0.500120
N127	N	1.287702	-0.636688	0.000042
N128	N	1.787702	-0.136688	0.500042
N129	N	1.365454	-0.606756	0.000060
N130	N	1.865454	-0.106756	0.500060
H131	H	1.427242	-0.635173	0.000058
H132	H	1.927242	-0.135173	0.500058
N133	N	0.938535	-0.624799	0.000006
N134	N	1.438535	-0.124799	0.500006
N135	N	0.937245	-0.689903	-0.000006
N136	N	1.437245	-0.189903	0.499994
H137	H	0.874421	-0.714088	-0.000024
H138	H	1.374421	-0.214088	0.499976
N139	N	0.941468	-0.477404	0.000030
N140	N	1.441468	0.022596	0.500030
N141	N	0.863715	-0.507336	0.000018
N142	N	1.363715	-0.007336	0.500018
H143	H	0.801929	-0.478919	0.000008
H144	H	1.301929	0.021081	0.500008
