data_functionalizedCrystal
_audit_creation_method	'MofGen! by Chris Wilmer'
_symmetry_space_group_name_H-M	'P1'
_symmetry_Int_Tables_number	1
_symmetry_cell_setting	triclinic
loop_
_symmetry_equiv_pos_as_xyz
  x,y,z
_cell_length_a	18.215407
_cell_length_b	18.215399
_cell_length_c	12.759399
_cell_angle_alpha	89.972629
_cell_angle_beta	90.009629
_cell_angle_gamma	89.985195
loop_
_atom_site_label
_atom_site_type_symbol
_atom_site_fract_x
_atom_site_fract_y
_atom_site_fract_z
Zn1	Zn	1.125100	-0.416091	-0.418406
Zn2	Zn	1.125036	-0.293032	-0.594111
Zn3	Zn	1.002039	-0.293043	-0.418430
Zn4	Zn	1.002019	-0.416061	-0.594027
O5	O	1.063549	-0.354557	-0.506243
O6	O	1.228076	-0.399775	-0.441739
O7	O	1.108701	-0.190049	-0.570851
O8	O	1.018398	-0.309383	-0.271405
O9	O	1.228029	-0.309364	-0.570828
O10	O	1.108811	-0.399786	-0.271388
O11	O	1.018336	-0.190057	-0.441779
O12	O	0.899052	-0.309354	-0.441698
O13	O	1.018365	-0.519049	-0.570685
O14	O	0.899038	-0.399734	-0.570708
O15	O	1.108792	-0.519072	-0.441657
O16	O	1.108682	-0.309334	-0.741121
O17	O	1.018303	-0.399723	-0.741059
C18	C	0.872342	-0.354542	-0.506197
C19	C	0.790543	-0.354554	-0.506202
C20	C	0.525505	-0.401709	-0.439156
C21	C	0.602364	-0.401707	-0.439139
C22	C	0.602334	-0.307420	-0.573365
C23	C	0.525476	-0.307427	-0.573386
C24	C	0.487064	-0.354570	-0.506276
C25	C	0.640780	-0.354561	-0.506237
C26	C	0.724114	-0.354559	-0.506219
C27	C	0.403725	-0.354574	-0.506295
C28	C	1.063583	-0.546510	-0.506159
C29	C	1.063598	-0.628309	-0.506123
C30	C	1.016585	-0.816508	-0.438870
C31	C	1.016598	-0.893367	-0.438849
C32	C	1.110700	-0.893347	-0.573251
C33	C	1.110683	-0.816490	-0.573277
C34	C	1.063626	-0.778072	-0.506081
C35	C	1.063656	-0.931788	-0.506034
C36	C	1.063670	-1.015122	-0.506011
C37	C	1.063611	-0.694733	-0.506104
C38	C	1.255502	-0.354572	-0.506290
C39	C	1.337300	-0.354578	-0.506310
C40	C	1.063504	-0.354540	-0.779211
C41	C	1.063552	-0.354557	-0.895987
C42	C	1.063556	-0.163351	-0.506251
C43	C	1.063684	-0.081552	-0.505991
C44	C	1.110666	-0.307545	-0.950846
C45	C	1.110713	-0.307570	-1.060570
C46	C	1.016525	-0.401621	-1.060566
C47	C	1.016482	-0.401599	-0.950844
C48	C	1.063614	-0.354590	-0.232210
C49	C	1.063642	-0.354604	-0.115433
H50	H	0.633659	-0.440093	-0.384484
H51	H	0.978291	-0.924658	-0.384121
H52	H	1.148991	-0.785195	-0.628012
H53	H	0.978268	-0.785231	-0.384155
O54	O	0.965651	-0.452301	-0.891674
H55	H	0.978235	-0.510076	-0.912661
H56	H	0.633618	-0.269037	-0.628002
O57	O	0.484006	-0.256577	-0.645775
H58	H	0.523627	-0.223785	-0.692424
O59	O	1.161459	-0.934782	-0.645716
H60	H	1.153575	-0.994684	-0.634400
O61	O	1.161439	-0.256819	-0.891674
H62	H	1.194214	-0.224139	-0.948259
H63	H	0.978202	-0.439920	-1.105244
O64	O	0.484070	-0.452559	-0.366785
H65	H	0.523717	-0.485342	-0.320118
O66	O	1.161525	-0.256861	-1.119744
H67	H	1.194241	-0.224144	-1.063161
