data_functionalizedCrystal
_audit_creation_method	'MofGen! by Chris Wilmer'
_symmetry_space_group_name_H-M	'P1'
_symmetry_Int_Tables_number	1
_symmetry_cell_setting	triclinic
loop_
_symmetry_equiv_pos_as_xyz
  x,y,z
_cell_length_a	12.645331
_cell_length_b	12.645330
_cell_length_c	17.077396
_cell_angle_alpha	89.974314
_cell_angle_beta	89.982322
_cell_angle_gamma	90.012599
loop_
_atom_site_label
_atom_site_type_symbol
_atom_site_fract_x
_atom_site_fract_y
_atom_site_fract_z
Zn1	Zn	1.620717	-0.422025	-0.443872
Zn2	Zn	2.120717	0.077975	0.056128
Zn3	Zn	1.620631	-0.599313	-0.312614
Zn4	Zn	2.120631	-0.099313	0.187386
Zn5	Zn	1.443447	-0.422064	-0.312619
Zn6	Zn	1.943447	0.077936	0.187381
Zn7	Zn	1.443429	-0.599247	-0.443837
Zn8	Zn	1.943429	-0.099247	0.056163
O9	O	1.532056	-0.510662	-0.378235
O10	O	2.032056	-0.010662	0.121765
O11	O	1.769052	-0.445553	-0.426473
O12	O	2.269052	0.054447	0.073527
O13	O	1.597098	-0.575844	-0.202768
O14	O	2.097098	-0.075844	0.297232
O15	O	1.467006	-0.273712	-0.330046
O16	O	1.967006	0.226288	0.169954
O17	O	1.768989	-0.575806	-0.330038
O18	O	2.268989	-0.075806	0.169962
O19	O	1.597245	-0.273683	-0.426477
O20	O	2.097245	0.226317	0.073523
O21	O	1.466922	-0.445621	-0.202771
O22	O	1.966922	0.054379	0.297229
O23	O	1.295097	-0.445557	-0.330012
O24	O	1.795097	0.054443	0.169988
O25	O	1.466975	-0.575694	-0.553688
O26	O	1.966975	-0.075694	-0.053688
O27	O	1.295084	-0.575733	-0.426417
O28	O	1.795084	-0.075733	0.073583
O29	O	1.597228	-0.445489	-0.553714
O30	O	2.097228	0.054511	-0.053714
O31	O	1.597081	-0.747651	-0.330004
O32	O	2.097081	-0.247651	0.169996
O33	O	1.466892	-0.747603	-0.426413
O34	O	1.966892	-0.247603	0.073587
C35	C	1.256626	-0.510643	-0.378212
C36	C	1.756626	-0.010643	0.121788
C37	C	1.138796	-0.510660	-0.378221
C38	C	1.638796	-0.010660	0.121779
C39	C	1.532004	-0.786092	-0.378221
C40	C	2.032004	-0.286092	0.121779
C41	C	1.532079	-0.903922	-0.378242
C42	C	2.032079	-0.403922	0.121758
C43	C	1.093887	-0.428639	-0.317671
C44	C	1.593887	0.071361	0.182329
C45	C	0.971327	-0.428336	-0.317878
C46	C	1.471327	0.071664	0.182122
C47	C	0.970954	-0.480868	-0.461085
C48	C	1.470954	0.019132	0.038915
C49	C	1.093552	-0.480255	-0.460707
C50	C	1.593552	0.019745	0.039293
C51	C	1.093594	-0.622718	-0.356688
C52	C	1.593594	-0.122718	0.143312
C53	C	0.970986	-0.622133	-0.354891
C54	C	1.470986	-0.122133	0.145109
C55	C	1.614074	-0.948789	-0.317643
C56	C	2.114074	-0.448789	0.182357
C57	C	1.613886	-1.071350	-0.317427
C58	C	2.113886	-0.571350	0.182573
C59	C	1.420365	-1.071929	-0.356012
C60	C	1.920365	-0.571929	0.143988
C61	C	1.420786	-0.949331	-0.355551
C62	C	1.920786	-0.449331	0.144449
C63	C	1.560932	-0.949002	-0.461267
C64	C	2.060932	-0.449002	0.038733
C65	C	1.563450	-1.071607	-0.460847
C66	C	2.063450	-0.571607	0.039153
C67	C	1.808561	-0.510682	-0.378259
C68	C	2.308561	-0.010682	0.121741
C69	C	1.926391	-0.510691	-0.378269
C70	C	2.426391	-0.010691	0.121731
C71	C	1.532109	-0.510580	-0.582980
C72	C	2.032109	-0.010580	-0.082980
C73	C	1.532132	-0.510545	-0.670229
C74	C	2.032132	-0.010545	-0.170229
C75	C	1.532137	-0.234157	-0.378266
C76	C	2.032137	0.265843	0.121734
C77	C	1.532171	-0.116327	-0.378279
C78	C	2.032171	0.383673	0.121721
C79	C	1.464370	-0.442729	-0.711221
C80	C	1.964370	0.057271	-0.211221
C81	C	1.464387	-0.442705	-0.793201
C82	C	1.964387	0.057295	-0.293201
C83	C	1.532172	-0.510492	-0.834189
C84	C	2.032172	-0.010492	-0.334189
C85	C	1.599937	-0.578315	-0.793192
C86	C	2.099937	-0.078315	-0.293192
C87	C	1.599914	-0.578344	-0.711213
C88	C	2.099914	-0.078344	-0.211213
C89	C	1.599983	-0.578249	-0.964062
C90	C	2.099983	-0.078249	-0.464062
C91	C	1.600008	-0.578219	-1.046047
C92	C	2.100008	-0.078219	-0.546047
C93	C	1.464456	-0.442611	-1.046050
C94	C	1.964456	0.057389	-0.546050
C95	C	1.464433	-0.442639	-0.964071
C96	C	1.964433	0.057361	-0.464071
C97	C	1.532200	-0.510461	-0.923080
C98	C	2.032200	-0.010461	-0.423080
C99	C	1.532064	-0.510667	-0.174287
C100	C	2.032064	-0.010667	0.325713
C101	C	1.532246	-0.510404	-0.087038
C102	C	2.032246	-0.010404	0.412962
H103	H	1.123299	-0.447031	-0.256065
H104	H	1.623299	0.052969	0.243935
N105	N	1.486031	-0.912611	-0.517918
N106	N	1.986031	-0.412611	-0.017918
N107	N	1.431846	-0.977700	-0.555641
N108	N	1.931846	-0.477700	-0.055641
H109	H	1.378944	-0.951994	-0.595646
H110	H	1.878944	-0.451994	-0.095646
H111	H	0.941854	-0.538791	-0.507453
H112	H	1.441854	-0.038791	-0.007453
N113	N	1.132556	-0.325070	-0.335377
N114	N	1.632556	0.174930	0.164623
N115	N	1.193046	-0.311402	-0.392395
N116	N	1.693046	0.188598	0.107605
H117	H	1.220360	-0.238257	-0.404902
H118	H	1.720360	0.261743	0.095098
H119	H	1.122160	-0.398358	-0.478909
H120	H	1.622160	0.101642	0.021091
H121	H	0.941193	-0.446943	-0.256481
H122	H	1.441193	0.053057	0.243519
H123	H	1.409177	-0.387523	-0.677854
H124	H	1.909177	0.112477	-0.177854
N125	N	1.132294	-0.656891	-0.282183
N126	N	1.632294	-0.156891	0.217817
N127	N	1.104727	-0.744576	-0.255208
N128	N	1.604727	-0.244576	0.244792
H129	H	1.132058	-0.768702	-0.202586
H130	H	1.632058	-0.268702	0.297414
H131	H	1.655175	-0.633468	-0.930689
H132	H	2.155175	-0.133468	-0.430689
H133	H	0.940264	-0.399879	-0.479612
H134	H	1.440264	0.100121	0.020388
H135	H	1.409280	-0.387386	-1.079429
H136	H	1.909280	0.112614	-0.579429
H137	H	1.697205	-0.919244	-0.331387
H138	H	2.197205	-0.419244	0.168613
N139	N	1.395182	-0.373440	-0.835089
N140	N	1.895182	0.126560	-0.335089
N141	N	1.327631	-0.410708	-0.880828
N142	N	1.827631	0.089292	-0.380828
H143	H	1.278754	-0.361787	-0.910414
H144	H	1.778754	0.138213	-0.410414
H145	H	1.357633	-1.101065	-0.398803
H146	H	1.857633	-0.601065	0.101197
N147	N	1.130843	-0.551981	-0.519249
N148	N	1.630843	-0.051981	-0.019249
N149	N	1.106768	-0.647737	-0.515650
N150	N	1.606768	-0.147737	-0.015650
H151	H	1.133104	-0.698390	-0.556996
H152	H	1.633104	-0.198390	-0.056996
H153	H	0.941857	-0.644629	-0.293942
H154	H	1.441857	-0.144629	0.206058
H155	H	1.655124	-0.633514	-0.826570
H156	H	2.155124	-0.133514	-0.326570
H157	H	0.940390	-0.686486	-0.395753
H158	H	1.440390	-0.186486	0.104247
N159	N	1.130038	-0.699366	-0.412011
N160	N	1.630038	-0.199366	0.087989
N161	N	1.189043	-0.671728	-0.467080
N162	N	1.689043	-0.171728	0.032920
H163	H	1.214787	-0.725852	-0.506155
H164	H	1.714787	-0.225852	-0.006155
H165	H	1.594792	-1.100756	-0.255920
H166	H	2.094792	-0.600756	0.244080
H167	H	1.696783	-1.101364	-0.331336
H168	H	2.196783	-0.601364	0.168664
H169	H	1.655101	-0.633558	-0.677839
H170	H	2.155101	-0.133558	-0.177839
N171	N	0.934554	-0.324176	-0.335811
N172	N	1.434554	0.175824	0.164189
N173	N	0.999435	-0.251481	-0.348218
N174	N	1.499435	0.248519	0.151782
H175	H	0.973466	-0.177912	-0.360885
H176	H	1.473466	0.322088	0.139115
H177	H	1.595190	-0.918053	-0.256476
H178	H	2.095190	-0.418053	0.243524
H179	H	1.396373	-0.920816	-0.294867
H180	H	1.896373	-0.420816	0.205133
H181	H	1.357599	-0.919654	-0.397780
H182	H	1.857599	-0.419654	0.102220
N183	N	1.669242	-0.647441	-1.087940
N184	N	2.169242	-0.147441	-0.587940
N185	N	1.736807	-0.610114	-1.133696
N186	N	2.236807	-0.110114	-0.633696
H187	H	1.785704	-0.658997	-1.163289
H188	H	2.285704	-0.158997	-0.663289
H189	H	1.395555	-1.102714	-0.296005
H190	H	1.895555	-0.602714	0.203995
H191	H	1.645730	-1.100616	-0.477640
H192	H	2.145730	-0.600616	0.022360
H193	H	1.641044	-0.918002	-0.481559
H194	H	2.141044	-0.418002	0.018441
N195	N	1.395193	-0.373385	-0.922214
N196	N	1.895193	0.126615	-0.422214
N197	N	1.334693	-0.312837	-0.958820
N198	N	1.834693	0.187163	-0.458820
H199	H	1.285788	-0.263926	-0.929259
H200	H	1.785788	0.236074	-0.429259
N201	N	1.494071	-1.110035	-0.520513
N202	N	1.994071	-0.610035	-0.020513
N203	N	1.420107	-1.171274	-0.503076
N204	N	1.920107	-0.671274	-0.003076
H205	H	1.371106	-1.198424	-0.545215
H206	H	1.871106	-0.698424	-0.045215
