data_functionalizedCrystal
_audit_creation_method	'MofGen! by Chris Wilmer'
_symmetry_space_group_name_H-M	'P1'
_symmetry_Int_Tables_number	1
_symmetry_cell_setting	triclinic
loop_
_symmetry_equiv_pos_as_xyz
  x,y,z
_cell_length_a	15.995350
_cell_length_b	23.532407
_cell_length_c	15.072220
_cell_angle_alpha	89.994175
_cell_angle_beta	89.991149
_cell_angle_gamma	83.170526
loop_
_atom_site_label
_atom_site_type_symbol
_atom_site_fract_x
_atom_site_fract_y
_atom_site_fract_z
O1	O	1.110385	0.073404	-0.073717
O2	O	1.360385	0.323404	0.176283
O3	O	1.610385	0.573404	0.426283
O4	O	1.860385	0.823404	0.676283
O5	O	0.866535	0.082469	-0.073736
O6	O	1.116535	0.332469	0.176264
O7	O	1.366535	0.582469	0.426264
O8	O	1.616535	0.832469	0.676264
O9	O	0.995813	-0.004967	-0.073710
O10	O	1.245813	0.245033	0.176290
O11	O	1.495813	0.495033	0.426290
O12	O	1.745813	0.745033	0.676290
O13	O	0.981107	0.160840	-0.073743
O14	O	1.231107	0.410840	0.176257
O15	O	1.481107	0.660840	0.426257
O16	O	1.731107	0.910840	0.676257
O17	O	0.995781	-0.004962	0.073856
O18	O	1.245781	0.245038	0.323856
O19	O	1.495781	0.495038	0.573856
O20	O	1.745781	0.745038	0.823856
O21	O	0.866503	0.082474	0.073829
O22	O	1.116503	0.332474	0.323829
O23	O	1.366503	0.582474	0.573829
O24	O	1.616503	0.832474	0.823829
O25	O	1.110354	0.073409	0.073848
O26	O	1.360354	0.323409	0.323848
O27	O	1.610354	0.573409	0.573848
O28	O	1.860354	0.823409	0.823848
Zn29	Zn	0.988423	0.077942	0.097268
Zn30	Zn	1.238423	0.327942	0.347268
Zn31	Zn	1.488423	0.577942	0.597268
Zn32	Zn	1.738423	0.827942	0.847268
Zn33	Zn	0.988465	0.077935	-0.097155
Zn34	Zn	1.238465	0.327935	0.152845
Zn35	Zn	1.488465	0.577935	0.402845
Zn36	Zn	1.738465	0.827935	0.652845
O37	O	0.981075	0.160845	0.073822
O38	O	1.231075	0.410845	0.323822
O39	O	1.481075	0.660845	0.573822
O40	O	1.731075	0.910845	0.823822
C41	C	0.835327	0.082096	0.000044
C42	C	1.085327	0.332096	0.250044
C43	C	1.335327	0.582096	0.500044
C44	C	1.585327	0.832096	0.750044
C45	C	0.742386	0.080973	0.000038
C46	C	0.992386	0.330973	0.250038
C47	C	1.242386	0.580973	0.500038
C48	C	1.492386	0.830973	0.750038
C49	C	0.404672	0.076938	0.000057
C50	C	0.654672	0.326938	0.250057
C51	C	0.904672	0.576938	0.500057
C52	C	1.154672	0.826938	0.750057
C53	C	0.452624	0.014668	0.000399
C54	C	0.702624	0.264668	0.250399
C55	C	0.952624	0.514668	0.500399
C56	C	1.202624	0.764668	0.750399
C57	C	0.549305	0.015792	0.000060
C58	C	0.799305	0.265792	0.250060
C59	C	1.049305	0.515792	0.500060
C60	C	1.299305	0.765792	0.750060
C61	C	0.572216	0.078939	0.000048
C62	C	0.822216	0.328939	0.250048
C63	C	1.072216	0.578939	0.500048
C64	C	1.322216	0.828939	0.750048
C65	C	0.530892	0.109650	-0.084222
C66	C	0.780892	0.359650	0.165778
C67	C	1.030892	0.609650	0.415778
C68	C	1.280892	0.859650	0.665778
C69	C	0.434269	0.108086	-0.084286
C70	C	0.684269	0.358086	0.165714
C71	C	0.934269	0.608086	0.415714
C72	C	1.184269	0.858086	0.665714
C73	C	0.433883	0.109378	0.083523
C74	C	0.683883	0.359378	0.333523
C75	C	0.933883	0.609378	0.583523
C76	C	1.183883	0.859378	0.833523
C77	C	0.530828	0.109363	0.084631
C78	C	0.780828	0.359363	0.334631
C79	C	1.030828	0.609363	0.584631
C80	C	1.280828	0.859363	0.834631
C81	C	0.666904	0.080074	0.000040
C82	C	0.916904	0.330074	0.250040
C83	C	1.166904	0.580074	0.500040
C84	C	1.416904	0.830074	0.750040
C85	C	0.309984	0.075805	0.000059
C86	C	0.559984	0.325805	0.250059
C87	C	0.809984	0.575805	0.500059
C88	C	1.059984	0.825805	0.750059
C89	C	0.995423	-0.026182	0.000075
C90	C	1.245423	0.223818	0.250075
C91	C	1.495423	0.473818	0.500075
C92	C	1.745423	0.723818	0.750075
C93	C	0.994297	-0.089404	0.000082
C94	C	1.244297	0.160596	0.250082
C95	C	1.494297	0.410596	0.500082
C96	C	1.744297	0.660596	0.750082
C97	C	1.063739	-0.488239	0.000039
C98	C	1.313739	-0.238239	0.250039
C99	C	1.563739	0.011761	0.500039
C100	C	1.813739	0.261761	0.750039
C101	C	1.062693	-0.547644	0.000032
C102	C	1.312693	-0.297644	0.250032
C103	C	1.562693	-0.047644	0.500032
C104	C	1.812693	0.202356	0.750032
O105	O	1.127067	-0.584141	0.000004
O106	O	1.377067	-0.334141	0.250004
O107	O	1.627067	-0.084141	0.500004
O108	O	1.877067	0.165859	0.750004
N109	N	0.985837	-0.570566	0.000027
N110	N	1.235837	-0.320566	0.250027
N111	N	1.485837	-0.070566	0.500027
N112	N	1.735837	0.179434	0.750027
C113	C	0.910022	-0.534080	0.000019
C114	C	1.160022	-0.284080	0.250019
C115	C	1.410022	-0.034080	0.500019
C116	C	1.660022	0.215920	0.750019
O117	O	0.844554	-0.559031	0.000013
O118	O	1.094554	-0.309031	0.250013
O119	O	1.344554	-0.059031	0.500013
O120	O	1.594554	0.190969	0.750013
C121	C	0.911069	-0.474677	0.000019
C122	C	1.161069	-0.224677	0.250019
C123	C	1.411069	0.025323	0.500019
C124	C	1.661069	0.275323	0.750019
C125	C	0.987930	-0.451758	0.000034
C126	C	1.237930	-0.201758	0.250034
C127	C	1.487930	0.048242	0.500034
C128	C	1.737930	0.298242	0.750034
C129	C	1.140594	-0.465320	0.000052
C130	C	1.390594	-0.215320	0.250052
C131	C	1.640594	0.034680	0.500052
C132	C	1.890594	0.284680	0.750052
C133	C	1.141640	-0.405920	0.000061
C134	C	1.391640	-0.155920	0.250061
C135	C	1.641640	0.094080	0.500061
C136	C	1.891640	0.344080	0.750061
C137	C	1.065830	-0.369439	0.000056
C138	C	1.315830	-0.119439	0.250056
C139	C	1.565830	0.130561	0.500056
C140	C	1.815830	0.380561	0.750056
C141	C	0.988975	-0.392358	0.000042
C142	C	1.238975	-0.142358	0.250042
C143	C	1.488975	0.107642	0.500042
C144	C	1.738975	0.357642	0.750042
C145	C	0.835255	-0.438192	0.000005
C146	C	1.085255	-0.188192	0.250005
C147	C	1.335255	0.061808	0.500005
C148	C	1.585255	0.311808	0.750005
C149	C	0.836308	-0.378785	0.000005
C150	C	1.086308	-0.128785	0.250005
C151	C	1.336308	0.121215	0.500005
C152	C	1.586308	0.371215	0.750005
C153	C	0.913169	-0.355867	0.000020
C154	C	1.163169	-0.105867	0.250020
C155	C	1.413169	0.144133	0.500020
C156	C	1.663169	0.394133	0.750020
C157	C	0.914212	-0.296477	0.000046
C158	C	1.164212	-0.046477	0.250046
C159	C	1.414212	0.203523	0.500046
C160	C	1.664212	0.453523	0.750046
N161	N	0.991068	-0.273555	0.000051
N162	N	1.241068	-0.023555	0.250051
N163	N	1.491068	0.226445	0.500051
N164	N	1.741068	0.476445	0.750051
C165	C	1.066877	-0.310036	0.000056
C166	C	1.316877	-0.060036	0.250056
C167	C	1.566877	0.189964	0.500056
C168	C	1.816877	0.439964	0.750056
C169	C	0.907829	-0.658831	0.000016
C170	C	1.157829	-0.408831	0.250016
C171	C	1.407829	-0.158831	0.500016
C172	C	1.657829	0.091169	0.750016
C173	C	0.906781	-0.718233	0.000022
C174	C	1.156781	-0.468233	0.250022
C175	C	1.406781	-0.218233	0.500022
C176	C	1.656781	0.031767	0.750022
C177	C	1.059453	-0.731793	0.000034
C178	C	1.309453	-0.481793	0.250034
C179	C	1.559453	-0.231793	0.500034
C180	C	1.809453	0.018207	0.750034
C181	C	1.060500	-0.672389	0.000034
C182	C	1.310500	-0.422389	0.250034
C183	C	1.560500	-0.172389	0.500034
C184	C	1.810500	0.077611	0.750034
C185	C	0.984685	-0.635909	0.000022
C186	C	1.234685	-0.385909	0.250022
C187	C	1.484685	-0.135909	0.500022
C188	C	1.734685	0.114091	0.750022
C189	C	1.069067	-0.185291	0.000075
C190	C	1.319067	0.064709	0.250075
C191	C	1.569067	0.314709	0.500075
C192	C	1.819067	0.564709	0.750075
C193	C	1.070106	-0.125885	0.000087
C194	C	1.320106	0.124115	0.250087
C195	C	1.570106	0.374115	0.500087
C196	C	1.820106	0.624115	0.750087
C197	C	0.917435	-0.112330	0.000071
C198	C	1.167435	0.137670	0.250071
C199	C	1.417435	0.387670	0.500071
C200	C	1.667435	0.637670	0.750071
C201	C	0.916396	-0.171731	0.000063
C202	C	1.166396	0.078269	0.250063
C203	C	1.416396	0.328269	0.500063
C204	C	1.666396	0.578269	0.750063
C205	C	0.992219	-0.208210	0.000062
C206	C	1.242219	0.041790	0.250062
C207	C	1.492219	0.291790	0.500062
C208	C	1.742219	0.541790	0.750062
O209	O	0.849872	-0.259945	0.000070
O210	O	1.099872	-0.009945	0.250070
O211	O	1.349872	0.240055	0.500070
O212	O	1.599872	0.490055	0.750070
O213	O	1.132335	-0.285076	0.000051
O214	O	1.382335	-0.035076	0.250051
O215	O	1.632335	0.214924	0.500051
O216	O	1.882335	0.464924	0.750051
C217	C	1.141561	0.073781	0.000066
C218	C	1.391561	0.323781	0.250066
C219	C	1.641561	0.573781	0.500066
C220	C	1.891561	0.823781	0.750066
C221	C	1.234502	0.074905	0.000067
C222	C	1.484502	0.324905	0.250067
C223	C	1.734502	0.574905	0.500067
C224	C	1.984502	0.824905	0.750067
C225	C	0.981465	0.182060	0.000035
C226	C	1.231465	0.432060	0.250035
C227	C	1.481465	0.682060	0.500035
C228	C	1.731465	0.932060	0.750035
C229	C	0.982591	0.245281	0.000023
C230	C	1.232591	0.495281	0.250023
C231	C	1.482591	0.745281	0.500023
C232	C	1.732591	0.995281	0.750023
N233	N	0.988401	0.077946	0.229957
N234	N	1.238401	0.327946	0.479957
N235	N	1.488401	0.577946	0.729957
N236	N	1.738401	0.827946	0.979957
N237	N	0.988494	0.077927	-0.229844
N238	N	1.238494	0.327927	0.020156
N239	N	1.488494	0.577927	0.270156
N240	N	1.738494	0.827927	0.520156
C241	C	0.988463	0.077933	0.589158
C242	C	1.238463	0.327933	0.839158
C243	C	1.488463	0.577933	1.089158
C244	C	1.738463	0.827933	1.339158
C245	C	0.919059	0.124562	0.551537
C246	C	1.169059	0.374562	0.801537
C247	C	1.419059	0.624562	1.051537
C248	C	1.669059	0.874562	1.301537
C249	C	0.919216	0.124732	0.448711
C250	C	1.169216	0.374732	0.698711
C251	C	1.419216	0.624732	0.948711
C252	C	1.669216	0.874732	1.198711
C253	C	0.988431	0.077940	0.410954
C254	C	1.238431	0.327940	0.660954
C255	C	1.488431	0.577940	0.910954
C256	C	1.738431	0.827940	1.160954
C257	C	1.075688	0.090918	0.448249
C258	C	1.325688	0.340918	0.698249
C259	C	1.575688	0.590918	0.948249
C260	C	1.825688	0.840918	1.198249
C261	C	1.075299	0.091250	0.551107
C262	C	1.325299	0.341250	0.801107
C263	C	1.575299	0.591250	1.051107
C264	C	1.825299	0.841250	1.301107
C265	C	0.971391	0.018188	0.551269
C266	C	1.221391	0.268188	0.801269
C267	C	1.471391	0.518188	1.051269
C268	C	1.721391	0.768188	1.301269
C269	C	0.969383	0.018587	0.448405
C270	C	1.219383	0.268587	0.698405
C271	C	1.469383	0.518587	0.948405
C272	C	1.719383	0.768587	1.198405
C273	C	0.988419	0.077942	0.310241
C274	C	1.238419	0.327942	0.560241
C275	C	1.488419	0.577942	0.810241
C276	C	1.738419	0.827942	1.060241
C277	C	0.988482	0.077932	0.689872
C278	C	1.238482	0.327932	0.939872
C279	C	1.488482	0.577932	1.189872
C280	C	1.738482	0.827932	1.439872
H281	H	0.401641	0.153804	-0.088119
H282	H	0.651641	0.403804	0.161881
H283	H	0.901641	0.653804	0.411881
H284	H	1.151641	0.903804	0.661881
F285	F	0.827131	-0.620009	0.000011
F286	F	1.077131	-0.370009	0.250011
F287	F	1.327131	-0.120009	0.500011
F288	F	1.577131	0.129991	0.750011
F289	F	0.834592	-0.196123	0.000064
F290	F	1.084592	0.053877	0.250064
F291	F	1.334592	0.303877	0.500064
F292	F	1.584592	0.553877	0.750064
F293	F	1.142305	-0.648004	0.000049
F294	F	1.392305	-0.398004	0.250049
F295	F	1.642305	-0.148004	0.500049
F296	F	1.892305	0.101996	0.750049
F297	F	1.223446	-0.381537	0.000057
F298	F	1.473446	-0.131537	0.250057
F299	F	1.723446	0.118463	0.500057
F300	F	1.973446	0.368463	0.750057
F301	F	0.568226	0.081765	-0.166186
F302	F	0.818226	0.331765	0.083814
F303	F	1.068226	0.581765	0.333814
F304	F	1.318226	0.831765	0.583814
F305	F	0.933371	0.182687	0.416525
F306	F	1.183371	0.432687	0.666525
F307	F	1.433371	0.682687	0.916525
F308	F	1.683371	0.932687	1.166525
H309	H	1.128547	0.057860	0.423791
H310	H	1.378547	0.307860	0.673791
H311	H	1.628547	0.557860	0.923791
H312	H	1.878547	0.807860	1.173791
F313	F	1.037552	-0.027167	0.583068
F314	F	1.287552	0.222833	0.833068
F315	F	1.537552	0.472833	1.083068
F316	F	1.787552	0.722833	1.333068
H317	H	1.121181	-0.761507	0.000034
H318	H	1.371181	-0.511507	0.250034
H319	H	1.621181	-0.261507	0.500034
H320	H	1.871181	-0.011507	0.750034
H321	H	0.577922	-0.008349	0.060468
H322	H	0.827922	0.241651	0.310468
H323	H	1.077922	0.491651	0.560468
H324	H	1.327922	0.741651	0.810468
H325	H	0.434296	-0.010221	0.060832
H326	H	0.684296	0.239779	0.310832
H327	H	0.934296	0.489779	0.560832
H328	H	1.184296	0.739779	0.810832
F329	F	0.755613	-0.339963	-0.000010
F330	F	1.005613	-0.089963	0.249990
F331	F	1.255613	0.160037	0.499990
F332	F	1.505613	0.410037	0.749990
H333	H	1.016688	-0.017738	0.422708
H334	H	1.266688	0.232262	0.672708
H335	H	1.516688	0.482262	0.922708
H336	H	1.766688	0.732262	1.172708
H337	H	1.202331	-0.495018	0.000053
H338	H	1.452331	-0.245018	0.250053
H339	H	1.702331	0.004982	0.500053
H340	H	1.952331	0.254982	0.750053
F341	F	0.836758	-0.073494	0.000066
F342	F	1.086758	0.176506	0.250066
F343	F	1.336758	0.426506	0.500066
F344	F	1.586758	0.676506	0.750066
F345	F	1.151916	-0.101497	0.000102
F346	F	1.401916	0.148503	0.250102
F347	F	1.651916	0.398503	0.500102
F348	F	1.901916	0.648503	0.750102
H349	H	0.433249	-0.010110	-0.059692
H350	H	0.683249	0.239890	0.190308
H351	H	0.933249	0.489890	0.440308
H352	H	1.183249	0.739890	0.690308
F353	F	0.753447	-0.462570	-0.000014
F354	F	1.003447	-0.212570	0.249986
F355	F	1.253447	0.037430	0.499986
F356	F	1.503447	0.287430	0.749986
F357	F	0.410597	0.078808	-0.166611
F358	F	0.660597	0.328808	0.083389
F359	F	0.910597	0.578808	0.333389
F360	F	1.160597	0.828808	0.583389
F361	F	0.585976	-0.015852	-0.079149
F362	F	0.835976	0.234148	0.170851
F363	F	1.085976	0.484148	0.420851
F364	F	1.335976	0.734148	0.670851
F365	F	0.548869	0.170285	-0.088346
F366	F	0.798869	0.420285	0.161654
F367	F	1.048869	0.670285	0.411654
F368	F	1.298869	0.920285	0.661654
H369	H	0.413503	0.089023	0.147397
H370	H	0.663503	0.339023	0.397397
H371	H	0.913503	0.589023	0.647397
H372	H	1.163503	0.839023	0.897397
F373	F	1.095061	0.148201	0.582446
F374	F	1.345061	0.398201	0.832446
F375	F	1.595061	0.648201	1.082446
F376	F	1.845061	0.898201	1.332446
H377	H	1.128531	0.058627	0.575992
H378	H	1.378531	0.308627	0.825992
H379	H	1.628531	0.558627	1.075992
H380	H	1.878531	0.808627	1.325992
H381	H	1.091182	0.133993	0.422473
H382	H	1.341182	0.383993	0.672473
H383	H	1.591182	0.633993	0.922473
H384	H	1.841182	0.883993	1.172473
F385	F	0.834407	0.114654	0.415752
F386	F	1.084407	0.364654	0.665752
F387	F	1.334407	0.614654	0.915752
F388	F	1.584407	0.864654	1.165752
H389	H	0.558318	0.086945	0.146973
H390	H	0.808318	0.336945	0.396973
H391	H	1.058318	0.586945	0.646973
H392	H	1.308318	0.836945	0.896973
H393	H	0.545809	0.155413	0.089712
H394	H	0.795809	0.405413	0.339712
H395	H	1.045809	0.655413	0.589712
H396	H	1.295809	0.905413	0.839712
H397	H	0.853973	0.116956	0.576295
H398	H	1.103973	0.366956	0.826295
H399	H	1.353973	0.616956	1.076295
H400	H	1.603973	0.866956	1.326295
F401	F	0.824976	-0.742617	0.000023
F402	F	1.074976	-0.492617	0.250023
F403	F	1.324976	-0.242617	0.500023
F404	F	1.574976	0.007383	0.750023
H405	H	0.929757	0.168648	0.577368
H406	H	1.179757	0.418648	0.827368
H407	H	1.429757	0.668648	1.077368
H408	H	1.679757	0.918648	1.327368
H409	H	0.401740	0.155290	0.084084
H410	H	0.651740	0.405290	0.334084
H411	H	0.901740	0.655290	0.584084
H412	H	1.151740	0.905290	0.834084
F413	F	0.890052	0.001885	0.585212
F414	F	1.140052	0.251885	0.835212
F415	F	1.390052	0.501885	1.085212
F416	F	1.640052	0.751885	1.335212
F417	F	1.149767	-0.224107	0.000073
F418	F	1.399767	0.025893	0.250073
F419	F	1.649767	0.275893	0.500073
F420	F	1.899767	0.525893	0.750073
F421	F	0.885488	0.005711	0.416548
F422	F	1.135488	0.255711	0.666548
F423	F	1.385488	0.505711	0.916548
F424	F	1.635488	0.755711	1.166548
