data_functionalizedCrystal
_audit_creation_method	'MofGen! by Chris Wilmer'
_symmetry_space_group_name_H-M	'P1'
_symmetry_Int_Tables_number	1
_symmetry_cell_setting	triclinic
loop_
_symmetry_equiv_pos_as_xyz
  x,y,z
_cell_length_a	14.908941
_cell_length_b	14.908977
_cell_length_c	14.909241
_cell_angle_alpha	96.802072
_cell_angle_beta	89.833618
_cell_angle_gamma	90.214478
loop_
_atom_site_label
_atom_site_type_symbol
_atom_site_fract_x
_atom_site_fract_y
_atom_site_fract_z
Zn1	Zn	-1.417675	0.253425	-0.413827
Zn2	Zn	-0.917675	0.753425	0.086173
Zn3	Zn	-1.417564	0.413544	-0.253738
Zn4	Zn	-0.917564	0.913544	0.246262
Zn5	Zn	-1.259578	0.270824	-0.271084
Zn6	Zn	-0.759578	0.770824	0.228916
Zn7	Zn	-1.275892	0.412484	-0.412774
Zn8	Zn	-0.775892	0.912484	0.087226
O9	O	-1.342677	0.337569	-0.337855
O10	O	-0.842677	0.837569	0.162145
O11	O	-1.543114	0.267827	-0.385772
O12	O	-1.043114	0.767827	0.114228
O13	O	-1.389733	0.402338	-0.129743
O14	O	-0.889733	0.902338	0.370257
O15	O	-1.273770	0.142221	-0.297719
O16	O	-0.773770	0.642221	0.202281
O17	O	-1.543032	0.385466	-0.268155
O18	O	-1.043032	0.885466	0.231845
O19	O	-1.389922	0.129437	-0.402592
O20	O	-0.889922	0.629437	0.097408
O21	O	-1.273662	0.297482	-0.142487
O22	O	-0.773662	0.797482	0.357513
O23	O	-1.136288	0.296454	-0.296698
O24	O	-0.636288	0.796454	0.203302
O25	O	-1.301574	0.383658	-0.539209
O26	O	-0.801574	0.883658	-0.039209
O27	O	-1.148274	0.400530	-0.400797
O28	O	-0.648274	0.900530	0.099203
O29	O	-1.405741	0.266799	-0.539982
O30	O	-0.905741	0.766799	-0.039982
O31	O	-1.405551	0.539699	-0.267134
O32	O	-0.905551	1.039699	0.232866
O33	O	-1.301466	0.538920	-0.383977
O34	O	-0.801466	1.038920	0.116023
C35	C	-1.109752	0.350266	-0.350516
C36	C	-0.609752	0.850266	0.149484
C37	C	-1.010108	0.355717	-0.355952
C38	C	-0.510108	0.855717	0.144048
C39	C	-0.810334	0.257404	-0.257941
C40	C	-0.310334	0.757404	0.242059
C41	C	-0.716709	0.262524	-0.263046
C42	C	-0.216709	0.762524	0.236954
C43	C	-0.729232	0.371081	-0.371262
C44	C	-0.229232	0.871081	0.128738
C45	C	-0.822857	0.365961	-0.366157
C46	C	-0.322857	0.865961	0.133843
C47	C	-0.863404	0.309120	-0.309496
C48	C	-0.363404	0.809120	0.190504
C49	C	-0.957031	0.303996	-0.304396
C50	C	-0.457031	0.803996	0.195604
C51	C	-0.969552	0.412557	-0.412606
C52	C	-0.469552	0.912557	0.087394
C53	C	-0.875927	0.417677	-0.417711
C54	C	-0.375927	0.917677	0.082289
C55	C	-0.576511	0.324816	-0.325140
C56	C	-0.076511	0.824816	0.174860
C57	C	-0.676155	0.319359	-0.319706
C58	C	-0.176155	0.819359	0.180294
C59	C	-1.355292	0.572054	-0.323577
C60	C	-0.855292	1.072054	0.176423
C61	C	-1.360772	0.672361	-0.317495
C62	C	-0.860772	1.172361	0.182505
C63	C	-1.355489	0.323169	-0.573258
C64	C	-0.855489	0.823169	-0.073258
C65	C	-1.360949	0.317033	-0.673573
C66	C	-0.860949	0.817033	-0.173573
C67	C	-1.262570	0.860114	-0.427639
C68	C	-0.762570	1.360114	0.072361
C69	C	-1.267717	0.954362	-0.421928
C70	C	-0.767717	1.454362	0.078072
C71	C	-1.376206	0.955106	-0.300355
C72	C	-0.876206	1.455106	0.199645
C73	C	-1.371060	0.860858	-0.306067
C74	C	-0.871060	1.360858	0.193933
C75	C	-1.314241	0.813366	-0.369712
C76	C	-0.814241	1.313366	0.130288
C77	C	-1.309100	0.719116	-0.375428
C78	C	-0.809100	1.219116	0.124572
C79	C	-1.417584	0.719862	-0.253852
C80	C	-0.917584	1.219862	0.246148
C81	C	-1.422731	0.814110	-0.248140
C82	C	-0.922731	1.314110	0.251860
C83	C	-1.330009	1.102169	-0.352199
C84	C	-0.830009	1.602169	0.147801
C85	C	-1.324534	1.001861	-0.358289
C86	C	-0.824534	1.501861	0.141711
C87	C	-1.262743	0.427209	-0.861269
C88	C	-0.762743	0.927209	-0.361269
C89	C	-1.267870	0.421446	-0.955524
C90	C	-0.767870	0.921446	-0.455524
C91	C	-1.376335	0.299750	-0.956338
C92	C	-0.876335	0.799750	-0.456338
C93	C	-1.371208	0.305513	-0.862083
C94	C	-0.871208	0.805513	-0.362083
C95	C	-1.314409	0.369243	-0.814552
C96	C	-0.814409	0.869243	-0.314552
C97	C	-1.309277	0.375001	-0.720297
C98	C	-0.809277	0.875001	-0.220297
C99	C	-1.417747	0.253310	-0.721112
C100	C	-0.917747	0.753310	-0.221112
C101	C	-1.422874	0.247547	-0.815366
C102	C	-0.922874	0.747547	-0.315366
C103	C	-1.329963	0.351845	-0.103370
C104	C	-0.829963	0.851845	0.396630
C105	C	-1.324663	0.357718	-0.003061
C106	C	-0.824663	0.857718	0.496939
H107	H	-0.843348	0.211110	-0.211817
H108	H	-0.343348	0.711110	0.288183
H109	H	-1.225799	0.468648	-0.993557
H110	H	-0.725799	0.968648	-0.493557
H111	H	-1.422585	0.247871	-0.995053
H112	H	-0.922585	0.747871	-0.495053
H113	H	-1.422457	0.993792	-0.248531
H114	H	-0.922457	1.493792	0.251469
H115	H	-1.468988	0.852792	-0.196320
H116	H	-0.968988	1.352792	0.303680
H117	H	-1.459661	0.681789	-0.206686
H118	H	-0.959661	1.181789	0.293314
H119	H	-1.469121	0.195662	-0.854078
H120	H	-0.969121	0.695662	-0.354078
H121	H	-1.216312	0.821444	-0.479468
H122	H	-0.716312	1.321444	0.020532
H123	H	-1.459812	0.206106	-0.683065
H124	H	-0.959812	0.706106	-0.183065
H125	H	-0.673502	0.220410	-0.221066
H126	H	-0.173502	0.720410	0.278934
H127	H	-1.262837	0.680448	-0.427253
H128	H	-0.762837	1.180448	0.072747
H129	H	-1.263019	0.426885	-0.681600
H130	H	-0.763019	0.926885	-0.181600
H131	H	-0.990043	0.257707	-0.258265
H132	H	-0.490043	0.757707	0.241735
H133	H	-1.225643	0.992420	-0.469100
H134	H	-0.725643	1.492420	0.030900
H135	H	-0.842901	0.463958	-0.463840
H136	H	-0.342901	0.963958	0.036160
H137	H	-0.696202	0.417367	-0.417384
H138	H	-0.196202	0.917367	0.082616
H139	H	-1.012773	0.454663	-0.454591
H140	H	-0.512773	0.954663	0.045409
H141	H	-1.216477	0.479085	-0.822571
H142	H	-0.716477	0.979085	-0.322571
