data_functionalizedCrystal
_audit_creation_method	'MofGen! by Chris Wilmer'
_symmetry_space_group_name_H-M	'P1'
_symmetry_Int_Tables_number	1
_symmetry_cell_setting	triclinic
loop_
_symmetry_equiv_pos_as_xyz
  x,y,z
_cell_length_a	11.792254
_cell_length_b	11.792254
_cell_length_c	9.198806
_cell_angle_alpha	89.996642
_cell_angle_beta	89.996104
_cell_angle_gamma	84.198598
loop_
_atom_site_label
_atom_site_type_symbol
_atom_site_fract_x
_atom_site_fract_y
_atom_site_fract_z
O1	O	1.506907	0.155633	-0.120892
O2	O	2.006907	0.655633	0.379108
O3	O	1.176568	0.171651	-0.120895
O4	O	1.676568	0.671651	0.379105
O5	O	1.349746	-0.001527	-0.120883
O6	O	1.849746	0.498473	0.379117
O7	O	1.333728	0.328811	-0.120904
O8	O	1.833728	0.828811	0.379096
O9	O	1.349733	-0.001528	0.120902
O10	O	1.849733	0.498472	0.620902
O11	O	1.176554	0.171650	0.120890
O12	O	1.676554	0.671650	0.620890
O13	O	1.506893	0.155632	0.120893
O14	O	2.006893	0.655632	0.620893
Cu15	Cu	1.341722	0.163641	0.142968
Cu16	Cu	1.841722	0.663641	0.642968
Cu17	Cu	1.341739	0.163642	-0.142970
Cu18	Cu	1.841739	0.663642	0.357030
O19	O	1.333715	0.328811	0.120881
O20	O	1.833715	0.828811	0.620881
C21	C	1.134271	0.170642	-0.000003
C22	C	1.634271	0.670642	0.499997
C23	C	1.008257	0.167621	-0.000004
C24	C	1.508257	0.667621	0.499996
C25	C	1.348730	-0.043818	0.000009
C26	C	1.848730	0.456182	0.500009
C27	C	1.345710	-0.169832	0.000008
C28	C	1.845710	0.330168	0.500008
C29	C	0.905921	0.165168	-0.000010
C30	C	1.405921	0.665168	0.499990
C31	C	0.777534	0.162099	-0.000011
C32	C	1.277534	0.662099	0.499989
C33	C	1.343256	-0.272168	0.000002
C34	C	1.843256	0.227832	0.500002
C35	C	1.340188	-0.400555	-0.000011
C36	C	1.840188	0.099445	0.499989
C37	C	1.549190	0.156642	-0.000002
C38	C	2.049190	0.656642	0.499998
C39	C	1.675204	0.159662	-0.000011
C40	C	2.175204	0.659662	0.499989
C41	C	1.334731	0.371102	-0.000014
C42	C	1.834731	0.871102	0.499986
C43	C	1.337751	0.497115	-0.000022
C44	C	1.837751	0.997115	0.499978
N45	N	1.341719	0.163640	0.344082
N46	N	1.841719	0.663640	0.844082
N47	N	1.341751	0.163634	-0.344084
N48	N	1.841751	0.663634	0.155916
C49	C	1.414432	0.090608	0.416284
C50	C	1.914432	0.590608	0.916284
C51	C	1.414450	0.090604	0.583697
C52	C	1.914450	0.590604	1.083697
H53	H	1.476669	0.028080	0.354163
H54	H	1.976669	0.528080	0.854163
H55	H	1.279475	0.226159	0.406206
H56	H	1.779475	0.726159	0.906206
C57	C	1.497644	0.007354	0.666397
C58	C	1.997644	0.507354	1.166397
C59	C	1.609395	0.026186	0.629476
C60	C	2.109395	0.526186	1.129476
C61	C	1.686064	-0.050476	0.705646
C62	C	2.186064	0.449524	1.205646
H63	H	1.484801	-0.068489	0.641592
H64	H	1.984801	0.431511	1.141592
H65	H	1.486701	0.018436	0.767928
H66	H	1.986701	0.518436	1.267928
H67	H	1.620333	0.015095	0.527968
H68	H	2.120333	0.515095	1.027968
H69	H	1.622274	0.102014	0.654285
H70	H	2.122274	0.602014	1.154285
H71	H	1.675121	-0.039394	0.807177
H72	H	2.175121	0.460606	1.307177
H73	H	1.673211	-0.126314	0.680835
H74	H	2.173211	0.373686	1.180835
H75	H	1.761896	-0.037702	0.680617
H76	H	2.261896	0.462298	1.180617
H77	H	1.279499	0.226167	0.593834
H78	H	1.779499	0.726167	1.093834
