data_functionalizedCrystal
_audit_creation_method	'MofGen! by Chris Wilmer'
_symmetry_space_group_name_H-M	'P1'
_symmetry_Int_Tables_number	1
_symmetry_cell_setting	triclinic
loop_
_symmetry_equiv_pos_as_xyz
  x,y,z
_cell_length_a	13.339070
_cell_length_b	27.732048
_cell_length_c	12.376457
_cell_angle_alpha	101.176348
_cell_angle_beta	75.589755
_cell_angle_gamma	99.135974
loop_
_atom_site_label
_atom_site_type_symbol
_atom_site_fract_x
_atom_site_fract_y
_atom_site_fract_z
O1	O	1.358025	0.235161	-0.094094
O2	O	1.063992	0.203422	-0.094081
O3	O	1.220136	0.150154	-0.094066
O4	O	1.201881	0.288430	-0.094108
O5	O	1.181114	0.163448	0.093942
O6	O	1.024970	0.216716	0.093928
O7	O	1.319003	0.248455	0.093915
Zn8	Zn	1.165791	0.234696	0.123772
Zn9	Zn	1.217204	0.217181	-0.123938
O10	O	1.162859	0.301723	0.093900
C11	C	1.006875	0.204708	-0.000074
C12	C	0.894822	0.188727	-0.000068
C13	C	1.200241	0.138741	-0.000059
C14	C	1.199085	0.084928	-0.000049
C15	C	0.528098	0.312985	-0.000124
C16	C	0.633378	0.328001	-0.000133
C17	C	0.698744	0.293184	-0.000117
C18	C	0.658820	0.243348	-0.000092
C19	C	0.553531	0.228330	-0.000092
C20	C	0.724177	0.208529	-0.000084
C21	C	0.684253	0.158693	-0.000059
C22	C	0.578975	0.143677	-0.000058
C23	C	0.513609	0.178494	-0.000075
C24	C	0.829466	0.223547	-0.000084
C25	C	0.854899	0.138891	-0.000052
C26	C	0.749619	0.123875	-0.000042
C27	C	1.284103	-0.242187	-0.000111
C28	C	1.279823	-0.444437	-0.000127
O29	O	1.357565	-0.464994	-0.000180
N30	N	1.187233	-0.476309	-0.000122
C31	C	1.095708	-0.457617	-0.000120
O32	O	1.016858	-0.489367	-0.000127
C33	C	1.099990	-0.255368	-0.000112
C34	C	1.192584	-0.223497	-0.000106
C35	C	1.376689	-0.210317	-0.000106
C36	C	1.377757	-0.159757	-0.000096
C37	C	1.286238	-0.141067	-0.000091
C38	C	1.193652	-0.172937	-0.000096
C39	C	1.008468	-0.236676	-0.000119
C40	C	1.009548	-0.186111	-0.000120
C41	C	1.102141	-0.154240	-0.000114
C42	C	1.103201	-0.103687	-0.000081
N43	N	1.195791	-0.071815	-0.000086
C44	C	1.287310	-0.090505	-0.000091
C45	C	1.093465	-0.563800	-0.000122
C46	C	1.092394	-0.614362	-0.000121
C47	C	1.276510	-0.601179	-0.000130
C48	C	1.277578	-0.550616	-0.000122
C49	C	1.186055	-0.531928	-0.000127
C50	C	1.289545	0.015674	-0.000069
C51	C	1.290603	0.066238	-0.000054
C52	C	1.106489	0.053051	-0.000051
C53	C	1.105429	0.002491	-0.000060
C54	C	1.196966	-0.016195	-0.000073
O55	O	1.025503	-0.083098	-0.000041
O56	O	1.366153	-0.058748	-0.000109
C57	C	1.283035	-0.292747	-0.000121
C58	C	1.190449	-0.324617	-0.000126
C59	C	1.098930	-0.305927	-0.000121
C60	C	1.189377	-0.375179	-0.000126
C61	C	1.280896	-0.393869	-0.000131
C62	C	1.373486	-0.361997	-0.000136
C63	C	1.374554	-0.311437	-0.000126
C64	C	1.006340	-0.337799	-0.000116
C65	C	1.005279	-0.388358	-0.000125
C66	C	1.096798	-0.407048	-0.000130
C67	C	1.376121	0.247169	-0.000094
C68	C	1.488175	0.263150	-0.000107
C69	C	1.182754	0.313136	-0.000110
C70	C	1.183912	0.366948	-0.000126
N71	N	1.130710	0.246650	0.292827
N72	N	1.252293	0.205224	-0.292993
C73	C	1.333726	0.177465	0.647831
C74	C	1.358274	0.169097	0.529493
C75	C	1.301385	0.188485	0.470321
C76	C	1.219945	0.216241	0.529497
C77	C	1.195400	0.224613	0.647847
C78	C	1.163058	0.235633	0.470337
C79	C	1.081618	0.263390	0.529513
C80	C	1.057077	0.271760	0.647851
C81	C	1.113967	0.252372	0.707023
C82	C	1.187603	0.227261	0.351987
C83	C	1.049277	0.274410	0.352003
C84	C	1.024729	0.282777	0.470341
H85	H	0.861960	0.264124	-0.000100
H86	H	1.352976	-0.524669	-0.000118
H87	H	0.546476	0.103096	-0.000050
O88	O	1.365512	-0.619292	-0.000293
C89	C	1.542729	-0.630417	-0.097766
C90	C	1.442014	-0.609868	-0.097697
H91	H	1.604601	-0.622815	-0.176521
H92	H	1.572103	-0.611660	-0.019147
H93	H	1.526014	-0.672025	-0.097714
H94	H	1.458645	-0.568263	-0.097789
H95	H	1.412669	-0.628662	-0.176309
O96	O	0.800998	0.307720	0.000031
C97	C	0.938823	0.312963	0.097483
C98	C	0.823004	0.296464	0.097437
H99	H	0.956646	0.303879	0.176239
H100	H	0.989430	0.292704	0.018866
H101	H	0.956117	0.354559	0.097408
H102	H	0.805611	0.254875	0.097551
H103	H	0.772459	0.316760	0.176047
H104	H	0.665878	0.368577	-0.000163
H105	H	0.474871	0.341327	-0.000148
H106	H	1.002954	0.290198	0.303826
O107	O	0.710675	0.075482	-0.000076
C108	C	0.559733	0.014839	0.000011
C109	C	0.603707	0.069657	0.000022
H110	H	0.473239	0.010114	0.000114
H111	H	0.602965	-0.008665	-0.078681
H112	H	0.570434	0.002489	0.078681
H113	H	0.593015	0.082053	-0.078595
H114	H	0.560469	0.093129	0.078767
H115	H	1.451220	-0.225528	-0.000114
H116	H	0.427880	0.166270	-0.000067
O117	O	1.462404	-0.380195	-0.000344
C118	C	1.588207	-0.436543	-0.097737
C119	C	1.487519	-0.415964	-0.097646
H120	H	1.608532	-0.465473	-0.176384
H121	H	1.654631	-0.405107	-0.097810
H122	H	1.575955	-0.454307	-0.019025
H123	H	1.499669	-0.398205	-0.176344
H124	H	1.421130	-0.447418	-0.097513
O125	O	0.918444	-0.267563	-0.000180
C126	C	0.735934	-0.275277	-0.000130
C127	C	0.837826	-0.240246	-0.000085
H128	H	0.670723	-0.253203	-0.000029
H129	H	0.747093	-0.304828	-0.078834
H130	H	0.714540	-0.293734	0.078528
H131	H	0.859277	-0.221754	-0.078690
H132	H	0.826612	-0.210725	0.078671
O133	O	1.325306	0.180442	0.355368
C134	C	1.380266	0.216986	0.185516
C135	C	1.353225	0.226168	0.315703
H136	H	1.402824	0.253948	0.153406
H137	H	1.448285	0.193844	0.153323
H138	H	1.309626	0.196362	0.153436
H139	H	1.423800	0.246805	0.347878
H140	H	1.285169	0.249288	0.347819
H141	H	0.935017	-0.170899	-0.000125
O142	O	1.437082	0.141986	0.471838
C143	C	1.535480	0.107755	0.289523
C144	C	1.446407	0.138597	0.354676
H145	H	1.543034	0.104997	0.194787
H146	H	1.611684	0.126346	0.312421
H147	H	1.517615	0.069057	0.313140
H148	H	1.464172	0.177299	0.331095
H149	H	1.370231	0.119967	0.331773
H150	H	0.908122	0.110540	-0.000043
O151	O	1.017560	0.071143	-0.000203
C152	C	0.880802	0.068501	-0.097662
C153	C	0.981489	0.047959	-0.097604
H154	H	0.851621	0.049773	-0.176414
H155	H	0.818793	0.060853	-0.019041
H156	H	0.897498	0.110117	-0.097607
H157	H	0.964893	0.006342	-0.097699
H158	H	1.043467	0.055646	-0.176219
H159	H	1.449953	-0.285492	-0.000122
O160	O	1.467805	-0.128874	-0.000150
C161	C	1.650294	-0.121150	-0.000097
C162	C	1.548386	-0.156177	-0.000059
H163	H	1.715466	-0.143208	-0.000000
H164	H	1.671808	-0.102717	-0.078797
H165	H	1.639027	-0.091581	0.078566
H166	H	1.559573	-0.185772	-0.078669
H167	H	1.526905	-0.174573	0.078692
H168	H	0.990772	0.294366	0.696033
O169	O	1.388957	0.158552	0.705191
C170	C	1.441843	0.085191	0.741498
C171	C	1.379272	0.106547	0.676443
H172	H	1.434016	0.043142	0.718297
H173	H	1.527455	0.100654	0.718195
H174	H	1.410318	0.095971	0.836236
H175	H	1.410707	0.095775	0.581689
H176	H	1.293668	0.091086	0.699839
H177	H	1.366007	0.092186	-0.000046
H178	H	1.364084	0.000466	-0.000084
O179	O	1.002367	-0.645252	-0.000165
C180	C	0.819852	-0.652973	-0.000096
C181	C	0.921742	-0.617938	-0.000065
H182	H	0.754635	-0.630902	0.000009
H183	H	0.831009	-0.682525	-0.078797
H184	H	0.798469	-0.671427	0.078565
H185	H	0.943182	-0.599449	-0.078673
H186	H	0.910531	-0.588416	0.078688
H187	H	0.929871	-0.414304	-0.000120
O188	O	1.004619	-0.545641	-0.000319
C189	C	0.919180	-0.503072	-0.097675
C190	C	1.019858	-0.523620	-0.097612
H191	H	0.931473	-0.485254	-0.176316
H192	H	0.852805	-0.534528	-0.097741
H193	H	0.898747	-0.474190	-0.018957
H194	H	1.040387	-0.552495	-0.176316
H195	H	1.086173	-0.492137	-0.097487
O196	O	1.015580	-0.028530	-0.000207
C197	C	0.927724	-0.100124	-0.097664
C198	C	1.029546	-0.065040	-0.097611
H199	H	0.938974	-0.129644	-0.176419
H200	H	0.906287	-0.118610	-0.019045
H201	H	0.862500	-0.078065	-0.097598
H202	H	1.094838	-0.087062	-0.097717
H203	H	1.050894	-0.046552	-0.176223
H204	H	0.931813	-0.322588	-0.000114
H205	H	0.958419	0.305378	0.518537
H206	H	1.253912	0.204662	0.303816
H207	H	1.093978	0.259183	0.803384
