data_functionalizedCrystal
_audit_creation_method	'MofGen! by Chris Wilmer'
_symmetry_space_group_name_H-M	'P1'
_symmetry_Int_Tables_number	1
_symmetry_cell_setting	triclinic
loop_
_symmetry_equiv_pos_as_xyz
  x,y,z
_cell_length_a	19.288864
_cell_length_b	17.766277
_cell_length_c	19.288865
_cell_angle_alpha	89.988397
_cell_angle_beta	96.863755
_cell_angle_gamma	90.023209
loop_
_atom_site_label
_atom_site_type_symbol
_atom_site_fract_x
_atom_site_fract_y
_atom_site_fract_z
O1	O	0.921353	0.062844	-0.086649
O2	O	1.421353	0.562844	0.413351
O3	O	0.719092	0.062794	-0.098337
O4	O	1.219092	0.562794	0.401663
O5	O	0.826067	0.062806	0.008637
O6	O	1.326067	0.562806	0.508637
O7	O	0.814378	0.062832	-0.193623
O8	O	1.314378	0.562832	0.306377
O9	O	0.826048	-0.062383	0.008643
O10	O	1.326048	0.437617	0.508643
O11	O	0.719074	-0.062395	-0.098332
O12	O	1.219074	0.437605	0.401668
O13	O	0.921334	-0.062344	-0.086643
O14	O	1.421334	0.437656	0.413357
Cu15	Cu	0.820202	-0.073800	-0.092487
Cu16	Cu	1.320202	0.426200	0.407513
Cu17	Cu	0.820224	0.074250	-0.092494
Cu18	Cu	1.320224	0.574250	0.407506
O19	O	0.814360	-0.062356	-0.193618
O20	O	1.314360	0.437644	0.306382
C21	C	0.693207	0.000193	-0.097959
C22	C	1.193207	0.500193	0.402041
C23	C	0.616103	0.000173	-0.096830
C24	C	1.116103	0.500173	0.403170
C25	C	0.571407	0.000193	-0.159598
C26	C	1.071407	0.500193	0.340402
C27	C	0.498960	0.000201	-0.158537
C28	C	0.998960	0.500201	0.341463
C29	C	0.471212	0.000205	-0.094705
C30	C	0.971212	0.500205	0.405295
C31	C	0.515918	0.000180	-0.031929
C32	C	1.015918	0.500180	0.468071
C33	C	0.588364	0.000164	-0.032991
C34	C	1.088364	0.500164	0.467009
C35	C	0.362957	0.044082	-0.044527
C36	C	0.862957	0.544082	0.455473
C37	C	0.290512	0.044103	-0.043468
C38	C	0.790512	0.544103	0.456532
C39	C	0.247767	0.000250	-0.091425
C40	C	0.747767	0.500250	0.408575
C41	C	0.277473	-0.043614	-0.140454
C42	C	0.777473	0.456386	0.359546
C43	C	0.349918	-0.043630	-0.141517
C44	C	0.849918	0.456370	0.358483
C45	C	0.392658	0.000221	-0.093546
C46	C	0.892658	0.500221	0.406454
C47	C	0.124514	0.000278	-0.153047
C48	C	0.624514	0.500278	0.346953
C49	C	0.052066	0.000281	-0.151984
C50	C	0.552066	0.500281	0.348016
C51	C	0.069026	0.000267	-0.025374
C52	C	0.569026	0.500267	0.474626
C53	C	0.141473	0.000256	-0.026439
C54	C	0.641473	0.500256	0.473561
C55	C	0.169212	0.000265	-0.090278
C56	C	0.669212	0.500265	0.409722
N57	N	0.820192	-0.177931	-0.092482
N58	N	1.320192	0.322069	0.407518
C59	C	0.867575	-0.217312	-0.045137
C60	C	1.367575	0.282688	0.454863
C61	C	0.867579	-0.296114	-0.045134
C62	C	1.367579	0.203886	0.454866
C63	C	0.820206	-0.335531	-0.092488
C64	C	1.320206	0.164469	0.407512
C65	C	0.772814	-0.296140	-0.139837
C66	C	1.272814	0.203860	0.360163
C67	C	0.772807	-0.217340	-0.139834
C68	C	1.272807	0.282660	0.360166
C69	C	0.810908	-0.460362	-0.155775
C70	C	1.310908	0.039638	0.344225
C71	C	0.810920	-0.539161	-0.155779
C72	C	1.310920	-0.039161	0.344221
C73	C	0.820225	-0.578577	-0.092496
C74	C	1.320225	-0.078577	0.407504
C75	C	0.829533	-0.539185	-0.029207
C76	C	1.329533	-0.039185	0.470793
C77	C	0.829525	-0.460385	-0.029204
C78	C	1.329525	0.039615	0.470796
C79	C	0.820209	-0.420977	-0.092496
C80	C	1.320209	0.079023	0.407504
C81	C	0.867616	-0.703405	-0.045143
C82	C	1.367616	-0.203405	0.454857
C83	C	0.867615	-0.782208	-0.045139
C84	C	1.367615	-0.282208	0.454861
C85	C	0.772853	-0.782233	-0.139848
C86	C	1.272853	-0.282233	0.360152
C87	C	0.772850	-0.703431	-0.139846
C88	C	1.272850	-0.203431	0.360154
C89	C	0.820235	-0.664022	-0.092495
C90	C	1.320235	-0.164022	0.407505
C91	C	0.947220	0.000258	-0.087022
C92	C	1.447220	0.500258	0.412978
C93	C	1.024324	0.000283	-0.088151
C94	C	1.524324	0.500283	0.411849
C95	C	0.825682	0.000209	0.034516
C96	C	1.325682	0.500209	0.534516
C97	C	0.824553	0.000202	0.111620
C98	C	1.324553	0.500202	0.611620
N99	N	0.820241	0.178380	-0.092493
N100	N	1.320241	0.678380	0.407507
C101	C	0.814745	0.000242	-0.219497
C102	C	1.314745	0.500242	0.280503
C103	C	0.815874	0.000254	-0.296601
C104	C	1.315874	0.500254	0.203399
C105	C	0.887321	0.000214	0.156316
C106	C	1.387321	0.500214	0.656316
C107	C	0.886260	0.000226	0.228763
C108	C	1.386260	0.500226	0.728763
C109	C	0.822428	0.000210	0.256511
C110	C	1.322428	0.500210	0.756511
C111	C	0.759652	0.000203	0.211805
C112	C	1.259652	0.500203	0.711805
C113	C	0.760714	0.000198	0.139359
C114	C	1.260714	0.500198	0.639359
C115	C	0.772242	-0.043653	0.364800
C116	C	1.272242	0.456347	0.864800
C117	C	0.771182	-0.043654	0.437245
C118	C	1.271182	0.456346	0.937245
C119	C	0.819148	0.000226	0.479956
C120	C	1.319148	0.500226	0.979956
C121	C	0.868186	0.044097	0.450216
C122	C	1.368186	0.544097	0.950216
C123	C	0.869249	0.044093	0.377771
C124	C	1.369249	0.544093	0.877771
C125	C	0.821269	0.000215	0.335065
C126	C	1.321269	0.500215	0.835065
C127	C	0.880770	0.000252	0.603209
C128	C	1.380770	0.500252	1.103209
C129	C	0.879707	0.000268	0.675657
C130	C	1.379707	0.500268	1.175657
C131	C	0.753097	0.000238	0.658697
C132	C	1.253097	0.500238	1.158697
C133	C	0.754162	0.000229	0.586250
C134	C	1.254162	0.500229	1.086250
C135	C	0.818001	0.000232	0.558511
C136	C	1.318001	0.500232	1.058511
H137	H	0.906158	-0.185228	-0.006579
H138	H	1.406158	0.314772	0.493421
H139	H	0.397755	0.079797	-0.005473
H140	H	0.897755	0.579797	0.494527
N141	N	0.718294	-0.090963	0.469324
N142	N	1.218294	0.409037	0.969324
H143	H	0.743353	-0.128465	0.502805
H144	H	1.243353	0.371535	1.002805
H145	H	0.688074	-0.118706	0.431237
H146	H	1.188074	0.381294	0.931237
N147	N	0.693012	0.000186	0.091146
N148	N	1.193012	0.500186	0.591146
H149	H	0.652411	0.000181	0.119713
H150	H	1.152411	0.500181	0.619713
H151	H	0.690688	-0.046227	0.060730
H152	H	1.190688	0.453773	0.560730
H153	H	0.493322	0.000193	0.020044
H154	H	0.993322	0.500193	0.520044
N155	N	0.690801	0.000177	0.241724
N156	N	1.190801	0.500177	0.741724
H157	H	0.663318	0.046578	0.225401
H158	H	1.163318	0.546578	0.725401
H159	H	0.699707	0.000149	0.294396
H160	H	1.199707	0.500149	0.794396
H161	H	0.909176	0.079815	0.353560
H162	H	1.409176	0.579815	0.853560
H163	H	0.177866	0.000244	0.024674
H164	H	0.677866	0.500244	0.524674
N165	N	0.839583	-0.581694	0.039050
N166	N	1.339583	-0.081694	0.539050
H167	H	0.886241	-0.567963	0.065513
H168	H	1.386241	-0.067963	0.565513
H169	H	0.838142	-0.637575	0.029382
H170	H	1.338142	-0.137575	0.529382
N171	N	0.721696	-0.174858	-0.190899
N172	N	1.221696	0.325142	0.309101
H173	H	0.691682	-0.211783	-0.220896
H174	H	1.191682	0.288217	0.279104
H175	H	0.748184	-0.142141	-0.221540
H176	H	1.248184	0.357859	0.278460
H177	H	0.624756	0.000148	0.018124
H178	H	1.124756	0.500148	0.518124
N179	N	0.800874	-0.417856	-0.224037
N180	N	1.300874	0.082144	0.275963
H181	H	0.843043	-0.385138	-0.228046
H182	H	1.343043	0.114862	0.271954
H183	H	0.757849	-0.385228	-0.225625
H184	H	1.257849	0.114772	0.274375
N185	N	0.918718	-0.660893	0.005927
N186	N	1.418718	-0.160893	0.505927
H187	H	0.948734	-0.697802	0.035926
H188	H	1.448734	-0.197802	0.535926
H189	H	0.892224	-0.628217	0.036566
H190	H	1.392224	-0.128217	0.536566
H191	H	0.906166	-0.328185	-0.006578
H192	H	1.406166	0.171815	0.493422
N193	N	0.839561	-0.417897	0.039051
N194	N	1.339561	0.082103	0.539051
H195	H	0.845458	-0.454818	0.079143
H196	H	1.345458	0.045182	0.579143
H197	H	0.797376	-0.385227	0.042998
H198	H	1.297376	0.114773	0.542998
N199	N	0.720517	-0.090993	0.318729
N200	N	1.220517	0.409007	0.818729
H201	H	0.691129	-0.057414	0.284663
H202	H	1.191129	0.442586	0.784663
H203	H	0.689341	-0.118789	0.348604
H204	H	1.189341	0.381211	0.848604
H205	H	0.593987	0.000202	-0.211580
H206	H	1.093987	0.500202	0.288420
N207	N	0.039110	0.000262	0.043476
N208	N	0.539110	0.500262	0.543476
H209	H	-0.013567	0.000273	0.034626
H210	H	0.486433	0.500273	0.534626
H211	H	0.055499	0.046664	0.070933
H212	H	0.555499	0.546664	0.570933
H213	H	0.266331	0.079822	-0.003548
H214	H	0.766331	0.579822	0.496452
N215	N	0.956172	0.000219	0.126397
N216	N	1.456172	0.500219	0.626397
H217	H	0.995774	0.000229	0.165710
H218	H	1.495774	0.500229	0.665710
H219	H	0.959380	0.046627	0.096699
H220	H	1.459380	0.546627	0.596699
N221	N	0.918735	-0.824689	0.005917
N222	N	1.418735	-0.324689	0.505917
H223	H	0.948756	-0.787763	0.035906
H224	H	1.448756	-0.287763	0.535906
H225	H	0.949348	-0.857352	-0.020618
H226	H	1.449348	-0.357352	0.479382
N227	N	0.949621	0.000256	0.573284
N228	N	1.449621	0.500256	1.073284
H229	H	0.952893	0.046657	0.543587
H230	H	1.452893	0.546657	1.043587
H231	H	0.952827	-0.046189	0.543655
H232	H	1.452827	0.453811	1.043655
N233	N	0.800875	-0.581643	-0.224037
N234	N	1.300875	-0.081643	0.275963
H235	H	0.843047	-0.614312	-0.228063
H236	H	1.343047	-0.114312	0.271937
H237	H	0.794949	-0.544669	-0.264084
H238	H	1.294949	-0.044669	0.235916
N239	N	0.450739	0.000225	-0.226239
N240	N	0.950739	0.500225	0.273761
H241	H	0.479305	0.000228	-0.266840
H242	H	0.979305	0.500228	0.233160
H243	H	0.420341	0.046643	-0.228549
H244	H	0.920341	0.546643	0.271451
H245	H	0.374102	-0.079347	-0.181436
H246	H	0.874102	0.420653	0.318564
H247	H	0.734278	-0.814325	-0.178402
H248	H	1.234278	-0.314325	0.321598
H249	H	0.930822	0.000282	0.712049
H250	H	1.430822	0.500282	1.212049
N251	N	0.721714	-0.338648	-0.190908
N252	N	1.221714	0.161352	0.309092
H253	H	0.728910	-0.394545	-0.183727
H254	H	1.228910	0.105455	0.316273
H255	H	0.729576	-0.324856	-0.240164
H256	H	1.229576	0.175144	0.259836
N257	N	0.721742	-0.660956	-0.190916
N258	N	1.221742	-0.160956	0.309084
H259	H	0.729584	-0.674652	-0.240195
H260	H	1.229584	-0.174652	0.259805
H261	H	0.728947	-0.605069	-0.183671
H262	H	1.228947	-0.105069	0.316329
N263	N	0.231379	-0.090913	-0.192189
N264	N	0.731379	0.409087	0.307811
H265	H	0.180978	-0.084252	-0.184076
H266	H	0.680978	0.415748	0.315924
H267	H	0.244885	-0.145623	-0.185880
H268	H	0.744885	0.354377	0.314120
H269	H	0.907245	0.079829	0.484991
H270	H	1.407245	0.579829	0.984991
N271	N	0.953962	0.000240	0.276984
N272	N	1.453962	0.500240	0.776984
H273	H	0.994563	0.000243	0.248418
H274	H	1.494563	0.500243	0.748418
H275	H	0.956264	-0.046168	0.307419
H276	H	1.456264	0.453832	0.807419
N277	N	0.684244	0.000223	0.688606
N278	N	1.184244	0.500223	1.188606
H279	H	0.680986	0.046632	0.718274
H280	H	1.180986	0.546632	1.218274
H281	H	0.681012	-0.046214	0.718262
H282	H	1.181012	0.453786	1.218262
N283	N	0.154440	0.000283	-0.221897
N284	N	0.654440	0.500283	0.278103
H285	H	0.115129	0.000291	-0.261501
H286	H	0.615129	0.500291	0.238499
H287	H	0.184107	-0.046130	-0.225092
H288	H	0.684107	0.453870	0.274908
N289	N	0.003854	0.000243	-0.219687
N290	N	0.503854	0.500243	0.280313
H291	H	0.032423	0.000230	-0.260286
H292	H	0.532423	0.500230	0.239714
H293	H	-0.026575	0.046639	-0.222037
H294	H	0.473425	0.546639	0.277963
H295	H	0.703049	0.000215	0.549857
H296	H	1.203049	0.500215	1.049857
