data_functionalizedCrystal
_audit_creation_method	'MofGen! by Chris Wilmer'
_symmetry_space_group_name_H-M	'P1'
_symmetry_Int_Tables_number	1
_symmetry_cell_setting	triclinic
loop_
_symmetry_equiv_pos_as_xyz
  x,y,z
_cell_length_a	10.685904
_cell_length_b	14.908178
_cell_length_c	10.686551
_cell_angle_alpha	97.435690
_cell_angle_beta	98.408451
_cell_angle_gamma	97.409762
loop_
_atom_site_label
_atom_site_type_symbol
_atom_site_fract_x
_atom_site_fract_y
_atom_site_fract_z
Zn1	Zn	1.977936	-0.204179	0.848835
Zn2	Zn	2.477936	0.295821	1.348835
Zn3	Zn	1.947072	-0.369210	0.622123
Zn4	Zn	2.447072	0.130790	1.122123
Zn5	Zn	1.747143	-0.229534	0.618079
Zn6	Zn	2.247143	0.270466	1.118079
Zn7	Zn	1.751201	-0.369122	0.818041
Zn8	Zn	2.251201	0.130878	1.318041
O9	O	1.855838	-0.293011	0.726770
O10	O	2.355838	0.206989	1.226770
O11	O	2.152402	-0.215496	0.833342
O12	O	2.652402	0.284504	1.333342
O13	O	1.905935	-0.361330	0.443023
O14	O	2.405935	0.138670	0.943023
O15	O	1.788976	-0.098686	0.659885
O16	O	2.288976	0.401314	1.159885
O17	O	2.129726	-0.336744	0.666777
O18	O	2.629726	0.163256	1.166777
O19	O	1.958539	-0.080058	0.829420
O20	O	2.458539	0.419942	1.329420
O21	O	1.759048	-0.258710	0.440051
O22	O	2.259048	0.241290	0.940051
O23	O	1.569121	-0.258625	0.630024
O24	O	2.069121	0.241375	1.130024
O25	O	1.795894	-0.336594	1.000690
O26	O	2.295894	0.163406	1.500690
O27	O	1.572103	-0.361180	0.776935
O28	O	2.072103	0.138820	1.276935
O29	O	1.962475	-0.215411	1.023315
O30	O	2.462475	0.284589	1.523315
O31	O	1.909871	-0.496683	0.636917
O32	O	2.409871	0.003317	1.136917
O33	O	1.765966	-0.496618	0.780857
O34	O	2.265966	0.003382	1.280857
C35	C	1.524313	-0.312645	0.699700
C36	C	2.024313	0.187355	1.199700
C37	C	1.382486	-0.321065	0.688148
C38	C	1.882486	0.178935	1.188148
C39	C	1.835046	-0.529702	0.706015
C40	C	2.335046	-0.029702	1.206015
C41	C	1.826272	-0.630950	0.697188
C42	C	2.326272	-0.130950	1.197188
C43	C	1.986240	-0.801655	0.857304
C44	C	2.486240	-0.301655	1.357304
C45	C	1.978000	-0.896786	0.849015
C46	C	2.478000	-0.396786	1.349015
C47	C	1.801548	-0.916344	0.672328
C48	C	2.301548	-0.416344	1.172328
C49	C	1.809787	-0.821214	0.680617
C50	C	2.309787	-0.321214	1.180617
C51	C	1.902138	-0.763872	0.773107
C52	C	2.402138	-0.263872	1.273107
C53	C	1.910383	-0.668739	0.781389
C54	C	2.410383	-0.168739	1.281389
C55	C	1.733925	-0.688299	0.604709
C56	C	2.233925	-0.188299	1.104709
C57	C	1.725685	-0.783430	0.596420
C58	C	2.225685	-0.283430	1.096420
C59	C	2.188657	-0.273302	0.753946
C60	C	2.688657	0.226698	1.253946
C61	C	2.330485	-0.264902	0.765527
C62	C	2.830485	0.235098	1.265527
C63	C	1.883080	-0.273164	1.059597
C64	C	2.383080	0.226836	1.559597
C65	C	1.894689	-0.264707	1.201428
C66	C	2.394689	0.235293	1.701428
C67	C	1.876748	-0.055392	0.747636
C68	C	2.376748	0.444608	1.247636
C69	C	1.885658	0.045867	0.756529
C70	C	2.385658	0.545867	1.256529
C71	C	1.828781	-0.312711	0.395249
C72	C	2.328781	0.187289	0.895249
C73	C	1.817442	-0.320897	0.253462
C74	C	2.317442	0.179103	0.753462
H75	H	1.985582	-0.622052	0.856695
H76	H	2.485582	-0.122052	1.356695
N77	N	1.415231	-0.192681	0.865001
N78	N	1.915231	0.307319	1.365001
H79	H	1.469986	-0.150248	0.821407
H80	H	1.969986	0.349752	1.321407
H81	H	1.472026	-0.223082	0.925215
H82	H	1.972026	0.276918	1.425215
H83	H	1.318504	-0.375584	0.613062
H84	H	1.818504	0.124416	1.113062
H85	H	2.061444	-0.754966	0.932604
H86	H	2.561444	-0.254966	1.432604
H87	H	1.969715	-0.210129	1.265392
H88	H	2.469715	0.289871	1.765392
H89	H	1.726355	-0.963048	0.597033
H90	H	2.226355	-0.463048	1.097033
N91	N	1.626096	-0.845282	0.496659
N92	N	2.126096	-0.345282	0.996659
H93	H	1.574070	-0.806908	0.444575
H94	H	2.074070	-0.306908	0.944575
H95	H	1.567820	-0.885184	0.540276
H96	H	2.067820	-0.385184	1.040276
H97	H	1.665446	-0.657526	0.536146
H98	H	2.165446	-0.157526	1.036146
H99	H	2.046479	-0.927544	0.917583
H100	H	2.546479	-0.427544	1.417583
H101	H	1.742429	-0.375477	1.189505
H102	H	2.242429	0.124523	1.689505
