data_functionalizedCrystal
_audit_creation_method	'MofGen! by Chris Wilmer'
_symmetry_space_group_name_H-M	'P1'
_symmetry_Int_Tables_number	1
_symmetry_cell_setting	triclinic
loop_
_symmetry_equiv_pos_as_xyz
  x,y,z
_cell_length_a	9.065218
_cell_length_b	19.188930
_cell_length_c	7.540329
_cell_angle_alpha	89.991297
_cell_angle_beta	89.996962
_cell_angle_gamma	84.080333
loop_
_atom_site_label
_atom_site_type_symbol
_atom_site_fract_x
_atom_site_fract_y
_atom_site_fract_z
O1	O	1.956847	0.102369	-0.147510
O2	O	1.527271	0.110766	-0.147515
O3	O	1.754456	0.005009	-0.147478
O4	O	1.729662	0.208127	-0.147547
O5	O	1.754442	0.005007	0.147487
O6	O	1.527257	0.110765	0.147450
O7	O	1.956833	0.102368	0.147455
Cu8	Cu	1.742044	0.106566	0.174385
Cu9	Cu	1.742060	0.106568	-0.174445
O10	O	1.729649	0.208126	0.147418
C11	C	1.472305	0.109959	-0.000032
C12	C	1.308546	0.107546	-0.000033
C13	C	1.753646	-0.021009	0.000010
C14	C	1.751236	-0.098533	0.000025
C15	C	1.884540	-0.142421	0.000035
C16	C	1.882276	-0.215262	0.000006
C17	C	1.746699	-0.244212	0.000004
C18	C	1.613377	-0.200314	-0.000016
C19	C	1.615646	-0.127474	-0.000006
N20	N	1.643063	-0.353023	0.100385
N21	N	1.640917	-0.422218	0.100379
C22	C	1.739858	-0.463674	-0.000032
N23	N	1.841047	-0.433322	-0.100414
N24	N	1.843197	-0.364120	-0.100400
C25	C	1.744225	-0.323194	-0.000009
C26	C	1.870716	-0.586546	-0.000056
C27	C	1.868446	-0.659388	-0.000095
C28	C	1.599544	-0.644438	-0.000100
C29	C	1.601818	-0.571598	-0.000078
C30	C	1.737408	-0.542656	-0.000048
C31	C	2.011799	0.103176	-0.000032
C32	C	2.175558	0.105589	-0.000043
C33	C	1.730458	0.234144	-0.000074
C34	C	1.732869	0.311667	-0.000101
N35	N	1.742044	0.106565	0.419734
N36	N	1.742072	0.106564	-0.419794
H37	H	1.990832	-0.251003	0.000007
H38	H	1.507089	-0.091740	-0.000013
C39	C	1.466135	-0.231703	-0.000384
C40	C	1.385602	-0.209481	-0.152165
C41	C	1.249960	-0.238389	-0.152587
H42	H	1.411077	-0.216723	0.102352
H43	H	1.483814	-0.281373	-0.000481
H44	H	1.367919	-0.159822	-0.152052
H45	H	1.440615	-0.224461	-0.254926
H46	H	1.267639	-0.288059	-0.152683
H47	H	1.194916	-0.223406	-0.049844
H48	H	1.195308	-0.223321	-0.255575
C49	C	2.018072	-0.555251	-0.000150
C50	C	2.134335	-0.609282	-0.000219
C51	C	2.270099	-0.580483	-0.000337
H52	H	2.024764	-0.527165	0.102687
H53	H	2.024620	-0.527158	-0.103048
H54	H	2.127791	-0.637364	0.102669
H55	H	2.127693	-0.637373	-0.103048
H56	H	2.276647	-0.552389	-0.103236
H57	H	2.276775	-0.552397	0.102501
H58	H	2.349000	-0.617138	-0.000401
H59	H	1.977004	-0.695122	-0.000097
H60	H	1.994948	-0.118862	0.000054
C61	C	1.452493	-0.675995	-0.000023
C62	C	1.479035	-0.749179	0.000004
C63	C	1.343604	-0.778276	0.000087
H64	H	1.397520	-0.661054	-0.102857
H65	H	1.397601	-0.661036	0.102878
H66	H	1.533904	-0.764132	-0.102887
H67	H	1.533986	-0.764139	0.102830
H68	H	1.288712	-0.763317	0.102989
H69	H	1.288641	-0.763330	-0.102748
H70	H	1.361594	-0.827934	0.000122
C71	C	1.457128	-0.523909	-0.000434
C72	C	1.450563	-0.481656	-0.152204
C73	C	1.317281	-0.437724	-0.152611
H74	H	1.452274	-0.495127	0.102310
H75	H	1.376015	-0.551558	-0.000536
H76	H	1.531653	-0.454010	-0.152086
H77	H	1.455391	-0.510420	-0.254972
H78	H	1.236169	-0.465373	-0.152713
H79	H	1.312439	-0.408946	-0.049861
H80	H	1.312803	-0.409055	-0.255592
