data_functionalizedCrystal
_audit_creation_method	'MofGen! by Chris Wilmer'
_symmetry_space_group_name_H-M	'P1'
_symmetry_Int_Tables_number	1
_symmetry_cell_setting	triclinic
loop_
_symmetry_equiv_pos_as_xyz
  x,y,z
_cell_length_a	27.440280
_cell_length_b	16.704479
_cell_length_c	27.440280
_cell_angle_alpha	63.433160
_cell_angle_beta	90.008003
_cell_angle_gamma	56.629878
loop_
_atom_site_label
_atom_site_type_symbol
_atom_site_fract_x
_atom_site_fract_y
_atom_site_fract_z
Zr1	Zr	0.442047	0.878478	-0.036439
O2	O	0.358993	1.045932	-0.109026
O3	O	0.471136	0.711025	-0.017816
O4	O	0.465902	0.878459	-0.114246
O5	O	0.364228	0.878513	0.067599
O6	O	0.546105	0.878443	-0.114237
O7	O	0.364227	0.878498	-0.012595
O8	O	0.555468	0.578935	0.058260
O9	O	0.354865	1.178022	-0.104898
O10	O	0.539013	0.779889	-0.005482
O11	O	0.479158	0.779912	0.054359
O12	O	0.472996	0.977044	-0.059176
O13	O	0.413142	0.977067	0.000665
Zr14	Zr	0.569963	0.878478	0.091476
Zr15	Zr	0.569962	0.878454	-0.036424
Zr16	Zr	0.442048	0.878503	0.091461
Zr17	Zr	0.435463	1.089147	-0.029856
Zr18	Zr	0.576546	0.667810	0.084893
O19	O	0.540874	1.045932	0.072853
O20	O	0.540872	1.045897	-0.109004
O21	O	0.358995	1.045967	0.072832
O22	O	0.653016	0.711025	0.164063
O23	O	0.653015	0.710990	-0.017794
O24	O	0.471137	0.711060	0.164041
O25	O	0.647781	0.878443	-0.012561
O26	O	0.546108	0.878498	0.169284
O27	O	0.465904	0.878513	0.169274
O28	O	0.647782	0.878459	0.067633
O29	O	0.456541	1.178002	-0.104886
O30	O	0.555469	0.578954	0.159923
O31	O	0.657144	0.578935	0.159935
O32	O	0.657143	0.578915	0.058272
O33	O	0.354866	1.178042	-0.003235
O34	O	0.456542	1.178022	-0.003222
O35	O	0.539014	0.779912	0.114213
O36	O	0.598868	0.779889	0.054373
O37	O	0.532851	0.977044	0.000679
O38	O	0.472997	0.977067	0.060519
C39	C	0.514240	0.614964	0.019284
C40	C	0.517035	0.525530	0.016489
C41	C	0.552214	0.399464	-0.018684
C42	C	0.549590	0.483495	-0.016060
C43	C	0.487100	0.483529	0.046416
C44	C	0.489724	0.399497	0.043792
C45	C	0.522283	0.357467	0.011242
C46	C	0.524910	0.273428	0.008622
C47	C	0.462416	0.273469	0.071094
C48	C	0.459792	0.357500	0.073717
C49	C	0.346003	0.878509	0.027500
C50	C	0.291699	0.878520	0.027493
C51	C	-0.010536	0.775547	0.055562
C52	C	-0.061555	0.775540	0.055567
O53	O	-0.058636	0.688017	0.079422
N54	N	-0.121531	0.878452	0.027539
C55	C	-0.130489	0.981377	-0.000491
O56	O	-0.186189	1.068911	-0.024331
C57	C	-0.079472	0.981382	-0.000493
C58	C	-0.019495	0.878463	0.027533
C59	C	0.049437	0.672637	0.083586
C60	C	0.100452	0.672643	0.083580
C61	C	0.091493	0.775560	0.055550
C62	C	0.031519	0.878470	0.027527
C63	C	-0.088430	1.084305	-0.028519
C64	C	-0.037406	1.084302	-0.028518
C65	C	0.022570	0.981383	-0.000492
C66	C	0.073575	0.981394	-0.000509
N67	N	0.133552	0.878482	0.027519
C68	C	0.142511	0.775565	0.055549
C69	C	-0.237627	0.981358	-0.000486
C70	C	-0.288645	0.981354	-0.000488
C71	C	-0.219706	0.775518	0.055572
C72	C	-0.168689	0.775523	0.055570
C73	C	-0.177651	0.878447	0.027543
C74	C	0.249642	0.775587	0.055533
C75	C	0.300658	0.775603	0.055523
C76	C	0.231716	0.981439	-0.000534
C77	C	0.180704	0.981424	-0.000526
C78	C	0.189672	0.878489	0.027512
O79	O	0.070703	1.068872	-0.024350
O80	O	0.198211	0.688046	0.079390
C81	C	0.666007	0.878447	0.027538
C82	C	0.720310	0.878437	0.027544
C83	C	0.506003	0.878447	-0.132465
C84	C	0.506003	0.878437	-0.186762
C85	C	0.497770	1.141993	0.035753
C86	C	0.494975	1.231427	0.038548
C87	C	0.471549	0.981410	-0.551522
C88	C	0.471551	0.981416	-0.602544
O89	O	0.442262	1.068939	-0.652768
N90	N	0.506010	0.878504	-0.600033
C91	C	0.540474	0.775580	-0.546496
O92	O	0.569785	0.688046	-0.549046
C93	C	0.540476	0.775575	-0.495476
C94	C	0.506010	0.878493	-0.497990
C95	C	0.437087	1.084320	-0.554034
C96	C	0.437085	1.084313	-0.503015
C97	C	0.471545	0.981396	-0.449484
C98	C	0.506008	0.878486	-0.446972
C99	C	0.574943	0.672651	-0.441940
C100	C	0.574942	0.672655	-0.390918
C101	C	0.540476	0.775573	-0.393433
C102	C	0.540466	0.775563	-0.342422
N103	N	0.506007	0.878475	-0.344932
C104	C	0.471546	0.981391	-0.398463
C105	C	0.540469	0.775598	-0.653646
C106	C	0.540465	0.775602	-0.704665
C107	C	0.471542	0.981439	-0.760709
C108	C	0.471544	0.981434	-0.709688
C109	C	0.506010	0.878510	-0.656156
C110	C	0.471544	0.981370	-0.291318
C111	C	0.471543	0.981354	-0.240293
C112	C	0.540467	0.775518	-0.184254
C113	C	0.540466	0.775533	-0.235275
C114	C	0.506003	0.878468	-0.288808
O115	O	0.569741	0.688084	-0.292177
O116	O	0.442247	1.068910	-0.395903
C117	C	0.506006	0.878509	0.187502
C118	C	0.506007	0.878520	0.241799
C119	C	0.674242	0.614933	0.019303
C120	C	0.731340	0.525488	0.016515
C121	C	0.514241	0.614995	0.179267
C122	C	0.517037	0.525571	0.230770
C123	C	0.674243	0.614964	0.179286
C124	C	0.731342	0.525530	0.230795
C125	C	0.337766	1.141993	-0.124249
C126	C	0.280667	1.231427	-0.175758
C127	C	0.337767	1.142024	0.035734
C128	C	0.280669	1.231468	0.038523
C129	C	0.497768	1.141962	-0.124230
C130	C	0.494973	1.231386	-0.175732
C131	C	0.726910	0.483484	-0.016044
C132	C	0.780555	0.399453	-0.018675
C133	C	0.838629	0.357421	0.011256
C134	C	0.843058	0.399434	0.043815
C135	C	0.789413	0.483469	0.046443
C136	C	0.549593	0.483577	0.286204
C137	C	0.552217	0.399565	0.334601
C138	C	0.522288	0.357544	0.327562
C139	C	0.489727	0.399546	0.272121
C140	C	0.487100	0.483562	0.223726
C141	C	0.789405	0.483518	0.223748
C142	C	0.843060	0.399497	0.272141
C143	C	0.838650	0.357483	0.327581
C144	C	0.780581	0.399502	0.334627
C145	C	0.726928	0.483528	0.286235
C146	C	0.222604	1.273449	-0.168710
C147	C	0.168949	1.357496	-0.217103
C148	C	0.173358	1.399515	-0.272542
C149	C	0.231427	1.357490	-0.279589
C150	C	0.285081	1.273449	-0.231197
C151	C	0.285099	1.273481	0.071076
C152	C	0.231454	1.357536	0.073694
C153	C	0.173379	1.399570	0.043762
C154	C	0.168951	1.357554	0.011204
C155	C	0.222596	1.273506	0.008583
C156	C	0.524909	1.273380	-0.168674
C157	C	0.522295	1.357392	-0.217062
C158	C	0.489740	1.399414	-0.272506
C159	C	0.459803	1.357411	-0.279563
C160	C	0.462421	1.273395	-0.231176
H161	H	0.349494	0.691791	0.078346
H162	H	0.793007	0.517714	0.178610
H163	H	0.438041	1.239212	-0.236931
H164	H	0.235071	1.391732	0.100208
F165	F	0.107139	1.402299	-0.020648
H166	H	0.546672	1.391582	-0.211304
H167	H	0.777001	0.365282	0.379773
F168	F	0.116249	1.488958	-0.324041
H169	H	0.332357	1.239236	-0.236942
H170	H	0.568523	0.691728	-0.233226
H171	H	0.433297	1.391638	-0.324712
F172	F	0.425141	0.402243	0.108357
F173	F	0.430555	0.228771	0.102942
F174	F	0.665135	0.528225	0.293744
H175	H	0.603011	0.588840	-0.347331
F176	F	0.116871	1.090960	-0.030365
F177	F	0.581453	0.528280	0.293709
H178	H	0.793029	0.517658	0.072959
F179	F	0.525090	0.268125	0.379075
H180	H	0.882344	0.289063	0.366980
F181	F	0.775829	0.354751	-0.053328
H182	H	-0.337476	1.065161	-0.023317
F183	F	0.217898	1.228742	-0.109711
H184	H	0.551419	1.239179	-0.123533
F185	F	0.586875	0.354875	0.393600
F186	F	0.904855	0.354788	0.264630
H187	H	0.121672	1.391699	-0.211354
F188	F	0.236110	1.402218	-0.338596
H189	H	0.465360	0.365320	0.266398
F190	F	0.486957	1.488835	-0.323998
H191	H	0.409025	1.168132	-0.597618
H192	H	0.460587	0.517772	0.072912
F193	F	0.665109	0.528204	-0.047905
H194	H	0.460591	0.517743	0.178590
H195	H	0.256953	0.691767	0.078365
F196	F	0.577139	0.665992	-0.127274
H197	H	0.882305	0.288993	0.009112
H198	H	0.332381	1.239264	0.095455
F199	F	0.164279	0.563102	0.113412
F200	F	0.116291	1.489021	0.046557
F201	F	0.217872	1.228796	-0.026063
F202	F	-0.152253	1.193847	-0.058344
F203	F	0.058985	0.563089	0.113423
H204	H	0.578730	0.365234	-0.045183
H205	H	0.551423	0.239204	-0.017880
F206	F	-0.210180	0.665983	0.085404
F207	F	0.581446	0.528192	-0.047912
F208	F	-0.247175	1.090912	-0.030323
F209	F	-0.104860	0.665984	0.085399
F210	F	-0.046951	1.193851	-0.058348
H211	H	0.224432	1.065231	-0.023357
H212	H	0.443482	1.065240	-0.804305
F213	F	0.904870	0.354687	0.075669
H214	H	0.443481	1.065189	-0.334902
F215	F	0.400393	1.193854	-0.505700
F216	F	0.434853	1.090898	-0.242975
H217	H	0.443478	1.065239	-0.711742
H218	H	0.568523	0.691796	-0.702611
H219	H	0.568534	0.691780	-0.610058
F220	F	0.611627	0.563109	-0.439250
