data_functionalizedCrystal
_audit_creation_method	'MofGen! by Chris Wilmer'
_symmetry_space_group_name_H-M	'P1'
_symmetry_Int_Tables_number	1
_symmetry_cell_setting	triclinic
loop_
_symmetry_equiv_pos_as_xyz
  x,y,z
_cell_length_a	12.594517
_cell_length_b	12.594516
_cell_length_c	19.805399
_cell_angle_alpha	90.020797
_cell_angle_beta	90.009091
_cell_angle_gamma	90.011939
loop_
_atom_site_label
_atom_site_type_symbol
_atom_site_fract_x
_atom_site_fract_y
_atom_site_fract_z
Zn1	Zn	1.627242	-0.423884	0.382562
Zn2	Zn	1.627140	-0.601877	0.269387
Zn3	Zn	1.449253	-0.423900	0.269408
Zn4	Zn	1.449228	-0.601808	0.382555
O5	O	1.538216	-0.512867	0.325978
O6	O	1.776174	-0.447517	0.367544
O7	O	1.603511	-0.578304	0.174673
O8	O	1.472917	-0.274952	0.284429
O9	O	1.776099	-0.578288	0.284395
O10	O	1.603684	-0.274940	0.367564
O11	O	1.472818	-0.447545	0.174688
O12	O	1.300304	-0.447478	0.284422
O13	O	1.472874	-0.578170	0.477272
O14	O	1.300285	-0.578186	0.367551
O15	O	1.603660	-0.447450	0.477278
O16	O	1.603487	-0.750814	0.284388
O17	O	1.472775	-0.750763	0.367531
C18	C	1.261675	-0.512827	0.325988
C19	C	1.143369	-0.512835	0.326009
C20	C	1.074137	-0.584067	0.371135
C21	C	1.003327	-0.487023	0.387780
C22	C	1.003380	-0.609959	0.309349
C23	C	1.074118	-0.415740	0.342686
C24	C	1.074177	-0.538742	0.264226
C25	C	1.003399	-0.441631	0.280847
C26	C	1.538146	-0.789408	0.325971
C27	C	1.538214	-0.907714	0.325991
C28	C	1.467113	-0.976978	0.371181
C29	C	1.441183	-1.047832	0.309422
C30	C	1.564240	-1.047658	0.387761
C31	C	1.512233	-0.977010	0.264199
C32	C	1.635334	-0.976830	0.342580
C33	C	1.609442	-1.047652	0.280778
C34	C	1.815837	-0.512908	0.325968
C35	C	1.934142	-0.512926	0.325964
C36	C	1.538275	-0.512800	0.502521
C37	C	1.538301	-0.512772	0.577753
C38	C	1.538315	-0.235246	0.325999
C39	C	1.538357	-0.116941	0.326009
C40	C	1.538218	-0.512857	0.150122
C41	C	1.538398	-0.512586	0.074890
C42	C	1.606403	-0.444702	0.613101
C43	C	1.606414	-0.444671	0.683789
C44	C	1.538327	-0.512716	0.719128
C45	C	1.470218	-0.580788	0.683775
C46	C	1.470202	-0.580813	0.613088
C47	C	1.470278	-0.580689	0.968849
C48	C	1.470301	-0.580661	1.039541
C49	C	1.606489	-0.444548	1.039550
C50	C	1.606474	-0.444572	0.968863
C51	C	1.538361	-0.512640	0.933516
C52	C	1.538348	-0.512671	0.856867
C53	C	1.538344	-0.512691	0.795776
H54	H	1.105321	-0.560650	0.212012
O55	O	1.672393	-0.378547	0.578702
C56	C	1.611806	-0.309789	0.537834
H57	H	1.531131	-0.347325	0.527237
H58	H	1.655155	-0.295540	0.488130
H59	H	1.600139	-0.230903	0.565086
O60	O	0.966690	-0.369806	0.235215
C61	C	1.004358	-0.396372	0.170338
H62	H	1.079293	-0.446547	0.175192
H63	H	1.023302	-0.320651	0.141207
H64	H	0.940939	-0.443395	0.142155
O65	O	1.395326	-0.940075	0.416791
C66	C	1.421861	-0.977595	0.481698
H67	H	1.471967	-1.052591	0.476907
H68	H	1.346126	-0.996392	0.510859
H69	H	1.468946	-0.914146	0.509814
O70	O	1.343211	-1.084993	0.292797
C71	C	1.268408	-1.048970	0.340547
H72	H	1.310675	-1.029031	0.389851
H73	H	1.207000	-1.113789	0.350011
H74	H	1.227060	-0.974965	0.320391
H75	H	1.490183	-0.946105	0.211954
O76	O	1.672799	-0.378528	1.073857
C77	C	1.778868	-0.401799	1.056572
H78	H	1.784205	-0.486839	1.037136
H79	H	1.831466	-0.392618	1.103059
H80	H	1.806703	-0.344757	1.015544
H81	H	1.105200	-0.644188	0.409346
O82	O	1.681127	-1.084401	0.235055
C83	C	1.653383	-1.048187	0.170051
H84	H	1.565064	-1.028504	0.168720
H85	H	1.671328	-1.112790	0.131372
H86	H	1.701323	-0.973985	0.157497
H87	H	1.717382	-0.945621	0.356626
O88	O	0.966236	-0.461098	0.450127
C89	C	1.002288	-0.536333	0.497578
H90	H	1.022185	-0.613768	0.470582
H91	H	0.937505	-0.551370	0.536616
H92	H	1.076326	-0.504699	0.523907
O93	O	0.966427	-0.707978	0.292638
C94	C	1.002443	-0.782764	0.340387
H95	H	1.076964	-0.751255	0.366214
H96	H	1.021531	-0.860732	0.313775
H97	H	0.937960	-0.796780	0.379781
O98	O	1.404052	-0.646793	1.073766
C99	C	1.343947	-0.706894	1.027411
H100	H	1.340263	-0.663318	0.977026
H101	H	1.260088	-0.718219	1.047838
H102	H	1.382884	-0.787745	1.019886
O103	O	1.590501	-1.084503	0.450102
C104	C	1.607834	-0.998032	0.493976
H105	H	1.628933	-0.924550	0.463177
H106	H	1.675908	-1.017552	0.529824
H107	H	1.532679	-0.982072	0.524404
H108	H	1.661871	-0.389245	0.712567
O109	O	1.672498	-0.378314	0.934570
C110	C	1.649284	-0.272228	0.951872
H111	H	1.564258	-0.266846	0.971302
H112	H	1.658459	-0.219652	0.905394
H113	H	1.706363	-0.244402	0.992910
H114	H	1.414832	-0.636130	0.940078
H115	H	1.414777	-0.636188	0.712554
O116	O	1.404028	-0.647050	0.578853
C117	C	1.343924	-0.707092	0.625201
H118	H	1.387525	-0.710754	0.675591
H119	H	1.332552	-0.790962	0.604772
H120	H	1.263095	-0.668113	0.632716
H121	H	1.105061	-0.333618	0.356817
