data_functionalizedCrystal
_audit_creation_method	'MofGen! by Chris Wilmer'
_symmetry_space_group_name_H-M	'P1'
_symmetry_Int_Tables_number	1
_symmetry_cell_setting	triclinic
loop_
_symmetry_equiv_pos_as_xyz
  x,y,z
_cell_length_a	13.897449
_cell_length_b	21.295417
_cell_length_c	13.897441
_cell_angle_alpha	90.036423
_cell_angle_beta	90.023394
_cell_angle_gamma	90.031333
loop_
_atom_site_label
_atom_site_type_symbol
_atom_site_fract_x
_atom_site_fract_y
_atom_site_fract_z
Zn1	Zn	1.474617	-0.250575	0.545411
Zn2	Zn	1.974617	0.249425	1.045411
Zn3	Zn	1.474475	-0.355854	0.384096
Zn4	Zn	1.974475	0.144146	0.884096
Zn5	Zn	1.313306	-0.250604	0.384121
Zn6	Zn	1.813306	0.249396	0.884121
Zn7	Zn	1.313252	-0.355812	0.545341
Zn8	Zn	1.813252	0.144188	1.045341
O9	O	1.393912	-0.303211	0.464742
O10	O	1.893912	0.196789	0.964742
O11	O	1.609580	-0.264546	0.524030
O12	O	2.109580	0.235454	1.024030
O13	O	1.453059	-0.341922	0.249117
O14	O	1.953059	0.158078	0.749117
O15	O	1.334786	-0.162511	0.405557
O16	O	1.834786	0.337489	0.905557
O17	O	1.609475	-0.341894	0.405513
O18	O	2.109475	0.158106	0.905513
O19	O	1.453301	-0.162490	0.524055
O20	O	1.953301	0.337510	1.024055
O21	O	1.334649	-0.264596	0.249136
O22	O	1.834649	0.235404	0.749136
O23	O	1.178317	-0.264555	0.405489
O24	O	1.678317	0.235445	0.905489
O25	O	1.334694	-0.341822	0.680332
O26	O	1.834694	0.158178	1.180332
O27	O	1.178277	-0.341851	0.523936
O28	O	1.678277	0.158149	1.023936
O29	O	1.453248	-0.264505	0.680383
O30	O	1.953248	0.235495	1.180383
O31	O	1.453006	-0.443938	0.405445
O32	O	1.953006	0.056062	0.905445
O33	O	1.334556	-0.443907	0.523911
O34	O	1.834556	0.056093	1.023911
C35	C	1.143298	-0.303202	0.464708
C36	C	1.643298	0.196798	0.964708
C37	C	1.036084	-0.303213	0.464717
C38	C	1.536084	0.196787	0.964717
C39	C	0.949014	-0.303215	0.464733
C40	C	1.449014	0.196785	0.964733
C41	C	0.839782	-0.303219	0.464762
C42	C	1.339782	0.196781	0.964762
C43	C	1.393786	-0.466763	0.464689
C44	C	1.893786	0.033237	0.964689
C45	C	1.393820	-0.536731	0.464698
C46	C	1.893820	-0.036731	0.964698
C47	C	1.455552	-0.569593	0.403076
C48	C	1.955552	-0.069593	0.903076
C49	C	1.455597	-0.635336	0.403098
C50	C	1.955597	-0.135336	0.903098
C51	C	1.393893	-0.668214	0.464731
C52	C	1.893893	-0.168214	0.964731
C53	C	1.332157	-0.635344	0.526365
C54	C	1.832157	-0.135344	1.026365
C55	C	1.332120	-0.569603	0.526349
C56	C	1.832120	-0.069603	1.026349
N57	N	1.309512	-0.771480	0.472074
N58	N	1.809512	-0.271480	0.972074
N59	N	1.309550	-0.833931	0.472084
N60	N	1.809550	-0.333931	0.972084
C61	C	1.394001	-0.866288	0.464787
C62	C	1.894001	-0.366288	0.964787
N63	N	1.478416	-0.833835	0.457460
N64	N	1.978416	-0.333835	0.957460
N65	N	1.478377	-0.771378	0.457445
N66	N	1.978377	-0.271378	0.957445
C67	C	1.393926	-0.739499	0.464757
C68	C	1.893926	-0.239499	0.964757
C69	C	1.455787	-0.970436	0.403185
C70	C	1.955787	-0.470436	0.903185
C71	C	1.455834	-1.036179	0.403213
C72	C	1.955834	-0.536179	0.903213
C73	C	1.332386	-1.036187	0.526476
C74	C	1.832386	-0.536187	1.026476
C75	C	1.332347	-0.970444	0.526453
C76	C	1.832347	-0.470444	1.026453
C77	C	1.394047	-0.937573	0.464802
C78	C	1.894047	-0.437573	0.964802
C79	C	1.645505	-0.303222	0.464776
C80	C	2.145505	0.196778	0.964776
C81	C	1.752719	-0.303226	0.464791
C82	C	2.252719	0.196774	0.964791
C83	C	1.393981	-0.303156	0.716335
C84	C	1.893981	0.196844	1.216335
C85	C	1.394010	-0.303132	0.823549
C86	C	1.894010	0.196868	1.323549
C87	C	1.394065	-0.139021	0.464817
C88	C	1.894065	0.360979	0.964817
C89	C	1.394131	-0.069053	0.464849
C90	C	1.894131	0.430947	0.964849
C91	C	1.393900	-0.303221	0.214128
C92	C	1.893900	0.196779	0.714128
C93	C	1.394057	-0.303068	0.106914
C94	C	1.894057	0.196932	0.606914
C95	C	1.394036	-0.303090	1.019845
C96	C	1.894036	0.196910	1.519845
C97	C	1.394018	-0.303115	0.910612
C98	C	1.894018	0.196885	1.410612
H99	H	1.505793	-0.542831	0.352879
H100	H	2.005793	-0.042831	0.852879
H101	H	1.281850	-0.542846	0.576530
H102	H	1.781850	-0.042846	1.076530
H103	H	1.506030	-0.943671	0.352988
H104	H	2.006030	-0.443671	0.852988
H105	H	1.505870	-0.662097	0.352918
H106	H	2.005870	-0.162097	0.852918
H107	H	1.281919	-0.662117	0.576550
H108	H	1.781919	-0.162117	1.076550
H109	H	1.282149	-1.062955	0.576664
H110	H	1.782149	-0.562955	1.076664
H111	H	1.506109	-1.062935	0.353035
H112	H	2.006109	-0.562935	0.853035
H113	H	1.282075	-0.943686	0.576627
H114	H	1.782075	-0.443686	1.076627
