data_functionalizedCrystal
_audit_creation_method	'MofGen! by Chris Wilmer'
_symmetry_space_group_name_H-M	'P1'
_symmetry_Int_Tables_number	1
_symmetry_cell_setting	triclinic
loop_
_symmetry_equiv_pos_as_xyz
  x,y,z
_cell_length_a	10.654549
_cell_length_b	19.288865
_cell_length_c	9.130313
_cell_angle_alpha	90.009742
_cell_angle_beta	90.002502
_cell_angle_gamma	83.810512
loop_
_atom_site_label
_atom_site_type_symbol
_atom_site_fract_x
_atom_site_fract_y
_atom_site_fract_z
O1	O	1.665751	0.097553	0.121784
O2	O	1.300074	0.106848	0.121797
O3	O	1.493479	0.001140	0.121761
O4	O	1.472346	0.203262	0.121820
O5	O	1.493466	0.001136	-0.121838
O6	O	1.300061	0.106845	-0.121802
O7	O	1.665738	0.097550	-0.121814
Cu8	Cu	1.482898	0.102197	-0.144051
Cu9	Cu	1.482914	0.102201	0.144033
O10	O	1.472333	0.203259	-0.121779
C11	C	1.253284	0.106164	-0.000002
C12	C	1.113885	0.104122	0.000002
C13	C	0.902079	0.164438	0.000013
C14	C	1.033058	0.166362	0.000023
C15	C	1.063726	0.039955	-0.000014
C16	C	0.932749	0.038032	-0.000013
C17	C	1.492793	-0.024743	-0.000043
C18	C	1.490751	-0.101860	-0.000055
C19	C	1.604233	-0.145813	-0.000066
C20	C	1.602315	-0.218273	-0.000043
C21	C	1.486910	-0.246776	-0.000038
C22	C	1.373413	-0.202813	-0.000019
C23	C	1.375334	-0.130355	-0.000028
C24	C	1.396183	-0.355658	-0.085363
C25	C	1.394267	-0.428115	-0.085363
C26	C	1.480980	-0.470260	-0.000005
C27	C	1.569631	-0.439941	0.085334
C28	C	1.571552	-0.367483	0.085326
C29	C	1.484814	-0.325344	-0.000028
C30	C	1.592390	-0.592783	0.000011
C31	C	1.590468	-0.665244	0.000043
C32	C	1.361563	-0.649782	0.000052
C33	C	1.363488	-0.577323	0.000035
C34	C	1.478905	-0.548828	0.000007
C35	C	1.712528	0.098234	-0.000013
C36	C	1.851928	0.100276	-0.000007
C37	C	1.473020	0.229141	0.000028
C38	C	1.475061	0.306258	0.000050
N39	N	1.482897	0.102194	-0.346673
C40	C	1.568565	0.055407	-0.423341
C41	C	1.568577	0.055407	-0.576678
C42	C	1.397248	0.148989	-0.576666
C43	C	1.397231	0.148985	-0.423332
N44	N	1.482926	0.102199	0.346656
H45	H	0.836277	0.215121	0.000019
O46	O	1.304872	0.199459	-0.659357
H47	H	1.320558	0.253685	-0.629880
O48	O	1.660990	0.004944	-0.659356
H49	H	1.608344	-0.029095	-0.729230
O50	O	1.304832	0.199453	-0.340623
H51	H	1.245280	0.231997	-0.419686
H52	H	0.891917	-0.014220	-0.000024
O53	O	1.087155	0.235565	0.000020
H54	H	1.008947	0.278520	0.000008
O55	O	1.660938	0.004924	-0.340675
H56	H	1.608247	-0.029103	-0.270852
O57	O	1.728719	-0.115084	-0.000056
H58	H	1.783236	-0.132712	-0.099334
O59	O	1.150894	-0.027178	-0.000050
H60	H	1.250397	-0.015063	-0.000069
H61	H	1.694728	-0.254066	-0.000046
H62	H	1.643732	-0.342799	0.154815
O63	O	1.663163	-0.485384	0.177420
H64	H	1.646926	-0.540861	0.163110
H65	H	1.686369	-0.569581	-0.000005
H66	H	1.682882	-0.701031	0.000042
H67	H	1.267597	-0.672989	0.000064
H68	H	1.271079	-0.541535	0.000036
H69	H	1.322076	-0.452795	-0.154843
O70	O	1.302656	-0.310203	-0.177440
H71	H	1.240707	-0.343458	-0.236798
O72	O	1.248940	-0.233553	-0.000033
H73	H	1.242596	-0.266193	0.099245
O74	O	1.252933	-0.082941	-0.000041
H75	H	1.172358	-0.114930	-0.000045
