data_functionalizedCrystal
_audit_creation_method	'MofGen! by Chris Wilmer'
_symmetry_space_group_name_H-M	'P1'
_symmetry_Int_Tables_number	1
_symmetry_cell_setting	triclinic
loop_
_symmetry_equiv_pos_as_xyz
  x,y,z
_cell_length_a	10.654562
_cell_length_b	17.699083
_cell_length_c	9.130313
_cell_angle_alpha	90.002131
_cell_angle_beta	90.003070
_cell_angle_gamma	83.886559
loop_
_atom_site_label
_atom_site_type_symbol
_atom_site_fract_x
_atom_site_fract_y
_atom_site_fract_z
O1	O	1.665963	0.106345	0.121899
O2	O	1.300310	0.116463	0.121881
O3	O	1.493467	0.001281	0.121878
O4	O	1.472806	0.221527	0.121902
O5	O	1.493465	0.001284	-0.121721
O6	O	1.300307	0.116466	-0.121718
O7	O	1.665961	0.106348	-0.121700
Cu8	Cu	1.483134	0.111407	-0.143951
Cu9	Cu	1.483137	0.111404	0.144132
O10	O	1.472804	0.221530	-0.121697
C11	C	1.253524	0.115719	0.000079
C12	C	1.114120	0.113491	0.000072
C13	C	1.048607	0.112453	-0.132702
C14	C	0.917621	0.110365	-0.132678
C15	C	0.917674	0.110356	0.132907
C16	C	1.048658	0.112438	0.132881
C17	C	1.048574	0.112461	-0.286036
C18	C	0.917589	0.110373	-0.286012
C19	C	1.492726	-0.026920	0.000078
C20	C	1.490505	-0.110952	0.000077
C21	C	1.603884	-0.158849	0.000081
C22	C	1.601790	-0.237806	0.000093
C23	C	1.486315	-0.268864	0.000092
C24	C	1.372927	-0.220961	0.000093
C25	C	1.375022	-0.142005	0.000091
C26	C	1.364472	-0.539378	0.000105
C27	C	1.362385	-0.618339	0.000103
C28	C	1.591240	-0.635178	0.000107
C29	C	1.593335	-0.556223	0.000105
C30	C	1.479948	-0.508326	0.000114
C31	C	1.482220	-0.422713	0.000102
C32	C	1.484041	-0.354476	0.000093
C33	C	1.712747	0.107091	0.000105
C34	C	1.852150	0.109320	0.000122
C35	C	1.473545	0.249730	0.000106
C36	C	1.475766	0.333763	0.000117
N37	N	1.483141	0.111409	-0.346574
C38	C	1.568693	0.060424	-0.423228
C39	C	1.568689	0.060415	-0.576564
C40	C	1.397579	0.162383	-0.576581
C41	C	1.397577	0.162388	-0.423247
C42	C	1.667486	0.001556	-0.423219
C43	C	1.667483	0.001547	-0.576556
N44	N	1.483140	0.111395	0.346755
H45	H	1.101997	0.113272	0.240998
F46	F	0.880157	0.038288	-0.348456
H47	H	1.278905	-0.246254	0.000102
F48	F	1.254348	-0.091030	0.000092
F49	F	1.085974	0.184608	-0.348214
F50	F	0.847995	0.109228	0.274243
H51	H	1.327914	0.203888	-0.639024
F52	F	1.640790	-0.074479	-0.368822
H53	H	1.327903	0.203897	-0.360837
F54	F	1.793332	0.018494	-0.630951
H55	H	1.095749	0.060158	-0.344925
H56	H	0.870386	0.162680	-0.344871
H57	H	1.637932	-0.053427	-0.624111
H58	H	1.697917	-0.133568	0.000073
H59	H	1.687367	-0.530940	0.000099
F60	F	1.722464	-0.288778	0.000095
F61	F	1.711918	-0.686159	0.000103
H62	H	1.268346	-0.643623	0.000099
H63	H	1.758347	0.019992	-0.375654
F64	F	1.243795	-0.488413	0.000118
