data_functionalizedCrystal
_audit_creation_method	'MofGen! by Chris Wilmer'
_symmetry_space_group_name_H-M	'P1'
_symmetry_Int_Tables_number	1
_symmetry_cell_setting	triclinic
loop_
_symmetry_equiv_pos_as_xyz
  x,y,z
_cell_length_a	10.654550
_cell_length_b	9.065218
_cell_length_c	9.130313
_cell_angle_alpha	89.997322
_cell_angle_beta	89.999724
_cell_angle_gamma	84.750408
loop_
_atom_site_label
_atom_site_type_symbol
_atom_site_fract_x
_atom_site_fract_y
_atom_site_fract_z
O1	O	1.668660	0.207235	-0.121684
O2	O	1.303260	0.226979	-0.121710
O3	O	1.493513	0.002423	-0.121693
O4	O	1.478407	0.431791	-0.121700
O5	O	1.493500	0.002417	0.121906
O6	O	1.303247	0.226972	0.121889
O7	O	1.668647	0.207228	0.121915
Cu8	Cu	1.485946	0.217100	0.144145
Cu9	Cu	1.485961	0.217107	-0.143939
O10	O	1.478394	0.431784	0.121899
C11	C	1.256450	0.225526	0.000086
C12	C	1.116989	0.221188	0.000076
C13	C	1.038027	0.353403	0.000078
C14	C	0.906990	0.349319	0.000104
C15	C	0.933890	0.080794	0.000119
C16	C	1.064924	0.084879	0.000104
C17	C	1.492055	-0.052559	0.000104
C18	C	1.487714	-0.216378	0.000096
C19	C	1.715457	0.208681	0.000116
C20	C	1.854918	0.213019	0.000117
C21	C	1.479852	0.486766	0.000098
C22	C	1.484193	0.650585	0.000096
N23	N	1.485944	0.217093	0.346767
N24	N	1.485973	0.217102	-0.346562
C25	C	1.570217	0.117702	0.423427
C26	C	1.570229	0.117703	0.576763
C27	C	1.401691	0.316498	0.576768
C28	C	1.401674	0.316489	0.423434
H29	H	1.080414	0.464395	0.000066
H30	H	1.333043	0.397426	0.361014
O31	O	1.661088	0.010486	0.340728
H32	H	1.719680	-0.058637	0.419802
O33	O	1.310821	0.423724	0.659457
H34	H	1.249088	0.360963	0.729350
O35	O	0.821819	0.491921	0.000101
H36	H	0.880042	0.587384	0.000070
H37	H	1.129219	-0.022793	0.000106
H38	H	0.891482	-0.030185	0.000151
H39	H	1.638850	0.036768	0.639175
