data_functionalizedCrystal
_audit_creation_method	'MofGen! by Chris Wilmer'
_symmetry_space_group_name_H-M	'P1'
_symmetry_Int_Tables_number	1
_symmetry_cell_setting	triclinic
loop_
_symmetry_equiv_pos_as_xyz
  x,y,z
_cell_length_a	12.759400
_cell_length_b	19.805407
_cell_length_c	12.759393
_cell_angle_alpha	89.977368
_cell_angle_beta	89.968436
_cell_angle_gamma	90.014685
loop_
_atom_site_label
_atom_site_type_symbol
_atom_site_fract_x
_atom_site_fract_y
_atom_site_fract_z
Zn1	Zn	-0.418204	1.034811	-0.594097
Zn2	Zn	-0.593923	1.034743	-0.418417
Zn3	Zn	-0.418259	0.921620	-0.418424
Zn4	Zn	-0.593842	0.921613	-0.594046
O5	O	-0.506057	0.978197	-0.506246
O6	O	-0.441525	1.129519	-0.570812
O7	O	-0.570678	1.019712	-0.271397
O8	O	-0.271231	0.936666	-0.441752
O9	O	-0.570625	1.129469	-0.441740
O10	O	-0.271190	1.019828	-0.570818
O11	O	-0.441618	0.936601	-0.271402
O12	O	-0.441539	0.826902	-0.441702
O13	O	-0.570486	0.936654	-0.741074
O14	O	-0.570539	0.826897	-0.570731
O15	O	-0.441446	1.019821	-0.741112
O16	O	-0.740933	1.019705	-0.441691
O17	O	-0.740874	0.936588	-0.570725
C18	C	-0.506037	0.802341	-0.506212
C19	C	-0.506054	0.727109	-0.506223
C20	C	-0.779024	0.978157	-0.506224
C21	C	-0.895801	0.978201	-0.506250
C22	C	-0.950659	1.021528	-0.439137
C23	C	-1.060383	1.021570	-0.439169
C24	C	-1.060381	0.934952	-0.573431
C25	C	-0.950659	0.934914	-0.573403
C26	C	-0.950661	1.071534	-0.361618
C27	C	-1.060385	1.071576	-0.361650
C28	C	-0.573325	0.691780	-0.573299
C29	C	-0.573327	0.621091	-0.573314
C30	C	-0.506062	0.585733	-0.506246
C31	C	-0.438783	0.621067	-0.439167
C32	C	-0.438777	0.691754	-0.439158
C33	C	-0.438806	0.335994	-0.439201
C34	C	-0.438820	0.265302	-0.439213
C35	C	-0.573356	0.265331	-0.573357
C36	C	-0.573350	0.336018	-0.573349
C37	C	-0.506068	0.371346	-0.506274
C38	C	-0.506065	0.447994	-0.506260
C39	C	-0.506069	0.509086	-0.506254
C40	C	-0.232024	0.978256	-0.506291
C41	C	-0.115247	0.978281	-0.506310
C42	C	-0.505951	0.978244	-0.780280
C43	C	-0.505906	0.978264	-0.897056
C44	C	-0.506078	1.154739	-0.506281
C45	C	-0.506087	1.229971	-0.506296
C46	C	-0.438708	1.021575	-0.951940
C47	C	-0.438670	1.021591	-1.061664
C48	C	-0.573037	0.934984	-1.061612
C49	C	-0.573068	0.934965	-0.951890
C50	C	-0.361136	1.071579	-0.951971
C51	C	-0.361098	1.071595	-1.061695
C52	C	-0.506087	0.978188	-0.233279
C53	C	-0.505836	0.978299	-0.116503
H54	H	-0.905994	0.899640	-0.628062
Br55	Br	-1.134838	0.876210	-0.664567
Br56	Br	-0.347483	0.573082	-0.348155
Br57	Br	-0.397400	1.158968	-1.111348
Br58	Br	-0.664672	0.217382	-0.664388
Br59	Br	-1.110168	1.048239	-0.226013
Br60	Br	-0.347470	0.739702	-0.348128
Br61	Br	-0.664648	0.384000	-0.664366
Br62	Br	-0.664247	0.876170	-0.877407
Br63	Br	-0.225528	1.048207	-0.902362
H64	H	-0.390305	1.121361	-0.917940
H65	H	-0.627716	0.899729	-1.106270
H66	H	-0.283789	1.052839	-1.095741
H67	H	-0.916714	1.052771	-0.284290
Br68	Br	-1.116974	1.154573	-0.410370
Br69	Br	-0.900886	1.158875	-0.398045
H70	H	-0.628104	0.720563	-0.627910
H71	H	-0.384029	0.364750	-0.384577
H72	H	-0.384038	0.236515	-0.384598
H73	H	-0.628107	0.592329	-0.627934
