data_functionalizedCrystal
_audit_creation_method	'MofGen! by Chris Wilmer'
_symmetry_space_group_name_H-M	'P1'
_symmetry_Int_Tables_number	1
_symmetry_cell_setting	triclinic
loop_
_symmetry_equiv_pos_as_xyz
  x,y,z
_cell_length_a	29.839134
_cell_length_b	29.839131
_cell_length_c	29.839125
_cell_angle_alpha	89.982291
_cell_angle_beta	90.012189
_cell_angle_gamma	89.978008
loop_
_atom_site_label
_atom_site_type_symbol
_atom_site_fract_x
_atom_site_fract_y
_atom_site_fract_z
Zn1	Zn	0.686719	0.179149	0.254008
Zn2	Zn	1.186719	0.679149	0.754008
Zn3	Zn	0.686652	0.254261	0.178878
Zn4	Zn	1.186652	0.754261	0.678878
Zn5	Zn	0.611602	0.179121	0.178890
Zn6	Zn	1.111602	0.679121	0.678890
Zn7	Zn	0.611550	0.254227	0.253979
Zn8	Zn	1.111550	0.754227	0.753979
O9	O	0.649131	0.216690	0.216439
O10	O	1.149131	0.716690	0.716439
O11	O	0.749578	0.189139	0.244048
O12	O	1.249578	0.689139	0.744048
O13	O	0.676690	0.244296	0.116012
O14	O	1.176690	0.744296	0.616012
O15	O	0.621617	0.116257	0.188872
O16	O	1.121617	0.616257	0.688872
O17	O	0.749528	0.244324	0.188851
O18	O	1.249528	0.744324	0.688851
O19	O	0.676805	0.116278	0.244060
O20	O	1.176805	0.616278	0.744060
O21	O	0.621551	0.189090	0.116021
O22	O	1.121551	0.689090	0.616021
O23	O	0.548728	0.189058	0.188844
O24	O	1.048728	0.689058	0.688844
O25	O	0.621528	0.244266	0.316850
O26	O	1.121528	0.744266	0.816850
O27	O	0.548690	0.244238	0.244011
O28	O	1.048690	0.744238	0.744011
O29	O	0.676755	0.189106	0.316871
O30	O	1.176755	0.689106	0.816871
O31	O	0.676639	0.317124	0.188823
O32	O	1.176639	0.817124	0.688823
O33	O	0.621462	0.317099	0.243999
O34	O	1.121462	0.817099	0.743999
C35	C	0.532408	0.216641	0.216426
C36	C	1.032408	0.716641	0.716426
C37	C	0.482474	0.216632	0.216431
C38	C	0.982474	0.716632	0.716431
C39	C	0.125909	0.188015	0.245237
C40	C	0.625909	0.688015	0.745237
C41	C	0.313582	0.187979	0.245226
C42	C	0.813582	0.687979	0.745226
O43	O	0.337865	0.163591	0.269715
O44	O	0.837865	0.663591	0.769715
N45	N	0.337029	0.216661	0.216442
N46	N	0.837029	0.716661	0.716442
C47	C	0.313555	0.245357	0.187660
C48	C	0.813555	0.745357	0.687660
O49	O	0.337804	0.269755	0.163181
O50	O	0.837804	0.769755	0.663181
C51	C	0.125883	0.245395	0.187673
C52	C	0.625883	0.745395	0.687673
C53	C	0.102438	0.216707	0.216456
C54	C	0.602438	0.716707	0.716456
C55	C	0.102464	0.159330	0.274017
C56	C	0.602464	0.659330	0.774017
C57	C	0.055548	0.159338	0.274018
C58	C	0.555548	0.659338	0.774018
C59	C	0.032078	0.188030	0.245238
C60	C	0.532078	0.688030	0.745238
C61	C	0.055522	0.216715	0.216457
C62	C	0.555522	0.716715	0.716457
C63	C	0.102409	0.274092	0.158894
C64	C	0.602409	0.774092	0.658894
C65	C	0.055488	0.274100	0.158901
C66	C	0.555488	0.774100	0.658901
C67	C	0.032044	0.245412	0.187684
C68	C	0.532044	0.745412	0.687684
C69	C	-0.014864	0.245415	0.187677
C70	C	0.485136	0.745415	0.687677
N71	N	-0.038311	0.216732	0.216461
N72	N	0.461689	0.716732	0.716461
C73	C	-0.014840	0.188040	0.245242
C74	C	0.485160	0.688040	0.745242
C75	C	0.412085	0.245334	0.187655
C76	C	0.912085	0.745334	0.687655
C77	C	0.459003	0.245324	0.187651
C78	C	0.959003	0.745324	0.687651
C79	C	0.459027	0.187947	0.245218
C80	C	0.959027	0.687947	0.745218
C81	C	0.412108	0.187955	0.245219
C82	C	0.912108	0.687955	0.745219
C83	C	0.388638	0.216652	0.216439
C84	C	0.888638	0.716652	0.716439
C85	C	-0.113366	0.188058	0.245240
C86	C	0.386634	0.688058	0.745240
C87	C	-0.160286	0.188067	0.245237
C88	C	0.339714	0.688067	0.745237
C89	C	-0.160305	0.245445	0.187672
C90	C	0.339695	0.745445	0.687672
C91	C	-0.113390	0.245435	0.187674
C92	C	0.386610	0.745435	0.687674
C93	C	-0.089921	0.216740	0.216461
C94	C	0.410079	0.716740	0.716461
O95	O	-0.039176	0.269794	0.163204
O96	O	0.460824	0.769794	0.663204
O97	O	-0.039098	0.163652	0.269725
O98	O	0.460902	0.663652	0.769725
C99	C	0.172824	0.188007	0.245236
C100	C	0.672824	0.688007	0.745236
C101	C	0.196269	0.216692	0.216455
C102	C	0.696269	0.716692	0.716455
C103	C	0.172798	0.245384	0.187675
C104	C	0.672798	0.745384	0.687675
C105	C	0.243187	0.216682	0.216451
C106	C	0.743187	0.716682	0.716451
C107	C	0.266657	0.187990	0.245231
C108	C	0.766657	0.687990	0.745231
C109	C	0.243210	0.159308	0.274016
C110	C	0.743210	0.659308	0.774016
C111	C	0.196295	0.159315	0.274016
C112	C	0.696295	0.659315	0.774016
C113	C	0.196245	0.274067	0.158891
C114	C	0.696245	0.774067	0.658891
C115	C	0.243161	0.274056	0.158892
C116	C	0.743161	0.774056	0.658892
C117	C	0.266631	0.245364	0.187672
C118	C	0.766631	0.745364	0.687672
C119	C	0.649050	0.333412	0.216416
C120	C	1.149050	0.833412	0.716416
C121	C	0.649056	0.383347	0.216422
C122	C	1.149056	0.883347	0.716422
C123	C	0.649143	0.216686	0.333617
C124	C	1.149143	0.716686	0.833617
C125	C	0.649148	0.216684	0.383551
C126	C	1.149148	0.716684	0.883551
C127	C	0.766309	0.216738	0.216451
C128	C	1.266309	0.716738	0.716451
C129	C	0.816244	0.216759	0.216457
C130	C	1.316244	0.716759	0.716457
C131	C	0.649225	0.099511	0.216471
C132	C	1.149225	0.599511	0.716471
C133	C	0.649264	0.049577	0.216484
C134	C	1.149264	0.549577	0.716484
C135	C	0.677914	0.692990	0.187750
C136	C	1.177914	1.192990	0.687750
C137	C	0.677969	0.880663	0.187767
C138	C	1.177969	1.380663	0.687767
O139	O	0.702440	0.904928	0.163373
O140	O	1.202440	1.404928	0.663373
N141	N	0.649224	0.904132	0.216472
N142	N	1.149224	1.404132	0.716472
C143	C	0.620465	0.880679	0.245177
C144	C	1.120465	1.380679	0.745177
O145	O	0.596020	0.904946	0.269596
O146	O	1.096020	1.404946	0.769596
C147	C	0.620412	0.693007	0.245162
C148	C	1.120412	1.193007	0.745162
C149	C	0.649156	0.669541	0.216452
C150	C	1.149156	1.169541	0.716452
C151	C	0.706655	0.669524	0.159043
C152	C	1.206655	1.169524	0.659043
C153	C	0.706640	0.622609	0.159037
C154	C	1.206640	1.122609	0.659037
C155	C	0.677882	0.599159	0.187738
C156	C	1.177882	1.099159	0.687738
C157	C	0.649140	0.622625	0.216446
C158	C	1.149140	1.122625	0.716446
C159	C	0.591656	0.669555	0.273868
C160	C	1.091656	1.169555	0.773868
C161	C	0.591646	0.622634	0.273863
C162	C	1.091646	1.122634	0.773863
C163	C	0.620390	0.599168	0.245153
C164	C	1.120390	1.099168	0.745153
C165	C	0.620367	0.552260	0.245141
C166	C	1.120367	1.052260	0.745141
N167	N	0.649112	0.528792	0.216437
N168	N	1.149112	1.028792	0.716437
C169	C	0.677869	0.552242	0.187735
C170	C	1.177869	1.052242	0.687735
C171	C	0.620494	0.979209	0.245183
C172	C	1.120494	1.479209	0.745183
C173	C	0.620507	1.026127	0.245186
C174	C	1.120507	1.526127	0.745186
C175	C	0.678012	1.026109	0.187777
C176	C	1.178012	1.526109	0.687777
C177	C	0.677996	0.979190	0.187772
C178	C	1.177996	1.479190	0.687772
C179	C	0.649239	0.955741	0.216478
C180	C	1.149239	1.455741	0.716478
C181	C	0.677834	0.453716	0.187725
C182	C	1.177834	0.953716	0.687725
C183	C	0.677814	0.406796	0.187720
C184	C	1.177814	0.906796	0.687720
C185	C	0.620311	0.406819	0.245131
C186	C	1.120311	0.906819	0.745131
C187	C	0.620329	0.453734	0.245134
C188	C	1.120329	0.953734	0.745134
C189	C	0.649094	0.477182	0.216429
C190	C	1.149094	0.977182	0.716429
O191	O	0.595912	0.527966	0.269527
O192	O	1.095912	1.027966	0.769527
O193	O	0.702318	0.527966	0.163327
O194	O	1.202318	1.027966	0.663327
C195	C	0.677930	0.739906	0.187756
C196	C	1.177930	1.239906	0.687756
C197	C	0.649188	0.763372	0.216463
C198	C	1.149188	1.263372	0.716463
C199	C	0.620430	0.739922	0.245165
C200	C	1.120430	1.239922	0.745165
C201	C	0.649200	0.810289	0.216467
C202	C	1.149200	1.310289	0.716467
C203	C	0.677958	0.833739	0.187765
C204	C	1.177958	1.333739	0.687765
C205	C	0.706703	0.810271	0.159060
C206	C	1.206703	1.310271	0.659060
C207	C	0.706687	0.763355	0.159054
C208	C	1.206687	1.263355	0.659054
C209	C	0.591685	0.763390	0.273870
C210	C	1.091685	1.263390	0.773870
C211	C	0.591703	0.810306	0.273873
C212	C	1.091703	1.310306	0.773873
C213	C	0.620461	0.833755	0.245171
C214	C	1.120461	1.333755	0.745171
C215	C	0.649145	0.216661	0.099716
C216	C	1.149145	0.716661	0.599716
C217	C	0.649227	0.216536	0.049782
C218	C	1.149227	0.716536	0.549782
C219	C	0.677935	0.187887	0.693209
C220	C	1.177935	0.687887	1.193209
C221	C	0.677957	0.187849	0.880882
C222	C	1.177957	0.687849	1.380882
O223	O	0.702399	0.163407	0.905159
O224	O	1.202399	0.663407	1.405159
N225	N	0.649208	0.216564	0.904337
N226	N	1.149208	0.716564	1.404337
C227	C	0.620449	0.245288	0.880870
C228	C	1.120449	0.745288	1.380870
O229	O	0.595993	0.269708	0.905126
O230	O	1.095993	0.769708	1.405126
C231	C	0.620424	0.245324	0.693198
C232	C	1.120424	0.745324	1.193198
C233	C	0.649179	0.216610	0.669746
C234	C	1.149179	0.716610	1.169746
C235	C	0.706687	0.159175	0.669757
C236	C	1.206687	0.659175	1.169757
C237	C	0.706683	0.159187	0.622841
C238	C	1.206683	0.659187	1.122841
C239	C	0.677927	0.187910	0.599378
C240	C	1.177927	0.687910	1.099378
C241	C	0.649175	0.216622	0.622830
C242	C	1.149175	0.716622	1.122830
C243	C	0.591663	0.274045	0.669732
C244	C	1.091663	0.774045	1.169732
C245	C	0.591659	0.274051	0.622811
C246	C	1.091659	0.774051	1.122811
C247	C	0.620414	0.245337	0.599359
C248	C	1.120414	0.745337	1.099359
C249	C	0.620415	0.245356	0.552451
C250	C	1.120415	0.745356	1.052451
N251	N	0.649164	0.216642	0.528997
N252	N	1.149164	0.716642	1.028997
C253	C	0.677920	0.187918	0.552460
C254	C	1.177920	0.687918	1.052460
C255	C	0.620464	0.245268	0.979401
C256	C	1.120464	0.745268	1.479401
C257	C	0.620471	0.245260	1.026319
C258	C	1.120471	0.745260	1.526319
C259	C	0.677979	0.187820	1.026327
C260	C	1.177979	0.687820	1.526327
C261	C	0.677974	0.187830	0.979409
C262	C	1.177974	0.687830	1.479409
C263	C	0.649213	0.216553	0.955946
C264	C	1.149213	0.716553	1.455946
C265	C	0.677910	0.187945	0.453934
C266	C	1.177910	0.687945	0.953934
C267	C	0.677904	0.187961	0.407015
C268	C	1.177904	0.687961	0.907015
C269	C	0.620395	0.245399	0.407010
C270	C	1.120395	0.745399	0.907010
C271	C	0.620401	0.245385	0.453926
C272	C	1.120401	0.745385	0.953926
C273	C	0.649160	0.216655	0.477386
C274	C	1.149160	0.716655	0.977386
O275	O	0.595982	0.269782	0.528146
O276	O	1.095982	0.769782	1.028146
O277	O	0.702365	0.163495	0.528196
O278	O	1.202365	0.663495	1.028196
C279	C	0.677939	0.187875	0.740124
C280	C	1.177939	0.687875	1.240124
C281	C	0.649187	0.216587	0.763577
C282	C	1.149187	0.716587	1.263577
C283	C	0.620431	0.245310	0.740113
C284	C	1.120431	0.745310	1.240113
C285	C	0.649194	0.216579	0.810494
C286	C	1.149194	0.716579	1.310494
C287	C	0.677950	0.187856	0.833958
C288	C	1.177950	0.687856	1.333958
C289	C	0.706699	0.159141	0.810503
C290	C	1.206699	0.659141	1.310503
C291	C	0.706695	0.159152	0.763588
C292	C	1.206695	0.659152	1.263588
C293	C	0.591682	0.274025	0.763568
C294	C	1.091682	0.774025	1.263568
C295	C	0.591689	0.274011	0.810483
C296	C	1.091689	0.774011	1.310483
C297	C	0.620445	0.245288	0.833947
C298	C	1.120445	0.745288	1.333947
H299	H	-0.179424	0.268804	0.164238
H300	H	0.320576	0.768804	0.664238
H301	H	0.730097	0.135805	0.603751
H302	H	1.230097	0.635805	1.103751
H303	H	0.596984	0.268786	0.387898
H304	H	1.096984	0.768786	0.887898
H305	H	0.121490	0.297452	0.135456
H306	H	0.621490	0.797452	0.635456
C307	C	0.709618	0.953381	0.156195
C308	C	1.209618	1.453381	0.656195
H309	H	0.726747	0.974071	0.139105
H310	H	1.226747	1.474071	0.639105
H311	H	0.692445	0.935096	0.136602
H312	H	1.192445	1.435096	0.636602
H313	H	0.729179	0.935062	0.173399
H314	H	1.229179	1.435062	0.673399
C315	C	0.738335	0.836071	0.127489
C316	C	1.238335	1.336071	0.627489
H317	H	0.734226	0.867374	0.131609
H318	H	1.234226	1.367374	0.631609
H319	H	0.731782	0.828402	0.097296
H320	H	1.231782	1.328402	0.597296
H321	H	0.768515	0.828361	0.134094
H322	H	1.268515	1.328361	0.634094
H323	H	0.596895	0.387719	0.268498
H324	H	1.096895	0.887719	0.768498
H325	H	0.701321	0.164578	0.387922
H326	H	1.201321	0.664578	0.887922
C327	C	0.560060	0.305601	0.836278
C328	C	1.060060	0.805601	1.336278
H329	H	0.564180	0.301486	0.867582
H330	H	1.064180	0.801486	1.367582
H331	H	0.529881	0.299015	0.828583
H332	H	1.029881	0.799015	1.328583
H333	H	0.566614	0.335791	0.828586
H334	H	1.066614	0.835791	1.328586
H335	H	0.597076	0.960121	0.268559
H336	H	1.097076	1.460121	0.768559
H337	H	0.701393	0.164432	1.045439
H338	H	1.201393	0.664432	1.545439
H339	H	0.597061	0.268646	1.045409
H340	H	1.097061	0.768646	1.545409
C341	C	0.738322	0.127563	0.737796
C342	C	1.238322	0.627563	1.237796
H343	H	0.755443	0.110455	0.758495
H344	H	1.255443	0.610455	1.258495
H345	H	0.757883	0.144756	0.719492
H346	H	1.257883	0.644756	1.219492
H347	H	0.721148	0.107982	0.719496
H348	H	1.221148	0.607982	1.219496
C349	C	0.029765	0.127786	0.305684
C350	C	0.529765	0.627786	0.805684
H351	H	0.050468	0.110703	0.322825
H352	H	0.550468	0.610703	0.822825
H353	H	0.011460	0.108187	0.288540
H354	H	0.511460	0.608187	0.788540
H355	H	0.011467	0.145007	0.325232
H356	H	0.511467	0.645007	0.825232
C357	C	0.268945	0.305616	0.127230
C358	C	0.768945	0.805616	0.627230
H359	H	0.248243	0.322707	0.110094
H360	H	0.748243	0.822707	0.610094
H361	H	0.287249	0.288405	0.107683
H362	H	0.787249	0.788405	0.607683
H363	H	0.287244	0.325215	0.144385
H364	H	0.787244	0.825215	0.644385
C365	C	-0.186072	0.156512	0.276902
C366	C	0.313928	0.656512	0.776902
H367	H	-0.165372	0.139427	0.294045
H368	H	0.334628	0.639427	0.794045
H369	H	-0.204376	0.136914	0.259755
H370	H	0.295624	0.636914	0.759755
H371	H	-0.204373	0.173733	0.296448
H372	H	0.295627	0.673733	0.796448
H373	H	0.568265	0.297416	0.744469
H374	H	1.068265	0.797416	1.244469
C375	C	0.269032	0.127747	0.305675
C376	C	0.769032	0.627747	0.805675
H377	H	0.248353	0.110661	0.322818
H378	H	0.748353	0.610661	0.822818
H379	H	0.287336	0.144961	0.325215
H380	H	0.787336	0.644961	0.825215
H381	H	0.287334	0.108143	0.288520
H382	H	0.787334	0.608143	0.788520
C383	C	0.709435	0.380986	0.156140
C384	C	1.209435	0.880986	0.656140
H385	H	0.726567	0.401674	0.139052
H386	H	1.226567	0.901674	0.639052
H387	H	0.692260	0.362703	0.136546
H388	H	1.192260	0.862703	0.636546
H389	H	0.728994	0.362663	0.173344
H390	H	1.228994	0.862663	0.673344
H391	H	0.597044	0.268660	0.960302
H392	H	1.097044	0.768660	1.460302
H393	H	0.596925	0.472841	0.268513
H394	H	1.096925	0.972841	0.768513
H395	H	0.701258	0.472801	0.164352
H396	H	1.201258	0.972801	0.664352
C397	C	0.738263	0.596802	0.127461
C398	C	1.238263	1.096802	0.627461
H399	H	0.755394	0.617493	0.110374
H400	H	1.255394	1.117493	0.610374
H401	H	0.721093	0.578517	0.107866
H402	H	1.221093	1.078517	0.607866
H403	H	0.757823	0.578482	0.144667
H404	H	1.257823	1.078482	0.644667
H405	H	0.478145	0.164583	0.268651
H406	H	0.978145	0.664583	0.768651
H407	H	0.177210	0.135955	0.297454
H408	H	0.677210	0.635955	0.797454
C409	C	0.029674	0.305666	0.127241
C410	C	0.529674	0.805666	0.627241
H411	H	0.050359	0.322745	0.110098
H412	H	0.550359	0.822745	0.610098
H413	H	0.011371	0.325269	0.144391
H414	H	0.511371	0.825269	0.644391
H415	H	0.011372	0.288453	0.107694
H416	H	0.511372	0.788453	0.607694
C417	C	0.738289	0.695312	0.127466
C418	C	1.238289	1.195312	0.627466
H419	H	0.755399	0.674610	0.110369
H420	H	1.255399	1.174610	0.610369
H421	H	0.757860	0.713597	0.144663
H422	H	1.257860	1.213597	0.644663
H423	H	0.721119	0.713630	0.107873
H424	H	1.221119	1.213630	0.607873
H425	H	0.568248	0.297427	0.688819
H426	H	1.068248	0.797427	1.188819
C427	C	0.128274	0.127763	0.305676
C428	C	0.628274	0.627763	0.805676
H429	H	0.107586	0.110682	0.322812
H430	H	0.607586	0.610682	0.822812
H431	H	0.146582	0.144967	0.325222
H432	H	0.646582	0.644967	0.825222
H433	H	0.146572	0.108156	0.288521
H434	H	0.646572	0.608156	0.788521
C435	C	0.560083	0.836113	0.305457
C436	C	1.060083	1.336113	0.805457
H437	H	0.542959	0.815424	0.322551
H438	H	1.042959	1.315424	0.822551
H439	H	0.540524	0.854440	0.288262
H440	H	1.040524	1.354440	0.788262
H441	H	0.577266	0.854392	0.325052
H442	H	1.077266	1.354392	0.825052
H443	H	0.568233	0.297436	0.603710
H444	H	1.068233	0.797436	1.103710
C445	C	0.738330	0.127547	0.836319
C446	C	1.238330	0.627547	1.336319
H447	H	0.734210	0.131654	0.867619
H448	H	1.234210	0.631654	1.367619
H449	H	0.768510	0.134133	0.828635
H450	H	1.268510	0.634133	1.328635
H451	H	0.731776	0.097358	0.828634
H452	H	1.231776	0.597358	1.328634
C453	C	0.170434	0.305627	0.127227
C454	C	0.670434	0.805627	0.627227
H455	H	0.191121	0.322703	0.110084
H456	H	0.691121	0.822703	0.610084
H457	H	0.152129	0.325233	0.144372
H458	H	0.652129	0.825233	0.644372
H459	H	0.152133	0.288411	0.107681
H460	H	0.652133	0.788411	0.607681
C461	C	0.588775	0.276972	0.479724
C462	C	1.088775	0.776972	0.979724
H463	H	0.571648	0.294079	0.459028
H464	H	1.071648	0.794079	0.959028
H465	H	0.605944	0.296548	0.498030
H466	H	1.105944	0.796548	0.998030
H467	H	0.569213	0.259770	0.498022
H468	H	1.069213	0.759770	0.998022
C469	C	0.560046	0.737602	0.305439
C470	C	1.060046	1.237602	0.805439
H471	H	0.542928	0.758302	0.322531
H472	H	1.042928	1.258302	0.822531
H473	H	0.577205	0.719277	0.325031
H474	H	1.077205	1.219277	0.825031
H475	H	0.540475	0.719324	0.288229
H476	H	1.040475	1.219324	0.788229
C477	C	0.560013	0.596843	0.305440
C478	C	1.060013	1.096843	0.805440
H479	H	0.542896	0.617541	0.322536
H480	H	1.042896	1.117541	0.822536
H481	H	0.577179	0.578520	0.325028
H482	H	1.077179	1.078520	0.825028
H483	H	0.540440	0.578562	0.288235
H484	H	1.040440	1.078562	0.788235
C485	C	0.709643	1.051909	0.156205
C486	C	1.209643	1.551909	0.656205
H487	H	0.705533	1.083211	0.160323
H488	H	1.205533	1.583211	0.660323
H489	H	0.703090	1.044237	0.126012
H490	H	1.203090	1.544237	0.626012
H491	H	0.739824	1.044201	0.162810
H492	H	1.239824	1.544201	0.662810
C493	C	-0.087557	0.156492	0.276903
C494	C	0.412443	0.656492	0.776903
H495	H	-0.108245	0.139409	0.294039
H496	H	0.391755	0.639409	0.794039
H497	H	-0.069253	0.173698	0.296450
H498	H	0.430747	0.673698	0.796450
H499	H	-0.069257	0.136886	0.259750
H500	H	0.430743	0.636886	0.759750
C501	C	-0.087600	0.276992	0.156016
C502	C	0.412400	0.776992	0.656016
H503	H	-0.108299	0.294084	0.138878
H504	H	0.391701	0.794084	0.638878
H505	H	-0.069292	0.259782	0.136471
H506	H	0.430708	0.759782	0.636471
H507	H	-0.069303	0.296591	0.173175
H508	H	0.430697	0.796591	0.673175
H509	H	0.701326	0.164549	0.473031
H510	H	1.201326	0.664549	0.973031
C511	C	0.386323	0.156404	0.276884
C512	C	0.886323	0.656404	0.776884
H513	H	0.407025	0.139318	0.294025
H514	H	0.907025	0.639318	0.794025
H515	H	0.368016	0.136806	0.259740
H516	H	0.868016	0.636806	0.759740
H517	H	0.368026	0.173626	0.296433
H518	H	0.868026	0.673626	0.796433
H519	H	0.568247	0.688653	0.297245
H520	H	1.068247	1.188653	0.797245
H521	H	0.478088	0.268679	0.164208
H522	H	0.978088	0.768679	0.664208
C523	C	0.386274	0.276898	0.155991
C524	C	0.886274	0.776898	0.655991
H525	H	0.406962	0.293973	0.138847
H526	H	0.906962	0.793973	0.638847
H527	H	0.367972	0.296505	0.173137
H528	H	0.867972	0.796505	0.673137
H529	H	0.367971	0.259685	0.136446
H530	H	0.867971	0.759685	0.636446
H531	H	0.597097	1.045229	0.268560
H532	H	1.097097	1.545229	0.768560
H533	H	0.730093	0.744253	0.135676
H534	H	1.230093	1.244253	0.635676
C535	C	0.709599	0.156241	0.953615
C536	C	1.209599	0.656241	1.453615
H537	H	0.726722	0.139133	0.974313
H538	H	1.226722	0.639133	1.474313
H539	H	0.729158	0.173433	0.935309
H540	H	1.229158	0.673433	1.435309
H541	H	0.692423	0.136659	0.935317
H542	H	1.192423	0.636659	1.435317
H543	H	0.730104	0.135783	0.688855
H544	H	1.230104	0.635783	1.188855
