data_functionalizedCrystal
_audit_creation_method	'MofGen! by Chris Wilmer'
_symmetry_space_group_name_H-M	'P1'
_symmetry_Int_Tables_number	1
_symmetry_cell_setting	triclinic
loop_
_symmetry_equiv_pos_as_xyz
  x,y,z
_cell_length_a	10.489741
_cell_length_b	10.489741
_cell_length_c	8.965430
_cell_angle_alpha	90.000707
_cell_angle_beta	89.998843
_cell_angle_gamma	84.539174
loop_
_atom_site_label
_atom_site_type_symbol
_atom_site_fract_x
_atom_site_fract_y
_atom_site_fract_z
O1	O	1.694053	0.179958	-0.123946
O2	O	1.322858	0.196851	-0.123969
O3	O	1.516902	0.002807	-0.123948
O4	O	1.500009	0.374003	-0.123967
O5	O	1.516886	0.002820	0.124130
O6	O	1.322841	0.196864	0.124110
O7	O	1.694037	0.179971	0.124133
Cu8	Cu	1.508438	0.188419	0.146773
Cu9	Cu	1.508457	0.188404	-0.146609
O10	O	1.499993	0.374016	0.124112
C11	C	1.275318	0.195582	0.000067
C12	C	1.133688	0.191765	0.000059
C13	C	1.065548	0.068300	0.000079
C14	C	0.973430	0.126617	-0.122237
C15	C	0.973447	0.126659	0.122349
C16	C	1.043435	0.250133	-0.122358
C17	C	1.043462	0.250158	0.122338
C18	C	0.951371	0.308564	-0.000007
C19	C	1.515618	-0.044718	0.000090
C20	C	1.511801	-0.186348	0.000087
C21	C	1.388336	-0.254488	0.000069
C22	C	1.446652	-0.346604	0.122388
C23	C	1.446697	-0.346591	-0.122198
C24	C	1.570167	-0.276599	0.122508
C25	C	1.570195	-0.276576	-0.122189
C26	C	1.628600	-0.368665	0.000161
C27	C	1.741577	0.181241	0.000093
C28	C	1.883206	0.185058	0.000092
C29	C	1.501277	0.421541	0.000070
C30	C	1.505094	0.563170	0.000063
N31	N	1.508433	0.188429	0.353122
N32	N	1.508471	0.188384	-0.352958
C33	C	1.418666	0.278138	0.450418
C34	C	1.534163	0.303949	0.549838
C35	C	1.392986	0.162629	0.549830
C36	C	1.623988	0.214298	0.450352
C37	C	1.482735	0.072927	0.450336
C38	C	1.598314	0.098690	0.549711
H39	H	1.074502	0.302361	0.225749
H40	H	0.901947	0.410168	-0.000079
N41	N	1.746507	0.241829	0.395778
N42	N	1.789499	0.345324	0.428724
H43	H	1.876024	0.364775	0.390178
N44	N	1.455409	-0.049538	0.395425
N45	N	1.535378	-0.113835	0.315645
H46	H	1.516069	-0.200327	0.276859
H47	H	1.674327	0.022803	0.593034
H48	H	1.394404	-0.377610	0.225794
H49	H	1.555925	0.401606	0.593543
H50	H	1.394447	-0.377561	-0.225620
N51	N	1.270498	0.135279	0.604679
N52	N	1.207017	0.214428	0.686261
H53	H	1.120509	0.195122	0.725001
N54	N	1.127823	-0.059049	-0.000076
N55	N	1.109574	-0.133388	-0.105262
H56	H	1.153556	-0.223327	-0.105378
N57	N	0.934579	0.061091	0.252065
N58	N	0.975709	-0.053173	0.273828
H59	H	0.948262	-0.099491	0.365433
H60	H	0.942422	0.074371	-0.225643
H61	H	1.074270	0.302327	-0.225883
H62	H	1.622355	-0.245761	0.226035
N63	N	1.260988	-0.192212	0.000219
N64	N	1.186466	-0.210891	0.105079
H65	H	1.096527	-0.166909	0.105192
N66	N	1.756064	-0.430656	0.000260
N67	N	1.830393	-0.412185	0.105379
H68	H	1.920414	-0.455966	0.105456
H69	H	1.622398	-0.245537	-0.225600
H70	H	1.342824	0.354072	0.406821
