data_functionalizedCrystal
_audit_creation_method	'MofGen! by Chris Wilmer'
_symmetry_space_group_name_H-M	'P1'
_symmetry_Int_Tables_number	1
_symmetry_cell_setting	triclinic
loop_
_symmetry_equiv_pos_as_xyz
  x,y,z
_cell_length_a	27.732048
_cell_length_b	27.732048
_cell_length_c	7.088929
_cell_angle_alpha	96.157200
_cell_angle_beta	83.823277
_cell_angle_gamma	82.642655
loop_
_atom_site_label
_atom_site_type_symbol
_atom_site_fract_x
_atom_site_fract_y
_atom_site_fract_z
O1	O	0.062516	0.635935	-0.158766
O2	O	0.562516	1.135935	0.341234
O3	O	0.071264	0.495139	-0.158827
O4	O	0.571264	0.995139	0.341173
O5	O	-0.003508	0.569911	-0.158758
O6	O	0.496492	1.069911	0.341242
O7	O	0.137288	0.561163	-0.158835
O8	O	0.637288	1.061163	0.341165
O9	O	-0.013523	0.579904	0.159226
O10	O	0.486477	1.079904	0.659226
O11	O	0.061249	0.505132	0.159158
O12	O	0.561249	1.005132	0.659158
O13	O	0.052501	0.645927	0.159218
O14	O	0.552501	1.145927	0.659218
Cu15	Cu	0.055961	0.576442	0.188222
Cu16	Cu	0.555961	1.076442	0.688222
Cu17	Cu	0.067804	0.564625	-0.187831
Cu18	Cu	0.567804	1.064625	0.312169
O19	O	0.127273	0.571156	0.159150
O20	O	0.627273	1.071156	0.659150
C21	C	0.066073	0.482129	0.000158
C22	C	0.566073	0.982129	0.500158
C23	C	0.065521	0.428473	0.000137
C24	C	0.565521	0.928473	0.500137
C25	C	-0.026523	0.574724	0.000239
C26	C	0.473477	1.074724	0.500239
C27	C	-0.080178	0.574172	0.000255
C28	C	0.419822	1.074172	0.500255
C29	C	0.106223	0.089660	0.000197
C30	C	0.606223	0.589660	0.500197
C31	C	0.104171	-0.111999	0.000215
C32	C	0.604171	0.388001	0.500215
O33	O	0.141390	-0.143253	0.000278
O34	O	0.641390	0.356747	0.500278
N35	N	0.059835	-0.131122	0.000236
N36	N	0.559835	0.368878	0.500236
C37	C	0.016009	-0.099827	0.000265
C38	C	0.516009	0.400173	0.500265
O39	O	-0.021749	-0.120719	0.000303
O40	O	0.478251	0.379281	0.500303
C41	C	0.018060	0.101832	0.000260
C42	C	0.518060	0.601832	0.500260
C43	C	0.062400	0.120951	0.000220
C44	C	0.562400	0.620951	0.500220
C45	C	0.150558	0.108780	0.000159
C46	C	0.650558	0.608780	0.500159
C47	C	0.151071	0.159191	0.000144
C48	C	0.651071	0.659191	0.500144
C49	C	0.107248	0.190483	0.000167
C50	C	0.607248	0.690483	0.500167
C51	C	0.062912	0.171363	0.000205
C52	C	0.562912	0.671363	0.500205
C53	C	-0.025766	0.133127	0.000303
C54	C	0.474234	0.633127	0.500303
C55	C	-0.025249	0.183544	0.000306
C56	C	0.474751	0.683544	0.500306
C57	C	0.019090	0.202664	0.000266
C58	C	0.519090	0.702664	0.500266
C59	C	0.019602	0.253066	0.000213
C60	C	0.519602	0.753066	0.500213
N61	N	0.063938	0.272189	0.000193
N62	N	0.563938	0.772189	0.500193
C63	C	0.107761	0.240897	0.000170
C64	C	0.607761	0.740897	0.500170
C65	C	0.014935	-0.205701	0.000263
C66	C	0.514935	0.294299	0.500263
C67	C	0.014422	-0.256115	0.000261
C68	C	0.514422	0.243885	0.500261
C69	C	0.102584	-0.268284	0.000215
C70	C	0.602584	0.231716	0.500215
C71	C	0.103097	-0.217869	0.000204
C72	C	0.603097	0.282131	0.500204
C73	C	0.059271	-0.186578	0.000243
C74	C	0.559271	0.313422	0.500243
C75	C	0.108834	0.346765	0.000136
C76	C	0.608834	0.846765	0.500136
C77	C	0.109344	0.397182	0.000114
C78	C	0.609344	0.897182	0.500114
C79	C	0.021181	0.409346	0.000169
C80	C	0.521181	0.909346	0.500169
C81	C	0.020672	0.358934	0.000182
C82	C	0.520672	0.858934	0.500182
C83	C	0.064502	0.327645	0.000172
C84	C	0.564502	0.827645	0.500172
O85	O	-0.017597	0.284348	0.000172
O86	O	0.482403	0.784348	0.500172
O87	O	0.145512	0.261800	0.000174
O88	O	0.645512	0.761800	0.500174
C89	C	0.105710	0.039248	0.000212
C90	C	0.605710	0.539248	0.500212
C91	C	0.061374	0.020128	0.000250
C92	C	0.561374	0.520128	0.500250
C93	C	0.017551	0.051420	0.000273
C94	C	0.517551	0.551420	0.500273
C95	C	0.060861	-0.030286	0.000248
C96	C	0.560861	0.469714	0.500248
C97	C	0.104684	-0.061578	0.000225
C98	C	0.604684	0.438422	0.500225
C99	C	0.149020	-0.042455	0.000204
C100	C	0.649020	0.457545	0.500204
C101	C	0.149533	0.007957	0.000189
C102	C	0.649533	0.507957	0.500189
C103	C	-0.026785	0.032297	0.000294
C104	C	0.473215	0.532297	0.500294
C105	C	-0.027294	-0.018116	0.000307
C106	C	0.472706	0.481884	0.500307
C107	C	0.016529	-0.049407	0.000284
C108	C	0.516529	0.450593	0.500284
C109	C	-0.418990	0.614873	0.000174
C110	C	0.081010	1.114873	0.500174
C111	C	-0.620649	0.612821	0.000147
C112	C	-0.120649	1.112821	0.500147
O113	O	-0.651903	0.650040	0.000079
O114	O	-0.151903	1.150040	0.500079
N115	N	-0.639772	0.568485	0.000129
N116	N	-0.139772	1.068485	0.500129
C117	C	-0.608477	0.524659	0.000106
C118	C	-0.108477	1.024659	0.500106
O119	O	-0.629369	0.486901	0.000071
O120	O	-0.129369	0.986901	0.500071
C121	C	-0.406819	0.526711	0.000120
C122	C	0.093181	1.026711	0.500120
C123	C	-0.387699	0.571050	0.000157
C124	C	0.112301	1.071050	0.500157
C125	C	-0.399870	0.659208	0.000209
C126	C	0.100130	1.159208	0.500209
C127	C	-0.349459	0.659721	0.000226
C128	C	0.150541	1.159721	0.500226
C129	C	-0.318168	0.615898	0.000209
C130	C	0.181832	1.115898	0.500209
C131	C	-0.337288	0.571563	0.000174
C132	C	0.162712	1.071563	0.500174
C133	C	-0.375524	0.482885	0.000083
C134	C	0.124476	0.982885	0.500083
C135	C	-0.325107	0.483401	0.000082
C136	C	0.174893	0.983401	0.500082
C137	C	-0.305987	0.527741	0.000119
C138	C	0.194013	1.027741	0.500119
C139	C	-0.255585	0.528253	0.000174
C140	C	0.244415	1.028253	0.500174
N141	N	-0.236462	0.572589	0.000191
N142	N	0.263538	1.072589	0.500191
C143	C	-0.267753	0.616411	0.000209
C144	C	0.232247	1.116411	0.500209
C145	C	-0.714351	0.523585	0.000103
C146	C	-0.214351	1.023585	0.500103
C147	C	-0.764765	0.523072	0.000103
C148	C	-0.264765	1.023072	0.500103
C149	C	-0.776934	0.611234	0.000139
C150	C	-0.276934	1.111234	0.500139
C151	C	-0.726519	0.611747	0.000153
C152	C	-0.226519	1.111747	0.500153
C153	C	-0.695228	0.567921	0.000120
C154	C	-0.195228	1.067921	0.500120
C155	C	-0.161885	0.617485	0.000247
C156	C	0.338115	1.117485	0.500247
C157	C	-0.111469	0.617994	0.000272
C158	C	0.388531	1.117994	0.500272
C159	C	-0.099305	0.529832	0.000225
C160	C	0.400695	1.029832	0.500225
C161	C	-0.149717	0.529323	0.000210
C162	C	0.350283	1.029323	0.500210
C163	C	-0.181006	0.573153	0.000214
C164	C	0.318994	1.073153	0.500214
O165	O	-0.224303	0.491054	0.000220
O166	O	0.275697	0.991054	0.500220
O167	O	-0.246850	0.654163	0.000201
O168	O	0.253150	1.154163	0.500201
C169	C	-0.469402	0.614360	0.000157
C170	C	0.030598	1.114360	0.500157
C171	C	-0.488522	0.570024	0.000122
C172	C	0.011478	1.070024	0.500122
C173	C	-0.457231	0.526202	0.000105
C174	C	0.042769	1.026202	0.500105
C175	C	-0.538936	0.569511	0.000122
C176	C	-0.038936	1.069511	0.500122
C177	C	-0.570228	0.613334	0.000139
C178	C	-0.070228	1.113334	0.500139
C179	C	-0.551105	0.657670	0.000157
C180	C	-0.051105	1.157670	0.500157
C181	C	-0.500693	0.658183	0.000174
C182	C	-0.000693	1.158183	0.500174
C183	C	-0.476354	0.481866	0.000088
C184	C	0.023646	0.981866	0.500088
C185	C	-0.526766	0.481357	0.000072
C186	C	-0.026766	0.981357	0.500072
C187	C	-0.558057	0.525180	0.000090
C188	C	-0.058057	1.025180	0.500090
C189	C	0.150288	0.566343	0.000148
C190	C	0.650288	1.066343	0.500148
C191	C	0.203943	0.566895	0.000120
C192	C	0.703943	1.066895	0.500120
C193	C	0.057692	0.658938	0.000229
C194	C	0.557692	1.158938	0.500229
C195	C	0.058245	0.712593	0.000238
C196	C	0.558245	1.212593	0.500238
N197	N	0.047630	0.584757	0.452718
N198	N	0.547630	1.084757	0.952718
N199	N	0.076131	0.556313	-0.452327
N200	N	0.576131	1.056313	0.047673
H201	H	0.145452	0.412745	0.000080
H202	H	0.645452	0.912745	0.500080
H203	H	-0.688877	0.487894	0.000076
H204	H	-0.188877	0.987894	0.500076
Br205	Br	-0.044550	-0.163240	0.000316
Br206	Br	0.455450	0.336760	0.500316
Br207	Br	-0.323517	0.719897	0.000222
Br208	Br	0.176483	1.219897	0.500222
Br209	Br	-0.001595	0.633902	0.588848
Br210	Br	0.498405	1.133902	1.088848
Br211	Br	-0.085525	0.678173	0.000324
Br212	Br	0.414475	1.178173	0.500324
Br213	Br	0.168319	0.304309	0.000126
Br214	Br	0.668319	0.804309	0.500126
H215	H	0.105666	0.526834	0.466000
H216	H	0.605666	1.026834	0.966000
Br217	Br	-0.056829	0.470361	0.000202
Br218	Br	0.443171	0.970361	0.500202
H219	H	0.139202	-0.202306	0.000182
H220	H	0.639202	0.297694	0.500182
Br221	Br	-0.045754	-0.282059	0.000258
Br222	Br	0.454246	0.217941	0.500258
H223	H	-0.425343	0.694896	0.000216
H224	H	0.074657	1.194896	0.500216
H225	H	-0.802420	0.646916	0.000155
H226	H	-0.302420	1.146916	0.500155
Br227	Br	-0.700577	0.671924	0.000207
Br228	Br	-0.200577	1.171924	0.500207
Br229	Br	-0.401458	0.422706	0.000026
Br230	Br	0.098542	0.922706	0.500026
H231	H	-0.165286	0.493220	0.000233
H232	H	0.334714	0.993220	0.500233
Br233	Br	-0.474753	0.718360	0.000212
Br234	Br	0.025247	1.218360	0.500212
Br235	Br	0.211249	0.185131	0.000099
Br236	Br	0.711249	0.685131	0.500099
H237	H	0.138267	-0.293771	0.000197
H238	H	0.638267	0.206229	0.500197
Br239	Br	0.210041	0.066321	0.000128
Br240	Br	0.710041	0.566321	0.500128
Br241	Br	-0.790708	0.462896	0.000098
Br242	Br	-0.290708	0.962896	0.500098
Br243	Br	-0.552707	0.421177	0.000038
Br244	Br	-0.052707	0.921177	0.500038
H245	H	0.184702	-0.067941	0.000178
H246	H	0.684702	0.432059	0.500178
Br247	Br	-0.085943	0.107191	0.000315
Br248	Br	0.414057	0.607191	0.500315
Br249	Br	-0.282642	0.423919	0.000028
Br250	Br	0.217358	0.923919	0.500028
H251	H	0.185638	0.023519	0.000159
H252	H	0.685638	0.523519	0.500159
H253	H	-0.576591	0.693352	0.000179
H254	H	-0.076591	1.193352	0.500179
Br255	Br	-0.087473	-0.044057	0.000329
Br256	Br	0.412527	0.455943	0.500329
H257	H	-0.450881	0.446179	0.000069
H258	H	0.049119	0.946179	0.500069
H259	H	-0.015432	0.343366	0.000187
H260	H	0.484568	0.843366	0.500187
Br261	Br	-0.084732	0.226009	0.000369
Br262	Br	0.415268	0.726009	0.500369
H263	H	-0.014498	0.434833	0.000181
H264	H	0.485502	0.934833	0.500181
H265	H	-0.062472	0.057770	0.000317
H266	H	0.437528	0.557770	0.500317
H267	H	-0.187356	0.653176	0.000243
H268	H	0.312644	1.153176	0.500243
