data_functionalizedCrystal
_audit_creation_method	'MofGen! by Chris Wilmer'
_symmetry_space_group_name_H-M	'P1'
_symmetry_Int_Tables_number	1
_symmetry_cell_setting	triclinic
loop_
_symmetry_equiv_pos_as_xyz
  x,y,z
_cell_length_a	16.959455
_cell_length_b	18.050583
_cell_length_c	16.959454
_cell_angle_alpha	90.032002
_cell_angle_beta	89.982978
_cell_angle_gamma	89.985116
loop_
_atom_site_label
_atom_site_type_symbol
_atom_site_fract_x
_atom_site_fract_y
_atom_site_fract_z
Zn1	Zn	1.208388	-0.419912	0.314689
Zn2	Zn	1.208309	-0.295731	0.446894
Zn3	Zn	1.076215	-0.295739	0.314726
Zn4	Zn	1.076181	-0.419882	0.446823
O5	O	1.142274	-0.357816	0.380783
O6	O	1.318989	-0.403449	0.332241
O7	O	1.190768	-0.191808	0.429407
O8	O	1.093796	-0.312226	0.204110
O9	O	1.318931	-0.312214	0.429371
O10	O	1.190902	-0.403456	0.204083
O11	O	1.093719	-0.191813	0.332304
O12	O	0.965600	-0.312197	0.332235
O13	O	1.093738	-0.523811	0.429250
O14	O	0.965575	-0.403405	0.429285
O15	O	1.190869	-0.523833	0.332172
O16	O	1.190735	-0.312185	0.557495
O17	O	1.093661	-0.403398	0.557443
C18	C	0.936907	-0.357799	0.380757
C19	C	0.849051	-0.357809	0.380765
C20	C	1.142308	-0.551522	0.380699
C21	C	1.142323	-0.634068	0.380663
C22	C	0.477564	-0.310423	0.330207
C23	C	0.477586	-0.405251	0.431424
C24	C	0.560132	-0.405247	0.431412
C25	C	0.601398	-0.357829	0.380799
C26	C	0.560117	-0.310416	0.330196
C27	C	0.601419	-0.452654	0.482020
C28	C	0.683970	-0.452651	0.482011
C29	C	0.725237	-0.405236	0.431392
C30	C	0.683951	-0.357821	0.380787
C31	C	0.725217	-0.310404	0.330174
C32	C	0.683933	-0.262992	0.279564
C33	C	0.601384	-0.263001	0.279578
C34	C	0.807785	-0.405227	0.431379
C35	C	0.807770	-0.310396	0.330162
C36	C	1.195196	-0.833530	0.327846
C37	C	1.123102	-0.882925	0.308497
C38	C	1.142355	-0.785198	0.380649
C39	C	1.214478	-0.882885	0.399948
C40	C	1.142392	-0.931183	0.380634
C41	C	1.070223	-0.833506	0.361262
C42	C	1.161647	-0.833461	0.452748
C43	C	1.089503	-0.882834	0.433426
C44	C	1.142335	-0.701100	0.380655
C45	C	1.142404	-1.015280	0.380628
C46	C	1.348442	-0.357834	0.380810
C47	C	1.436298	-0.357841	0.380821
C48	C	1.142207	-0.357803	0.586149
C49	C	1.142251	-0.357823	0.674006
C50	C	1.142284	-0.164864	0.380810
C51	C	1.142422	-0.082319	0.380623
C52	C	1.142362	-0.357845	0.174615
C53	C	1.142399	-0.357857	0.086758
C54	C	1.091801	-0.405306	1.045484
C55	C	1.192967	-0.310402	1.045479
C56	C	1.192939	-0.310395	0.962933
C57	C	1.142341	-0.357844	0.921659
C58	C	1.091770	-0.405299	0.962931
C59	C	1.243503	-0.262936	0.921655
C60	C	1.243477	-0.262926	0.839104
C61	C	1.192882	-0.310379	0.797828
C62	C	1.142310	-0.357837	0.839105
C63	C	1.091711	-0.405285	0.797831
C64	C	1.041142	-0.452747	0.839107
C65	C	1.041174	-0.452751	0.921655
C66	C	1.192850	-0.310375	0.715280
C67	C	1.091680	-0.405278	0.715278
H68	H	0.841363	-0.271787	0.288941
H69	H	1.284692	-0.224300	0.955266
H70	H	1.050480	-0.443919	0.681677
C71	C	1.296852	-0.912182	0.422016
H72	H	1.334316	-0.895291	0.384452
H73	H	1.296163	-0.964803	0.422327
H74	H	1.310905	-0.894510	0.472879
C75	C	1.248468	-0.258174	0.669880
H76	H	1.278608	-0.229918	0.706285
H77	H	1.218242	-0.225791	0.637717
H78	H	1.282883	-0.286613	0.637639
H79	H	1.284654	-0.224281	0.805502
C80	C	0.556032	-0.504892	0.537603
H81	H	0.592440	-0.533147	0.567719
H82	H	0.523895	-0.537274	0.507324
H83	H	0.523765	-0.476505	0.572042
C84	C	0.853194	-0.457373	0.487041
H85	H	0.816795	-0.485615	0.517185
H86	H	0.885384	-0.428906	0.521439
H87	H	0.885410	-0.489782	0.456835
H88	H	0.443947	-0.271824	0.289000
C89	C	0.432197	-0.457406	0.487094
H90	H	0.377121	-0.450623	0.479850
H91	H	0.445714	-0.446456	0.540188
H92	H	0.445744	-0.507325	0.475576
H93	H	0.717542	-0.224382	0.238357
H94	H	1.044781	-0.904346	0.478073
H95	H	0.567763	-0.224401	0.238375
H96	H	1.239810	-0.811879	0.283164
C97	C	1.183705	-0.804081	0.535097
H98	H	1.234979	-0.820957	0.548738
H99	H	1.146705	-0.821696	0.572734
H100	H	1.183058	-0.751457	0.534616
C101	C	1.101074	-0.912282	0.226125
H102	H	1.138656	-0.895407	0.188672
H103	H	1.050215	-0.894650	0.212045
H104	H	1.100780	-0.964907	0.226838
C105	C	0.729375	-0.504807	0.537671
H106	H	0.692975	-0.533051	0.567811
H107	H	0.761567	-0.476346	0.572072
H108	H	0.761589	-0.537214	0.507460
H109	H	1.000003	-0.491392	0.955269
H110	H	0.999941	-0.491377	0.805492
C111	C	1.036177	-0.457508	1.090882
H112	H	1.043436	-0.450716	1.145957
H113	H	1.047703	-0.507414	1.077308
H114	H	0.983068	-0.446585	1.077396
H115	H	1.009227	-0.811906	0.344862
C116	C	1.248624	-0.258218	1.090878
H117	H	1.241404	-0.265022	1.145952
H118	H	1.237095	-0.208306	1.077393
H119	H	1.301722	-0.269142	1.077306
