data_functionalizedCrystal
_audit_creation_method	'MofGen! by Chris Wilmer'
_symmetry_space_group_name_H-M	'P1'
_symmetry_Int_Tables_number	1
_symmetry_cell_setting	triclinic
loop_
_symmetry_equiv_pos_as_xyz
  x,y,z
_cell_length_a	19.188925
_cell_length_b	19.188925
_cell_length_c	14.586319
_cell_angle_alpha	89.996566
_cell_angle_beta	89.995548
_cell_angle_gamma	83.142549
loop_
_atom_site_label
_atom_site_type_symbol
_atom_site_fract_x
_atom_site_fract_y
_atom_site_fract_z
O1	O	0.926145	0.087149	-0.076259
O2	O	1.259478	0.420482	0.257074
O3	O	1.592811	0.753815	0.590407
O4	O	0.722833	0.098887	-0.076257
O5	O	1.056166	0.432220	0.257077
O6	O	1.389499	0.765554	0.590410
O7	O	0.830358	-0.008638	-0.076253
O8	O	1.163691	0.324695	0.257080
O9	O	1.497024	0.658029	0.590414
O10	O	0.818619	0.194674	-0.076263
O11	O	1.151953	0.528007	0.257070
O12	O	1.485286	0.861341	0.590403
O13	O	0.830350	-0.008640	0.076228
O14	O	1.163684	0.324694	0.409561
O15	O	1.497017	0.658027	0.742894
O16	O	0.722825	0.098886	0.076224
O17	O	1.056158	0.432219	0.409557
O18	O	1.389492	0.765552	0.742891
O19	O	0.926137	0.087147	0.076221
O20	O	1.259470	0.420481	0.409555
O21	O	1.592804	0.753814	0.742888
Cu22	Cu	0.824480	0.093016	0.090145
Cu23	Cu	1.157814	0.426350	0.423479
Cu24	Cu	1.491147	0.759683	0.756812
Cu25	Cu	0.824489	0.093018	-0.090181
Cu26	Cu	1.157823	0.426351	0.243153
Cu27	Cu	1.491156	0.759685	0.576486
O28	O	0.818612	0.194672	0.076218
O29	O	1.151945	0.528006	0.409551
O30	O	1.485279	0.861339	0.742884
C31	C	0.696818	0.098507	-0.000016
C32	C	1.030151	0.431840	0.333317
C33	C	1.363484	0.765173	0.666651
C34	C	0.619313	0.097368	-0.000015
C35	C	0.952646	0.430701	0.333318
C36	C	1.285980	0.764034	0.666652
C37	C	0.057542	0.152832	-0.000020
C38	C	0.390875	0.486165	0.333313
C39	C	0.724208	0.819498	0.666647
C40	C	0.130365	0.153908	-0.000025
C41	C	0.463698	0.487242	0.333308
C42	C	0.797032	0.820575	0.666642
C43	C	0.175301	0.090816	-0.000020
C44	C	0.508634	0.424149	0.333313
C45	C	0.841967	0.757483	0.666647
C46	C	0.147408	0.026642	-0.000034
C47	C	0.480741	0.359976	0.333300
C48	C	0.814074	0.693309	0.666633
C49	C	0.074586	0.025568	-0.000038
C50	C	0.407919	0.358901	0.333295
C51	C	0.741252	0.692234	0.666629
N52	N	0.295976	0.045139	0.051888
N53	N	0.629309	0.378472	0.385221
N54	N	0.962643	0.711806	0.718554
N55	N	0.365153	0.046164	0.051894
N56	N	0.698487	0.379498	0.385227
N57	N	1.031820	0.712831	0.718560
C58	C	0.394710	0.094050	-0.000009
C59	C	0.728043	0.427383	0.333324
C60	C	1.061376	0.760717	0.666657
N61	N	0.352474	0.140882	-0.051907
N62	N	0.685807	0.474216	0.281426
N63	N	1.019141	0.807549	0.614759
N64	N	0.283290	0.139859	-0.051909
N65	N	0.616623	0.473193	0.281424
N66	N	0.949957	0.806526	0.614758
C67	C	0.254265	0.091974	-0.000016
C68	C	0.587598	0.425308	0.333317
C69	C	0.920931	0.758641	0.666651
C70	C	0.501557	0.159387	-0.000008
C71	C	0.834891	0.492720	0.333326
C72	C	1.168224	0.826053	0.666659
C73	C	0.574382	0.160461	-0.000018
C74	C	0.907716	0.493794	0.333315
C75	C	1.241049	0.827127	0.666648
C76	C	0.591424	0.033193	-0.000018
C77	C	0.924757	0.366526	0.333315
C78	C	1.258091	0.699860	0.666649
C79	C	0.518600	0.032121	-0.000016
C80	C	0.851934	0.365454	0.333317
C81	C	1.185267	0.698788	0.666650
C82	C	0.473671	0.095220	-0.000007
C83	C	0.807004	0.428553	0.333326
C84	C	1.140338	0.761886	0.666660
C85	C	0.829974	-0.034650	-0.000013
C86	C	1.163308	0.298683	0.333320
C87	C	1.496641	0.632017	0.666653
C88	C	0.828835	-0.112155	-0.000015
C89	C	1.162169	0.221179	0.333318
C90	C	1.495502	0.554512	0.666652
C91	C	0.884299	-0.673926	-0.000039
C92	C	1.217633	-0.340593	0.333294
C93	C	1.550966	-0.007259	0.666628
C94	C	0.885376	-0.601103	-0.000031
C95	C	1.218709	-0.267769	0.333303
C96	C	1.552043	0.065564	0.666636
C97	C	0.822284	-0.556167	-0.000030
C98	C	1.155617	-0.222834	0.333303
C99	C	1.488950	0.110500	0.666637
C100	C	0.758110	-0.584060	-0.000014
C101	C	1.091443	-0.250727	0.333319
C102	C	1.424777	0.082607	0.666652
C103	C	0.757035	-0.656882	-0.000013
C104	C	1.090369	-0.323549	0.333320
C105	C	1.423702	0.009785	0.666653
N106	N	0.776610	-0.435485	-0.051930
N107	N	1.109943	-0.102152	0.281403
N108	N	1.443277	0.231182	0.614737
N109	N	0.777635	-0.366308	-0.051933
N110	N	1.110968	-0.032974	0.281401
N111	N	1.444302	0.300359	0.614734
C112	C	0.825518	-0.336758	-0.000031
C113	C	1.158851	-0.003425	0.333303
C114	C	1.492184	0.329909	0.666636
N115	N	0.872347	-0.379000	0.051863
N116	N	1.205680	-0.045667	0.385196
N117	N	1.539014	0.287667	0.718529
N118	N	0.871324	-0.448184	0.051861
N119	N	1.204657	-0.114851	0.385195
N120	N	1.537990	0.218483	0.718528
C121	C	0.823442	-0.477203	-0.000031
C122	C	1.156775	-0.143870	0.333303
C123	C	1.490109	0.189464	0.666636
C124	C	0.890854	-0.229910	-0.000031
C125	C	1.224188	0.103423	0.333302
C126	C	1.557521	0.436756	0.666636
C127	C	0.891928	-0.157085	-0.000017
C128	C	1.225262	0.176248	0.333316
C129	C	1.558595	0.509581	0.666650
C130	C	0.764661	-0.140044	-0.000010
C131	C	1.097994	0.193290	0.333323
C132	C	1.431327	0.526623	0.666657
C133	C	0.763589	-0.212867	-0.000015
C134	C	1.096922	0.120466	0.333319
C135	C	1.430255	0.453799	0.666652
C136	C	0.826688	-0.257797	-0.000030
C137	C	1.160021	0.075537	0.333304
C138	C	1.493354	0.408870	0.666637
C139	C	0.952152	0.087528	-0.000021
C140	C	1.285485	0.420861	0.333312
C141	C	1.618819	0.754194	0.666645
C142	C	1.029657	0.088667	-0.000028
C143	C	1.362990	0.422000	0.333305
C144	C	1.696323	0.755333	0.666638
C145	C	0.818995	0.220684	-0.000024
C146	C	1.152329	0.554018	0.333309
C147	C	1.485662	0.887351	0.666642
C148	C	0.820134	0.298189	-0.000028
C149	C	1.153468	0.631522	0.333305
C150	C	1.486801	0.964856	0.666638
N151	N	0.824479	0.093014	0.216977
N152	N	1.157813	0.426348	0.550310
N153	N	1.491146	0.759681	0.883644
N154	N	0.824496	0.093014	-0.217013
N155	N	1.157829	0.426348	0.116321
N156	N	1.491163	0.759681	0.449654
C157	C	0.872107	0.045418	0.451985
C158	C	1.205440	0.378752	0.785319
C159	C	1.538774	0.712085	1.118652
C160	C	0.872109	0.045416	0.547967
C161	C	1.205442	0.378750	0.881300
C162	C	1.538776	0.712083	1.214633
C163	C	0.776863	0.140613	0.547973
C164	C	1.110196	0.473946	0.881306
C165	C	1.443530	0.807280	1.214639
C166	C	0.776858	0.140611	0.451993
C167	C	1.110192	0.473944	0.785326
C168	C	1.443525	0.807277	1.118660
C169	C	0.824484	0.093014	0.404002
C170	C	1.157818	0.426347	0.737335
C171	C	1.491151	0.759681	1.070669
C172	C	0.824491	0.093015	0.595963
C173	C	1.157824	0.426348	0.929296
C174	C	1.491158	0.759681	1.262629
C175	C	0.824493	0.093013	0.700030
C176	C	1.157826	0.426346	1.033363
C177	C	1.491160	0.759680	1.366697
C178	C	0.824482	0.093015	0.299928
C179	C	1.157815	0.426348	0.633262
C180	C	1.491148	0.759681	0.966595
H181	H	0.051883	-0.026685	-0.000045
H182	H	0.385217	0.306649	0.333288
H183	H	0.718550	0.639982	0.666622
O184	O	0.730692	0.186880	0.405277
O185	O	1.064025	0.520213	0.738610
O186	O	1.397358	0.853547	1.071943
C187	C	0.767948	0.229869	0.349763
C188	C	1.101281	0.563202	0.683096
C189	C	1.434615	0.896536	1.016429
H190	H	0.822665	0.201921	0.335379
H191	H	1.155999	0.535254	0.668713
H192	H	1.489332	0.868587	1.002046
H193	H	0.738771	0.240986	0.282273
H194	H	1.072104	0.574319	0.615606
H195	H	1.405438	0.907653	0.948939
H196	H	0.772534	0.281461	0.386744
H197	H	1.105868	0.614795	0.720077
H198	H	1.439201	0.948128	1.053411
O199	O	0.701319	-0.240075	0.000021
O200	O	1.034652	0.093258	0.333354
O201	O	1.367986	0.426592	0.666688
C202	C	0.713899	-0.313984	-0.000005
C203	C	1.047232	0.019349	0.333328
C204	C	1.380565	0.352682	0.666662
H205	H	0.768436	-0.331255	0.028864
H206	H	1.101769	0.002078	0.362197
H207	H	1.435103	0.335411	0.695531
H208	H	0.672849	-0.336222	0.044262
H209	H	1.006182	-0.002888	0.377595
H210	H	1.339516	0.330445	0.710928
H211	H	0.710583	-0.334241	-0.073159
H212	H	1.043916	-0.000908	0.260174
H213	H	1.377250	0.332426	0.593508
H214	H	0.153074	0.206161	-0.000009
H215	H	0.486407	0.539494	0.333324
H216	H	0.819740	0.872827	0.666657
H217	H	0.937628	-0.578394	-0.000039
H218	H	1.270962	-0.245061	0.333294
H219	H	1.604295	0.088273	0.666628
H220	H	0.020964	0.204212	-0.000017
H221	H	0.354298	0.537545	0.333317
H222	H	0.687631	0.870879	0.666650
O223	O	0.952190	-0.273489	-0.000158
O224	O	1.285523	0.059844	0.333175
O225	O	1.618857	0.393177	0.666509
C226	C	0.991159	-0.260886	-0.079141
C227	C	1.324492	0.072448	0.254193
C228	C	1.657826	0.405781	0.587526
H229	H	0.973849	-0.205586	-0.105465
H230	H	1.307182	0.127747	0.227869
H231	H	1.640516	0.461080	0.561202
H232	H	1.049407	-0.266193	-0.061381
H233	H	1.382740	0.067140	0.271952
H234	H	1.716073	0.400473	0.605285
H235	H	0.981734	-0.300684	-0.134442
H236	H	1.315067	0.032649	0.198891
H237	H	1.648400	0.365982	0.532225
H238	H	0.183999	-0.024728	-0.000032
H239	H	0.517332	0.308606	0.333301
H240	H	0.850666	0.641939	0.666634
H241	H	0.944181	-0.134384	-0.000020
H242	H	1.277515	0.198950	0.333313
H243	H	1.610848	0.532283	0.666647
H244	H	0.704783	-0.679584	-0.000003
H245	H	1.038116	-0.346251	0.333331
H246	H	1.371450	-0.012918	0.666664
H247	H	0.713290	-0.103458	-0.000002
H248	H	1.046623	0.229876	0.333332
H249	H	1.379956	0.563209	0.666665
O250	O	0.601500	0.222780	-0.000186
O251	O	0.934833	0.556113	0.333147
O252	O	1.268166	0.889446	0.666480
C253	C	0.643123	0.227205	-0.079153
C254	C	0.976457	0.560539	0.254180
C255	C	1.309790	0.893872	0.587514
H256	H	0.626017	0.190768	-0.134342
H257	H	0.959350	0.524101	0.198991
H258	H	1.292684	0.857435	0.532325
H259	H	0.636405	0.283495	-0.105667
H260	H	0.969738	0.616829	0.227666
H261	H	1.303071	0.950162	0.561000
H262	H	0.700605	0.210932	-0.061306
H263	H	1.033938	0.544266	0.272028
H264	H	1.367272	0.877599	0.605361
O265	O	0.918391	-0.000887	0.405508
O266	O	1.251724	0.332447	0.738841
O267	O	1.585058	0.665780	1.072175
C268	C	0.960435	-0.042885	0.468446
C269	C	1.293768	0.290448	0.801779
C270	C	1.627102	0.623782	1.135113
H271	H	0.931815	-0.043598	0.536869
H272	H	1.265149	0.289735	0.870202
H273	H	1.598482	0.623069	1.203535
H274	H	0.971256	-0.098673	0.440721
H275	H	1.304589	0.234660	0.774054
H276	H	1.637922	0.567994	1.107388
H277	H	1.012231	-0.020346	0.478642
H278	H	1.345564	0.312987	0.811975
H279	H	1.678898	0.646320	1.145308
O280	O	0.458008	0.220742	-0.000052
O281	O	0.791341	0.554075	0.333281
O282	O	1.124675	0.887408	0.666614
C283	C	0.498240	0.277609	-0.000034
C284	C	0.831573	0.610942	0.333299
C285	C	1.164907	0.944275	0.666632
H286	H	0.552650	0.259720	-0.028900
H287	H	0.885984	0.593054	0.304434
H288	H	1.219317	0.926387	0.637767
H289	H	0.471242	0.321801	-0.044308
H290	H	0.804576	0.655134	0.289025
H291	H	1.137909	0.988468	0.622359
H292	H	0.503359	0.297290	0.073117
H293	H	0.836693	0.630623	0.406450
H294	H	1.170026	0.963956	0.739783
H295	H	0.628010	-0.018178	-0.000021
H296	H	0.961343	0.315155	0.333312
H297	H	1.294677	0.648489	0.666646
H298	H	0.495897	-0.020129	-0.000018
H299	H	0.829230	0.313204	0.333315
H300	H	1.162563	0.646537	0.666649
O301	O	0.918276	-0.000886	0.594618
O302	O	1.251609	0.332448	0.927952
O303	O	1.584942	0.665781	1.261285
C304	C	0.881024	-0.043857	0.650163
C305	C	1.214357	0.289476	0.983496
C306	C	1.547690	0.622809	1.316830
H307	H	0.825966	-0.044899	0.621248
H308	H	1.159300	0.288434	0.954582
H309	H	1.492633	0.621767	1.287915
H310	H	0.909683	-0.099425	0.651250
H311	H	1.243016	0.233908	0.984584
H312	H	1.576349	0.567241	1.317917
H313	H	0.877299	-0.021998	0.722903
H314	H	1.210633	0.311336	1.056237
H315	H	1.543966	0.644669	1.389570
O316	O	0.730578	0.186753	0.594697
O317	O	1.063911	0.520087	0.928030
O318	O	1.397244	0.853420	1.261363
C319	C	0.687614	0.149471	0.650213
C320	C	1.020947	0.482804	0.983546
C321	C	1.354280	0.816137	1.316880
H322	H	0.715590	0.094765	0.664591
H323	H	1.048923	0.428098	0.997925
H324	H	1.382257	0.761431	1.331258
H325	H	0.676485	0.178643	0.717705
H326	H	1.009819	0.511976	1.051039
H327	H	1.343152	0.845309	1.384372
H328	H	0.636026	0.144857	0.613237
H329	H	0.969359	0.478191	0.946570
H330	H	1.302692	0.811524	1.279904
O331	O	0.945639	-0.717496	-0.000166
O332	O	1.278972	-0.384162	0.333168
O333	O	1.612305	-0.050829	0.666501
C334	C	0.984604	-0.704893	-0.079152
C335	C	1.317937	-0.371560	0.254182
C336	C	1.651271	-0.038226	0.587515
H337	H	0.967287	-0.649597	-0.105483
H338	H	1.300620	-0.316264	0.227851
H339	H	1.633953	0.017069	0.561184
H340	H	1.042852	-0.710192	-0.061394
H341	H	1.376185	-0.376859	0.271939
H342	H	1.709518	-0.043525	0.605272
H343	H	0.975183	-0.744698	-0.134447
H344	H	1.308516	-0.411365	0.198886
H345	H	1.641850	-0.078031	0.532220
O346	O	0.696841	-0.540384	-0.000179
O347	O	1.030174	-0.207050	0.333154
O348	O	1.363508	0.126283	0.666487
C349	C	0.693664	-0.497738	-0.079141
C350	C	1.026997	-0.164405	0.254192
C351	C	1.360330	0.168929	0.587525
H352	H	0.729449	-0.524519	-0.134339
H353	H	1.062782	-0.191186	0.198994
H354	H	1.396116	0.142147	0.532327
H355	H	0.637397	-0.489374	-0.105645
H356	H	0.970731	-0.156041	0.227689
H357	H	1.304064	0.177293	0.561022
H358	H	0.711574	-0.444837	-0.061292
H359	H	1.044907	-0.111504	0.272041
H360	H	1.378241	0.221829	0.605375
