data_functionalizedCrystal
_audit_creation_method	'MofGen! by Chris Wilmer'
_symmetry_space_group_name_H-M	'P1'
_symmetry_Int_Tables_number	1
_symmetry_cell_setting	triclinic
loop_
_symmetry_equiv_pos_as_xyz
  x,y,z
_cell_length_a	8.497374
_cell_length_b	8.497374
_cell_length_c	21.295418
_cell_angle_alpha	89.983088
_cell_angle_beta	90.022758
_cell_angle_gamma	90.005237
loop_
_atom_site_label
_atom_site_type_symbol
_atom_site_fract_x
_atom_site_fract_y
_atom_site_fract_z
Zn1	Zn	0.892992	0.627664	0.962354
Zn2	Zn	0.629257	0.891409	0.962349
Zn3	Zn	0.629122	0.627710	0.857116
Zn4	Zn	0.892892	0.891468	0.857101
O5	O	0.761066	0.759563	0.909730
O6	O	0.858105	0.662606	1.050443
O7	O	0.408477	0.856424	0.948394
O8	O	0.664110	0.406941	0.871084
O9	O	0.664340	0.856379	1.050439
O10	O	0.857974	0.406907	0.948402
O11	O	0.408378	0.662685	0.871079
O12	O	0.664013	0.662742	0.769024
O13	O	1.113667	0.856479	0.871058
O14	O	0.857804	0.856524	0.769013
O15	O	1.113741	0.662663	0.948388
O16	O	0.664244	1.112180	0.948379
O17	O	0.857935	1.112223	0.871054
C18	C	0.760884	0.759646	0.746178
C19	C	0.760844	0.759719	0.676210
C20	C	1.172546	0.759565	0.909725
C21	C	1.351190	0.759582	0.909726
C22	C	0.761088	1.169443	0.909722
C23	C	0.761063	1.348087	0.909739
C24	C	0.861600	0.860755	0.643354
C25	C	0.861671	0.860716	0.577612
C26	C	0.760957	0.759658	0.544727
C27	C	0.660194	0.658603	0.577591
C28	C	0.660138	0.658633	0.643333
N29	N	0.622972	0.747296	0.441469
N30	N	0.623030	0.747276	0.379018
C31	C	0.761125	0.759558	0.346653
N32	N	0.899161	0.771891	0.379099
N33	N	0.899101	0.771919	0.441556
C34	C	0.761008	0.759613	0.473442
C35	C	0.861966	0.860557	0.242511
C36	C	0.862039	0.860507	0.176768
C37	C	0.660549	0.658401	0.176749
C38	C	0.660490	0.658443	0.242491
C39	C	0.761196	0.759529	0.275369
C40	C	0.761249	0.759481	1.073920
C41	C	0.761327	0.759446	1.143888
H42	H	0.943605	0.943065	0.670119
C43	C	0.549409	0.547438	0.541418
N44	N	0.465966	0.463702	0.514172
H45	H	0.943724	0.942991	0.550855
C46	C	0.549285	0.547489	0.679475
N47	N	0.465785	0.463777	0.706699
C48	C	0.972762	0.971734	0.278679
N49	N	1.056218	1.055471	0.305918
C50	C	0.549764	0.547234	0.140580
N51	N	0.466319	0.463498	0.113335
H52	H	0.944097	0.942780	0.150017
C53	C	0.549634	0.547308	0.278634
N54	N	0.466134	0.463595	0.305857
