data_functionalizedCrystal
_audit_creation_method	'MofGen! by Chris Wilmer'
_symmetry_space_group_name_H-M	'P1'
_symmetry_Int_Tables_number	1
_symmetry_cell_setting	triclinic
loop_
_symmetry_equiv_pos_as_xyz
  x,y,z
_cell_length_a	13.262402
_cell_length_b	13.185407
_cell_length_c	16.053802
_cell_angle_alpha	91.684752
_cell_angle_beta	103.304241
_cell_angle_gamma	68.869530
loop_
_atom_site_label
_atom_site_type_symbol
_atom_site_fract_x
_atom_site_fract_y
_atom_site_fract_z
O1	O	1.332004	0.162054	0.233064
O2	O	1.027616	0.173452	0.163938
O3	O	1.231960	0.010026	0.210347
O4	O	1.127659	0.325480	0.186655
O5	O	1.220723	0.018983	0.346654
O6	O	1.016379	0.182410	0.300245
O7	O	1.320767	0.171012	0.369371
Zn8	Zn	1.166788	0.178133	0.356450
Zn9	Zn	1.181594	0.166331	0.176859
O10	O	1.116422	0.334438	0.322962
C11	C	0.983860	0.176467	0.223430
C12	C	0.870227	0.172090	0.197624
C13	C	1.236916	-0.025917	0.280901
C14	C	1.268410	-0.146361	0.288050
C15	C	0.822967	0.165150	0.111197
C16	C	0.716198	0.161049	0.086952
C17	C	0.656683	0.163879	0.149131
C18	C	0.703946	0.170812	0.235560
C19	C	0.810721	0.174922	0.259808
C20	C	0.644437	0.173651	0.297741
C21	C	0.691700	0.180584	0.384171
C22	C	0.798465	0.184693	0.408414
C23	C	0.857981	0.181863	0.346235
C24	C	0.537662	0.169541	0.273494
C25	C	0.525416	0.179313	0.422104
C26	C	0.632185	0.183415	0.446350
C27	C	0.967836	-0.441502	0.219783
C28	C	0.938243	-0.328339	0.213056
C29	C	1.020782	-0.282839	0.231805
C30	C	1.132920	-0.350513	0.257280
C31	C	1.162517	-0.463687	0.264000
C32	C	1.215463	-0.305024	0.276022
C33	C	1.327601	-0.372698	0.301497
C34	C	1.357193	-0.485861	0.308217
C35	C	1.274654	-0.531361	0.289469
C36	C	1.185866	-0.191850	0.269302
C37	C	1.380547	-0.214035	0.313519
C38	C	1.410140	-0.327198	0.320245
C39	C	1.364523	0.167997	0.309877
C40	C	1.478156	0.172373	0.335678
C41	C	1.111467	0.370381	0.252406
C42	C	1.079973	0.490824	0.245251
N43	N	1.156692	0.186187	0.479017
N44	N	1.191701	0.158268	0.054295
C45	C	1.243658	0.116674	0.542462
C46	C	1.236602	0.122319	0.628266
C47	C	1.142582	0.197482	0.650624
C48	C	1.055608	0.266997	0.587171
C49	C	1.062662	0.261347	0.501368
C50	C	1.111780	0.222133	0.905038
C51	C	1.104735	0.227781	0.990849
C52	C	1.285729	0.083100	1.031938
C53	C	1.292777	0.077461	0.946132
C54	C	1.205800	0.146972	0.882686
N55	N	1.135369	0.203256	0.738330
N56	N	1.213011	0.141193	0.794982
H57	H	0.499191	0.163898	0.203123
N58	N	0.973143	0.186284	0.372371
H59	H	0.969424	0.256220	0.401236
H60	H	1.023444	0.122113	0.413496
N61	N	0.817303	-0.255351	0.185586
H62	H	0.804855	-0.211227	0.131282
H63	H	0.769584	-0.301418	0.174779
N64	N	0.665233	0.153557	-0.006260
H65	H	0.588564	0.151386	-0.012186
H66	H	0.659523	0.219172	-0.040615
N67	N	1.345066	0.035586	0.518364
H68	H	1.322046	-0.015573	0.476889
H69	H	1.381976	0.075670	0.490513
N70	N	0.954205	0.348073	0.611285
H71	H	0.900182	0.391251	0.558070
H72	H	0.917361	0.307979	0.639199
H73	H	0.569747	0.160540	0.129385
N74	N	0.849443	0.192167	0.501633
H75	H	0.926110	0.194341	0.507557
H76	H	0.801059	0.260612	0.523700
N77	N	1.330426	0.047383	0.696703
H78	H	1.391068	-0.001071	0.669522
H79	H	1.361384	0.092213	0.739969
N80	N	0.887151	0.162106	0.044139
H81	H	0.961958	0.165764	0.072616
H82	H	0.898217	0.092223	0.013599
N83	N	0.968856	0.336320	0.432938
H84	H	0.958035	0.414523	0.445678
H85	H	0.987648	0.321242	0.375217
H86	H	0.900646	-0.478560	0.204514
H87	H	0.670681	0.189061	0.516722
H88	H	0.476957	0.181622	0.472736
H89	H	1.040961	0.278734	0.853387
H90	H	1.094562	-0.136760	0.248560
N91	N	0.988869	-0.160786	0.224550
H92	H	0.905307	-0.124818	0.205568
H93	H	1.015858	-0.134653	0.282159
H94	H	1.298742	-0.623506	0.294953
N95	N	1.379531	0.008132	1.100371
H96	H	1.350668	-0.038343	1.130093
H97	H	1.440127	-0.040270	1.073127
H98	H	1.447761	-0.176993	0.328743
N99	N	1.003330	0.308864	1.014968
H100	H	0.949301	0.352044	0.961756
H101	H	0.966489	0.268772	1.042887
H102	H	1.501445	-0.382314	0.340987
N103	N	1.478140	-0.558856	0.335685
H104	H	1.525938	-0.512864	0.346545
H105	H	1.490487	-0.602973	0.389966
N106	N	1.394185	-0.003607	0.922019
H107	H	1.448208	-0.046788	0.975233
H108	H	1.371079	-0.054695	0.880519
