data_functionalizedCrystal
_audit_creation_method	'MofGen! by Chris Wilmer'
_symmetry_space_group_name_H-M	'P1'
_symmetry_Int_Tables_number	1
_symmetry_cell_setting	triclinic
loop_
_symmetry_equiv_pos_as_xyz
  x,y,z
_cell_length_a	14.519709
_cell_length_b	10.868271
_cell_length_c	11.792241
_cell_angle_alpha	89.994719
_cell_angle_beta	83.936780
_cell_angle_gamma	90.001824
loop_
_atom_site_label
_atom_site_type_symbol
_atom_site_fract_x
_atom_site_fract_y
_atom_site_fract_z
O1	O	-1.224412	0.102147	-0.148781
O2	O	-0.974412	0.352147	0.101219
O3	O	-0.724412	0.602147	0.351219
O4	O	-0.474412	0.852147	0.601219
O5	O	-0.955999	0.102188	-0.166302
O6	O	-0.705999	0.352188	0.083698
O7	O	-0.455999	0.602188	0.333698
O8	O	-0.205999	0.852188	0.583698
O9	O	-1.096719	0.102158	0.007665
O10	O	-0.846719	0.352158	0.257665
O11	O	-0.596719	0.602158	0.507665
O12	O	-0.346719	0.852158	0.757665
O13	O	-1.083692	0.102178	-0.322748
O14	O	-0.833692	0.352178	-0.072748
O15	O	-0.583692	0.602178	0.177252
O16	O	-0.333692	0.852178	0.427252
O17	O	-1.096707	-0.102486	0.007672
O18	O	-0.846707	0.147514	0.257672
O19	O	-0.596707	0.397514	0.507672
O20	O	-0.346707	0.647514	0.757672
O21	O	-0.955987	-0.102456	-0.166295
O22	O	-0.705987	0.147544	0.083705
O23	O	-0.455987	0.397544	0.333705
O24	O	-0.205987	0.647544	0.583705
O25	O	-1.224400	-0.102497	-0.148774
O26	O	-0.974400	0.147503	0.101226
O27	O	-0.724400	0.397503	0.351226
O28	O	-0.474400	0.647503	0.601226
Zn29	Zn	-1.090192	-0.134968	-0.157533
Zn30	Zn	-0.840192	0.115032	0.092467
Zn31	Zn	-0.590192	0.365032	0.342467
Zn32	Zn	-0.340192	0.615032	0.592467
Zn33	Zn	-1.090207	0.134660	-0.157542
Zn34	Zn	-0.840207	0.384660	0.092458
Zn35	Zn	-0.590207	0.634660	0.342458
Zn36	Zn	-0.340207	0.884660	0.592458
O37	O	-1.083680	-0.102467	-0.322741
O38	O	-0.833680	0.147533	-0.072741
O39	O	-0.583680	0.397533	0.177259
O40	O	-0.333680	0.647533	0.427259
C41	C	-0.921630	-0.000129	-0.165482
C42	C	-0.671630	0.249871	0.084518
C43	C	-0.421630	0.499871	0.334518
C44	C	-0.171630	0.749871	0.584518
C45	C	-0.819240	-0.000113	-0.163035
C46	C	-0.569240	0.249887	0.086965
C47	C	-0.319240	0.499887	0.336965
C48	C	-0.069240	0.749887	0.586965
N49	N	-1.090188	-0.318983	-0.157527
N50	N	-0.840188	-0.068983	0.092473
N51	N	-0.590188	0.181017	0.342473
N52	N	-0.340188	0.431017	0.592473
C53	C	-1.095895	-0.000163	0.049955
C54	C	-0.845895	0.249837	0.299955
C55	C	-0.595895	0.499837	0.549955
C56	C	-0.345895	0.749837	0.799955
C57	C	-1.093446	-0.000162	0.175955
C58	C	-0.843446	0.249838	0.425955
C59	C	-0.593446	0.499838	0.675955
C60	C	-0.343446	0.749838	0.925955
C61	C	-0.444311	-0.000165	-0.154027
C62	C	-0.194311	0.249835	0.095973
C63	C	0.055689	0.499835	0.345973
C64	C	0.305689	0.749835	0.595973
C65	C	-0.548628	-0.000150	-0.156528
C66	C	-0.298628	0.249850	0.093472
C67	C	-0.048628	0.499850	0.343472
C68	C	0.201372	0.749850	0.593472
C69	C	-0.631772	-0.000138	-0.158531
C70	C	-0.381772	0.249862	0.091469
C71	C	-0.131772	0.499862	0.341469
C72	C	0.118228	0.749862	0.591469
C73	C	-0.736096	-0.000126	-0.161033
C74	C	-0.486096	0.249874	0.088967
C75	C	-0.236096	0.499874	0.338967
C76	C	0.013904	0.749874	0.588967
C77	C	-0.258769	-0.000174	-0.149594
C78	C	-0.008769	0.249826	0.100406
C79	C	0.241231	0.499826	0.350406
C80	C	0.491231	0.749826	0.600406
C81	C	-0.361159	-0.000172	-0.152041
C82	C	-0.111159	0.249828	0.097959
C83	C	0.138841	0.499828	0.347959
C84	C	0.388841	0.749828	0.597959
C85	C	-1.090202	-0.569989	-0.157540
C86	C	-0.840202	-0.319989	0.092460
C87	C	-0.590202	-0.069989	0.342460
C88	C	-0.340202	0.180011	0.592460
C89	C	-1.090191	-0.430311	-0.157536
C90	C	-0.840191	-0.180311	0.092464
C91	C	-0.590191	0.069689	0.342464
C92	C	-0.340191	0.319689	0.592464
N93	N	-1.090218	0.318674	-0.157540
N94	N	-0.840218	0.568674	0.092460
N95	N	-0.590218	0.818674	0.342460
N96	N	-0.340218	1.068674	0.592460
C97	C	-1.084504	-0.000143	-0.365031
C98	C	-0.834504	0.249857	-0.115031
C99	C	-0.584504	0.499857	0.134969
C100	C	-0.334504	0.749857	0.384969
C101	C	-1.086954	-0.000136	-0.491031
C102	C	-0.836954	0.249864	-0.241031
C103	C	-0.586954	0.499864	0.008969
C104	C	-0.336954	0.749864	0.258969
C105	C	-1.088942	-0.000141	0.406642
C106	C	-0.838942	0.249859	0.656642
C107	C	-0.588942	0.499859	0.906642
C108	C	-0.338942	0.749859	1.156642
C109	C	-1.091444	-0.000152	0.278271
C110	C	-0.841444	0.249848	0.528271
C111	C	-0.591444	0.499848	0.778271
C112	C	-0.341444	0.749848	1.028271
