data_functionalizedCrystal
_audit_creation_method	'MofGen! by Chris Wilmer'
_symmetry_space_group_name_H-M	'P1'
_symmetry_Int_Tables_number	1
_symmetry_cell_setting	triclinic
loop_
_symmetry_equiv_pos_as_xyz
  x,y,z
_cell_length_a	13.032721
_cell_length_b	18.215407
_cell_length_c	18.215399
_cell_angle_alpha	89.982187
_cell_angle_beta	97.154738
_cell_angle_gamma	97.198866
loop_
_atom_site_label
_atom_site_type_symbol
_atom_site_fract_x
_atom_site_fract_y
_atom_site_fract_z
Zn1	Zn	-0.416201	1.087866	-0.453296
Zn2	Zn	-0.082868	1.421200	-0.119963
Zn3	Zn	0.250466	1.754533	0.213370
Zn4	Zn	-0.590962	1.072153	-0.345859
Zn5	Zn	-0.257629	1.405486	-0.012525
Zn6	Zn	0.075705	1.738819	0.320808
Zn7	Zn	-0.416217	0.964798	-0.330249
Zn8	Zn	-0.082884	1.298131	0.003084
Zn9	Zn	0.250449	1.631464	0.336417
Zn10	Zn	-0.590886	0.949149	-0.468881
Zn11	Zn	-0.257553	1.282483	-0.135548
Zn12	Zn	0.075781	1.615816	0.197786
O13	O	-0.503567	1.018491	-0.399571
O14	O	-0.170233	1.351825	-0.066238
O15	O	0.163100	1.685158	0.267095
O16	O	-0.439409	1.188764	-0.439055
O17	O	-0.106075	1.522097	-0.105721
O18	O	0.227258	1.855431	0.227612
O19	O	-0.567820	1.057884	-0.240807
O20	O	-0.234487	1.391217	0.092526
O21	O	0.098846	1.724551	0.425860
O22	O	-0.269977	0.994248	-0.333517
O23	O	0.063356	1.327582	-0.000184
O24	O	0.396689	1.660915	0.333150
O25	O	-0.567805	1.177219	-0.360121
O26	O	-0.234472	1.510552	-0.026787
O27	O	0.098862	1.843886	0.306546
O28	O	-0.269966	1.084666	-0.423919
O29	O	0.063368	1.418000	-0.090586
O30	O	0.396701	1.751333	0.242748
O31	O	-0.439436	0.979011	-0.229339
O32	O	-0.106103	1.312344	0.103994
O33	O	0.227231	1.645678	0.437328
O34	O	-0.439362	0.859740	-0.348629
O35	O	-0.106029	1.193073	-0.015296
O36	O	0.227305	1.526407	0.318038
O37	O	-0.567675	0.967578	-0.569794
O38	O	-0.234342	1.300911	-0.236461
O39	O	0.098992	1.634245	0.096872
O40	O	-0.567690	0.848243	-0.450481
O41	O	-0.234357	1.181576	-0.117148
O42	O	0.098976	1.514910	0.216186
O43	O	-0.439335	1.069493	-0.558344
O44	O	-0.106001	1.402826	-0.225011
O45	O	0.227332	1.736160	0.108322
O46	O	-0.737190	1.042711	-0.375232
O47	O	-0.403856	1.376044	-0.041899
O48	O	-0.070523	1.709377	0.291434
O49	O	-0.737134	0.952341	-0.465616
O50	O	-0.403800	1.285674	-0.132283
O51	O	-0.070467	1.619007	0.201050
C52	C	-0.503521	0.827289	-0.399553
C53	C	-0.170187	1.160623	-0.066219
C54	C	0.163146	1.493956	0.267114
C55	C	-0.503526	0.745490	-0.399565
C56	C	-0.170193	1.078823	-0.066231
C57	C	0.163141	1.412157	0.267102
C58	C	-0.436839	0.486423	-0.440759
C59	C	-0.103506	0.819756	-0.107425
C60	C	0.229827	1.153090	0.225908
C61	C	-0.436823	0.563283	-0.440755
C62	C	-0.103489	0.896617	-0.107422
C63	C	0.229844	1.229950	0.225912
C64	C	-0.570328	0.551298	-0.358403
C65	C	-0.236994	0.884631	-0.025070
C66	C	0.096339	1.217965	0.308264
C67	C	-0.570349	0.474439	-0.358411
C68	C	-0.237016	0.807772	-0.025078
C69	C	0.096318	1.141106	0.308255
C70	C	-0.503599	0.442004	-0.399588
C71	C	-0.170266	0.775337	-0.066254
C72	C	0.163068	1.108671	0.267079
C73	C	-0.503561	0.595723	-0.399575
C74	C	-0.170227	0.929057	-0.066242
C75	C	0.163106	1.262390	0.267091
C76	C	-0.503543	0.679059	-0.399571
C77	C	-0.170209	1.012392	-0.066238
C78	C	0.163124	1.345725	0.267096
C79	C	-0.503618	0.358663	-0.399593
C80	C	-0.170285	0.691997	-0.066260
C81	C	0.163049	1.025330	0.267073
C82	C	-0.775079	0.994142	-0.423825
C83	C	-0.441746	1.327476	-0.090492
C84	C	-0.108413	1.660809	0.242841
C85	C	-0.891234	0.983793	-0.434226
C86	C	-0.557900	1.317127	-0.100893
C87	C	-0.224567	1.650460	0.232441
C88	C	-0.943012	1.023932	-0.394176
C89	C	-0.609679	1.357265	-0.060843
C90	C	-0.276345	1.690599	0.272490
C91	C	-1.063064	1.013236	-0.404925
C92	C	-0.729730	1.346570	-0.071591
C93	C	-0.396397	1.679903	0.261742
C94	C	-0.230994	1.042956	-0.375239
C95	C	0.102340	1.376289	-0.041905
C96	C	0.435673	1.709622	0.291428
C97	C	-0.114839	1.053381	-0.364869
C98	C	0.218494	1.386714	-0.031536
C99	C	0.551827	1.720047	0.301797
C100	C	-0.503495	1.018543	-0.591518
C101	C	-0.170161	1.351876	-0.258185
C102	C	0.163172	1.685209	0.075149
C103	C	-0.503464	1.018565	-0.673314
C104	C	-0.170130	1.351898	-0.339981
C105	C	0.163203	1.685231	-0.006647
C106	C	-0.503614	1.210440	-0.399590
C107	C	-0.170280	1.543774	-0.066257
C108	C	0.163053	1.877107	0.267076
C109	C	-0.503634	1.292237	-0.399598
C110	C	-0.170300	1.625571	-0.066265
C111	C	0.163033	1.958904	0.267068
C112	C	-0.436575	1.071654	-0.855542
C113	C	-0.103241	1.404988	-0.522208
C114	C	0.230092	1.738321	-0.188875
C115	C	-0.436544	1.071666	-0.932398
C116	C	-0.103211	1.404999	-0.599064
C117	C	0.230123	1.738332	-0.265731
C118	C	-0.570191	0.965542	-0.944310
C119	C	-0.236858	1.298875	-0.610977
C120	C	0.096475	1.632208	-0.277643
C121	C	-0.570216	0.965527	-0.867455
C122	C	-0.236883	1.298861	-0.534121
C123	C	0.096451	1.632194	-0.200788
C124	C	-0.503409	1.018588	-0.823073
C125	C	-0.170076	1.351921	-0.489739
C126	C	0.163258	1.685254	-0.156406
C127	C	-0.503354	1.018613	-0.976784
C128	C	-0.170021	1.351947	-0.643451
C129	C	0.163313	1.685280	-0.310117
C130	C	-0.503322	1.018625	-1.060115
C131	C	-0.169988	1.351959	-0.726781
C132	C	0.163345	1.685292	-0.393448
C133	C	-0.503440	1.018575	-0.739736
C134	C	-0.170106	1.351908	-0.406403
C135	C	0.163227	1.685242	-0.073070
C136	C	-0.503563	1.018490	-0.208365
C137	C	-0.170230	1.351823	0.124969
C138	C	0.163104	1.685156	0.458302
C139	C	-0.503299	1.018637	-0.126543
C140	C	-0.169966	1.351970	0.206791
C141	C	0.163367	1.685303	0.540124
H142	H	-0.382487	0.460017	-0.474287
H143	H	-0.049154	0.793351	-0.140954
H144	H	0.284180	1.126684	0.192380
C145	C	-0.710931	0.375425	-0.360600
C146	C	-0.377597	0.708758	-0.027267
C147	C	-0.044264	1.042092	0.306067
C148	C	-0.643741	0.425608	-0.313154
C149	C	-0.310407	0.758941	0.020179
C150	C	0.022926	1.092275	0.353513
H151	H	-0.756243	0.345283	-0.332663
H152	H	-0.422910	0.678616	0.000671
H153	H	-0.089577	1.011950	0.334004
H154	H	-0.671184	0.345111	-0.385119
H155	H	-0.337851	0.678445	-0.051785
H156	H	-0.004518	1.011778	0.281548
H157	H	-0.750944	0.401850	-0.396189
H158	H	-0.417611	0.735183	-0.062856
H159	H	-0.084278	1.068517	0.270478
H160	H	-0.603721	0.399183	-0.277568
H161	H	-0.270388	0.732516	0.055765
H162	H	0.062946	1.065850	0.389099
H163	H	-0.683491	0.455925	-0.288623
H164	H	-0.350158	0.789259	0.044710
H165	H	-0.016825	1.122592	0.378043
C166	C	-1.080927	1.181021	-0.326117
C167	C	-0.747593	1.514354	0.007216
C168	C	-0.414260	1.847688	0.340550
C169	C	-1.054715	1.110467	-0.307835
C170	C	-0.721382	1.443801	0.025498
C171	C	-0.388049	1.777134	0.358831
H172	H	-1.043802	1.216262	-0.290909
H173	H	-0.710469	1.549595	0.042424
H174	H	-0.377135	1.882929	0.375758
H175	H	-1.153706	1.181317	-0.325853
H176	H	-0.820373	1.514650	0.007480
H177	H	-0.487040	1.847984	0.340814
H178	H	-1.063030	1.193336	-0.373984
H179	H	-0.729696	1.526669	-0.040651
H180	H	-0.396363	1.860003	0.292683
H181	H	-1.072619	1.098150	-0.259970
H182	H	-0.739286	1.431483	0.073364
H183	H	-0.405953	1.764816	0.406697
H184	H	-0.981919	1.110169	-0.308091
H185	H	-0.648586	1.443503	0.025242
H186	H	-0.315252	1.776836	0.358575
C187	C	-0.909276	1.062833	-0.266593
C188	C	-0.575943	1.396166	0.066741
C189	C	-0.242609	1.729500	0.400074
C190	C	-0.882885	1.081012	-0.337141
C191	C	-0.549552	1.414346	-0.003808
C192	C	-0.216218	1.747679	0.329525
H193	H	-0.872161	1.098076	-0.231382
H194	H	-0.538827	1.431409	0.101951
H195	H	-0.205494	1.764742	0.435284
H196	H	-0.891499	1.014970	-0.254206
H197	H	-0.558166	1.348304	0.079127
H198	H	-0.224832	1.681637	0.412460
H199	H	-0.982066	1.063137	-0.266342
H200	H	-0.648733	1.396470	0.066991
H201	H	-0.315400	1.729803	0.400324
H202	H	-0.810095	1.080703	-0.337393
H203	H	-0.476762	1.414037	-0.004060
H204	H	-0.143428	1.747370	0.329273
H205	H	-0.900655	1.128887	-0.349531
H206	H	-0.567321	1.462221	-0.016198
H207	H	-0.233988	1.795554	0.317136
H208	H	-0.382461	0.599447	-0.474281
H209	H	-0.049128	0.932780	-0.140948
H210	H	0.284205	1.266113	0.192385
H211	H	-0.624640	0.922309	-0.841018
H212	H	-0.291306	1.255643	-0.507685
H213	H	0.042027	1.588976	-0.174352
C214	C	-1.230477	0.956604	-0.461568
C215	C	-0.897143	1.289937	-0.128234
C216	C	-0.563810	1.623270	0.205099
C217	C	-1.123187	0.956151	-0.461960
C218	C	-0.789854	1.289484	-0.128626
C219	C	-0.456521	1.622817	0.204707
H220	H	-1.267593	0.921359	-0.496775
H221	H	-0.934259	1.254692	-0.163442
H222	H	-0.600926	1.588026	0.169891
H223	H	-1.248241	1.004467	-0.473964
H224	H	-0.914908	1.337801	-0.140631
H225	H	-0.581575	1.671134	0.192703
H226	H	-1.248359	0.944280	-0.413699
H227	H	-0.915026	1.277613	-0.080366
H228	H	-0.581693	1.610946	0.252968
H229	H	-1.105303	0.968480	-0.509828
H230	H	-0.771970	1.301814	-0.176494
H231	H	-0.438637	1.635147	0.156839
H232	H	-1.105415	0.908277	-0.449568
H233	H	-0.772082	1.241610	-0.116235
H234	H	-0.438749	1.574943	0.217099
H235	H	-0.935782	0.941514	-0.476475
H236	H	-0.602448	1.274847	-0.143141
H237	H	-0.269115	1.608180	0.190192
H238	H	-0.624671	0.577716	-0.324877
H239	H	-0.291338	0.911050	0.008456
H240	H	0.041996	1.244383	0.341790
C241	C	-0.304458	1.176548	-0.851489
C242	C	0.028875	1.509881	-0.518155
C243	C	0.362208	1.843214	-0.184822
C244	C	-0.363131	1.129971	-0.806755
C245	C	-0.029798	1.463304	-0.473422
C246	C	0.303536	1.796637	-0.140089
H247	H	-0.259111	1.212546	-0.821369
H248	H	0.074223	1.545879	-0.488036
H249	H	0.407556	1.879213	-0.154703
H250	H	-0.349983	1.200618	-0.885530
H251	H	-0.016650	1.533952	-0.552197
H252	H	0.316683	1.867285	-0.218864
H253	H	-0.264476	1.148065	-0.877895
H254	H	0.068858	1.481399	-0.544561
H255	H	0.402191	1.814732	-0.211228
H256	H	-0.403120	1.158452	-0.780353
H257	H	-0.069786	1.491786	-0.447020
H258	H	0.263547	1.825119	-0.113687
H259	H	-0.317600	1.105898	-0.772700
H260	H	0.015733	1.439232	-0.439367
H261	H	0.349066	1.772565	-0.106034
H262	H	-0.382119	1.114877	-0.958830
H263	H	-0.048786	1.448210	-0.625496
H264	H	0.284547	1.781543	-0.292163
H265	H	-0.624585	0.922343	-0.980455
H266	H	-0.291252	1.255676	-0.647122
H267	H	0.042081	1.589010	-0.313788
