data_functionalizedCrystal
_audit_creation_method	'MofGen! by Chris Wilmer'
_symmetry_space_group_name_H-M	'P1'
_symmetry_Int_Tables_number	1
_symmetry_cell_setting	triclinic
loop_
_symmetry_equiv_pos_as_xyz
  x,y,z
_cell_length_a	14.044220
_cell_length_b	14.971486
_cell_length_c	12.503552
_cell_angle_alpha	93.522504
_cell_angle_beta	93.839943
_cell_angle_gamma	91.598497
loop_
_atom_site_label
_atom_site_type_symbol
_atom_site_fract_x
_atom_site_fract_y
_atom_site_fract_z
O1	O	0.118069	-1.201397	-0.089199
O2	O	0.451403	-0.868064	0.244135
O3	O	0.784736	-0.534731	0.577468
O4	O	0.132861	-0.942164	-0.089228
O5	O	0.466195	-0.608831	0.244105
O6	O	0.799528	-0.275497	0.577438
O7	O	-0.012523	-1.067889	-0.089203
O8	O	0.320810	-0.734556	0.244130
O9	O	0.654144	-0.401222	0.577463
O10	O	0.263454	-1.075672	-0.089224
O11	O	0.596787	-0.742339	0.244110
O12	O	0.930120	-0.409006	0.577443
O13	O	-0.001580	-1.058423	0.089437
O14	O	0.331754	-0.725089	0.422771
O15	O	0.665087	-0.391756	0.756104
O16	O	0.143805	-0.932698	0.089412
O17	O	0.477138	-0.599364	0.422746
O18	O	0.810471	-0.266031	0.756079
O19	O	0.129013	-1.191931	0.089442
O20	O	0.462346	-0.858598	0.422775
O21	O	0.795679	-0.525264	0.756108
Cu22	Cu	0.137408	-1.061450	0.105738
Cu23	Cu	0.470741	-0.728117	0.439072
Cu24	Cu	0.804075	-0.394783	0.772405
Cu25	Cu	0.124466	-1.072645	-0.105525
Cu26	Cu	0.457799	-0.739312	0.227808
Cu27	Cu	0.791133	-0.405978	0.561142
O28	O	0.274397	-1.066206	0.089417
O29	O	0.607730	-0.732873	0.422750
O30	O	0.941064	-0.399539	0.756084
C31	C	-0.042370	-1.059749	0.000117
C32	C	0.290964	-0.726416	0.333450
C33	C	0.624297	-0.393083	0.666784
C34	C	-0.147607	-1.049588	0.000117
C35	C	0.185726	-0.716255	0.333450
C36	C	0.519060	-0.382921	0.666784
C37	C	0.137671	-0.904054	0.000088
C38	C	0.471005	-0.570721	0.333422
C39	C	0.804338	-0.237388	0.666755
C40	C	0.135688	-0.804602	0.000077
C41	C	0.469021	-0.471268	0.333411
C42	C	0.802355	-0.137935	0.666744
C43	C	0.124203	-1.230041	0.000123
C44	C	0.457536	-0.896707	0.333456
C45	C	0.790869	-0.563374	0.666789
C46	C	0.126186	-1.329494	0.000127
C47	C	0.459519	-0.996161	0.333460
C48	C	0.792852	-0.662827	0.666793
C49	C	-0.340290	-1.031012	0.000100
C50	C	-0.006957	-0.697679	0.333433
C51	C	0.326376	-0.364346	0.666766
C52	C	-0.397842	-1.103079	0.000105
C53	C	-0.064508	-0.769746	0.333438
C54	C	0.268825	-0.436412	0.666771
C55	C	-0.505057	-1.092743	0.000095
C56	C	-0.171724	-0.759410	0.333428
C57	C	0.161609	-0.426077	0.666761
C58	C	-0.233065	-1.041347	0.000109
C59	C	0.100269	-0.708013	0.333443
C60	C	0.433602	-0.374680	0.666776
C61	C	0.304244	-1.074346	0.000094
C62	C	0.637577	-0.741012	0.333427
C63	C	0.970910	-0.407679	0.666761
C64	C	0.409480	-1.084507	0.000087
C65	C	0.742814	-0.751174	0.333420
C66	C	1.076147	-0.417841	0.666754
N67	N	0.146510	-1.053582	0.254330
N68	N	0.479843	-0.720249	0.587663
N69	N	0.813177	-0.386916	0.920996
C70	C	0.221098	-0.754105	0.000073
C71	C	0.554431	-0.420772	0.333406
C72	C	0.887765	-0.087438	0.666739
C73	C	0.219230	-0.660657	0.000089
C74	C	0.552564	-0.327324	0.333422
C75	C	0.885897	0.006009	0.666755
C76	C	0.131951	-0.617709	0.000102
C77	C	0.465285	-0.284375	0.333435
C78	C	0.798618	0.048958	0.666769
C79	C	0.046535	-0.668212	0.000110
C80	C	0.379868	-0.334879	0.333443
C81	C	0.713202	-0.001545	0.666777
C82	C	0.048404	-0.761657	0.000101
C83	C	0.381737	-0.428324	0.333435
C84	C	0.715071	-0.094991	0.666768
C85	C	0.042645	-0.473442	0.000125
C86	C	0.375979	-0.140109	0.333458
C87	C	0.709312	0.193224	0.666792
C88	C	0.040776	-0.379990	0.000132
C89	C	0.374109	-0.046657	0.333465
C90	C	0.707442	0.286676	0.666798
C91	C	0.213472	-0.372442	0.000112
C92	C	0.546805	-0.039109	0.333446
C93	C	0.880138	0.294224	0.666779
C94	C	0.215341	-0.465888	0.000104
C95	C	0.548674	-0.132554	0.333437
C96	C	0.882007	0.200779	0.666770
C97	C	0.129924	-0.516385	0.000110
C98	C	0.463257	-0.183051	0.333443
C99	C	0.796590	0.150282	0.666776
N100	N	0.115357	-1.080519	-0.254116
N101	N	0.448690	-0.747186	0.079217
N102	N	0.782023	-0.413852	0.412551
C103	C	0.101964	-1.092088	0.526770
C104	C	0.435298	-0.758754	0.860104
C105	C	0.768631	-0.425421	1.193437
C106	C	0.159899	-1.042016	0.473436
C107	C	0.493232	-0.708683	0.806770
C108	C	0.826566	-0.375350	1.140103
C109	C	0.152447	-1.048453	0.351514
C110	C	0.485781	-0.715120	0.684847
C111	C	0.819114	-0.381787	1.018181
C112	C	0.109415	-1.085652	0.648704
C113	C	0.442748	-0.752318	0.982037
C114	C	0.776081	-0.418985	1.315370
H115	H	-0.371539	-0.961557	0.000089
H116	H	-0.038206	-0.628224	0.333422
H117	H	0.295128	-0.294890	0.666756
N118	N	-0.042628	-0.624359	0.000114
N119	N	0.290705	-0.291025	0.333447
N120	N	0.624038	0.042308	0.666780
N121	N	-0.118881	-0.669459	0.000117
N122	N	0.214452	-0.336126	0.333450
N123	N	0.547785	-0.002792	0.666783
H124	H	-0.181857	-0.638491	0.000116
H125	H	0.151477	-0.305157	0.333449
H126	H	0.484810	0.028176	0.666783
H127	H	-0.021146	-0.802771	0.000105
H128	H	0.312187	-0.469438	0.333438
H129	H	0.645521	-0.136104	0.666771
N130	N	-0.358662	-1.190226	0.000119
N131	N	-0.025328	-0.856892	0.333452
N132	N	0.308005	-0.523559	0.666786
N133	N	-0.381724	-1.247144	-0.075170
N134	N	-0.048391	-0.913810	0.258164
N135	N	0.284943	-0.580477	0.591497
H136	H	-0.354050	-1.308689	-0.075157
H137	H	-0.020717	-0.975356	0.258177
H138	H	0.312617	-0.642022	0.591510
H139	H	0.292171	-0.789067	0.000061
H140	H	0.625504	-0.455733	0.333394
H141	H	0.958837	-0.122400	0.666728
H142	H	0.288780	-0.619547	0.000084
H143	H	0.622113	-0.286214	0.333417
H144	H	0.955446	0.047120	0.666750
N145	N	0.304499	-0.509747	0.000074
N146	N	0.637833	-0.176414	0.333408
N147	N	0.971166	0.156919	0.666741
N148	N	0.380756	-0.464654	0.000066
N149	N	0.714089	-0.131320	0.333400
N150	N	1.047423	0.202013	0.666733
H151	H	0.443727	-0.495629	0.000046
H152	H	0.777060	-0.162295	0.333379
H153	H	1.110394	0.171038	0.666712
N154	N	-0.048372	-0.336113	0.000173
N155	N	0.284961	-0.002780	0.333507
N156	N	0.618294	0.330554	0.666840
N157	N	-0.064052	-0.280829	0.075484
N158	N	0.269281	0.052505	0.408818
N159	N	0.602614	0.385838	0.742151
H160	H	-0.127014	-0.249838	0.075516
H161	H	0.206320	0.083495	0.408849
H162	H	0.539653	0.416829	0.742182
N163	N	0.300717	-0.320852	0.000121
N164	N	0.634050	0.012482	0.333455
N165	N	0.967383	0.345815	0.666788
N166	N	0.299041	-0.237419	0.000145
N167	N	0.632374	0.095915	0.333478
N168	N	0.965708	0.429248	0.666812
H169	H	0.360655	-0.200978	0.000154
H170	H	0.693988	0.132355	0.333487
H171	H	1.027322	0.465689	0.666821
H172	H	0.046773	-1.139787	0.480869
H173	H	0.380106	-0.806453	0.814203
H174	H	0.713439	-0.473120	1.147536
H175	H	-0.026910	-0.514554	0.000132
H176	H	0.306423	-0.181221	0.333465
H177	H	0.639756	0.152112	0.666798
N178	N	0.229136	-0.982176	0.531032
N179	N	0.562470	-0.648842	0.864366
N180	N	0.895803	-0.315509	1.197699
N181	N	0.235171	-0.976963	0.631429
N182	N	0.568504	-0.643630	0.964763
N183	N	0.901838	-0.310297	1.298096
H184	H	0.284069	-0.934704	0.672112
H185	H	0.617402	-0.601370	1.005446
H186	H	0.950736	-0.268037	1.338779
