data_functionalizedCrystal
_audit_creation_method	'MofGen! by Chris Wilmer'
_symmetry_space_group_name_H-M	'P1'
_symmetry_Int_Tables_number	1
_symmetry_cell_setting	triclinic
loop_
_symmetry_equiv_pos_as_xyz
  x,y,z
_cell_length_a	18.215407
_cell_length_b	21.295411
_cell_length_c	18.215405
_cell_angle_alpha	89.979957
_cell_angle_beta	90.025333
_cell_angle_gamma	89.975315
loop_
_atom_site_label
_atom_site_type_symbol
_atom_site_fract_x
_atom_site_fract_y
_atom_site_fract_z
Zn1	Zn	1.125107	-0.355921	-0.293059
Zn2	Zn	1.125005	-0.250649	-0.416108
Zn3	Zn	1.002029	-0.250665	-0.293061
Zn4	Zn	1.002006	-0.355880	-0.416090
O5	O	1.063537	-0.303279	-0.354579
O6	O	1.228078	-0.341966	-0.309389
O7	O	1.108659	-0.162562	-0.399794
O8	O	1.018408	-0.264651	-0.190076
O9	O	1.228003	-0.264623	-0.399792
O10	O	1.108833	-0.341982	-0.190075
O11	O	1.018310	-0.162574	-0.309392
O12	O	0.899042	-0.264612	-0.309374
O13	O	1.018368	-0.443975	-0.399761
O14	O	0.899024	-0.341913	-0.399763
O15	O	1.108810	-0.444005	-0.309371
O16	O	1.108636	-0.264584	-0.519090
O17	O	1.018269	-0.341897	-0.519076
C18	C	0.872331	-0.303261	-0.354567
C19	C	0.790532	-0.303268	-0.354579
C20	C	0.602348	-0.343468	-0.401719
C21	C	0.525489	-0.343476	-0.401721
C22	C	0.525478	-0.263103	-0.307454
C23	C	0.602335	-0.263099	-0.307448
C24	C	0.640768	-0.303280	-0.354585
C25	C	0.487052	-0.303293	-0.354593
C26	C	0.403718	-0.303301	-0.354595
C27	C	0.724107	-0.303273	-0.354582
C28	C	1.063598	-0.467469	-0.354564
C29	C	1.063624	-0.537437	-0.354557
C30	C	1.110715	-0.570320	-0.307489
C31	C	1.110714	-0.636063	-0.307457
C32	C	1.063630	-0.668920	-0.354507
C33	C	1.016529	-0.636029	-0.401578
C34	C	1.016526	-0.570288	-0.401603
N35	N	1.057958	-0.772137	-0.418886
N36	N	1.057965	-0.834588	-0.418860
C37	C	1.063634	-0.866995	-0.354432
N38	N	1.069311	-0.834590	-0.290030
N39	N	1.069307	-0.772133	-0.290057
C40	C	1.063627	-0.740205	-0.354484
C41	C	1.110727	-0.971163	-0.307325
C42	C	1.110721	-1.036907	-0.307292
C43	C	1.016540	-1.036872	-0.401419
C44	C	1.016542	-0.971129	-0.401446
C45	C	1.063640	-0.938279	-0.354400
C46	C	1.255490	-0.303297	-0.354593
C47	C	1.337289	-0.303305	-0.354598
C48	C	1.063459	-0.303248	-0.545786
C49	C	1.063493	-0.303257	-0.627585
C50	C	1.063518	-0.139727	-0.354542
C51	C	1.063635	-0.069759	-0.354341
C52	C	1.110658	-0.263074	-0.815761
C53	C	1.110691	-0.263089	-0.892620
C54	C	1.016510	-0.343529	-0.892646
C55	C	1.016481	-0.343517	-0.815788
C56	C	1.063554	-0.303285	-0.777348
C57	C	1.063616	-0.303313	-0.931064
C58	C	1.063651	-0.303330	-1.014398
C59	C	1.063520	-0.303269	-0.694009
C60	C	1.063635	-0.303323	-0.162627
C61	C	1.063677	-0.303342	-0.080828
H62	H	0.633618	-0.230373	-0.269062
N63	N	1.161487	-0.219714	-0.934055
H64	H	1.195591	-0.245327	-0.965898
H65	H	1.191252	-0.194234	-0.897995
H66	H	0.494211	-0.376202	-0.440101
H67	H	1.149065	-0.543578	-0.269180
H68	H	0.978184	-0.376283	-0.923953
H69	H	0.978200	-0.944356	-0.439778
H70	H	0.978176	-0.543515	-0.439931
H71	H	1.149072	-0.944415	-0.269014
N72	N	0.965733	-0.671463	-0.452313
H73	H	0.972878	-0.718100	-0.445154
H74	H	0.977148	-0.659977	-0.504881
N75	N	0.965676	-0.386891	-0.774350
H76	H	0.935856	-0.412376	-0.810363
H77	H	0.931625	-0.361233	-0.742505
N78	N	0.643804	-0.386809	-0.452549
H79	H	0.675662	-0.361174	-0.486610
H80	H	0.607754	-0.412261	-0.482358
H81	H	0.494176	-0.230388	-0.269078
H82	H	1.149060	-0.662841	-0.269125
H83	H	1.149067	-1.063679	-0.268959
N84	N	0.965752	-1.072305	-0.452160
H85	H	0.995641	-1.099592	-0.486256
H86	H	0.935929	-1.041457	-0.481936
N87	N	1.161430	-0.219687	-0.774299
H88	H	1.191276	-0.194217	-0.810299
H89	H	1.195458	-0.245335	-0.742367
