data_functionalizedCrystal
_audit_creation_method	'MofGen! by Chris Wilmer'
_symmetry_space_group_name_H-M	'P1'
_symmetry_Int_Tables_number	1
_symmetry_cell_setting	triclinic
loop_
_symmetry_equiv_pos_as_xyz
  x,y,z
_cell_length_a	16.974829
_cell_length_b	16.053802
_cell_length_c	10.654551
_cell_angle_alpha	87.402457
_cell_angle_beta	83.940793
_cell_angle_gamma	88.924488
loop_
_atom_site_label
_atom_site_type_symbol
_atom_site_fract_x
_atom_site_fract_y
_atom_site_fract_z
O1	O	1.043346	-0.139920	0.170772
O2	O	1.376680	0.193413	0.504105
O3	O	1.710013	0.526746	0.837438
O4	O	0.813991	-0.124425	0.189967
O5	O	1.147325	0.208908	0.523300
O6	O	1.480658	0.542241	0.856634
O7	O	0.933942	-0.132527	-0.002425
O8	O	1.267275	0.200806	0.330908
O9	O	1.600608	0.534139	0.664242
O10	O	0.923396	-0.131818	0.363163
O11	O	1.256729	0.201515	0.696497
O12	O	1.590063	0.534848	1.029830
O13	O	0.940537	0.005886	-0.012983
O14	O	1.273870	0.339220	0.320351
O15	O	1.607204	0.672553	0.653684
O16	O	0.820587	0.013988	0.179409
O17	O	1.153920	0.347322	0.512742
O18	O	1.487253	0.680655	0.846076
O19	O	1.049942	-0.001507	0.160214
O20	O	1.383275	0.331826	0.493547
O21	O	1.716608	0.665160	0.826880
Zn22	Zn	0.936311	0.028217	0.168135
Zn23	Zn	1.269645	0.361550	0.501469
Zn24	Zn	1.602978	0.694883	0.834802
Zn25	Zn	0.927622	-0.154149	0.182045
Zn26	Zn	1.260955	0.179184	0.515379
Zn27	Zn	1.594288	0.512518	0.848712
O28	O	0.929991	0.006595	0.352606
O29	O	1.263325	0.339928	0.685939
O30	O	1.596658	0.673262	1.019272
C31	C	0.787921	-0.053234	0.183760
C32	C	1.121254	0.280099	0.517093
C33	C	1.454588	0.613432	0.850427
C34	C	0.700414	-0.047323	0.180980
C35	C	1.033747	0.286011	0.514313
C36	C	1.367081	0.619344	0.847646
C37	C	0.208223	-0.005946	0.164753
C38	C	0.541557	0.327388	0.498087
C39	C	0.874890	0.660721	0.831420
C40	C	0.290446	-0.011502	0.167366
C41	C	0.623779	0.321831	0.500699
C42	C	0.957112	0.655165	0.834032
C43	C	0.327962	-0.089731	0.174417
C44	C	0.661296	0.243602	0.507751
C45	C	0.994629	0.576936	0.841084
C46	C	0.283252	-0.162408	0.178870
C47	C	0.616585	0.170926	0.512203
C48	C	0.949918	0.504259	0.845537
C49	C	0.201030	-0.156850	0.176267
C50	C	0.534364	0.176483	0.509600
C51	C	0.867697	0.509816	0.842933
C52	C	0.573482	-0.114442	0.182829
C53	C	0.906815	0.218891	0.516162
C54	C	1.240148	0.552225	0.849495
C55	C	0.655709	-0.119994	0.185428
C56	C	0.989043	0.213339	0.518761
C57	C	1.322376	0.546673	0.852095
C58	C	0.662898	0.030912	0.173926
C59	C	0.996231	0.364246	0.507259
C60	C	1.329564	0.697579	0.840593
C61	C	0.580675	0.036463	0.171315
C62	C	0.914008	0.369796	0.504649
C63	C	1.247341	0.703129	0.837982
C64	C	0.535971	-0.036214	0.175775
C65	C	0.869304	0.297119	0.509108
C66	C	1.202637	0.630453	0.842441
N67	N	0.412007	-0.095412	0.177084
N68	N	0.745340	0.237921	0.510417
N69	N	1.078674	0.571254	0.843751
N70	N	0.451927	-0.030532	0.173117
N71	N	0.785260	0.302802	0.506450
N72	N	1.118594	0.636135	0.839784
N73	N	0.921692	-0.278609	0.191530
N74	N	1.255025	0.054725	0.524863
N75	N	1.588359	0.388058	0.858196
C76	C	0.972830	-0.325757	0.109824
C77	C	1.306164	0.007576	0.443157
C78	C	1.639497	0.340910	0.776491
C79	C	0.968681	-0.412883	0.116456
C80	C	1.302014	-0.079550	0.449789
C81	C	1.635347	0.253783	0.783122
C82	C	0.913388	-0.452860	0.204788
C83	C	1.246721	-0.119526	0.538121
C84	C	1.580055	0.213807	0.871455
C85	C	0.862247	-0.405705	0.286503
C86	C	1.195580	-0.072372	0.619836
C87	C	1.528914	0.260961	0.953169
C88	C	0.866401	-0.318581	0.279876
C89	C	1.199735	0.014753	0.613209
C90	C	1.533068	0.348086	0.946543
C91	C	0.895261	-0.713045	0.233729
C92	C	1.228594	-0.379712	0.567062
C93	C	1.561927	-0.046378	0.900396
C94	C	0.891109	-0.800176	0.240347
C95	C	1.224442	-0.466843	0.573680
C96	C	1.557775	-0.133509	0.907014
C97	C	0.997544	-0.807348	0.070301
C98	C	1.330877	-0.474014	0.403634
C99	C	1.664211	-0.140681	0.736967
C100	C	1.001690	-0.720221	0.063677
C101	C	1.335023	-0.386888	0.397010
C102	C	1.668357	-0.053554	0.730344
C103	C	0.950552	-0.673074	0.145396
C104	C	1.283885	-0.339741	0.478729
C105	C	1.617219	-0.006408	0.812062
N106	N	0.909143	-0.541917	0.211566
N107	N	1.242476	-0.208583	0.544900
N108	N	1.575810	0.124750	0.878233
N109	N	0.954801	-0.584019	0.138623
N110	N	1.288135	-0.250686	0.471956
N111	N	1.621468	0.082647	0.805289
C112	C	1.076012	-0.072700	0.166421
C113	C	1.409345	0.260634	0.499754
C114	C	1.742678	0.593967	0.833088
C115	C	1.163519	-0.078617	0.169202
C116	C	1.496852	0.254716	0.502535
C117	C	1.830185	0.588050	0.835868
C118	C	0.936465	-0.063270	-0.054494
C119	C	1.269798	0.270064	0.278840
C120	C	1.603132	0.603397	0.612173
C121	C	0.934147	-0.063117	-0.193912
C122	C	1.267481	0.270216	0.139421
C123	C	1.600814	0.603550	0.472754
N124	N	0.942247	0.152676	0.158641
N125	N	1.275581	0.486009	0.491974
N126	N	1.608914	0.819343	0.825308
C127	C	0.929465	-0.138493	-0.253650
C128	C	1.262798	0.194840	0.079684
C129	C	1.596131	0.528173	0.413017
C130	C	0.927281	-0.138347	-0.384647
C131	C	1.260614	0.194987	-0.051314
C132	C	1.593948	0.528320	0.282019
C133	C	0.934466	0.012560	-0.396160
C134	C	1.267799	0.345893	-0.062826
C135	C	1.601133	0.679226	0.270507
C136	C	0.936644	0.012412	-0.265163
C137	C	1.269978	0.345746	0.068170
C138	C	1.603311	0.679079	0.401503
C139	C	0.927468	-0.062665	0.404674
C140	C	1.260801	0.270669	0.738008
C141	C	1.594135	0.604002	1.071341
C142	C	0.929785	-0.062823	0.544094
C143	C	1.263119	0.270511	0.877427
C144	C	1.596452	0.603844	1.210760
H145	H	0.550137	0.100165	0.165546
H146	H	0.883470	0.433498	0.498879
H147	H	1.216803	0.766831	0.832212
H148	H	0.537094	-0.173621	0.186455
H149	H	0.870427	0.159712	0.519789
H150	H	1.203760	0.493046	0.853122
H151	H	0.326841	0.047675	0.163740
H152	H	0.660174	0.381008	0.497073
H153	H	0.993508	0.714342	0.830407
Br154	Br	0.797001	-0.254594	0.390776
Br155	Br	1.130334	0.078739	0.724109
Br156	Br	1.463667	0.412073	1.057443
Br157	Br	1.038087	-0.476873	0.005573
Br158	Br	1.371420	-0.143540	0.338906
Br159	Br	1.704753	0.189793	0.672239
H160	H	0.936500	0.074053	-0.454188
H161	H	1.269834	0.407386	-0.120855
H162	H	1.603167	0.740720	0.212478
H163	H	0.699304	0.090082	0.170298
H164	H	1.032637	0.423415	0.503631
H165	H	1.365971	0.756748	0.836965
H166	H	0.940453	0.073797	-0.216524
H167	H	1.273786	0.407130	0.116810
H168	H	1.607120	0.740464	0.450143
Br169	Br	0.157317	0.100227	0.155166
Br170	Br	0.490650	0.433561	0.488499
Br171	Br	0.823984	0.766894	0.821832
Br172	Br	0.334166	-0.268577	0.188445
Br173	Br	0.667499	0.064756	0.521779
Br174	Br	1.000833	0.398090	0.855112
Br175	Br	0.706625	-0.226169	0.194995
Br176	Br	1.039959	0.107164	0.528329
Br177	Br	1.373292	0.440498	0.861662
Br178	Br	0.140357	-0.255480	0.182316
Br179	Br	0.473691	0.077853	0.515650
Br180	Br	0.807024	0.411187	0.848983
H181	H	0.927429	-0.199994	-0.195640
H182	H	1.260763	0.133339	0.137693
H183	H	1.594096	0.466673	0.471026
H184	H	1.046714	-0.687674	-0.008250
H185	H	1.380047	-0.354341	0.325083
H186	H	1.713380	-0.021008	0.658416
Br187	Br	1.067123	-0.871348	-0.040308
Br188	Br	1.400456	-0.538015	0.293025
Br189	Br	1.733789	-0.204682	0.626358
Br190	Br	1.047869	-0.271512	-0.010071
Br191	Br	1.381202	0.061821	0.323262
Br192	Br	1.714536	0.395155	0.656595
Br193	Br	0.920921	-0.240647	-0.465714
Br194	Br	1.254254	0.092686	-0.132381
Br195	Br	1.587588	0.426019	0.200953
Br196	Br	0.816058	-0.854424	0.360232
Br197	Br	1.149392	-0.521090	0.693565
Br198	Br	1.482725	-0.187757	1.026899
Br199	Br	0.825860	-0.649065	0.344627
Br200	Br	1.159193	-0.315732	0.677960
Br201	Br	1.492527	0.017602	1.011294
H202	H	0.817229	-0.438259	0.358431
H203	H	1.150562	-0.104926	0.691764
H204	H	1.483896	0.228407	1.025098
