data_functionalizedCrystal
_audit_creation_method	'MofGen! by Chris Wilmer'
_symmetry_space_group_name_H-M	'P1'
_symmetry_Int_Tables_number	1
_symmetry_cell_setting	triclinic
loop_
_symmetry_equiv_pos_as_xyz
  x,y,z
_cell_length_a	23.532355
_cell_length_b	22.010155
_cell_length_c	23.532407
_cell_angle_alpha	90.000423
_cell_angle_beta	82.838088
_cell_angle_gamma	90.002586
loop_
_atom_site_label
_atom_site_type_symbol
_atom_site_fract_x
_atom_site_fract_y
_atom_site_fract_z
O1	O	0.755283	0.050449	0.068986
O2	O	0.589415	0.050469	0.079020
O3	O	0.677351	0.050447	-0.008929
O4	O	0.667347	0.050470	0.156936
O5	O	0.677335	-0.050603	-0.008916
O6	O	0.589399	-0.050582	0.079033
O7	O	0.755267	-0.050602	0.068999
Cu8	Cu	0.672332	-0.059818	0.074018
Cu9	Cu	0.672351	0.059685	0.074002
O10	O	0.667331	-0.050580	0.156949
C11	C	0.568191	-0.000054	0.078776
C12	C	0.504972	-0.000047	0.078022
N13	N	0.672323	-0.143871	0.074028
C14	C	0.112950	-0.055155	0.073291
C15	C	0.053550	-0.055158	0.072574
O16	O	0.022824	-0.102003	0.072189
N17	N	0.023850	-0.000076	0.072211
C18	C	0.053554	0.055013	0.072559
O19	O	0.022838	0.101864	0.072184
C20	C	0.112953	0.055015	0.073273
C21	C	0.142649	-0.000071	0.073641
C22	C	0.142646	-0.110237	0.073659
C23	C	0.202041	-0.110234	0.074378
C24	C	0.231740	-0.055150	0.074728
C25	C	0.202044	-0.000069	0.074360
C26	C	0.142656	0.110102	0.073617
C27	C	0.202059	0.110099	0.074330
C28	C	0.231755	0.055014	0.074699
C29	C	0.291138	0.055018	0.075429
N30	N	0.320838	-0.000064	0.075792
C31	C	0.291139	-0.055148	0.075441
C32	C	-0.071188	0.055005	0.071060
C33	C	-0.130586	0.055004	0.070351
C34	C	-0.130585	-0.055167	0.070364
C35	C	-0.071187	-0.055165	0.071078
C36	C	-0.041488	-0.000077	0.071423
C37	C	0.415873	-0.055138	0.076951
C38	C	0.475273	-0.055131	0.077672
C39	C	0.475268	0.055040	0.077655
C40	C	0.415872	0.055032	0.076938
C41	C	0.386177	-0.000061	0.076583
O42	O	0.321902	0.101839	0.075811
O43	O	0.321863	-0.101992	0.075809
C44	C	0.711291	-0.563660	0.035063
C45	C	0.711293	-0.627267	0.035059
O46	O	0.744402	-0.660167	0.001938
N47	N	0.672350	-0.659078	0.073990
C48	C	0.633398	-0.627277	0.112923
O49	O	0.600274	-0.660175	0.146036
C50	C	0.633393	-0.563671	0.112924
C51	C	0.672343	-0.531864	0.073995
C52	C	0.750236	-0.531853	-0.003863
C53	C	0.750234	-0.468249	-0.003858
C54	C	0.711286	-0.436453	0.035073
C55	C	0.672341	-0.468261	0.074000
C56	C	0.594439	-0.531872	0.151854
C57	C	0.594437	-0.468261	0.151851
C58	C	0.633387	-0.436454	0.112922
C59	C	0.633391	-0.372861	0.112936
N60	N	0.672334	-0.341051	0.074005
C61	C	0.711282	-0.372847	0.035074
C62	C	0.633411	-0.760855	0.112918
C63	C	0.633418	-0.824461	0.112921
C64	C	0.711313	-0.824446	0.035056
C65	C	0.711308	-0.760840	0.035057
C66	C	0.672354	-0.729045	0.073988
C67	C	0.711275	-0.239276	0.035087
C68	C	0.711270	-0.175667	0.035097
C69	C	0.633374	-0.175687	0.112959
C70	C	0.633380	-0.239290	0.112952
C71	C	0.672332	-0.271083	0.074011
O72	O	0.600297	-0.339921	0.146039
O73	O	0.744395	-0.339941	0.001961
C74	C	0.776491	-0.000078	0.069244
C75	C	0.839710	-0.000081	0.069998
C76	C	0.677088	-0.000080	-0.030139
C77	C	0.676322	-0.000084	-0.093356
N78	N	0.672364	0.143738	0.073987
C79	C	0.723557	-0.000057	-0.492468
C80	C	0.722845	-0.000052	-0.551868
O81	O	0.766632	-0.000035	-0.588620
N82	N	0.670568	-0.000046	-0.574484
C83	C	0.618998	-0.000039	-0.537697
O84	O	0.574467	-0.000033	-0.562388
C85	C	0.619710	-0.000039	-0.478298
C86	C	0.671991	-0.000051	-0.455685
C87	C	0.775834	-0.000068	-0.469854
C88	C	0.776545	-0.000074	-0.410458
C89	C	0.724979	-0.000068	-0.373676
C90	C	0.672703	-0.000057	-0.396289
C91	C	0.568141	-0.000027	-0.441512
C92	C	0.568858	-0.000027	-0.382110
C93	C	0.621139	-0.000039	-0.359497
C94	C	0.621848	-0.000057	-0.300110
N95	N	0.674126	-0.000063	-0.277494
C96	C	0.725691	-0.000069	-0.314277
C97	C	0.617507	-0.000037	-0.662439
C98	C	0.616794	-0.000041	-0.721837
C99	C	0.720642	-0.000053	-0.736004
C100	C	0.721354	-0.000053	-0.676605
C101	C	0.669784	-0.000043	-0.639823
C102	C	0.727181	-0.000082	-0.189540
C103	C	0.727888	-0.000090	-0.130138
C104	C	0.624041	-0.000074	-0.115977
C105	C	0.623334	-0.000069	-0.175373
C106	C	0.674909	-0.000071	-0.212154
O107	O	0.578084	-0.000072	-0.263323
O108	O	0.770216	-0.000067	-0.289577
C109	C	0.667594	-0.000052	0.178158
C110	C	0.668360	-0.000043	0.241375
H111	H	0.499448	-0.099990	0.077974
H112	H	0.601708	-0.850354	0.144626
O113	O	0.386958	-0.108617	0.076685
C114	C	0.345875	-0.111917	0.125609
H115	H	0.334725	-0.064089	0.141939
H116	H	0.305623	-0.135242	0.114014
H117	H	0.364054	-0.139088	0.160434
H118	H	0.770463	-0.000101	-0.111731
O119	O	-0.042289	0.108482	0.071483
C120	C	-0.014678	0.111795	0.121235
H121	H	-0.008019	0.063972	0.137791
H122	H	0.028603	0.135116	0.110642
H123	H	-0.042289	0.138977	0.155500
H124	H	-0.154777	-0.100020	0.070078
H125	H	0.743025	-0.850346	0.003355
O126	O	0.787981	-0.437245	-0.041672
C127	C	0.822953	-0.400314	-0.011496
H128	H	0.823892	-0.419474	0.033384
H129	H	0.868279	-0.399434	-0.035135
H130	H	0.804967	-0.352171	-0.008335
H131	H	0.226214	-0.155091	0.074674
H132	H	0.762629	-0.000055	-0.765963
H133	H	0.580762	-0.000076	-0.193785
H134	H	0.582057	-0.000072	-0.086018
H135	H	0.118471	-0.155095	0.073373
H136	H	0.763925	-0.000063	-0.658198
H137	H	0.781953	-0.557735	-0.035568
H138	H	0.819117	-0.000081	-0.392053
H139	H	0.574222	-0.000042	-0.740243
O140	O	0.113766	0.163574	0.073178
C141	C	0.086156	0.166867	0.023424
H142	H	0.079494	0.119037	0.006883
H143	H	0.042877	0.190190	0.034007
H144	H	0.113771	0.194037	-0.010850
H145	H	0.743023	-0.734946	0.003357
O146	O	0.230815	0.163668	0.074694
C147	C	0.191864	0.212282	0.074202
H148	H	0.147061	0.196131	0.091724
H149	H	0.205247	0.250814	0.102059
H150	H	0.191788	0.229212	0.028427
H151	H	0.575510	-0.000033	-0.632494
H152	H	0.601691	-0.734971	0.144625
H153	H	0.769178	-0.000080	-0.219481
H154	H	0.562723	-0.557760	0.183554
H155	H	0.817827	-0.000070	-0.499797
O156	O	0.556576	-0.437471	0.189727
C157	C	0.522194	-0.479189	0.224072
H158	H	0.545543	-0.524528	0.224588
H159	H	0.513242	-0.460818	0.269603
H160	H	0.479994	-0.485957	0.205800
H161	H	-0.047012	-0.100021	0.071378
O162	O	0.595490	-0.270097	0.150788
C163	C	0.561124	-0.228390	0.185161
H164	H	0.560622	-0.183045	0.161820
H165	H	0.515591	-0.246766	0.194079
H166	H	0.579368	-0.221634	0.227376
O167	O	-0.159339	0.108568	0.069976
C168	C	-0.120383	0.157183	0.070455
H169	H	-0.075582	0.141028	0.052936
H170	H	-0.133763	0.195707	0.042590
H171	H	-0.120303	0.174125	0.116226
H172	H	0.601665	-0.149789	0.144659
H173	H	0.391691	0.099888	0.076647
H174	H	0.525569	-0.000014	-0.459912
O175	O	0.504177	0.108506	0.078072
C176	C	0.531791	0.111817	0.127822
H177	H	0.538434	0.063994	0.144387
H178	H	0.575080	0.135120	0.117225
H179	H	0.504190	0.139013	0.162084
O180	O	0.518710	-0.000044	-0.346461
C181	C	0.472418	-0.000016	-0.379163
H182	H	0.487131	-0.019148	-0.423582
H183	H	0.436301	-0.029347	-0.357049
H184	H	0.456389	0.048467	-0.383301
H185	H	0.742990	-0.149771	0.003396
O186	O	0.749167	-0.270059	-0.002762
C187	C	0.783526	-0.228335	-0.037124
H188	H	0.784029	-0.182999	-0.013768
H189	H	0.829059	-0.246703	-0.046056
H190	H	0.765274	-0.221566	-0.079334
