data_functionalizedCrystal
_audit_creation_method	'MofGen! by Chris Wilmer'
_symmetry_space_group_name_H-M	'P1'
_symmetry_Int_Tables_number	1
_symmetry_cell_setting	triclinic
loop_
_symmetry_equiv_pos_as_xyz
  x,y,z
_cell_length_a	19.288864
_cell_length_b	14.519709
_cell_length_c	18.366186
_cell_angle_alpha	89.992822
_cell_angle_beta	89.977106
_cell_angle_gamma	83.408195
loop_
_atom_site_label
_atom_site_type_symbol
_atom_site_fract_x
_atom_site_fract_y
_atom_site_fract_z
O1	O	0.921767	0.115045	-0.060785
O2	O	0.719562	0.130564	-0.060735
O3	O	0.826026	-0.011468	-0.060755
O4	O	0.815303	0.257077	-0.060765
O5	O	0.826007	-0.011475	0.060345
O6	O	0.719544	0.130557	0.060364
O7	O	0.921749	0.115038	0.060315
Zn8	Zn	0.820643	0.122797	0.079567
Zn9	Zn	0.820667	0.122806	-0.079987
O10	O	0.815285	0.257070	0.060334
C11	C	0.693675	0.130061	-0.000179
C12	C	0.616566	0.128562	-0.000160
C13	C	0.572169	0.211900	-0.000175
C14	C	0.499717	0.210492	-0.000183
C15	C	0.471665	0.125741	-0.000191
C16	C	0.516071	0.042392	-0.000172
C17	C	0.588521	0.043803	-0.000156
C18	C	0.363169	0.059120	-0.042639
C19	C	0.290720	0.057713	-0.042659
C20	C	0.248203	0.121387	-0.000234
C21	C	0.278144	0.186484	0.042200
C22	C	0.350595	0.187894	0.042215
C23	C	0.393105	0.124202	-0.000207
C24	C	0.125246	0.203203	-0.000257
C25	C	0.052792	0.201792	-0.000260
C26	C	0.069148	0.033689	-0.000257
C27	C	0.141599	0.035103	-0.000246
C28	C	0.169644	0.119863	-0.000249
C29	C	0.825517	-0.045828	-0.000205
C30	C	0.824019	-0.148200	-0.000204
C31	C	0.818507	-0.523061	-0.000222
C32	C	0.820037	-0.418762	-0.000216
C33	C	0.821263	-0.335633	-0.000212
C34	C	0.822794	-0.231329	-0.000208
C35	C	0.947636	0.115541	-0.000243
C36	C	1.024745	0.117040	-0.000267
C37	C	0.815794	0.291430	-0.000217
C38	C	0.817291	0.393802	-0.000223
N39	N	0.820632	0.122790	0.188458
N40	N	0.820684	0.122805	-0.188878
C41	C	0.867790	0.059929	0.226549
C42	C	0.867794	0.059925	0.302777
C43	C	0.820648	0.122797	0.340910
C44	C	0.773481	0.185663	0.302809
C45	C	0.773473	0.185659	0.226583
C46	C	0.811652	0.206826	0.461669
C47	C	0.811664	0.206831	0.537894
C48	C	0.820667	0.122809	0.576018
C49	C	0.829673	0.038778	0.537908
C50	C	0.829665	0.038775	0.461681
C51	C	0.820650	0.122808	0.423565
C52	C	0.867832	0.059938	0.696765
C53	C	0.867832	0.059933	0.772994
C54	C	0.773522	0.185679	0.773025
C55	C	0.773519	0.185677	0.696797
C56	C	0.820678	0.122807	0.658671
H57	H	0.016645	0.269658	-0.000268
O58	O	0.722689	0.253506	0.814157
H59	H	0.731638	0.325361	0.799505
H60	H	0.374969	0.240896	0.076770
H61	H	0.463563	0.278358	-0.000193
H62	H	0.243528	0.238333	0.076747
H63	H	0.735092	0.236854	0.333861
H64	H	0.804308	0.275251	0.430634
H65	H	0.046308	-0.035317	-0.000308
H66	H	0.148080	0.272220	-0.000249
O67	O	0.722655	0.253481	0.655710
H68	H	0.730564	0.242910	0.596300
O69	O	0.801966	0.297462	0.578992
H70	H	0.750817	0.336010	0.564393
O71	O	0.189491	-0.054783	-0.000236
H72	H	0.157815	-0.113954	-0.000248
H73	H	0.735071	0.236849	0.195568
H74	H	0.397781	0.007267	-0.077190
O75	O	0.636413	-0.046086	-0.000144
H76	H	0.604738	-0.105258	-0.000153
O77	O	0.258428	-0.012504	-0.088415
H78	H	0.300163	-0.056559	-0.117898
O79	O	0.918665	-0.007895	0.655628
H80	H	0.952474	0.030790	0.620870
H81	H	0.493226	-0.026613	-0.000188
H82	H	0.906187	0.008734	0.195510
H83	H	0.906197	0.008734	0.333797
O84	O	0.839364	-0.051849	0.420573
H85	H	0.845621	-0.110279	0.459883
O86	O	0.839378	-0.051856	0.579013
H87	H	0.837861	-0.037742	0.638420
H88	H	0.906231	0.008739	0.804009
O89	O	0.602419	0.303315	-0.000157
H90	H	0.559371	0.361029	-0.000158
