data_functionalizedCrystal
_audit_creation_method	'MofGen! by Chris Wilmer'
_symmetry_space_group_name_H-M	'P1'
_symmetry_Int_Tables_number	1
_symmetry_cell_setting	triclinic
loop_
_symmetry_equiv_pos_as_xyz
  x,y,z
_cell_length_a	15.297475
_cell_length_b	15.299816
_cell_length_c	11.169409
_cell_angle_alpha	99.647672
_cell_angle_beta	80.310497
_cell_angle_gamma	72.651123
loop_
_atom_site_label
_atom_site_type_symbol
_atom_site_fract_x
_atom_site_fract_y
_atom_site_fract_z
Zn1	Zn	1.485947	-0.616413	-1.162214
Zn2	Zn	1.512740	-0.771903	-1.003515
Zn3	Zn	1.330416	-0.589521	-0.919592
Zn4	Zn	1.357277	-0.744894	-1.162193
O5	O	1.421595	-0.680683	-1.061878
O6	O	1.619654	-0.659597	-1.176293
O7	O	1.488526	-0.747759	-0.824437
O8	O	1.328593	-0.462991	-0.916663
O9	O	1.639339	-0.773835	-1.059698
O10	O	1.442861	-0.482749	-1.094917
O11	O	1.354573	-0.613763	-0.762780
O12	O	1.203826	-0.587573	-0.916643
O13	O	1.374374	-0.727802	-1.330141
O14	O	1.223561	-0.701726	-1.094880
O15	O	1.468908	-0.633408	-1.330156
O16	O	1.514572	-0.898418	-1.059677
O17	O	1.400354	-0.878574	-1.176257
C18	C	1.179947	-0.638801	-0.996653
C19	C	1.076573	-0.620906	-0.968784
C20	C	0.826445	-0.808587	-1.261068
C21	C	0.923572	-0.825407	-1.287251
C22	C	0.961827	-0.774283	-1.207637
C23	C	0.902946	-0.706336	-1.101835
C24	C	0.805811	-0.689520	-1.075644
C25	C	0.941192	-0.655216	-1.022213
C26	C	0.882311	-0.587270	-0.916410
C27	C	0.785186	-0.570456	-0.890225
C28	C	0.746931	-0.621580	-0.969839
C29	C	1.038327	-0.672033	-1.048404
C30	C	1.017693	-0.552966	-0.862979
C31	C	0.920566	-0.536146	-0.836796
C32	C	1.463310	-0.922233	-1.127104
C33	C	1.481242	-1.025584	-1.155071
C34	C	1.294049	-1.276106	-0.862566
C35	C	1.277197	-1.179001	-0.836292
C36	C	1.328207	-1.140642	-0.915984
C37	C	1.396071	-1.199397	-1.021956
C38	C	1.412919	-1.296510	-1.048239
C39	C	1.447077	-1.161046	-1.101656
C40	C	1.514942	-1.219801	-1.207629
C41	C	1.531788	-1.316904	-1.233906
C42	C	1.480778	-1.355263	-1.154214
C43	C	1.430229	-1.063934	-1.075374
C44	C	1.549100	-1.084338	-1.261046
C45	C	1.565952	-1.181442	-1.287321
C46	C	1.664187	-0.722729	-1.127359
C47	C	1.767565	-0.740646	-1.155263
C48	C	1.421649	-0.680592	-1.374912
C49	C	1.421671	-0.680553	-1.508309
C50	C	1.379742	-0.438194	-0.996431
C51	C	1.361907	-0.334859	-0.968541
C52	C	1.421584	-0.680716	-0.750059
C53	C	1.421696	-0.680524	-0.616641
H54	H	1.040912	-0.787981	-1.228962
F55	F	1.498863	-1.458640	-1.182016
H56	H	1.314483	-1.061575	-0.894583
F57	F	1.204965	-1.116476	-0.723521
F58	F	0.785728	-0.863004	-1.345769
H59	H	1.587044	-1.364740	-1.320200
H60	H	1.252519	-1.307347	-0.797697
H61	H	1.621207	-1.229294	-1.373605
F62	F	1.603391	-1.043519	-1.345868
H63	H	1.086259	-0.727355	-1.134549
H64	H	0.872612	-0.480824	-0.750651
H65	H	1.374973	-1.016104	-0.989091
H66	H	0.667843	-0.607887	-0.948529
F67	F	0.986230	-0.897719	-1.399847
F68	F	0.722524	-0.498148	-0.777613
F69	F	1.058402	-0.498556	-0.778238
