data_functionalizedCrystal
_audit_creation_method	'MofGen! by Chris Wilmer'
_symmetry_space_group_name_H-M	'P1'
_symmetry_Int_Tables_number	1
_symmetry_cell_setting	triclinic
loop_
_symmetry_equiv_pos_as_xyz
  x,y,z
_cell_length_a	10.685661
_cell_length_b	29.839133
_cell_length_c	10.686551
_cell_angle_alpha	94.400737
_cell_angle_beta	99.072787
_cell_angle_gamma	85.651454
loop_
_atom_site_label
_atom_site_type_symbol
_atom_site_fract_x
_atom_site_fract_y
_atom_site_fract_z
Zn1	Zn	1.995571	-0.209686	0.866211
Zn2	Zn	1.979092	-0.290173	0.653964
Zn3	Zn	1.767006	-0.209707	0.637736
Zn4	Zn	1.783230	-0.279433	0.849924
O5	O	1.881225	-0.247250	0.751958
O6	O	2.171009	-0.224849	0.851664
O7	O	1.937272	-0.284003	0.474183
O8	O	1.797432	-0.146839	0.668068
O9	O	2.158902	-0.283983	0.695727
O10	O	1.965358	-0.146824	0.835928
O11	O	1.781453	-0.224884	0.462260
O12	O	1.591534	-0.214470	0.652275
O13	O	1.825084	-0.265677	1.029712
O14	O	1.603454	-0.265697	0.808169
O15	O	1.981090	-0.214434	1.041678
O16	O	1.953004	-0.351613	0.679933
O17	O	1.809105	-0.343722	0.823904
C18	C	1.551438	-0.238920	0.726694
C19	C	1.410356	-0.235367	0.715916
C20	C	1.881063	-0.363968	0.751942
C21	C	1.881114	-0.413903	0.751987
C22	C	1.968717	-0.770450	0.839460
C23	C	1.968597	-0.582774	0.839449
O24	O	2.042915	-0.558471	0.913790
N25	N	1.881214	-0.559351	0.751992
C26	C	1.793859	-0.582850	0.664525
O27	O	1.719540	-0.558621	0.590128
C28	C	1.793986	-0.770525	0.664531
C29	C	1.881367	-0.793945	0.752003
C30	C	2.056092	-0.793870	0.926923
C31	C	2.056117	-0.840786	0.926930
C32	C	1.968767	-0.864282	0.839472
C33	C	1.881392	-0.840861	0.752009
C34	C	1.706639	-0.794024	0.577060
C35	C	1.706681	-0.840946	0.577067
C36	C	1.794062	-0.864366	0.664538
C37	C	1.794067	-0.911273	0.664558
N38	N	1.881450	-0.934696	0.752015
C39	C	1.968800	-0.911200	0.839473
C40	C	1.793797	-0.484317	0.664530
C41	C	1.793763	-0.437398	0.664530
C42	C	1.968503	-0.437326	0.839453
C43	C	1.968530	-0.484245	0.839458
C44	C	1.881181	-0.507740	0.751987
C45	C	1.968845	-1.009727	0.839480
C46	C	1.968858	-1.056647	0.839482
C47	C	1.794123	-1.056716	0.664555
C48	C	1.794105	-1.009800	0.664557
C49	C	1.881476	-0.986307	0.752025
O50	O	1.719797	-0.935605	0.590246
O51	O	2.043127	-0.935438	0.913840
C52	C	1.968693	-0.723534	0.839454
C53	C	1.881318	-0.700113	0.751990
C54	C	1.793968	-0.723609	0.664533
C55	C	1.881284	-0.653195	0.751990
C56	C	1.968634	-0.629699	0.839447
C57	C	2.056018	-0.653122	0.926905
C58	C	2.056043	-0.700038	0.926911
C59	C	1.706584	-0.700186	0.577075
C60	C	1.706566	-0.653270	0.577077
C61	C	1.793916	-0.629774	0.664534
C62	C	2.212299	-0.255612	0.777322
C63	C	2.353384	-0.259175	0.788131
C64	C	1.906735	-0.238855	1.083040
C65	C	1.917606	-0.235278	1.224127
C66	C	1.881423	-0.130075	0.752005
C67	C	1.881508	-0.080143	0.752025
C68	C	1.855887	-0.255581	0.422171
C69	C	1.845262	-0.259038	0.281103
H70	H	1.412546	-0.282278	0.858210
C71	C	2.228795	-0.798523	1.099834
C72	C	2.152112	-0.768048	1.023075
H73	H	2.288066	-0.782582	1.159208
H74	H	2.273148	-0.819435	1.048290
H75	H	2.177173	-0.814212	1.144078
H76	H	2.203733	-0.752361	0.978824
H77	H	2.107755	-0.747128	1.074626
H78	H	1.351201	-0.212262	0.645852
C79	C	1.780195	-0.334577	1.235279
C80	C	1.750428	-0.290197	1.201246
H81	H	1.721654	-0.353814	1.185964
H82	H	1.775291	-0.336177	1.322783
H83	H	1.863825	-0.343840	1.220147
H84	H	1.666801	-0.280933	1.216387
H85	H	1.755321	-0.288595	1.113722
C86	C	2.005224	-0.206483	1.432982
C87	C	2.012449	-0.204117	1.303983
H88	H	2.063769	-0.187243	1.482278
H89	H	2.025409	-0.236589	1.456052
H90	H	1.921595	-0.197213	1.448102
H91	H	2.096077	-0.213391	1.288862
H92	H	1.992272	-0.174005	1.280905
C93	C	2.047089	-1.067166	1.059208
C94	C	2.064916	-1.082390	0.935636
H95	H	2.106396	-1.083056	1.118564
H96	H	1.963230	-1.072259	1.071171
H97	H	2.059574	-1.035860	1.071699
H98	H	2.052422	-1.113696	0.923142
H99	H	2.148795	-1.077301	0.923669
C100	C	1.999468	-0.953071	1.011584
C101	C	2.064874	-0.983906	0.935629
H102	H	2.058750	-0.937128	1.070939
H103	H	1.947875	-0.968761	1.055838
H104	H	1.947439	-0.932406	0.959483
H105	H	2.116897	-1.004573	0.987729
H106	H	2.116489	-0.968214	0.891372
C107	C	2.141233	-0.479449	1.012369
C108	C	2.064581	-0.509986	0.935608
H109	H	2.200536	-0.495340	1.071725
H110	H	2.089603	-0.458538	1.056622
H111	H	2.185560	-0.463765	0.960816
H112	H	2.020247	-0.525668	0.987160
H113	H	2.116218	-0.530906	0.891351
C114	C	2.228250	-0.897358	0.957780
C115	C	2.152179	-0.866530	1.023064
H116	H	2.287554	-0.913252	1.017131
H117	H	2.272566	-0.881669	0.906245
H118	H	2.176219	-0.918067	0.905705
H119	H	2.204210	-0.845819	1.075132
H120	H	2.107860	-0.882220	1.074622
H121	H	2.039626	-0.418188	0.910666
C122	C	1.621052	-0.442195	0.491624
C123	C	1.697703	-0.411658	0.568386
H124	H	1.561756	-0.426304	0.432260
H125	H	1.576727	-0.457877	0.543168
H126	H	1.672692	-0.463109	0.447369
H127	H	1.646064	-0.390745	0.612649
H128	H	1.742031	-0.395968	0.516836
H129	H	1.722662	-0.503443	0.593297
H130	H	2.127138	-0.633984	0.998120
H131	H	1.635550	-0.860073	0.505835
C132	C	1.533963	-0.798830	0.404128
C133	C	1.610600	-0.768289	0.480891
H134	H	1.474678	-0.782943	0.344746
H135	H	1.489625	-0.814509	0.455667
H136	H	1.585613	-0.819747	0.359893
H137	H	1.558950	-0.747374	0.525133
H138	H	1.654941	-0.752603	0.429345
H139	H	1.723002	-1.075854	0.593353
C140	C	1.621370	-1.014586	0.491670
C141	C	1.698041	-0.984053	0.568424
H142	H	1.562072	-0.998693	0.432314
H143	H	1.577048	-1.030266	0.543220
H144	H	1.672996	-1.035502	0.447405
H145	H	1.646415	-0.963138	0.612696
H146	H	1.742366	-0.968365	0.516867
C147	C	1.533857	-0.658067	0.404155
C148	C	1.610509	-0.627530	0.480916
H149	H	1.474570	-0.642177	0.344782
H150	H	1.489522	-0.673746	0.455698
H151	H	1.585498	-0.678984	0.359910
H152	H	1.558869	-0.606614	0.525168
H153	H	1.654847	-0.611844	0.429366
H154	H	2.127196	-0.719103	0.998140
H155	H	1.635454	-0.719311	0.505854
