data_functionalizedCrystal
_audit_creation_method	'MofGen! by Chris Wilmer'
_symmetry_space_group_name_H-M	'P1'
_symmetry_Int_Tables_number	1
_symmetry_cell_setting	triclinic
loop_
_symmetry_equiv_pos_as_xyz
  x,y,z
_cell_length_a	16.959455
_cell_length_b	25.639240
_cell_length_c	16.959455
_cell_angle_alpha	90.024107
_cell_angle_beta	90.007621
_cell_angle_gamma	90.029777
loop_
_atom_site_label
_atom_site_type_symbol
_atom_site_fract_x
_atom_site_fract_y
_atom_site_fract_z
Zn1	Zn	1.208215	-0.208265	0.446981
Zn2	Zn	1.208137	-0.295681	0.314780
Zn3	Zn	1.076072	-0.208257	0.314805
Zn4	Zn	1.075978	-0.295667	0.446905
O5	O	1.142101	-0.251968	0.380868
O6	O	1.318815	-0.219871	0.429466
O7	O	1.190626	-0.284087	0.204172
O8	O	1.093673	-0.135093	0.332381
O9	O	1.318758	-0.284095	0.332338
O10	O	1.190757	-0.135099	0.429491
O11	O	1.093598	-0.219857	0.204191
O12	O	0.965449	-0.219843	0.332307
O13	O	1.093513	-0.284070	0.557526
O14	O	0.965380	-0.284063	0.429360
O15	O	1.190666	-0.219857	0.557582
O16	O	1.190534	-0.368845	0.332264
O17	O	1.093438	-0.368834	0.429335
C18	C	0.936734	-0.251951	0.380828
C19	C	0.848878	-0.251956	0.380830
C20	C	0.477362	-0.285376	0.330268
C21	C	0.477442	-0.218603	0.431564
C22	C	0.559988	-0.218594	0.431545
C23	C	0.601225	-0.251978	0.380887
C24	C	0.559916	-0.285370	0.330248
C25	C	0.601304	-0.185207	0.482188
C26	C	0.683855	-0.185197	0.482172
C27	C	0.725093	-0.218578	0.431509
C28	C	0.683778	-0.251971	0.380868
C29	C	0.725015	-0.285355	0.330210
C30	C	0.683702	-0.318745	0.279564
C31	C	0.601154	-0.318751	0.279586
C32	C	0.807641	-0.218573	0.431488
C33	C	0.807569	-0.285348	0.330191
C34	C	1.141989	-0.387810	0.380806
C35	C	1.142014	-0.445924	0.380806
C36	C	1.192678	-0.806252	0.431524
C37	C	1.192701	-0.860856	0.431540
O38	O	1.235644	-0.889063	0.474599
N39	N	1.142210	-0.888207	0.380944
C40	C	1.091688	-0.860950	0.330335
O41	O	1.048743	-0.889228	0.287301
C42	C	1.091661	-0.806347	0.330323
C43	C	1.142160	-0.778999	0.380917
C44	C	1.243172	-0.778904	0.482114
C45	C	1.243150	-0.724304	0.482096
C46	C	1.192633	-0.697051	0.431489
C47	C	1.142138	-0.724399	0.380899
C48	C	1.041135	-0.779091	0.279718
C49	C	1.041112	-0.724484	0.279712
C50	C	1.091611	-0.697136	0.330305
C51	C	1.091598	-0.642545	0.330275
N52	N	1.142089	-0.615195	0.380871
C53	C	1.192606	-0.642448	0.431478
C54	C	1.091747	-0.975621	0.330364
C55	C	1.091777	-1.030223	0.330371
C56	C	1.192789	-1.030126	0.431577
C57	C	1.192762	-0.975522	0.431566
C58	C	1.142237	-0.948270	0.380959
C59	C	1.192555	-0.527783	0.431437
C60	C	1.192531	-0.473177	0.431413
C61	C	1.091516	-0.473280	0.330210
C62	C	1.091543	-0.527880	0.330231
C63	C	1.142065	-0.555130	0.380851
O64	O	1.048674	-0.614304	0.287240
O65	O	1.235536	-0.614163	0.474511
C66	C	1.348269	-0.251985	0.380908
C67	C	1.436125	-0.251993	0.380925
C68	C	1.142088	-0.251963	0.587036
C69	C	1.142082	-0.251961	0.674893
C70	C	1.142234	-0.115595	0.380947
C71	C	1.142291	-0.057481	0.380981
C72	C	1.091511	-0.285408	1.046341
C73	C	1.192677	-0.218542	1.046395
C74	C	1.192675	-0.218538	0.963849
C75	C	1.142090	-0.251970	0.922545
C76	C	1.091508	-0.285406	0.963788
C77	C	1.243261	-0.185106	0.922601
C78	C	1.243261	-0.185100	0.840050
C79	C	1.192672	-0.218530	0.798745
C80	C	1.142087	-0.251967	0.839992
C81	C	1.091503	-0.285399	0.798688
C82	C	1.040914	-0.318834	0.839934
C83	C	1.040919	-0.318836	0.922482
C84	C	1.192667	-0.218529	0.716196
C85	C	1.091500	-0.285397	0.716135
C86	C	1.142103	-0.251982	1.175501
C87	C	1.142095	-0.251976	1.087645
H88	H	0.443863	-0.191427	0.472812
C89	C	1.247502	-1.059748	0.486628
C90	C	1.202706	-1.091089	0.537260
C91	C	1.253076	-1.118380	0.587987
H92	H	1.281992	-1.081086	0.456524
H93	H	1.277558	-1.035659	0.516808
H94	H	1.172663	-1.115175	0.507083
H95	H	1.168218	-1.069764	0.567381
H96	H	1.283133	-1.094292	0.618167
H97	H	1.287564	-1.139715	0.557877
H98	H	1.222690	-1.139644	0.622351
C99	C	0.556639	-0.148881	0.537145
C100	C	0.576761	-0.097131	0.520102
C101	C	0.535637	-0.063652	0.570722
H102	H	0.501546	-0.153593	0.529954
H103	H	0.570198	-0.156557	0.590241
H104	H	0.563196	-0.089457	0.467019
H105	H	0.631846	-0.092402	0.527298
H106	H	0.549196	-0.071328	0.623817
H107	H	0.480547	-0.068369	0.563526
H108	H	0.549289	-0.028537	0.559170
C109	C	1.247329	-0.443392	0.486263
C110	C	1.236517	-0.389739	0.475407
C111	C	1.286987	-0.362287	0.525913
H112	H	1.235766	-0.452263	0.539394
H113	H	1.300468	-0.452289	0.474744
H114	H	1.183389	-0.380846	0.486932
H115	H	1.248085	-0.380852	0.422287
H116	H	1.340126	-0.371183	0.514394
H117	H	1.275420	-0.371162	0.579040
H118	H	1.279663	-0.325880	0.518549
H119	H	0.841275	-0.191387	0.472724
C120	C	1.298101	-0.148836	0.967586
C121	C	1.287259	-0.155985	1.048706
C122	C	1.337760	-0.122578	1.090175
H123	H	1.351232	-0.156464	0.954154
H124	H	1.286568	-0.113691	0.954130
H125	H	1.298797	-0.191122	1.062157
H126	H	1.234138	-0.148353	1.062162
H127	H	1.326228	-0.087434	1.076718
H128	H	1.390888	-0.130209	1.076736
H129	H	1.330406	-0.127421	1.145219
C130	C	0.986286	-0.694803	0.224849
C131	C	0.997053	-0.641129	0.235672
C132	C	0.946556	-0.613772	0.185154
H133	H	0.997851	-0.703705	0.171723
H134	H	0.933154	-0.703746	0.236378
H135	H	1.050172	-0.632190	0.224138
H136	H	0.985481	-0.632211	0.288788
H137	H	0.893425	-0.622715	0.196682
H138	H	0.958126	-0.622679	0.132031
H139	H	0.953850	-0.577352	0.192495
H140	H	0.717485	-0.158008	0.523410
C141	C	0.728376	-0.354961	0.224439
C142	C	0.708271	-0.343509	0.146269
C143	C	0.749403	-0.376865	0.095470
H144	H	0.783467	-0.350209	0.231580
H145	H	0.714811	-0.390112	0.235859
H146	H	0.721841	-0.308367	0.134853
H147	H	0.653187	-0.348265	0.139103
H148	H	0.735839	-0.412016	0.106890
H149	H	0.804492	-0.372110	0.102617
H150	H	0.735763	-0.369103	0.042426
C151	C	0.432371	-0.321609	0.275370
C152	C	0.351251	-0.314480	0.286236
C153	C	0.309781	-0.347853	0.235685
H154	H	0.445794	-0.313936	0.222249
H155	H	0.445836	-0.356760	0.286841
H156	H	0.337792	-0.279336	0.274759
H157	H	0.337806	-0.322156	0.339346
H158	H	0.323246	-0.383004	0.247156
H159	H	0.323210	-0.340177	0.182567
H160	H	0.254738	-0.343024	0.243056
H161	H	1.233858	-0.191308	0.682618
H162	H	0.841138	-0.312532	0.288936
H163	H	1.050320	-0.312629	1.079927
C164	C	1.298208	-0.148741	0.795415
C165	C	1.342494	-0.119455	0.849257
C166	C	1.393110	-0.085948	0.808167
H167	H	1.332698	-0.168682	0.763196
H168	H	1.268007	-0.125927	0.763247
H169	H	1.372693	-0.142265	0.881412
H170	H	1.308026	-0.099502	0.881478
H171	H	1.362909	-0.063135	0.775999
H172	H	1.427594	-0.105894	0.775949
H173	H	1.423158	-0.066071	0.844692
H174	H	0.567509	-0.345936	0.238352
H175	H	1.284268	-0.702041	0.523296
C176	C	1.247456	-0.945766	0.486547
C177	C	1.202643	-0.914416	0.537148
C178	C	1.253000	-0.886995	0.587804
H179	H	1.277563	-0.969761	0.516760
H180	H	1.281901	-0.924425	0.456366
H181	H	1.168211	-0.935755	0.567326
H182	H	1.172537	-0.890412	0.506956
H183	H	1.287445	-0.865655	0.557623
H184	H	1.283104	-0.910994	0.618012
H185	H	1.222602	-0.865718	0.622138
C186	C	1.247491	-0.557269	0.486429
C187	C	1.291714	-0.521623	0.530711
C188	C	1.342336	-0.548766	0.581368
H189	H	1.217322	-0.578572	0.520918
H190	H	1.282014	-0.578554	0.456258
H191	H	1.257195	-0.500347	0.560880
H192	H	1.321899	-0.500319	0.496243
H193	H	1.376859	-0.570051	0.551197
H194	H	1.312161	-0.570068	0.615852
H195	H	1.372352	-0.524585	0.611415
H196	H	1.284309	-0.801088	0.523329
C197	C	0.985975	-0.355196	0.795228
C198	C	0.941688	-0.384489	0.849010
C199	C	0.891085	-0.417997	0.807853
H200	H	0.951486	-0.335255	0.763023
H201	H	1.016185	-0.378004	0.763039
H202	H	0.911480	-0.361684	0.881185
H203	H	0.976156	-0.404440	0.881217
H204	H	0.921295	-0.440806	0.775663
H205	H	0.856601	-0.398052	0.775649
H206	H	0.861036	-0.437880	0.844337
H207	H	1.050387	-0.451082	0.289003
H208	H	0.999734	-0.346058	0.956072
C209	C	1.036868	-1.059817	0.275403
C210	C	0.992613	-1.024256	0.231097
C211	C	0.942010	-1.051496	0.180463
H212	H	1.067052	-1.081118	0.240928
H213	H	1.002364	-1.081112	0.305592
H214	H	1.027112	-1.002970	0.200911
H215	H	0.962413	-1.002954	0.265552
H216	H	0.907507	-1.072791	0.210651
H217	H	0.972201	-1.072797	0.145992
H218	H	0.911972	-1.027373	0.150401
H219	H	1.050605	-0.953435	0.289148
H220	H	1.000013	-0.801348	0.238519
H221	H	1.050428	-0.550148	0.289027
H222	H	1.050300	-0.312617	0.682511
H223	H	1.233865	-0.191326	1.080029
