data_functionalizedCrystal
_audit_creation_method	'MofGen! by Chris Wilmer'
_symmetry_space_group_name_H-M	'P1'
_symmetry_Int_Tables_number	1
_symmetry_cell_setting	triclinic
loop_
_symmetry_equiv_pos_as_xyz
  x,y,z
_cell_length_a	42.784839
_cell_length_b	42.784841
_cell_length_c	42.784893
_cell_angle_alpha	90.002418
_cell_angle_beta	59.997780
_cell_angle_gamma	119.999863
loop_
_atom_site_label
_atom_site_type_symbol
_atom_site_fract_x
_atom_site_fract_y
_atom_site_fract_z
O1	O	0.275695	-0.214412	-0.009300
O2	O	0.211692	-0.168961	0.009253
O3	O	0.275692	-0.168961	-0.054750
O4	O	0.211694	-0.214412	0.054702
O5	O	0.223708	-0.220945	-0.054749
O6	O	0.159708	-0.220945	0.009253
O7	O	0.223710	-0.266397	-0.009300
Cu8	Cu	0.186962	-0.248417	-0.000023
Cu9	Cu	0.248440	-0.186940	-0.000024
O10	O	0.159710	-0.266396	0.054703
C11	C	0.051021	-0.022778	0.028112
C12	C	0.013142	-0.041761	0.028375
C13	C	0.051018	-0.079378	0.028116
C14	C	0.013139	-0.098275	0.028379
C15	C	-0.005578	-0.079377	0.028112
C16	C	0.069652	-0.041762	0.028379
C17	C	0.152948	0.113708	0.017863
C18	C	0.173786	0.152360	0.014965
C19	C	0.155902	0.171750	0.013509
C20	C	0.178499	0.213661	0.010359
C21	C	0.117177	0.152485	0.014953
C22	C	0.096339	0.113835	0.017857
C23	C	0.114226	0.094447	0.019312
C24	C	-0.131813	-0.113936	0.017859
C25	C	-0.167567	-0.131750	0.014961
C26	C	-0.185502	-0.169024	0.013506
C27	C	-0.224264	-0.188340	0.010358
C28	C	-0.167685	-0.188485	0.014954
C29	C	-0.131938	-0.170675	0.017859
C30	C	-0.114002	-0.133396	0.019309
C31	C	0.152939	-0.113943	0.017877
C32	C	0.173778	-0.131757	0.014977
C33	C	0.155892	-0.169032	0.013523
C34	C	0.178486	-0.188349	0.010377
C35	C	0.117170	-0.188491	0.014967
C36	C	0.096334	-0.170675	0.017865
C37	C	0.114220	-0.133401	0.019323
C38	C	0.091629	0.052537	0.022456
C39	C	0.073617	0.019131	0.024964
C40	C	0.073613	-0.098693	0.024971
C41	C	0.091623	-0.114089	0.022466
C42	C	-0.044339	-0.098690	0.024964
C43	C	-0.075237	-0.114084	0.022456
O44	O	-0.327856	-0.266388	-0.009322
O45	O	-0.236954	-0.220935	0.009228
O46	O	-0.236950	-0.220939	-0.054773
O47	O	-0.327860	-0.266385	0.054680
O48	O	-0.236948	-0.168954	-0.054776
O49	O	-0.236952	-0.168950	0.009225
O50	O	-0.327854	-0.214403	-0.009325
Cu51	Cu	-0.282403	-0.186930	-0.000050
Cu52	Cu	-0.282405	-0.248408	-0.000046
O53	O	-0.327858	-0.214400	0.054676
C54	C	0.384390	-0.079141	-0.361606
C55	C	0.422270	-0.041526	-0.380503
C56	C	0.384390	-0.079141	-0.305008
C57	C	0.422270	-0.041526	-0.323990
C58	C	0.440988	-0.022543	-0.361606
C59	C	0.365758	-0.098038	-0.323991
C60	C	0.282465	-0.170819	-0.396168
C61	C	0.261627	-0.188759	-0.413983
C62	C	0.279513	-0.169420	-0.451257
C63	C	0.256917	-0.188867	-0.470572
C64	C	0.318239	-0.132140	-0.470717
C65	C	0.339076	-0.114205	-0.452905
C66	C	0.321187	-0.133546	-0.415628
C67	C	0.567227	0.113942	-0.453282
C68	C	0.602981	0.152594	-0.471222
C69	C	0.620916	0.171985	-0.451883
C70	C	0.659678	0.213894	-0.471328
C71	C	0.603097	0.152719	-0.414603
C72	C	0.567349	0.114068	-0.396667
C73	C	0.549414	0.094682	-0.416011
C74	C	0.282465	-0.170819	-0.168522
C75	C	0.261624	-0.188757	-0.129868
C76	C	0.279510	-0.169418	-0.110479
C77	C	0.256914	-0.188865	-0.068568
C78	C	0.318233	-0.132140	-0.129742
C79	C	0.339070	-0.114203	-0.168394
C80	C	0.321184	-0.133548	-0.187782
C81	C	0.343783	-0.114094	-0.396315
C82	C	0.361794	-0.098590	-0.380920
C83	C	0.361794	-0.098590	-0.263099
C84	C	0.343783	-0.114094	-0.229693
C85	C	0.479750	0.019366	-0.381054
C86	C	0.510649	0.052771	-0.396557
C87	C	0.440758	-0.356212	-0.028193
C88	C	0.422041	-0.393827	-0.028459
C89	C	0.384158	-0.356213	-0.028190
C90	C	0.365526	-0.393828	-0.028456
C91	C	0.384160	-0.412810	-0.028193
C92	C	0.422038	-0.337315	-0.028456
C93	C	0.567000	-0.264532	-0.017949
C94	C	0.602755	-0.246591	-0.015053
C95	C	0.620692	-0.265931	-0.013601
C96	C	0.659455	-0.246483	-0.010453
C97	C	0.602873	-0.303210	-0.015048
C98	C	0.567125	-0.321146	-0.017949
C99	C	0.549188	-0.301805	-0.019399
C100	C	0.339356	-0.549295	-0.017951
C101	C	0.318645	-0.587947	-0.015055
C102	C	0.279915	-0.607338	-0.013597
C103	C	0.257452	-0.649247	-0.010452
C104	C	0.261899	-0.588073	-0.015042
C105	C	0.282613	-0.549422	-0.017945
C106	C	0.321343	-0.530035	-0.019397
C107	C	0.339344	-0.264537	-0.017936
C108	C	0.318628	-0.246599	-0.015032
C109	C	0.279898	-0.265939	-0.013577
C110	C	0.257433	-0.246493	-0.010426
C111	C	0.261884	-0.303217	-0.015022
C112	C	0.282601	-0.321153	-0.017924
C113	C	0.321334	-0.301808	-0.019385
C114	C	0.510421	-0.321258	-0.022542
C115	C	0.479522	-0.336762	-0.025048
C116	C	0.361696	-0.336765	-0.025041
C117	C	0.343793	-0.321261	-0.022532
C118	C	0.361701	-0.454719	-0.025047
C119	C	0.343799	-0.488125	-0.022541
O120	O	0.223728	0.336934	-0.009323
O121	O	0.159726	0.227482	0.009227
O122	O	0.223729	0.291478	-0.054775
O123	O	0.159725	0.272938	0.054678
O124	O	0.275711	0.291477	-0.054771
O125	O	0.211707	0.227481	0.009230
O126	O	0.275710	0.336932	-0.009320
Cu127	Cu	0.248455	0.282206	-0.000045
Cu128	Cu	0.186981	0.282208	-0.000049
O129	O	0.211707	0.272936	0.054681
O130	O	0.763271	0.337164	-0.496871
O131	O	0.672367	0.227713	-0.451422
O132	O	0.672365	0.291711	-0.451418
O133	O	0.763273	0.273165	-0.496876
O134	O	0.672366	0.291712	-0.503402
O135	O	0.672368	0.227714	-0.503407
O136	O	0.763272	0.337165	-0.548856
Cu137	Cu	0.717820	0.282440	-0.530878
Cu138	Cu	0.717819	0.282438	-0.469400
O139	O	0.763275	0.273167	-0.548860
O140	O	0.211690	-0.214417	-0.548617
O141	O	0.275691	-0.168962	-0.503167
O142	O	0.211689	-0.168964	-0.503163
O143	O	0.275692	-0.214415	-0.548621
O144	O	0.159706	-0.220947	-0.451179
O145	O	0.223708	-0.220945	-0.451183
O146	O	0.159707	-0.266400	-0.496633
Cu147	Cu	0.186961	-0.248419	-0.469161
Cu148	Cu	0.248437	-0.186943	-0.530639
O149	O	0.223709	-0.266398	-0.496637
C150	C	-0.005343	-0.412572	0.361558
C151	C	0.013375	-0.393590	0.380456
C152	C	0.051255	-0.355974	0.304961
C153	C	0.069887	-0.337077	0.323944
C154	C	0.051254	-0.355974	0.361560
C155	C	0.013375	-0.393589	0.323943
C156	C	-0.131582	-0.549057	0.396116
C157	C	-0.167336	-0.587709	0.413930
C158	C	-0.185271	-0.607098	0.451205
C159	C	-0.224034	-0.649009	0.470519
C160	C	-0.167452	-0.587833	0.470666
C161	C	-0.131705	-0.549184	0.452854
C162	C	-0.113770	-0.529796	0.415578
C163	C	0.096061	-0.321414	0.453239
C164	C	0.116773	-0.303600	0.471179
C165	C	0.155502	-0.266327	0.451842
C166	C	0.177965	-0.247011	0.471288
C167	C	0.173517	-0.246866	0.414562
C168	C	0.152802	-0.264677	0.396625
C169	C	0.114073	-0.301955	0.415968
C170	C	0.096064	-0.321412	0.168474
C171	C	0.116779	-0.303599	0.129820
C172	C	0.155508	-0.266324	0.110432
C173	C	0.177972	-0.247009	0.068521
C174	C	0.173522	-0.246865	0.129696
C175	C	0.152807	-0.264680	0.168348
C176	C	0.114075	-0.301953	0.187735
C177	C	-0.075004	-0.487887	0.396265
C178	C	-0.044106	-0.454481	0.380871
C179	C	0.073715	-0.336660	0.263052
C180	C	0.091618	-0.321265	0.229646
C181	C	0.073714	-0.336661	0.381009
C182	C	0.091616	-0.321267	0.396513
C183	C	0.051046	-0.022794	-0.361634
C184	C	0.069679	-0.041778	-0.380530
C185	C	-0.005555	-0.079390	-0.305034
C186	C	0.013163	-0.098288	-0.324016
C187	C	0.051045	-0.079393	-0.361631
C188	C	0.013164	-0.041775	-0.324018
C189	C	0.095858	0.113693	-0.396200
C190	C	0.116571	0.152344	-0.414015
C191	C	0.155302	0.171732	-0.451290
C192	C	0.177767	0.213642	-0.470607
C193	C	0.173317	0.152465	-0.470750
C194	C	0.152600	0.113815	-0.452936
C195	C	0.113869	0.094429	-0.415659
C196	C	0.152973	-0.113959	-0.453306
C197	C	0.173810	-0.131775	-0.471245
C198	C	0.155926	-0.169048	-0.451906
C199	C	0.178519	-0.188366	-0.471350
C200	C	0.117198	-0.188507	-0.414626
C201	C	0.096358	-0.170694	-0.396690
C202	C	0.114251	-0.133416	-0.416035
C203	C	-0.131801	-0.113944	-0.168548
C204	C	-0.167554	-0.131755	-0.129895
C205	C	-0.185491	-0.169029	-0.110504
C206	C	-0.224255	-0.188343	-0.068593
C207	C	-0.167671	-0.188490	-0.129767
C208	C	-0.131918	-0.170677	-0.168418
C209	C	-0.113988	-0.133404	-0.187808
C210	C	0.091411	0.052521	-0.396344
C211	C	0.073508	0.019115	-0.380949
C212	C	-0.044320	-0.098701	-0.263125
C213	C	-0.075220	-0.114094	-0.229719
C214	C	0.073641	-0.098707	-0.381079
C215	C	0.091652	-0.114103	-0.396582
C216	C	-0.615853	-0.356193	0.361535
C217	C	-0.634487	-0.393808	0.380433
C218	C	-0.559253	-0.356195	0.304938
C219	C	-0.577972	-0.393810	0.323921
C220	C	-0.615854	-0.412792	0.361537
C221	C	-0.577972	-0.337297	0.323920
C222	C	-0.660661	-0.264512	0.396093
C223	C	-0.681373	-0.246571	0.413906
C224	C	-0.720104	-0.265909	0.451181
C225	C	-0.742568	-0.246461	0.470495
C226	C	-0.738120	-0.303189	0.470643
C227	C	-0.717405	-0.321125	0.452831
C228	C	-0.678674	-0.301785	0.415554
C229	C	-0.717784	-0.549275	0.453218
C230	C	-0.738622	-0.587926	0.471159
C231	C	-0.720740	-0.607319	0.451822
C232	C	-0.743333	-0.649227	0.471268
C233	C	-0.682012	-0.588055	0.414542
C234	C	-0.661170	-0.549403	0.396604
C235	C	-0.679063	-0.530016	0.415946
C236	C	-0.433006	-0.264522	0.168449
C237	C	-0.397253	-0.246585	0.129796
C238	C	-0.379317	-0.265926	0.110407
C239	C	-0.340553	-0.246480	0.068496
C240	C	-0.397138	-0.303204	0.129672
C241	C	-0.432891	-0.321139	0.168324
C242	C	-0.450820	-0.301793	0.187711
C243	C	-0.656216	-0.321238	0.396242
C244	C	-0.638314	-0.336743	0.380848
C245	C	-0.520488	-0.336748	0.263028
C246	C	-0.489588	-0.321245	0.229622
C247	C	-0.638451	-0.454700	0.380987
C248	C	-0.656463	-0.488106	0.396492
C249	C	0.440756	0.310302	-0.361620
C250	C	0.422038	0.310564	-0.380518
C251	C	0.384160	0.310312	-0.305026
C252	C	0.365528	0.310574	-0.324010
C253	C	0.384159	0.310303	-0.361624
C254	C	0.422038	0.310573	-0.324006
C255	C	0.566989	0.300046	-0.396172
C256	C	0.602741	0.297145	-0.413984
C257	C	0.620675	0.295684	-0.451257
C258	C	0.659436	0.292531	-0.470569
C259	C	0.602857	0.297127	-0.470719
C260	C	0.567111	0.300033	-0.452909
C261	C	0.549177	0.301493	-0.415634
C262	C	0.339351	0.300042	-0.453303
C263	C	0.318640	0.297142	-0.471244
C264	C	0.279912	0.295690	-0.451908
C265	C	0.257449	0.292541	-0.471354
C266	C	0.261899	0.297143	-0.414629
C267	C	0.282613	0.300049	-0.396692
C268	C	0.321341	0.301496	-0.416033
C269	C	0.339354	0.300088	-0.168540
C270	C	0.318640	0.297192	-0.129888
C271	C	0.279912	0.295742	-0.110501
C272	C	0.257450	0.292601	-0.068591
C273	C	0.261898	0.297184	-0.129766
C274	C	0.282612	0.300078	-0.168417
C275	C	0.321344	0.301533	-0.187802
C276	C	0.510413	0.304640	-0.396323
C277	C	0.479516	0.307151	-0.380931
C278	C	0.361701	0.307173	-0.263117
C279	C	0.343799	0.304671	-0.229712
C280	C	0.361700	0.307154	-0.381073
C281	C	0.343798	0.304644	-0.396578
O282	O	0.275503	0.336913	-0.548651
O283	O	0.211494	0.227461	-0.503201
O284	O	0.275490	0.291455	-0.503192
O285	O	0.211507	0.272919	-0.548659
O286	O	0.223502	0.291457	-0.451211
O287	O	0.159506	0.227463	-0.451219
O288	O	0.223515	0.336915	-0.496669
Cu289	Cu	0.186764	0.282189	-0.469197
Cu290	Cu	0.248246	0.282187	-0.530672
O291	O	0.159519	0.272921	-0.496677
C292	C	0.051032	0.254111	0.361530
C293	C	0.013154	0.253851	0.380425
C294	C	0.051031	0.254102	0.304932
C295	C	0.013153	0.253842	0.323913
C296	C	-0.005564	0.254113	0.361527
C297	C	0.069663	0.253840	0.323916
C298	C	0.152954	0.264360	0.396096
C299	C	0.173791	0.267260	0.413911
C300	C	0.155906	0.268721	0.451185
C301	C	0.178502	0.271871	0.470501
C302	C	0.117182	0.267279	0.470643
C303	C	0.096345	0.264374	0.452830
C304	C	0.114233	0.262915	0.415555
C305	C	-0.131796	0.264379	0.453195
C306	C	-0.167548	0.267281	0.471133
C307	C	-0.185483	0.268734	0.451793
C308	C	-0.224243	0.271886	0.471236
C309	C	-0.167664	0.267282	0.414515
C310	C	-0.131919	0.264374	0.396581
C311	C	-0.113984	0.262925	0.415925
C312	C	0.152952	0.264325	0.168451
C313	C	0.173792	0.267221	0.129798
C314	C	0.155907	0.268673	0.110407
C315	C	0.178502	0.271814	0.068498
C316	C	0.117186	0.267232	0.129669
C317	C	0.096350	0.264339	0.168320
C318	C	0.114234	0.262881	0.187709
C319	C	0.091638	0.259769	0.396240
C320	C	0.073627	0.257260	0.380845
C321	C	0.073626	0.257242	0.263024
C322	C	0.091636	0.259743	0.229619
C323	C	-0.044324	0.257264	0.380973
C324	C	-0.075221	0.259775	0.396474
H325	H	-0.117435	-0.186523	0.019040
H326	H	0.102633	-0.218858	-0.398880
C327	C	0.097850	0.268894	0.511098
C328	C	0.124393	0.271758	0.522531
C329	C	0.106601	0.273255	0.559794
H330	H	0.068803	0.246290	0.528020
H331	H	0.096830	0.290578	0.511697
H332	H	0.125408	0.250076	0.521936
H333	H	0.153440	0.294361	0.505620
H334	H	0.105582	0.294938	0.560393
H335	H	0.077555	0.250650	0.576713
H336	H	0.124610	0.275201	0.567555
H337	H	0.167522	0.263171	0.365746
H338	H	-0.117214	-0.083584	0.019042
H339	H	0.617485	0.168277	-0.501573
H340	H	0.370607	-0.083853	-0.468752
C341	C	0.172276	-0.243572	0.189326
C342	C	0.141370	-0.240146	0.220172
C343	C	0.159286	-0.220706	0.239508
H344	H	0.198297	-0.218808	0.172291
H345	H	0.179366	-0.257480	0.198560
H346	H	0.134285	-0.226237	0.210938
H347	H	0.115347	-0.264904	0.237216
H348	H	0.166377	-0.234614	0.248742
H349	H	0.185307	-0.195943	0.222470
H350	H	0.138318	-0.218381	0.260441
C351	C	0.381352	0.301544	-0.474254
C352	C	0.374236	0.270537	-0.453606
C353	C	0.412915	0.271906	-0.472894
H354	H	0.404647	0.324797	-0.476580
H355	H	0.389118	0.300246	-0.499020
H356	H	0.366476	0.271838	-0.428847
H357	H	0.350948	0.247280	-0.451279
H358	H	0.420681	0.270608	-0.497660
H359	H	0.436207	0.295160	-0.475219
H360	H	0.408091	0.250866	-0.458889
H361	H	0.167506	-0.083593	0.019063
H362	H	-0.182052	0.268464	0.501484
H363	H	-0.182070	-0.115902	0.013781
H364	H	0.167516	0.097925	0.019049
H365	H	0.064802	-0.186523	0.019045
C366	C	0.622616	0.173840	-0.393662
C367	C	0.657730	0.211814	-0.417343
C368	C	0.675717	0.231284	-0.398062
H369	H	0.633097	0.161712	-0.387227
H370	H	0.600516	0.173420	-0.370955
H371	H	0.679826	0.212231	-0.440043
H372	H	0.647261	0.223953	-0.423779
H373	H	0.653616	0.230865	-0.375355
H374	H	0.686195	0.219153	-0.391628
H375	H	0.699541	0.257052	-0.414126
C376	C	0.338279	0.295624	-0.511735
C377	C	0.381103	0.328992	-0.536463
C378	C	0.399211	0.327604	-0.573766
H379	H	0.320449	0.293706	-0.519702
H380	H	0.339349	0.273967	-0.512299
H381	H	0.380031	0.350644	-0.535901
H382	H	0.398944	0.330917	-0.528509
H383	H	0.400281	0.305947	-0.574330
H384	H	0.381378	0.325686	-0.581729
H385	H	0.428270	0.350242	-0.590548
H386	H	0.333315	-0.603629	-0.013877
H387	H	0.333309	0.296016	-0.114204
H388	H	-0.732353	-0.533492	0.468971
C389	C	0.324943	0.311227	-0.303703
C390	C	0.334802	0.344160	-0.293200
C391	C	0.297430	0.344778	-0.274501
H392	H	0.301369	0.289174	-0.281446
H393	H	0.316483	0.311368	-0.320406
H394	H	0.343256	0.344016	-0.276498
H395	H	0.358370	0.366219	-0.315451
H396	H	0.288970	0.344919	-0.291204
H397	H	0.273859	0.322723	-0.252245
H398	H	0.304115	0.367124	-0.267376
H399	H	-0.181841	-0.603391	0.398082
C400	C	0.337725	-0.111150	-0.511212
C401	C	0.380529	-0.101721	-0.536006
C402	C	0.398492	-0.082386	-0.573314
H403	H	0.338807	-0.088421	-0.511857
H404	H	0.319794	-0.127164	-0.519059
H405	H	0.398455	-0.085708	-0.528162
H406	H	0.379459	-0.124443	-0.535373
H407	H	0.380562	-0.098400	-0.581161
H408	H	0.399572	-0.059658	-0.573955
H409	H	0.427535	-0.075989	-0.590142
H410	H	0.064825	-0.186540	-0.366338
H411	H	-0.182059	-0.115906	-0.114213
C412	C	0.054256	0.262730	0.473964
C413	C	0.019971	0.228392	0.477413
C414	C	-0.018809	0.226864	0.496883
H415	H	0.058897	0.283715	0.460077
H416	H	0.046560	0.263995	0.498725
H417	H	0.027666	0.227131	0.452656
H418	H	0.015316	0.207402	0.491303
H419	H	-0.026505	0.228129	0.521644
H420	H	-0.014162	0.247850	0.482994
H421	H	-0.042076	0.203565	0.499229
C422	C	0.337632	-0.111079	-0.108700
C423	C	0.339099	-0.077637	-0.109411
C424	C	0.356963	-0.058224	-0.090033
H425	H	0.366696	-0.104604	-0.120858
H426	H	0.319683	-0.127071	-0.082911
H427	H	0.357047	-0.061649	-0.135196
H428	H	0.310040	-0.084102	-0.097252
H429	H	0.339015	-0.074216	-0.064243
H430	H	0.386027	-0.051751	-0.102192
H431	H	0.357957	-0.035534	-0.090509
C432	C	-0.112312	-0.528197	0.473924
C433	C	-0.077171	-0.490197	0.450349
C434	C	-0.059298	-0.470851	0.469748
H435	H	-0.101880	-0.540377	0.480364
H436	H	-0.134458	-0.528666	0.496635
H437	H	-0.055029	-0.489730	0.427646
H438	H	-0.087592	-0.478006	0.443908
H439	H	-0.081445	-0.471320	0.492458
H440	H	-0.048869	-0.483035	0.476187
H441	H	-0.035456	-0.445065	0.453756
C442	C	-0.112613	0.262718	0.356139
C443	C	-0.116118	0.228379	0.356201
C444	C	-0.098343	0.226840	0.318953
H445	H	-0.082382	0.283701	0.339792
H446	H	-0.128417	0.263978	0.347181
H447	H	-0.100314	0.227122	0.365154
H448	H	-0.146345	0.207389	0.372541
H449	H	-0.114146	0.228099	0.309995
H450	H	-0.068113	0.247825	0.302609
H451	H	-0.100722	0.203539	0.318990
C452	C	0.054051	-0.361906	0.474191
C453	C	0.061155	-0.385807	0.453549
C454	C	0.022464	-0.423109	0.472838
H455	H	0.030766	-0.361936	0.476509
H456	H	0.046277	-0.370970	0.498960
H457	H	0.068923	-0.376746	0.428787
H458	H	0.084433	-0.385790	0.451230
H459	H	0.014690	-0.432173	0.497607
H460	H	-0.000818	-0.423135	0.475155
H461	H	0.027280	-0.439331	0.458837
C462	C	0.215766	-0.110643	0.013492
C463	C	0.207102	-0.101214	0.046876
C464	C	0.245768	-0.081769	0.045527
H465	H	0.238019	-0.087908	-0.008149
H466	H	0.225615	-0.126588	0.011577
H467	H	0.197260	-0.085270	0.048787
H468	H	0.184856	-0.123942	0.068522
H469	H	0.255617	-0.097714	0.043612
H470	H	0.268018	-0.059036	0.023885
H471	H	0.239894	-0.075372	0.068179
C472	C	0.443072	-0.021216	-0.303607
C473	C	0.412355	-0.019348	-0.270857
C474	C	0.431499	-0.000641	-0.252070
H475	H	0.468349	0.003963	-0.320268
H476	H	0.451612	-0.034978	-0.296411
H477	H	0.403822	-0.005586	-0.278053
H478	H	0.387077	-0.044522	-0.254187
H479	H	0.440039	-0.014402	-0.244874
H480	H	0.456775	0.024537	-0.268734
H481	H	0.410659	0.000626	-0.229845
H482	H	-0.629638	-0.533721	0.366252
H483	H	0.205343	-0.115928	-0.501596
C484	C	0.325103	-0.139242	-0.303597
C485	C	0.312718	-0.151795	-0.266521
C486	C	0.275267	-0.189746	-0.247721
H487	H	0.331658	-0.154998	-0.317322
H488	H	0.301540	-0.140712	-0.302263
H489	H	0.336275	-0.150328	-0.267857
H490	H	0.306154	-0.136049	-0.252786
H491	H	0.251704	-0.191216	-0.246387
H492	H	0.281826	-0.205499	-0.261449
H493	H	0.266856	-0.198267	-0.222563
C494	C	0.054317	0.262785	0.189294
C495	C	0.039904	0.259950	0.227290
C496	C	0.001188	0.258523	0.246621
H497	H	0.032053	0.241120	0.188846
H498	H	0.060100	0.285412	0.177084
H499	H	0.034119	0.237325	0.239497
H500	H	0.062157	0.281613	0.227749
H501	H	0.006971	0.281151	0.234411
H502	H	-0.021073	0.236858	0.246170
H503	H	-0.008594	0.256603	0.272402
H504	H	-0.117412	-0.186525	-0.184100
H505	H	-0.117212	-0.083598	-0.184336
H506	H	0.552629	0.098160	-0.469035
H507	H	0.100368	-0.306171	0.308703
C508	C	-0.112406	0.262785	0.474269
C509	C	-0.135669	0.264665	0.510757
C510	C	-0.117823	0.263192	0.530180
H511	H	-0.082182	0.283789	0.460356
H512	H	-0.114752	0.239500	0.476614
H513	H	-0.133319	0.287948	0.508410
H514	H	-0.165893	0.243663	0.524680
H515	H	-0.120168	0.239907	0.532525
H516	H	-0.087599	0.284197	0.516264
H517	H	-0.133607	0.264465	0.554940
C518	C	0.622019	-0.206150	-0.013399
C519	C	0.589272	-0.205450	0.018571
C520	C	0.607002	-0.168203	0.020111
H521	H	0.632409	-0.189282	-0.035991
H522	H	0.645868	-0.198230	-0.011443
H523	H	0.565431	-0.213365	0.016612
H524	H	0.578879	-0.222310	0.041168
H525	H	0.630850	-0.160283	0.022067
H526	H	0.617391	-0.151338	-0.002482
H527	H	0.584787	-0.167724	0.041804
C528	C	0.097804	-0.228967	0.013403
C529	C	0.124330	-0.240410	0.010565
C530	C	0.106502	-0.277694	0.009128
H531	H	0.096763	-0.229610	-0.008266
H532	H	0.068756	-0.245856	0.036027
H533	H	0.153370	-0.223526	-0.012057
H534	H	0.125373	-0.239776	0.032232
H535	H	0.077454	-0.294583	0.031753
H536	H	0.105462	-0.278334	-0.012541
H537	H	0.124495	-0.285465	0.007207
H538	H	-0.182279	-0.218843	-0.113977
C539	C	0.219533	-0.229200	-0.392804
C540	C	0.186865	-0.229899	-0.359356
C541	C	0.148079	-0.267145	-0.339838
H542	H	0.225257	-0.246068	-0.386327
H543	H	0.209655	-0.237121	-0.408731
H544	H	0.196741	-0.221983	-0.343432
H545	H	0.181127	-0.213039	-0.365823
H546	H	0.138200	-0.275066	-0.355765
H547	H	0.153808	-0.284010	-0.333363
H548	H	0.125907	-0.267623	-0.317143
H549	H	-0.667447	-0.603843	0.398798
H550	H	0.437709	-0.409066	-0.028885
C551	C	0.622008	0.295561	-0.392784
C552	C	0.598644	0.297451	-0.356326
C553	C	0.616376	0.295989	-0.336784
H554	H	0.652227	0.316566	-0.406648
H555	H	0.619657	0.272277	-0.390389
H556	H	0.600999	0.320733	-0.358723
H557	H	0.568425	0.276449	-0.342453
H558	H	0.614026	0.272704	-0.334389
H559	H	0.646595	0.316994	-0.350651
H560	H	0.600524	0.297268	-0.312044
H561	H	-0.182293	-0.218837	0.013775
H562	H	0.100165	-0.026535	-0.411435
C563	C	0.097690	0.173495	0.013453
C564	C	0.054887	0.155484	0.046830
C565	C	0.036922	0.174829	0.045464
H566	H	0.096605	0.173060	-0.008193
H567	H	0.115621	0.199272	0.011538
H568	H	0.036960	0.129714	0.048742
H569	H	0.055959	0.155918	0.068481
H570	H	0.054853	0.200605	0.043549
H571	H	0.035840	0.174392	0.023817
H572	H	0.007880	0.162613	0.068111
C573	C	0.338265	-0.206119	-0.013485
C574	C	0.376624	-0.193015	-0.015394
C575	C	0.394730	-0.155724	-0.013976
H576	H	0.317406	-0.206036	0.009785
H577	H	0.345393	-0.189791	-0.034506
H578	H	0.369494	-0.209339	0.005626
H579	H	0.397492	-0.193088	-0.038663
H580	H	0.401858	-0.139397	-0.034997
H581	H	0.373868	-0.155646	0.009295
H582	H	0.420760	-0.146828	-0.015274
H583	H	0.370881	-0.248784	-0.019122
H584	H	-0.562304	-0.409050	0.308680
H585	H	0.437935	-0.026287	-0.411409
H586	H	0.230091	-0.219108	-0.114185
C587	C	-0.675083	-0.414113	0.421666
C588	C	-0.665244	-0.424619	0.444756
C589	C	-0.702629	-0.443317	0.482740
H590	H	-0.698651	-0.436369	0.423178
H591	H	-0.683544	-0.397409	0.430260
H592	H	-0.656789	-0.441323	0.436164
H593	H	-0.641682	-0.402371	0.443256
H594	H	-0.711090	-0.426613	0.491334
H595	H	-0.726194	-0.465571	0.484247
H596	H	-0.695957	-0.450444	0.498412
H597	H	0.230368	0.295965	-0.398887
C598	C	0.622395	-0.324149	-0.013448
C599	C	0.657510	-0.300466	-0.010589
C600	C	0.675499	-0.319745	-0.009109
H601	H	0.632875	-0.330585	-0.036057
H602	H	0.600296	-0.346855	0.008232
H603	H	0.679605	-0.277767	-0.032267
H604	H	0.647041	-0.294029	0.012020
H605	H	0.653401	-0.342452	0.012571
H606	H	0.685977	-0.326181	-0.031719
H607	H	0.699324	-0.303681	-0.007166
C608	C	0.097822	0.268795	0.108557
C609	C	0.124349	0.271628	0.070588
C610	C	0.106522	0.273064	0.051131
H611	H	0.096783	0.290465	0.108953
H612	H	0.068774	0.246172	0.120715
H613	H	0.153389	0.294249	0.058433
H614	H	0.125390	0.249961	0.070181
H615	H	0.077474	0.250441	0.063289
H616	H	0.105484	0.294734	0.051530
H617	H	0.124515	0.274983	0.025368
C618	C	0.548051	0.093225	-0.356187
C619	C	0.571401	0.118478	-0.343083
C620	C	0.553631	0.099293	-0.305792
H621	H	0.550379	0.072283	-0.356105
H622	H	0.517830	0.084028	-0.339858
H623	H	0.601614	0.127670	-0.359408
H624	H	0.569075	0.139421	-0.343156
H625	H	0.523410	0.090096	-0.289463
H626	H	0.555959	0.078352	-0.305714
H627	H	0.569468	0.116425	-0.296895
C628	C	0.110307	-0.021502	0.028928
C629	C	0.122691	-0.046193	0.029098
C630	C	0.160142	-0.027542	0.029598
H631	H	0.103752	-0.014331	0.051239
H632	H	0.133870	0.000726	0.006834
H633	H	0.099133	-0.068414	0.051189
H634	H	0.129254	-0.053365	0.006789
H635	H	0.183705	-0.005314	0.007504
H636	H	0.153584	-0.020372	0.051909
H637	H	0.168552	-0.044291	0.029710
H638	H	0.335043	-0.409068	-0.028878
C639	C	0.110346	0.253331	0.303619
C640	C	0.144970	0.285910	0.301747
C641	C	0.182451	0.285452	0.283055
H642	H	0.118866	0.253225	0.278441
H643	H	0.103765	0.231027	0.317393
H644	H	0.151551	0.308208	0.287973
H645	H	0.136465	0.286022	0.326920
H646	H	0.175870	0.263148	0.296829
H647	H	0.190967	0.285345	0.257878
H648	H	0.205947	0.307555	0.281786
C649	C	0.547828	-0.361626	-0.019495
C650	C	0.571178	-0.374728	-0.017593
C651	C	0.553410	-0.412019	-0.019010
H652	H	0.550154	-0.361709	-0.042764
H653	H	0.517607	-0.377954	0.001529
H654	H	0.601391	-0.358404	-0.038615
H655	H	0.568854	-0.374654	0.005674
H656	H	0.523189	-0.428348	0.002013
H657	H	0.555737	-0.412099	-0.042279
H658	H	0.569248	-0.420915	-0.017716
C659	C	0.263088	0.301725	-0.189335
C660	C	0.261612	0.333696	-0.188564
C661	C	0.243634	0.335229	-0.207835
H662	H	0.234017	0.279134	-0.177131
H663	H	0.280973	0.303677	-0.215139
H664	H	0.243728	0.331740	-0.162765
H665	H	0.290678	0.356292	-0.200771
H666	H	0.261519	0.337181	-0.233639
H667	H	0.214564	0.312636	-0.195629
H668	H	0.242634	0.356922	-0.207318
C669	C	-0.452164	-0.361606	0.189177
C670	C	-0.428800	-0.374703	0.163928
C671	C	-0.446540	-0.411979	0.183124
H672	H	-0.482382	-0.377959	0.198386
H673	H	-0.449821	-0.361654	0.210115
H674	H	-0.431147	-0.374658	0.142997
H675	H	-0.398582	-0.358361	0.154718
H676	H	-0.444197	-0.412027	0.204063
H677	H	-0.476757	-0.428328	0.192333
H678	H	-0.430687	-0.420868	0.165997
C679	C	0.622374	0.295518	-0.511176
C680	C	0.657487	0.292655	-0.522606
C681	C	0.675473	0.291165	-0.559872
H682	H	0.632856	0.318124	-0.528096
H683	H	0.600273	0.273836	-0.511781
H684	H	0.679584	0.314334	-0.522005
H685	H	0.647016	0.270049	-0.505697
H686	H	0.653372	0.269484	-0.560476
H687	H	0.685952	0.313773	-0.576788
H688	H	0.699296	0.289219	-0.567631
H689	H	0.552400	-0.248780	-0.019131
C690	C	0.381388	0.301641	-0.189516
C691	C	0.392723	0.299746	-0.164370
C692	C	0.431437	0.301171	-0.183679
H693	H	0.404695	0.324910	-0.210464
H694	H	0.376649	0.280618	-0.198719
H695	H	0.397464	0.320768	-0.155173
H696	H	0.369426	0.276480	-0.143422
H697	H	0.426698	0.280148	-0.192882
H698	H	0.454741	0.324440	-0.204627
H699	H	0.439131	0.299882	-0.166620
H700	H	0.205316	0.168042	0.013788
C701	C	0.262964	-0.191875	-0.189499
C702	C	0.224584	-0.228355	-0.164354
C703	C	0.206606	-0.247758	-0.183665
H704	H	0.283873	-0.194237	-0.210446
H705	H	0.255885	-0.177932	-0.198702
H706	H	0.231664	-0.242295	-0.155157
H707	H	0.203665	-0.226005	-0.143406
H708	H	0.199527	-0.233815	-0.192868
H709	H	0.227518	-0.250117	-0.204611
H710	H	0.180561	-0.272510	-0.166606
H711	H	-0.666703	-0.216219	0.398058
C712	C	-0.007590	-0.413966	0.303691
C713	C	-0.044841	-0.451040	0.328380
C714	C	-0.064166	-0.469819	0.309739
H715	H	0.013142	-0.415308	0.281453
H716	H	-0.016170	-0.400217	0.296544
H717	H	-0.036259	-0.464786	0.335522
H718	H	-0.065582	-0.449709	0.350619
H719	H	-0.072747	-0.456069	0.302591
H720	H	-0.043431	-0.471158	0.287501
H721	H	-0.089445	-0.494973	0.326488
C722	C	0.547853	0.301656	-0.474104
C723	C	0.580603	0.333608	-0.507566
C724	C	0.562880	0.335111	-0.527102
H725	H	0.524003	0.303614	-0.458206
H726	H	0.537473	0.279044	-0.480561
H727	H	0.590977	0.356215	-0.501108
H728	H	0.604455	0.331657	-0.523473
H729	H	0.552499	0.312498	-0.533560
H730	H	0.539030	0.337068	-0.511202
H731	H	0.585098	0.356788	-0.549810
C732	C	0.263073	-0.191868	-0.355727
C733	C	0.261604	-0.225311	-0.354959
C734	C	0.243750	-0.244706	-0.317713
H735	H	0.234010	-0.198341	-0.338817
H736	H	0.281029	-0.175866	-0.347896
H737	H	0.243649	-0.241310	-0.362785
H738	H	0.290662	-0.218849	-0.371861
H739	H	0.261706	-0.228704	-0.309882
H740	H	0.214689	-0.251176	-0.300806
H741	H	0.242755	-0.267397	-0.317187
H742	H	-0.182272	0.268459	0.398770
H743	H	0.552391	0.301235	-0.365822
H744	H	0.437707	0.310988	-0.411425
C745	C	0.215843	0.268845	0.392714
C746	C	0.227053	0.266956	0.356255
C747	C	0.265793	0.268422	0.336715
H748	H	0.211193	0.247840	0.406578
H749	H	0.239170	0.292130	0.390321
H750	H	0.203731	0.243674	0.358650
H751	H	0.231711	0.287959	0.342381
H752	H	0.289120	0.291707	0.334322
H753	H	0.261140	0.247417	0.350582
H754	H	0.273407	0.267144	0.311974
H755	H	-0.562326	-0.306401	0.308670
C756	C	0.263044	0.301684	-0.356243
C757	C	0.261546	0.333643	-0.355543
C758	C	0.243514	0.335158	-0.318287
H759	H	0.280895	0.303641	-0.348286
H760	H	0.233971	0.279076	-0.339402
H761	H	0.290615	0.356245	-0.372378
H762	H	0.243693	0.331693	-0.363492
H763	H	0.214441	0.312551	-0.301446
H764	H	0.261367	0.337114	-0.310333
H765	H	0.242492	0.356840	-0.317806
C766	C	0.219861	0.295627	-0.108658
C767	C	0.205582	0.292795	-0.070690
C768	C	0.166864	0.291366	-0.051237
H769	H	0.197548	0.273959	-0.109055
H770	H	0.225602	0.318252	-0.120820
H771	H	0.199839	0.270173	-0.058531
H772	H	0.227884	0.314460	-0.070282
H773	H	0.172605	0.313991	-0.063399
H774	H	0.144554	0.269698	-0.051636
H775	H	0.157173	0.289448	-0.025474
C776	C	0.097164	-0.324801	0.511642
C777	C	0.058823	-0.361261	0.524735
C778	C	0.040752	-0.380805	0.562005
H779	H	0.090018	-0.310942	0.528004
H780	H	0.118060	-0.327191	0.511680
H781	H	0.037931	-0.358870	0.524700
H782	H	0.065957	-0.375130	0.508385
H783	H	0.061648	-0.383195	0.562043
H784	H	0.033609	-0.366943	0.578363
H785	H	0.014738	-0.405547	0.570892
C786	C	0.215577	-0.206406	0.393622
C787	C	0.229869	-0.194973	0.417305
C788	C	0.268618	-0.157705	0.398025
H789	H	0.209883	-0.189491	0.387188
H790	H	0.237866	-0.205798	0.370915
H791	H	0.207585	-0.195578	0.440005
H792	H	0.235573	-0.211878	0.423740
H793	H	0.290906	-0.157097	0.375318
H794	H	0.262920	-0.140794	0.391592
H795	H	0.278322	-0.149945	0.414090
C796	C	0.442999	-0.296102	-0.029036
C797	C	0.480249	-0.283539	-0.029213
C798	C	0.499569	-0.245576	-0.029750
H799	H	0.422264	-0.294600	-0.006960
H800	H	0.451579	-0.280370	-0.051363
H801	H	0.471668	-0.299267	-0.006888
H802	H	0.500994	-0.285031	-0.051288
H803	H	0.508149	-0.229845	-0.052077
H804	H	0.478830	-0.244079	-0.007673
H805	H	0.524847	-0.237047	-0.029873
C806	C	-0.377952	-0.206104	0.108953
C807	C	-0.401300	-0.192999	0.134208
C808	C	-0.383527	-0.155707	0.115024
H809	H	-0.380277	-0.206019	0.088011
H810	H	-0.347731	-0.189778	0.099756
H811	H	-0.431513	-0.209321	0.143399
H812	H	-0.398976	-0.193075	0.155151
H813	H	-0.353306	-0.139381	0.105827
H814	H	-0.385853	-0.155626	0.094082
H815	H	-0.399363	-0.146809	0.132157
H816	H	-0.182060	-0.603623	0.501016
H817	H	0.064321	0.097912	-0.365848
H818	H	-0.002525	-0.129181	0.028805
H819	H	0.370598	-0.083850	-0.184076
H820	H	0.167470	-0.248829	0.366274
C821	C	0.097141	-0.324781	0.108978
C822	C	0.058782	-0.361232	0.134232
C823	C	0.040674	-0.380753	0.115048
H824	H	0.117999	-0.327193	0.088035
H825	H	0.090011	-0.310888	0.099780
H826	H	0.065913	-0.375122	0.143424
H827	H	0.037914	-0.358831	0.155175
H828	H	0.033545	-0.366860	0.105851
H829	H	0.061535	-0.383162	0.094106
H830	H	0.014644	-0.405486	0.132181
H831	H	0.205059	-0.216514	0.113907
C832	C	0.172302	0.262667	0.189541
C833	C	0.141335	0.228330	0.220385
C834	C	0.159145	0.226789	0.239820
H835	H	0.179354	0.283653	0.198790
H836	H	0.198338	0.263921	0.172551
H837	H	0.115307	0.227080	0.237373
H838	H	0.134280	0.207339	0.211146
H839	H	0.185181	0.228042	0.222830
H840	H	0.166196	0.247776	0.249067
H841	H	0.138138	0.203490	0.260748
C842	C	-0.007804	-0.139504	-0.303637
C843	C	-0.045056	-0.152064	-0.266564
C844	C	-0.064384	-0.190030	-0.247783
H845	H	0.012927	-0.141010	-0.302293
H846	H	-0.016382	-0.155232	-0.317387
H847	H	-0.036477	-0.136340	-0.252817
H848	H	-0.065796	-0.150567	-0.267896
H849	H	-0.072963	-0.205759	-0.261534
H850	H	-0.043651	-0.191533	-0.246442
H851	H	-0.089664	-0.198558	-0.222629
C852	C	0.053963	-0.361850	0.189567
C853	C	0.019751	-0.361721	0.220409
C854	C	-0.019040	-0.398964	0.239849
H855	H	0.058645	-0.378151	0.198820
H856	H	0.046169	-0.370900	0.172579
H857	H	0.027543	-0.352676	0.237394
H858	H	0.015054	-0.345428	0.211167
H859	H	-0.026834	-0.408014	0.222861
H860	H	-0.014353	-0.415261	0.249099
H861	H	-0.042258	-0.398881	0.260775
H862	H	-0.447603	-0.248768	0.184232
C863	C	0.172146	0.092867	-0.473993
C864	C	0.182560	0.079329	-0.453406
C865	C	0.200562	0.060025	-0.472789
H866	H	0.198196	0.109909	-0.498743
H867	H	0.151238	0.071905	-0.476349
H868	H	0.203467	0.100288	-0.451055
H869	H	0.156518	0.062282	-0.428657
H870	H	0.179654	0.039064	-0.475145
H871	H	0.226610	0.077070	-0.497538
H872	H	0.207627	0.050835	-0.458822
H873	H	-0.002510	0.253416	0.308669
H874	H	-0.116983	-0.533275	0.365765
H875	H	-0.002512	0.253428	0.411332
H876	H	0.370892	-0.533512	-0.019136
C877	C	0.215816	0.268762	0.108958
C878	C	0.227011	0.266858	0.134214
C879	C	0.265717	0.268270	0.115032
H880	H	0.239170	0.292029	0.088015
H881	H	0.211120	0.247737	0.099762
H882	H	0.231710	0.287881	0.143404
H883	H	0.203668	0.243592	0.155158
H884	H	0.261021	0.247245	0.105836
H885	H	0.289068	0.291537	0.094089
H886	H	0.273316	0.266975	0.132166
H887	H	0.230365	-0.603862	-0.013858
C888	C	0.262974	-0.528580	-0.019487
C889	C	0.224617	-0.553834	-0.017582
C890	C	0.206509	-0.534649	-0.018996
H891	H	0.283832	-0.507638	-0.042756
H892	H	0.255843	-0.519382	0.001537
H893	H	0.231749	-0.563025	-0.038604
H894	H	0.203748	-0.574776	0.005685
H895	H	0.199378	-0.525452	0.002028
H896	H	0.227371	-0.513708	-0.042264
H897	H	0.180480	-0.551782	-0.017700
C898	C	0.262990	-0.361618	-0.019513
C899	C	0.224646	-0.374713	-0.017629
C900	C	0.206573	-0.411985	-0.019097
H901	H	0.255846	-0.377975	0.001492
H902	H	0.283884	-0.361661	-0.042798
H903	H	0.203757	-0.374673	0.005654
H904	H	0.231778	-0.358367	-0.038632
H905	H	0.227466	-0.412028	-0.042382
H906	H	0.199432	-0.428339	0.001909
H907	H	0.180557	-0.420874	-0.017822
H908	H	-0.382532	-0.318952	0.113884
C909	C	0.219846	-0.324146	-0.013462
C910	C	0.205565	-0.300457	-0.010624
C911	C	0.166848	-0.319720	-0.009193
H912	H	0.197533	-0.346857	0.008204
H913	H	0.225587	-0.330565	-0.036089
H914	H	0.199822	-0.294044	0.012001
H915	H	0.227867	-0.277746	-0.032287
H916	H	0.172589	-0.326139	-0.031820
H917	H	0.144538	-0.342431	0.012473
H918	H	0.157156	-0.303649	-0.007271
C919	C	-0.007672	-0.021394	-0.303767
C920	C	0.016842	0.015679	-0.328457
C921	C	-0.002341	0.034461	-0.309816
H922	H	-0.007835	-0.020052	-0.281530
H923	H	-0.037151	-0.035142	-0.296617
H924	H	0.046313	0.029423	-0.335601
H925	H	0.017007	0.014348	-0.350694
H926	H	-0.031820	0.020714	-0.302666
H927	H	-0.002504	0.035801	-0.287579
H928	H	0.014286	0.059616	-0.326566
H929	H	0.064808	0.098152	0.019035
C930	C	0.096960	0.173200	-0.392817
C931	C	0.058617	0.147953	-0.356356
C932	C	0.040543	0.167153	-0.336815
H933	H	0.089817	0.182413	-0.406678
H934	H	0.117854	0.194135	-0.390426
H935	H	0.037727	0.127025	-0.358749
H936	H	0.065748	0.138738	-0.342485
H937	H	0.061437	0.188088	-0.334424
H938	H	0.033403	0.176366	-0.350680
H939	H	0.014528	0.150027	-0.312073
C940	C	0.215380	0.173585	-0.511208
C941	C	0.229675	0.211560	-0.522642
C942	C	0.268427	0.231028	-0.559909
H943	H	0.209690	0.161456	-0.528125
H944	H	0.237666	0.173166	-0.511813
H945	H	0.207394	0.211977	-0.522040
H946	H	0.235374	0.223699	-0.505735
H947	H	0.290713	0.230608	-0.560513
H948	H	0.262733	0.218896	-0.576823
H949	H	0.278133	0.256797	-0.567670
H950	H	-0.002298	-0.408829	0.411365
C951	C	0.172450	-0.073496	-0.474380
C952	C	0.210815	-0.060274	-0.510868
C953	C	0.228765	-0.023004	-0.530292
H954	H	0.179544	-0.057185	-0.460467
H955	H	0.151508	-0.073497	-0.476722
H956	H	0.231753	-0.060270	-0.508525
H957	H	0.203734	-0.076575	-0.524791
H958	H	0.207823	-0.023005	-0.532634
H959	H	0.235856	-0.006695	-0.516376
H960	H	0.254795	-0.014029	-0.555052
C961	C	-0.618601	-0.243442	0.355628
C962	C	-0.607250	-0.206954	0.342403
C963	C	-0.568505	-0.187533	0.305132
H964	H	-0.623296	-0.257355	0.339318
H965	H	-0.595318	-0.241101	0.355630
H966	H	-0.630527	-0.209296	0.342399
H967	H	-0.602546	-0.193030	0.358703
H968	H	-0.545222	-0.185192	0.305133
H969	H	-0.573204	-0.201450	0.288824
H970	H	-0.560796	-0.162773	0.296155
H971	H	-0.732075	-0.351477	0.468678
C972	C	-0.007706	-0.021388	0.028977
C973	C	0.016800	0.015683	0.029161
C974	C	-0.002405	0.034454	0.029736
H975	H	-0.037177	-0.035135	0.051308
H976	H	-0.007880	-0.020049	0.006905
H977	H	0.016969	0.014343	0.051232
H978	H	0.046271	0.029440	0.006832
H979	H	-0.002578	0.035792	0.007663
H980	H	-0.031875	0.020704	0.052067
H981	H	0.014223	0.059609	0.029857
H982	H	-0.770155	-0.603608	0.501511
C983	C	-0.780186	-0.324128	0.511100
C984	C	-0.794480	-0.300446	0.522531
C985	C	-0.833234	-0.319727	0.559797
H986	H	-0.774498	-0.330565	0.528019
H987	H	-0.802471	-0.346833	0.511704
H988	H	-0.772200	-0.277748	0.521931
H989	H	-0.800177	-0.294007	0.505622
H990	H	-0.855519	-0.342432	0.560400
H991	H	-0.827543	-0.326163	0.576713
H992	H	-0.842940	-0.303663	0.567556
H993	H	0.437704	0.310998	-0.308766
