data_functionalizedCrystal
_audit_creation_method	'MofGen! by Chris Wilmer'
_symmetry_space_group_name_H-M	'P1'
_symmetry_Int_Tables_number	1
_symmetry_cell_setting	triclinic
loop_
_symmetry_equiv_pos_as_xyz
  x,y,z
_cell_length_a	16.959447
_cell_length_b	12.759395
_cell_length_c	12.759394
_cell_angle_alpha	89.983626
_cell_angle_beta	89.975249
_cell_angle_gamma	90.016230
loop_
_atom_site_label
_atom_site_type_symbol
_atom_site_fract_x
_atom_site_fract_y
_atom_site_fract_z
Zn1	Zn	-0.446893	-1.606223	-0.418240
Zn2	Zn	-0.314719	-1.606127	-0.593935
Zn3	Zn	-0.314734	-1.430535	-0.418276
Zn4	Zn	-0.446861	-1.430513	-0.593882
O5	O	-0.380802	-1.518349	-0.506083
O6	O	-0.429368	-1.753232	-0.441553
O7	O	-0.204110	-1.582802	-0.570671
O8	O	-0.332284	-1.453889	-0.271250
O9	O	-0.332260	-1.753161	-0.570636
O10	O	-0.429381	-1.582967	-0.271223
O11	O	-0.204121	-1.453796	-0.441615
O12	O	-0.332253	-1.283511	-0.441563
O13	O	-0.557476	-1.453853	-0.570545
O14	O	-0.429326	-1.283495	-0.570580
O15	O	-0.557500	-1.582947	-0.441501
O16	O	-0.332228	-1.582782	-0.740949
O17	O	-0.429312	-1.453760	-0.740910
C18	C	-0.380788	-1.245382	-0.506070
C19	C	-0.380801	-1.128605	-0.506090
C20	C	-0.380783	-1.518286	-0.779051
C21	C	-0.380801	-1.518356	-0.895827
C22	C	-0.586970	-1.518408	-0.506013
C23	C	-0.674827	-1.518433	-0.505983
C24	C	-0.716090	-1.451234	-0.573158
C25	C	-0.716117	-1.585651	-0.438775
C26	C	-0.798663	-1.585673	-0.438740
C27	C	-0.839926	-1.518473	-0.505914
C28	C	-0.798643	-1.451251	-0.573123
C29	C	-0.839952	-1.652886	-0.371525
C30	C	-0.922503	-1.652909	-0.371487
C31	C	-0.963768	-1.585714	-0.438668
C32	C	-0.922480	-1.518490	-0.505880
C33	C	-0.963743	-1.451291	-0.573054
C34	C	-0.922456	-1.384071	-0.640272
C35	C	-0.839908	-1.384056	-0.640303
C36	C	-1.046316	-1.585730	-0.438637
C37	C	-1.046296	-1.451308	-0.573019
C38	C	-0.175435	-1.518351	-0.506077
C39	C	-0.087579	-1.518530	-0.505811
C40	C	-0.380816	-1.792383	-0.506097
C41	C	-0.380822	-1.909160	-0.506103
C42	C	-0.481720	-1.128628	-0.640653
C43	C	-0.532182	-1.073778	-0.707943
C44	C	-0.532191	-0.964056	-0.707955
C45	C	-0.481735	-0.909182	-0.640669
C46	C	-0.431274	-0.964032	-0.573379
C47	C	-0.431268	-1.073756	-0.573376
C48	C	-0.330360	-0.964009	-0.438813
C49	C	-0.330345	-1.073731	-0.438804
C50	C	-0.279904	-0.909135	-0.371527
C51	C	-0.229437	-0.963984	-0.304241
C52	C	-0.229429	-1.073713	-0.304231
C53	C	-0.279883	-1.128580	-0.371514
C54	C	-0.279783	-1.652807	-0.895815
C55	C	-0.229284	-1.720061	-0.950670
C56	C	-0.229305	-1.720122	-1.060391
C57	C	-0.279833	-1.652925	-1.115261
C58	C	-0.330333	-1.585672	-1.060406
C59	C	-0.330304	-1.585616	-0.950682
C60	C	-0.431353	-1.451227	-1.060418
C61	C	-0.431329	-1.451159	-0.950697
C62	C	-0.481881	-1.384031	-1.115288
C63	C	-0.532378	-1.316771	-1.060433
C64	C	-0.532354	-1.316711	-0.950705
C65	C	-0.481828	-1.383906	-0.895842
C66	C	-0.380838	-1.518441	-0.232050
C67	C	-0.380854	-1.518481	-0.115273
H68	H	-1.079887	-1.396589	-0.627725
N69	N	-0.279909	-0.790793	-0.371544
H70	H	-0.225657	-0.764344	-0.390754
H71	H	-0.294572	-0.764465	-0.299487
N72	N	-0.481797	-1.383846	-0.777501
H73	H	-0.536025	-1.403111	-0.751000
H74	H	-0.467186	-1.311755	-0.751227
H75	H	-1.079928	-1.640450	-0.383901
N76	N	-0.481704	-1.246969	-0.640642
H77	H	-0.427450	-1.273360	-0.659850
H78	H	-0.521355	-1.273326	-0.693468
H79	H	-0.806349	-1.707592	-0.316832
H80	H	-0.573480	-1.261949	-0.906048
H81	H	-0.956064	-1.329351	-0.694959
N82	N	-0.175013	-0.904802	-0.231688
H83	H	-0.182675	-0.826972	-0.241908
H84	H	-0.118541	-0.923951	-0.247956
H85	H	-0.279879	-1.217922	-0.371516
N86	N	-0.967030	-1.725395	-0.298983
H87	H	-0.928363	-1.767957	-0.256430
H88	H	-1.001283	-1.774017	-0.341725
H89	H	-0.573263	-1.118469	-0.762724
N90	N	-0.586619	-0.904890	-0.780525
H91	H	-0.618582	-0.956296	-0.823147
H92	H	-0.554377	-0.859340	-0.829087
H93	H	-0.481755	-0.819841	-0.640676
H94	H	-0.806285	-1.329329	-0.695028
H95	H	-0.188343	-1.118365	-0.249428
N96	N	-0.671567	-1.378740	-0.645660
H97	H	-0.613011	-1.388924	-0.635496
H98	H	-0.685989	-1.303713	-0.629303
H99	H	-0.279750	-1.652750	-0.806474
N100	N	-0.174792	-1.792541	-0.891491
H101	H	-0.182438	-1.782300	-0.813659
H102	H	-0.118334	-1.776238	-0.910738
N103	N	-0.481900	-1.384097	-1.233630
H104	H	-0.467336	-1.312046	-1.260128
H105	H	-0.536151	-1.403434	-1.259912
H106	H	-0.279853	-1.652991	-1.204602
N107	N	-0.671617	-1.658156	-0.366354
H108	H	-0.613058	-1.647954	-0.376584
H109	H	-0.686063	-1.733176	-0.382738
N110	N	-0.174845	-1.792663	-1.119564
H111	H	-0.142834	-1.835225	-1.068160
H112	H	-0.138251	-1.749944	-1.165158
N113	N	-0.586874	-1.244306	-1.119610
H114	H	-0.579229	-1.254556	-1.197441
H115	H	-0.574521	-1.169269	-1.100514
