data_functionalizedCrystal
_audit_creation_method	'MofGen! by Chris Wilmer'
_symmetry_space_group_name_H-M	'P1'
_symmetry_Int_Tables_number	1
_symmetry_cell_setting	triclinic
loop_
_symmetry_equiv_pos_as_xyz
  x,y,z
_cell_length_a	14.908783
_cell_length_b	16.120444
_cell_length_c	16.120297
_cell_angle_alpha	95.615117
_cell_angle_beta	89.410993
_cell_angle_gamma	96.376156
loop_
_atom_site_label
_atom_site_type_symbol
_atom_site_fract_x
_atom_site_fract_y
_atom_site_fract_z
Zn1	Zn	1.332777	-0.289213	-0.557211
Zn2	Zn	1.832777	0.210787	-0.057211
Zn3	Zn	1.332661	-0.421910	-0.424517
Zn4	Zn	1.832661	0.078090	0.075483
Zn5	Zn	1.189966	-0.289386	-0.410197
Zn6	Zn	1.689966	0.210614	0.089803
Zn7	Zn	1.173810	-0.437000	-0.556164
Zn8	Zn	1.673810	0.063000	-0.056164
O9	O	1.257303	-0.359377	-0.487022
O10	O	1.757303	0.140623	0.012978
O11	O	1.459008	-0.300428	-0.546039
O12	O	1.959008	0.199572	-0.046039
O13	O	1.320444	-0.398087	-0.305997
O14	O	1.820444	0.101913	0.194003
O15	O	1.215720	-0.172052	-0.424143
O16	O	1.715720	0.327948	0.075857
O17	O	1.458923	-0.397919	-0.448550
O18	O	1.958923	0.102081	0.051450
O19	O	1.320643	-0.171925	-0.532154
O20	O	1.820643	0.328075	-0.032154
O21	O	1.215607	-0.300722	-0.295476
O22	O	1.715607	0.199278	0.204524
O23	O	1.061576	-0.315355	-0.423129
O24	O	1.561576	0.184645	0.076871
O25	O	1.188184	-0.423639	-0.672924
O26	O	1.688184	0.076361	-0.172924
O27	O	1.049706	-0.423807	-0.530370
O28	O	1.549706	0.076193	-0.030370
O29	O	1.304977	-0.315061	-0.673692
O30	O	1.804977	0.184939	-0.173692
O31	O	1.304779	-0.541222	-0.447535
O32	O	1.804779	-0.041222	0.052465
O33	O	1.188071	-0.552309	-0.544256
O34	O	1.688071	-0.052309	-0.044256
C35	C	1.022906	-0.371238	-0.475083
C36	C	1.522906	0.128762	0.024917
C37	C	0.922628	-0.376333	-0.469995
C38	C	1.422628	0.123667	0.030005
C39	C	0.734264	-0.284545	-0.562122
C40	C	1.234264	0.215455	-0.062122
C41	C	0.640043	-0.289330	-0.557345
C42	C	1.140043	0.210670	-0.057345
C43	C	0.639966	-0.390682	-0.455660
C44	C	1.139966	0.109318	0.044340
C45	C	0.734186	-0.385897	-0.460437
C46	C	1.234186	0.114103	0.039563
C47	C	0.781332	-0.332828	-0.513671
C48	C	1.281332	0.167172	-0.013671
C49	C	0.875553	-0.328049	-0.518452
C50	C	1.375553	0.171951	-0.018452
C51	C	0.875474	-0.429396	-0.416763
C52	C	1.375474	0.070604	0.083237
C53	C	0.781254	-0.434180	-0.411986
C54	C	1.281254	0.065820	0.088014
C55	C	1.244683	-0.577183	-0.497355
C56	C	1.744683	-0.077183	0.002645
C57	C	1.239364	-0.670358	-0.501808
C58	C	1.739364	-0.170358	-0.001808
C59	C	1.285102	-0.876951	-0.464114
C60	C	1.785102	-0.376951	0.035886
C61	C	1.229671	-0.840945	-0.509947
C62	C	1.729671	-0.340945	-0.009947
C63	C	1.235066	-0.746022	-0.505417
C64	C	1.735066	-0.246022	-0.005417
C65	C	1.279708	-0.971882	-0.468643
C66	C	1.779708	-0.471882	0.031357
C67	C	1.492615	-0.347471	-0.499009
C68	C	1.992615	0.152529	0.000991
C69	C	1.592891	-0.342397	-0.504117
C70	C	2.092891	0.157603	-0.004117
C71	C	1.244791	-0.371014	-0.704392
C72	C	1.744791	0.128986	-0.204392
C73	C	1.239460	-0.375973	-0.797022
C74	C	1.739460	0.124027	-0.297022
C75	C	1.269996	-0.140721	-0.476668
C76	C	1.769996	0.359279	0.023332
C77	C	1.275406	-0.047543	-0.472255
C78	C	1.775406	0.452457	0.027745
C79	C	1.229693	-0.385010	-0.966616
C80	C	1.729693	0.114990	-0.466616
C81	C	1.285105	-0.333485	-1.008277
C82	C	1.785105	0.166515	-0.508277
C83	C	1.279671	-0.338513	-1.102645
C84	C	1.779671	0.161487	-0.602645
C85	C	1.235126	-0.379983	-0.872240
C86	C	1.735126	0.120017	-0.372240
C87	C	1.269822	-0.347723	-0.270498
C88	C	1.769822	0.152277	0.229502
C89	C	1.275342	-0.342519	-0.177866
C90	C	1.775342	0.157481	0.322134
H91	H	0.913806	-0.468718	-0.377318
H92	H	1.413806	0.031282	0.122682
H93	H	1.178177	-0.432895	-1.001819
H94	H	1.678177	0.067105	-0.501819
Cl95	Cl	1.364619	-0.814481	-0.398280
Cl96	Cl	1.864619	-0.314481	0.101720
Cl97	Cl	0.934821	-0.261336	-0.585375
Cl98	Cl	1.434821	0.238664	-0.085375
Cl99	Cl	1.364670	-0.259566	-0.953929
Cl100	Cl	1.864670	0.240434	-0.453929
H101	H	0.601725	-0.250011	-0.596797
H102	H	1.101725	0.249989	-0.096797
Cl103	Cl	0.793535	-0.217840	-0.629050
Cl104	Cl	1.293535	0.282160	-0.129050
H105	H	0.601565	-0.433878	-0.412310
H106	H	1.101565	0.066122	0.087690
Cl107	Cl	0.721977	-0.500889	-0.345066
Cl108	Cl	1.221977	-0.000889	0.154934
H109	H	1.178163	-0.881409	-0.552589
H110	H	1.678163	-0.381409	-0.052589
