data_functionalizedCrystal
_audit_creation_method	'MofGen! by Chris Wilmer'
_symmetry_space_group_name_H-M	'P1'
_symmetry_Int_Tables_number	1
_symmetry_cell_setting	triclinic
loop_
_symmetry_equiv_pos_as_xyz
  x,y,z
_cell_length_a	14.519709
_cell_length_b	15.995292
_cell_length_c	13.596369
_cell_angle_alpha	89.997204
_cell_angle_beta	90.000291
_cell_angle_gamma	83.574380
loop_
_atom_site_label
_atom_site_type_symbol
_atom_site_fract_x
_atom_site_fract_y
_atom_site_fract_z
O1	O	1.223644	0.109763	-0.081656
O2	O	1.723644	0.609763	0.418344
O3	O	0.955141	0.122689	-0.081685
O4	O	1.455141	0.622689	0.418315
O5	O	1.096760	-0.005654	-0.081671
O6	O	1.596760	0.494346	0.418329
O7	O	1.082025	0.238106	-0.081670
O8	O	1.582025	0.738106	0.418330
O9	O	1.096746	-0.005661	0.081911
O10	O	1.596746	0.494339	0.581911
O11	O	0.955126	0.122682	0.081898
O12	O	1.455126	0.622682	0.581898
O13	O	1.223630	0.109756	0.081927
O14	O	1.723630	0.609756	0.581927
Zn15	Zn	1.089376	0.116218	0.107884
Zn16	Zn	1.589376	0.616218	0.607884
Zn17	Zn	1.089394	0.116227	-0.107643
Zn18	Zn	1.589394	0.616227	0.392357
O19	O	1.082010	0.238099	0.081913
O20	O	1.582010	0.738099	0.581913
C21	C	0.920775	0.122083	0.000102
C22	C	1.420775	0.622083	0.500102
C23	C	0.818397	0.120278	0.000091
C24	C	1.318397	0.620278	0.500091
C25	C	0.443515	0.113632	0.000135
C26	C	0.943515	0.613632	0.500135
C27	C	0.547819	0.115478	0.000123
C28	C	1.047819	0.615478	0.500123
C29	C	0.630953	0.116955	0.000112
C30	C	1.130953	0.616955	0.500112
C31	C	0.735264	0.118801	0.000101
C32	C	1.235264	0.618801	0.500101
C33	C	1.096153	-0.036854	0.000117
C34	C	1.596153	0.463146	0.500117
C35	C	1.094355	-0.129810	0.000110
C36	C	1.594355	0.370190	0.500110
C37	C	1.087745	-0.467558	0.000118
C38	C	1.587745	0.032442	0.500118
C39	C	1.189962	-0.444093	0.000495
C40	C	1.689962	0.055907	0.500495
C41	C	1.191905	-0.347414	0.000123
C42	C	1.691905	0.152586	0.500123
C43	C	1.091025	-0.299997	0.000115
C44	C	1.591025	0.200003	0.500115
C45	C	1.039929	-0.329171	-0.093302
C46	C	1.539929	0.170829	0.406698
C47	C	1.038699	-0.425963	-0.093377
C48	C	1.538699	0.074037	0.406623
C49	C	1.036596	-0.425831	0.092648
C50	C	1.536596	0.074169	0.592648
C51	C	1.040383	-0.329333	0.093879
C52	C	1.540383	0.170667	0.593879
C53	C	1.092873	-0.205298	0.000109
C54	C	1.592873	0.294702	0.500109
C55	C	1.085894	-0.562257	0.000117
C56	C	1.585894	-0.062257	0.500117
C57	C	1.257995	0.110362	0.000137
C58	C	1.757995	0.610362	0.500137
C59	C	1.360373	0.112167	0.000142
C60	C	1.860373	0.612167	0.500142
C61	C	1.082617	0.269299	0.000122
C62	C	1.582617	0.769299	0.500122
C63	C	1.084415	0.362254	0.000123
C64	C	1.584415	0.862254	0.500123
N65	N	1.089370	0.116211	0.254976
N66	N	1.589370	0.616211	0.754976
N67	N	1.089408	0.116227	-0.254735
N68	N	1.589408	0.616227	0.245265
C69	C	1.089393	0.116228	0.656267
C70	C	1.589393	0.616228	1.156267
C71	C	1.089384	0.116226	0.544616
C72	C	1.589384	0.616226	1.044616
C73	C	1.089382	0.116220	0.455625
C74	C	1.589382	0.616220	0.955625
C75	C	1.089372	0.116217	0.343967
C76	C	1.589372	0.616217	0.843967
H77	H	1.231922	-0.328332	0.067086
H78	H	1.731922	0.171668	0.567086
C79	C	1.246297	-0.322461	-0.090494
C80	C	1.746297	0.177539	0.409506
N81	N	1.287265	-0.303667	-0.158752
N82	N	1.787265	0.196333	0.341248
H83	H	1.229356	-0.472034	0.067488
H84	H	1.729356	0.027966	0.567488
C85	C	1.242903	-0.483207	-0.089493
C86	C	1.742903	0.016793	0.410507
N87	N	1.282775	-0.512670	-0.157273
N88	N	1.782775	-0.012670	0.342727
H89	H	1.074097	-0.452724	-0.163201
H90	H	1.574097	0.047276	0.336799
C91	C	0.937453	-0.445774	-0.099131
C92	C	1.437453	0.054226	0.400869
N93	N	0.861197	-0.460692	-0.103475
N94	N	1.361197	0.039308	0.396525
H95	H	0.965695	-0.297414	-0.096781
H96	H	1.465695	0.202586	0.403219
H97	H	1.075423	-0.309054	-0.162816
H98	H	1.575423	0.190946	0.337184
H99	H	0.961356	-0.439934	0.093271
H100	H	1.461356	0.060066	0.593271
H101	H	1.068780	-0.453874	0.163456
H102	H	1.568780	0.046126	0.663456
C103	C	1.090624	-0.304152	0.187245
C104	C	1.590624	0.195848	0.687245
N105	N	1.128460	-0.285171	0.257567
N106	N	1.628460	0.214829	0.757567
H107	H	0.966751	-0.296474	0.099514
H108	H	1.466751	0.203526	0.599514
