data_functionalizedCrystal
_audit_creation_method	'MofGen! by Chris Wilmer'
_symmetry_space_group_name_H-M	'P1'
_symmetry_Int_Tables_number	1
_symmetry_cell_setting	triclinic
loop_
_symmetry_equiv_pos_as_xyz
  x,y,z
_cell_length_a	12.759401
_cell_length_b	16.959454
_cell_length_c	12.759393
_cell_angle_alpha	89.970403
_cell_angle_beta	89.981708
_cell_angle_gamma	90.020236
loop_
_atom_site_label
_atom_site_type_symbol
_atom_site_fract_x
_atom_site_fract_y
_atom_site_fract_z
Zn1	Zn	1.606214	-0.314640	-0.593988
Zn2	Zn	1.606093	-0.446839	-0.418310
Zn3	Zn	1.430517	-0.314679	-0.418327
Zn4	Zn	1.430488	-0.446781	-0.593952
O5	O	1.518328	-0.380735	-0.506144
O6	O	1.753219	-0.332185	-0.570692
O7	O	1.582763	-0.429349	-0.271291
O8	O	1.453886	-0.204063	-0.441651
O9	O	1.753130	-0.429311	-0.441622
O10	O	1.582970	-0.204035	-0.570708
O11	O	1.453768	-0.332251	-0.271304
O12	O	1.283492	-0.332195	-0.441616
O13	O	1.453838	-0.429212	-0.740978
O14	O	1.283471	-0.429249	-0.570647
O15	O	1.582943	-0.332128	-0.741004
O16	O	1.582735	-0.557442	-0.441588
O17	O	1.453720	-0.557400	-0.570631
C18	C	1.245360	-0.380720	-0.506130
C19	C	1.128584	-0.380733	-0.506149
C20	C	1.073738	-0.431350	-0.573224
C21	C	0.964014	-0.431360	-0.573235
C22	C	0.963991	-0.330134	-0.439087
C23	C	1.073713	-0.330120	-0.439082
C24	C	1.128609	-0.481963	-0.640291
C25	C	1.073764	-0.532585	-0.707370
C26	C	0.964040	-0.532595	-0.707382
C27	C	0.909161	-0.481983	-0.640313
C28	C	1.518240	-0.586101	-0.506126
C29	C	1.518298	-0.673958	-0.506154
C30	C	1.451247	-1.045441	-0.573330
C31	C	1.585701	-1.045426	-0.439066
C32	C	1.585665	-0.962880	-0.439056
C33	C	1.518417	-0.921611	-0.506183
C34	C	1.451206	-0.962887	-0.573320
C35	C	1.652867	-0.921597	-0.371913
C36	C	1.652832	-0.839046	-0.371900
C37	C	1.585589	-0.797775	-0.439033
C38	C	1.518376	-0.839057	-0.506173
C39	C	1.451128	-0.797788	-0.573300
C40	C	1.383920	-0.839068	-0.640447
C41	C	1.383962	-0.921617	-0.640453
C42	C	1.585546	-0.715227	-0.439027
C43	C	1.451087	-0.715235	-0.573291
C44	C	1.792361	-0.380750	-0.506159
C45	C	1.909138	-0.380757	-0.506165
C46	C	1.518400	-0.380659	-0.780178
C47	C	1.518431	-0.380627	-0.896954
C48	C	1.518445	-0.174567	-0.506185
C49	C	1.518495	-0.086710	-0.506203
C50	C	1.585602	-0.431166	-0.951807
C51	C	1.585634	-0.431133	-1.061532
C52	C	1.451315	-0.330018	-1.061540
C53	C	1.451289	-0.330048	-0.951818
C54	C	1.652744	-0.481745	-0.896944
C55	C	1.719920	-0.532289	-0.951797
C56	C	1.719952	-0.532256	-1.061521
C57	C	1.652808	-0.481678	-1.116392
C58	C	1.518316	-0.380753	-0.233177
C59	C	1.518489	-0.380563	-0.116401
H60	H	0.919388	-0.573809	-0.762009
H61	H	1.396530	-1.079055	-0.628001
H62	H	1.640445	-1.079032	-0.384408
O63	O	1.385860	-0.675026	-0.638466
C64	C	1.326155	-0.547862	-0.697909
C65	C	1.400094	-0.593298	-0.624063
H66	H	1.337621	-0.481777	-0.686274
H67	H	1.344571	-0.563982	-0.782666
H68	H	1.241469	-0.564198	-0.679402
H69	H	1.484804	-0.576986	-0.642475
H70	H	1.381587	-0.577174	-0.539327
O71	O	1.126954	-0.281043	-0.373769
C72	C	1.160440	-0.242490	-0.195144
C73	C	1.100095	-0.298131	-0.268989
H74	H	1.138730	-0.256274	-0.110416
H75	H	1.248297	-0.251181	-0.206576
H76	H	1.138911	-0.178775	-0.213787
H77	H	1.121536	-0.361867	-0.250392
H78	H	1.012252	-0.289371	-0.257544
O79	O	1.126905	-0.581770	-0.772619
C80	C	1.115346	-0.682204	-0.905637
C81	C	1.055037	-0.626530	-0.831810
H82	H	1.057268	-0.718419	-0.953496
H83	H	1.166720	-0.645997	-0.960721
H84	H	1.166712	-0.723452	-0.857286
H85	H	1.003615	-0.585271	-0.880076
H86	H	1.003730	-0.662786	-0.776723
O87	O	0.910730	-0.280866	-0.374047
C88	C	0.877206	-0.146377	-0.323304
C89	C	0.937570	-0.202078	-0.397048
H90	H	0.898900	-0.082666	-0.341859
H91	H	0.789351	-0.155017	-0.334834
H92	H	0.898732	-0.160222	-0.238562
H93	H	0.916131	-0.188268	-0.481818
H94	H	1.025409	-0.193428	-0.385428
O95	O	1.718071	-0.799038	-0.306538
C96	C	1.769126	-0.773797	-0.127867
C97	C	1.695191	-0.819169	-0.201767
H98	H	1.750640	-0.790043	-0.043144
H99	H	1.853855	-0.789994	-0.146310
H100	H	1.757572	-0.707711	-0.139445
H101	H	1.706653	-0.885265	-0.190230
H102	H	1.610490	-0.802906	-0.183306
O103	O	0.802575	-0.482092	-0.640456
C104	C	0.645131	-0.537559	-0.714196
C105	C	0.765836	-0.537541	-0.714107
H106	H	0.615391	-0.582373	-0.773752
H107	H	0.615200	-0.553927	-0.632845
H108	H	0.615443	-0.476340	-0.736105
H109	H	0.795614	-0.598741	-0.692242
H110	H	0.795695	-0.521129	-0.795467
H111	H	1.652723	-0.481780	-0.807601
O112	O	1.318448	-0.799013	-0.705544
C113	C	1.139704	-0.773859	-0.756442
C114	C	1.213725	-0.819258	-0.682639
H115	H	1.055022	-0.790222	-0.737964
H116	H	1.151129	-0.707760	-0.744891
H117	H	1.158177	-0.790026	-0.841170
H118	H	1.195298	-0.803157	-0.597883
H119	H	1.202287	-0.885346	-0.694280
H120	H	1.707609	-0.955204	-0.317254
H121	H	1.396649	-0.288840	-1.106225
H122	H	1.640261	-0.681620	-0.384352
H123	H	1.329244	-0.955235	-0.695119
O124	O	1.785088	-0.581527	-0.898614
C125	C	1.835945	-0.715999	-0.864976
C126	C	1.762094	-0.660325	-0.925286
H127	H	1.817366	-0.779720	-0.886501
H128	H	1.920695	-0.702186	-0.886572
H129	H	1.824400	-0.707303	-0.777138
H130	H	1.773545	-0.668990	-1.013138
H131	H	1.677371	-0.674152	-0.903603
O132	O	1.785354	-0.581310	-1.114687
C133	C	1.964057	-0.619655	-1.148294
C134	C	1.890107	-0.564059	-1.088006
H135	H	2.048766	-0.605717	-1.126761
H136	H	1.945646	-0.683408	-1.126685
H137	H	1.952499	-0.610962	-1.236136
H138	H	1.901623	-0.572682	-1.000150
H139	H	1.908536	-0.500327	-1.109701
H140	H	1.217952	-0.481962	-0.640287
H141	H	1.652847	-0.481648	-1.205737
O142	O	1.385935	-0.280935	-0.898689
C143	C	1.252745	-0.180614	-0.910267
C144	C	1.326687	-0.236209	-0.970565
H145	H	1.204839	-0.144427	-0.968353
H146	H	1.197709	-0.216881	-0.858916
H147	H	1.301008	-0.139336	-0.858879
H148	H	1.278508	-0.277499	-1.022010
H149	H	1.381725	-0.199893	-1.021850
