data_functionalizedCrystal
_audit_creation_method	'MofGen! by Chris Wilmer'
_symmetry_space_group_name_H-M	'P1'
_symmetry_Int_Tables_number	1
_symmetry_cell_setting	triclinic
loop_
_symmetry_equiv_pos_as_xyz
  x,y,z
_cell_length_a	10.654550
_cell_length_b	13.101039
_cell_length_c	10.654551
_cell_angle_alpha	86.602350
_cell_angle_beta	84.485132
_cell_angle_gamma	93.393769
loop_
_atom_site_label
_atom_site_type_symbol
_atom_site_fract_x
_atom_site_fract_y
_atom_site_fract_z
O1	O	1.674697	0.085293	0.169521
O2	O	1.309217	0.085275	0.186328
O3	O	1.500359	0.085285	-0.004815
O4	O	1.483555	0.085283	0.360664
O5	O	1.486645	-0.085146	0.008922
O6	O	1.295503	-0.085155	0.200065
O7	O	1.660983	-0.085138	0.183258
Zn8	Zn	1.476065	-0.112206	0.193843
Zn9	Zn	1.494134	0.112343	0.175743
O10	O	1.469840	-0.085147	0.374401
C11	C	1.255562	0.000058	0.191963
C12	C	1.116118	0.000052	0.188272
N13	N	1.463743	-0.265455	0.206194
C14	C	1.036634	0.000066	0.300812
C15	C	0.905615	0.000084	0.297334
C16	C	0.933577	0.000077	0.068765
C17	C	1.064593	0.000052	0.072245
C18	C	1.088159	0.000066	0.416839
C19	C	1.008674	0.000081	0.529388
C20	C	0.877655	0.000099	0.525910
C21	C	0.826120	0.000101	0.409883
C22	C	1.446978	-0.474499	0.223011
C23	C	1.523227	-0.525371	0.146570
C24	C	1.513899	-0.641689	0.155926
C25	C	1.456305	-0.358169	0.213655
C26	C	1.714638	0.000082	0.177623
C27	C	1.854082	0.000095	0.181314
C28	C	1.492268	0.000072	-0.044744
C29	C	1.488576	0.000079	-0.184188
N30	N	1.506467	0.265593	0.163382
C31	C	1.494320	0.092978	-0.257188
C32	C	1.490839	0.092974	-0.388208
C33	C	1.475877	-0.092839	-0.373216
C34	C	1.479348	-0.092833	-0.242198
C35	C	1.503548	0.185890	-0.199178
C36	C	1.509293	0.278798	-0.272179
C37	C	1.505812	0.278793	-0.403199
C38	C	1.496586	0.185881	-0.461218
C39	C	1.477932	0.000068	0.414330
C40	C	1.481624	0.000068	0.553773
H41	H	1.194841	0.000056	0.419683
O42	O	1.609204	-0.472961	0.059992
C43	C	1.696594	-0.307555	-0.028796
C44	C	1.599345	-0.366786	0.069472
H45	H	1.688639	-0.221702	-0.021183
H46	H	1.795891	-0.328336	-0.010360
H47	H	1.677188	-0.328790	-0.127667
H48	H	1.618635	-0.345583	0.168381
H49	H	1.500080	-0.346000	0.050926
O50	O	0.883316	0.000134	-0.043833
C51	C	0.693863	0.000118	-0.150483
C52	C	0.750614	0.000072	-0.022881
H53	H	0.586565	0.000046	-0.133586
H54	H	0.732193	0.071455	-0.211925
H55	H	0.720825	-0.071195	-0.200408
H56	H	0.723674	0.071337	0.027151
H57	H	0.712286	-0.071312	0.038469
H58	H	1.374699	-0.518299	0.295477
O59	O	0.800258	0.000068	0.635119
C60	C	0.586036	0.000176	0.731058
C61	C	0.673536	0.000178	0.607284
H62	H	0.483565	0.000287	0.708596
H63	H	0.599041	-0.071165	0.793874
H64	H	0.610742	0.071485	0.782341
H65	H	0.648884	-0.071082	0.555897
H66	H	0.660516	0.071566	0.544560
O67	O	1.518063	0.368986	-0.215668
C68	C	1.421982	0.476855	-0.063235
C69	C	1.411920	0.374665	-0.127104
H70	H	1.336165	0.481489	0.008363
H71	H	1.511661	0.481540	-0.012907
H72	H	1.425535	0.543228	-0.137958
H73	H	1.408315	0.308234	-0.052461
H74	H	1.322255	0.370069	-0.177459
H75	H	0.719433	0.000100	0.407061
O76	O	1.511545	0.368972	-0.474265
C77	C	1.624960	0.476834	-0.644119
C78	C	1.618595	0.374656	-0.563755
H79	H	1.711517	0.481473	-0.716473
H80	H	1.536027	0.481495	-0.695193
H81	H	1.632088	0.543219	-0.580114
H82	H	1.611509	0.308214	-0.627671
H83	H	1.707528	0.370085	-0.512668
O84	O	1.466756	-0.183023	-0.429695
C85	C	1.345505	-0.290898	-0.555572
C86	C	1.355689	-0.188715	-0.491702
H87	H	1.255700	-0.295542	-0.605698
H88	H	1.431180	-0.295559	-0.627342
H89	H	1.342058	-0.357278	-0.480873
H90	H	1.359098	-0.122277	-0.566310
H91	H	1.270015	-0.184144	-0.419907
O92	O	1.473789	-0.183166	-0.171468
C93	C	1.458440	-0.367468	-0.170396
C94	C	1.464782	-0.265239	-0.250654
H95	H	1.451130	-0.433851	-0.234381
H96	H	1.547428	-0.372199	-0.119422
H97	H	1.371967	-0.372030	-0.097942
H98	H	1.551199	-0.260609	-0.323174
H99	H	1.375735	-0.260552	-0.301539
H100	H	1.050641	0.000071	0.623854
H101	H	1.506386	0.185905	-0.092496
O102	O	1.141954	0.000179	-0.037000
C103	C	1.313201	0.088473	-0.172864
C104	C	1.225691	0.088451	-0.049094
H105	H	1.380906	0.159844	-0.182695
H106	H	1.369563	0.017185	-0.171212
H107	H	1.253846	0.088437	-0.256368
H108	H	1.284949	0.088523	0.034476
H109	H	1.169323	0.159733	-0.050856
H110	H	1.493734	0.185884	-0.567902
