data_functionalizedCrystal
_audit_creation_method	'MofGen! by Chris Wilmer'
_symmetry_space_group_name_H-M	'P1'
_symmetry_Int_Tables_number	1
_symmetry_cell_setting	triclinic
loop_
_symmetry_equiv_pos_as_xyz
  x,y,z
_cell_length_a	14.044220
_cell_length_b	14.044220
_cell_length_c	12.503572
_cell_angle_alpha	93.843168
_cell_angle_beta	86.164750
_cell_angle_gamma	93.188878
loop_
_atom_site_label
_atom_site_type_symbol
_atom_site_fract_x
_atom_site_fract_y
_atom_site_fract_z
O1	O	-1.282200	-0.225116	0.089210
O2	O	-1.032200	0.024884	0.339210
O3	O	-0.782200	0.274884	0.589210
O4	O	-0.532200	0.524884	0.839210
O5	O	-1.005530	-0.216809	0.089237
O6	O	-0.755530	0.033191	0.339237
O7	O	-0.505530	0.283191	0.589237
O8	O	-0.255530	0.533191	0.839237
O9	O	-1.139712	-0.082627	0.089213
O10	O	-0.889712	0.167373	0.339213
O11	O	-0.639712	0.417373	0.589213
O12	O	-0.389712	0.667373	0.839213
O13	O	-1.148019	-0.359298	0.089234
O14	O	-0.898019	-0.109298	0.339234
O15	O	-0.648019	0.140702	0.589234
O16	O	-0.398019	0.390702	0.839234
O17	O	-1.129622	-0.092737	-0.089427
O18	O	-0.879622	0.157263	0.160573
O19	O	-0.629622	0.407263	0.410573
O20	O	-0.379622	0.657263	0.660573
O21	O	-0.995440	-0.226918	-0.089403
O22	O	-0.745440	0.023082	0.160597
O23	O	-0.495440	0.273082	0.410597
O24	O	-0.245440	0.523082	0.660597
O25	O	-1.272110	-0.235226	-0.089430
O26	O	-1.022110	0.014774	0.160570
O27	O	-0.772110	0.264774	0.410570
O28	O	-0.522110	0.514774	0.660570
Cu29	Cu	-1.132854	-0.231995	-0.105728
Cu30	Cu	-0.882854	0.018005	0.144272
Cu31	Cu	-0.632854	0.268005	0.394272
Cu32	Cu	-0.382854	0.518005	0.644272
Cu33	Cu	-1.144786	-0.220040	0.105535
Cu34	Cu	-0.894786	0.029960	0.355535
Cu35	Cu	-0.644786	0.279960	0.605535
Cu36	Cu	-0.394786	0.529960	0.855535
O37	O	-1.137929	-0.369407	-0.089406
O38	O	-0.887929	-0.119407	0.160594
O39	O	-0.637929	0.130593	0.410594
O40	O	-0.387929	0.380593	0.660594
C41	C	-0.964864	-0.218228	-0.000080
C42	C	-0.714864	0.031772	0.249920
C43	C	-0.464864	0.281772	0.499920
C44	C	-0.214864	0.531772	0.749920
C45	C	-0.858721	-0.207383	-0.000070
C46	C	-0.608721	0.042617	0.249930
C47	C	-0.358721	0.292617	0.499930
C48	C	-0.108721	0.542617	0.749930
C49	C	-1.131031	-0.052060	-0.000107
C50	C	-0.881031	0.197940	0.249893
C51	C	-0.631031	0.447940	0.499893
C52	C	-0.381031	0.697940	0.749893
C53	C	-1.120187	0.054082	-0.000107
C54	C	-0.870187	0.304082	0.249893
C55	C	-0.620187	0.554082	0.499893
C56	C	-0.370187	0.804082	0.749893
C57	C	-1.312777	-0.233807	-0.000111
C58	C	-1.062777	0.016193	0.249889
C59	C	-0.812777	0.266193	0.499889
C60	C	-0.562777	0.516193	0.749889
C61	C	-1.418920	-0.244651	-0.000114
C62	C	-1.168920	0.005349	0.249886
C63	C	-0.918920	0.255349	0.499886
C64	C	-0.668920	0.505349	0.749886
C65	C	-0.664382	-0.187558	-0.000092
C66	C	-0.414382	0.062442	0.249908
C67	C	-0.164382	0.312442	0.499908
C68	C	0.085618	0.562442	0.749908
C69	C	-0.613253	-0.264472	-0.000091
C70	C	-0.363253	-0.014472	0.249909
C71	C	-0.113253	0.235528	0.499909
C72	C	0.136747	0.485528	0.749909
C73	C	-0.505116	-0.253441	-0.000104
C74	C	-0.255116	-0.003441	0.249896
C75	C	-0.005116	0.246559	0.499896
C76	C	0.244884	0.496559	0.749896
C77	C	-0.772529	-0.198587	-0.000080
C78	C	-0.522529	0.051413	0.249920
C79	C	-0.272529	0.301413	0.499920
C80	C	-0.022529	0.551413	0.749920
C81	C	-1.146609	-0.399974	-0.000084
C82	C	-0.896609	-0.149974	0.249916
C83	C	-0.646609	0.100026	0.499916
C84	C	-0.396609	0.350026	0.749916
C85	C	-1.157454	-0.506117	-0.000077
C86	C	-0.907454	-0.256117	0.249923
C87	C	-0.657454	-0.006117	0.499923
C88	C	-0.407454	0.243883	0.749923
N89	N	-1.124469	-0.240404	-0.254319
N90	N	-0.874469	0.009596	-0.004319
N91	N	-0.624469	0.259596	0.245681
N92	N	-0.374469	0.509596	0.495681
C93	C	-1.100361	0.248421	-0.000090
C94	C	-0.850361	0.498421	0.249910
C95	C	-0.600361	0.748421	0.499910
C96	C	-0.350361	0.998421	0.749910
C97	C	-1.177275	0.299551	-0.000094
C98	C	-0.927275	0.549551	0.249906
C99	C	-0.677275	0.799551	0.499906
C100	C	-0.427275	1.049551	0.749906
C101	C	-1.166244	0.407687	-0.000084
C102	C	-0.916244	0.657687	0.249916
C103	C	-0.666244	0.907687	0.499916
C104	C	-0.416244	1.157687	0.749916
C105	C	-1.111391	0.140274	-0.000099
C106	C	-0.861391	0.390274	0.249901
C107	C	-0.611391	0.640274	0.499901
C108	C	-0.361391	0.890274	0.749901
C109	C	-1.112134	-0.252782	-0.473432
C110	C	-0.862134	-0.002782	-0.223432
C111	C	-0.612134	0.247218	0.026568
C112	C	-0.362134	0.497218	0.276568
C113	C	-1.165511	-0.199249	-0.526768
C114	C	-0.915511	0.050751	-0.276768
C115	C	-0.665511	0.300751	-0.026768
C116	C	-0.415511	0.550751	0.223232
C117	C	-1.158648	-0.206136	-0.648690
C118	C	-0.908648	0.043864	-0.398690
C119	C	-0.658648	0.293864	-0.148690
C120	C	-0.408648	0.543864	0.101310
C121	C	-1.118996	-0.245896	-0.351499
C122	C	-0.868996	0.004104	-0.101499
C123	C	-0.618996	0.254104	0.148501
C124	C	-0.368996	0.504104	0.398501
N125	N	-1.153179	-0.211624	0.254126
N126	N	-0.903179	0.038376	0.504126
N127	N	-0.653179	0.288376	0.754126
N128	N	-0.403179	0.538376	1.004126
H129	H	-0.626945	-0.113431	-0.000104
H130	H	-0.376945	0.136569	0.249896
H131	H	-0.126945	0.386569	0.499896
H132	H	0.123055	0.636569	0.749896
N133	N	-1.275473	0.249963	-0.000130
N134	N	-1.025473	0.499963	0.249870
N135	N	-0.775473	0.749963	0.499870
N136	N	-0.525473	0.999963	0.749870
H137	H	-1.325267	0.299154	-0.000137
H138	H	-1.075267	0.549154	0.249863
H139	H	-0.825267	0.799154	0.499863
H140	H	-0.575267	1.049154	0.749863
H141	H	-1.287135	0.212486	0.066085
H142	H	-1.037135	0.462486	0.316085
H143	H	-0.787135	0.712486	0.566085
H144	H	-0.537135	0.962486	0.816085
N145	N	-0.662849	-0.362666	-0.000057
N146	N	-0.412849	-0.112666	0.249943
N147	N	-0.162849	0.137334	0.499943
N148	N	0.087151	0.387334	0.749943
H149	H	-0.647517	-0.394768	0.066172
H150	H	-0.397517	-0.144768	0.316172
H151	H	-0.147517	0.105232	0.566172
H152	H	0.102483	0.355232	0.816172
H153	H	-0.640050	-0.402216	-0.066316
H154	H	-0.390050	-0.152216	0.183684
H155	H	-0.140050	0.097784	0.433684
H156	H	0.109950	0.347784	0.683684
N157	N	-1.002168	0.298004	-0.000079
N158	N	-0.752168	0.548004	0.249921
N159	N	-0.502168	0.798004	0.499921
N160	N	-0.252168	1.048004	0.749921
H161	H	-1.008108	0.369344	-0.000077
H162	H	-0.758108	0.619344	0.249923
H163	H	-0.508108	0.869344	0.499923
H164	H	-0.258108	1.119344	0.749923
H165	H	-0.962620	0.275132	-0.066305
H166	H	-0.712620	0.525132	0.183695
H167	H	-0.462620	0.775132	0.433695
H168	H	-0.212620	1.025132	0.683695
N169	N	-1.232874	-0.131687	-0.465975
N170	N	-0.982874	0.118313	-0.215975
N171	N	-0.732874	0.368313	0.034025
N172	N	-0.482874	0.618313	0.284025
H173	H	-1.228295	-0.136280	-0.386233
H174	H	-0.978295	0.113720	-0.136233
H175	H	-0.728295	0.363720	0.113767
H176	H	-0.478295	0.613720	0.363767
H177	H	-1.300467	-0.149461	-0.485564
H178	H	-1.050467	0.100539	-0.235564
H179	H	-0.800467	0.350539	0.014436
H180	H	-0.550467	0.600539	0.264436
H181	H	-1.061285	-0.303783	-0.519330
H182	H	-0.811285	-0.053783	-0.269330
H183	H	-0.561285	0.196217	-0.019330
H184	H	-0.311285	0.446217	0.230670
