data_functionalizedCrystal
_audit_creation_method	'MofGen! by Chris Wilmer'
_symmetry_space_group_name_H-M	'P1'
_symmetry_Int_Tables_number	1
_symmetry_cell_setting	triclinic
loop_
_symmetry_equiv_pos_as_xyz
  x,y,z
_cell_length_a	10.654554
_cell_length_b	10.654558
_cell_length_c	9.730223
_cell_angle_alpha	89.998542
_cell_angle_beta	89.999646
_cell_angle_gamma	84.487452
loop_
_atom_site_label
_atom_site_type_symbol
_atom_site_fract_x
_atom_site_fract_y
_atom_site_fract_z
O1	O	1.667836	0.176419	-0.114295
O2	O	1.302358	0.193220	-0.114297
O3	O	1.493495	0.002081	-0.114287
O4	O	1.476699	0.367558	-0.114306
O5	O	1.493493	0.002086	0.114293
O6	O	1.302356	0.193225	0.114283
O7	O	1.667833	0.176424	0.114285
Zn8	Zn	1.485095	0.184825	0.150576
Zn9	Zn	1.485097	0.184819	-0.150588
O10	O	1.476697	0.367563	0.114274
C11	C	1.255559	0.191987	-0.000007
C12	C	1.116116	0.188293	-0.000008
C13	C	0.905611	0.297366	-0.000016
C14	C	1.036632	0.300838	-0.000017
C15	C	1.064573	0.072269	-0.000012
C16	C	0.933554	0.068799	-0.000022
C17	C	0.889481	0.429328	-0.000013
C18	C	1.020502	0.432800	-0.000013
C19	C	1.492258	-0.044714	0.000003
C20	C	1.488563	-0.184157	0.000001
C21	C	1.486823	-0.249676	0.124595
C22	C	1.483361	-0.380699	0.124582
C23	C	1.483373	-0.380671	-0.124629
C24	C	1.486844	-0.249652	-0.124614
C25	C	1.552063	-0.568750	0.274261
C26	C	1.550302	-0.634270	0.398861
C27	C	1.477961	-0.582779	0.508876
C28	C	1.407350	-0.465765	0.494296
C29	C	1.409100	-0.400250	0.369694
C30	C	1.481470	-0.451743	0.259684
C31	C	1.418132	-0.061598	-0.274285
C32	C	1.419872	0.003921	-0.398889
C33	C	1.492206	-0.047567	-0.508915
C34	C	1.562797	-0.164582	-0.494348
C35	C	1.561057	-0.230101	-0.369745
C36	C	1.488726	-0.178604	-0.259718
C37	C	1.714633	0.177657	-0.000008
C38	C	1.854076	0.181351	-0.000017
C39	C	1.477933	0.414358	-0.000018
C40	C	1.481629	0.553801	-0.000026
N41	N	1.485102	0.184829	0.356112
N42	N	1.485100	0.184805	-0.356125
C43	C	1.569759	0.100222	0.428043
C44	C	1.569756	0.100206	0.571926
C45	C	1.400434	0.269417	0.571935
C46	C	1.400432	0.269425	0.428054
C47	C	1.667519	0.002533	0.428039
C48	C	1.667516	0.002518	0.571922
H49	H	0.847738	0.479055	-0.095672
H50	H	1.646074	-0.094000	0.388990
O51	O	1.309107	0.360663	0.350468
H52	H	1.362488	0.422203	0.284905
O53	O	0.877962	-0.056330	-0.000021
H54	H	0.955243	-0.134006	-0.000005
O55	O	1.309123	0.360668	0.649527
H56	H	1.323350	0.346455	0.761662
O57	O	1.488692	-0.179041	0.259000
H58	H	1.491387	-0.076925	0.238084
O59	O	1.630103	-0.624290	0.155607
H60	H	1.619476	-0.559071	0.066518
O61	O	1.788309	0.043040	0.368924
H62	H	1.766594	0.128498	0.304750
O63	O	1.329315	-0.410238	0.612960
H64	H	1.280507	-0.317874	0.581886
O65	O	1.627111	-0.118329	0.631011
H66	H	1.541643	-0.096700	0.695188
H67	H	1.056138	0.474824	-0.098712
O68	O	1.795341	0.031040	0.623674
H69	H	1.868367	-0.042004	0.585600
O70	O	1.150293	-0.049124	0.000003
H71	H	1.250058	-0.027223	0.000019
O72	O	0.828992	0.482147	0.130701
H73	H	0.902879	0.512962	0.200007
H74	H	1.049864	0.484392	0.095656
H75	H	1.481970	-0.434013	-0.226086
H76	H	1.351638	-0.304963	0.357836
H77	H	1.476527	-0.636136	0.610327
O78	O	1.343739	0.130135	-0.414610
H79	H	1.293161	0.154946	-0.317161
O80	O	1.626481	-0.760458	0.414607
H81	H	1.677111	-0.785246	0.317185
H82	H	1.618533	-0.325388	-0.357895
O83	O	1.640809	-0.220129	-0.613024
H84	H	1.741453	-0.233901	-0.582054
O85	O	1.494070	0.023083	-0.643325
H86	H	1.592087	0.043204	-0.666847
O87	O	1.340108	-0.006068	-0.155606
H88	H	1.291295	0.086295	-0.186678
