data_functionalizedCrystal
_audit_creation_method	'MofGen! by Chris Wilmer'
_symmetry_space_group_name_H-M	'P1'
_symmetry_Int_Tables_number	1
_symmetry_cell_setting	triclinic
loop_
_symmetry_equiv_pos_as_xyz
  x,y,z
_cell_length_a	23.532361
_cell_length_b	11.792241
_cell_length_c	10.868271
_cell_angle_alpha	90.005281
_cell_angle_beta	89.999961
_cell_angle_gamma	96.488458
loop_
_atom_site_label
_atom_site_type_symbol
_atom_site_fract_x
_atom_site_fract_y
_atom_site_fract_z
O1	O	0.756092	-0.137520	-0.102200
O2	O	0.590343	-0.157509	-0.102229
O3	O	0.677239	0.017752	-0.102205
O4	O	0.669195	-0.312781	-0.102224
O5	O	0.677232	0.017759	0.102440
O6	O	0.590336	-0.157503	0.102416
O7	O	0.756084	-0.137513	0.102445
Zn8	Zn	0.673209	-0.147507	0.134922
Zn9	Zn	0.673218	-0.147515	-0.134706
O10	O	0.669188	-0.312774	0.102421
C11	C	0.569120	-0.157005	0.000090
C12	C	0.505892	-0.155500	0.000078
C13	C	0.232614	-0.148921	-0.111466
C14	C	0.292022	-0.150346	-0.111469
O15	O	0.322755	-0.151046	-0.206337
N16	N	0.321728	-0.151062	0.000084
C17	C	0.292023	-0.150341	0.111646
O18	O	0.322746	-0.151080	0.206530
C19	C	0.232617	-0.148908	0.111648
C20	C	0.202913	-0.148204	0.000088
C21	C	0.202910	-0.148215	-0.223016
C22	C	0.143506	-0.146793	-0.223012
C23	C	0.113805	-0.146076	-0.111458
C24	C	0.143509	-0.146782	0.000092
C25	C	0.202914	-0.148180	0.223209
C26	C	0.143503	-0.146746	0.223202
C27	C	0.113799	-0.146042	0.111642
C28	C	0.054404	-0.144642	0.111650
N29	N	0.024698	-0.143926	0.000097
C30	C	0.054398	-0.144643	-0.111457
C31	C	0.416781	-0.153348	0.111634
C32	C	0.476186	-0.154789	0.111633
C33	C	0.476181	-0.154791	-0.111482
C34	C	0.416774	-0.153358	-0.111480
C35	C	0.387075	-0.152632	0.000082
C36	C	-0.070355	-0.141657	-0.111441
C37	C	-0.129765	-0.140239	-0.111427
C38	C	-0.129754	-0.140231	0.111687
C39	C	-0.070349	-0.141655	0.111675
C40	C	-0.040651	-0.142364	0.000101
O41	O	0.023633	-0.143936	0.206470
O42	O	0.023670	-0.143889	-0.206324
C43	C	0.676731	0.060034	0.000117
C44	C	0.675218	0.186012	0.000115
C45	C	0.777307	-0.138017	0.000124
C46	C	0.840535	-0.139522	0.000127
C47	C	0.669697	-0.355057	0.000096
C48	C	0.671209	-0.481034	0.000090
N49	N	0.673207	-0.147500	0.318936
C50	C	0.672437	0.416658	0.000094
C51	C	0.673982	0.288309	0.000106
N52	N	0.673225	-0.147513	-0.318720
C53	C	0.673215	-0.147513	0.569942
C54	C	0.673209	-0.147509	0.430265
H55	H	0.119327	-0.146214	-0.313856
N56	N	0.506525	-0.155484	-0.225440
N57	N	0.504896	-0.075304	-0.300113
H58	H	0.526327	-0.075789	-0.380593
H59	H	0.227086	-0.148795	-0.313862
N60	N	0.386444	-0.152640	-0.225445
N61	N	0.412976	-0.153286	-0.325033
H62	H	0.391559	-0.152777	-0.405527
H63	H	-0.046182	-0.142236	-0.202295
H64	H	0.227088	-0.148750	0.314053
H65	H	0.119325	-0.146165	0.314051
H66	H	0.500365	-0.155381	0.202476
N67	N	0.386455	-0.152613	0.225611
N68	N	0.412991	-0.153252	0.325195
H69	H	0.391577	-0.152730	0.405692
N70	N	-0.040017	-0.142433	0.225638
N71	N	-0.066547	-0.141827	0.325231
H72	H	-0.045130	-0.142383	0.405721
N73	N	-0.160095	-0.139503	-0.225400
N74	N	-0.148450	-0.059650	-0.300084
H75	H	-0.169868	-0.059127	-0.380577
N76	N	-0.160107	-0.139504	0.225621
N77	N	-0.213149	-0.138227	0.225594
H78	H	-0.234588	-0.137706	0.306060
