data_functionalizedCrystal
_audit_creation_method	'MofGen! by Chris Wilmer'
_symmetry_space_group_name_H-M	'P1'
_symmetry_Int_Tables_number	1
_symmetry_cell_setting	triclinic
loop_
_symmetry_equiv_pos_as_xyz
  x,y,z
_cell_length_a	15.944545
_cell_length_b	15.944551
_cell_length_c	13.101039
_cell_angle_alpha	93.361595
_cell_angle_beta	86.644973
_cell_angle_gamma	83.497455
loop_
_atom_site_label
_atom_site_type_symbol
_atom_site_fract_x
_atom_site_fract_y
_atom_site_fract_z
O1	O	1.119144	0.103675	-0.085150
O2	O	1.369144	0.353675	0.164850
O3	O	1.619144	0.603675	0.414850
O4	O	1.869144	0.853675	0.664850
O5	O	0.874595	0.117035	-0.085167
O6	O	1.124595	0.367035	0.164833
O7	O	1.374595	0.617035	0.414833
O8	O	1.624595	0.867035	0.664833
O9	O	1.003547	-0.011919	-0.085149
O10	O	1.253547	0.238081	0.164851
O11	O	1.503547	0.488081	0.414851
O12	O	1.753547	0.738081	0.664851
O13	O	0.990192	0.232629	-0.085168
O14	O	1.240192	0.482629	0.164832
O15	O	1.490192	0.732629	0.414832
O16	O	1.740192	0.982629	0.664832
O17	O	0.994295	-0.002652	0.085280
O18	O	1.244295	0.247348	0.335280
O19	O	1.494295	0.497348	0.585280
O20	O	1.744295	0.747348	0.835280
O21	O	0.865343	0.126303	0.085262
O22	O	1.115343	0.376303	0.335262
O23	O	1.365343	0.626303	0.585262
O24	O	1.615343	0.876303	0.835262
O25	O	1.109892	0.112942	0.085278
O26	O	1.359892	0.362942	0.335278
O27	O	1.609892	0.612942	0.585278
O28	O	1.859892	0.862942	0.835278
Zn29	Zn	0.986149	0.121094	0.112329
Zn30	Zn	1.236149	0.371094	0.362329
Zn31	Zn	1.486149	0.621094	0.612329
Zn32	Zn	1.736149	0.871094	0.862329
Zn33	Zn	0.998339	0.108884	-0.112218
Zn34	Zn	1.248339	0.358884	0.137782
Zn35	Zn	1.498339	0.608884	0.387782
Zn36	Zn	1.748339	0.858884	0.637782
O37	O	0.980940	0.241897	0.085260
O38	O	1.230940	0.491897	0.335260
O39	O	1.480940	0.741897	0.585260
O40	O	1.730940	0.991897	0.835260
C41	C	0.838675	0.121115	0.000045
C42	C	1.088675	0.371115	0.250045
C43	C	1.338675	0.621115	0.500045
C44	C	1.588675	0.871115	0.750045
C45	C	0.745429	0.119455	0.000039
C46	C	0.995429	0.369455	0.250039
C47	C	1.245429	0.619455	0.500039
C48	C	1.495429	0.869455	0.750039
C49	C	0.474795	0.034562	0.000057
C50	C	0.724795	0.284562	0.250057
C51	C	0.974795	0.534562	0.500057
C52	C	1.224795	0.784562	0.750057
C53	C	0.520815	0.080060	0.084086
C54	C	0.770815	0.330060	0.334086
C55	C	1.020815	0.580060	0.584086
C56	C	1.270815	0.830060	0.834086
C57	C	0.409784	0.113535	0.000057
C58	C	0.659784	0.363535	0.250057
C59	C	0.909784	0.613535	0.500057
C60	C	1.159784	0.863535	0.750057
C61	C	0.529918	0.070944	-0.083943
C62	C	0.779918	0.320944	0.166057
C63	C	1.029918	0.570944	0.416057
C64	C	1.279918	0.820944	0.666057
C65	C	0.574698	0.116439	0.000047
C66	C	0.824698	0.366439	0.250047
C67	C	1.074698	0.616439	0.500047
C68	C	1.324698	0.866439	0.750047
C69	C	0.454572	0.159016	0.084156
C70	C	0.704572	0.409016	0.334156
C71	C	0.954572	0.659016	0.584156
C72	C	1.204572	0.909016	0.834156
C73	C	0.463675	0.149884	-0.083949
C74	C	0.713675	0.399884	0.166051
C75	C	0.963675	0.649884	0.416051
C76	C	1.213675	0.899884	0.666051
C77	C	0.509661	0.195442	0.000101
C78	C	0.759661	0.445442	0.250101
C79	C	1.009661	0.695442	0.500101
C80	C	1.259661	0.945442	0.750101
C81	C	0.314782	0.111860	0.000064
C82	C	0.564782	0.361860	0.250064
C83	C	0.814782	0.611860	0.500064
C84	C	1.064782	0.861860	0.750064
C85	C	0.669698	0.118121	0.000047
C86	C	0.919698	0.368121	0.250047
C87	C	1.169698	0.618121	0.500047
C88	C	1.419698	0.868121	0.750047
C89	C	0.998367	-0.038580	0.000066
C90	C	1.248367	0.211420	0.250066
C91	C	1.498367	0.461420	0.500066
C92	C	1.748367	0.711420	0.750066
C93	C	0.996704	-0.131826	0.000066
C94	C	1.246704	0.118174	0.250066
C95	C	1.496704	0.368174	0.500066
C96	C	1.746704	0.618174	0.750066
C97	C	0.912801	-0.346681	0.000046
C98	C	1.162801	-0.096681	0.250046
C99	C	1.412801	0.153319	0.500046
C100	C	1.662801	0.403319	0.750046
C101	C	0.947201	-0.403130	0.084080
C102	C	1.197201	-0.153130	0.334080
C103	C	1.447201	0.096870	0.584080
C104	C	1.697201	0.346870	0.834080
C105	C	0.993698	-0.302552	0.000058
C106	C	1.243698	-0.052552	0.250058
C107	C	1.493698	0.197448	0.500058
C108	C	1.743698	0.447448	0.750058
C109	C	0.956342	-0.412251	-0.083949
C110	C	1.206342	-0.162251	0.166051
C111	C	1.456342	0.087749	0.416051
C112	C	1.706342	0.337749	0.666051
C113	C	0.990787	-0.467465	0.000046
C114	C	1.240787	-0.217465	0.250046
C115	C	1.490787	0.032535	0.500046
C116	C	1.740787	0.282535	0.750046
C117	C	1.028117	-0.357768	0.084162
C118	C	1.278117	-0.107768	0.334162
C119	C	1.528117	0.142232	0.584162
C120	C	1.778117	0.392232	0.834162
C121	C	1.037250	-0.366887	-0.083943
C122	C	1.287250	-0.116887	0.166057
C123	C	1.537250	0.133113	0.416057
C124	C	1.787250	0.383113	0.666057
C125	C	1.071709	-0.423316	0.000112
C126	C	1.321709	-0.173316	0.250112
C127	C	1.571709	0.076684	0.500112
C128	C	1.821709	0.326684	0.750112
C129	C	0.995372	-0.207549	0.000066
C130	C	1.245372	0.042451	0.250066
C131	C	1.495372	0.292451	0.500066
C132	C	1.745372	0.542451	0.750066
C133	C	0.989119	-0.562466	0.000045
C134	C	1.239119	-0.312466	0.250045
C135	C	1.489119	-0.062466	0.500045
C136	C	1.739119	0.187534	0.750045
C137	C	1.145812	0.108862	0.000064
C138	C	1.395812	0.358862	0.250064
C139	C	1.645812	0.608862	0.500064
C140	C	1.895812	0.858862	0.750064
C141	C	1.239059	0.110522	0.000063
C142	C	1.489059	0.360522	0.250063
C143	C	1.739059	0.610522	0.500063
C144	C	1.989059	0.860522	0.750063
C145	C	0.986121	0.268557	0.000044
C146	C	1.236121	0.518557	0.250044
C147	C	1.486121	0.768557	0.500044
C148	C	1.736121	1.018557	0.750044
C149	C	0.987783	0.361803	0.000036
C150	C	1.237783	0.611803	0.250036
C151	C	1.487783	0.861803	0.500036
C152	C	1.737783	1.111803	0.750036
N153	N	0.977835	0.129427	0.265577
N154	N	1.227835	0.379427	0.515577
N155	N	1.477835	0.629427	0.765577
N156	N	1.727835	0.879427	1.015577
N157	N	1.006659	0.100544	-0.265465
N158	N	1.256659	0.350544	-0.015465
N159	N	1.506659	0.600544	0.234535
N160	N	1.756659	0.850544	0.484535
C161	C	0.966525	0.140772	0.474618
C162	C	1.216525	0.390772	0.724618
C163	C	1.466525	0.640772	0.974618
C164	C	1.716525	0.890772	1.224618
C165	C	1.017967	0.089202	0.525500
C166	C	1.267967	0.339202	0.775500
C167	C	1.517967	0.589202	1.025500
C168	C	1.767967	0.839202	1.275500
C169	C	1.011673	0.095514	0.641818
C170	C	1.261673	0.345514	0.891818
C171	C	1.511673	0.595514	1.141818
C172	C	1.761673	0.845514	1.391818
C173	C	0.972817	0.134460	0.358289
C174	C	1.222817	0.384460	0.608289
C175	C	1.472817	0.634460	0.858289
C176	C	1.722817	0.884460	1.108289
H177	H	0.545889	0.050571	0.155132
H178	H	0.795889	0.300571	0.405132
H179	H	1.045889	0.550571	0.655132
H180	H	1.295889	0.800571	0.905132
Br181	Br	0.584547	0.008896	-0.202339
Br182	Br	0.834547	0.258896	0.047661
Br183	Br	1.084547	0.508896	0.297661
Br184	Br	1.334547	0.758896	0.547661
Br185	Br	1.099604	0.008068	0.452512
Br186	Br	1.349604	0.258068	0.702512
Br187	Br	1.599604	0.508068	0.952512
Br188	Br	1.849604	0.758068	1.202512
H189	H	0.845648	-0.313368	0.000125
H190	H	1.095648	-0.063368	0.250125
H191	H	1.345648	0.186632	0.500125
H192	H	1.595648	0.436632	0.750125
Br193	Br	0.535477	0.308891	0.000163
Br194	Br	0.785477	0.558891	0.250163
Br195	Br	1.035477	0.808891	0.500163
Br196	Br	1.285477	1.058891	0.750163
H197	H	0.909128	-0.419374	0.155120
H198	H	1.159128	-0.169374	0.405120
H199	H	1.409128	0.080626	0.655120
H200	H	1.659128	0.330626	0.905120
H201	H	0.925973	-0.436190	-0.154998
H202	H	1.175973	-0.186190	0.095002
H203	H	1.425973	0.063810	0.345002
H204	H	1.675973	0.313810	0.595002
H205	H	0.459137	-0.033445	0.000144
H206	H	0.709137	0.216555	0.250144
H207	H	0.959137	0.466555	0.500144
H208	H	1.209137	0.716555	0.750144
Br209	Br	0.400126	0.221012	0.202689
Br210	Br	0.650126	0.471012	0.452689
Br211	Br	0.900126	0.721012	0.702689
Br212	Br	1.150126	0.971012	0.952689
H213	H	1.058443	-0.333911	0.155284
H214	H	1.308443	-0.083911	0.405284
H215	H	1.558443	0.166089	0.655284
H216	H	1.808443	0.416089	0.905284
Br217	Br	1.100662	-0.339773	-0.202354
Br218	Br	1.350662	-0.089773	0.047646
Br219	Br	1.600662	0.160227	0.297646
Br220	Br	1.850662	0.410227	0.547646
H221	H	1.138913	-0.456474	0.000164
H222	H	1.388913	-0.206474	0.250164
H223	H	1.638913	0.043526	0.500164
H224	H	1.888913	0.293526	0.750164
H225	H	0.438586	0.179344	-0.154997
H226	H	0.688586	0.429344	0.095003
H227	H	0.938586	0.679344	0.345003
H228	H	1.188586	0.929344	0.595003
Br229	Br	0.885247	0.222258	0.547606
Br230	Br	1.135247	0.472258	0.797606
Br231	Br	1.385247	0.722258	1.047606
Br232	Br	1.635247	0.972258	1.297606
