data_functionalizedCrystal
_audit_creation_method	'MofGen! by Chris Wilmer'
_symmetry_space_group_name_H-M	'P1'
_symmetry_Int_Tables_number	1
_symmetry_cell_setting	triclinic
loop_
_symmetry_equiv_pos_as_xyz
  x,y,z
_cell_length_a	16.625546
_cell_length_b	12.759401
_cell_length_c	12.759393
_cell_angle_alpha	90.018496
_cell_angle_beta	90.036194
_cell_angle_gamma	90.022629
loop_
_atom_site_label
_atom_site_type_symbol
_atom_site_fract_x
_atom_site_fract_y
_atom_site_fract_z
Zn1	Zn	-0.320951	1.606199	0.593948
Zn2	Zn	-0.455807	1.606069	0.418253
Zn3	Zn	-0.320993	1.430501	0.418287
Zn4	Zn	-0.455745	1.430465	0.593895
O5	O	-0.388374	1.518308	0.506096
O6	O	-0.338848	1.753203	0.570649
O7	O	-0.437968	1.582740	0.271237
O8	O	-0.208155	1.453876	0.441625
O9	O	-0.437927	1.753107	0.441568
O10	O	-0.208124	1.582961	0.570682
O11	O	-0.338920	1.453751	0.271261
O12	O	-0.338860	1.283475	0.441574
O13	O	-0.437821	1.453816	0.740923
O14	O	-0.437862	1.283449	0.570592
O15	O	-0.338788	1.582927	0.740962
O16	O	-0.568632	1.582706	0.441517
O17	O	-0.568586	1.453691	0.570560
C18	C	-0.388359	1.245341	0.506081
C19	C	-0.388372	1.128564	0.506100
C20	C	-0.440005	1.073717	0.573169
C21	C	-0.440015	0.963992	0.573180
C22	C	-0.336758	0.963974	0.439045
C23	C	-0.336744	1.073696	0.439040
C24	C	-0.491634	1.128585	0.640229
C25	C	-0.543271	1.073737	0.707303
C26	C	-0.543282	0.964013	0.707314
C27	C	-0.491654	0.909137	0.640252
C28	C	-0.597865	1.518209	0.506052
C29	C	-0.687486	1.518263	0.506068
C30	C	-1.015662	1.518446	0.506177
C31	C	-0.924353	1.518392	0.506150
C32	C	-0.851577	1.518353	0.506122
C33	C	-0.760262	1.518301	0.506096
C34	C	-0.178065	1.518437	0.506163
C35	C	-0.088444	1.518492	0.506191
C36	C	-0.388293	1.518382	0.780129
C37	C	-0.388258	1.518413	0.896906
C38	C	-0.388390	1.792342	0.506111
C39	C	-0.388396	1.909118	0.506117
C40	C	-0.388397	1.518296	0.233128
C41	C	-0.388204	1.518468	0.116352
C42	C	-0.336687	1.585650	0.951790
C43	C	-0.336657	1.585675	1.061514
C44	C	-0.439778	1.451223	1.061461
C45	C	-0.439803	1.451194	0.951739
C46	C	-0.285142	1.652870	0.896957
C47	C	-0.233567	1.720113	0.951841
C48	C	-0.233538	1.720138	1.061565
C49	C	-0.285084	1.652920	1.116405
H50	H	-0.294726	0.919285	0.384446
O51	O	-0.183569	1.785365	0.898412
C52	C	-0.194636	1.770908	0.789799
H53	H	-0.256864	1.736461	0.774784
H54	H	-0.146816	1.714978	0.758678
C55	C	-0.110834	1.919509	0.751919
C56	C	-0.187266	1.877208	0.733477
H57	H	-0.106284	1.985078	0.717175
H58	H	-0.103375	1.929247	0.825094
H59	H	-0.070992	1.872891	0.725985
H60	H	-0.227106	1.923820	0.759423
H61	H	-0.194731	1.867480	0.660305
H62	H	-0.191537	1.774883	1.106249
O63	O	-0.593361	0.910569	0.772435
C64	C	-0.582318	0.801959	0.758048
H65	H	-0.520061	0.786979	0.723793
H66	H	-0.630094	0.770784	0.701986
C67	C	-0.666278	0.764069	0.906411
C68	C	-0.589811	0.745669	0.864346
H69	H	-0.670904	0.729344	0.971979
H70	H	-0.673721	0.837241	0.916102
H71	H	-0.706084	0.738089	0.859683
H72	H	-0.550008	0.771660	0.911068
H73	H	-0.582362	0.672499	0.854665
O74	O	-0.489826	1.386039	1.114892
C75	C	-0.478733	1.400467	1.223504
H76	H	-0.452325	1.481567	1.238503
H77	H	-0.435787	1.338184	1.254661
C78	C	-0.592738	1.291204	1.261379
C79	C	-0.560309	1.390816	1.279800
H80	H	-0.643057	1.285246	1.296107
H81	H	-0.600211	1.281480	1.188205
H82	H	-0.556942	1.239312	1.287343
H83	H	-0.596101	1.442705	1.253825
H84	H	-0.552845	1.400549	1.352972
H85	H	-0.285046	1.652934	1.205750
O86	O	-0.489991	1.385870	0.898580
C87	C	-0.535480	1.326545	0.970502
H88	H	-0.538241	1.369585	1.048725
H89	H	-0.505964	1.246760	0.982162
C90	C	-0.617919	1.258520	0.831573
C91	C	-0.621316	1.311386	0.927646
H92	H	-0.670866	1.249164	0.805137
H93	H	-0.587271	1.298485	0.783117
H94	H	-0.593319	1.192038	0.841303
H95	H	-0.645906	1.377872	0.917913
H96	H	-0.651970	1.271432	0.976100
O97	O	-0.286570	1.126820	0.373782
C98	C	-0.240999	1.054866	0.314601
H99	H	-0.274026	0.976637	0.310894
H100	H	-0.179794	1.043237	0.353212
C101	C	-0.188718	1.193734	0.207361
C102	C	-0.229287	1.097654	0.202800
H103	H	-0.181490	1.220128	0.138398
H104	H	-0.219418	1.242212	0.247234
H105	H	-0.137718	1.184030	0.239541
H106	H	-0.280289	1.107362	0.170633
H107	H	-0.198595	1.049179	0.162919
H108	H	-0.285162	1.652859	0.807614
H109	H	-0.491633	1.217928	0.640226
H110	H	-0.585299	1.118424	0.761909
H111	H	-0.491660	0.819792	0.640276
