data_functionalizedCrystal
_audit_creation_method	'MofGen! by Chris Wilmer'
_symmetry_space_group_name_H-M	'P1'
_symmetry_Int_Tables_number	1
_symmetry_cell_setting	triclinic
loop_
_symmetry_equiv_pos_as_xyz
  x,y,z
_cell_length_a	27.731996
_cell_length_b	15.455341
_cell_length_c	16.956995
_cell_angle_alpha	93.160271
_cell_angle_beta	79.337929
_cell_angle_gamma	93.005407
loop_
_atom_site_label
_atom_site_type_symbol
_atom_site_fract_x
_atom_site_fract_y
_atom_site_fract_z
O1	O	0.018278	-0.072193	1.054682
O2	O	0.351611	0.261140	1.388015
O3	O	0.684944	0.594473	1.721349
O4	O	0.035256	-0.072185	0.822311
O5	O	0.368589	0.261148	1.155644
O6	O	0.701923	0.594482	1.488977
O7	O	-0.043888	-0.072171	0.945736
O8	O	0.289446	0.261163	1.279069
O9	O	0.622779	0.594496	1.612402
O10	O	0.097421	-0.072208	0.931257
O11	O	0.430755	0.261126	1.264590
O12	O	0.764088	0.594459	1.597923
O13	O	-0.040361	0.072089	0.951924
O14	O	0.292973	0.405423	1.285257
O15	O	0.626306	0.738756	1.618590
O16	O	0.038783	0.072075	0.828499
O17	O	0.372116	0.405408	1.161832
O18	O	0.705450	0.738742	1.495165
O19	O	0.021805	0.072067	1.060870
O20	O	0.355138	0.405400	1.394203
O21	O	0.688471	0.738733	1.727536
Cu22	Cu	0.030616	0.085243	0.945249
Cu23	Cu	0.363949	0.418576	1.278582
Cu24	Cu	0.697283	0.751910	1.611916
Cu25	Cu	0.026445	-0.085361	0.937931
Cu26	Cu	0.359778	0.247972	1.271265
Cu27	Cu	0.693111	0.581305	1.604598
O28	O	0.100948	0.072052	0.937445
O29	O	0.434282	0.405386	1.270778
O30	O	0.767615	0.738719	1.604111
C31	C	0.037889	-0.000054	0.795686
C32	C	0.371222	0.333280	1.129019
C33	C	0.704555	0.666613	1.462352
C34	C	0.040473	-0.000050	0.707133
C35	C	0.373807	0.333284	1.040466
C36	C	0.707140	0.666617	1.373799
C37	C	-0.060121	-0.000038	0.948532
C38	C	0.273212	0.333296	1.281866
C39	C	0.606546	0.666629	1.615199
C40	C	-0.113745	-0.000029	0.947637
C41	C	0.219588	0.333305	1.280970
C42	C	0.552921	0.666638	1.614304
N43	N	0.033549	0.205237	0.950402
N44	N	0.366883	0.538570	1.283735
N45	N	0.700216	0.871903	1.617069
C46	C	-0.448186	-0.078707	0.938626
C47	C	-0.114852	0.254626	1.271960
C48	C	0.218481	0.587960	1.605293
C49	C	-0.649724	-0.078722	0.935224
C50	C	-0.316390	0.254611	1.268557
C51	C	0.016943	0.587944	1.601891
O52	O	-0.677413	-0.145600	0.931881
O53	O	-0.344079	0.187734	1.265215
O54	O	-0.010746	0.521067	1.598548
N55	N	-0.673003	-0.000087	0.938175
N56	N	-0.339670	0.333246	1.271508
N57	N	-0.006337	0.666580	1.604841
C58	C	-0.645894	0.078558	0.941971
C59	C	-0.312561	0.411891	1.275304
C60	C	0.020772	0.745225	1.608637
O61	O	-0.670318	0.145442	0.944394
O62	O	-0.336985	0.478775	1.277727
O63	O	-0.003652	0.812108	1.611061
C64	C	-0.444357	0.078572	0.945367
C65	C	-0.111023	0.411905	1.278701
C66	C	0.222310	0.745239	1.612034
C67	C	-0.421081	-0.000068	0.942425
C68	C	-0.087747	0.333265	1.275758
C69	C	0.245586	0.666598	1.609091
C70	C	-0.424909	-0.157341	0.935683
C71	C	-0.091576	0.175992	1.269016
C72	C	0.241757	0.509325	1.602350
C73	C	-0.374528	-0.157337	0.936538
C74	C	-0.041195	0.175997	1.269871
C75	C	0.292138	0.509330	1.603205
C76	C	-0.347424	-0.078698	0.940336
C77	C	-0.014090	0.254635	1.273669
C78	C	0.319243	0.587969	1.607003
C79	C	-0.370700	-0.000064	0.943279
C80	C	-0.037366	0.333270	1.276613
C81	C	0.295967	0.666603	1.609946
C82	C	-0.417248	0.157216	0.949157
C83	C	-0.083915	0.490549	1.282491
C84	C	0.249419	0.823883	1.615824
C85	C	-0.366860	0.157213	0.950004
C86	C	-0.033527	0.490546	1.283338
C87	C	0.299806	0.823879	1.616671
C88	C	-0.343584	0.078572	0.947062
C89	C	-0.010251	0.411905	1.280395
C90	C	0.323082	0.745239	1.613728
C91	C	-0.293214	0.078579	0.947933
C92	C	0.040119	0.411913	1.281266
C93	C	0.373453	0.745246	1.614599
N94	N	-0.269934	-0.000056	0.944982
N95	N	0.063399	0.333277	1.278315
N96	N	0.396732	0.666611	1.611649
C97	C	-0.297039	-0.078695	0.941184
C98	C	0.036294	0.254639	1.274517
C99	C	0.369627	0.587972	1.607850
C100	C	-0.751705	0.078545	0.940189
C101	C	-0.418372	0.411878	1.273522
C102	C	-0.085038	0.745212	1.606856
C103	C	-0.802089	0.078542	0.939341
C104	C	-0.468756	0.411875	1.272675
C105	C	-0.135423	0.745208	1.606008
C106	C	-0.805915	-0.078739	0.932593
C107	C	-0.472582	0.254594	1.265927
C108	C	-0.139248	0.587928	1.599260
C109	C	-0.755530	-0.078735	0.933447
C110	C	-0.422197	0.254599	1.266780
C111	C	-0.088864	0.587932	1.600113
C112	C	-0.728425	-0.000090	0.937238
C113	C	-0.395092	0.333243	1.270572
C114	C	-0.061759	0.666576	1.603905
C115	C	-0.191235	-0.078679	0.942980
C116	C	0.142098	0.254654	1.276313
C117	C	0.475431	0.587988	1.609647
C118	C	-0.140850	-0.078667	0.943839
C119	C	0.192483	0.254666	1.277172
C120	C	0.525817	0.587999	1.610505
C121	C	-0.137028	0.078612	0.950583
C122	C	0.196305	0.411946	1.283916
C123	C	0.529638	0.745279	1.617249
C124	C	-0.187410	0.078601	0.949728
C125	C	0.145924	0.411935	1.283062
C126	C	0.479257	0.745268	1.616395
C127	C	-0.214512	-0.000051	0.945924
C128	C	0.118821	0.333282	1.279257
C129	C	0.452155	0.666615	1.612591
O130	O	-0.265494	0.145422	0.951265
O131	O	0.067840	0.478755	1.284599
O132	O	0.401173	0.812089	1.617932
O133	O	-0.272604	-0.145569	0.938743
O134	O	0.060729	0.187765	1.272077
O135	O	0.394063	0.521098	1.605410
C136	C	-0.498567	-0.078712	0.937771
C137	C	-0.165233	0.254622	1.271105
C138	C	0.168100	0.587955	1.604438
C139	C	-0.521843	-0.000078	0.940715
C140	C	-0.188509	0.333256	1.274048
C141	C	0.144824	0.666589	1.607381
C142	C	-0.494738	0.078561	0.944513
C143	C	-0.161405	0.411894	1.277846
C144	C	0.171929	0.745228	1.611180
C145	C	-0.572227	-0.000081	0.939867
C146	C	-0.238894	0.333252	1.273200
C147	C	0.094440	0.666586	1.606534
C148	C	-0.599332	-0.078720	0.936069
C149	C	-0.265999	0.254614	1.269402
C150	C	0.067335	0.587947	1.602736
C151	C	-0.576052	-0.157355	0.933118
C152	C	-0.242719	0.175978	1.266452
C153	C	0.090614	0.509312	1.599785
C154	C	-0.525671	-0.157350	0.933973
C155	C	-0.192338	0.175983	1.267307
C156	C	0.140995	0.509316	1.600640
C157	C	-0.518017	0.157197	0.947463
C158	C	-0.184684	0.490530	1.280797
C159	C	0.148649	0.823863	1.614130
C160	C	-0.568399	0.157186	0.946609
C161	C	-0.235065	0.490519	1.279942
C162	C	0.098268	0.823852	1.613276
C163	C	-0.595504	0.078547	0.942811
C164	C	-0.262170	0.411880	1.276144
C165	C	0.071163	0.745213	1.609478
C166	C	0.117182	-0.000083	0.934648
C167	C	0.450515	0.333251	1.267981
C168	C	0.783848	0.666584	1.601315
C169	C	0.170806	-0.000097	0.935543
C170	C	0.504139	0.333236	1.268876
C171	C	0.837472	0.666570	1.602210
N172	N	0.023507	-0.205355	0.932785
N173	N	0.356841	0.127978	1.266118
N174	N	0.690174	0.461312	1.599451
C175	C	0.049812	0.749235	0.978848
C176	C	0.383146	1.082568	1.312181
C177	C	0.716479	1.415902	1.645515
C178	C	0.047590	0.658428	0.974956
C179	C	0.380924	0.991762	1.308289
C180	C	0.714257	1.325095	1.641622
C181	C	0.019060	0.613034	0.925004
C182	C	0.352394	0.946367	1.258337
C183	C	0.685727	1.279700	1.591670
C184	C	-0.007246	0.658450	0.878935
C185	C	0.326088	0.991783	1.212268
C186	C	0.659421	1.325117	1.545602
C187	C	-0.005021	0.749255	0.882824
C188	C	0.328313	1.082588	1.216157
C189	C	0.661646	1.415922	1.549490
C190	C	0.009468	0.341458	0.908222
C191	C	0.342802	0.674791	1.241555
C192	C	0.676135	1.008125	1.574889
C193	C	0.007244	0.250647	0.904339
C194	C	0.340577	0.583980	1.237672
C195	C	0.673911	0.917313	1.571005
C196	C	0.062081	0.250631	1.000359
C197	C	0.395415	0.583965	1.333692
C198	C	0.728748	0.917298	1.667025
C199	C	0.064301	0.341438	1.004246
C200	C	0.397635	0.674771	1.337580
C201	C	0.730968	1.008105	1.670913
C202	C	0.037998	0.386846	0.958175
C203	C	0.371331	0.720180	1.291508
C204	C	0.704664	1.053513	1.624841
N205	N	0.016787	0.520215	0.921026
N206	N	0.350121	0.853548	1.254359
N207	N	0.683454	1.186881	1.587692
N208	N	0.040274	0.479664	0.962149
N209	N	0.373607	0.812997	1.295482
N210	N	0.706940	1.146330	1.628815
C211	C	0.059807	-0.000087	0.207587
C212	C	0.393140	0.333246	0.540920
C213	C	0.726474	0.666580	0.874253
C214	C	0.057375	-0.000086	0.290792
C215	C	0.390708	0.333248	0.624126
C216	C	0.724041	0.666581	0.957459
C217	C	0.011723	-0.000067	0.342458
C218	C	0.345056	0.333266	0.675792
C219	C	0.678389	0.666599	1.009125
C220	C	-0.031500	-0.000059	0.310914
C221	C	0.301833	0.333274	0.644247
C222	C	0.635166	0.666608	0.977581
C223	C	-0.029068	-0.000066	0.227709
C224	C	0.304265	0.333267	0.561042
C225	C	0.637599	0.666600	0.894376
C226	C	-0.000317	-0.000049	0.592384
C227	C	0.333016	0.333284	0.925717
C228	C	0.666349	0.666618	1.259050
C229	C	-0.002746	-0.000039	0.675594
C230	C	0.330587	0.333295	1.008927
C231	C	0.663920	0.666628	1.342260
C232	C	0.086129	-0.000067	0.655466
C233	C	0.419462	0.333266	0.988800
C234	C	0.752796	0.666599	1.322133
C235	C	0.088558	-0.000070	0.572261
C236	C	0.421891	0.333264	0.905594
C237	C	0.755224	0.666597	1.238928
C238	C	0.045335	-0.000066	0.540724
C239	C	0.378668	0.333268	0.874057
C240	C	0.712001	0.666601	1.207390
N241	N	0.009236	-0.000063	0.427508
N242	N	0.342569	0.333270	0.760842
N243	N	0.675902	0.666603	1.094175
N244	N	0.047822	-0.000076	0.455675
N245	N	0.381155	0.333257	0.789008
N246	N	0.714489	0.666591	1.122341
C247	C	0.019172	-0.000066	1.087495
C248	C	0.352505	0.333267	1.420828
C249	C	0.685838	0.666600	1.754161
C250	C	0.016587	-0.000076	1.176047
C251	C	0.349920	0.333257	1.509381
C252	C	0.683254	0.666591	1.842714
H253	H	-0.121902	-0.142709	0.941444
H254	H	0.211432	0.190624	1.274777
H255	H	0.544765	0.523958	1.608111
H256	H	-0.446973	-0.221382	0.932587
H257	H	-0.113640	0.111951	1.265920
H258	H	0.219694	0.445285	1.599254
H259	H	-0.827993	-0.142770	0.929501
H260	H	-0.494659	0.190564	1.262835
H261	H	-0.161326	0.523897	1.596168
F262	F	-0.018527	0.389774	0.859188
F263	F	0.314806	0.723107	1.192521
F264	F	0.648140	1.056440	1.525855
F265	F	0.132127	-0.000076	0.689037
F266	F	0.465460	0.333257	1.022370
F267	F	0.798793	0.666590	1.355704
H268	H	-0.035512	-0.000043	0.566717
H269	H	0.297821	0.333290	0.900050
H270	H	0.631154	0.666623	1.233383
H271	H	0.125732	-0.000087	0.530199
H272	H	0.459066	0.333246	0.863532
H273	H	0.792399	0.666579	1.196866
F274	F	-0.075068	-0.000055	0.194144
F275	F	0.258265	0.333279	0.527477
F276	F	0.591598	0.666612	0.860810
F277	F	-0.037607	0.610135	0.825768
F278	F	0.295726	0.943469	1.159101
F279	F	0.629060	1.276802	1.492434
H280	H	-0.026440	0.786227	0.845312
H281	H	0.306893	1.119560	1.178645
H282	H	0.640227	1.452893	1.511979
H283	H	-0.213296	-0.142726	0.939878
H284	H	0.120038	0.190608	1.273212
H285	H	0.453371	0.523941	1.606545
F286	F	0.108397	-0.000100	0.152607
F287	F	0.441730	0.333233	0.485940
F288	F	0.775064	0.666567	0.819274
F289	F	-0.338016	0.240919	0.954040
F290	F	-0.004683	0.574252	1.287373
F291	F	0.328651	0.907586	1.620706
F292	F	0.090075	0.202298	1.049386
F293	F	0.423408	0.535631	1.382719
F294	F	0.756742	0.868965	1.716052
H295	H	-0.039924	-0.000028	0.717659
H296	H	0.293409	0.333305	1.050992
H297	H	0.626743	0.666639	1.384326
F298	F	-0.023136	0.202336	0.851191
F299	F	0.310197	0.535669	1.184524
F300	F	0.643531	0.869003	1.517858
F301	F	-0.489176	0.240899	0.951500
F302	F	-0.155843	0.574233	1.284833
F303	F	0.177491	0.907566	1.618167
F304	F	0.103375	-0.000102	0.324354
F305	F	0.436709	0.333232	0.657688
F306	F	0.770042	0.666565	0.991021
F307	F	0.075602	0.610104	1.023961
F308	F	0.408936	0.943437	1.357294
F309	F	0.742269	1.276770	1.690628
F310	F	-0.080087	-0.000042	0.365902
F311	F	0.253246	0.333291	0.699236
F312	F	0.586579	0.666624	1.032569
H313	H	-0.355582	-0.221374	0.934139
H314	H	-0.022248	0.111959	1.267472
H315	H	0.311085	0.445293	1.600805
F316	F	-0.212184	0.162299	0.952875
F317	F	0.121149	0.495632	1.286208
F318	F	0.454482	0.828965	1.619541
F319	F	-0.826857	0.162241	0.942488
F320	F	-0.493524	0.495575	1.275821
F321	F	-0.160191	0.828908	1.609154
F322	F	-0.730763	-0.162434	0.930313
F323	F	-0.397430	0.170900	1.263646
F324	F	-0.064096	0.504233	1.596980
F325	F	-0.722863	0.162255	0.944221
F326	F	-0.389530	0.495588	1.277554
F327	F	-0.056197	0.828921	1.610887
H328	H	0.087533	0.378392	1.044924
H329	H	0.420866	0.711726	1.378257
H330	H	0.754200	1.045059	1.711590
F331	F	-0.442008	0.240918	0.952286
F332	F	-0.108675	0.574251	1.285620
F333	F	0.224658	0.907584	1.618953
H334	H	-0.114951	0.142638	0.953679
H335	H	0.218382	0.475971	1.287012
H336	H	0.551716	0.809305	1.620345
H337	H	-0.506725	-0.221388	0.931577
H338	H	-0.173392	0.111946	1.264910
H339	H	0.159942	0.445279	1.598243
F340	F	-0.604909	-0.241048	0.929080
F341	F	-0.271575	0.092285	1.262414
F342	F	0.061758	0.425618	1.595747
H343	H	-0.587346	0.221229	0.949012
H344	H	-0.254013	0.554562	1.282345
H345	H	0.079321	0.887896	1.615679
F346	F	0.080176	0.797539	1.032019
F347	F	0.413509	1.130873	1.365352
F348	F	0.746842	1.464206	1.698685
