data_functionalizedCrystal
_audit_creation_method	'MofGen! by Chris Wilmer'
_symmetry_space_group_name_H-M	'P1'
_symmetry_Int_Tables_number	1
_symmetry_cell_setting	triclinic
loop_
_symmetry_equiv_pos_as_xyz
  x,y,z
_cell_length_a	19.288865
_cell_length_b	19.288840
_cell_length_c	18.366186
_cell_angle_alpha	89.983729
_cell_angle_beta	89.988521
_cell_angle_gamma	83.131131
loop_
_atom_site_label
_atom_site_type_symbol
_atom_site_fract_x
_atom_site_fract_y
_atom_site_fract_z
O1	O	0.086566	0.921364	-0.060680
O2	O	0.098273	0.719101	-0.060655
O3	O	-0.008712	0.826077	-0.060654
O4	O	0.193550	0.814388	-0.060681
O5	O	-0.008717	0.826059	0.060446
O6	O	0.098268	0.719083	0.060444
O7	O	0.086561	0.921346	0.060420
Zn8	Zn	0.092413	0.820211	0.079659
Zn9	Zn	0.092420	0.820235	-0.079895
O10	O	0.193545	0.814370	0.060418
C11	C	-0.034591	0.825692	-0.000102
C12	C	-0.111694	0.824563	-0.000095
C13	C	0.097896	0.693215	-0.000102
C14	C	0.096774	0.616110	-0.000093
C15	C	-0.156396	0.887331	-0.000099
C16	C	-0.228843	0.886270	-0.000111
C17	C	-0.256585	0.822438	-0.000103
C18	C	-0.211873	0.759661	-0.000104
C19	C	-0.139428	0.760723	-0.000100
C20	C	-0.364870	0.772251	0.042321
C21	C	-0.437314	0.771191	0.042321
C22	C	-0.480030	0.819158	-0.000119
C23	C	-0.450295	0.868196	-0.042551
C24	C	-0.377849	0.869259	-0.042547
C25	C	-0.335139	0.821278	-0.000108
C26	C	-0.603288	0.880781	-0.000137
C27	C	-0.675736	0.879717	-0.000153
C28	C	-0.658764	0.753106	-0.000138
C29	C	-0.586318	0.754171	-0.000130
C30	C	-0.558584	0.818010	-0.000125
C31	C	0.096238	0.579917	-0.066106
C32	C	0.095176	0.507470	-0.066114
C33	C	0.094636	0.471221	-0.000106
C34	C	0.095176	0.507423	0.065915
C35	C	0.096245	0.579868	0.065922
C36	C	0.052256	0.361886	0.050461
C37	C	0.051183	0.289443	0.050451
C38	C	0.091342	0.247778	-0.000125
C39	C	0.132566	0.278565	-0.050703
C40	C	0.133635	0.351009	-0.050697
C41	C	0.093477	0.392667	-0.000107
C42	C	0.089655	0.133029	-0.066152
C43	C	0.088598	0.060580	-0.066158
C44	C	0.088591	0.060535	0.065874
C45	C	0.089656	0.132982	0.065878
C46	C	0.090185	0.169225	-0.000137
C47	C	0.219424	0.814755	-0.000135
C48	C	0.296527	0.815884	-0.000147
C49	C	0.086937	0.947232	-0.000135
C50	C	0.088059	1.024336	-0.000149
N51	N	0.092408	0.820200	0.188550
N52	N	0.092420	0.820252	-0.188786
C53	C	0.045059	0.867584	0.226651
C54	C	0.045055	0.867589	0.302879
C55	C	0.092414	0.820215	0.341003
C56	C	0.139767	0.772822	0.302893
C57	C	0.139764	0.772814	0.226666
C58	C	0.155702	0.810917	0.461755
C59	C	0.155706	0.810930	0.537980
C60	C	0.092422	0.820235	0.576110
C61	C	0.029132	0.829543	0.538006
C62	C	0.029129	0.829535	0.461780
C63	C	0.092422	0.820218	0.423658
C64	C	0.045066	0.867627	0.696866
C65	C	0.045062	0.867627	0.773096
C66	C	0.139779	0.772863	0.773108
C67	C	0.139777	0.772860	0.696880
C68	C	0.092421	0.820246	0.658764
H69	H	-0.133820	0.939314	-0.000098
N70	N	0.094616	0.470412	0.133348
N71	N	0.095091	0.502740	0.192286
H72	H	0.094698	0.476602	0.239913
H73	H	-0.712132	0.930833	-0.000160
H74	H	0.017613	0.264383	0.091632
N75	N	-0.687104	0.687907	-0.000139
N76	N	-0.751788	0.686966	-0.000147
H77	H	-0.771807	0.640917	-0.000151
H78	H	0.088165	0.031112	-0.119916
H79	H	0.178322	0.734228	0.195644
N80	N	-0.321244	0.723260	0.085691
N81	N	-0.283601	0.744493	0.134265
H82	H	-0.252791	0.709894	0.164896
H83	H	-0.549920	0.703058	-0.000122
N84	N	0.173615	0.236001	-0.102341
N85	N	0.238479	0.235413	-0.103373
H86	H	0.267473	0.205345	-0.139835
H87	H	-0.353642	0.909186	-0.077098
H88	H	-0.580706	0.932763	-0.000137
N89	N	-0.467709	0.721121	0.085665
N90	N	-0.510913	0.741177	0.134228
H91	H	-0.532384	0.705818	0.164840
H92	H	-0.234465	0.707687	-0.000099
H93	H	0.019552	0.395805	0.091649
H94	H	-0.103030	0.709608	-0.000096
N95	N	0.220348	0.801431	0.422805
N96	N	0.235807	0.847783	0.380250
H97	H	0.281461	0.841085	0.352739
H98	H	0.090088	0.162452	0.119633
N99	N	0.096779	0.616926	-0.133542
N100	N	0.096301	0.584595	-0.192479
H101	H	0.096683	0.610733	-0.240108
H102	H	0.006497	0.906167	0.195619
N103	N	0.094628	0.470499	-0.133555
N104	N	0.095101	0.502867	-0.192489
H105	H	0.094712	0.476759	-0.240120
N106	N	-0.003321	0.915969	0.657876
N107	N	-0.046337	0.893992	0.615361
H108	H	-0.080512	0.928117	0.587807
N109	N	-0.274506	0.950396	-0.000101
N110	N	-0.272105	0.992885	0.050949
H111	H	-0.304353	1.038174	0.050958
H112	H	0.178326	0.734249	0.333937
H113	H	-0.022404	0.837112	0.430759
H114	H	0.167202	0.376073	-0.091878
H115	H	0.006496	0.906176	0.333907
N116	N	0.090196	0.170044	-0.133587
N117	N	0.089723	0.137715	-0.192525
H118	H	0.090104	0.163855	-0.240153
H119	H	0.088156	0.031022	0.119619
H120	H	-0.022400	0.837120	0.569050
H121	H	0.096683	0.609336	0.119680
H122	H	0.207241	0.803355	0.568999
N123	N	-0.003318	0.916030	0.812006
N124	N	-0.045594	0.958330	0.777962
H125	H	-0.079764	0.992517	0.805442
H126	H	0.178336	0.734288	0.804147
H127	H	0.178336	0.734278	0.665856
H128	H	-0.485073	0.907255	-0.077111
