data_functionalizedCrystal
_audit_creation_method	'MofGen! by Chris Wilmer'
_symmetry_space_group_name_H-M	'P1'
_symmetry_Int_Tables_number	1
_symmetry_cell_setting	triclinic
loop_
_symmetry_equiv_pos_as_xyz
  x,y,z
_cell_length_a	12.759401
_cell_length_b	13.897448
_cell_length_c	12.759393
_cell_angle_alpha	89.966654
_cell_angle_beta	89.981504
_cell_angle_gamma	90.017853
loop_
_atom_site_label
_atom_site_type_symbol
_atom_site_fract_x
_atom_site_fract_y
_atom_site_fract_z
Zn1	Zn	1.606234	-0.383954	-0.593968
Zn2	Zn	1.606119	-0.545283	-0.418283
Zn3	Zn	1.430536	-0.384004	-0.418308
Zn4	Zn	1.430515	-0.545209	-0.593924
O5	O	1.518351	-0.464613	-0.506121
O6	O	1.753239	-0.405365	-0.570671
O7	O	1.582788	-0.523942	-0.271265
O8	O	1.453899	-0.249016	-0.441638
O9	O	1.753155	-0.523893	-0.441596
O10	O	1.582983	-0.248979	-0.570695
O11	O	1.453788	-0.405451	-0.271283
O12	O	1.283512	-0.405379	-0.441596
O13	O	1.453864	-0.523766	-0.740951
O14	O	1.283497	-0.523815	-0.570621
O15	O	1.582964	-0.405293	-0.740984
O16	O	1.582768	-0.680255	-0.441554
O17	O	1.453753	-0.680201	-0.570597
C18	C	1.245383	-0.464595	-0.506107
C19	C	1.128607	-0.464611	-0.506125
C20	C	1.073764	-0.526379	-0.573198
C21	C	0.964040	-0.526391	-0.573209
C22	C	0.964011	-0.402864	-0.439067
C23	C	1.073733	-0.402847	-0.439062
C24	C	1.128638	-0.588142	-0.640261
C25	C	1.073796	-0.649917	-0.707338
C26	C	0.964072	-0.649929	-0.707349
C27	C	0.909190	-0.588167	-0.640284
C28	C	1.518274	-0.715227	-0.506090
C29	C	1.518337	-0.822441	-0.506113
C30	C	1.518448	-1.018736	-0.506178
C31	C	1.518383	-0.909503	-0.506145
C32	C	1.792384	-0.464631	-0.506136
C33	C	1.909161	-0.464639	-0.506142
C34	C	1.518424	-0.464515	-0.780154
C35	C	1.518456	-0.464474	-0.896931
C36	C	1.518456	-0.213020	-0.506174
C37	C	1.518501	-0.105806	-0.506197
C38	C	1.585687	-0.402779	-0.951812
C39	C	1.585712	-0.402744	-1.061536
C40	C	1.451271	-0.526107	-1.061489
C41	C	1.451242	-0.526137	-0.951767
C42	C	1.652901	-0.341116	-0.896976
C43	C	1.720139	-0.279417	-0.951856
C44	C	1.720164	-0.279382	-1.061580
C45	C	1.652951	-0.341046	-1.116424
C46	C	1.518338	-0.464640	-0.233154
C47	C	1.518510	-0.464410	-0.116377
H48	H	0.919317	-0.352581	-0.384465
O49	O	1.785385	-0.219604	-0.898424
C50	C	1.770929	-0.232843	-0.789811
H51	H	1.736489	-0.307287	-0.774800
H52	H	1.714994	-0.175636	-0.758688
C53	C	1.919521	-0.132590	-0.751926
C54	C	1.877229	-0.224027	-0.733489
H55	H	1.985090	-0.127148	-0.717182
H56	H	1.929259	-0.123667	-0.825100
H57	H	1.872899	-0.084927	-0.725989
H58	H	1.923845	-0.271687	-0.759437
H59	H	1.867501	-0.232957	-0.660317
H60	H	1.652964	-0.341002	-1.205769
O61	O	0.910681	-0.709976	-0.772361
C62	C	0.847196	-0.772234	-0.712428
H63	H	0.830731	-0.738126	-0.632877
H64	H	0.889464	-0.843697	-0.700739
C65	C	0.763216	-0.831670	-0.867915
C66	C	0.742985	-0.789774	-0.770213
H67	H	0.698935	-0.842494	-0.903561
H68	H	0.805989	-0.789729	-0.908294
H69	H	0.798442	-0.891218	-0.858161
H70	H	0.707772	-0.730222	-0.779969
H71	H	0.700203	-0.831706	-0.729837
H72	H	1.396480	-0.576359	-0.907082
H73	H	1.118386	-0.352543	-0.384454
O74	O	1.127218	-0.709772	-0.772537
C75	C	1.190706	-0.654920	-0.840511
H76	H	1.207143	-0.581779	-0.803596
H77	H	1.148454	-0.644411	-0.918393
C78	C	1.274739	-0.797835	-0.904763
C79	C	1.294935	-0.708004	-0.859418
H80	H	1.339030	-0.830580	-0.916431
H81	H	1.231963	-0.834790	-0.858970
H82	H	1.239526	-0.789065	-0.969660
H83	H	1.330134	-0.716776	-0.794517
H84	H	1.337719	-0.671051	-0.905201
H85	H	1.774904	-0.229136	-1.106261
H86	H	1.396549	-0.576311	-1.106152
H87	H	0.819845	-0.588173	-0.640308
H88	H	1.217981	-0.588141	-0.640258
H89	H	1.652890	-0.341139	-0.807633
