data_functionalizedCrystal
_audit_creation_method	'MofGen! by Chris Wilmer'
_symmetry_space_group_name_H-M	'P1'
_symmetry_Int_Tables_number	1
_symmetry_cell_setting	triclinic
loop_
_symmetry_equiv_pos_as_xyz
  x,y,z
_cell_length_a	19.805407
_cell_length_b	16.625546
_cell_length_c	19.805399
_cell_angle_alpha	89.972133
_cell_angle_beta	89.980427
_cell_angle_gamma	90.022468
loop_
_atom_site_label
_atom_site_type_symbol
_atom_site_fract_x
_atom_site_fract_y
_atom_site_fract_z
Zn1	Zn	1.034754	-0.321020	-0.382718
Zn2	Zn	1.534754	0.178980	0.117282
Zn3	Zn	1.034677	-0.455857	-0.269529
Zn4	Zn	1.534677	0.044143	0.230471
Zn5	Zn	0.921569	-0.321043	-0.269543
Zn6	Zn	1.421569	0.178957	0.230457
Zn7	Zn	0.921540	-0.455815	-0.382676
Zn8	Zn	1.421540	0.044185	0.117324
O9	O	0.978135	-0.388434	-0.326117
O10	O	1.478135	0.111566	0.173883
O11	O	1.129461	-0.338915	-0.367716
O12	O	1.629461	0.161085	0.132284
O13	O	1.019652	-0.438001	-0.174815
O14	O	1.519652	0.061999	0.325185
O15	O	0.936628	-0.208207	-0.284579
O16	O	1.436628	0.291793	0.215421
O17	O	1.129404	-0.437980	-0.284556
O18	O	1.629404	0.062020	0.215444
O19	O	1.019784	-0.208191	-0.367729
O20	O	1.519784	0.291809	0.132271
O21	O	0.936553	-0.338953	-0.174825
O22	O	1.436553	0.161047	0.325175
O23	O	0.826848	-0.338912	-0.284538
O24	O	1.326848	0.161088	0.215462
O25	O	0.936579	-0.437907	-0.477398
O26	O	1.436579	0.062093	0.022602
O27	O	0.826827	-0.437928	-0.367657
O28	O	1.326827	0.062072	0.132343
O29	O	1.019756	-0.338874	-0.477429
O30	O	1.519756	0.161126	0.022571
O31	O	1.019625	-0.568684	-0.284515
O32	O	1.519625	-0.068684	0.215485
O33	O	0.936504	-0.568653	-0.367644
O34	O	1.436504	-0.068653	0.132356
C35	C	0.802279	-0.388418	-0.326095
C36	C	1.302279	0.111582	0.173905
C37	C	0.727047	-0.388431	-0.326102
C38	C	1.227047	0.111569	0.173898
C39	C	0.691710	-0.440067	-0.369311
C40	C	1.191710	0.059933	0.130689
C41	C	0.621021	-0.440068	-0.369321
C42	C	1.121021	0.059932	0.130679
C43	C	0.585671	-0.388437	-0.326117
C44	C	1.085671	0.111563	0.173883
C45	C	0.621014	-0.336796	-0.282905
C46	C	1.121014	0.163204	0.217095
C47	C	0.691701	-0.336791	-0.282899
C48	C	1.191701	0.163209	0.217101
C49	C	0.335941	-0.336814	-0.282927
C50	C	0.835941	0.163186	0.217073
C51	C	0.265248	-0.336825	-0.282935
C52	C	0.765248	0.163175	0.217065
C53	C	0.265261	-0.440091	-0.369349
C54	C	0.765261	0.059909	0.130651
C55	C	0.335948	-0.440086	-0.369343
C56	C	0.835948	0.059914	0.130657
C57	C	0.371284	-0.388442	-0.326134
C58	C	0.871284	0.111558	0.173866
C59	C	0.447932	-0.388440	-0.326125
C60	C	0.947932	0.111560	0.173875
C61	C	0.509024	-0.388443	-0.326122
C62	C	1.009024	0.111557	0.173878
C63	C	0.978071	-0.597925	-0.326088
C64	C	1.478071	-0.097925	0.173912
C65	C	0.978105	-0.687546	-0.326099
C66	C	1.478105	-0.187546	0.173901
C67	C	0.978224	-1.015721	-0.326169
C68	C	1.478224	-0.515721	0.173831
C69	C	0.978189	-0.924413	-0.326152
C70	C	1.478189	-0.424413	0.173848
C71	C	0.978164	-0.851636	-0.326134
C72	C	1.478164	-0.351636	0.173866
C73	C	0.978130	-0.760322	-0.326117
C74	C	1.478130	-0.260322	0.173883
C75	C	1.154678	-0.388450	-0.326139
C76	C	1.654678	0.111550	0.173861
C77	C	1.229910	-0.388457	-0.326149
C78	C	1.729910	0.111543	0.173851
C79	C	0.978173	-0.388383	-0.502660
C80	C	1.478173	0.111617	-0.002660
C81	C	0.978189	-0.388361	-0.577892
C82	C	1.478189	0.111639	-0.077892
C83	C	0.978218	-0.178125	-0.326160
C84	C	1.478218	0.321875	0.173840
C85	C	0.978253	-0.088504	-0.326178
C86	C	1.478253	0.411496	0.173822
C87	C	1.021501	-0.336792	-0.613253
C88	C	1.521501	0.163208	-0.113253
C89	C	1.021508	-0.336769	-0.683941
C90	C	1.521508	0.163231	-0.183941
C91	C	0.978206	-0.388319	-0.719267
C92	C	1.478206	0.111681	-0.219267
C93	C	0.934889	-0.439890	-0.683901
C94	C	1.434889	0.060110	-0.183901
C95	C	0.934880	-0.439909	-0.613214
C96	C	1.434880	0.060091	-0.113214
C97	C	0.934928	-0.439815	-0.968974
C98	C	1.434928	0.060185	-0.468974
C99	C	0.934942	-0.439794	-1.039667
C100	C	1.434942	0.060206	-0.539667
C101	C	1.021556	-0.336675	-1.039702
C102	C	1.521556	0.163325	-0.539702
C103	C	1.021546	-0.336694	-0.969015
C104	C	1.521546	0.163306	-0.469015
C105	C	0.978227	-0.388262	-0.933655
C106	C	1.478227	0.111738	-0.433655
C107	C	0.978219	-0.388285	-0.857006
C108	C	1.478219	0.111715	-0.357006
C109	C	0.978217	-0.388300	-0.795914
C110	C	1.478217	0.111700	-0.295914
C111	C	0.978136	-0.388426	-0.150261
C112	C	1.478136	0.111574	0.349739
C113	C	0.978251	-0.388221	-0.075029
C114	C	1.478251	0.111779	0.424971
H115	H	0.364726	-0.482132	-0.404522
H116	H	0.864726	0.017868	0.095478
H117	H	0.899604	-0.481894	-0.584423
H118	H	1.399604	0.018106	-0.084423
C119	C	1.059974	-0.290919	-0.860672
C120	C	1.559974	0.209081	-0.360672
C121	C	1.069133	-0.280016	-0.930184
C122	C	1.569133	0.219984	-0.430184
H123	H	1.089352	-0.255924	-0.836702
H124	H	1.589352	0.244076	-0.336702
H125	H	1.014501	-0.279129	-0.849093
H126	H	1.514501	0.220871	-0.349093
H127	H	1.069870	-0.345096	-0.849080
H128	H	1.569870	0.154904	-0.349080
H129	H	1.059233	-0.225840	-0.941778
H130	H	1.559233	0.274160	-0.441778
H131	H	1.114617	-0.291799	-0.941769
H132	H	1.614617	0.208201	-0.441769
H133	H	1.056826	-0.294683	-1.068501
H134	H	1.556826	0.205317	-0.568501
C135	C	1.054517	-0.200268	-0.591527
C136	C	1.554517	0.299732	-0.091527
C137	C	1.069098	-0.280123	-0.574426
C138	C	1.569098	0.219877	-0.074426
H139	H	1.083899	-0.165282	-0.567555
H140	H	1.583899	0.334718	-0.067555
H141	H	1.060723	-0.192884	-0.638681
H142	H	1.560723	0.307116	-0.138681
H143	H	1.009041	-0.188479	-0.579931
H144	H	1.509041	0.311521	-0.079931
H145	H	1.114573	-0.291914	-0.586026
H146	H	1.614573	0.208086	-0.086026
H147	H	1.062899	-0.287511	-0.527261
H148	H	1.562899	0.212489	-0.027261
H149	H	0.592253	-0.482116	-0.404506
H150	H	1.092253	0.017884	0.095494
H151	H	0.899678	-0.481774	-1.068427
H152	H	1.399678	0.018226	-0.568427
C153	C	1.030960	-0.228273	-0.763441
C154	C	1.530960	0.271727	-0.263441
C155	C	1.069114	-0.280072	-0.722804
C156	C	1.569114	0.219928	-0.222804
H157	H	1.060351	-0.193263	-0.787427
H158	H	1.560351	0.306737	-0.287427
H159	H	1.005183	-0.258968	-0.794598
H160	H	1.505183	0.241032	-0.294598
H161	H	1.001478	-0.197449	-0.735853
H162	H	1.501478	0.302551	-0.235853
H163	H	1.098593	-0.310901	-0.750392
H164	H	1.598593	0.189099	-0.250392
H165	H	1.094903	-0.249374	-0.691643
H166	H	1.594903	0.250626	-0.191643
H167	H	0.236469	-0.294776	-0.247753
H168	H	0.736469	0.205224	0.252247
C169	C	0.684614	-0.542137	-0.454737
C170	C	1.184614	-0.042137	0.045263
C171	C	0.730563	-0.496819	-0.416806
C172	C	1.230563	0.003181	0.083194
H173	H	0.708601	-0.577168	-0.484063
H174	H	1.208601	-0.077168	0.015937
H175	H	0.657025	-0.572935	-0.425204
H176	H	1.157025	-0.072935	0.074796
H177	H	0.657062	-0.507038	-0.480679
H178	H	1.157062	-0.007038	0.019321
H179	H	0.758111	-0.531918	-0.390861
H180	H	1.258111	-0.031918	0.109139
H181	H	0.758163	-0.466018	-0.446343
H182	H	1.258163	0.033982	0.053657
C183	C	0.849299	-0.541726	-0.976050
C184	C	1.349299	-0.041726	-0.476050
C185	C	0.887304	-0.496488	-0.930113
C186	C	1.387304	0.003512	-0.430113
H187	H	0.819896	-0.576714	-0.952054
H188	H	1.319896	-0.076714	-0.452054
H189	H	0.823442	-0.506580	-1.003629
H190	H	1.323442	-0.006580	-0.503629
H191	H	0.878786	-0.572576	-1.003612
H192	H	1.378786	-0.072576	-0.503612
H193	H	0.857817	-0.465634	-0.902553
H194	H	1.357817	0.034366	-0.402553
H195	H	0.913163	-0.531638	-0.902522
H196	H	1.413163	-0.031638	-0.402522
C197	C	0.156907	-0.485953	-0.407743
C198	C	0.656907	0.014047	0.092257
C199	C	0.226417	-0.496852	-0.416854
C200	C	0.726417	0.003148	0.083146
H201	H	0.132930	-0.520992	-0.437072
H202	H	0.632930	-0.020992	0.062928
H203	H	0.145301	-0.497683	-0.362255
H204	H	0.645301	0.002317	0.137745
H205	H	0.145350	-0.431792	-0.417734
H206	H	0.645350	0.068208	0.082266
H207	H	0.237975	-0.551012	-0.406857
H208	H	0.737975	-0.051012	0.093143
H209	H	0.238028	-0.485127	-0.462352
H210	H	0.738028	0.014873	0.037648
H211	H	0.899630	-0.481861	-0.712669
H212	H	1.399630	0.018139	-0.212669
H213	H	0.364703	-0.294769	-0.247739
H214	H	0.864703	0.205231	0.252261
H215	H	0.592226	-0.294754	-0.247730
H216	H	1.092226	0.205246	0.252270
H217	H	0.720472	-0.294740	-0.247717
H218	H	1.220472	0.205260	0.252283
