data_functionalizedCrystal
_audit_creation_method	'MofGen! by Chris Wilmer'
_symmetry_space_group_name_H-M	'P1'
_symmetry_Int_Tables_number	1
_symmetry_cell_setting	triclinic
loop_
_symmetry_equiv_pos_as_xyz
  x,y,z
_cell_length_a	14.519731
_cell_length_b	10.654550
_cell_length_c	9.730223
_cell_angle_alpha	90.004253
_cell_angle_beta	89.996618
_cell_angle_gamma	95.913108
loop_
_atom_site_label
_atom_site_type_symbol
_atom_site_fract_x
_atom_site_fract_y
_atom_site_fract_z
O1	O	1.224708	-0.164750	-0.114292
O2	O	0.956334	-0.184109	-0.114295
O3	O	1.096692	0.008368	-0.114285
O4	O	1.084351	-0.357227	-0.114302
O5	O	1.096682	0.008374	0.114295
O6	O	0.956325	-0.184104	0.114285
O7	O	1.224699	-0.164745	0.114287
Zn8	Zn	1.090511	-0.174423	0.150578
Zn9	Zn	1.090523	-0.174430	-0.150585
O10	O	1.084342	-0.357222	0.114278
C11	C	0.921965	-0.183199	-0.000005
C12	C	0.819571	-0.180481	-0.000005
C13	C	0.736416	-0.178272	-0.000011
C14	C	0.632093	-0.175513	-0.000011
C15	C	0.548942	-0.173322	-0.000011
C16	C	0.444612	-0.170563	-0.000014
C17	C	1.095781	0.055160	0.000004
C18	C	1.093070	0.194578	0.000002
C19	C	1.259068	-0.165655	-0.000005
C20	C	1.361462	-0.168373	-0.000014
C21	C	1.085252	-0.404014	-0.000015
C22	C	1.087963	-0.543432	-0.000021
N23	N	1.090509	-0.174418	0.356115
C24	C	1.175710	0.274850	0.000002
C25	C	1.173157	0.405846	-0.000014
C26	C	1.005317	0.376286	-0.000026
C27	C	1.007871	0.245293	-0.000019
N28	N	1.090531	-0.174426	-0.356122
C29	C	1.152681	-0.089225	0.428045
C30	C	1.152690	-0.089225	0.571928
C31	C	1.028353	-0.259623	0.571938
C32	C	1.028340	-0.259616	0.428057
H33	H	1.245085	0.233562	0.000017
Br34	Br	0.889695	0.445122	-0.000058
H35	H	1.203314	-0.019852	0.630490
Br36	Br	0.943951	-0.375233	0.330426
Br37	Br	0.943986	-0.375246	0.669579
Br38	Br	1.237051	0.026402	0.330414
H39	H	0.940571	0.179931	-0.000023
H40	H	1.240451	0.471199	-0.000017
