data_functionalizedCrystal
_audit_creation_method	'MofGen! by Chris Wilmer'
_symmetry_space_group_name_H-M	'P1'
_symmetry_Int_Tables_number	1
_symmetry_cell_setting	triclinic
loop_
_symmetry_equiv_pos_as_xyz
  x,y,z
_cell_length_a	10.654550
_cell_length_b	14.971494
_cell_length_c	9.730223
_cell_angle_alpha	89.997316
_cell_angle_beta	89.999957
_cell_angle_gamma	84.051244
loop_
_atom_site_label
_atom_site_type_symbol
_atom_site_fract_x
_atom_site_fract_y
_atom_site_fract_z
O1	O	1.666497	0.125631	-0.114182
O2	O	2.166497	0.625631	0.385818
O3	O	1.300890	0.137600	-0.114206
O4	O	1.800890	0.637600	0.385794
O5	O	1.493487	0.001469	-0.114190
O6	O	1.993487	0.501469	0.385810
O7	O	1.473900	0.261761	-0.114198
O8	O	1.973900	0.761761	0.385802
O9	O	1.493475	0.001465	0.114390
O10	O	1.993475	0.501465	0.614390
O11	O	1.300878	0.137596	0.114374
O12	O	1.800878	0.637596	0.614374
O13	O	1.666484	0.125627	0.114398
O14	O	2.166484	0.625627	0.614398
Zn15	Zn	1.483679	0.131611	0.150678
Zn16	Zn	1.983679	0.631611	0.650678
Zn17	Zn	1.483695	0.131616	-0.150486
Zn18	Zn	1.983695	0.631616	0.349514
O19	O	1.473887	0.261758	0.114382
O20	O	1.973887	0.761758	0.614382
C21	C	1.254095	0.136719	0.000080
C22	C	1.754095	0.636719	0.500080
C23	C	1.114680	0.134090	0.000071
C24	C	1.614680	0.634090	0.500071
C25	C	1.492603	-0.031862	0.000098
C26	C	1.992603	0.468138	0.500098
C27	C	1.489972	-0.131173	0.000091
C28	C	1.989972	0.368827	0.500091
C29	C	1.034338	0.214241	0.000073
C30	C	1.534338	0.714241	0.500073
C31	C	0.903344	0.211765	0.000097
C32	C	1.403344	0.711765	0.500097
C33	C	0.933047	0.048979	0.000112
C34	C	1.433047	0.548979	0.500112
C35	C	1.064038	0.051456	0.000097
C36	C	1.564038	0.551456	0.500097
C37	C	1.488746	-0.177823	-0.124510
C38	C	1.988746	0.322177	0.375490
C39	C	1.486266	-0.271135	-0.124511
C40	C	1.986266	0.228865	0.375489
C41	C	1.485022	-0.317798	0.000089
C42	C	1.985022	0.182202	0.500089
C43	C	1.486244	-0.271141	0.124699
C44	C	1.986244	0.228859	0.624699
C45	C	1.488715	-0.177830	0.124699
C46	C	1.988715	0.322170	0.624699
C47	C	1.481097	-0.465632	0.124689
C48	C	1.981097	0.034368	0.624689
C49	C	1.478628	-0.558951	0.124690
C50	C	1.978628	-0.058951	0.624690
C51	C	1.478648	-0.558938	-0.124521
C52	C	1.978648	-0.058938	0.375479
C53	C	1.481119	-0.465626	-0.124521
C54	C	1.981119	0.034374	0.375479
C55	C	1.482344	-0.418977	0.000090
C56	C	1.982344	0.081023	0.500090
C57	C	1.713279	0.126507	0.000109
C58	C	2.213279	0.626507	0.500109
C59	C	1.852694	0.129137	0.000109
C60	C	2.352694	0.629137	0.500109
C61	C	1.474771	0.295089	0.000091
C62	C	1.974771	0.795089	0.500091
C63	C	1.477402	0.394400	0.000089
C64	C	1.977402	0.894400	0.500089
N65	N	1.483677	0.131607	0.356214
N66	N	1.983677	0.631607	0.856214
N67	N	1.483707	0.131613	-0.356022
N68	N	1.983707	0.631613	0.143978
C69	C	1.568988	0.071354	0.428147
C70	C	2.068988	0.571354	0.928147
C71	C	1.569000	0.071354	0.572030
C72	C	2.069000	0.571354	1.072030
C73	C	1.398387	0.191869	0.572035
C74	C	1.898387	0.691869	1.072035
C75	C	1.398370	0.191863	0.428154
C76	C	1.898370	0.691863	0.928154
H77	H	1.075566	0.281527	0.000061
H78	H	1.575566	0.781527	0.500061
C79	C	1.304574	0.258191	0.349023
C80	C	1.804574	0.758191	0.849023
N81	N	1.233949	0.308160	0.289422
N82	N	1.733949	0.808160	0.789422
H83	H	1.129457	-0.013817	0.000100
H84	H	1.629457	0.486183	0.500100
H85	H	1.482142	-0.427637	-0.225982
H86	H	1.982142	0.072363	0.274018
H87	H	1.638449	0.022288	0.369577
H88	H	2.138449	0.522288	0.869577
H89	H	1.485223	-0.309140	0.226151
H90	H	1.985223	0.190860	0.726151
H91	H	1.638467	0.022290	0.630594
H92	H	2.138467	0.522290	1.130594
C93	C	1.304552	0.258145	0.651182
C94	C	1.804552	0.758145	1.151182
N95	N	1.233873	0.308066	0.710794
N96	N	1.733873	0.808066	1.210794
H97	H	0.837934	0.277033	0.000101
H98	H	1.337934	0.777033	0.500101
C99	C	1.490068	-0.126516	0.261770
C100	C	1.990068	0.373484	0.761770
N101	N	1.491083	-0.087868	0.365016
N102	N	1.991083	0.412132	0.865016
H103	H	0.891797	-0.018299	0.000141
H104	H	1.391797	0.481701	0.500141
C105	C	1.490115	-0.126503	-0.261582
C106	C	1.990115	0.373497	0.238418
N107	N	1.491140	-0.087851	-0.364830
N108	N	1.991140	0.412149	0.135170
H109	H	1.477648	-0.596924	-0.225984
H110	H	1.977648	-0.096924	0.274016
C111	C	1.477250	-0.610277	0.261756
C112	C	1.977250	-0.110277	0.761756
N113	N	1.476209	-0.648935	0.364997
N114	N	1.976209	-0.148935	0.864997
C115	C	1.485033	-0.322455	-0.261582
C116	C	1.985033	0.177545	0.238418
N117	N	1.484144	-0.361113	-0.364830
N118	N	1.984144	0.138887	0.135170
H119	H	1.482067	-0.427651	0.226161
H120	H	1.982067	0.072349	0.726161
