data_functionalizedCrystal
_audit_creation_method	'MofGen! by Chris Wilmer'
_symmetry_space_group_name_H-M	'P1'
_symmetry_Int_Tables_number	1
_symmetry_cell_setting	triclinic
loop_
_symmetry_equiv_pos_as_xyz
  x,y,z
_cell_length_a	12.594517
_cell_length_b	12.594516
_cell_length_c	14.908854
_cell_angle_alpha	86.675285
_cell_angle_beta	93.287506
_cell_angle_gamma	90.007702
loop_
_atom_site_label
_atom_site_type_symbol
_atom_site_fract_x
_atom_site_fract_y
_atom_site_fract_z
Zn1	Zn	1.592569	-0.389119	-0.509896
Zn2	Zn	1.602747	-0.577398	-0.359044
Zn3	Zn	1.424845	-0.399419	-0.359075
Zn4	Zn	1.414569	-0.567044	-0.509882
O5	O	1.508682	-0.483245	-0.434474
O6	O	1.742865	-0.414117	-0.489878
O7	O	1.587709	-0.562432	-0.232803
O8	O	1.447135	-0.249105	-0.379101
O9	O	1.750343	-0.552445	-0.379048
O10	O	1.570360	-0.241538	-0.489908
O11	O	1.457005	-0.431671	-0.232826
O12	O	1.274536	-0.421632	-0.379087
O13	O	1.429620	-0.534799	-0.636129
O14	O	1.266986	-0.544786	-0.489884
O15	O	1.560396	-0.404078	-0.636139
O16	O	1.577744	-0.724971	-0.379034
O17	O	1.439490	-0.717365	-0.489854
C18	C	1.232140	-0.483204	-0.434488
C19	C	1.113833	-0.483210	-0.434515
C20	C	1.040512	-0.550341	-0.494661
C21	C	0.968186	-0.451785	-0.516849
C22	C	0.975363	-0.581848	-0.412307
C23	C	1.043062	-0.384599	-0.456746
C24	C	1.050247	-0.514731	-0.352166
C25	C	0.977955	-0.416110	-0.374323
C26	C	1.508634	-0.759787	-0.434458
C27	C	1.508709	-0.878091	-0.434482
C28	C	1.583983	-0.951438	-0.374271
C29	C	1.604386	-1.016532	-0.456610
C30	C	1.488436	-1.023792	-0.352195
C31	C	1.529158	-0.941623	-0.516864
C32	C	1.413167	-0.948881	-0.412393
C33	C	1.433528	-1.013939	-0.494789
C34	C	1.786304	-0.483287	-0.434461
C35	C	1.904610	-0.483305	-0.434455
C36	C	1.492726	-0.467135	-0.669783
C37	C	1.485927	-0.460269	-0.770058
C38	C	1.508758	-0.205622	-0.434510
C39	C	1.508791	-0.087315	-0.434525
C40	C	1.609277	-0.583526	-0.958462
C41	C	1.602891	-0.577079	-1.052679
C42	C	1.466777	-0.440923	-1.052710
C43	C	1.473163	-0.447370	-0.958493
C44	C	1.544413	-0.518675	-0.911373
C45	C	1.550793	-0.525127	-0.817154
C46	C	1.414685	-0.388966	-0.817187
C47	C	1.408300	-0.382519	-0.911404
C48	C	1.524638	-0.499216	-0.200081
C49	C	1.531643	-0.505781	-0.099807
H50	H	1.068113	-0.606990	-0.545590
H51	H	1.332360	-0.919093	-0.393662
Br52	Br	0.932274	-0.321448	-0.289502
Br53	Br	1.370102	-0.344146	-1.116675
H54	H	1.086130	-0.541385	-0.282571
H55	H	1.361867	-0.336161	-0.778836
H56	H	1.647647	-0.923854	-0.323399
H57	H	1.608814	-0.583183	-0.778790
H58	H	0.932325	-0.425158	-0.586464
H59	H	1.685218	-1.046299	-0.475317
Br60	Br	1.557967	-0.882003	-0.632912
Br61	Br	1.327479	-1.059578	-0.579780
H62	H	1.072716	-0.301193	-0.475583
Br63	Br	1.311612	-0.285748	-0.975361
H64	H	1.667297	-0.641581	-0.920096
Br65	Br	0.925705	-0.720813	-0.381041
Br66	Br	1.459799	-1.083644	-0.236182
H67	H	1.655711	-0.629886	-1.091016
