data_functionalizedCrystal
_audit_creation_method	'MofGen! by Chris Wilmer'
_symmetry_space_group_name_H-M	'P1'
_symmetry_Int_Tables_number	1
_symmetry_cell_setting	triclinic
loop_
_symmetry_equiv_pos_as_xyz
  x,y,z
_cell_length_a	19.377369
_cell_length_b	19.377372
_cell_length_c	19.377372
_cell_angle_alpha	93.588494
_cell_angle_beta	62.058157
_cell_angle_gamma	62.069167
loop_
_atom_site_label
_atom_site_type_symbol
_atom_site_fract_x
_atom_site_fract_y
_atom_site_fract_z
Zr1	Zr	0.939463	0.435549	-0.001256
O2	O	1.070589	0.306590	-0.082286
O3	O	0.808337	0.485587	0.000849
O4	O	0.987395	0.437727	-0.130266
O5	O	0.853721	0.380253	0.178116
O6	O	1.025205	0.529222	-0.142252
O7	O	0.891531	0.354449	0.048829
O8	O	0.704902	0.614833	0.092289
O9	O	1.174023	0.294641	-0.056425
O10	O	0.890487	0.562517	0.020269
O11	O	0.834053	0.513493	0.125699
O12	O	1.044871	0.457145	-0.028672
O13	O	0.988437	0.408120	0.076759
Zr14	Zr	0.939461	0.622626	0.185824
Zr15	Zr	0.999764	0.581473	-0.020373
Zr16	Zr	0.879160	0.476703	0.204941
Zr17	Zr	1.104428	0.416492	0.039989
Zr18	Zr	0.774496	0.641683	0.144579
O19	O	1.070587	0.572589	0.183718
O20	O	1.156330	0.514074	-0.109468
O21	O	0.984846	0.365105	0.210900
O22	O	0.808335	0.751585	0.266854
O23	O	0.894078	0.693071	-0.026333
O24	O	0.722594	0.544101	0.294036
O25	O	1.025203	0.677923	0.006452
O26	O	0.891529	0.620448	0.314834
O27	O	0.853719	0.528953	0.326820
O28	O	0.987393	0.703726	0.135738
O29	O	1.221955	0.410631	-0.071621
O30	O	0.656969	0.647545	0.256188
O31	O	0.704901	0.763534	0.240993
O32	O	0.752834	0.730823	0.077093
O33	O	1.126090	0.327352	0.107474
O34	O	1.174022	0.443342	0.092279
O35	O	0.834053	0.601031	0.213239
O36	O	0.890487	0.650055	0.107809
O37	O	1.044871	0.544683	0.058868
O38	O	0.988437	0.495658	0.164299
C39	C	0.733115	0.552925	0.040692
C40	C	0.663083	0.561015	0.023183
C41	C	0.285198	0.460015	0.240999
C42	C	0.219319	0.467724	0.224603
C43	C	0.278242	0.518902	0.114541
C44	C	0.344123	0.511202	0.130931
C45	C	0.347595	0.481757	0.194161
C46	C	0.406521	0.532943	0.084093
C47	C	0.472400	0.525238	0.100479
C48	C	0.475881	0.495793	0.163703
C49	C	0.413474	0.474052	0.210547
C50	C	0.403052	0.562382	0.020860
C51	C	0.465450	0.584123	-0.025979
C52	C	0.531326	0.576424	-0.009589
C53	C	0.534807	0.546979	0.053635
C54	C	0.593732	0.598165	-0.056433
C55	C	0.659611	0.590460	-0.040047
C56	C	0.600686	0.539274	0.070021
C57	C	0.864034	0.346560	0.116196
C58	C	0.838434	0.284612	0.124312
C59	C	1.157167	-0.194140	0.023268
C60	C	1.133091	-0.252335	0.030902
C61	C	0.971926	-0.142325	0.081992
C62	C	0.995988	-0.084118	0.074366
C63	C	1.088610	-0.110033	0.045003
C64	C	0.927430	-0.000011	0.096101
C65	C	0.951492	0.058189	0.088472
C66	C	1.044110	0.032282	0.059108
C67	C	1.112671	-0.051833	0.037374
C68	C	0.834810	0.025901	0.125459
C69	C	0.766253	0.110008	0.147194
C70	C	0.790312	0.168211	0.139570
C71	C	0.882930	0.142304	0.110206
C72	C	0.721751	0.252326	0.161305
C73	C	0.745812	0.310526	0.153675
C74	C	0.906992	0.200505	0.102577
C75	C	1.145808	0.505250	0.143875
C76	C	1.215840	0.497160	0.161385
C77	C	1.014892	0.477611	-0.165638
C78	C	1.040492	0.460141	-0.253174
C79	C	1.014890	0.711615	0.068371
C80	C	1.040490	0.773564	0.060256
C81	C	0.721756	0.677675	-0.413338
C82	C	0.745831	0.661241	-0.495598
C83	C	0.906996	0.551240	-0.546679
C84	C	0.882935	0.567667	-0.464422
C85	C	0.790313	0.630885	-0.397757
C86	C	0.951493	0.520878	-0.448841
C87	C	0.927433	0.537301	-0.366591
C88	C	0.834815	0.600514	-0.299922
C89	C	0.766253	0.647309	-0.315507
C90	C	1.044113	0.457656	-0.515507
C91	C	1.112671	0.410867	-0.499925
C92	C	1.088613	0.427294	-0.417675
C93	C	0.995994	0.490507	-0.351006
C94	C	1.157174	0.380499	-0.402089
C95	C	1.133114	0.396923	-0.319839
C96	C	0.971934	0.506930	-0.268755
C97	C	0.864032	0.580564	0.350206
C98	C	0.838432	0.598035	0.437742
C99	C	0.808543	0.735453	0.016780
C100	C	0.764111	0.805491	-0.008845
C101	C	0.657686	0.604402	0.298614
C102	C	0.562053	0.629962	0.368641
C103	C	0.733114	0.786929	0.274702
C104	C	0.663081	0.874438	0.336613
C105	C	1.145810	0.271246	-0.090134
C106	C	1.215843	0.183737	-0.152045
C107	C	1.070380	0.322722	0.167788
C108	C	1.114813	0.252684	0.193413
C109	C	1.221238	0.453774	-0.114046
C110	C	1.316871	0.428213	-0.184073
C111	C	0.743248	0.792686	-0.066583
C112	C	0.701511	0.858485	-0.090677
C113	C	0.680632	0.937089	-0.057028
C114	C	0.701501	0.949892	0.000713
C115	C	0.743243	0.884093	0.024801
C116	C	0.517141	0.687662	0.447230
C117	C	0.427290	0.711677	0.513038
C118	C	0.382350	0.677996	0.500253
C119	C	0.427271	0.620290	0.421657
C120	C	0.517123	0.596271	0.355852
C121	C	0.659653	0.941130	0.310652
C122	C	0.593864	1.023357	0.368818
C123	C	0.531499	1.038891	0.452942
C124	C	0.534930	0.972192	0.478903
C125	C	0.600723	0.889966	0.420739
C126	C	1.219279	0.117044	-0.126082
C127	C	1.285088	0.034815	-0.184243
C128	C	1.347457	0.019280	-0.268366
C129	C	1.344021	0.085980	-0.294329
C130	C	1.278217	0.168208	-0.236168
C131	C	1.135685	0.265486	0.251144
C132	C	1.177447	0.199682	0.275220
C133	C	1.198329	0.121077	0.241568
C134	C	1.177456	0.108275	0.183831
C135	C	1.135702	0.174077	0.159751
C136	C	1.361783	0.461909	-0.171264
C137	C	1.451634	0.437908	-0.237058
C138	C	1.496574	0.380206	-0.315658
C139	C	1.451654	0.346509	-0.328466
C140	C	1.361802	0.370515	-0.262675
H141	H	0.416300	0.450076	0.262035
H142	H	1.569738	0.360665	-0.369222
H143	H	1.325205	0.508893	-0.107269
H144	H	1.275424	0.222508	-0.257318
H145	H	0.689981	0.379015	0.171390
Br146	Br	0.802155	0.622799	-0.188293
Br147	Br	0.771578	0.686016	-0.112265
H148	H	1.188926	-0.320823	0.013198
H149	H	0.529528	0.489516	0.177041
H150	H	0.982406	0.179406	0.078695
H151	H	1.168497	0.129678	-0.057589
Br152	Br	1.512662	0.268192	-0.435141
H153	H	0.760222	0.894531	0.071820
H154	H	0.603501	0.835668	0.441888
H155	H	0.309187	0.697561	0.553843
H156	H	0.553719	0.715094	0.457655
H157	H	0.275408	0.542873	0.063057
H158	H	0.462616	0.608094	-0.077463
H159	H	1.232328	0.067503	0.261182
H160	H	1.325243	0.343069	-0.273115
H161	H	0.646642	0.990660	-0.076649
H162	H	0.591080	1.077657	0.347665
H163	H	0.349412	0.568648	0.007516
Br164	Br	1.205799	0.001592	0.138171
H165	H	0.710419	0.608163	-0.078188
H166	H	0.896514	-0.121236	0.105897
H167	H	1.394810	0.073321	-0.362829
H168	H	0.690833	0.698791	-0.261223
Br169	Br	0.366268	0.574588	0.404320
Br170	Br	1.076771	0.111266	0.048746
Br171	Br	1.107374	0.156689	0.081403
Br172	Br	1.512579	0.483644	-0.219655
H173	H	0.603511	0.515298	0.121510
Br174	Br	1.289733	-0.055691	-0.148991
Br175	Br	1.107358	0.372156	0.296824
Br176	Br	1.238370	-0.086994	-0.002462
H177	H	1.194433	0.210122	0.322235
Br178	Br	0.673156	1.056575	0.046374
Br179	Br	0.366345	0.789993	0.619694
Br180	Br	0.596065	0.763501	-0.322860
H181	H	0.690841	0.131097	0.171099
Br182	Br	1.282866	-0.229301	-0.016567
Br183	Br	0.596059	0.287481	0.201138
H184	H	0.288023	0.436039	0.292487
Br185	Br	0.134639	0.438208	0.288172
Br186	Br	0.578063	0.517965	0.249196
Br187	Br	1.032690	0.465441	-0.637157
Br188	Br	0.442212	1.150490	0.531870
H189	H	0.484144	0.984853	0.547405
Br190	Br	0.802158	-0.053089	0.135800
Br191	Br	0.652776	0.724747	-0.516739
H192	H	0.710426	0.928497	0.242156
Br193	Br	1.436759	-0.092320	-0.347290
H194	H	1.063699	0.444286	-0.582478
Br195	Br	0.589022	0.638107	-0.142252
H196	H	1.188082	0.359393	-0.554214
Br197	Br	1.226161	0.333432	-0.298690
Br198	Br	1.282864	0.294694	-0.492568
H199	H	0.896514	0.558412	-0.214472
Br200	Br	0.673196	0.841091	-0.169037
