data_functionalizedCrystal
_audit_creation_method	'MofGen! by Chris Wilmer'
_symmetry_space_group_name_H-M	'P1'
_symmetry_Int_Tables_number	1
_symmetry_cell_setting	triclinic
loop_
_symmetry_equiv_pos_as_xyz
  x,y,z
_cell_length_a	12.759401
_cell_length_b	12.759400
_cell_length_c	12.759393
_cell_angle_alpha	90.028927
_cell_angle_beta	90.019684
_cell_angle_gamma	90.013398
loop_
_atom_site_label
_atom_site_type_symbol
_atom_site_fract_x
_atom_site_fract_y
_atom_site_fract_z
Zn1	Zn	1.606258	-0.418229	0.594034
Zn2	Zn	1.606154	-0.593948	0.418362
Zn3	Zn	1.430560	-0.418281	0.418370
Zn4	Zn	1.430550	-0.593864	0.594000
O5	O	1.518381	-0.506080	0.506191
O6	O	1.753266	-0.441552	0.570742
O7	O	1.582822	-0.570702	0.271342
O8	O	1.453915	-0.271253	0.441689
O9	O	1.753189	-0.570652	0.441676
O10	O	1.583000	-0.271215	0.570749
O11	O	1.453814	-0.441640	0.271348
O12	O	1.283538	-0.441559	0.441656
O13	O	1.453898	-0.570509	0.741026
O14	O	1.283531	-0.570559	0.570691
O15	O	1.582990	-0.441471	0.741050
O16	O	1.582812	-0.740958	0.441643
O17	O	1.453797	-0.740896	0.570684
C18	C	1.245413	-0.506056	0.506171
C19	C	1.128637	-0.506071	0.506188
C20	C	1.518320	-0.779048	0.506182
C21	C	1.518391	-0.895824	0.506213
C22	C	1.073748	-0.438812	0.439123
C23	C	0.964024	-0.438837	0.439136
C24	C	0.964087	-0.573383	0.573289
C25	C	1.073809	-0.573362	0.573269
C26	C	1.128575	-0.371521	0.372042
C27	C	1.073686	-0.304256	0.304972
C28	C	0.963962	-0.304281	0.304986
C29	C	0.909127	-0.371571	0.372069
C30	C	1.451198	-0.950693	0.573351
C31	C	1.451254	-1.060417	0.573361
C32	C	1.585704	-1.060395	0.439092
C33	C	1.585642	-0.950673	0.439077
C34	C	1.383947	-0.895844	0.640487
C35	C	1.316749	-0.950712	0.707632
C36	C	1.316805	-1.060436	0.707642
C37	C	1.384058	-1.115292	0.640507
C38	C	1.792414	-0.506106	0.506212
C39	C	1.909191	-0.506116	0.506221
C40	C	1.518454	-0.505974	0.780225
C41	C	1.518486	-0.505929	0.897002
C42	C	1.518470	-0.232047	0.506224
C43	C	1.518508	-0.115271	0.506238
C44	C	1.518368	-0.506110	0.233224
C45	C	1.518540	-0.505859	0.116448
C46	C	1.585713	-0.438733	0.951878
C47	C	1.585738	-0.438695	1.061602
C48	C	1.451305	-0.573059	1.061563
C49	C	1.451276	-0.573091	0.951841
C50	C	1.663330	-0.361162	0.951902
C51	C	1.663355	-0.361124	1.061626
H52	H	1.217918	-0.371491	0.372026
O53	O	1.386176	-0.638414	1.114883
C54	C	1.372020	-0.780179	1.238780
C55	C	1.445898	-0.706243	1.178447
H56	H	1.420274	-0.835022	1.290203
H57	H	1.323986	-0.828290	1.180754
H58	H	1.317092	-0.731900	1.290106
H59	H	1.500889	-0.754441	1.127120
H60	H	1.493858	-0.658128	1.236530
O61	O	1.637292	-0.264053	0.916565
C62	C	1.590016	-0.087046	0.962417
C63	C	1.619468	-0.196973	1.002578
H64	H	1.575618	-0.032776	1.031938
H65	H	1.515867	-0.092294	0.912813
H66	H	1.656840	-0.054669	0.912755
H67	H	1.552712	-0.229414	1.052284
H68	H	1.693650	-0.191659	1.052125
H69	H	1.262084	-1.105107	0.762307
H70	H	1.383896	-0.806501	0.640489
O71	O	1.650966	-0.897254	0.374008
C72	C	1.792789	-0.773316	0.359979
C73	C	1.718862	-0.833726	0.433794
H74	H	1.847716	-0.721956	0.408287
H75	H	1.744608	-0.721951	0.305012
H76	H	1.840821	-0.831385	0.311982
H77	H	1.670814	-0.775732	0.481859
H78	H	1.767103	-0.885107	0.488691
H79	H	1.740602	-0.390332	0.917869
O80	O	1.251327	-0.897593	0.772878
C81	C	1.118030	-0.909197	0.906109
C82	C	1.192049	-0.969481	0.832250
H83	H	1.070101	-0.967292	0.954146
H84	H	1.063020	-0.857923	0.857879
H85	H	1.166234	-0.857734	0.961034
H86	H	1.143930	-1.021001	0.777310
H87	H	1.247062	-1.020689	0.880546
H88	H	1.118340	-0.249477	0.250350
H89	H	1.118501	-0.628129	0.627880
H90	H	0.919432	-0.628165	0.627906
O91	O	1.628460	-0.268980	1.102293
C92	C	1.499683	-0.183177	1.210530
C93	C	1.539085	-0.287592	1.164527
H94	H	1.427432	-0.198191	1.260874
H95	H	1.478568	-0.127380	1.144042
H96	H	1.563938	-0.146665	1.260792
H97	H	1.474878	-0.324195	1.114277
H98	H	1.560231	-0.343317	1.231065
H99	H	1.384095	-1.204637	0.640518
O100	O	1.651015	-1.113841	0.374001
C101	C	1.710687	-1.282866	0.314513
C102	C	1.636673	-1.222472	0.388287
H103	H	1.699102	-1.370705	0.326022
H104	H	1.795398	-1.261281	0.333056
H105	H	1.692303	-1.261312	0.229781
H106	H	1.654963	-1.243994	0.473043
H107	H	1.551985	-1.244062	0.369654
O108	O	1.385999	-0.638260	0.898371
C109	C	1.326412	-0.697900	0.729322
C110	C	1.400377	-0.624023	0.789746
H111	H	1.338027	-0.686430	0.641488
H112	H	1.241687	-0.679423	0.750816
H113	H	1.344818	-0.782602	0.750942
H114	H	1.382066	-0.539296	0.768158
H115	H	1.485080	-0.642589	0.768247
O116	O	1.760471	-0.387192	1.096988
C117	C	1.937428	-0.434591	1.051180
C118	C	1.827495	-0.405105	1.010991
H119	H	1.991654	-0.449060	0.981673
H120	H	1.932167	-0.508707	1.100765
H121	H	1.969867	-0.367753	1.100868
H122	H	1.794992	-0.471874	0.961260
H123	H	1.832823	-0.330957	0.961463
H124	H	0.819782	-0.371591	0.372069
O125	O	0.910804	-0.238849	0.239802
C126	C	0.922327	-0.105437	0.106699
C127	C	0.982656	-0.179475	0.180481
H128	H	0.980393	-0.057429	0.058703
H129	H	0.871011	-0.050501	0.154986
H130	H	0.870902	-0.153632	0.051731
H131	H	1.034138	-0.131364	0.235463
H132	H	1.033905	-0.234414	0.132129
