data_functionalizedCrystal
_audit_creation_method	'MofGen! by Chris Wilmer'
_symmetry_space_group_name_H-M	'P1'
_symmetry_Int_Tables_number	1
_symmetry_cell_setting	triclinic
loop_
_symmetry_equiv_pos_as_xyz
  x,y,z
_cell_length_a	14.971482
_cell_length_b	10.654554
_cell_length_c	13.448316
_cell_angle_alpha	89.996485
_cell_angle_beta	89.993798
_cell_angle_gamma	84.049726
loop_
_atom_site_label
_atom_site_type_symbol
_atom_site_fract_x
_atom_site_fract_y
_atom_site_fract_z
O1	O	1.187842	0.163637	-0.082672
O2	O	0.927548	0.183240	-0.082676
O3	O	1.063677	-0.009365	-0.082675
O4	O	1.051713	0.356241	-0.082673
O5	O	1.063660	-0.009377	0.082709
O6	O	0.927531	0.183228	0.082708
O7	O	1.187825	0.163625	0.082712
Cu8	Cu	1.057676	0.173425	0.097811
Cu9	Cu	1.057697	0.173439	-0.097775
O10	O	1.051695	0.356230	0.082711
C11	C	0.894210	0.182358	0.000015
C12	C	0.794898	0.179733	0.000013
C13	C	0.748238	0.178491	0.090165
C14	C	0.654926	0.176005	0.090166
C15	C	0.608275	0.174770	0.000014
C16	C	0.654943	0.176009	-0.090144
C17	C	0.748254	0.178486	-0.090144
C18	C	0.460453	0.170849	-0.090138
C19	C	0.367135	0.168374	-0.090138
C20	C	0.367124	0.168367	0.090173
C21	C	0.460435	0.170844	0.090173
C22	C	0.507097	0.172086	0.000013
C23	C	1.062789	-0.056159	0.000014
C24	C	1.060158	-0.195574	0.000007
C25	C	0.975060	-0.377221	0.000018
C26	C	0.977532	-0.246226	0.000009
C27	C	1.140319	-0.275924	0.000006
C28	C	1.137846	-0.406917	0.000008
C29	C	0.892428	-0.427866	0.000030
C30	C	0.812267	-0.347524	0.000030
C31	C	0.814739	-0.216529	0.000020
C32	C	0.897371	-0.165876	0.000010
C33	C	1.221163	0.164506	0.000018
C34	C	1.320474	0.167131	0.000013
C35	C	1.052583	0.403024	0.000019
C36	C	1.055214	0.542439	0.000020
N37	N	1.057668	0.173415	0.235375
N38	N	1.057712	0.173440	-0.235339
C39	C	1.117965	0.088164	0.287416
C40	C	1.117971	0.088163	0.391519
C41	C	1.057683	0.173420	0.443579
C42	C	0.997379	0.258674	0.391531
C43	C	0.997370	0.258668	0.287430
C44	C	0.997404	0.258682	0.608511
C45	C	0.997414	0.258690	0.712620
C46	C	1.118005	0.088178	0.712600
C47	C	1.117996	0.088172	0.608499
C48	C	1.057693	0.173428	0.556458
H49	H	0.786244	0.179500	-0.163555
H50	H	0.329128	0.167357	0.163583
H51	H	0.899377	-0.059210	-0.000002
H52	H	0.749468	-0.151118	0.000010
H53	H	0.948287	0.328087	0.433925
H54	H	1.207594	-0.234671	-0.000016
Cl55	Cl	0.708393	-0.411202	0.000027
H56	H	1.203115	-0.472332	0.000004
Cl57	Cl	0.596301	0.174411	-0.203479
Cl58	Cl	1.193765	-0.019016	0.221979
Cl59	Cl	0.889315	-0.592544	0.000047
H60	H	0.329155	0.167370	-0.163548
Cl61	Cl	1.193773	-0.019012	0.456943
Cl62	Cl	1.193792	-0.019000	0.543049
Cl63	Cl	1.193814	-0.018997	0.778026
Cl64	Cl	0.921618	0.365872	0.778060
H65	H	0.948269	0.328086	0.245059
Cl66	Cl	0.806874	0.180051	0.203506
Cl67	Cl	0.596268	0.174465	0.203505
H68	H	0.948296	0.328103	0.566143
H69	H	0.498415	0.171857	0.163582
H70	H	0.498441	0.171860	-0.163555
