data_functionalizedCrystal
_audit_creation_method	'MofGen! by Chris Wilmer'
_symmetry_space_group_name_H-M	'P1'
_symmetry_Int_Tables_number	1
_symmetry_cell_setting	triclinic
loop_
_symmetry_equiv_pos_as_xyz
  x,y,z
_cell_length_a	23.196402
_cell_length_b	14.560438
_cell_length_c	14.560438
_cell_angle_alpha	59.996693
_cell_angle_beta	89.999011
_cell_angle_gamma	59.999449
loop_
_atom_site_label
_atom_site_type_symbol
_atom_site_fract_x
_atom_site_fract_y
_atom_site_fract_z
Zr1	Zr	0.555376	1.005293	-0.120610
O2	O	0.463322	1.196907	-0.267267
O3	O	0.583595	0.813683	-0.075643
O4	O	0.583593	1.005294	-0.267259
O5	O	0.463327	1.005294	0.075490
O6	O	0.678464	1.005291	-0.267262
O7	O	0.463325	1.005296	-0.075651
O8	O	0.678468	0.662533	0.075505
O9	O	0.463323	1.348051	-0.267277
O10	O	0.666432	0.892491	-0.056477
O11	O	0.595632	0.892492	0.056320
O12	O	0.595630	1.118089	-0.169284
O13	O	0.524830	1.118090	-0.056487
Zr14	Zr	0.706690	1.005283	0.120437
Zr15	Zr	0.706686	1.005287	-0.120615
Zr16	Zr	0.555380	1.005289	0.120442
Zr17	Zr	0.555377	1.246350	-0.120625
Zr18	Zr	0.706688	0.764226	0.120453
O19	O	0.678471	1.196893	0.075470
O20	O	0.678465	1.196899	-0.267275
O21	O	0.463328	1.196902	0.075478
O22	O	0.798743	0.813669	0.267095
O23	O	0.798738	0.813674	-0.075650
O24	O	0.583600	0.813677	0.267102
O25	O	0.798739	1.005282	-0.075662
O26	O	0.678473	1.005282	0.267087
O27	O	0.583601	1.005285	0.267090
O28	O	0.798741	1.005280	0.075478
O29	O	0.583594	1.348046	-0.267281
O30	O	0.678471	0.662530	0.267109
O31	O	0.798742	0.662525	0.267105
O32	O	0.798739	0.662528	0.075501
O33	O	0.463326	1.348048	-0.075673
O34	O	0.583597	1.348043	-0.075677
O35	O	0.666436	0.892487	0.169112
O36	O	0.737236	0.892486	0.056315
O37	O	0.666433	1.118084	-0.056492
O38	O	0.595633	1.118085	0.056305
C39	C	0.631031	0.703763	-0.000067
C40	C	0.631031	0.601428	-0.000060
C41	C	0.578763	0.636645	-0.083341
C42	C	0.578766	0.540505	-0.083370
C43	C	0.683308	0.373931	0.083173
C44	C	0.683307	0.470070	0.083196
C45	C	0.441767	1.005296	-0.000080
C46	C	0.377532	1.005298	-0.000078
C47	C	0.347359	1.005309	-0.083348
C48	C	0.287008	1.005298	-0.083347
C49	C	0.256824	1.005301	-0.000086
C50	C	0.287008	1.005283	0.083199
C51	C	0.347362	1.005281	0.083203
C52	C	0.137450	1.080987	0.025855
C53	C	0.077095	1.080997	0.025843
C54	C	0.070674	1.005300	-0.000092
C55	C	0.124611	0.929610	-0.026039
C56	C	0.184965	0.929608	-0.026035
C57	C	0.191381	1.005302	-0.000080
C58	C	-0.024939	1.005296	-0.083366
C59	C	-0.085288	1.005276	-0.083359
C60	C	-0.085292	1.005275	0.083184
C61	C	-0.024939	1.005281	0.083180
C62	C	0.005232	1.005298	-0.000100
C63	C	0.820298	1.005280	-0.000093
C64	C	0.884533	1.005278	-0.000095
C65	C	0.631028	1.005293	-0.301606
C66	C	0.631026	1.005295	-0.403939
C67	C	0.631034	1.306814	-0.000106
C68	C	0.631035	1.409149	-0.000112
C69	C	0.594069	1.123053	-0.510899
C70	C	0.594077	1.123047	-0.607048
C71	C	0.668001	0.887514	-0.489262
C72	C	0.667997	0.887522	-0.393116
C73	C	0.631038	1.005283	0.301433
C74	C	0.631039	1.005281	0.403766
C75	C	0.820297	0.703755	-0.000073
C76	C	0.884531	0.601417	-0.000069
C77	C	0.631036	0.703757	0.301453
C78	C	0.631037	0.601421	0.403792
C79	C	0.820302	0.703750	0.301446
C80	C	0.884538	0.601410	0.403784
C81	C	0.441764	1.306826	-0.301619
C82	C	0.377528	1.409166	-0.403956
C83	C	0.441769	1.306821	-0.000099
C84	C	0.377534	1.409159	-0.000103
C85	C	0.631029	1.306819	-0.301625
C86	C	0.631028	1.409155	-0.403965
C87	C	0.877738	0.553361	-0.058953
C88	C	0.938087	0.457217	-0.058972
C89	C	1.005229	0.409125	-0.000098
C90	C	1.012021	0.457191	0.058788
C91	C	0.951673	0.553339	0.058799
C92	C	0.951667	0.553350	0.392963
C93	C	1.012029	0.457205	0.489111
C94	C	1.005261	0.409115	0.596078
C95	C	0.938125	0.457185	0.606896
C96	C	0.877764	0.553335	0.510749
C97	C	0.310399	1.457238	-0.393136
C98	C	0.250036	1.553413	-0.489283
C99	C	0.256805	1.601508	-0.596250
C100	C	0.323941	1.553432	-0.607068
C101	C	0.384302	1.457265	-0.510922
C102	C	0.384328	1.457225	0.058771
C103	C	0.323979	1.553396	0.058763
C104	C	0.256836	1.601491	-0.000114
C105	C	0.250044	1.553421	-0.058996
C106	C	0.310393	1.457259	-0.058993
C107	C	0.667996	0.553338	0.510748
C108	C	0.667989	0.457191	0.606903
C109	C	0.594064	0.457213	0.489133
C110	C	0.594067	0.553365	0.392980
H111	H	0.536204	0.569192	-0.151186
H112	H	0.725874	0.441383	0.151016
H113	H	0.823072	0.592517	-0.106909
H114	H	0.932543	0.418094	-0.106924
H115	H	0.698097	0.592467	0.519558
H116	H	0.725869	0.266972	0.150958
H117	H	0.195377	1.592540	-0.480453
H118	H	0.698100	0.791627	-0.480464
H119	H	1.066697	0.418020	0.106720
H120	H	0.563984	1.218937	-0.694136
H121	H	0.698083	0.418048	0.693988
H122	H	0.563965	0.418073	0.480343
H123	H	0.207649	1.679812	-0.674529
H124	H	-0.000372	1.005280	0.150983
H125	H	0.371924	1.005319	-0.151157
H126	H	0.262436	1.005306	-0.151158
H127	H	0.142695	1.142549	0.047068
H128	H	0.438960	1.418126	-0.519745
H129	H	0.438993	1.418073	0.106723
H130	H	0.228880	0.867976	-0.047159
H131	H	0.371930	1.005272	0.151013
H132	H	-0.000371	1.005304	-0.151176
H133	H	0.329523	1.592518	0.106716
H134	H	1.054363	0.330833	-0.000116
H135	H	0.957214	0.592454	0.106756
H136	H	0.932624	0.418016	0.694001
H137	H	0.207702	1.679792	-0.000107
H138	H	0.195369	1.592595	-0.106931
H139	H	0.563967	0.592518	0.305886
H140	H	0.304874	1.418084	-0.306047
H141	H	0.329443	1.592603	-0.694172
H142	H	-0.109854	1.005277	-0.151165
H143	H	0.536192	0.743599	-0.151128
H144	H	0.957191	0.592491	0.305874
H145	H	0.119385	0.867975	-0.047164
H146	H	0.033181	1.142633	0.046965
H147	H	-0.109864	1.005270	0.150981
H148	H	0.262430	1.005283	0.150994
H149	H	0.563965	1.218951	-0.519717
H150	H	0.698095	0.791623	-0.306018
H151	H	1.066689	0.418076	0.480283
H152	H	1.054416	0.330823	0.674357
H153	H	0.304852	1.418126	-0.106933
H154	H	0.823106	0.592453	0.519575
