data_functionalizedCrystal
_audit_creation_method	'MofGen! by Chris Wilmer'
_symmetry_space_group_name_H-M	'P1'
_symmetry_Int_Tables_number	1
_symmetry_cell_setting	triclinic
loop_
_symmetry_equiv_pos_as_xyz
  x,y,z
_cell_length_a	16.109318
_cell_length_b	16.109301
_cell_length_c	9.730223
_cell_angle_alpha	89.994178
_cell_angle_beta	90.000291
_cell_angle_gamma	83.465022
loop_
_atom_site_label
_atom_site_type_symbol
_atom_site_fract_x
_atom_site_fract_y
_atom_site_fract_z
O1	O	1.103121	0.106935	-0.114180
O2	O	0.861061	0.120220	-0.114208
O3	O	0.988741	-0.007453	-0.114179
O4	O	0.975442	0.234608	-0.114209
O5	O	0.988733	-0.007456	0.114401
O6	O	0.861053	0.120216	0.114372
O7	O	1.103113	0.106932	0.114400
Zn8	Zn	0.982082	0.113574	0.150678
Zn9	Zn	0.982093	0.113578	-0.150486
O10	O	0.975434	0.234605	0.114371
C11	C	0.830083	0.119677	0.000078
C12	C	0.737788	0.118057	0.000068
C13	C	0.988198	-0.038430	0.000111
C14	C	0.986583	-0.130725	0.000113
C15	C	0.438719	0.112823	-0.124506
C16	C	0.525440	0.114341	-0.124515
C17	C	0.525450	0.114326	0.124696
C18	C	0.438731	0.112802	0.124703
C19	C	0.395367	0.112056	0.000098
C20	C	0.568807	0.115096	0.000082
C21	C	0.662835	0.116742	0.000074
C22	C	0.301334	0.110409	0.000106
C23	C	1.058590	-0.352993	0.000100
C24	C	1.057066	-0.439713	0.000088
C25	C	0.905579	-0.419848	0.000076
C26	C	0.907104	-0.333130	0.000077
C27	C	0.983612	-0.299704	0.000096
C28	C	0.980563	-0.473144	0.000083
C29	C	0.978910	-0.567170	0.000071
C30	C	0.985265	-0.205672	0.000106
C31	C	1.134092	0.107474	0.000111
C32	C	1.226387	0.109095	0.000112
C33	C	0.975976	0.265581	0.000077
C34	C	0.977592	0.357877	0.000067
N35	N	0.982081	0.113570	0.356214
N36	N	0.982101	0.113575	-0.356022
C37	C	1.038636	0.057060	0.428153
C38	C	1.038645	0.057060	0.572036
C39	C	0.925539	0.170088	0.572029
C40	C	0.925527	0.170083	0.428148
H41	H	0.560733	0.114965	-0.225980
H42	H	1.084696	0.011044	0.630605
C43	C	0.573157	0.115172	0.261748
C44	C	0.551772	0.187120	0.364521
C45	C	0.599479	0.187977	0.501574
C46	C	0.668571	0.116887	0.535854
C47	C	0.689959	0.044933	0.433078
C48	C	0.642252	0.044076	0.296025
H49	H	0.500623	0.239751	0.339148
H50	H	0.583646	0.241242	0.577655
H51	H	0.703887	0.117521	0.637308
H52	H	0.741108	-0.007697	0.458452
H53	H	0.658086	-0.009189	0.219944
H54	H	1.084684	0.011043	0.369588
H55	H	0.879496	0.216100	0.630612
C56	C	0.821423	-0.456619	0.000072
C57	C	0.738947	-0.398000	0.000065
C58	C	0.654789	-0.434768	0.000066
C59	C	0.653107	-0.530154	0.000074
C60	C	0.735586	-0.588779	0.000081
C61	C	0.819744	-0.552011	0.000079
H62	H	0.740190	-0.327384	0.000059
H63	H	0.593733	-0.391370	0.000062
H64	H	0.590808	-0.557372	0.000075
H65	H	0.734343	-0.659395	0.000086
H66	H	0.880800	-0.595409	0.000084
H67	H	0.879469	0.216100	0.369572
H68	H	0.403415	0.112214	-0.225968
C69	C	0.391036	0.111958	0.261775
C70	C	0.340882	0.038755	0.296043
C71	C	0.293187	0.037907	0.433108
C72	C	0.295646	0.110262	0.535905
C73	C	0.345802	0.183471	0.501639
C74	C	0.393497	0.184319	0.364575
H75	H	0.339060	-0.014811	0.219945
H76	H	0.256058	-0.016287	0.458473
H77	H	0.260339	0.109634	0.637368
H78	H	0.347624	0.237038	0.577738
H79	H	0.430626	0.238513	0.339210
H80	H	1.118121	-0.483098	0.000088
C81	C	1.142747	-0.316224	0.000107
C82	C	1.225221	-0.374844	0.000103
C83	C	1.309380	-0.338078	0.000105
C84	C	1.311065	-0.242692	0.000112
C85	C	1.228587	-0.184066	0.000116
C86	C	1.144428	-0.220832	0.000113
H87	H	1.223977	-0.445460	0.000098
H88	H	1.370436	-0.381478	0.000102
H89	H	1.373364	-0.215476	0.000114
H90	H	1.229831	-0.113450	0.000121
H91	H	1.083373	-0.177432	0.000116
C92	C	0.824621	-0.274506	0.000077
C93	C	0.761925	-0.278226	-0.118620
C94	C	0.679447	-0.219603	-0.118626
C95	C	0.659665	-0.157259	0.000066
C96	C	0.722363	-0.153536	0.118773
C97	C	0.804841	-0.212159	0.118778
H98	H	0.776567	-0.324379	-0.206491
H99	H	0.633034	-0.222359	-0.206501
H100	H	0.598610	-0.113862	0.000062
H101	H	0.707721	-0.107383	0.206644
H102	H	0.851254	-0.209403	0.206654
