data_functionalizedCrystal
_audit_creation_method	'MofGen! by Chris Wilmer'
_symmetry_space_group_name_H-M	'P1'
_symmetry_Int_Tables_number	1
_symmetry_cell_setting	triclinic
loop_
_symmetry_equiv_pos_as_xyz
  x,y,z
_cell_length_a	8.597340
_cell_length_b	11.026607
_cell_length_c	7.681481
_cell_angle_alpha	82.996689
_cell_angle_beta	103.474906
_cell_angle_gamma	96.851696
loop_
_atom_site_label
_atom_site_type_symbol
_atom_site_fract_x
_atom_site_fract_y
_atom_site_fract_z
O1	O	2.147999	0.167818	0.179466
O2	O	1.689486	0.187153	0.109898
O3	O	1.880742	0.000833	0.138923
O4	O	1.956743	0.354137	0.150441
O5	O	1.904267	-0.022151	0.435351
O6	O	1.713011	0.164168	0.406326
O7	O	2.171524	0.144833	0.475894
Zn8	Zn	1.946003	0.150851	0.488175
Zn9	Zn	1.915007	0.181135	0.097618
O10	O	1.980268	0.331152	0.446869
C11	C	1.641636	0.174864	0.249068
C12	C	1.464007	0.172478	0.222117
C13	C	1.878483	-0.055869	0.285008
C14	C	1.836685	-0.190581	0.278660
C15	C	1.952094	-0.264391	0.296167
C16	C	1.908897	-0.403623	0.289607
C17	C	2.219373	0.157122	0.336721
C18	C	2.397001	0.159509	0.363660
C19	C	1.982526	0.387855	0.300781
C20	C	2.024323	0.522568	0.307117
N21	N	1.967168	0.130183	0.754721
N22	N	1.893852	0.201793	-0.168927
H23	H	2.082881	-0.224506	0.316022
H24	H	1.475525	0.150222	0.505465
C25	C	1.792729	0.300534	0.714139
N26	N	1.716560	0.374906	0.626053
H27	H	2.042031	0.057094	0.841288
C28	C	1.357918	0.185016	0.030528
N29	N	1.278010	0.194461	-0.113774
C30	C	1.659995	-0.244459	0.251854
N31	N	1.526908	-0.285038	0.231668
H32	H	1.778102	-0.443503	0.269750
H33	H	2.155108	-0.437543	0.326828
