data_functionalizedCrystal
_audit_creation_method	'MofGen! by Chris Wilmer'
_symmetry_space_group_name_H-M	'P1'
_symmetry_Int_Tables_number	1
_symmetry_cell_setting	triclinic
loop_
_symmetry_equiv_pos_as_xyz
  x,y,z
_cell_length_a	19.077105
_cell_length_b	16.959454
_cell_length_c	19.076919
_cell_angle_alpha	87.724511
_cell_angle_beta	89.923776
_cell_angle_gamma	87.716588
loop_
_atom_site_label
_atom_site_type_symbol
_atom_site_fract_x
_atom_site_fract_y
_atom_site_fract_z
Zn1	Zn	1.058295	-0.382399	0.440440
Zn2	Zn	1.558295	0.117601	0.940440
Zn3	Zn	1.062944	-0.509490	0.322940
Zn4	Zn	1.562944	-0.009490	0.822940
Zn5	Zn	0.945513	-0.371810	0.318233
Zn6	Zn	1.445513	0.128190	0.818233
Zn7	Zn	0.940765	-0.509013	0.435693
Zn8	Zn	1.440765	-0.009013	0.935693
O9	O	1.001879	-0.443178	0.379326
O10	O	1.501879	0.056822	0.879326
O11	O	1.157244	-0.403889	0.428810
O12	O	1.657244	0.096111	0.928810
O13	O	1.051298	-0.486995	0.223984
O14	O	1.551298	0.013005	0.723984
O15	O	0.960515	-0.262606	0.334460
O16	O	1.460515	0.237394	0.834460
O17	O	1.160659	-0.497262	0.342484
O18	O	1.660659	0.002738	0.842484
O19	O	1.043376	-0.270386	0.424245
O20	O	1.543376	0.229614	0.924245
O21	O	0.965022	-0.385842	0.220526
O22	O	1.465022	0.114158	0.720526
O23	O	0.846551	-0.385379	0.329857
O24	O	1.346551	0.114621	0.829857
O25	O	0.952424	-0.496450	0.534654
O26	O	1.452424	0.003550	1.034654
O27	O	0.843063	-0.486182	0.416155
O28	O	1.343063	0.013818	0.916155
O29	O	1.038773	-0.403426	0.538142
O30	O	1.538773	0.096574	1.038142
O31	O	1.046695	-0.620035	0.337881
O32	O	1.546695	-0.120035	0.837881
O33	O	0.956931	-0.619685	0.420720
O34	O	1.456931	-0.119685	0.920720
C35	C	0.819311	-0.434581	0.371980
C36	C	1.319311	0.065419	0.871980
C37	C	0.741206	-0.430922	0.368854
C38	C	1.241206	0.069078	0.868854
C39	C	0.702718	-0.481759	0.412246
C40	C	1.202718	0.018241	0.912246
C41	C	0.629330	-0.478312	0.409312
C42	C	1.129330	0.021688	0.909312
C43	C	0.594433	-0.424030	0.362983
C44	C	1.094433	0.075970	0.862983
C45	C	0.632926	-0.373188	0.319590
C46	C	1.132926	0.126812	0.819590
C47	C	0.706312	-0.376632	0.322528
C48	C	1.206312	0.123368	0.822528
C49	C	0.375144	-0.408090	0.349389
C50	C	0.875144	0.091910	0.849389
C51	C	0.301753	-0.404651	0.346453
C52	C	0.801753	0.095349	0.846453
C53	C	0.298162	-0.509774	0.436177
C54	C	0.798162	-0.009774	0.936177
C55	C	0.371550	-0.513217	0.439107
C56	C	0.871550	-0.013217	0.939107
C57	C	0.410037	-0.462372	0.395717
C58	C	0.910037	0.037628	0.895717
N59	N	0.519419	-0.420507	0.359981
N60	N	1.019419	0.079493	0.859981
N61	N	0.485049	-0.465892	0.398723
N62	N	0.985049	0.034108	0.898723
C63	C	1.001821	-0.648541	0.379312
C64	C	1.501821	-0.148541	0.879312
C65	C	1.001859	-0.736400	0.379332
C66	C	1.501859	-0.236400	0.879332
C67	C	0.955205	-1.107727	0.422458
C68	C	1.455205	-0.607727	0.922458
C69	C	1.048747	-1.108038	0.336274
C70	C	1.548747	-0.608038	0.836274
C71	C	1.048723	-1.025491	0.336266
C72	C	1.548723	-0.525491	0.836266
C73	C	1.001938	-0.984058	0.379355
C74	C	1.501938	-0.484058	0.879355
C75	C	0.955178	-1.025172	0.422451
C76	C	1.455178	-0.525172	0.922451
C77	C	1.095477	-0.984370	0.293166
C78	C	1.595477	-0.484370	0.793166
C79	C	1.095454	-0.901818	0.293156
C80	C	1.595454	-0.401818	0.793156
C81	C	1.048672	-0.860383	0.336249
C82	C	1.548672	-0.360383	0.836249
C83	C	1.001911	-0.901503	0.379347
C84	C	1.501911	-0.401503	0.879347
C85	C	0.955126	-0.860069	0.422436
C86	C	1.455126	-0.360069	0.922436
C87	C	0.908367	-0.901187	0.465538
C88	C	1.408367	-0.401187	0.965538
C89	C	0.908396	-0.983737	0.465543
C90	C	1.408396	-0.483737	0.965543
C91	C	1.048644	-0.777834	0.336244
C92	C	1.548644	-0.277834	0.836244
C93	C	0.955099	-0.777514	0.422428
C94	C	1.455099	-0.277514	0.922428
C95	C	1.185161	-0.451810	0.386702
C96	C	1.685161	0.048190	0.886702
C97	C	1.263265	-0.455488	0.389844
C98	C	1.763265	0.044512	0.889844
C99	C	0.994550	-0.451066	0.562607
C100	C	1.494550	0.048934	1.062607
C101	C	0.991427	-0.454427	0.640710
C102	C	1.491427	0.045573	1.140710
C103	C	1.001956	-0.237015	0.379357
C104	C	1.501956	0.262985	0.879357
C105	C	1.001989	-0.149160	0.379370
C106	C	1.501989	0.350840	0.879370
C107	C	1.009220	-0.435266	0.196760
C108	C	1.509220	0.064734	0.696760
C109	C	1.012479	-0.431688	0.118663
C110	C	1.512479	0.068312	0.618663
C111	C	1.034915	-0.407577	0.679220
C112	C	1.534915	0.092423	1.179220
C113	C	1.031972	-0.410731	0.752606
C114	C	1.531972	0.089269	1.252606
C115	C	0.985544	-0.460742	0.787481
C116	C	1.485544	0.039258	1.287481
C117	C	0.942052	-0.507595	0.748966
C118	C	1.442052	-0.007595	1.248966
C119	C	0.944992	-0.504435	0.675581
C120	C	1.444992	-0.004435	1.175581
C121	C	0.971927	-0.475381	1.006763
C122	C	1.471927	0.024619	1.506763
C123	C	0.968992	-0.478539	1.080153
C124	C	1.468992	0.021461	1.580153
C125	C	1.058911	-0.381674	1.083788
C126	C	1.558911	0.118326	1.583788
C127	C	1.061850	-0.378523	1.010402
C128	C	1.561850	0.121477	1.510402
C129	C	1.018355	-0.425372	0.971893
C130	C	1.518355	0.074628	1.471893
N131	N	0.982536	-0.463970	0.862493
N132	N	1.482536	0.036030	1.362493
N133	N	1.021360	-0.422140	0.896882
N134	N	1.521360	0.077860	1.396882
H135	H	0.406472	-0.366694	0.314052
H136	H	0.906472	0.133306	0.814052
Br137	Br	0.418907	-0.586892	0.501981
Br138	Br	0.918907	-0.086892	1.001981
H139	H	0.266818	-0.551169	0.471504
H140	H	0.766818	-0.051169	0.971504
Br141	Br	0.879037	-0.575462	0.796295
Br142	Br	1.379037	-0.075462	1.296295
H143	H	1.094322	-0.343531	1.115150
H144	H	1.594322	0.156469	1.615150
Br145	Br	0.844871	-0.844946	0.524007
Br146	Br	1.344871	-0.344946	1.024007
H147	H	1.133562	-1.018111	0.258080
H148	H	1.633562	-0.518111	0.758080
Br149	Br	1.124864	-0.310651	0.963077
Br150	Br	1.624864	0.189349	1.463077
Br151	Br	0.750072	-0.555437	0.475119
Br152	Br	1.250072	-0.055437	0.975119
Br153	Br	0.585565	-0.299512	0.256720
Br154	Br	1.085565	0.200488	0.756720
Br155	Br	1.091026	-0.347184	0.804869
Br156	Br	1.591026	0.152816	1.304869
Br157	Br	0.758547	-0.307632	0.263641
Br158	Br	1.258547	0.192368	0.763641
H159	H	0.597996	-0.519710	0.444645
H160	H	1.097996	-0.019710	0.944645
Br161	Br	1.097932	-0.339708	0.631898
Br162	Br	1.597932	0.160292	1.131898
H163	H	0.931183	-0.519265	1.108546
H164	H	1.431183	-0.019265	1.608546
H165	H	0.909572	-0.542578	0.644227
H166	H	1.409572	-0.042578	1.144227
H167	H	0.273341	-0.360439	0.308731
H168	H	0.773341	0.139561	0.808731
H169	H	0.917003	-0.743785	0.457519
H170	H	1.417003	-0.243785	0.957519
Br171	Br	0.844943	-1.039544	0.524034
Br172	Br	1.344943	-0.539544	1.024034
H173	H	1.086833	-1.141778	0.301189
H174	H	1.586833	-0.641778	0.801189
Br175	Br	0.891754	-1.163526	0.480957
Br176	Br	1.391754	-0.663526	0.980957
Br177	Br	1.158916	-0.846022	0.234667
Br178	Br	1.658916	-0.346022	0.734667
Br179	Br	1.112087	-0.722033	0.277743
Br180	Br	1.612087	-0.222033	0.777743
Br181	Br	0.912897	-0.538961	0.954510
Br182	Br	1.412897	-0.038961	1.454510
