data_functionalizedCrystal
_audit_creation_method	'MofGen! by Chris Wilmer'
_symmetry_space_group_name_H-M	'P1'
_symmetry_Int_Tables_number	1
_symmetry_cell_setting	triclinic
loop_
_symmetry_equiv_pos_as_xyz
  x,y,z
_cell_length_a	13.262402
_cell_length_b	12.376457
_cell_length_c	13.339070
_cell_angle_alpha	104.398083
_cell_angle_beta	80.568096
_cell_angle_gamma	85.818796
loop_
_atom_site_label
_atom_site_type_symbol
_atom_site_fract_x
_atom_site_fract_y
_atom_site_fract_z
O1	O	1.381366	-0.330742	-0.204462
O2	O	1.093748	-0.242303	-0.201105
O3	O	1.204547	-0.276376	-0.053287
O4	O	1.270567	-0.296669	-0.352280
O5	O	1.176846	-0.455870	-0.090189
O6	O	1.066047	-0.421797	-0.238006
O7	O	1.353665	-0.510236	-0.241363
Zn8	Zn	1.205458	-0.494515	-0.245544
Zn9	Zn	1.241955	-0.258024	-0.196924
O10	O	1.242866	-0.476163	-0.389181
C11	C	1.042334	-0.320500	-0.216349
C12	C	0.930402	-0.286082	-0.206780
N13	N	1.180557	-0.655916	-0.278725
C14	C	0.892915	-0.172067	-0.182168
C15	C	0.787750	-0.139732	-0.173188
C16	C	0.720061	-0.221408	-0.188811
C17	C	0.757546	-0.335425	-0.213417
C18	C	0.862722	-0.367764	-0.222406
C19	C	0.689869	-0.417105	-0.229049
C20	C	0.727354	-0.531121	-0.253655
C21	C	0.832520	-0.563454	-0.262642
C22	C	0.900209	-0.481778	-0.247018
C23	C	0.584692	-0.384766	-0.220061
C24	C	0.554500	-0.580462	-0.260299
C25	C	0.659665	-0.612797	-0.269279
C26	C	1.324660	-1.055215	-0.086691
C27	C	1.342083	-0.942233	-0.063467
C28	C	1.301702	-0.870648	-0.117279
C29	C	1.243897	-0.912056	-0.194320
C30	C	1.226480	-1.025051	-0.217552
C31	C	1.203522	-0.840485	-0.248141
C32	C	1.145717	-0.881893	-0.325181
C33	C	1.128301	-0.994877	-0.348409
C34	C	1.168682	-1.066462	-0.294597
C35	C	1.220940	-0.727489	-0.224908
C36	C	1.122759	-0.697326	-0.355770
C37	C	1.105336	-0.810308	-0.378994
C38	C	1.405080	-0.432037	-0.226119
C39	C	1.517013	-0.466448	-0.235686
C40	C	1.179545	-0.362692	-0.033294
C41	C	1.146305	-0.352467	0.081258
N42	N	1.266862	-0.096625	-0.163736
C43	C	1.267868	-0.389844	-0.409174
C44	C	1.301110	-0.400063	-0.523724
C45	C	1.404769	-0.431942	0.428564
C46	C	1.436002	-0.441556	0.320936
C47	C	1.363580	-0.419284	0.261011
C48	C	1.259920	-0.387397	0.308725
C49	C	1.228683	-0.377790	0.416362
C50	C	1.187494	-0.365133	0.248809
C51	C	1.083834	-0.333245	0.296523
C52	C	1.052602	-0.323639	0.404149
C53	C	1.125024	-0.345911	0.464074
C54	C	1.218732	-0.374739	0.141172
C55	C	1.042646	-0.320588	0.128970
C56	C	1.011413	-0.310973	0.236598
H57	H	0.554183	-0.291933	-0.200028
Br58	Br	1.359407	-0.418017	0.076430
H59	H	1.315891	-0.778653	-0.098366
H60	H	1.389017	-0.427114	0.173376
H61	H	0.985843	-0.508099	-0.254321
H62	H	0.690201	-0.705632	-0.289314
H63	H	0.983673	-0.302457	0.080178
H64	H	1.099599	-0.338081	0.551715
Br65	Br	1.379471	-1.152368	-0.013680
H66	H	0.634432	-0.195074	-0.181498
Br67	Br	0.870736	-0.267693	0.301366
H68	H	1.154493	-1.158461	-0.313502
H69	H	1.081243	-1.028594	-0.411149
H70	H	1.058271	-0.844037	-0.441723
H71	H	0.499387	-0.646970	-0.273024
H72	H	1.268005	-0.693785	-0.162182
Br73	Br	1.420531	-0.886037	0.041079
Br74	Br	1.067963	-0.600186	-0.428812
Br75	Br	1.576680	-0.484807	0.256193
Br76	Br	1.503039	-0.462190	0.509887
H77	H	0.968194	-0.297683	0.442992
H78	H	0.757237	-0.046900	-0.153155
H79	H	0.863038	-0.656294	-0.282687
Br80	Br	0.984781	-0.061235	-0.160975
