data_functionalizedCrystal
_audit_creation_method	'MofGen! by Chris Wilmer'
_symmetry_space_group_name_H-M	'P1'
_symmetry_Int_Tables_number	1
_symmetry_cell_setting	triclinic
loop_
_symmetry_equiv_pos_as_xyz
  x,y,z
_cell_length_a	11.169417
_cell_length_b	12.759399
_cell_length_c	11.169409
_cell_angle_alpha	90.034210
_cell_angle_beta	90.019824
_cell_angle_gamma	90.015995
loop_
_atom_site_label
_atom_site_type_symbol
_atom_site_fract_x
_atom_site_fract_y
_atom_site_fract_z
Zn1	Zn	1.834922	-0.418157	0.678527
Zn2	Zn	1.834795	-0.593882	0.477837
Zn3	Zn	1.634208	-0.418221	0.477861
Zn4	Zn	1.634199	-0.593797	0.678482
O5	O	1.734531	-0.506014	0.578177
O6	O	2.002855	-0.441476	0.651914
O7	O	1.808137	-0.570643	0.309891
O8	O	1.660891	-0.271191	0.504509
O9	O	2.002762	-0.570581	0.504468
O10	O	1.808354	-0.271144	0.651937
O11	O	1.660767	-0.441585	0.309908
O12	O	1.466257	-0.441502	0.504466
O13	O	1.660875	-0.570435	0.846438
O14	O	1.466251	-0.570497	0.651861
O15	O	1.808346	-0.441393	0.846471
O16	O	1.808128	-0.740892	0.504425
O17	O	1.660751	-0.740829	0.651838
C18	C	1.422707	-0.505998	0.578162
C19	C	1.289307	-0.506017	0.578184
C20	C	1.734458	-0.778981	0.578150
C21	C	1.734536	-0.895758	0.578178
C22	C	1.811363	-0.950618	0.501508
C23	C	1.811440	-1.060342	0.501548
C24	C	1.657853	-1.060337	0.654933
C25	C	1.657783	-0.950615	0.654898
C26	C	1.953101	-1.210221	0.458834
C27	C	2.029917	-1.265084	0.382145
C28	C	2.048380	-1.229550	0.265042
C29	C	1.990009	-1.139154	0.224604
C30	C	1.913184	-1.084296	0.301287
C31	C	1.894744	-1.119829	0.418407
C32	C	1.516120	-0.800734	0.697599
C33	C	1.439288	-0.745874	0.774277
C34	C	1.420813	-0.781406	0.891382
C35	C	1.479163	-0.871806	0.931815
C36	C	1.555995	-0.926666	0.855137
C37	C	1.574472	-0.891126	0.738033
C38	C	2.047574	-0.506031	0.578193
C39	C	2.180974	-0.506038	0.578200
C40	C	1.734623	-0.505897	0.891220
C41	C	1.734663	-0.505848	1.024620
C42	C	1.734638	-0.231981	0.578231
C43	C	1.734683	-0.115204	0.578254
C44	C	1.734509	-0.506054	0.266352
C45	C	1.734702	-0.505808	0.132953
H46	H	1.873862	-0.905956	0.439040
O47	O	2.007760	-1.104526	0.110861
C48	C	1.960122	-0.973804	-0.037291
C49	C	1.939888	-1.012922	0.091543
H50	H	1.905280	-0.899725	-0.052942
H51	H	1.931002	-1.036969	-0.103408
H52	H	2.059149	-0.955721	-0.050875
H53	H	1.840880	-1.030995	0.105243
H54	H	1.969088	-0.949734	0.157595
H55	H	1.603512	-1.000271	0.888070
O56	O	1.935395	-1.244761	0.572620
C57	C	2.025269	-1.285199	0.763226
C58	C	2.045495	-1.246083	0.634390
H59	H	2.114265	-1.286260	0.813213
H60	H	1.986241	-1.367743	0.760819
H61	H	1.960296	-1.230477	0.811054
H62	H	2.110490	-1.300728	0.586488
H63	H	2.084463	-1.163521	0.636883
H64	H	1.595362	-1.105014	0.717393
H65	H	2.110927	-1.274227	0.202601
O66	O	1.382665	-0.657966	0.735185
C67	C	1.352128	-0.472573	0.762775
C68	C	1.416299	-0.572053	0.807186
H69	H	1.379316	-0.403083	0.820951
H70	H	1.251111	-0.484335	0.768535
H71	H	1.378513	-0.456646	0.665890
H72	H	1.390012	-0.588036	0.904081
H73	H	1.517303	-0.560242	0.801337
O74	O	1.856296	-0.996588	0.262010
C75	C	1.667128	-0.911888	0.224767
C76	C	1.731391	-1.011297	0.269252
H77	H	1.566132	-0.923738	0.230630
H78	H	1.693411	-0.895900	0.127865
H79	H	1.694280	-0.842395	0.282957
H80	H	1.704273	-1.080851	0.211150
H81	H	1.705107	-1.027193	0.366172
H82	H	1.531166	-0.771788	0.602245
O83	O	2.086680	-1.352931	0.421219
C84	C	2.222775	-1.493214	0.372919
C85	C	2.158551	-1.393757	0.328517
H86	H	2.280917	-1.526239	0.298000
H87	H	2.153521	-1.554217	0.400569
H88	H	2.281500	-1.472768	0.453104
H89	H	2.099829	-1.414103	0.248302
H90	H	2.227868	-1.332782	0.300947
H91	H	1.464121	-0.900737	1.027172
H92	H	1.358246	-0.736730	0.953811
