data_functionalizedCrystal
_audit_creation_method	'MofGen! by Chris Wilmer'
_symmetry_space_group_name_H-M	'P1'
_symmetry_Int_Tables_number	1
_symmetry_cell_setting	triclinic
loop_
_symmetry_equiv_pos_as_xyz
  x,y,z
_cell_length_a	16.959447
_cell_length_b	16.959455
_cell_length_c	16.959454
_cell_angle_alpha	90.017022
_cell_angle_beta	90.026736
_cell_angle_gamma	90.014322
loop_
_atom_site_label
_atom_site_type_symbol
_atom_site_fract_x
_atom_site_fract_y
_atom_site_fract_z
Zn1	Zn	-0.446928	-1.208384	0.314730
Zn2	Zn	-0.314758	-1.208306	0.446923
Zn3	Zn	-0.314766	-1.076212	0.314755
Zn4	Zn	-0.446897	-1.076177	0.446864
O5	O	-0.380837	-1.142270	0.380818
O6	O	-0.429406	-1.318984	0.332280
O7	O	-0.204148	-1.190766	0.429426
O8	O	-0.332314	-1.093792	0.204141
O9	O	-0.332301	-1.318927	0.429402
O10	O	-0.429413	-1.190898	0.204123
O11	O	-0.204154	-1.093717	0.332323
O12	O	-0.332283	-0.965597	0.332265
O13	O	-0.557512	-1.093732	0.429301
O14	O	-0.429359	-0.965571	0.429325
O15	O	-0.557535	-1.190864	0.332223
O16	O	-0.332270	-1.190732	0.557526
O17	O	-0.429352	-1.093657	0.557482
C18	C	-0.380819	-0.936904	0.380792
C19	C	-0.380830	-0.849047	0.380800
C20	C	-0.380824	-1.142204	0.586184
C21	C	-0.380844	-1.142248	0.674041
C22	C	-0.587006	-1.142303	0.380753
C23	C	-0.674862	-1.142317	0.380725
C24	C	-1.046328	-1.091839	0.431185
C25	C	-1.046348	-1.192983	0.330097
C26	C	-0.963802	-1.192962	0.330114
C27	C	-0.922515	-1.142380	0.380668
C28	C	-0.963775	-1.091818	0.431205
C29	C	-0.922536	-1.243529	0.279584
C30	C	-0.839985	-1.243510	0.279599
C31	C	-0.798697	-1.192923	0.330149
C32	C	-0.839962	-1.142359	0.380688
C33	C	-0.798675	-1.091776	0.431242
C34	C	-0.839938	-1.041207	0.481777
C35	C	-0.922487	-1.041231	0.481756
C36	C	-0.716149	-1.192899	0.330171
C37	C	-0.716122	-1.091755	0.431262
C38	C	-0.175471	-1.142283	0.380826
C39	C	-0.087615	-1.142422	0.380631
C40	C	-0.380856	-1.348438	0.380845
C41	C	-0.380864	-1.436295	0.380856
C42	C	-0.330395	-0.477560	0.330238
C43	C	-0.431324	-0.477582	0.431463
C44	C	-0.431320	-0.560128	0.431452
C45	C	-0.380851	-0.601394	0.380834
C46	C	-0.330387	-0.560114	0.330226
C47	C	-0.481777	-0.601414	0.482064
C48	C	-0.481773	-0.683965	0.482055
C49	C	-0.431308	-0.725233	0.431432
C50	C	-0.380843	-0.683948	0.380822
C51	C	-0.330374	-0.725213	0.330204
C52	C	-0.279913	-0.683930	0.279589
C53	C	-0.279922	-0.601381	0.279603
C54	C	-0.431299	-0.807781	0.431418
C55	C	-0.330366	-0.807767	0.330193
C56	C	-0.380868	-1.142358	0.174650
C57	C	-0.380881	-1.142395	0.086793
C58	C	-0.431382	-1.091796	1.045524
C59	C	-0.330373	-1.192963	1.045509
C60	C	-0.330365	-1.192936	0.962963
C61	C	-0.380867	-1.142337	0.921694
C62	C	-0.431375	-1.091765	0.962970
C63	C	-0.279852	-1.243501	0.921680
C64	C	-0.279842	-1.243475	0.839130
C65	C	-0.330348	-1.192879	0.797859
C66	C	-0.380859	-1.142306	0.839140
C67	C	-0.431360	-1.091707	0.797871
C68	C	-0.481876	-1.041137	0.839151
C69	C	-0.481881	-1.041170	0.921699
C70	C	-0.330343	-1.192847	0.715310
C71	C	-0.431353	-1.091676	0.715317
H72	H	-0.682512	-1.050557	0.472422
H73	H	-0.289313	-0.443944	0.289026
H74	H	-0.522860	-0.567810	0.523280
C75	C	-0.967950	-1.299154	0.223970
H76	H	-1.023023	-1.291912	0.231187
H77	H	-0.954430	-1.352258	0.235537
H78	H	-0.954427	-1.287591	0.170863
H79	H	-0.472513	-1.050626	1.079138
H80	H	-0.472381	-0.841390	0.472630
H81	H	-1.079928	-1.050665	0.472327
C82	C	-0.486835	-0.432192	0.487139
H83	H	-0.479615	-0.377117	0.479894
H84	H	-0.475181	-0.445709	0.540232
H85	H	-0.539965	-0.445739	0.475625
H86	H	-0.289273	-0.841360	0.288968
C87	C	-0.670763	-1.248513	0.274586
H88	H	-0.707174	-1.278638	0.244473
H89	H	-0.638548	-1.282930	0.304830
H90	H	-0.638574	-1.218275	0.240144
C91	C	-0.537440	-0.985546	0.967104
H92	H	-0.567522	-0.955411	0.930705
H93	H	-0.507174	-0.951138	0.999346
H94	H	-0.571911	-1.015778	0.999268
H95	H	-0.238818	-0.717539	0.238379
C96	C	-0.274831	-1.248622	1.090903
H97	H	-0.282073	-1.241401	1.145978
H98	H	-0.221708	-1.237093	1.077413
H99	H	-0.286458	-1.301719	1.077333
C100	C	-0.224317	-1.299164	0.967076
H101	H	-0.231568	-1.291949	1.022151
H102	H	-0.171192	-1.287637	0.953596
H103	H	-0.235946	-1.352260	0.953499
C104	C	-0.224410	-0.555969	0.223945
H105	H	-0.231636	-0.500896	0.231211
H106	H	-0.236058	-0.569502	0.170845
H107	H	-0.171280	-0.569481	0.235458
C108	C	-0.224286	-1.299105	0.793729
H109	H	-0.194216	-1.329247	0.830131
H110	H	-0.189816	-1.268885	0.761560
H111	H	-0.254561	-1.333517	0.761493
H112	H	-0.522863	-0.717571	0.523268
C113	C	-0.274784	-1.248463	0.669902
H114	H	-0.282009	-1.241196	0.614828
H115	H	-0.286395	-1.301569	0.683390
H116	H	-0.221664	-1.236924	0.683466
C117	C	-0.794518	-0.985570	0.537383
H118	H	-0.739446	-0.992802	0.530151
H119	H	-0.808034	-0.997112	0.590491
H120	H	-0.808042	-0.932465	0.525796
C121	C	-0.967877	-0.985617	0.537343
H122	H	-1.022953	-0.992882	0.530096
H123	H	-0.954356	-0.932509	0.525775
H124	H	-0.954335	-0.997166	0.590459
H125	H	-1.079968	-1.234170	0.288943
H126	H	-0.472480	-1.050475	0.681721
C127	C	-0.794603	-1.299126	0.224007
H128	H	-0.831015	-1.329249	0.193893
H129	H	-0.762388	-1.333544	0.254250
H130	H	-0.762414	-1.268887	0.189567
H131	H	-0.522991	-0.999936	0.805540
