data_functionalizedCrystal
_audit_creation_method	'MofGen! by Chris Wilmer'
_symmetry_space_group_name_H-M	'P1'
_symmetry_Int_Tables_number	1
_symmetry_cell_setting	triclinic
loop_
_symmetry_equiv_pos_as_xyz
  x,y,z
_cell_length_a	10.489741
_cell_length_b	9.565339
_cell_length_c	10.489741
_cell_angle_alpha	90.000516
_cell_angle_beta	95.460826
_cell_angle_gamma	90.000900
loop_
_atom_site_label
_atom_site_type_symbol
_atom_site_fract_x
_atom_site_fract_y
_atom_site_fract_z
O1	O	1.694053	0.116173	-0.179959
O2	O	1.322857	0.116194	-0.196852
O3	O	1.516901	0.116175	-0.002807
O4	O	1.500009	0.116192	-0.374003
O5	O	1.516886	-0.116345	-0.002819
O6	O	1.322842	-0.116326	-0.196864
O7	O	1.694038	-0.116347	-0.179971
Zn8	Zn	1.508437	-0.153254	-0.188419
Zn9	Zn	1.508458	0.153101	-0.188403
O10	O	1.499993	-0.116328	-0.374015
C11	C	1.275318	-0.000063	-0.195582
C12	C	1.133688	-0.000055	-0.191765
N13	N	1.508433	-0.362334	-0.188429
C14	C	1.065548	-0.000074	-0.068300
C15	C	0.973429	0.114571	-0.126617
C16	C	0.973448	-0.114676	-0.126659
C17	C	1.043435	0.114684	-0.250133
C18	C	1.043463	-0.114665	-0.250157
C19	C	0.951371	0.000007	-0.308564
C20	C	1.418666	-0.453528	-0.278138
C21	C	1.534163	-0.546712	-0.303949
C22	C	1.392986	-0.546704	-0.162629
C23	C	1.623988	-0.453466	-0.214298
C24	C	1.482735	-0.453451	-0.072928
C25	C	1.598314	-0.546593	-0.098690
C26	C	1.741577	-0.000087	-0.181241
C27	C	1.883206	-0.000086	-0.185058
C28	C	1.515618	-0.000084	0.044718
C29	C	1.511801	-0.000082	0.186348
N30	N	1.508472	0.362180	-0.188383
C31	C	1.501277	-0.000066	-0.421541
C32	C	1.505094	-0.000059	-0.563170
C33	C	1.388336	-0.000064	0.254488
C34	C	1.446652	-0.114712	0.346604
C35	C	1.446696	0.114534	0.346591
C36	C	1.570168	-0.114824	0.276599
C37	C	1.570195	0.114525	0.276576
C38	C	1.628600	-0.000150	0.368665
H39	H	0.942421	0.211491	-0.074372
H40	H	1.721659	-0.412683	-0.236217
H41	H	1.555926	-0.587676	-0.401606
H42	H	1.295338	-0.587664	-0.140828
C43	C	1.699858	-0.600676	0.002338
C44	C	1.820469	-0.553204	-0.025255
C45	C	1.914045	-0.603017	0.067767
H46	H	1.682460	-0.567362	0.084213
H47	H	1.698930	-0.699994	0.002264
H48	H	1.821394	-0.453907	-0.025168
H49	H	1.837908	-0.586514	-0.107113
H50	H	1.913117	-0.702334	0.067693
H51	H	1.896634	-0.569699	0.149635
H52	H	1.995891	-0.570825	0.049051
C53	C	1.317701	-0.399099	-0.379577
C54	C	1.345243	-0.446328	-0.500282
C55	C	1.252280	-0.396198	-0.593760
H56	H	1.235788	-0.432359	-0.362247
H57	H	1.317888	-0.299783	-0.378452
H58	H	1.345042	-0.545623	-0.501404
H59	H	1.427139	-0.413072	-0.517653
H60	H	1.252467	-0.296883	-0.592635
H61	H	1.170373	-0.429462	-0.576417
H62	H	1.270960	-0.428225	-0.675669
C63	C	1.453409	-0.398848	0.057189
C64	C	1.332344	-0.445978	0.083678
C65	C	1.305264	-0.395687	0.203520
H66	H	1.516233	-0.432065	0.121231
H67	H	1.454317	-0.299534	0.056462
H68	H	1.331446	-0.545271	0.084415
H69	H	1.269494	-0.412764	0.019667
H70	H	1.306171	-0.296373	0.202793
H71	H	1.368095	-0.428908	0.267552
H72	H	1.223115	-0.427647	0.221503
H73	H	1.622356	-0.211859	0.245762
H74	H	1.286824	-0.000174	0.204837
C75	C	1.764098	-0.000525	0.434513
C76	C	1.828119	-0.120778	0.399018
C77	C	1.952933	-0.121188	0.459668
H78	H	1.808448	0.080045	0.409525
H79	H	1.760983	0.000173	0.524732
H80	H	1.831241	-0.121464	0.308820
H81	H	1.783809	-0.201368	0.424008
H82	H	1.949818	-0.120489	0.549887
H83	H	1.997270	-0.040612	0.434675
H84	H	1.996383	-0.202783	0.435603
C85	C	1.376829	0.243730	0.387704
C86	C	1.251109	0.243195	0.329338
C87	C	1.186707	0.362190	0.367161
H88	H	1.375439	0.243376	0.478115
H89	H	1.419806	0.325175	0.362518
H90	H	1.208143	0.161772	0.354532
H91	H	1.252461	0.243570	0.238928
H92	H	1.229684	0.443634	0.341975
H93	H	1.185327	0.361825	0.457572
H94	H	1.101403	0.361850	0.327556
H95	H	1.074269	0.211717	-0.302328
H96	H	1.115238	0.000065	0.033196
H97	H	1.394405	-0.211633	0.377611
H98	H	0.901947	0.000074	-0.410168
H99	H	1.074503	-0.211590	-0.302360
H100	H	1.622398	0.211451	0.245536
H101	H	0.942463	-0.211599	-0.074401
