data_functionalizedCrystal
_audit_creation_method	'MofGen! by Chris Wilmer'
_symmetry_space_group_name_H-M	'P1'
_symmetry_Int_Tables_number	1
_symmetry_cell_setting	triclinic
loop_
_symmetry_equiv_pos_as_xyz
  x,y,z
_cell_length_a	14.519709
_cell_length_b	12.837942
_cell_length_c	11.892283
_cell_angle_alpha	94.307221
_cell_angle_beta	86.096867
_cell_angle_gamma	89.254543
loop_
_atom_site_label
_atom_site_type_symbol
_atom_site_fract_x
_atom_site_fract_y
_atom_site_fract_z
O1	O	-1.230305	-0.142510	-0.093853
O2	O	-0.963209	-0.158517	-0.093887
O3	O	-1.090835	0.000401	-0.093864
O4	O	-1.102679	-0.301428	-0.093876
O5	O	-1.101453	0.013629	0.094140
O6	O	-0.973827	-0.145289	0.094117
O7	O	-1.240923	-0.129281	0.094151
Zn8	Zn	-1.109061	-0.135185	0.123984
Zn9	Zn	-1.095071	-0.152614	-0.123720
O10	O	-1.113297	-0.288199	0.094128
C11	C	-1.092142	0.045643	0.000137
C12	C	-1.080208	0.160742	0.000134
C13	C	-0.934093	-0.151157	0.000110
C14	C	-0.831518	-0.148923	0.000097
C15	C	-1.270038	-0.136641	0.000151
C16	C	-1.372613	-0.138876	0.000157
C17	C	-0.455914	-0.140691	0.000149
C18	C	-0.560419	-0.142977	0.000134
C19	C	-0.643713	-0.144807	0.000122
C20	C	-0.748224	-0.147093	0.000110
C21	C	-1.111989	-0.333442	0.000124
C22	C	-1.123923	-0.448541	0.000120
N23	N	-1.118615	-0.123289	0.293035
C24	C	-1.223678	0.401434	0.000129
C25	C	-1.212469	0.509580	0.000125
C26	C	-1.046581	0.485182	0.000116
C27	C	-1.057790	0.377036	0.000119
C28	C	-1.146341	0.335166	0.000127
C29	C	-1.157550	0.227018	0.000139
C30	C	-0.991662	0.202622	0.000121
C31	C	-0.980453	0.310768	0.000118
N32	N	-1.085523	-0.164502	-0.292771
C33	C	-1.185192	-0.040461	0.470551
C34	C	-1.178493	-0.048784	0.352211
C35	C	-1.065433	-0.189476	0.352207
C36	C	-1.072132	-0.181153	0.470547
C37	C	-1.132012	-0.106642	0.529715
C38	C	-1.138705	-0.098314	0.648057
C39	C	-1.025650	-0.239010	0.648051
C40	C	-1.018952	-0.247334	0.529711
H41	H	-1.295781	0.367344	0.000146
O42	O	-0.960637	0.526041	0.000155
C43	C	-0.967331	0.635701	0.000117
H44	H	-1.039096	0.663457	0.035712
H45	H	-0.955124	0.659456	-0.090082
C46	C	-0.806050	0.651814	0.030116
C47	C	-0.894190	0.685906	0.073844
H48	H	-0.760931	0.682784	0.075590
H49	H	-0.801538	0.577934	0.030137
H50	H	-0.795890	0.671612	-0.045049
H51	H	-0.904353	0.666097	0.149002
H52	H	-0.898702	0.759784	0.073837
O53	O	-1.196928	-0.026070	0.705658
C54	C	-1.262599	-0.076924	0.774082
H55	H	-1.233990	-0.156714	0.791812
H56	H	-1.328804	-0.087353	0.728467
C57	C	-1.318683	0.087394	0.864715
C58	C	-1.283542	-0.010601	0.886500
H59	H	-1.331606	0.128306	0.934058
H60	H	-1.274442	0.121657	0.818613
H61	H	-1.373850	0.078690	0.826700
H62	H	-1.228370	-0.001896	0.924501
H63	H	-1.327774	-0.044861	0.932610
O64	O	-1.287695	0.573809	0.000179
C65	C	-1.368249	0.513655	0.000156
H66	H	-1.353936	0.435495	0.035751
H67	H	-1.389845	0.499552	-0.090038
C68	C	-1.463986	0.668576	0.030169
C69	C	-1.446408	0.572582	0.073895
H70	H	-1.512200	0.704925	0.075650
H71	H	-1.409716	0.709104	0.030180
H72	H	-1.481978	0.656810	-0.044992
H73	H	-1.428406	0.584349	0.149049
H74	H	-1.500678	0.532057	0.073898
O75	O	-0.894478	0.351559	-0.000039
C76	C	-0.877515	0.406504	-0.097425
H77	H	-0.946013	0.431007	-0.129890
H78	H	-0.837046	0.354003	-0.165603
C79	C	-0.736992	0.474248	-0.027978
C80	C	-0.821122	0.504351	-0.067847
H81	H	-0.702203	0.534602	-0.009736
H82	H	-0.748418	0.437228	0.037631
H83	H	-0.703279	0.430496	-0.084800
H84	H	-0.854838	0.548091	-0.011020
H85	H	-0.809701	0.541381	-0.133446
O86	O	-1.243409	0.031788	0.528154
C87	C	-1.309086	-0.019056	0.596579
H88	H	-1.280488	-0.098851	0.614307
H89	H	-1.375293	-0.029471	0.550966
C90	C	-1.365147	0.145271	0.687216
C91	C	-1.330019	0.047268	0.708998
H92	H	-1.378063	0.186183	0.756559
H93	H	-1.320901	0.179526	0.641114
H94	H	-1.420316	0.136577	0.649202
H95	H	-1.274845	0.055962	0.746998
H96	H	-1.374256	0.013016	0.755109
H97	H	-1.221799	0.005105	0.304044
H98	H	-1.016687	-0.250148	0.304017
H99	H	-0.970201	-0.308002	0.481523
O100	O	-0.974033	-0.303455	0.705400
C101	C	-0.996420	-0.408162	0.676501
H102	H	-1.027101	-0.414172	0.590578
H103	H	-1.048917	-0.435653	0.743102
C104	C	-0.870830	-0.469904	0.776568
C105	C	-0.908506	-0.477287	0.671030
H106	H	-0.816602	-0.512545	0.773197
H107	H	-0.855749	-0.399361	0.796042
H108	H	-0.914586	-0.492812	0.832057
H109	H	-0.864754	-0.454367	0.615545
H110	H	-0.923578	-0.547829	0.651547
O111	O	-0.916547	0.138193	-0.000084
C112	C	-0.912574	0.068028	-0.097434
H113	H	-0.952418	0.102743	-0.165490
H114	H	-0.944593	-0.009107	-0.075412
C115	C	-0.762219	0.006050	-0.058001
C116	C	-0.811150	0.048691	-0.141592
H117	H	-0.699657	-0.005883	-0.085238
H118	H	-0.764897	0.053318	0.007588
H119	H	-0.788913	-0.058224	-0.039657
H120	H	-0.784464	0.112970	-0.159924
H121	H	-0.808466	0.001433	-0.207185
O122	O	-1.243557	0.186308	0.000342
C123	C	-1.260508	0.131317	0.097698
H124	H	-1.213913	0.161776	0.165755
H125	H	-1.245478	0.044527	0.075686
C126	C	-1.419500	0.109933	0.058255
C127	C	-1.362276	0.147350	0.141848
H128	H	-1.482276	0.119818	0.085487
H129	H	-1.408080	0.146978	-0.007338
H130	H	-1.406964	0.037611	0.039920
H131	H	-1.374805	0.219673	0.160171
H132	H	-1.373701	0.110317	0.207445
