data_functionalizedCrystal
_audit_creation_method	'MofGen! by Chris Wilmer'
_symmetry_space_group_name_H-M	'P1'
_symmetry_Int_Tables_number	1
_symmetry_cell_setting	triclinic
loop_
_symmetry_equiv_pos_as_xyz
  x,y,z
_cell_length_a	15.297327
_cell_length_b	15.298093
_cell_length_c	15.296720
_cell_angle_alpha	69.231252
_cell_angle_beta	72.680778
_cell_angle_gamma	88.412518
loop_
_atom_site_label
_atom_site_type_symbol
_atom_site_fract_x
_atom_site_fract_y
_atom_site_fract_z
Zn1	Zn	-0.637848	1.197076	0.413071
Zn2	Zn	-0.137848	1.697076	0.913071
Zn3	Zn	-0.766454	1.196974	0.284480
Zn4	Zn	-0.266454	1.696974	0.784480
Zn5	Zn	-0.593378	1.077803	0.275201
Zn6	Zn	-0.093378	1.577803	0.775201
Zn7	Zn	-0.766393	1.014634	0.466849
Zn8	Zn	-0.266393	1.514634	0.966849
O9	O	-0.691018	1.121622	0.359900
O10	O	-0.191018	1.621622	0.859900
O11	O	-0.673544	1.323289	0.377390
O12	O	-0.173544	1.823289	0.877390
O13	O	-0.724910	1.207560	0.149228
O14	O	-0.224910	1.707560	0.649228
O15	O	-0.473047	1.120105	0.267099
O16	O	0.026953	1.620105	0.767099
O17	O	-0.768031	1.323214	0.282915
O18	O	-0.268031	1.823214	0.782915
O19	O	-0.505719	1.207734	0.368392
O20	O	-0.005719	1.707734	0.868392
O21	O	-0.597751	1.120005	0.142410
O22	O	-0.097751	1.620005	0.642410
O23	O	-0.597692	0.943198	0.319246
O24	O	-0.097692	1.443198	0.819246
O25	O	-0.767927	1.012441	0.593737
O26	O	-0.267927	1.512441	1.093737
O27	O	-0.724806	0.896787	0.460049
O28	O	-0.224806	1.396787	0.960049
O29	O	-0.673485	1.146481	0.554226
O30	O	-0.173485	1.646481	1.054226
O31	O	-0.892676	1.146306	0.335062
O32	O	-0.392676	1.646306	0.835062
O33	O	-0.892631	1.012342	0.469048
O34	O	-0.392631	1.512342	0.969048
C35	C	-0.656417	0.887263	0.394477
C36	C	-0.156417	1.387263	0.894477
C37	C	-0.641640	0.786994	0.409297
C38	C	-0.141640	1.286994	0.909297
C39	C	-0.925390	1.072479	0.408915
C40	C	-0.425390	1.572479	0.908915
C41	C	-1.025672	1.051531	0.429903
C42	C	-0.525672	1.551531	0.929903
C43	C	-1.308371	1.271644	0.210165
C44	C	-0.808371	1.771644	0.710165
C45	C	-1.214150	1.291326	0.190440
C46	C	-0.714150	1.791326	0.690440
C47	C	-1.167026	1.231379	0.250304
C48	C	-0.667026	1.731379	0.750304
C49	C	-1.214132	1.151747	0.329896
C50	C	-0.714132	1.651747	0.829896
C51	C	-1.308360	1.132059	0.349618
C52	C	-0.808360	1.632059	0.849618
C53	C	-1.167015	1.091794	0.389758
C54	C	-0.667015	1.591794	0.889758
C55	C	-1.214121	1.012162	0.469349
C56	C	-0.714121	1.512162	0.969349
C57	C	-1.308340	0.992478	0.489068
C58	C	-0.808340	1.492478	0.989068
C59	C	-1.355464	1.052425	0.429204
C60	C	-0.855464	1.552425	0.929204
C61	C	-1.072787	1.111482	0.370036
C62	C	-0.572787	1.611482	0.870036
C63	C	-1.072776	0.971897	0.509489
C64	C	-0.572776	1.471897	1.009489
C65	C	-1.166997	0.952215	0.529213
C66	C	-0.666997	1.452215	1.029213
C67	C	-0.725660	1.072426	0.609703
C68	C	-0.225660	1.572426	1.109703
C69	C	-0.740422	1.051462	0.716154
C70	C	-0.240422	1.551462	1.216154
C71	C	-0.455738	1.170977	0.310712
C72	C	0.044262	1.670977	0.810712
C73	C	-0.355475	1.192010	0.289751
C74	C	0.144525	1.692010	0.789751
C75	C	-0.725755	1.356896	0.325189
C76	C	-0.225755	1.856896	0.825189
C77	C	-0.740558	1.457155	0.310397
C78	C	-0.240558	1.957155	0.810397
C79	C	-0.585490	1.739934	0.465435
C80	C	-0.085490	2.239934	0.965435
C81	C	-0.571579	1.645736	0.479333
C82	C	-0.071579	2.145736	0.979333
C83	C	-0.613823	1.598586	0.437101
C84	C	-0.113823	2.098586	0.937101
C85	C	-0.669979	1.645644	0.380967
C86	C	-0.169979	2.145644	0.880967
C87	C	-0.683885	1.739854	0.367061
C88	C	-0.183885	2.239854	0.867061
C89	C	-0.712218	1.598506	0.338727
C90	C	-0.212218	2.098506	0.838727
C91	C	-0.768375	1.645564	0.282593
C92	C	-0.268375	2.145564	0.782593
C93	C	-0.782279	1.739764	0.268690
C94	C	-0.282279	2.239764	0.768690
C95	C	-0.740035	1.786914	0.310923
C96	C	-0.240035	2.286914	0.810923
C97	C	-0.698312	1.504296	0.352633
C98	C	-0.198312	2.004296	0.852633
C99	C	-0.796708	1.504215	0.254259
C100	C	-0.296708	2.004215	0.754259
C101	C	-0.810618	1.598414	0.240361
C102	C	-0.310618	2.098414	0.740361
C103	C	-0.656454	1.170692	0.111048
C104	C	-0.156454	1.670692	0.611048
C105	C	-0.641464	1.191884	0.004518
C106	C	-0.141464	1.691884	0.504518
C107	C	-0.585358	1.271523	0.933939
C108	C	-0.085358	1.771523	1.433939
C109	C	-0.571491	1.291226	0.833922
C110	C	-0.071491	1.791226	1.333922
C111	C	-0.613722	1.231286	0.804475
C112	C	-0.113722	1.731286	1.304475
C113	C	-0.669824	1.151641	0.875055
C114	C	-0.169824	1.651641	1.375055
C115	C	-0.683698	1.131941	0.975082
C116	C	-0.183698	1.631941	1.475082
C117	C	-0.712062	1.091704	0.845618
C118	C	-0.212062	1.591704	1.345618
C119	C	-0.768163	1.012059	0.916198
C120	C	-0.268163	1.512059	1.416198
C121	C	-0.782035	0.992362	1.016214
C122	C	-0.282035	1.492362	1.516214
C123	C	-0.739804	1.052302	1.045661
C124	C	-0.239804	1.552302	1.545661
C125	C	-0.698187	1.111405	0.745591
C126	C	-0.198187	1.611405	1.245591
C127	C	-0.796527	0.971822	0.786734
C128	C	-0.296527	1.471822	1.286734
C129	C	-0.810394	0.952120	0.886751
C130	C	-0.310394	1.452120	1.386751
H131	H	-1.034442	1.176319	0.305231
H132	H	-0.534442	1.676319	0.805231
Br133	Br	-0.594944	1.470742	0.455965
Br134	Br	-0.094944	1.970742	0.955965
H135	H	-0.856073	0.887272	0.944230
H136	H	-0.356073	1.387272	1.444230
Br137	Br	-1.150230	1.399399	0.082435
Br138	Br	-0.650230	1.899399	0.582435
H139	H	-0.827997	1.778080	0.222973
H140	H	-0.327997	2.278080	0.722973
H141	H	-1.346746	1.320440	0.161427
H142	H	-0.846746	1.820440	0.661427
Br143	Br	-1.039234	1.258306	0.223784
Br144	Br	-0.539234	1.758306	0.723784
H145	H	-0.652508	1.176252	0.688134
H146	H	-0.152508	1.676252	1.188134
Br147	Br	-1.483220	1.025397	0.455600
Br148	Br	-0.983220	1.525397	0.955600
H149	H	-0.751372	1.863613	0.299624
H150	H	-0.251372	2.363613	0.799624
Br151	Br	-1.372266	0.884401	0.597079
Br152	Br	-0.872266	1.384401	1.097079
H153	H	-1.205364	0.887378	0.594017
H154	H	-0.705364	1.387378	1.094017
H155	H	-0.652587	1.465991	0.398336
H156	H	-0.152587	1.965991	0.898336
Br157	Br	-0.528157	1.803929	0.522734
Br158	Br	-0.028157	2.303929	1.022734
Br159	Br	-1.008828	0.890529	0.590730
Br160	Br	-0.508828	1.390529	1.090730
Br161	Br	-0.495371	1.581877	0.555512
Br162	Br	0.004629	2.081877	1.055512
H163	H	-0.856342	1.636742	0.194656
H164	H	-0.356342	2.136742	0.694656
H165	H	-0.751092	1.036264	1.127101
H166	H	-0.251092	1.536264	1.627101
Br167	Br	-0.854035	1.440237	0.196932
Br168	Br	-0.354035	1.940237	0.696932
Br169	Br	-0.594900	1.258025	0.668735
Br170	Br	-0.094900	1.758025	1.168735
H171	H	-0.525816	1.356074	0.776463
H172	H	-0.025816	1.856074	1.276463
H173	H	-0.550986	1.320321	0.957926
H174	H	-0.050986	1.820321	1.457926
Br175	Br	-0.858194	0.884288	1.112001
Br176	Br	-0.358194	1.384288	1.612001
H177	H	-0.830917	0.923016	0.762760
H178	H	-0.330917	1.423016	1.262760
