data_functionalizedCrystal
_audit_creation_method	'MofGen! by Chris Wilmer'
_symmetry_space_group_name_H-M	'P1'
_symmetry_Int_Tables_number	1
_symmetry_cell_setting	triclinic
loop_
_symmetry_equiv_pos_as_xyz
  x,y,z
_cell_length_a	13.033409
_cell_length_b	16.120484
_cell_length_c	13.032268
_cell_angle_alpha	80.357249
_cell_angle_beta	74.837427
_cell_angle_gamma	85.378760
loop_
_atom_site_label
_atom_site_type_symbol
_atom_site_fract_x
_atom_site_fract_y
_atom_site_fract_z
Zn1	Zn	1.508889	-0.528400	0.432361
Zn2	Zn	1.522316	-0.652109	0.263764
Zn3	Zn	1.356129	-0.497042	0.275088
Zn4	Zn	1.322235	-0.652078	0.463913
O5	O	1.427392	-0.582407	0.358782
O6	O	1.658334	-0.557947	0.392053
O7	O	1.520075	-0.618429	0.115684
O8	O	1.384959	-0.384545	0.287485
O9	O	1.668199	-0.648836	0.268186
O10	O	1.497190	-0.407584	0.403033
O11	O	1.397978	-0.504502	0.124003
O12	O	1.203968	-0.504471	0.318079
O13	O	1.327191	-0.648782	0.609310
O14	O	1.179067	-0.618376	0.456808
O15	O	1.464325	-0.557916	0.586129
O16	O	1.487209	-0.768762	0.298780
O17	O	1.340211	-0.768739	0.445829
C18	C	1.153230	-0.558018	0.392097
C19	C	1.035937	-0.547607	0.406376
C20	C	1.411514	-0.799002	0.374519
C21	C	1.404814	-0.891674	0.381276
C22	C	0.867312	-0.577088	0.366108
C23	C	0.988541	-0.587851	0.351345
C24	C	1.392583	-1.061349	0.393633
C25	C	1.462388	-1.102643	0.323925
C26	C	1.455583	-1.197056	0.330801
C27	C	1.399387	-0.966928	0.386759
C28	C	1.702625	-0.606892	0.325337
C29	C	1.819913	-0.617327	0.311085
C30	C	1.390480	-0.606844	0.637589
C31	C	1.374750	-0.617257	0.756401
C32	C	1.443358	-0.364971	0.343003
C33	C	1.450161	-0.272313	0.336279
C34	C	1.464226	-0.558011	0.081047
C35	C	1.480178	-0.547381	-0.037806
C36	C	1.435588	-0.576941	0.797901
C37	C	1.419331	-0.587703	0.920698
H38	H	0.818143	-0.534673	0.424151
H39	H	0.869081	-0.659750	0.253053
C40	C	1.054950	-0.645161	0.272932
C41	C	1.056463	-0.626233	0.152748
C42	C	1.122873	-0.683541	0.074337
C43	C	1.187769	-0.759778	0.116110
C44	C	1.186258	-0.778710	0.236300
C45	C	1.119848	-0.721401	0.314711
H46	H	1.008421	-0.569794	0.121820
H47	H	1.123991	-0.669526	-0.014635
H48	H	1.236930	-0.802201	0.058066
H49	H	1.234300	-0.835148	0.267228
H50	H	1.118730	-0.735416	0.403684
H51	H	1.499705	-0.534455	0.742521
C52	C	1.566809	-0.489981	0.887397
C53	C	1.535982	-0.413782	0.811439
C54	C	1.622610	-0.356382	0.736644
C55	C	1.740065	-0.375181	0.737807
C56	C	1.770898	-0.451383	0.813768
C57	C	1.684269	-0.508783	0.888563
H58	H	1.449029	-0.399863	0.810576
H59	H	1.599785	-0.299972	0.680413
H60	H	1.804193	-0.332690	0.682439
H61	H	1.857850	-0.465302	0.814631
H62	H	1.707094	-0.565193	0.944794
H63	H	1.355200	-0.630183	0.976076
H64	H	0.986773	-0.505188	0.464421
C65	C	1.304944	-1.109374	0.481221
C66	C	1.224049	-1.157916	0.449162
C67	C	1.136410	-1.205952	0.536747
C68	C	1.129665	-1.205447	0.656390
C69	C	1.210561	-1.156903	0.688454
C70	C	1.298201	-1.108867	0.600870
H71	H	1.229040	-1.158291	0.360590
H72	H	1.076525	-1.241887	0.513010
H73	H	1.064789	-1.241006	0.721225
H74	H	1.205571	-1.156528	0.777026
H75	H	1.358086	-1.072932	0.624607
H76	H	1.310623	-0.659734	0.811781
H77	H	1.527260	-1.067089	0.259083
