data_functionalizedCrystal
_audit_creation_method	'MofGen! by Chris Wilmer'
_symmetry_space_group_name_H-M	'P1'
_symmetry_Int_Tables_number	1
_symmetry_cell_setting	triclinic
loop_
_symmetry_equiv_pos_as_xyz
  x,y,z
_cell_length_a	18.215407
_cell_length_b	10.686285
_cell_length_c	18.215399
_cell_angle_alpha	94.390852
_cell_angle_beta	90.019833
_cell_angle_gamma	85.632014
loop_
_atom_site_label
_atom_site_type_symbol
_atom_site_fract_x
_atom_site_fract_y
_atom_site_fract_z
Zn1	Zn	1.147639	-0.502344	0.393704
Zn2	Zn	1.157027	-0.713359	0.261223
Zn3	Zn	1.024574	-0.502385	0.270649
Zn4	Zn	1.034014	-0.713289	0.384251
O5	O	1.090813	-0.607844	0.327457
O6	O	1.251869	-0.530347	0.376141
O7	O	1.139435	-0.685420	0.159487
O8	O	1.033019	-0.325804	0.294874
O9	O	1.258767	-0.685380	0.278808
O10	O	1.123434	-0.325774	0.385281
O11	O	1.042122	-0.530418	0.166413
O12	O	0.922841	-0.530350	0.285708
O13	O	1.049109	-0.685260	0.488492
O14	O	0.929777	-0.685300	0.369171
O15	O	1.132588	-0.530279	0.495436
O16	O	1.148589	-0.889925	0.269642
O17	O	1.058212	-0.889873	0.360030
C18	C	0.899606	-0.607823	0.327437
C19	C	0.817808	-0.607844	0.327444
C20	C	0.633251	-0.688653	0.370839
C21	C	0.556392	-0.688657	0.370848
C22	C	0.549129	-0.527058	0.284090
C23	C	0.625986	-0.527049	0.284086
C24	C	0.668045	-0.607853	0.327459
C25	C	0.514330	-0.607867	0.327472
C26	C	0.430996	-0.607870	0.327482
C27	C	0.751384	-0.607848	0.327450
C28	C	1.105463	-0.935683	0.312804
C29	C	1.111798	-1.075934	0.306560
C30	C	1.282767	-0.607867	0.327478
C31	C	1.364567	-0.607876	0.327486
C32	C	1.090854	-0.607757	0.519414
C33	C	1.090872	-0.607720	0.601214
C34	C	1.076126	-0.278725	0.342183
C35	C	1.069867	-0.138474	0.348459
C36	C	1.090811	-0.607840	0.136251
C37	C	1.090920	-0.607521	0.054467
C38	C	1.134353	-0.526946	0.793029
C39	C	1.134360	-0.526909	0.869890
C40	C	1.047434	-0.688299	0.862646
C41	C	1.047423	-0.688328	0.785788
C42	C	1.090887	-0.607654	0.750981
C43	C	1.090905	-0.607588	0.904700
C44	C	1.090912	-0.607548	0.988036
C45	C	1.090879	-0.607691	0.667640
H46	H	0.654316	-0.461244	0.248761
H47	H	1.012048	-0.753984	0.890995
O48	O	1.176651	-0.448752	0.759175
C49	C	1.275206	-0.431791	0.673143
C50	C	1.227372	-0.520498	0.711441
H51	H	1.316215	-0.489761	0.634530
H52	H	1.306327	-0.374118	0.716367
H53	H	1.238446	-0.365805	0.640143
H54	H	1.264078	-0.586560	0.744439
H55	H	1.196245	-0.578082	0.668182
H56	H	0.667493	-0.754447	0.406158
H57	H	1.029123	-1.084722	0.389109
O58	O	0.522712	-0.767268	0.413004
C59	C	0.538030	-0.927501	0.499086
C60	C	0.576267	-0.838558	0.451362
H61	H	0.581311	-0.985144	0.530123
H62	H	0.505002	-0.993494	0.462326
H63	H	0.499459	-0.869636	0.540180
H64	H	0.614873	-0.896321	0.410262
H65	H	0.609249	-0.772562	0.488168
O66	O	1.160512	-1.139898	0.258101
C67	C	1.287533	-1.180319	0.220758
C68	C	1.232439	-1.107794	0.275673
H69	H	1.345699	-1.154410	0.234955
H70	H	1.273559	-1.154521	0.162529
H71	H	1.284128	-1.285800	0.224165
H72	H	1.235814	-1.002296	0.272333
H73	H	1.246430	-1.133696	0.333878
H74	H	1.169754	-0.461187	0.904122
O75	O	1.005181	-0.766854	0.745045
C76	C	0.918929	-0.926876	0.745967
C77	C	0.966746	-0.838041	0.792195
H78	H	0.887831	-0.984435	0.784069
H79	H	0.955627	-0.992952	0.707052
H80	H	0.877889	-0.868932	0.712552
H81	H	1.007792	-0.895883	0.825655
H82	H	0.930002	-0.771962	0.831064
H83	H	0.514875	-0.461271	0.248777
