data_functionalizedCrystal
_audit_creation_method	'MofGen! by Chris Wilmer'
_symmetry_space_group_name_H-M	'P1'
_symmetry_Int_Tables_number	1
_symmetry_cell_setting	triclinic
loop_
_symmetry_equiv_pos_as_xyz
  x,y,z
_cell_length_a	19.805406
_cell_length_b	12.759401
_cell_length_c	12.759393
_cell_angle_alpha	89.981504
_cell_angle_beta	90.022680
_cell_angle_gamma	89.999873
loop_
_atom_site_label
_atom_site_type_symbol
_atom_site_fract_x
_atom_site_fract_y
_atom_site_fract_z
Zn1	Zn	0.269420	1.606363	-0.594046
Zn2	Zn	0.769420	2.106363	-0.094046
Zn3	Zn	0.382625	1.606302	-0.418394
Zn4	Zn	0.882625	2.106302	0.081606
Zn5	Zn	0.269456	1.430665	-0.418386
Zn6	Zn	0.769456	1.930665	0.081614
Zn7	Zn	0.382573	1.430699	-0.594035
Zn8	Zn	0.882573	1.930699	-0.094035
O9	O	0.326019	1.518507	-0.506215
O10	O	0.826019	2.018507	-0.006215
O11	O	0.284444	1.753376	-0.570754
O12	O	0.784444	2.253376	-0.070754
O13	O	0.367650	1.582964	-0.271371
O14	O	0.867650	2.082964	0.228629
O15	O	0.174734	1.453983	-0.441689
O16	O	0.674734	1.953983	0.058311
O17	O	0.367615	1.753332	-0.441702
O18	O	0.867615	2.253332	0.058298
O19	O	0.174708	1.583067	-0.570746
O20	O	0.674708	2.083067	-0.070746
O21	O	0.284505	1.453924	-0.271366
O22	O	0.784505	1.953924	0.228634
O23	O	0.284454	1.283648	-0.441678
O24	O	0.784454	1.783648	0.058322
O25	O	0.367526	1.454040	-0.741058
O26	O	0.867526	1.954040	-0.241058
O27	O	0.367561	1.283673	-0.570727
O28	O	0.867561	1.783673	-0.070727
O29	O	0.284394	1.583100	-0.741066
O30	O	0.784394	2.083100	-0.241066
O31	O	0.477335	1.582997	-0.441692
O32	O	0.977335	2.082997	0.058308
O33	O	0.477296	1.453982	-0.570735
O34	O	0.977296	1.953982	-0.070735
C35	C	0.326006	1.245540	-0.506201
C36	C	0.826006	1.745540	-0.006201
C37	C	0.326017	1.128763	-0.506220
C38	C	0.826017	1.628763	-0.006220
C39	C	0.149476	1.518528	-0.506218
C40	C	0.649476	2.018528	-0.006218
C41	C	0.074244	1.518537	-0.506219
C42	C	0.574244	2.018537	-0.006219
C43	C	0.369360	1.073942	-0.573304
C44	C	0.869360	1.573942	-0.073304
C45	C	0.369369	0.964218	-0.573316
C46	C	0.869369	1.464218	-0.073316
C47	C	0.282689	0.964146	-0.439149
C48	C	0.782689	1.464146	0.060851
C49	C	0.282678	1.073868	-0.439144
C50	C	0.782678	1.573868	0.060856
C51	C	0.419406	1.073982	-0.650761
C52	C	0.919406	1.573982	-0.150761
C53	C	0.419414	0.964258	-0.650773
C54	C	0.919414	1.464258	-0.150773
C55	C	0.038912	1.451338	-0.439028
C56	C	0.538912	1.951338	0.060972
C57	C	-0.031776	1.451344	-0.439040
C58	C	0.468224	1.951344	0.060960
C59	C	-0.067132	1.518556	-0.506237
C60	C	0.432868	2.018556	-0.006237
C61	C	-0.031795	1.585758	-0.573435
C62	C	0.468205	2.085758	-0.073435
C63	C	0.038892	1.585746	-0.573428
C64	C	0.538892	2.085746	-0.073428
C65	C	-0.316868	1.585810	-0.573466
C66	C	0.183132	2.085810	-0.073466
C67	C	-0.387561	1.585820	-0.573465
C68	C	0.112439	2.085820	-0.073465
C69	C	-0.387537	1.451409	-0.439078
C70	C	0.112463	1.951409	0.060922
C71	C	-0.316850	1.451396	-0.439071
C72	C	0.183150	1.951396	0.060929
C73	C	-0.281519	1.518594	-0.506272
C74	C	0.218481	2.018594	-0.006272
C75	C	-0.204871	1.518584	-0.506260
C76	C	0.295129	2.018584	-0.006260
C77	C	-0.143779	1.518572	-0.506245
C78	C	0.356221	2.018572	-0.006245
C79	C	0.501875	1.518515	-0.506236
C80	C	1.001875	2.018515	-0.006236
C81	C	0.577106	1.518615	-0.506279
C82	C	1.077106	2.018615	-0.006279
C83	C	0.325950	1.518581	-0.780249
C84	C	0.825950	2.018581	-0.280249
C85	C	0.325921	1.518612	-0.897025
C86	C	0.825921	2.018612	-0.397025
C87	C	0.326032	1.792541	-0.506230
C88	C	0.826032	2.292541	-0.006230
C89	C	0.326037	1.909317	-0.506236
C90	C	0.826037	2.409317	-0.006236
C91	C	0.282630	1.585823	-0.951893
C92	C	0.782630	2.085823	-0.451893
C93	C	0.282605	1.585848	-1.061617
C94	C	0.782605	2.085848	-0.561617
C95	C	0.369169	1.451448	-1.061596
C96	C	0.869169	1.951448	-0.561596
C97	C	0.369190	1.451419	-0.951874
C98	C	0.869190	1.951419	-0.451874
C99	C	0.232655	1.663421	-0.951907
C100	C	0.732655	2.163421	-0.451907
C101	C	0.232630	1.663445	-1.061631
C102	C	0.732630	2.163445	-0.561631
C103	C	0.326038	1.518494	-0.233248
C104	C	0.826038	2.018494	0.266752
C105	C	0.325876	1.518667	-0.116472
C106	C	0.825876	2.018667	0.383528
H107	H	0.247379	1.118500	-0.384524
H108	H	0.747379	1.618500	0.115476
H109	H	0.247404	0.919438	-0.384539
H110	H	0.747404	1.419438	0.115461
H111	H	0.067658	1.640458	-0.628149
H112	H	0.567658	2.140458	-0.128149
H113	H	-0.060543	1.396625	-0.384329
H114	H	0.439457	1.896625	0.115671
H115	H	0.405426	1.103785	-0.732165
H116	H	0.905426	1.603785	-0.232165
C117	C	0.486641	1.119966	-0.611219
C118	C	0.986641	1.619966	-0.111219
N119	N	0.537283	1.154601	-0.581434
N120	N	1.037283	1.654601	-0.081434
H121	H	0.400703	0.930253	-0.728120
H122	H	0.900703	1.430253	-0.228120
C123	C	0.161843	1.633976	-0.911686
C124	C	0.661843	2.133976	-0.411686
N125	N	0.108510	1.611795	-0.881391
N126	N	0.608510	2.111795	-0.381391
C127	C	-0.070689	1.659693	-0.647352
C128	C	0.429311	2.159693	-0.147352
N129	N	-0.099983	1.715387	-0.703024
N130	N	0.400017	2.215387	-0.203024
H131	H	0.471823	0.934483	-0.628853
H132	H	0.971823	1.434483	-0.128853
H133	H	0.404440	1.396686	-0.907204
H134	H	0.904440	1.896686	-0.407204
H135	H	0.182825	1.634312	-1.095667
H136	H	0.682825	2.134312	-0.595667
H137	H	-0.288067	1.396669	-0.384348
H138	H	0.211933	1.896669	0.115652
C139	C	0.077797	1.377398	-0.365105
C140	C	0.577797	1.877398	0.134895
N141	N	0.107083	1.321700	-0.309427
N142	N	0.607083	1.821700	0.190573
C143	C	-0.426407	1.377479	-0.365164
C144	C	0.073593	1.877479	0.134836
N145	N	-0.455682	1.321798	-0.309493
N146	N	0.044318	1.821798	0.190507
H147	H	-0.416346	1.640553	-0.628189
H148	H	0.083654	2.140553	-0.128189
C149	C	0.416762	1.377539	-1.121939
C150	C	0.916762	1.877539	-0.621939
N151	N	0.452609	1.321868	-1.167389
N152	N	0.952609	1.821868	-0.667389
C153	C	-0.278014	1.659749	-0.647370
C154	C	0.221986	2.159749	-0.147370
N155	N	-0.248747	1.715449	-0.703033
N156	N	0.251253	2.215449	-0.203033
H157	H	0.251446	1.740700	-0.917875
H158	H	0.751446	2.240700	-0.417875
H159	H	0.246670	1.744822	-1.091413
H160	H	0.746670	2.244822	-0.591413
