data_functionalizedCrystal
_audit_creation_method	'MofGen! by Chris Wilmer'
_symmetry_space_group_name_H-M	'P1'
_symmetry_Int_Tables_number	1
_symmetry_cell_setting	triclinic
loop_
_symmetry_equiv_pos_as_xyz
  x,y,z
_cell_length_a	12.811457
_cell_length_b	11.792254
_cell_length_c	11.892095
_cell_angle_alpha	93.915908
_cell_angle_beta	91.498327
_cell_angle_gamma	84.120767
loop_
_atom_site_label
_atom_site_type_symbol
_atom_site_fract_x
_atom_site_fract_y
_atom_site_fract_z
O1	O	1.390093	0.156590	0.048503
O2	O	1.086814	0.170826	0.017410
O3	O	1.245806	-0.001417	0.033718
O4	O	1.231101	0.328834	0.032195
O5	O	1.232549	0.012922	0.220366
O6	O	1.073557	0.185165	0.204058
O7	O	1.376837	0.170929	0.235151
Zn8	Zn	1.223092	0.180324	0.249239
Zn9	Zn	1.240558	0.161432	0.003322
O10	O	1.217845	0.343173	0.218842
C11	C	1.041359	0.176759	0.106753
C12	C	0.925668	0.173059	0.094892
C13	C	0.693819	0.181719	0.276111
C14	C	0.585117	0.178243	0.264972
C15	C	0.599560	0.162622	0.061477
C16	C	0.708262	0.166098	0.072616
C17	C	0.755388	0.175648	0.179936
C18	C	0.864091	0.179133	0.191074
C19	C	0.878533	0.163504	-0.012420
C20	C	0.769831	0.160028	-0.023558
C21	C	1.238251	-0.036544	0.126947
C22	C	1.235479	-0.162573	0.126662
C23	C	1.233226	-0.264924	0.126427
C24	C	1.230410	-0.393328	0.126127
C25	C	1.422292	0.164997	0.145805
C26	C	1.537983	0.168696	0.157659
C27	C	1.225400	0.378299	0.125611
C28	C	1.228173	0.504328	0.125889
N29	N	1.211180	0.193217	0.417071
N30	N	1.252479	0.148530	-0.164509
C31	C	1.335372	0.058751	0.666458
C32	C	1.327053	0.067771	0.783946
C33	C	1.186218	0.220271	0.769538
C34	C	1.194537	0.211251	0.652050
C35	C	1.269118	0.130489	0.600514
C36	C	1.277441	0.121475	0.483024
C37	C	1.136602	0.273969	0.468617
C38	C	1.128283	0.282990	0.586106
H39	H	0.732188	0.189510	0.363495
O40	O	0.518553	0.184902	0.368593
H41	H	0.544646	0.112171	0.420552
H42	H	1.067558	0.348742	0.628080
H43	H	1.082656	0.332387	0.414912
O44	O	1.398524	-0.009602	0.855065
H45	H	1.350562	-0.061248	0.904071
H46	H	1.125489	0.286018	0.811513
H47	H	0.561174	0.154827	-0.025897
H48	H	0.731447	0.152246	-0.110935
O49	O	0.944943	0.156946	-0.116159
H50	H	0.985970	0.235349	-0.116855
O51	O	0.914926	0.189444	0.306819
H52	H	0.853847	0.193074	0.371823
O53	O	1.357860	0.034361	0.427420
H54	H	1.437584	0.051601	0.458281
H55	H	1.396105	-0.007001	0.624497
