data_functionalizedCrystal
_audit_creation_method	'MofGen! by Chris Wilmer'
_symmetry_space_group_name_H-M	'P1'
_symmetry_Int_Tables_number	1
_symmetry_cell_setting	triclinic
loop_
_symmetry_equiv_pos_as_xyz
  x,y,z
_cell_length_a	17.038272
_cell_length_b	23.532407
_cell_length_c	16.098538
_cell_angle_alpha	92.700973
_cell_angle_beta	87.069734
_cell_angle_gamma	86.980117
loop_
_atom_site_label
_atom_site_type_symbol
_atom_site_fract_x
_atom_site_fract_y
_atom_site_fract_z
O1	O	1.039966	0.121251	-0.069166
O2	O	0.812351	0.119288	-0.069191
O3	O	0.933021	0.037699	-0.069163
O4	O	0.919295	0.202840	-0.069195
O5	O	0.925973	0.042445	0.069349
O6	O	0.805302	0.124034	0.069321
O7	O	1.032917	0.125997	0.069345
Zn8	Zn	0.917990	0.125769	0.091324
Zn9	Zn	0.927278	0.119516	-0.091170
O10	O	0.912247	0.207586	0.069317
C11	C	0.779712	0.119875	0.000062
C12	C	0.692959	0.114548	0.000054
C13	C	0.642483	0.163453	0.000045
C14	C	0.560969	0.158445	0.000057
C15	C	0.529932	0.104532	0.000072
C16	C	0.580415	0.055624	0.000084
C17	C	0.661927	0.060632	0.000077
C18	C	0.284304	0.086837	0.000098
C19	C	0.202786	0.081832	0.000102
C20	C	0.183345	0.184654	0.000077
C21	C	0.264860	0.189657	0.000066
C22	C	0.315335	0.140750	0.000081
C23	C	0.446612	0.099411	0.000083
C24	C	0.398653	0.145871	0.000077
C25	C	0.929147	0.018838	0.000095
C26	C	0.928096	-0.044434	0.000101
C27	C	0.992917	-0.440131	0.000063
C28	C	0.991941	-0.499583	0.000056
O29	O	1.052030	-0.533169	0.000032
N30	N	0.920202	-0.525981	0.000049
C31	C	0.849435	-0.492924	0.000040
O32	O	0.788325	-0.520836	0.000033
C33	C	0.850412	-0.433473	0.000041
C34	C	0.922155	-0.407078	0.000056
C35	C	1.064654	-0.413736	0.000077
C36	C	1.065630	-0.354288	0.000085
C37	C	0.994868	-0.321236	0.000079
C38	C	0.923131	-0.347631	0.000064
C39	C	0.779646	-0.400418	0.000026
C40	C	0.780629	-0.340963	0.000025
C41	C	0.852372	-0.314569	0.000041
C42	C	0.853344	-0.255130	0.000066
N43	N	0.925083	-0.228732	0.000073
C44	C	0.995845	-0.261785	0.000079
C45	C	0.847388	-0.617774	0.000038
C46	C	0.846410	-0.677223	0.000043
C47	C	0.988917	-0.683878	0.000058
C48	C	0.989894	-0.624428	0.000058
C49	C	0.919127	-0.591376	0.000045
C50	C	0.997889	-0.136940	0.000097
C51	C	0.998858	-0.077487	0.000108
C52	C	0.856352	-0.070837	0.000089
C53	C	0.855382	-0.130285	0.000082
C54	C	0.926157	-0.163336	0.000083
O55	O	0.793287	-0.221508	0.000086
O56	O	1.056945	-0.233865	0.000076
C57	C	1.065556	0.125410	0.000090
C58	C	1.152310	0.130737	0.000093
C59	C	0.916121	0.226447	0.000057
C60	C	0.917172	0.289719	0.000045
N61	N	0.911658	0.130036	0.215872
N62	N	0.933616	0.115244	-0.215718
C63	C	0.962894	0.095421	0.259469
C64	C	0.958471	0.098412	0.346657
C65	C	0.902816	0.136022	0.390246
C66	C	0.851574	0.170639	0.346643
C67	C	0.855994	0.167644	0.259457
C68	C	0.886795	0.146867	0.653493
C69	C	0.882380	0.149860	0.740685
C70	C	0.989277	0.077632	0.740693
C71	C	0.993694	0.074644	0.653505
C72	C	0.942450	0.109258	0.609909
C73	C	0.898295	0.139081	0.479366
C74	C	0.946968	0.106195	0.520791
H75	H	0.421332	0.055516	0.000119
H76	H	0.703024	0.020809	0.000084
H77	H	0.423926	0.189766	0.000069
H78	H	0.852981	0.169705	0.514864
Cl79	Cl	0.758415	-0.576229	0.000030
Cl80	Cl	0.163770	0.014051	0.000140
H81	H	0.667745	0.207354	0.000032
Cl82	Cl	0.689449	-0.433585	0.000001
H83	H	0.787989	-0.698708	0.000045
Cl84	Cl	1.153625	-0.455277	0.000087
Cl85	Cl	1.032868	0.048141	0.204680
Cl86	Cl	0.303871	0.257436	0.000041
Cl87	Cl	0.497516	0.219928	0.000041
H88	H	0.837057	0.180488	0.776172
H89	H	1.055521	-0.163843	0.000094
Cl90	Cl	1.016930	0.058914	0.465992
Cl91	Cl	1.155828	-0.321116	0.000081
Cl92	Cl	0.347748	0.025352	0.000117
Cl93	Cl	0.119887	0.246134	0.000061
Cl94	Cl	0.765189	-0.163468	0.000078
Cl95	Cl	0.822378	0.190383	0.598693
Cl96	Cl	0.781603	0.217917	0.401439
H97	H	1.000191	0.070225	0.382153
Cl98	Cl	0.541397	-0.012153	0.000108
Cl99	Cl	1.089056	-0.044309	0.000126
Cl100	Cl	1.080088	-0.591252	0.000077
H101	H	1.046535	-0.710801	0.000060
H102	H	0.723001	-0.314056	0.000013
H103	H	1.039013	0.044019	0.618016
Cl104	Cl	0.767399	-0.029275	0.000079
Cl105	Cl	1.053691	0.034117	0.795502
H106	H	0.814271	0.195831	0.223961
