data_functionalizedCrystal
_audit_creation_method	'MofGen! by Chris Wilmer'
_symmetry_space_group_name_H-M	'P1'
_symmetry_Int_Tables_number	1
_symmetry_cell_setting	triclinic
loop_
_symmetry_equiv_pos_as_xyz
  x,y,z
_cell_length_a	12.759399
_cell_length_b	12.759401
_cell_length_c	12.759393
_cell_angle_alpha	90.018442
_cell_angle_beta	89.967815
_cell_angle_gamma	89.986735
loop_
_atom_site_label
_atom_site_type_symbol
_atom_site_fract_x
_atom_site_fract_y
_atom_site_fract_z
Zn1	Zn	-0.418254	-1.606241	-0.594008
Zn2	Zn	-0.593974	-1.606137	-0.418327
Zn3	Zn	-0.418304	-1.430546	-0.418344
Zn4	Zn	-0.593886	-1.430530	-0.593965
O5	O	-0.506104	-1.518364	-0.506161
O6	O	-0.441580	-1.753248	-0.570714
O7	O	-0.570728	-1.582808	-0.271308
O8	O	-0.271276	-1.453902	-0.441672
O9	O	-0.570680	-1.753172	-0.441642
O10	O	-0.271240	-1.582985	-0.570731
O11	O	-0.441664	-1.453802	-0.271321
O12	O	-0.441579	-1.283523	-0.441630
O13	O	-0.570531	-1.453875	-0.740992
O14	O	-0.570579	-1.283511	-0.570658
O15	O	-0.441495	-1.582969	-0.741023
O16	O	-0.740983	-1.582793	-0.441600
O17	O	-0.740919	-1.453775	-0.570641
C18	C	-0.779072	-1.518299	-0.506137
C19	C	-0.895848	-1.518368	-0.506162
C20	C	-0.506075	-1.245396	-0.506142
C21	C	-0.506088	-1.128620	-0.506158
C22	C	-0.505997	-1.518432	-0.780195
C23	C	-0.505952	-1.518461	-0.896971
C24	C	-0.950709	-1.585624	-0.439047
C25	C	-1.060433	-1.585691	-0.439082
C26	C	-1.060426	-1.451237	-0.573351
C27	C	-0.950704	-1.451176	-0.573320
C28	C	-1.210317	-1.709701	-0.401694
C29	C	-1.265181	-1.776948	-0.334563
C30	C	-1.229643	-1.793115	-0.232052
C31	C	-1.139244	-1.742019	-0.196653
C32	C	-1.084385	-1.674765	-0.263778
C33	C	-1.119921	-1.658618	-0.366303
C34	C	-0.800818	-1.327165	-0.610697
C35	C	-0.745958	-1.259904	-0.677819
C36	C	-0.781493	-1.243726	-0.780331
C37	C	-0.871896	-1.294804	-0.815727
C38	C	-0.926757	-1.362064	-0.748605
C39	C	-0.891214	-1.378244	-0.646094
C40	C	-0.232071	-1.518457	-0.506208
C41	C	-0.115294	-1.518497	-0.506228
C42	C	-0.573364	-1.073779	-0.573231
C43	C	-0.573373	-0.964055	-0.573240
C44	C	-0.438829	-0.964022	-0.439095
C45	C	-0.438815	-1.073744	-0.439092
C46	C	-0.651046	-1.073797	-0.650676
C47	C	-0.651055	-0.964073	-0.650685
C48	C	-0.506125	-0.792397	-0.506176
C49	C	-0.506112	-0.909173	-0.506171
C50	C	-0.438736	-1.451316	-0.951846
C51	C	-0.438704	-1.451348	-1.061570
C52	C	-0.573108	-1.585678	-1.061535
C53	C	-0.573144	-1.585641	-0.951813
C54	C	-0.361135	-1.373764	-0.951867
C55	C	-0.361104	-1.373796	-1.061591
C56	C	-0.506135	-1.518356	-0.233194
C57	C	-0.505885	-1.518531	-0.116418
H58	H	-0.906048	-1.640337	-0.384365
H59	H	-0.390227	-1.296499	-1.095615
Cl60	Cl	-0.970751	-1.610528	-0.219284
Cl61	Cl	-0.241828	-1.418791	-0.899342
H62	H	-0.382922	-1.292375	-0.922088
H63	H	-0.736816	-1.188953	-0.834979
H64	H	-0.384056	-0.919329	-0.384493
H65	H	-0.279723	-1.395614	-1.091389
Cl66	Cl	-0.354217	-1.142683	-0.354788
H67	H	-0.627893	-1.640301	-0.907138
Cl68	Cl	-1.094582	-1.762335	-0.067769
Cl69	Cl	-1.298618	-1.877654	-0.147661
Cl70	Cl	-0.657574	-1.670127	-1.130487
Cl71	Cl	-1.254989	-1.689397	-0.530575
Cl72	Cl	-1.378822	-1.841181	-0.379065
H73	H	-0.771871	-1.340339	-0.527226
Cl74	Cl	-1.040408	-1.426279	-0.793105
Cl75	Cl	-1.129395	-1.366769	-0.657769
H76	H	-0.900830	-1.281632	-0.899201
Cl77	Cl	-0.770354	-1.126321	-0.605564
H78	H	-0.672342	-1.218320	-0.648993
H79	H	-0.629347	-1.103604	-0.732083
Cl80	Cl	-0.606212	-0.911572	-0.770105
Cl81	Cl	-0.776636	-0.918062	-0.616787
