data_functionalizedCrystal
_audit_creation_method	'MofGen! by Chris Wilmer'
_symmetry_space_group_name_H-M	'P1'
_symmetry_Int_Tables_number	1
_symmetry_cell_setting	triclinic
loop_
_symmetry_equiv_pos_as_xyz
  x,y,z
_cell_length_a	6.817900
_cell_length_b	9.514063
_cell_length_c	12.200875
_cell_angle_alpha	89.403086
_cell_angle_beta	107.143593
_cell_angle_gamma	118.843314
loop_
_atom_site_label
_atom_site_type_symbol
_atom_site_fract_x
_atom_site_fract_y
_atom_site_fract_z
V1	V	-4.153274	-0.222572	-0.358568
O2	O	-4.051100	0.010320	-0.350810
O3	O	-4.187867	-0.440961	-0.357012
O4	O	-4.121753	-0.219313	-0.514543
O5	O	-4.117672	-0.212863	-0.192189
V6	V	-4.623961	-0.194696	-0.338559
O7	O	-4.442690	-0.283720	-0.402460
O8	O	-4.784742	-0.133547	-0.294667
O9	O	-4.366161	0.023694	-0.340115
O10	O	-4.843531	-0.427587	-0.346317
O11	O	-4.776960	-0.204405	-0.504938
O12	O	-4.432275	-0.197954	-0.182584
C13	C	-4.052512	-0.494195	-0.351587
C14	C	-4.162195	-0.672732	-0.351354
C15	C	-3.968175	-0.211458	-0.552532
C16	C	-4.024236	-0.210239	-0.680048
C17	C	-4.126836	-0.208008	-0.913513
C18	C	-4.069733	-0.209248	-0.783596
C19	C	-4.164861	0.076919	-0.345537
C20	C	-4.034417	0.255455	-0.345777
C21	C	-4.249197	-0.205814	-0.144589
C22	C	-4.172371	-0.207026	-0.017072
H23	H	-4.355494	-0.747832	-0.355937
H24	H	-3.841094	-0.669433	-0.341177
