data_functionalizedCrystal
_audit_creation_method	'MofGen! by Chris Wilmer'
_symmetry_space_group_name_H-M	'P1'
_symmetry_Int_Tables_number	1
_symmetry_cell_setting	triclinic
loop_
_symmetry_equiv_pos_as_xyz
  x,y,z
_cell_length_a	23.532407
_cell_length_b	22.010155
_cell_length_c	14.519709
_cell_angle_alpha	90.005419
_cell_angle_beta	83.264411
_cell_angle_gamma	90.010358
loop_
_atom_site_label
_atom_site_type_symbol
_atom_site_fract_x
_atom_site_fract_y
_atom_site_fract_z
O1	O	0.755774	0.050451	0.111947
O2	O	1.255774	0.550451	0.611947
O3	O	0.589984	0.050469	0.128145
O4	O	1.089984	0.550469	0.628145
O5	O	0.677275	0.050454	-0.014244
O6	O	1.177275	0.550454	0.485756
O7	O	0.668483	0.050466	0.254337
O8	O	1.168483	0.550466	0.754337
O9	O	0.677248	-0.050597	-0.014244
O10	O	1.177248	0.449403	0.485756
O11	O	0.589957	-0.050582	0.128145
O12	O	1.089957	0.449418	0.628145
O13	O	0.755748	-0.050600	0.111947
O14	O	1.255748	0.449400	0.611947
Cu15	Cu	0.672850	-0.059817	0.120046
Cu16	Cu	1.172850	0.440183	0.620046
Cu17	Cu	0.672881	0.059686	0.120046
Cu18	Cu	1.172881	0.559686	0.620046
O19	O	0.668457	-0.050585	0.254337
O20	O	1.168457	0.449415	0.754337
C21	C	0.568753	-0.000054	0.127733
C22	C	1.068753	0.499946	0.627733
C23	C	0.505530	-0.000048	0.126493
C24	C	1.005530	0.499952	0.626493
N25	N	0.672832	-0.143870	0.120046
N26	N	1.172832	0.356130	0.620046
C27	C	0.106772	-0.000072	0.202977
C28	C	0.606772	0.499928	0.702977
C29	C	0.047367	-0.000075	0.201825
C30	C	0.547367	0.499925	0.701825
O31	O	0.010942	-0.000094	0.272727
O32	O	0.510942	0.499906	0.772727
N33	N	0.024358	-0.000078	0.117175
N34	N	0.524358	0.499922	0.617175
C35	C	0.060759	-0.000083	0.033671
C36	C	0.560759	0.499917	0.533671
O37	O	0.035734	-0.000087	-0.038437
O38	O	0.535734	0.499913	0.461563
C39	C	0.120164	-0.000084	0.034824
C40	C	0.620164	0.499916	0.534824
C41	C	0.143168	-0.000075	0.119480
C42	C	0.643168	0.499925	0.619480
C43	C	0.129777	-0.000063	0.287626
C44	C	0.629777	0.499937	0.787626
C45	C	0.189179	-0.000059	0.288778
C46	C	0.689179	0.499941	0.788778
C47	C	0.225575	-0.000062	0.205281
C48	C	0.725575	0.499938	0.705281
C49	C	0.202570	-0.000070	0.120631
C50	C	0.702570	0.499930	0.620631
C51	C	0.156563	-0.000093	-0.048679
C52	C	0.656563	0.499907	0.451321
C53	C	0.215971	-0.000094	-0.047519
C54	C	0.715971	0.499906	0.452481
C55	C	0.238976	-0.000086	0.037137
C56	C	0.738976	0.499914	0.537137
C57	C	0.298367	-0.000069	0.038286
C58	C	0.798367	0.499931	0.538286
N59	N	0.321375	-0.000066	0.122936
N60	N	0.821375	0.499934	0.622936
C61	C	0.284979	-0.000062	0.206434
C62	C	0.784979	0.499938	0.706434
C63	C	-0.063994	-0.000083	0.031256
C64	C	0.436006	0.499917	0.531256
C65	C	-0.123397	-0.000078	0.030102
C66	C	0.376603	0.499922	0.530102
C67	C	-0.136786	-0.000072	0.198257
C68	C	0.363214	0.499928	0.698257
C69	C	-0.077382	-0.000072	0.199410
C70	C	0.422618	0.499928	0.699410
C71	C	-0.040986	-0.000080	0.115906
C72	C	0.459014	0.499920	0.615906
C73	C	0.409727	-0.000052	0.208846
C74	C	0.909727	0.499948	0.708846
C75	C	0.469134	-0.000044	0.209990
C76	C	0.969134	0.499956	0.709990
C77	C	0.482517	-0.000054	0.041836
C78	C	0.982517	0.499946	0.541836
C79	C	0.423115	-0.000058	0.040691
C80	C	0.923115	0.499942	0.540691
C81	C	0.386721	-0.000059	0.124204
C82	C	0.886721	0.499941	0.624204
O83	O	0.334827	-0.000052	-0.032579
O84	O	0.834827	0.499948	0.467421
O85	O	0.310012	-0.000067	0.278529
O86	O	0.810012	0.499933	0.778529
C87	C	0.707478	-0.563651	0.175686
C88	C	1.207478	-0.063651	0.675686
C89	C	0.707485	-0.627258	0.175683
C90	C	1.207485	-0.127258	0.675683
O91	O	0.736921	-0.660151	0.222985
O92	O	1.236921	-0.160151	0.722985
N93	N	0.672892	-0.659077	0.120036
N94	N	1.172892	-0.159077	0.620036
C95	C	0.638296	-0.627285	0.064379
C96	C	1.138296	-0.127285	0.564379
O97	O	0.608873	-0.660190	0.017046
O98	O	1.108873	-0.160190	0.517046
C99	C	0.638292	-0.563678	0.064377
C100	C	1.138292	-0.063678	0.564377
C101	C	0.672882	-0.531863	0.120036
C102	C	1.172882	-0.031863	0.620036
C103	C	0.742066	-0.531835	0.231339
C104	C	1.242066	-0.031835	0.731339
C105	C	0.742058	-0.468232	0.231342
C106	C	1.242058	0.031768	0.731342
C107	C	0.707463	-0.436444	0.175693
C108	C	1.207463	0.063556	0.675693
C109	C	0.672875	-0.468260	0.120039
C110	C	1.172875	0.031740	0.620039
C111	C	0.603699	-0.531887	0.008717
C112	C	1.103699	-0.031887	0.508717
C113	C	0.603699	-0.468276	0.008719
C114	C	1.103699	0.031724	0.508719
C115	C	0.638289	-0.436461	0.064378
C116	C	1.138289	0.063539	0.564378
C117	C	0.638272	-0.372869	0.064393
C118	C	1.138272	0.127131	0.564393
N119	N	0.672864	-0.341050	0.120041
N120	N	1.172864	0.158950	0.620041
C121	C	0.707459	-0.372838	0.175691
C122	C	1.207459	0.127162	0.675691
C123	C	0.638306	-0.760863	0.064387
C124	C	1.138306	-0.260863	0.564387
C125	C	0.638306	-0.824468	0.064393
C126	C	1.138306	-0.324468	0.564393
C127	C	0.707496	-0.824437	0.175696
C128	C	1.207496	-0.324437	0.675696
C129	C	0.707492	-0.760831	0.175694
C130	C	1.207492	-0.260831	0.675694
C131	C	0.672898	-0.729044	0.120034
C132	C	1.172898	-0.229044	0.620034
C133	C	0.707440	-0.239266	0.175694
C134	C	1.207440	0.260734	0.675694
C135	C	0.707428	-0.175658	0.175695
C136	C	1.207428	0.324342	0.675695
C137	C	0.638240	-0.175694	0.064389
C138	C	1.138240	0.324306	0.564389
C139	C	0.638250	-0.239297	0.064391
C140	C	1.138250	0.260703	0.564391
C141	C	0.672855	-0.271082	0.120046
C142	C	1.172855	0.228918	0.620046
O143	O	0.608852	-0.339936	0.017113
O144	O	1.108852	0.160064	0.517113
O145	O	0.736882	-0.339925	0.223007
O146	O	1.236882	0.160075	0.723007
C147	C	0.776979	-0.000075	0.112360
C148	C	1.276979	0.499925	0.612360
C149	C	0.840201	-0.000078	0.113600
C150	C	1.340201	0.499922	0.613600
C151	C	0.676852	-0.000072	-0.048599
C152	C	1.176852	0.499928	0.451401
C153	C	0.675624	-0.000072	-0.150966
C154	C	1.175624	0.499928	0.349034
N155	N	0.672904	0.143739	0.120039
N156	N	1.172904	0.643739	0.620039
C157	C	0.671104	-0.000055	-0.525808
C158	C	1.171104	0.499945	-0.025808
C159	C	0.672359	-0.000060	-0.421515
C160	C	1.172359	0.499940	0.078485
C161	C	0.673364	-0.000064	-0.338390
C162	C	1.173364	0.499936	0.161610
C163	C	0.674619	-0.000068	-0.234091
C164	C	1.174619	0.499932	0.265909
C165	C	0.668880	-0.000058	0.288692
C166	C	1.168880	0.499942	0.788692
C167	C	0.670107	-0.000054	0.391058
C168	C	1.170107	0.499946	0.891058
H169	H	0.487860	-0.000037	0.278930
H170	H	0.987860	0.499963	0.778930
H171	H	0.404384	-0.000057	-0.028243
H172	H	0.904384	0.499943	0.471757
C173	C	0.780115	-0.566792	0.292582
C174	C	1.280115	-0.066792	0.792582
N175	N	0.808770	-0.593117	0.338726
N176	N	1.308770	-0.093117	0.838726
C177	C	0.745548	-0.725840	0.236915
C178	C	1.245548	-0.225840	0.736915
N179	N	0.774215	-0.699488	0.283027
N180	N	1.274215	-0.199488	0.783027
C181	C	0.745484	-0.140664	0.236923
C182	C	1.245484	0.359336	0.736923
N183	N	0.774148	-0.114310	0.283035
N184	N	1.274148	0.385690	0.783035
C185	C	-0.148695	-0.000084	-0.063026
C186	C	0.351305	0.499916	0.436974
N187	N	-0.167747	-0.000093	-0.133174
N188	N	0.332253	0.499907	0.366826
H189	H	-0.034363	-0.000085	-0.036747
H190	H	0.465637	0.499915	0.463253
H191	H	0.735664	-0.850330	0.221010
H192	H	1.235664	-0.350330	0.721010
H193	H	0.610132	-0.850367	0.019081
H194	H	1.110132	-0.350367	0.519081
C195	C	0.745501	-0.274220	0.236927
C196	C	1.245501	0.225780	0.736927
N197	N	0.774165	-0.300547	0.283054
N198	N	1.274165	0.199453	0.783054
H199	H	0.380101	-0.000054	0.276850
H200	H	0.880101	0.499946	0.776850
C201	C	0.600239	-0.725903	0.003165
C202	C	1.100239	-0.225903	0.503165
N203	N	0.571567	-0.699574	-0.042946
N204	N	1.071567	-0.199574	0.457054
H205	H	0.245602	-0.000102	-0.115519
H206	H	0.745602	0.499898	0.384481
H207	H	0.575533	-0.557780	-0.036608
H208	H	1.075533	-0.057780	0.463392
H209	H	0.575528	-0.442399	-0.036607
H210	H	1.075528	0.057601	0.463393
C211	C	0.522564	-0.000065	-0.050007
C212	C	1.022564	0.499935	0.449993
N213	N	0.552729	-0.000080	-0.119183
N214	N	1.052729	0.499920	0.380817
C215	C	0.780117	-0.433243	0.292560
C216	C	1.280117	0.066757	0.792560
N217	N	0.808789	-0.406894	0.338668
N218	N	1.308789	0.093106	0.838668
H219	H	0.610077	-0.265203	0.019081
H220	H	1.110077	0.234797	0.519081
C221	C	0.600279	-0.140715	0.003028
C222	C	1.100279	0.359285	0.503028
N223	N	0.571723	-0.114368	-0.043249
N224	N	1.071723	0.385632	0.456751
H225	H	0.100149	-0.000063	0.355624
H226	H	0.600149	0.499937	0.855624
C227	C	0.214475	-0.000062	0.381907
C228	C	0.714475	0.499938	0.881907
N229	N	0.233525	-0.000069	0.452057
N230	N	0.733525	0.499931	0.952057
C231	C	0.131272	-0.000115	-0.141809
C232	C	0.631272	0.499885	0.358191
N233	N	0.112224	-0.000137	-0.211960
N234	N	0.612224	0.499863	0.288040
H235	H	-0.166431	-0.000072	0.266245
H236	H	0.333569	0.499928	0.766245
C237	C	-0.052083	-0.000069	0.292537
C238	C	0.447917	0.499931	0.792537
N239	N	-0.033031	-0.000069	0.362684
N240	N	0.466969	0.499931	0.862684
