data_functionalizedCrystal
_audit_creation_method	'MofGen! by Chris Wilmer'
_symmetry_space_group_name_H-M	'P1'
_symmetry_Int_Tables_number	1
_symmetry_cell_setting	triclinic
loop_
_symmetry_equiv_pos_as_xyz
  x,y,z
_cell_length_a	12.811457
_cell_length_b	10.489716
_cell_length_c	11.295487
_cell_angle_alpha	94.137811
_cell_angle_beta	91.284913
_cell_angle_gamma	84.284886
loop_
_atom_site_label
_atom_site_type_symbol
_atom_site_fract_x
_atom_site_fract_y
_atom_site_fract_z
O1	O	1.390324	0.176207	0.051131
O2	O	1.087201	0.192066	0.018395
O3	O	1.245673	-0.001440	0.035505
O4	O	1.231851	0.369713	0.034021
O5	O	1.231741	0.015521	0.232052
O6	O	1.073269	0.209026	0.214942
O7	O	1.376392	0.193168	0.247678
Cu8	Cu	1.223558	0.202646	0.249256
Cu9	Cu	1.240034	0.182588	0.016817
O10	O	1.217919	0.386674	0.230568
C11	C	1.041420	0.199138	0.112476
C12	C	0.925765	0.194926	0.099985
C13	C	0.693247	0.205480	0.290813
C14	C	0.584578	0.201522	0.279083
C15	C	0.599757	0.183045	0.064795
C16	C	0.708426	0.187002	0.076526
C17	C	0.755166	0.198222	0.189538
C18	C	0.863837	0.202188	0.201268
C19	C	0.879015	0.183701	-0.013019
C20	C	0.770346	0.179744	-0.024749
C21	C	1.237669	-0.040496	0.133663
C22	C	1.234563	-0.182138	0.133317
C23	C	1.331742	-0.279480	0.143823
C24	C	1.287259	-0.365378	0.041372
C25	C	1.273501	-0.348620	0.235149
C26	C	1.190126	-0.266178	0.030790
C27	C	1.176376	-0.249407	0.224656
C28	C	1.131823	-0.335258	0.122174
C29	C	1.422172	0.186096	0.153594
C30	C	1.537828	0.190307	0.166077
C31	C	1.225924	0.425729	0.132408
C32	C	1.229030	0.567371	0.132746
N33	N	1.211978	0.216753	0.412743
C34	C	1.128689	0.318428	0.590772
C35	C	1.137421	0.307747	0.467051
C36	C	1.277804	0.136430	0.482164
C37	C	1.269071	0.147111	0.605885
C38	C	1.194512	0.238114	0.660185
C39	C	1.185785	0.248800	0.783908
C40	C	1.326161	0.077477	0.799019
C41	C	1.334894	0.066797	0.675298
N42	N	1.251611	0.168477	0.853330
H43	H	1.416279	-0.254523	0.152853
H44	H	0.929441	0.177799	-0.095484
H45	H	0.561684	0.173888	-0.027214
H46	H	1.395596	-0.007300	0.631073
H47	H	1.154938	-0.230091	-0.055654
C48	C	0.719709	0.167771	-0.147517
C49	C	0.739837	0.272659	-0.210471
C50	C	0.693219	0.261671	-0.323575
H51	H	0.646111	0.166505	-0.140167
H52	H	0.748049	0.090435	-0.188896
H53	H	0.711492	0.349974	-0.169102
H54	H	0.813426	0.273945	-0.217854
H55	H	0.721560	0.184336	-0.364955
H56	H	0.619624	0.260403	-0.316214
H57	H	0.706878	0.332828	-0.366308
C58	C	1.113982	-0.181887	0.327891
C59	C	1.116972	-0.048975	0.326131
C60	C	1.059502	0.013267	0.421213
H61	H	1.143671	-0.209902	0.400505
H62	H	1.043269	-0.201795	0.320956
H63	H	1.187671	-0.029077	0.333075
H64	H	1.087275	-0.020924	0.253539
H65	H	0.988789	-0.006641	0.414278
H66	H	1.089197	-0.014757	0.493819
H67	H	1.061515	0.103454	0.420025
H68	H	1.308738	-0.384883	0.321505
H69	H	1.334090	-0.415803	-0.036126
H70	H	0.534165	0.207439	0.361551
C71	C	1.019033	-0.368184	0.109684
C72	C	0.975846	-0.326324	0.002596
C73	C	0.871953	-0.356650	-0.008962
H74	H	0.979326	-0.326826	0.174025
H75	H	1.017564	-0.458523	0.110124
H76	H	0.977308	-0.236002	0.002167
H77	H	1.015522	-0.367675	-0.061764
H78	H	0.870484	-0.446989	-0.008522
H79	H	0.832257	-0.315291	0.055384
H80	H	0.842641	-0.328264	-0.081626
C81	C	1.104732	0.347629	0.842639
C82	C	1.048934	0.415650	0.755361
C83	C	0.974245	0.506687	0.809413
H84	H	1.139059	0.405599	0.894968
H85	H	1.057573	0.305263	0.886169
H86	H	1.096086	0.458015	0.711851
H87	H	1.014584	0.357715	0.703027
H88	H	0.927086	0.464321	0.852942
H89	H	1.008582	0.564648	0.861741
H90	H	0.936371	0.552842	0.750203
H91	H	1.067987	0.392535	0.634984
C92	C	1.065898	0.395111	0.391896
C93	C	0.998755	0.477110	0.465938
C94	C	0.932860	0.557621	0.396749
H95	H	1.025507	0.344540	0.338915
H96	H	1.107141	0.444695	0.347729
H97	H	0.957516	0.427531	0.510085
H98	H	1.039117	0.527709	0.518918
H99	H	0.974103	0.607205	0.352582
H100	H	0.892476	0.507039	0.343771
H101	H	0.887302	0.613274	0.446976
C102	C	1.358633	0.037572	0.423078
C103	C	1.338831	-0.085564	0.451051
C104	C	1.413267	-0.176600	0.396553
H105	H	1.426879	0.054108	0.450737
H106	H	1.354296	0.042798	0.339464
H107	H	1.343177	-0.090786	0.534648
H108	H	1.270599	-0.102140	0.423391
H109	H	1.408930	-0.171375	0.312939
H110	H	1.481508	-0.160053	0.424217
H111	H	1.399836	-0.260159	0.415517
C112	C	1.397769	-0.009797	0.874183
C113	C	1.464950	-0.091750	0.800145
C114	C	1.530941	-0.172143	0.869345
H115	H	1.356628	-0.059429	0.918400
H116	H	1.438121	0.040900	0.927120
H117	H	1.424602	-0.142442	0.747229
H118	H	1.506113	-0.042153	0.755928
H119	H	1.571293	-0.121446	0.922282
H120	H	1.489792	-0.221766	0.913559
H121	H	1.576537	-0.227749	0.819121
C122	C	0.914398	0.214301	0.324066
C123	C	0.836910	0.219771	0.410246
C124	C	0.883446	0.230907	0.523383
H125	H	0.949077	0.290449	0.332480
H126	H	0.963841	0.141976	0.333946
H127	H	0.787485	0.292089	0.400371
H128	H	0.802225	0.143632	0.401871
H129	H	0.932889	0.158582	0.533263
H130	H	0.918125	0.307055	0.531785
H131	H	0.830879	0.234608	0.581870
H132	H	0.731302	0.214632	0.382832
