data_functionalizedCrystal
_audit_creation_method	'MofGen! by Chris Wilmer'
_symmetry_space_group_name_H-M	'P1'
_symmetry_Int_Tables_number	1
_symmetry_cell_setting	triclinic
loop_
_symmetry_equiv_pos_as_xyz
  x,y,z
_cell_length_a	10.489741
_cell_length_b	7.681481
_cell_length_c	8.559649
_cell_angle_alpha	85.069100
_cell_angle_beta	77.158919
_cell_angle_gamma	95.784933
loop_
_atom_site_label
_atom_site_type_symbol
_atom_site_fract_x
_atom_site_fract_y
_atom_site_fract_z
O1	O	1.656827	-0.146313	0.240139
O2	O	1.283403	-0.146340	0.261279
O3	O	1.503014	-0.146322	0.018485
O4	O	1.437216	-0.146331	0.482933
O5	O	1.530052	0.146538	-0.011467
O6	O	1.310441	0.146520	0.231327
O7	O	1.683864	0.146547	0.210187
Zn8	Zn	1.501445	0.193031	0.216001
Zn9	Zn	1.465823	-0.192824	0.255465
O10	O	1.464253	0.146529	0.452981
C11	C	1.249558	0.000087	0.244707
C12	C	1.108431	0.000076	0.239932
N13	N	1.525766	0.456367	0.189068
N14	N	1.441513	-0.456161	0.282385
C15	C	1.056559	0.000096	0.085448
C16	C	0.943417	-0.144297	0.173191
C17	C	0.970104	0.144440	0.143698
C18	C	0.997137	-0.144436	0.327750
C19	C	1.023847	0.144431	0.298222
C20	C	0.910718	0.000003	0.386081
C21	C	1.717709	0.000116	0.226760
C22	C	1.858836	0.000115	0.231536
C23	C	1.521519	0.000105	-0.055963
C24	C	1.536361	0.000096	-0.233171
C25	C	1.445748	0.000098	0.527429
C26	C	1.430906	0.000095	0.704639
H27	H	1.119604	-0.000083	-0.041527
H28	H	0.908016	-0.266371	0.120312
H29	H	1.638009	0.000117	-0.315510
N30	N	1.013901	-0.306323	0.430822
H31	H	1.109767	-0.305367	0.433376
H32	H	0.983800	-0.415160	0.383988
N33	N	1.296274	0.000103	-0.186307
H34	H	1.275275	-0.108462	-0.105335
H35	H	1.228092	0.000177	-0.253088
H36	H	0.847901	-0.000078	0.513217
H37	H	1.059287	0.266510	0.351047
H38	H	1.355509	0.468636	0.377634
H39	H	1.611784	0.531580	0.093824
H40	H	0.957281	0.266513	0.065820
