data_functionalizedCrystal
_audit_creation_method	'MofGen! by Chris Wilmer'
_symmetry_space_group_name_H-M	'P1'
_symmetry_Int_Tables_number	1
_symmetry_cell_setting	triclinic
loop_
_symmetry_equiv_pos_as_xyz
  x,y,z
_cell_length_a	10.654562
_cell_length_b	17.000383
_cell_length_c	9.130313
_cell_angle_alpha	89.999781
_cell_angle_beta	89.996930
_cell_angle_gamma	80.045203
loop_
_atom_site_label
_atom_site_type_symbol
_atom_site_fract_x
_atom_site_fract_y
_atom_site_fract_z
O1	O	1.653947	0.111769	-0.121891
O2	O	1.287151	0.122402	-0.121873
O3	O	1.493322	0.001346	-0.121877
O4	O	1.447776	0.232825	-0.121886
O5	O	1.493320	0.001349	0.121721
O6	O	1.287148	0.122406	0.121726
O7	O	1.653945	0.111772	0.121708
Cu8	Cu	1.470546	0.117089	0.143959
Cu9	Cu	1.470549	0.117085	-0.144124
O10	O	1.447773	0.232829	0.121712
C11	C	1.240449	0.121621	-0.000071
C12	C	1.101297	0.119279	-0.000064
C13	C	1.035901	0.118188	0.132711
C14	C	0.905151	0.115994	0.132686
C15	C	0.905205	0.115984	-0.132899
C16	C	1.035954	0.118173	-0.132873
C17	C	1.101244	0.119294	0.265520
C18	C	1.035847	0.118204	0.398305
C19	C	0.905097	0.116010	0.398280
C20	C	0.839744	0.114905	0.265471
C21	C	1.495767	-0.028293	-0.000080
C22	C	1.503041	-0.116611	-0.000085
C23	C	1.550009	-0.616567	-0.000093
C24	C	1.543165	-0.533582	-0.000084
C25	C	1.424364	-0.483246	-0.000085
C26	C	1.312401	-0.515900	-0.000080
C27	C	1.319246	-0.598883	-0.000079
C28	C	1.397923	-0.232247	-0.000079
C29	C	1.391086	-0.149259	-0.000085
C30	C	1.621851	-0.166947	-0.000086
C31	C	1.628686	-0.249931	-0.000094
C32	C	1.516723	-0.282577	-0.000081
C33	C	1.417365	-0.398422	-0.000080
C34	C	1.523723	-0.367400	-0.000075
C35	C	1.700647	0.112553	-0.000097
C36	C	1.839798	0.114896	-0.000114
C37	C	1.445328	0.262467	-0.000088
C38	C	1.438054	0.350785	-0.000093
N39	N	1.470553	0.117091	0.346582
N40	N	1.470553	0.117077	-0.346747
C41	C	1.561865	0.063506	0.423232
C42	C	1.561863	0.063496	0.576569
C43	C	1.379231	0.170665	0.576592
C44	C	1.379229	0.170670	0.423258
C45	C	1.653190	0.009927	0.346556
C46	C	1.744510	-0.043662	0.423206
C47	C	1.744508	-0.043671	0.576542
C48	C	1.653185	0.009908	0.653229
H49	H	0.733280	0.113116	0.265462
H50	H	1.634331	-0.507005	-0.000083
N51	N	1.184265	-0.461611	-0.000095
H52	H	1.114380	-0.494888	-0.000093
H53	H	1.176390	-0.426791	0.090206
N54	N	1.262956	-0.094952	-0.000033
H55	H	1.254965	-0.060122	-0.090327
H56	H	1.193126	-0.128268	0.000047
N57	N	1.651850	-0.421691	-0.000064
H58	H	1.659828	-0.456516	-0.090364
H59	H	1.721670	-0.388368	-0.000011
H60	H	0.851983	0.115087	-0.241026
N61	N	1.843009	-0.101454	0.340521
H62	H	1.834790	-0.157996	0.367203
H63	H	1.829115	-0.093255	0.231776
N64	N	1.277177	-0.267462	-0.000088
H65	H	1.274868	-0.301495	0.090217
H66	H	1.200942	-0.222943	-0.000152
H67	H	1.089068	0.119098	0.506433
N68	N	1.198496	-0.634101	-0.000066
H69	H	1.122196	-0.589623	-0.000067
H70	H	1.196309	-0.668149	-0.090366
N71	N	1.280750	0.228453	0.659308
H72	H	1.288960	0.284997	0.632629
H73	H	1.192743	0.218695	0.632601
H74	H	1.653202	0.009932	0.221701
H75	H	1.207706	0.121084	0.265554
N76	N	0.834561	0.114824	0.541488
H77	H	0.895801	0.115856	0.625619
H78	H	0.764704	0.163138	0.547257
H79	H	1.653183	0.009891	0.778087
N80	N	1.280751	0.228467	0.340570
H81	H	1.228550	0.197738	0.276955
H82	H	1.222991	0.262399	0.412498
N83	N	1.289244	-0.344118	-0.000057
H84	H	1.281268	-0.309287	-0.090349
H85	H	1.219414	-0.377434	0.000002
H86	H	1.818857	-0.087311	0.638949
H87	H	1.646750	-0.657545	-0.000105
N88	N	1.106501	0.119346	-0.276075
H89	H	1.045267	0.118319	-0.360213
H90	H	1.145151	0.169477	-0.281852
H91	H	1.725427	-0.290910	-0.000086
N92	N	1.742606	-0.131736	-0.000076
H93	H	1.720248	-0.071529	-0.000069
H94	H	1.794167	-0.150106	0.090238
