data_functionalizedCrystal
_audit_creation_method	'MofGen! by Chris Wilmer'
_symmetry_space_group_name_H-M	'P1'
_symmetry_Int_Tables_number	1
_symmetry_cell_setting	triclinic
loop_
_symmetry_equiv_pos_as_xyz
  x,y,z
_cell_length_a	16.956984
_cell_length_b	12.811415
_cell_length_c	15.455322
_cell_angle_alpha	87.254881
_cell_angle_beta	87.517772
_cell_angle_gamma	80.066662
loop_
_atom_site_label
_atom_site_type_symbol
_atom_site_fract_x
_atom_site_fract_y
_atom_site_fract_z
O1	O	1.061809	0.038377	-0.075153
O2	O	1.561809	0.538377	0.424847
O3	O	0.829913	0.075021	-0.078036
O4	O	1.329913	0.575021	0.421964
O5	O	0.951119	-0.095786	-0.064596
O6	O	1.451119	0.404214	0.435404
O7	O	0.940602	0.209184	-0.088593
O8	O	1.440602	0.709184	0.411407
O9	O	0.944187	-0.086055	0.078900
O10	O	1.444187	0.413945	0.578900
O11	O	0.822980	0.084752	0.065461
O12	O	1.322980	0.584752	0.565461
O13	O	1.054877	0.048108	0.068343
O14	O	1.554877	0.548108	0.568343
Cu15	Cu	0.938295	0.067318	0.080004
Cu16	Cu	1.438295	0.567318	0.580004
Cu17	Cu	0.946494	0.055811	-0.089697
Cu18	Cu	1.446494	0.555811	0.410303
O19	O	0.933670	0.218915	0.054904
O20	O	1.433670	0.718915	0.554904
C21	C	0.796752	0.081763	-0.006435
C22	C	1.296752	0.581763	0.493565
C23	C	0.708271	0.087342	-0.006874
C24	C	1.208271	0.587342	0.493126
C25	C	0.675521	-0.005934	0.000467
C26	C	1.175521	0.494066	0.500467
C27	C	0.592384	-0.000687	0.000048
C28	C	1.092384	0.499313	0.500048
C29	C	0.541997	0.097839	-0.007707
C30	C	1.041997	0.597839	0.492293
C31	C	0.574752	0.191122	-0.015051
C32	C	1.074752	0.691122	0.484949
C33	C	0.657888	0.185873	-0.014638
C34	C	1.157888	0.685873	0.485362
C35	C	0.292410	0.123821	-0.009757
C36	C	0.792410	0.623821	0.490243
C37	C	0.209268	0.129063	-0.010167
C38	C	0.709268	0.629063	0.489833
C39	C	0.226906	-0.062747	0.004930
C40	C	0.726906	0.437253	0.504930
C41	C	0.310043	-0.067987	0.005347
C42	C	0.810043	0.432013	0.505347
C43	C	0.342791	0.025296	-0.002001
C44	C	0.842791	0.525296	0.497999
N45	N	0.457017	0.103205	-0.008132
N46	N	0.957017	0.603205	0.491868
N47	N	0.427770	0.019928	-0.001581
N48	N	0.927770	0.519928	0.498419
C49	C	0.946851	-0.129761	0.010206
C50	C	1.446851	0.370239	0.510206
C51	C	0.944453	-0.245492	0.019307
C52	C	1.444453	0.254508	0.519307
C53	C	0.947490	-0.473559	-0.120049
C54	C	1.447490	0.026441	0.379951
C55	C	0.945237	-0.582299	-0.111503
C56	C	1.445237	-0.082299	0.388497
C57	C	0.937687	-0.571712	0.044947
C58	C	1.437687	-0.071712	0.544947
C59	C	0.939940	-0.462972	0.036400
C60	C	1.439940	0.037028	0.536400
C61	C	0.944843	-0.413900	-0.046101
C62	C	1.444843	0.086100	0.453899
C63	C	0.947102	-0.305160	-0.054647
C64	C	1.447102	0.194840	0.445353
C65	C	0.939547	-0.294573	0.101802
C66	C	1.439547	0.205427	0.601802
C67	C	0.937294	-0.403313	0.110349
C68	C	1.437294	0.096687	0.610349
C69	C	1.088038	0.041366	-0.003259
C70	C	1.588038	0.541366	0.496741
C71	C	1.176519	0.035787	-0.002826
C72	C	1.676519	0.535787	0.497174
C73	C	0.937938	0.252890	-0.019901
C74	C	1.437938	0.752890	0.480099
C75	C	0.940337	0.368620	-0.029007
C76	C	1.440337	0.868620	0.470993
N77	N	0.932535	0.075411	0.199363
N78	N	1.432535	0.575411	0.699363
C79	C	0.984046	0.002870	0.250465
C80	C	1.484046	0.502870	0.750465
C81	C	0.979697	0.008999	0.340791
C82	C	1.479697	0.508999	0.840791
C83	C	0.923840	0.087675	0.380012
C84	C	1.423840	0.587675	0.880012
C85	C	0.872324	0.160220	0.328904
C86	C	1.372324	0.660220	0.828904
C87	C	0.876670	0.154085	0.238580
C88	C	1.376670	0.654085	0.738580
C89	C	0.905083	0.114126	0.649512
C90	C	1.405083	0.614126	1.149512
C91	C	0.900743	0.120257	0.739843
C92	C	1.400743	0.620257	1.239843
C93	C	1.008115	-0.030966	0.751723
C94	C	1.508115	0.469034	1.251723
C95	C	1.012459	-0.037090	0.661397
C96	C	1.512459	0.462910	1.161397
C97	C	0.960940	0.035452	0.610297
C98	C	1.460940	0.535452	1.110297
N99	N	0.919395	0.093944	0.472339
N100	N	1.419395	0.593944	0.972339
N101	N	0.965382	0.029177	0.517972
N102	N	1.465382	0.529177	1.017972
N103	N	0.952254	0.047716	0.790945
N104	N	1.452254	0.547716	1.290945
H105	H	0.319063	0.199778	-0.015746
H106	H	0.819063	0.699778	0.484254
H107	H	0.933689	-0.611684	0.112115
H108	H	1.433689	-0.111684	0.612115
O109	O	0.952387	-0.252232	-0.143628
O110	O	1.452387	0.247768	0.356372
H111	H	0.953516	-0.166597	-0.137151
H112	H	1.453516	0.333403	0.362849
H113	H	0.826840	0.224276	0.360843
H114	H	1.326840	0.724276	0.860843
H115	H	0.951489	-0.433606	-0.187225
H116	H	1.451489	0.066394	0.312775
O117	O	0.932023	-0.456245	0.199329
O118	O	1.432023	0.043755	0.699329
H119	H	0.930911	-0.541885	0.192851
H120	H	1.430911	-0.041885	0.692851
O121	O	1.072698	-0.121955	0.619094
O122	O	1.572698	0.378045	1.119094
H123	H	1.107781	-0.171376	0.669804
H124	H	1.607781	0.328624	1.169804
H125	H	0.200233	-0.138693	0.010903
H126	H	0.700233	0.361307	0.510903
H127	H	1.050059	-0.090026	0.793337
H128	H	1.550059	0.409974	1.293337
O129	O	0.693211	0.286482	-0.022554
O130	O	1.193211	0.786482	0.477446
H131	H	0.759485	0.266280	-0.020973
H132	H	1.259485	0.766280	0.479027
O133	O	0.520412	0.297394	-0.023405
O134	O	1.020412	0.797394	0.476595
H135	H	0.457098	0.285376	-0.022446
H136	H	0.957098	0.785376	0.477554
O137	O	0.948078	-0.646648	-0.191260
O138	O	1.448078	-0.146648	0.308740
H139	H	0.951864	-0.594252	-0.250060
H140	H	1.451864	-0.094252	0.249940
H141	H	0.351063	-0.148216	0.011665
H142	H	0.851063	0.351784	0.511665
O143	O	0.840486	0.205106	0.782152
O144	O	1.340486	0.705106	1.282152
H145	H	0.805384	0.254510	0.731446
H146	H	1.305384	0.754510	1.231446
H147	H	0.168244	0.209299	-0.016477
H148	H	0.668244	0.709299	0.483523
O149	O	0.936689	-0.230228	0.181570
O150	O	1.436689	0.269772	0.681570
H151	H	0.939075	-0.146368	0.161770
H152	H	1.439075	0.353632	0.661770
H153	H	1.029533	-0.061192	0.218537
H154	H	1.529533	0.438808	0.718537
O155	O	0.849527	0.192371	0.594401
O156	O	1.349527	0.692371	1.094401
H157	H	0.809966	0.248116	0.636851
H158	H	1.309966	0.748116	1.136851
O159	O	1.035257	-0.069246	0.395904
O160	O	1.535257	0.430754	0.895904
H161	H	1.022846	-0.051775	0.465302
H162	H	1.522846	0.448225	0.965302
O163	O	0.729866	-0.112202	0.008830
O164	O	1.229866	0.387798	0.508830
H165	H	0.693123	-0.176181	0.013856
H166	H	1.193123	0.323819	0.513856
O167	O	0.557057	-0.101290	0.007981
O168	O	1.057057	0.398710	0.507981
H169	H	0.606060	-0.170681	0.013458
H170	H	1.106060	0.329319	0.513458
H171	H	0.834723	0.213155	0.196973
H172	H	1.334723	0.713155	0.696973
