data_functionalizedCrystal
_audit_creation_method	'MofGen! by Chris Wilmer'
_symmetry_space_group_name_H-M	'P1'
_symmetry_Int_Tables_number	1
_symmetry_cell_setting	triclinic
loop_
_symmetry_equiv_pos_as_xyz
  x,y,z
_cell_length_a	15.297475
_cell_length_b	16.625546
_cell_length_c	15.297908
_cell_angle_alpha	80.349111
_cell_angle_beta	107.359593
_cell_angle_gamma	80.324704
loop_
_atom_site_label
_atom_site_type_symbol
_atom_site_fract_x
_atom_site_fract_y
_atom_site_fract_z
Zn1	Zn	1.512672	-0.674634	0.771375
Zn2	Zn	1.485662	-0.781238	0.615850
Zn3	Zn	1.330260	-0.618201	0.589025
Zn4	Zn	1.357112	-0.781166	0.744449
O5	O	1.421426	-0.713810	0.680175
O6	O	1.639228	-0.712423	0.773239
O7	O	1.442506	-0.736023	0.482158
O8	O	1.354524	-0.512871	0.613257
O9	O	1.619383	-0.790744	0.658975
O10	O	1.488541	-0.554332	0.747229
O11	O	1.328333	-0.616241	0.462450
O12	O	1.203683	-0.616171	0.587148
O13	O	1.400289	-0.790622	0.878155
O14	O	1.223411	-0.735901	0.701337
O15	O	1.514578	-0.712353	0.897937
O16	O	1.468543	-0.894044	0.632867
O17	O	1.374097	-0.893991	0.727348
C18	C	1.179803	-0.669905	0.638411
C19	C	1.076440	-0.651146	0.620566
C20	C	0.826199	-0.847890	0.807718
C21	C	0.923313	-0.865520	0.824481
C22	C	0.961600	-0.811928	0.773504
C23	C	0.902762	-0.740703	0.705760
C24	C	0.805637	-0.723074	0.688990
C25	C	0.941038	-0.687112	0.654776
C26	C	0.882200	-0.615887	0.587032
C27	C	0.785085	-0.598261	0.570265
C28	C	0.746798	-0.651853	0.621242
C29	C	1.038163	-0.704741	0.671546
C30	C	1.017601	-0.579925	0.552818
C31	C	0.920487	-0.562295	0.536055
C32	C	1.421332	-0.923277	0.680121
C33	C	1.421381	-1.012910	0.680144
C34	C	1.421560	-1.341132	0.680268
C35	C	1.421508	-1.249811	0.680236
C36	C	1.421470	-1.177024	0.680205
C37	C	1.421419	-1.085697	0.680174
C38	C	1.663993	-0.757886	0.722103
C39	C	1.767360	-0.776669	0.739970
C40	C	1.463442	-0.757774	0.922731
C41	C	1.481346	-0.776510	1.026095
C42	C	1.421550	-0.503532	0.680254
C43	C	1.421603	-0.413924	0.680288
C44	C	1.379628	-0.669967	0.438572
C45	C	1.361904	-0.651038	0.335240
C46	C	1.294049	-0.579868	1.276424
C47	C	1.277228	-0.562258	1.179309
C48	C	1.328256	-0.615819	1.141001
C49	C	1.396108	-0.686994	1.199816
C50	C	1.412935	-0.704602	1.296941
C51	C	1.447142	-0.740554	1.161518
C52	C	1.514994	-0.811728	1.220334
C53	C	1.531818	-0.829334	1.317449
C54	C	1.480790	-0.775772	1.355758
C55	C	1.430315	-0.722945	1.064393
C56	C	1.549201	-0.847680	1.084911
C57	C	1.566021	-0.865290	1.182025
H58	H	0.795015	-0.891521	0.849210
H59	H	1.621268	-0.923240	1.229927
F60	F	1.205020	-0.486511	1.116721
F61	F	1.358104	-0.647198	1.001808
H62	H	1.314556	-0.601477	1.061925
F63	F	0.722466	-0.522461	0.498158
F64	F	1.603514	-0.904686	1.044146
H65	H	1.086060	-0.762733	0.726705
H66	H	1.040676	-0.826287	0.787158
F67	F	0.857856	-0.486493	0.463958
H68	H	0.971212	-0.923514	0.879637
F69	F	0.643438	-0.633089	0.603409
H70	H	1.048773	-0.536287	0.511307
F71	F	1.239757	-0.522868	1.317202
F72	F	1.498678	-0.794519	1.459117
H73	H	1.587074	-0.887284	1.365336
