data_functionalizedCrystal
_audit_creation_method	'MofGen! by Chris Wilmer'
_symmetry_space_group_name_H-M	'P1'
_symmetry_Int_Tables_number	1
_symmetry_cell_setting	triclinic
loop_
_symmetry_equiv_pos_as_xyz
  x,y,z
_cell_length_a	28.938199
_cell_length_b	28.937346
_cell_length_c	28.934044
_cell_angle_alpha	60.005004
_cell_angle_beta	60.009897
_cell_angle_gamma	59.994060
loop_
_atom_site_label
_atom_site_type_symbol
_atom_site_fract_x
_atom_site_fract_y
_atom_site_fract_z
O1	O	0.064043	-0.675186	0.564597
O2	O	0.024124	-0.525682	0.454913
O3	O	0.118795	-0.620275	0.454833
O4	O	-0.030629	-0.580593	0.564678
O5	O	0.150204	-0.588870	0.486157
O6	O	0.055533	-0.494276	0.486238
O7	O	0.095452	-0.643780	0.595921
Cu8	Cu	0.078360	-0.566161	0.543940
Cu9	Cu	0.041215	-0.603301	0.506895
O10	O	0.000780	-0.549187	0.596002
N11	N	0.104487	-0.540042	0.569998
N12	N	0.015094	-0.629425	0.480837
C13	C	0.165467	-0.323909	0.630915
C14	C	0.165587	-0.479117	0.786068
C15	C	0.165481	-0.479095	0.630906
C16	C	0.320696	-0.479083	0.630835
C17	C	0.182557	-0.375118	0.647971
C18	C	0.182626	-0.462038	0.734858
C19	C	0.269485	-0.462018	0.647928
C20	C	0.182566	-0.462025	0.647966
C21	C	0.143714	-0.258726	0.609206
C22	C	0.143738	-0.500820	0.609192
C23	C	0.204309	-0.440300	0.669680
C24	C	0.415481	-0.462740	0.580919
C25	C	0.474732	-0.482485	0.561145
C26	C	0.474757	-0.578356	0.597704
C27	C	0.415508	-0.558609	0.617479
C28	C	0.157989	-0.229089	0.550957
C29	C	0.138212	-0.169834	0.531225
C30	C	0.089890	-0.169857	0.627992
C31	C	0.109667	-0.229112	0.647725
C32	C	0.085482	-0.486515	0.623535
C33	C	0.065722	-0.506265	0.603789
C34	C	0.162467	-0.554625	0.555370
C35	C	0.182230	-0.534875	0.575110
C36	C	0.085661	-0.486557	0.880902
C37	C	0.065952	-0.506323	0.940155
C38	C	0.162734	-0.554693	0.940102
C39	C	0.182441	-0.534928	0.880847
C40	C	0.143904	-0.500859	0.851249
C41	C	0.385871	-0.500801	0.609083
C42	C	-0.110907	-0.668480	0.441278
C43	C	-0.024049	-0.668588	0.441475
C44	C	-0.045729	-0.690282	0.419668
C45	C	-0.062146	-0.785032	0.469507
C46	C	-0.042446	-0.844287	0.489286
C47	C	0.053426	-0.844399	0.452899
C48	C	0.033725	-0.785144	0.433120
C49	C	-0.140617	-0.682751	0.499509
C50	C	-0.199867	-0.662928	0.519152
C51	C	-0.199694	-0.614571	0.422330
C52	C	-0.140443	-0.634393	0.402687
C53	C	-0.038320	-0.610337	0.427144
C54	C	-0.018610	-0.590621	0.446974
C55	C	0.029642	-0.687402	0.495454
C56	C	0.009933	-0.707121	0.475630
C57	C	-0.038148	-0.610347	0.324832
C58	C	-0.018301	-0.590634	0.265579
C59	C	0.030035	-0.687421	0.265643
C60	C	0.010190	-0.707133	0.324897
C61	C	-0.023903	-0.668595	0.354491
C62	C	-0.024062	-0.755463	0.441426
N63	N	0.503527	-0.540005	0.569810
O64	O	0.684453	-0.545211	0.434650
O65	O	0.684643	-0.655237	0.584005
O66	O	0.684567	-0.654986	0.489282
O67	O	0.684529	-0.545462	0.529373
O68	O	0.590438	-0.623674	0.520735
O69	O	0.590513	-0.623924	0.615457
O70	O	0.590323	-0.513899	0.466102
Cu71	Cu	0.581823	-0.566053	0.543652
Cu72	Cu	0.693143	-0.603083	0.506456
O73	O	0.590399	-0.514149	0.560825
N74	N	0.771439	-0.629131	0.480292
N75	N	0.104456	-0.141061	0.570015
O76	O	-0.030629	0.039964	0.564688
O77	O	0.118732	0.039984	0.454661
O78	O	0.023980	0.039958	0.454946
O79	O	0.064123	0.039990	0.564403
O80	O	0.055392	-0.054179	0.486321
O81	O	0.150144	-0.054153	0.486036
O82	O	0.000784	-0.054173	0.596063
Cu83	Cu	0.078332	-0.062759	0.543914
Cu84	Cu	0.041183	0.048570	0.506810
O85	O	0.095535	-0.054147	0.595778
N86	N	0.015053	0.126872	0.480710
N87	N	0.104760	-0.540096	0.968910
O88	O	0.099447	-0.675167	1.149923
O89	O	-0.010552	-0.525757	1.149951
O90	O	-0.010297	-0.620493	1.149918
O91	O	0.099192	-0.580431	1.149956
O92	O	0.021064	-0.589100	1.055785
O93	O	0.020809	-0.494365	1.055818
O94	O	0.130808	-0.643774	1.055790
Cu95	Cu	0.078672	-0.566203	1.047209
Cu96	Cu	0.041584	-0.603328	1.158532
O97	O	0.130553	-0.549038	1.055823
N98	N	0.015495	-0.629442	1.236831
C99	C	0.036087	-0.491140	0.455465
C100	C	0.153325	-0.608283	0.455364
C101	C	0.083488	-0.678322	0.595370
C102	C	-0.033750	-0.561180	0.595470
C103	C	0.637601	-0.654732	0.618548
C104	C	0.637509	-0.654422	0.501245
C105	C	0.637362	-0.514403	0.431560
C106	C	0.637458	-0.514713	0.548862
C107	C	0.153215	-0.006966	0.455158
C108	C	0.035916	-0.007114	0.455550
C109	C	-0.033739	-0.007106	0.595527
C110	C	0.083600	-0.007076	0.595174
C111	C	-0.010020	-0.491238	1.102888
C112	C	-0.009698	-0.608550	1.102828
C113	C	0.130276	-0.678293	1.102853
C114	C	0.129961	-0.560974	1.102892
H115	H	0.054276	-0.458811	0.856808
O116	O	-0.050769	-0.618760	1.102867
C117	C	-0.145028	-0.624001	1.151532
C118	C	-0.098559	-0.612436	1.151564
H119	H	-0.183682	-0.618880	1.190893
H120	H	-0.128469	-0.668980	1.151543
H121	H	-0.157347	-0.592661	1.112106
H122	H	-0.086220	-0.643740	1.190983
H123	H	-0.115144	-0.567441	1.151523
O124	O	0.637550	-0.695542	0.491100
C125	C	0.637602	-0.790921	0.528122
C126	C	0.637569	-0.744409	0.539681
H127	H	0.637605	-0.830437	0.567396
H128	H	0.676983	-0.801512	0.491073
H129	H	0.598197	-0.775229	0.517348
H130	H	0.676947	-0.760062	0.550480
H131	H	0.598161	-0.733825	0.576715
O132	O	0.171069	-0.550793	1.102821
C133	C	0.265296	-0.545464	1.054037
C134	C	0.218795	-0.557021	1.054054
H135	H	0.303889	-0.550484	1.014607
H136	H	0.277726	-0.576814	1.093401
H137	H	0.248679	-0.500495	1.054075
H138	H	0.235373	-0.601975	1.053996
H139	H	0.206372	-0.525637	1.014693
O140	O	0.025586	-0.007165	0.414600
C141	C	-0.041680	-0.007191	0.388745
C142	C	-0.030057	-0.007135	0.435171
H143	H	-0.086670	-0.007154	0.405355
H144	H	-0.010375	-0.046604	0.376391
H145	H	-0.036606	0.032189	0.350099
H146	H	-0.035137	-0.046488	0.473847
H147	H	-0.061359	0.032304	0.447476
H148	H	0.229667	-0.546519	0.563426
O149	O	0.171530	-0.729440	1.102743
C150	C	0.265936	-0.779984	1.053985
C151	C	0.219259	-0.722026	1.054033
H152	H	0.304540	-0.774008	1.014614
H153	H	0.249581	-0.808537	1.053934
H154	H	0.278254	-0.800313	1.093401
H155	H	0.206921	-0.701649	1.014624
H156	H	0.235639	-0.693514	1.054114
H157	H	0.194117	-0.582425	0.964198
O158	O	0.009354	-0.492346	0.968868
C159	C	-0.084557	-0.442300	0.962660
C160	C	-0.020475	-0.458072	0.930073
H161	H	-0.108693	-0.414596	0.931309
H162	H	-0.096236	-0.418148	0.990389
H163	H	-0.096183	-0.482519	0.990415
H164	H	-0.008804	-0.417882	0.902288
H165	H	-0.008831	-0.482245	0.902380
H166	H	0.229870	-0.546579	0.856706
O167	O	0.637642	-0.695997	0.669695
C168	C	0.637787	-0.791457	0.727651
C169	C	0.637725	-0.744769	0.669707
H170	H	0.637866	-0.830904	0.727675
H171	H	0.598400	-0.775952	0.762254
H172	H	0.677186	-0.802088	0.735908
H173	H	0.598352	-0.734117	0.661396
H174	H	0.677138	-0.760298	0.635135
H175	H	-0.076633	-0.007113	0.630069
H176	H	0.637450	-0.480310	0.557440
H177	H	0.196022	-0.006699	0.420530
H178	H	0.092195	-0.007066	0.629560
O179	O	-0.228754	-0.676694	0.575717
C180	C	-0.295769	-0.642583	0.654109
C181	C	-0.263082	-0.626912	0.590047
H182	H	-0.323540	-0.602344	0.665713
H183	H	-0.264503	-0.670324	0.678344
H184	H	-0.323492	-0.666688	0.665691
H185	H	-0.235359	-0.602788	0.578413
H186	H	-0.294378	-0.599198	0.565848
H187	H	0.637300	-0.479859	0.388668
O188	O	0.048014	-0.453417	0.656611
C189	C	-0.050033	-0.407555	0.702574
C190	C	-0.007662	-0.445033	0.665099
H191	H	-0.095056	-0.400775	0.709459
H192	H	-0.043263	-0.364908	0.680874
H193	H	-0.043143	-0.429272	0.745171
H194	H	-0.014526	-0.423366	0.622496
H195	H	-0.014442	-0.487678	0.686844
O196	O	-0.051152	-0.440000	1.102822
C197	C	-0.078507	-0.339308	1.054056
C198	C	-0.031873	-0.397296	1.054068
H199	H	-0.062941	-0.304768	1.014637
H200	H	-0.089187	-0.330977	1.093431
H201	H	-0.117937	-0.339256	1.054075
H202	H	0.007587	-0.397390	1.054029
H203	H	-0.021241	-0.405604	1.014696
O204	O	0.009137	-0.492305	0.617623
C205	C	-0.069354	-0.446737	0.583627
C206	C	-0.005268	-0.462500	0.567881
H207	H	-0.081019	-0.422648	0.543420
H208	H	-0.093499	-0.418978	0.611355
H209	H	-0.080982	-0.486958	0.607769
H210	H	0.006412	-0.422311	0.543719
H211	H	0.018841	-0.490281	0.540181
H212	H	0.193817	-0.582360	0.527624
H213	H	0.391402	-0.589605	0.640414
O214	O	0.095866	-0.257859	0.704317
C215	C	0.100409	-0.275926	0.793033
C216	C	0.116089	-0.243353	0.728945
H217	H	0.116742	-0.264201	0.812966
H218	H	0.120401	-0.323375	0.800581
H219	H	0.052435	-0.264285	0.813007
H220	H	0.164055	-0.254947	0.708929
H221	H	0.096057	-0.195912	0.721438
O222	O	0.503458	-0.634530	0.605924
C223	C	0.497235	-0.727534	0.644238
C224	C	0.464658	-0.663933	0.634980
H225	H	0.465879	-0.751323	0.667719
H226	H	0.524983	-0.744252	0.670303
H227	H	0.524968	-0.734107	0.601502
H228	H	0.436894	-0.657311	0.677689
H229	H	0.436945	-0.647247	0.608888
O230	O	0.503473	-0.445477	0.533698
C231	C	0.521528	-0.363320	0.453850
C232	C	0.488953	-0.405198	0.484873
H233	H	0.509791	-0.330738	0.414375
H234	H	0.568973	-0.387331	0.441112
H235	H	0.509905	-0.340866	0.483123
H236	H	0.500528	-0.427664	0.455632
H237	H	0.441516	-0.381157	0.497620
O238	O	0.386665	-0.406576	0.572693
C239	C	0.319705	-0.322406	0.531263
C240	C	0.352310	-0.386005	0.540527
H241	H	0.291912	-0.305757	0.505267
H242	H	0.351023	-0.298562	0.507706
H243	H	0.292011	-0.315824	0.573998
H244	H	0.380005	-0.392639	0.497817
H245	H	0.320961	-0.409817	0.564110
H246	H	0.185713	-0.253197	0.519589
H247	H	0.092017	-0.721269	0.629819
H248	H	0.149834	-0.145702	0.483792
H249	H	-0.029909	-0.543201	0.241439
O250	O	-0.071231	-0.572831	0.353491
C251	C	-0.117089	-0.474750	0.347174
C252	C	-0.079616	-0.517171	0.314648
H253	H	-0.123890	-0.429740	0.315783
H254	H	-0.095434	-0.481562	0.374963
H255	H	-0.159721	-0.481549	0.374863
H256	H	-0.036978	-0.510397	0.286928
H257	H	-0.101316	-0.510348	0.286895
H258	H	0.062174	-0.145744	0.659359
O259	O	0.204480	-0.618375	0.414159
C260	C	0.255050	-0.623428	0.319810
C261	C	0.197083	-0.611998	0.366431
H262	H	0.249088	-0.618265	0.281207
H263	H	0.283565	-0.668393	0.336237
H264	H	0.275410	-0.592047	0.307460
H265	H	0.176674	-0.643343	0.378802
H266	H	0.168609	-0.567017	0.349979
O267	O	0.025959	-0.439955	0.414294
C268	C	0.020700	-0.389283	0.320020
C269	C	0.032197	-0.447286	0.366591
H270	H	0.025727	-0.395188	0.281445
H271	H	0.052073	-0.368874	0.307584
H272	H	-0.024256	-0.360836	0.336573
H273	H	0.077136	-0.475776	0.350078
H274	H	0.000789	-0.467649	0.379020
O275	O	0.063078	-0.724914	0.236963
C276	C	0.070639	-0.801535	0.218782
C277	C	0.033163	-0.759112	0.251306
H278	H	0.046463	-0.829187	0.230357
H279	H	0.110795	-0.829359	0.230534
H280	H	0.082394	-0.777434	0.171340
H281	H	0.021365	-0.783167	0.298755
H282	H	-0.006966	-0.731289	0.239507
O283	O	-0.032537	-0.534039	0.433146
C284	C	-0.078122	-0.455547	0.467141
C285	C	-0.062398	-0.519630	0.482884
H286	H	-0.102256	-0.443879	0.507345
H287	H	-0.105822	-0.431371	0.439348
H288	H	-0.037885	-0.443957	0.443070
H289	H	-0.102603	-0.531273	0.506976
H290	H	-0.034675	-0.543771	0.510650
O291	O	0.062627	-0.724911	0.528642
C292	C	0.108437	-0.822990	0.574603
C293	C	0.071067	-0.780572	0.537022
H294	H	0.115282	-0.868001	0.581380
H295	H	0.086676	-0.816182	0.617242
H296	H	0.151057	-0.816185	0.552974
H297	H	0.028441	-0.787352	0.558601
H298	H	0.092873	-0.787391	0.494385
O299	O	-0.084901	-0.551138	0.636694
C300	C	-0.135480	-0.546019	0.731017
C301	C	-0.077516	-0.557418	0.684385
H302	H	-0.129530	-0.551081	0.769582
H303	H	-0.155847	-0.577424	0.743443
H304	H	-0.163982	-0.501071	0.714528
H305	H	-0.048970	-0.602351	0.700834
H306	H	-0.057194	-0.525979	0.671966
H307	H	0.021795	-0.754566	0.349042
H308	H	0.021552	-0.754553	0.487300
O309	O	0.070795	-0.756508	0.405875
C310	C	0.167972	-0.762874	0.371843
C311	C	0.126050	-0.795375	0.402721
H312	H	0.212656	-0.794284	0.369273
H313	H	0.156093	-0.735142	0.396079
H314	H	0.166203	-0.735129	0.327279
H315	H	0.127797	-0.823151	0.447285
H316	H	0.137943	-0.823072	0.378441
H317	H	-0.065985	-0.578958	0.399332
O318	O	0.109543	-0.873260	0.444936
C319	C	0.181119	-0.940244	0.488744
C320	C	0.117554	-0.907586	0.497845
H321	H	0.187615	-0.968013	0.531512
H322	H	0.204980	-0.908956	0.465307
H323	H	0.197818	-0.967970	0.462664
H324	H	0.100804	-0.879859	0.523938
H325	H	0.093731	-0.938905	0.521257
H326	H	-0.073458	-0.868361	0.512142
O327	O	-0.118268	-0.756219	0.477484
C328	C	-0.199920	-0.738021	0.459926
C329	C	-0.136359	-0.770683	0.450850
H330	H	-0.214569	-0.749712	0.438408
H331	H	-0.207478	-0.690586	0.440935
H332	H	-0.224778	-0.749617	0.507195
H333	H	-0.111459	-0.759135	0.403593
H334	H	-0.128844	-0.818110	0.469878
O335	O	-0.112011	-0.715836	0.537071
C336	C	-0.118437	-0.761730	0.635181
C337	C	-0.150902	-0.724245	0.592703
H338	H	-0.149867	-0.768550	0.680168
H339	H	-0.090709	-0.740070	0.628462
H340	H	-0.090695	-0.804356	0.628356
H341	H	-0.178675	-0.681612	0.599502
H342	H	-0.178595	-0.745949	0.599433
H343	H	-0.116252	-0.622767	0.355267
O344	O	-0.228302	-0.581450	0.384768
C345	C	-0.221879	-0.535623	0.286658
C346	C	-0.189412	-0.573126	0.329135
H347	H	-0.190452	-0.528892	0.241670
H348	H	-0.249589	-0.492957	0.293402
H349	H	-0.249640	-0.557293	0.293462
H350	H	-0.161621	-0.551506	0.322357
H351	H	-0.161738	-0.615791	0.322381
