data_functionalizedCrystal
_audit_creation_method	'MofGen! by Chris Wilmer'
_symmetry_space_group_name_H-M	'P1'
_symmetry_Int_Tables_number	1
_symmetry_cell_setting	triclinic
loop_
_symmetry_equiv_pos_as_xyz
  x,y,z
_cell_length_a	21.395362
_cell_length_b	18.101397
_cell_length_c	21.395356
_cell_angle_alpha	89.968599
_cell_angle_beta	90.035770
_cell_angle_gamma	89.959012
loop_
_atom_site_label
_atom_site_type_symbol
_atom_site_fract_x
_atom_site_fract_y
_atom_site_fract_z
Zn1	Zn	0.957833	0.294550	0.354560
Zn2	Zn	1.291167	0.627883	0.687894
Zn3	Zn	1.624500	0.961216	1.021227
Zn4	Zn	0.957761	0.418388	0.249772
Zn5	Zn	1.291094	0.751722	0.583106
Zn6	Zn	1.624428	1.085055	0.916439
Zn7	Zn	0.853063	0.294599	0.249762
Zn8	Zn	1.186397	0.627933	0.583095
Zn9	Zn	1.519730	0.961266	0.916428
Zn10	Zn	0.853028	0.418388	0.354477
Zn11	Zn	1.186361	0.751721	0.687810
Zn12	Zn	1.519694	1.085055	1.021144
O13	O	0.905421	0.356481	0.302143
O14	O	1.238755	0.689815	0.635476
O15	O	1.572088	1.023148	0.968810
O16	O	1.045502	0.310956	0.340699
O17	O	1.378835	0.644290	0.674033
O18	O	1.712168	0.977623	1.007366
O19	O	0.943857	0.401988	0.162093
O20	O	1.277190	0.735322	0.495426
O21	O	1.610524	1.068655	0.828760
O22	O	0.867006	0.190960	0.263694
O23	O	1.200340	0.524293	0.597027
O24	O	1.533673	0.857627	0.930361
O25	O	1.045448	0.401940	0.263712
O26	O	1.378782	0.735273	0.597045
O27	O	1.712115	1.068607	0.930379
O28	O	0.943980	0.190923	0.340689
O29	O	1.277314	0.524257	0.674022
O30	O	1.610647	0.857590	1.007356
O31	O	0.866936	0.311041	0.162085
O32	O	1.200269	0.644374	0.495419
O33	O	1.533603	0.977708	0.828752
O34	O	0.765381	0.311041	0.263613
O35	O	1.098714	0.644374	0.596946
O36	O	1.432047	0.977708	0.930280
O37	O	0.866946	0.401940	0.442166
O38	O	1.200279	0.735273	0.775499
O39	O	1.533612	1.068606	1.108833
O40	O	0.765354	0.401988	0.340547
O41	O	1.098688	0.735321	0.673880
O42	O	1.432021	1.068655	1.007214
O43	O	0.943946	0.310956	0.442227
O44	O	1.277279	0.644289	0.775561
O45	O	1.610613	0.977623	1.108894
O46	O	0.943823	0.522021	0.263631
O47	O	1.277156	0.855354	0.596965
O48	O	1.610489	1.188688	0.930298
O49	O	0.866876	0.522021	0.340557
O50	O	1.200209	0.855354	0.673891
O51	O	1.533542	1.188688	1.007224
C52	C	0.742634	0.356521	0.302070
C53	C	1.075967	0.689854	0.635404
C54	C	1.409300	1.023187	0.968737
C55	C	0.672992	0.356555	0.302054
C56	C	1.006326	0.689888	0.635387
C57	C	1.339659	1.023222	0.968721
C58	C	0.640282	0.403974	0.342053
C59	C	0.973615	0.737307	0.675387
C60	C	1.306949	1.070641	1.008720
C61	C	0.574847	0.403956	0.342081
C62	C	0.908180	0.737289	0.675415
C63	C	1.241513	1.070623	1.008748
C64	C	0.542124	0.356527	0.302099
C65	C	0.875457	0.689860	0.635432
C66	C	1.208791	1.023193	0.968765
C67	C	0.574842	0.309098	0.262096
C68	C	0.908176	0.642432	0.595430
C69	C	1.241509	0.975765	0.928763
C70	C	0.640276	0.309113	0.262074
C71	C	0.973610	0.642446	0.595407
C72	C	1.306943	0.975779	0.928741
C73	C	0.438407	0.350569	0.245694
C74	C	0.771740	0.683902	0.579027
C75	C	1.105074	1.017236	0.912361
C76	C	0.372974	0.350560	0.245715
C77	C	0.706307	0.683893	0.579048
C78	C	1.039641	1.017226	0.912382
C79	C	0.340303	0.356478	0.302168
C80	C	0.673637	0.689812	0.635501
C81	C	1.006970	1.023145	0.968834
C82	C	0.373074	0.362421	0.358601
C83	C	0.706407	0.695755	0.691934
C84	C	1.039740	1.029088	1.025268
C85	C	0.438508	0.362436	0.358579
C86	C	0.771841	0.695769	0.691912
C87	C	1.105175	1.029102	1.025245
C88	C	0.471172	0.356505	0.302119
C89	C	0.804505	0.689839	0.635452
C90	C	1.137838	1.023172	0.968785
C91	C	0.236641	0.403880	0.342201
C92	C	0.569974	0.737213	0.675534
C93	C	0.903307	1.070547	1.008868
C94	C	0.171204	0.403857	0.342230
C95	C	0.504537	0.737190	0.675563
C96	C	0.837871	1.070523	1.008897
C97	C	0.171201	0.309003	0.262239
C98	C	0.504534	0.642336	0.595573
C99	C	0.837867	0.975670	0.928906
C100	C	0.236636	0.309023	0.262216
C101	C	0.569969	0.642356	0.595549
C102	C	0.903303	0.975689	0.928883
C103	C	0.269352	0.356465	0.302196
C104	C	0.602685	0.689798	0.635529
C105	C	0.936019	1.023132	0.968863
C106	C	0.905354	0.548892	0.302100
C107	C	1.238688	0.882225	0.635433
C108	C	1.572021	1.215559	0.968767
C109	C	0.905383	0.631206	0.302103
C110	C	1.238717	0.964539	0.635436
C111	C	1.572050	1.297873	0.968769
C112	C	0.905443	0.930297	0.302141
C113	C	1.238776	1.263630	0.635474
C114	C	1.572109	1.596964	0.968807
C115	C	0.953723	0.898941	0.253613
C116	C	1.287056	1.232274	0.586946
C117	C	1.620389	1.565608	0.920280
C118	C	0.953896	0.813322	0.253744
C119	C	1.287229	1.146656	0.587078
C120	C	1.620563	1.479989	0.920411
C121	C	0.905413	0.781914	0.302121
C122	C	1.238747	1.115248	0.635455
C123	C	1.572080	1.448581	0.968788
C124	C	0.923307	0.812921	0.368168
C125	C	1.256640	1.146254	0.701501
C126	C	1.589973	1.479587	1.034835
C127	C	0.923675	0.898565	0.367898
C128	C	1.257008	1.231899	0.701232
C129	C	1.590341	1.565232	1.034565
C130	C	0.839142	0.898826	0.285195
C131	C	1.172476	1.232160	0.618528
C132	C	1.505809	1.565493	0.951862
C133	C	0.839476	0.813177	0.283727
C134	C	1.172809	1.146510	0.617060
C135	C	1.506142	1.479843	0.950393
C136	C	0.905395	0.698055	0.302114
C137	C	1.238729	1.031388	0.635448
C138	C	1.572062	1.364722	0.968781
C139	C	0.905462	1.014156	0.302152
C140	C	1.238795	1.347490	0.635485
C141	C	1.572129	1.680823	0.968819
C142	C	1.068845	0.356443	0.302216
C143	C	1.402178	0.689776	0.635550
C144	C	1.735511	1.023109	0.968883
C145	C	1.138486	0.356426	0.302247
C146	C	1.471819	0.689759	0.635581
C147	C	1.805153	1.023093	0.968914
C148	C	0.905450	0.356442	0.465566
C149	C	1.238783	0.689776	0.798900
C150	C	1.572117	1.023109	1.132233
C151	C	0.905462	0.356426	0.535208
C152	C	1.238796	0.689759	0.868541
C153	C	1.572129	1.023092	1.201874
C154	C	0.905488	1.163319	0.302183
C155	C	1.238822	1.496653	0.635517
C156	C	1.572155	1.829986	0.968850
C157	C	0.905473	1.081005	0.302159
C158	C	1.238806	1.414339	0.635493
C159	C	1.572139	1.747672	0.968826
C160	C	0.905429	0.356467	0.139355
C161	C	1.238762	0.689800	0.472689
C162	C	1.572095	1.023133	0.806022
C163	C	0.905538	0.356275	0.069715
C164	C	1.238871	0.689608	0.403048
C165	C	1.572205	1.022941	0.736381
C166	C	0.945585	0.403627	1.037009
C167	C	1.278919	0.736960	1.370342
C168	C	1.612252	1.070293	1.703675
C169	C	0.945574	0.403650	0.971573
C170	C	1.278907	0.736984	1.304906
C171	C	1.612241	1.070317	1.638240
C172	C	0.905522	0.356308	0.938846
C173	C	1.238855	0.689642	1.272179
C174	C	1.572189	1.022975	1.605513
C175	C	0.865467	0.308953	0.971560
C176	C	1.198800	0.642286	1.304893
C177	C	1.532133	0.975620	1.638227
C178	C	0.865475	0.308936	1.036994
C179	C	1.198808	0.642269	1.370327
C180	C	1.532141	0.975603	1.703661
C181	C	0.900591	0.289615	0.835195
C182	C	1.233924	0.622948	1.168528
C183	C	1.567258	0.956281	1.501862
C184	C	0.900587	0.289630	0.769762
C185	C	1.233921	0.622964	1.103095
C186	C	1.567254	0.956297	1.436429
C187	C	0.905494	0.356361	0.737025
C188	C	1.238827	0.689694	1.070359
C189	C	1.572160	1.023028	1.403692
C190	C	0.910417	0.423078	0.769730
C191	C	1.243750	0.756411	1.103063
C192	C	1.577084	1.089745	1.436396
C193	C	0.910425	0.423061	0.835164
C194	C	1.243758	0.756394	1.168497
C195	C	1.577092	1.089728	1.501830
C196	C	0.905509	0.356322	0.867894
C197	C	1.238842	0.689655	1.201227
C198	C	1.572175	1.022988	1.534560
C199	C	0.945531	0.403743	0.633367
C200	C	1.278864	0.737076	0.966700
C201	C	1.612198	1.070409	1.300033
C202	C	0.945516	0.403767	0.567930
C203	C	1.278849	0.737101	0.901263
C204	C	1.612182	1.070434	1.234597
C205	C	0.865411	0.309063	0.567918
C206	C	1.198745	0.642397	0.901251
C207	C	1.532078	0.975730	1.234585
C208	C	0.865424	0.309045	0.633353
C209	C	1.198757	0.642379	0.966687
C210	C	1.532090	0.975712	1.300020
C211	C	0.905487	0.356384	0.666074
C212	C	1.238820	0.689717	0.999407
C213	C	1.572154	1.023050	1.332741
H214	H	0.548195	0.270480	0.229543
H215	H	0.881529	0.603813	0.562877
H216	H	1.214862	0.937147	0.896210
C217	C	0.676259	0.256954	0.218069
C218	C	1.009593	0.590287	0.551403
C219	C	1.342926	0.923621	0.884736
H220	H	0.647402	0.228705	0.194258
H221	H	0.980735	0.562038	0.527591
H222	H	1.314068	0.895372	0.860925
H223	H	0.701836	0.224733	0.242079
H224	H	1.035169	0.558066	0.575412
H225	H	1.368503	0.891400	0.908745
H226	H	0.701734	0.285252	0.190712
H227	H	1.035067	0.618585	0.524045
H228	H	1.368400	0.951918	0.857379
C229	C	0.788268	0.784310	0.327977
C230	C	1.121601	1.117643	0.661310
C231	C	1.454935	1.450976	0.994643
H232	H	0.806514	0.752677	0.358388
H233	H	1.139847	1.086010	0.691721
H234	H	1.473181	1.419344	1.025055
H235	H	0.758042	0.757617	0.304589
H236	H	1.091375	1.090951	0.637923
H237	H	1.424708	1.424284	0.971256
H238	H	0.768665	0.824831	0.348266
H239	H	1.101998	1.158164	0.681600
H240	H	1.435332	1.491498	1.014933
C241	C	0.821365	0.256967	0.669335
C242	C	1.154699	0.590300	1.002668
C243	C	1.488032	0.923633	1.336001
H244	H	0.827099	0.263745	0.712992
H245	H	1.160433	0.597078	1.046325
H246	H	1.493766	0.930411	1.379658
H247	H	0.830541	0.207204	0.658636
H248	H	1.163874	0.540537	0.991969
H249	H	1.497207	0.873870	1.325303
H250	H	0.779264	0.267839	0.658581
H251	H	1.112597	0.601172	0.991914
H252	H	1.445931	0.934505	1.325247
C253	C	0.474556	0.368969	0.420647
C254	C	0.807890	0.702303	0.753981
C255	C	1.141223	1.035636	1.087314
H256	H	0.518204	0.368136	0.412546
H257	H	0.851538	0.701469	0.745879
H258	H	1.184871	1.034803	1.079212
H259	H	0.463892	0.328726	0.447074
H260	H	0.797225	0.662059	0.780407
H261	H	1.130558	0.995392	1.113741
H262	H	0.463819	0.414090	0.440611
H263	H	0.797152	0.747423	0.773944
H264	H	1.130485	1.080756	1.107277
H265	H	0.346297	0.345725	0.199764
H266	H	0.679631	0.679058	0.533097
H267	H	1.012964	1.012392	0.866431
H268	H	0.832855	0.270408	0.944909
H269	H	1.166189	0.603741	1.278243
H270	H	1.499522	0.937075	1.611576
C271	C	0.989596	0.455813	0.669362
C272	C	1.322929	0.789147	1.002695
C273	C	1.656263	1.122480	1.336028
H274	H	1.013441	0.484026	0.640509
H275	H	1.346774	0.817359	0.973842
H276	H	1.680107	1.150692	1.307176
H277	H	1.016910	0.427466	0.694906
H278	H	1.350244	0.760799	1.028239
H279	H	1.683577	1.094133	1.361572
H280	H	0.965618	0.488084	0.694870
H281	H	1.298952	0.821417	1.028203
H282	H	1.632285	1.154750	1.361536
C283	C	0.821425	0.256841	1.072972
C284	C	1.154758	0.590175	1.406305
C285	C	1.488092	0.923508	1.739639
H286	H	0.797571	0.228646	1.044112
H287	H	1.130904	0.561979	1.377445
H288	H	1.464238	0.895312	1.710778
H289	H	0.794119	0.285169	1.098480
H290	H	1.127452	0.618502	1.431813
H291	H	1.460786	0.951835	1.765147
H292	H	0.845415	0.224557	1.098515
H293	H	1.178749	0.557890	1.431848
H294	H	1.512082	0.891223	1.765182
C295	C	0.337145	0.368929	0.420702
C296	C	0.670479	0.702263	0.754036
C297	C	1.003812	1.035596	1.087369
H298	H	0.293482	0.368061	0.412637
H299	H	0.626815	0.701394	0.745970
H300	H	0.960149	1.034727	1.079303
H301	H	0.347852	0.414048	0.440662
H302	H	0.681185	0.747381	0.773995
H303	H	1.014518	1.080714	1.107329
H304	H	0.347929	0.328683	0.447117
H305	H	0.681262	0.662016	0.780450
H306	H	1.014595	0.995349	1.113783
C307	C	0.538855	0.456120	0.386079
C308	C	0.872188	0.789453	0.719412
C309	C	1.205521	1.122787	1.052746
H310	H	0.495199	0.449313	0.380368
H311	H	0.828532	0.782646	0.713701
H312	H	1.161866	1.115979	1.047034
H313	H	0.549531	0.505865	0.376823
H314	H	0.882865	0.839198	0.710156
H315	H	1.216198	1.172531	1.043489
H316	H	0.549624	0.445352	0.428194
H317	H	0.882958	0.778685	0.761528
H318	H	1.216291	1.112019	1.094861
H319	H	0.465002	0.345746	0.199720
H320	H	0.798335	0.679080	0.533054
H321	H	1.131668	1.012413	0.866387
H322	H	0.942702	0.792361	0.204772
H323	H	1.276035	1.125694	0.538106
H324	H	1.609368	1.459028	0.871439
C325	C	0.790566	0.926116	0.333003
C326	C	1.123899	1.259449	0.666336
C327	C	1.457232	1.592782	0.999669
H328	H	0.810556	0.956554	0.363138
H329	H	1.143889	1.289887	0.696471
H330	H	1.477223	1.623220	1.029804
H331	H	0.772090	0.884876	0.353298
H332	H	1.105423	1.218209	0.686631
H333	H	1.438756	1.551542	1.019965
H334	H	0.759097	0.953738	0.312085
H335	H	1.092430	1.287071	0.645418
H336	H	1.425764	1.620405	0.978752
H337	H	0.972137	0.918470	0.382250
H338	H	1.305471	1.251803	0.715584
H339	H	1.638804	1.585136	1.048917
H340	H	0.978124	0.442334	0.541302
H341	H	1.311457	0.775667	0.874635
H342	H	1.644790	1.109001	1.207969
C343	C	0.938846	0.926927	0.187269
C344	C	1.272180	1.260260	0.520602
C345	C	1.605513	1.593593	0.853936
H346	H	0.903054	0.957978	0.188566
H347	H	1.236387	1.291312	0.521900
H348	H	1.569721	1.624645	0.855233
H349	H	0.930844	0.886035	0.160639
H350	H	1.264177	1.219368	0.493972
H351	H	1.597511	1.552701	0.827305
H352	H	0.973480	0.954077	0.171679
H353	H	1.306813	1.287410	0.505012
H354	H	1.640146	1.620743	0.838345
H355	H	1.002566	0.920394	0.264698
H356	H	1.335900	1.253727	0.598031
H357	H	1.669233	1.587061	0.931365
C358	C	0.895176	0.216246	0.733793
C359	C	1.228509	0.549579	1.067126
C360	C	1.561843	0.882913	1.400460
H361	H	0.892244	0.176502	0.762660
H362	H	1.225578	0.509836	1.095993
H363	H	1.558911	0.843169	1.429327
H364	H	0.931084	0.209730	0.708289
H365	H	1.264417	0.543063	1.041622
H366	H	1.597751	0.876396	1.374955
H367	H	0.858851	0.217228	0.708248
H368	H	1.192184	0.550561	1.041581
H369	H	1.525517	0.883895	1.374914
H370	H	0.666915	0.442604	0.374609
H371	H	1.000249	0.775938	0.707943
H372	H	1.333582	1.109271	1.041276
C373	C	0.272631	0.456055	0.386183
C374	C	0.605964	0.789389	0.719516
C375	C	0.939297	1.122722	1.052849
H376	H	0.243775	0.484286	0.410017
H377	H	0.577108	0.817620	0.743350
H378	H	0.910442	1.150953	1.076684
H379	H	0.298108	0.488292	0.362156
H380	H	0.631441	0.821625	0.695490
H381	H	0.964775	1.154959	1.028823
H382	H	0.298205	0.427769	0.413519
H383	H	0.631538	0.761103	0.746853
H384	H	0.964871	1.094436	1.080186
C385	C	0.895196	0.216206	0.871199
C386	C	1.228530	0.549539	1.204532
C387	C	1.561863	0.882873	1.537866
H388	H	0.892273	0.176476	0.842352
H389	H	1.225607	0.509809	1.175685
H390	H	1.558940	0.843142	1.509018
H391	H	0.858882	0.217167	0.896708
H392	H	1.192215	0.550501	1.230042
H393	H	1.525548	0.883834	1.563375
H394	H	0.931116	0.209684	0.896743
H395	H	1.264449	0.543017	1.230076
H396	H	1.597783	0.876350	1.563409
C397	C	0.878242	0.926588	0.418416
C398	C	1.211575	1.259922	0.751749
C399	C	1.544909	1.593255	1.085083
H400	H	0.859646	0.885628	0.439016
H401	H	1.192979	1.218961	0.772349
H402	H	1.526313	1.552295	1.105682
H403	H	0.846577	0.955805	0.399444
H404	H	1.179910	1.289139	0.732778
H405	H	1.513243	1.622472	1.066111
H406	H	0.900485	0.955610	0.447966
H407	H	1.233819	1.288943	0.781299
H408	H	1.567152	1.622276	1.114632
C409	C	1.020241	0.785540	0.268903
C410	C	1.353575	1.118873	0.602236
C411	C	1.686908	1.452207	0.935569
H412	H	1.020575	0.733057	0.269030
H413	H	1.353909	1.066391	0.602363
H414	H	1.687242	1.399724	0.935696
H415	H	1.032502	0.803244	0.308856
H416	H	1.365835	1.136578	0.642189
H417	H	1.699168	1.469911	0.975523
H418	H	1.048580	0.803170	0.238164
H419	H	1.381913	1.136504	0.571498
H420	H	1.715246	1.469837	0.904831
C421	C	0.135222	0.456031	0.386223
C422	C	0.468556	0.789364	0.719556
C423	C	0.801889	1.122697	1.052890
H424	H	0.164081	0.484293	0.410022
H425	H	0.497414	0.817627	0.743355
H426	H	0.830748	1.150960	1.076688
H427	H	0.109741	0.427753	0.413583
H428	H	0.443074	0.761086	0.746916
H429	H	0.776408	1.094420	1.080250
H430	H	0.109653	0.488249	0.362198
H431	H	0.442986	0.821583	0.695531
H432	H	0.776319	1.154916	1.028864
H433	H	0.832799	0.270519	0.541272
H434	H	1.166132	0.603852	0.874606
H435	H	1.499465	0.937185	1.207939
H436	H	0.144559	0.270382	0.229687
H437	H	0.477892	0.603715	0.563021
H438	H	0.811225	0.937049	0.896354
H439	H	0.263269	0.270413	0.229641
H440	H	0.596603	0.603746	0.562974
H441	H	0.929936	0.937079	0.896307
H442	H	0.889220	0.792575	0.405301
H443	H	1.222553	1.125909	0.738634
H444	H	1.555887	1.459242	1.071968
C445	C	0.988049	0.783857	0.387887
C446	C	1.321382	1.117191	0.721220
C447	C	1.654716	1.450524	1.054554
H448	H	1.004261	0.752837	0.355963
H449	H	1.337594	1.086170	0.689297
H450	H	1.670927	1.419503	1.022630
H451	H	0.984280	0.756475	0.425583
H452	H	1.317613	1.089808	0.758917
H453	H	1.650946	1.423142	1.092250
H454	H	1.015554	0.824338	0.394266
H455	H	1.348888	1.157671	0.727599
H456	H	1.682221	1.491005	1.060933
C457	C	0.817147	0.928081	0.221254
C458	C	1.150480	1.261414	0.554587
C459	C	1.483814	1.594748	0.887921
H460	H	0.848198	0.959764	0.204293
H461	H	1.181531	1.293098	0.537627
H462	H	1.514864	1.626431	0.870960
H463	H	0.779259	0.954799	0.226319
H464	H	1.112592	1.288132	0.559652
H465	H	1.445926	1.621466	0.892985
H466	H	0.810431	0.887723	0.193696
H467	H	1.143764	1.221056	0.527029
H468	H	1.477098	1.554389	0.860363
C469	C	0.821242	0.785806	0.218069
C470	C	1.154575	1.119140	0.551402
C471	C	1.487908	1.452473	0.884736
H472	H	0.853672	0.755450	0.201930
H473	H	1.187005	1.088783	0.535264
H474	H	1.520338	1.422116	0.868597
H475	H	0.815160	0.826995	0.191209
H476	H	1.148493	1.160329	0.524543
H477	H	1.481826	1.493662	0.857876
H478	H	0.783647	0.758070	0.220565
H479	H	1.116980	1.091403	0.553898
H480	H	1.450314	1.424737	0.887232
C481	C	0.989648	0.455700	1.073001
C482	C	1.322981	0.789033	1.406334
C483	C	1.656315	1.122366	1.739667
H484	H	0.983922	0.448906	1.116656
H485	H	1.317255	0.782239	1.449989
H486	H	1.650589	1.115572	1.783322
H487	H	0.980461	0.505464	1.062257
H488	H	1.313794	0.838797	1.395591
H489	H	1.647127	1.172130	1.728924
H490	H	1.031750	0.444844	1.062301
H491	H	1.365084	0.778177	1.395634
H492	H	1.698417	1.111511	1.728967
C493	C	0.989629	0.455739	0.935589
C494	C	1.322962	0.789072	1.268922
C495	C	1.656295	1.122405	1.602256
H496	H	1.013491	0.483926	0.964448
H497	H	1.346824	0.817260	1.297781
H498	H	1.680158	1.150593	1.631115
H499	H	0.965647	0.488019	0.910041
H500	H	1.298980	0.821353	1.243374
H501	H	1.632314	1.154686	1.576707
H502	H	1.016936	0.427399	0.910086
H503	H	1.350270	0.760733	1.243420
H504	H	1.683603	1.094066	1.576753
C505	C	0.915836	0.496441	0.871139
C506	C	1.249169	0.829774	1.204473
C507	C	1.582502	1.163107	1.537806
H508	H	0.915142	0.486870	0.914797
H509	H	1.248475	0.820203	1.248130
H510	H	1.581809	1.153536	1.581464
H511	H	0.881740	0.527607	0.860392
H512	H	1.215073	0.860940	1.193725
H513	H	1.548406	1.194274	1.527059
H514	H	0.953973	0.520111	0.860430
H515	H	1.287306	0.853445	1.193763
H516	H	1.620640	1.186778	1.527097
C517	C	0.915810	0.496486	0.733728
C518	C	1.249144	0.829819	1.067062
C519	C	1.582477	1.163152	1.400395
H520	H	0.915092	0.486945	0.690075
H521	H	1.248426	0.820278	1.023408
H522	H	1.581759	1.153611	1.356741
H523	H	0.953945	0.520155	0.744462
H524	H	1.287278	0.853488	1.077795
H525	H	1.620611	1.186822	1.411128
H526	H	0.881711	0.527641	0.744430
H527	H	1.215044	0.860974	1.077764
H528	H	1.548377	1.194307	1.411097
