data_functionalizedCrystal
_audit_creation_method	'MofGen! by Chris Wilmer'
_symmetry_space_group_name_H-M	'P1'
_symmetry_Int_Tables_number	1
_symmetry_cell_setting	triclinic
loop_
_symmetry_equiv_pos_as_xyz
  x,y,z
_cell_length_a	17.019282
_cell_length_b	17.038272
_cell_length_c	16.098538
_cell_angle_alpha	92.920305
_cell_angle_beta	91.140572
_cell_angle_gamma	87.241387
loop_
_atom_site_label
_atom_site_type_symbol
_atom_site_fract_x
_atom_site_fract_y
_atom_site_fract_z
O1	O	1.053062	0.099864	0.006294
O2	O	0.825028	0.111750	-0.010068
O3	O	0.937689	-0.008012	-0.001978
O4	O	0.940401	0.219626	-0.001797
O5	O	0.931106	-0.001043	0.136062
O6	O	0.818445	0.118718	0.127972
O7	O	1.046479	0.106832	0.144334
Zn8	Zn	0.931417	0.113882	0.158070
Zn9	Zn	0.940090	0.104700	-0.023804
O10	O	0.933818	0.226594	0.136243
C11	C	0.792416	0.114648	0.056848
C12	C	0.705047	0.112892	0.050579
C13	C	0.660417	0.115863	0.122882
C14	C	0.578326	0.114200	0.116994
C15	C	0.540866	0.109572	0.038803
C16	C	0.585502	0.106598	-0.033505
C17	C	0.667592	0.108255	-0.027616
C18	C	0.293186	0.104373	0.017259
C19	C	0.211090	0.102719	0.011376
C20	C	0.203920	0.110320	0.161876
C21	C	0.286012	0.111981	0.167758
C22	C	0.330641	0.109003	0.095450
C23	C	0.456955	0.107875	0.032783
C24	C	0.414550	0.110695	0.101470
C25	C	0.931933	-0.033663	0.066865
C26	C	0.924577	-0.120475	0.066337
C27	C	0.992107	-0.170407	0.071183
C28	C	0.985191	-0.251976	0.070679
C29	C	0.910746	-0.283613	0.065335
C30	C	0.843212	-0.233676	0.060486
C31	C	0.850128	-0.152108	0.060984
C32	C	0.886312	-0.529438	0.063570
C33	C	0.879401	-0.611012	0.063075
C34	C	1.021381	-0.629307	0.073267
C35	C	1.028291	-0.547736	0.073770
C36	C	0.960757	-0.497806	0.068916
C37	C	0.903675	-0.366990	0.064822
C38	C	0.967828	-0.414431	0.069423
C39	C	1.079091	0.103934	0.077416
C40	C	1.166460	0.105690	0.083679
C41	C	0.939574	0.252245	0.067399
C42	C	0.946930	0.339057	0.067921
N43	N	0.925503	0.120147	0.282194
N44	N	0.946010	0.098429	-0.147928
C45	C	0.973341	0.069333	0.329215
C46	C	0.969212	0.073724	0.416107
C47	C	0.917249	0.128932	0.455978
C48	C	0.869406	0.179748	0.408951
C49	C	0.873531	0.175353	0.322060
C50	C	0.902292	0.144850	0.718154
C51	C	0.898172	0.149242	0.805051
C52	C	0.997978	0.043217	0.812201
C53	C	1.002102	0.038830	0.725308
C54	C	0.954256	0.089643	0.678289
C55	C	0.913029	0.133423	0.544796
C56	C	0.958472	0.085148	0.589472
H57	H	0.329514	0.101946	-0.041619
H58	H	1.040181	-0.292627	0.074627
H59	H	0.554995	0.102824	-0.097170
C60	C	1.110186	-0.512943	0.079650
N61	N	1.171871	-0.486736	0.084082
C62	C	1.021818	0.017806	0.467824
N63	N	1.061435	-0.024322	0.506777
H64	H	1.044415	-0.006125	0.692848
C65	C	0.701616	0.120954	0.208899
N66	N	0.732645	0.124786	0.273690
H67	H	0.445054	0.114460	0.165133
H68	H	0.855855	0.194203	0.837510
C69	C	0.716684	0.104988	-0.107155
N70	N	0.753660	0.102525	-0.167067
H71	H	0.167575	0.112743	0.220745
C72	C	0.415740	0.102788	-0.053225
N73	N	0.384694	0.098955	-0.118007
H74	H	0.818775	-0.636766	0.058736
C75	C	0.855865	0.194146	0.588662
N76	N	0.812805	0.239879	0.621705
H77	H	0.863335	0.186226	0.679877
H78	H	0.316506	0.115747	0.231429
C79	C	1.074003	-0.135615	0.077063
N80	N	1.135690	-0.109412	0.081487
C81	C	0.775840	-0.097183	0.055655
N82	N	0.719884	-0.055815	0.051638
C83	C	0.820912	0.231259	0.270338
N84	N	0.781278	0.273369	0.231382
H85	H	1.076363	-0.669968	0.077217
H86	H	1.015658	0.024380	0.296758
C87	C	0.529236	0.117488	0.196533
N88	N	0.492261	0.119969	0.256446
H89	H	1.000778	0.040195	0.557007
H90	H	0.180592	0.098952	-0.052300
C91	C	0.812237	0.240471	0.452811
N92	N	0.769177	0.286208	0.485846
H93	H	0.831321	-0.488794	0.059618
C94	C	0.761320	-0.268478	0.054614
N95	N	0.699637	-0.294691	0.050197
C96	C	1.049716	-0.379628	0.075306
N97	N	1.111394	-0.353407	0.079743
H98	H	0.843061	-0.392758	0.060472
H99	H	1.036931	0.001846	0.850492
