data_functionalizedCrystal
_audit_creation_method	'MofGen! by Chris Wilmer'
_symmetry_space_group_name_H-M	'P1'
_symmetry_Int_Tables_number	1
_symmetry_cell_setting	triclinic
loop_
_symmetry_equiv_pos_as_xyz
  x,y,z
_cell_length_a	27.780882
_cell_length_b	27.780884
_cell_length_c	27.780936
_cell_angle_alpha	90.002261
_cell_angle_beta	59.997799
_cell_angle_gamma	119.999789
loop_
_atom_site_label
_atom_site_type_symbol
_atom_site_fract_x
_atom_site_fract_y
_atom_site_fract_z
O1	O	0.424592	-0.330213	-0.014321
O2	O	0.326022	-0.260214	0.014251
O3	O	0.424588	-0.260214	-0.084318
O4	O	0.326026	-0.330213	0.084247
O5	O	0.344528	-0.340274	-0.084318
O6	O	0.245962	-0.340274	0.014251
O7	O	0.344532	-0.410273	-0.014321
Cu8	Cu	0.287937	-0.382584	-0.000035
Cu9	Cu	0.382617	-0.287904	-0.000035
O10	O	0.245966	-0.410273	0.084248
C11	C	0.177734	-0.120430	0.029862
C12	C	0.211527	-0.056934	0.025772
C13	C	0.119397	-0.149664	0.030267
C14	C	0.177730	-0.207598	0.029867
C15	C	0.211519	-0.237303	0.025783
C16	C	0.119393	-0.236700	0.030273
C17	C	0.090568	-0.207596	0.029862
C18	C	0.031162	-0.237298	0.025772
C19	C	0.206427	-0.149666	0.030273
C20	C	-0.016831	-0.261295	0.022466
C21	C	0.238829	-0.005636	0.022467
C22	C	0.238818	-0.261301	0.022482
C23	C	-0.077040	-0.291400	0.018321
C24	C	0.273079	0.058719	0.018322
C25	C	0.273065	-0.291409	0.018343
O26	O	-0.234707	-0.410266	-0.014339
O27	O	-0.094711	-0.340265	0.014229
O28	O	-0.094704	-0.340270	-0.084338
O29	O	-0.234714	-0.410261	0.084228
O30	O	-0.094701	-0.260209	-0.084343
O31	O	-0.094708	-0.260204	0.014225
O32	O	-0.234704	-0.330205	-0.014344
Cu33	Cu	-0.164706	-0.287894	-0.000060
Cu34	Cu	-0.164709	-0.382576	-0.000055
O35	O	-0.234711	-0.330200	0.084223
C36	C	0.492828	-0.207603	-0.372394
C37	C	0.459037	-0.237307	-0.402098
C38	C	0.551166	-0.149673	-0.401496
C39	C	0.492828	-0.207604	-0.285228
C40	C	0.459036	-0.237307	-0.221733
C41	C	0.551166	-0.149673	-0.314463
C42	C	0.579994	-0.120438	-0.372393
C43	C	0.639400	-0.056943	-0.402096
C44	C	0.464132	-0.236706	-0.314464
C45	C	0.687394	-0.005646	-0.426092
C46	C	0.431736	-0.261304	-0.426095
C47	C	0.431736	-0.261304	-0.170435
C48	C	0.747605	0.058709	-0.456197
C49	C	0.397486	-0.291409	-0.456201
C50	C	0.397486	-0.291410	-0.106080
C51	C	0.580008	-0.462879	-0.029964
C52	C	0.639417	-0.433174	-0.025878
C53	C	0.551182	-0.520809	-0.030373
C54	C	0.492839	-0.462880	-0.029960
C55	C	0.459045	-0.433178	-0.025869
C56	C	0.464144	-0.520811	-0.030368
C57	C	0.492842	-0.550045	-0.029964
C58	C	0.459052	-0.613540	-0.025878
C59	C	0.551178	-0.433777	-0.030369
C60	C	0.431752	-0.664837	-0.022575
C61	C	0.687412	-0.409177	-0.022576
C62	C	0.431742	-0.409182	-0.022562
C63	C	0.397504	-0.729192	-0.018433
C64	C	0.747625	-0.379070	-0.018434
C65	C	0.397490	-0.379077	-0.018415
O66	O	0.344549	0.249047	-0.014343
O67	O	0.245980	0.080483	0.014226
O68	O	0.344550	0.179042	-0.084342
O69	O	0.245978	0.150488	0.084224
O70	O	0.424607	0.179040	-0.084336
O71	O	0.326036	0.080480	0.014231
O72	O	0.424605	0.249045	-0.014338
Cu73	Cu	0.382630	0.164762	-0.000053
Cu74	Cu	0.287954	0.164765	-0.000059
O75	O	0.326034	0.150486	0.084230
O76	O	0.905273	0.249033	-0.494995
O77	O	0.765273	0.080470	-0.425001
O78	O	0.765270	0.179032	-0.424994
O79	O	0.905276	0.150471	-0.495003
O80	O	0.765272	0.179034	-0.505055
O81	O	0.765275	0.080472	-0.505062
O82	O	0.905275	0.249035	-0.575056
Cu83	Cu	0.835275	0.164754	-0.547369
Cu84	Cu	0.835273	0.164751	-0.452688
O85	O	0.905278	0.150473	-0.575063
O86	O	0.326020	-0.330218	-0.575063
O87	O	0.424588	-0.260215	-0.505065
O88	O	0.326020	-0.260217	-0.505059
O89	O	0.424589	-0.330216	-0.575069
O90	O	0.245961	-0.340275	-0.425000
O91	O	0.344530	-0.340273	-0.425006
O92	O	0.245962	-0.410276	-0.495003
Cu93	Cu	0.287936	-0.382585	-0.452694
Cu94	Cu	0.382614	-0.287906	-0.547374
O95	O	0.344531	-0.410274	-0.495009
C96	C	0.090559	-0.550051	0.372323
C97	C	0.031152	-0.613546	0.402025
C98	C	0.119386	-0.520817	0.401426
C99	C	0.177725	-0.462885	0.285158
C100	C	0.211517	-0.433181	0.221663
C101	C	0.206420	-0.433783	0.314394
C102	C	0.177724	-0.462886	0.372324
C103	C	0.211515	-0.433183	0.402029
C104	C	0.119387	-0.520816	0.314392
C105	C	0.238815	-0.409187	0.426026
C106	C	-0.016842	-0.664843	0.426021
C107	C	0.238818	-0.409184	0.170365
C108	C	0.273064	-0.379082	0.456133
C109	C	-0.077053	-0.729198	0.456125
C110	C	0.273068	-0.379078	0.106010
C111	C	0.177761	-0.120445	-0.372420
C112	C	0.211554	-0.056951	-0.402125
C113	C	0.206457	-0.149682	-0.401521
C114	C	0.090590	-0.207608	-0.285252
C115	C	0.031179	-0.237308	-0.221756
C116	C	0.119418	-0.236712	-0.314485
C117	C	0.177759	-0.207612	-0.372416
C118	C	0.211551	-0.237318	-0.402117
C119	C	0.119420	-0.149677	-0.314489
C120	C	0.238852	-0.261316	-0.426113
C121	C	0.238857	-0.005654	-0.426124
C122	C	-0.016817	-0.261303	-0.170458
C123	C	0.273102	-0.291424	-0.456216
C124	C	0.273109	0.058701	-0.456232
C125	C	-0.077032	-0.291406	-0.106103
C126	C	-0.507174	-0.462860	0.372301
C127	C	-0.540966	-0.433155	0.402003
C128	C	-0.535872	-0.520790	0.401406
C129	C	-0.420004	-0.462864	0.285137
C130	C	-0.360594	-0.433163	0.221642
C131	C	-0.448834	-0.520794	0.314373
C132	C	-0.507175	-0.550027	0.372304
C133	C	-0.540968	-0.613521	0.402010
C134	C	-0.448833	-0.433760	0.314371
C135	C	-0.568270	-0.664818	0.426008
C136	C	-0.568268	-0.409157	0.425999
C137	C	-0.312597	-0.409168	0.170343
C138	C	-0.602522	-0.729173	0.456115
C139	C	-0.602518	-0.379050	0.456103
C140	C	-0.252383	-0.379064	0.105988
C141	C	0.580005	0.194619	-0.372405
C142	C	0.639409	0.190525	-0.402104
C143	C	0.551178	0.195023	-0.401510
C144	C	0.492843	0.194635	-0.285245
C145	C	0.459054	0.190558	-0.221751
C146	C	0.464149	0.195039	-0.314482
C147	C	0.492843	0.194621	-0.372410
C148	C	0.459052	0.190530	-0.402115
C149	C	0.551179	0.195036	-0.314476
C150	C	0.431752	0.187222	-0.426113
C151	C	0.687401	0.187216	-0.426097
C152	C	0.431754	0.187263	-0.170455
C153	C	0.397503	0.183075	-0.456220
C154	C	0.747609	0.183066	-0.456199
C155	C	0.397506	0.183130	-0.106101
O156	O	0.424649	0.249027	-0.575092
O157	O	0.326070	0.080461	-0.505095
O158	O	0.424629	0.179018	-0.505082
O159	O	0.326090	0.150471	-0.575105
O160	O	0.344563	0.179021	-0.425026
O161	O	0.246004	0.080464	-0.425039
O162	O	0.344583	0.249030	-0.495036
Cu163	Cu	0.287983	0.164747	-0.452728
Cu164	Cu	0.382670	0.164744	-0.547403
O165	O	0.246024	0.150474	-0.495049
C166	C	0.177742	0.134906	0.372298
C167	C	0.211532	0.138997	0.402003
C168	C	0.119406	0.134505	0.401398
C169	C	0.177741	0.134893	0.285133
C170	C	0.211531	0.138970	0.221639
C171	C	0.119406	0.134492	0.314364
C172	C	0.090580	0.134909	0.372293
C173	C	0.031176	0.139004	0.401992
C174	C	0.206435	0.134489	0.314370
C175	C	-0.016815	0.142313	0.425985
C176	C	0.238832	0.142304	0.426002
C177	C	0.238831	0.142265	0.170343
C178	C	-0.077023	0.146464	0.456086
C179	C	0.273081	0.146451	0.456109
C180	C	0.273079	0.146398	0.105989
H181	H	0.253368	-0.126194	0.030932
O182	O	0.262443	-0.121781	-0.458314
C183	C	0.281705	-0.160031	-0.477833
H184	H	0.235875	-0.207654	-0.450105
H185	H	0.300946	-0.153066	-0.526078
H186	H	0.323867	-0.150304	-0.473103
O187	O	0.579864	0.195712	-0.286412
C188	C	0.532267	0.145217	-0.235590
H189	H	0.492513	0.109266	-0.240918
H190	H	0.559623	0.128701	-0.229317
H191	H	0.506178	0.156853	-0.195440
H192	H	0.575291	-0.126204	-0.449095
H193	H	0.095296	-0.126201	-0.291020
O194	O	0.090693	0.133685	0.286285
C195	C	0.128683	0.133430	0.228771
H196	H	0.158209	0.115330	0.226968
H197	H	0.092710	0.104429	0.216498
H198	H	0.165847	0.180324	0.196338
O199	O	0.262452	-0.377014	0.286467
C200	C	0.281699	-0.357486	0.324723
H201	H	0.261055	-0.397134	0.359758
H202	H	0.339594	-0.327540	0.298433
H203	H	0.260014	-0.331994	0.346913
O204	O	-0.419938	-0.548698	0.286305
C205	C	-0.362167	-0.510461	0.228791
H206	H	-0.342279	-0.462835	0.226980
H207	H	-0.320886	-0.517418	0.216533
H208	H	-0.376619	-0.520209	0.196353
O209	O	0.579864	-0.121756	-0.286377
C210	C	0.541864	-0.159987	-0.228856
H211	H	0.512355	-0.207616	-0.227051
H212	H	0.577827	-0.152998	-0.216565
H213	H	0.504685	-0.150261	-0.196438
O214	O	0.579860	-0.548892	-0.031084
C215	C	0.532293	-0.599695	0.019427
H216	H	0.478549	-0.614323	0.036823
H217	H	0.538216	-0.636549	0.007459
H218	H	0.541650	-0.589294	0.054843
H219	H	-0.582816	-0.544257	0.449005
O220	O	0.408118	-0.293484	-0.286541
C221	C	0.388822	-0.313002	-0.324769
H222	H	0.434649	-0.285311	-0.372401
H223	H	0.369519	-0.361262	-0.317770
H224	H	0.346696	-0.308218	-0.315049
O225	O	0.090618	-0.121679	0.030986
C226	C	0.090317	-0.118713	-0.019519
H227	H	0.093061	-0.155065	-0.036924
H228	H	0.041502	-0.124734	-0.007540
H229	H	0.136142	-0.073943	-0.054932
H230	H	-0.424738	-0.386177	0.290884
O231	O	0.408170	0.195858	-0.286411
C232	C	0.388893	0.196116	-0.228897
H233	H	0.434712	0.214205	-0.227088
H234	H	0.369664	0.225128	-0.216634
H235	H	0.346718	0.149225	-0.196461
O236	O	0.580030	0.195774	-0.458285
C237	C	0.637813	0.196051	-0.477819
H238	H	0.633188	0.177023	-0.438174
H239	H	0.641482	0.168124	-0.507787
H240	H	0.685493	0.243228	-0.503291
H241	H	0.417198	-0.544282	-0.031019
O242	O	0.090742	0.133783	0.458164
C243	C	0.128718	0.133520	0.477698
H244	H	0.182758	0.152519	0.438052
H245	H	0.130374	0.161480	0.507635
H246	H	0.103731	0.086350	0.503204
H247	H	0.253386	0.133843	0.290899
O248	O	0.579960	-0.377020	-0.031066
C249	C	0.580230	-0.373798	0.019457
H250	H	0.577463	-0.412914	0.036848
H251	H	0.629042	-0.331023	0.007507
H252	H	0.534403	-0.374851	0.054870
O253	O	0.090678	-0.293491	0.031079
C254	C	0.128667	-0.313018	0.031326
H255	H	0.158197	-0.285295	0.049424
H256	H	0.092694	-0.361263	0.060327
H257	H	0.165829	-0.308288	-0.015570
O258	O	0.090485	-0.548822	0.458247
C259	C	0.023122	-0.565114	0.494059
H260	H	0.003534	-0.568272	0.465801
H261	H	-0.010627	-0.609708	0.529534
H262	H	0.021985	-0.530538	0.515801
O263	O	0.090504	-0.548891	0.286483
C264	C	0.032741	-0.606407	0.324718
H265	H	0.012838	-0.608216	0.372347
H266	H	-0.008535	-0.618679	0.317751
H267	H	0.047210	-0.638835	0.314976
H268	H	0.095281	-0.284313	-0.291012
