data_functionalizedCrystal
_audit_creation_method	'MofGen! by Chris Wilmer'
_symmetry_space_group_name_H-M	'P1'
_symmetry_Int_Tables_number	1
_symmetry_cell_setting	triclinic
loop_
_symmetry_equiv_pos_as_xyz
  x,y,z
_cell_length_a	6.817900
_cell_length_b	14.125469
_cell_length_c	16.305550
_cell_angle_alpha	95.884114
_cell_angle_beta	103.455250
_cell_angle_gamma	100.398878
loop_
_atom_site_label
_atom_site_type_symbol
_atom_site_fract_x
_atom_site_fract_y
_atom_site_fract_z
V1	V	-4.010572	-0.133925	-0.262704
O2	O	-4.014497	0.005600	-0.258038
O3	O	-3.946712	-0.264747	-0.260584
O4	O	-3.962176	-0.132231	-0.377425
O5	O	-3.998925	-0.127833	-0.140389
V6	V	-4.496202	-0.117193	-0.248113
O7	O	-4.267207	-0.170628	-0.294709
O8	O	-4.689764	-0.080489	-0.216107
O9	O	-4.336856	0.013629	-0.250232
O10	O	-4.609674	-0.256718	-0.252778
O11	O	-4.625245	-0.123285	-0.370428
O12	O	-4.321392	-0.118886	-0.133392
C13	C	-3.787951	-0.296627	-0.256357
C14	C	-3.817025	-0.403578	-0.255389
C15	C	-3.870323	-0.599398	-0.253629
C16	C	-4.055817	-0.651731	-0.257190
C17	C	-4.085475	-0.760692	-0.256211
C18	C	-3.840658	-0.490427	-0.254608
C19	C	-3.807677	-0.127589	-0.405397
C20	C	-3.849289	-0.127070	-0.499180
C21	C	-4.000611	-0.125059	-0.839931
C22	C	-3.765262	-0.119090	-0.799017
C23	C	-3.721959	-0.120028	-0.701520
C24	C	-3.925537	-0.126056	-0.670880
C25	C	-4.081450	-0.221074	-0.721274
C26	C	-4.123376	-0.220536	-0.818825
C27	C	-4.065699	-0.036771	-0.794304
C28	C	-4.017858	-0.036019	-0.696463
C29	C	-3.883121	-0.126623	-0.575341
C30	C	-4.043036	-0.124499	-0.935471
C31	C	-4.158957	0.045504	-0.254457
C32	C	-4.109122	0.152455	-0.255431
C33	C	-4.139232	-0.123532	-0.105415
C34	C	-4.076859	-0.124046	-0.011631
H35	H	-3.603457	-0.051711	-0.666663
C36	C	-3.991083	-0.364782	-0.796136
C37	C	-4.064007	-0.310756	-0.859624
H38	H	-3.954414	-0.420476	-0.821321
H39	H	-4.095962	-0.384858	-0.768290
H40	H	-3.873392	-0.325654	-0.755747
H41	H	-4.181708	-0.349882	-0.900009
H42	H	-3.959119	-0.290681	-0.887483
H43	H	-4.192349	-0.614702	-0.260973
C44	C	-3.824648	0.042239	-0.865109
C45	C	-3.953679	0.060421	-0.812579
H46	H	-3.755470	0.102239	-0.876386
H47	H	-3.904988	0.003572	-0.917293
H48	H	-3.725955	0.008586	-0.837266
H49	H	-4.052382	0.094068	-0.840425
H50	H	-3.873334	0.099104	-0.760386
C51	C	-4.431004	-0.316071	-0.917292
C52	C	-4.356722	-0.231787	-0.856605
H53	H	-4.575055	-0.323018	-0.940620
H54	H	-4.406237	-0.371170	-0.890873
H55	H	-4.362115	-0.311177	-0.961550
H56	H	-4.425600	-0.236684	-0.812344
H57	H	-4.381507	-0.176675	-0.883025
C58	C	-4.251148	-0.236335	-0.608255
C59	C	-4.286965	-0.231682	-0.695716
H60	H	-4.378027	-0.242888	-0.592477
H61	H	-4.159177	-0.178428	-0.577051
H62	H	-4.191980	-0.290855	-0.595925
H63	H	-4.346119	-0.177157	-0.708045
H64	H	-4.378970	-0.289595	-0.726930
H65	H	-4.237352	-0.040300	-0.821111
C66	C	-3.725248	-0.200799	-0.928778
C67	C	-3.694370	-0.204722	-0.841343
H68	H	-3.681501	-0.253671	-0.954909
H69	H	-3.647602	-0.141137	-0.936871
H70	H	-3.867596	-0.204945	-0.953852
H71	H	-3.552019	-0.200569	-0.816268
H72	H	-3.772014	-0.264399	-0.833244
H73	H	-3.733802	-0.636425	-0.249844
H74	H	-3.667157	-0.050450	-0.811548
H75	H	-3.648023	-0.184191	-0.685069
C76	C	-3.829859	0.060719	-0.561969
C77	C	-3.865559	0.058860	-0.650289
H78	H	-3.735840	0.119295	-0.533460
H79	H	-3.773156	0.006523	-0.546249
H80	H	-3.956371	0.057615	-0.546299
H81	H	-3.739049	0.061957	-0.665960
H82	H	-3.922256	0.113071	-0.666015
C83	C	-4.380772	-0.038737	-0.738871
C84	C	-4.216813	-0.034448	-0.667589
H85	H	-4.503584	-0.037778	-0.721027
H86	H	-4.398652	-0.097064	-0.776910
H87	H	-4.351285	0.015734	-0.767008
H88	H	-4.246293	-0.088923	-0.639455
H89	H	-4.198934	0.023885	-0.629535
H90	H	-4.018192	-0.287928	-0.704298
