data_functionalizedCrystal
_audit_creation_method	'MofGen! by Chris Wilmer'
_symmetry_space_group_name_H-M	'P1'
_symmetry_Int_Tables_number	1
_symmetry_cell_setting	triclinic
loop_
_symmetry_equiv_pos_as_xyz
  x,y,z
_cell_length_a	16.959455
_cell_length_b	21.295417
_cell_length_c	16.959447
_cell_angle_alpha	89.966081
_cell_angle_beta	89.982031
_cell_angle_gamma	90.027454
loop_
_atom_site_label
_atom_site_type_symbol
_atom_site_fract_x
_atom_site_fract_y
_atom_site_fract_z
Zn1	Zn	1.208355	-0.250656	-0.446882
Zn2	Zn	1.708355	0.249344	0.053118
Zn3	Zn	1.208245	-0.355930	-0.314692
Zn4	Zn	1.708245	0.144070	0.185308
Zn5	Zn	1.076175	-0.250673	-0.314719
Zn6	Zn	1.576175	0.249327	0.185281
Zn7	Zn	1.076124	-0.355886	-0.446831
Zn8	Zn	1.576124	0.144114	0.053169
O9	O	1.142225	-0.303286	-0.380781
O10	O	1.642225	0.196714	0.119219
O11	O	1.318951	-0.264632	-0.429357
O12	O	1.818951	0.235368	0.070643
O13	O	1.190701	-0.341994	-0.204085
O14	O	1.690701	0.158006	0.295915
O15	O	1.093776	-0.162582	-0.332284
O16	O	1.593776	0.337418	0.167716
O17	O	1.318870	-0.341977	-0.332237
O18	O	1.818870	0.158023	0.167763
O19	O	1.190888	-0.162569	-0.429383
O20	O	1.690888	0.337431	0.070617
O21	O	1.093670	-0.264662	-0.204105
O22	O	1.593670	0.235338	0.295895
O23	O	0.965557	-0.264619	-0.332234
O24	O	1.465557	0.235381	0.167766
O25	O	1.093689	-0.341901	-0.557448
O26	O	1.593689	0.158099	-0.057448
O27	O	0.965520	-0.341918	-0.429296
O28	O	1.465520	0.158082	0.070704
O29	O	1.190839	-0.264589	-0.557486
O30	O	1.690839	0.235411	-0.057486
O31	O	1.190651	-0.444014	-0.332188
O32	O	1.690651	0.055986	0.167812
O33	O	1.093583	-0.443981	-0.429269
O34	O	1.593583	0.056019	0.070731
C35	C	0.936858	-0.303266	-0.380763
C36	C	1.436858	0.196734	0.119237
C37	C	0.849002	-0.303272	-0.380774
C38	C	1.349002	0.196728	0.119226
C39	C	1.142121	-0.466838	-0.380737
C40	C	1.642121	0.033162	0.119263
C41	C	1.142149	-0.536806	-0.380745
C42	C	1.642149	-0.036806	0.119255
C43	C	0.477521	-0.263004	-0.330347
C44	C	0.977521	0.236996	0.169653
C45	C	0.477531	-0.343621	-0.431261
C46	C	0.977531	0.156379	0.068739
C47	C	0.560077	-0.343612	-0.431256
C48	C	1.060077	0.156388	0.068744
C49	C	0.601349	-0.303299	-0.380795
C50	C	1.101349	0.196701	0.119205
C51	C	0.560075	-0.262995	-0.330339
C52	C	1.060075	0.237005	0.169661
C53	C	0.601357	-0.383919	-0.481705
C54	C	1.101357	0.116081	0.018295
C55	C	0.683908	-0.383912	-0.481702
C56	C	1.183908	0.116088	0.018298
C57	C	0.725181	-0.343596	-0.431244
C58	C	1.225181	0.156404	0.068756
C59	C	0.683902	-0.303290	-0.380787
C60	C	1.183902	0.196710	0.119213
C61	C	0.725174	-0.262977	-0.330326
C62	C	1.225174	0.237023	0.169674
C63	C	0.683897	-0.222667	-0.279871
C64	C	1.183897	0.277333	0.220129
C65	C	0.601348	-0.222678	-0.279881
C66	C	1.101348	0.277322	0.220119
C67	C	0.807730	-0.343585	-0.431235
C68	C	1.307730	0.156415	0.068765
C69	C	0.807728	-0.262968	-0.330318
C70	C	1.307728	0.237032	0.169682
C71	C	1.192738	-0.569669	-0.330246
C72	C	1.692738	-0.069669	0.169754
C73	C	1.192775	-0.635411	-0.330264
C74	C	1.692775	-0.135411	0.169736
C75	C	1.142209	-0.668289	-0.380772
C76	C	1.642209	-0.168289	0.119228
C77	C	1.091617	-0.635418	-0.431281
C78	C	1.591617	-0.135418	0.068719
C79	C	1.091587	-0.569677	-0.431267
C80	C	1.591587	-0.069677	0.068733
N81	N	1.073063	-0.771551	-0.386792
N82	N	1.573063	-0.271551	0.113208
N83	N	1.073093	-0.834003	-0.386800
N84	N	1.573093	-0.334003	0.113200
C85	C	1.142298	-0.866363	-0.380818
C86	C	1.642298	-0.366363	0.119182
N87	N	1.211471	-0.833913	-0.374811
N88	N	1.711471	-0.333913	0.125189
N89	N	1.211440	-0.771456	-0.374798
N90	N	1.711440	-0.271456	0.125202
C91	C	1.142236	-0.739574	-0.380793
C92	C	1.642236	-0.239574	0.119207
C93	C	1.192931	-0.970512	-0.330335
C94	C	1.692931	-0.470512	0.169665
C95	C	1.192969	-1.036255	-0.330359
C96	C	1.692969	-0.536255	0.169641
C97	C	1.091804	-1.036260	-0.431371
C98	C	1.591804	-0.536260	0.068629
C99	C	1.091773	-0.970518	-0.431352
C100	C	1.591773	-0.470518	0.068648
C101	C	1.142335	-0.937648	-0.380830
C102	C	1.642335	-0.437648	0.119170
C103	C	1.348393	-0.303308	-0.380800
C104	C	1.848393	0.196692	0.119200
C105	C	1.436249	-0.303317	-0.380808
C106	C	1.936249	0.196683	0.119192
C107	C	1.142271	-0.303238	-0.586949
C108	C	1.642271	0.196762	-0.086949
C109	C	1.142290	-0.303217	-0.674806
C110	C	1.642290	0.196783	-0.174806
C111	C	1.142350	-0.139096	-0.380842
C112	C	1.642350	0.360904	0.119158
C113	C	1.142404	-0.069128	-0.380868
C114	C	1.642404	0.430872	0.119132
C115	C	1.192820	-0.343470	-0.716071
C116	C	1.692820	0.156530	-0.216071
C117	C	1.091774	-0.262949	-0.716094
C118	C	1.591774	0.237051	-0.216094
C119	C	1.091788	-0.262930	-0.798640
C120	C	1.591788	0.237070	-0.298640
C121	C	1.142317	-0.303183	-0.839906
C122	C	1.642317	0.196817	-0.339906
C123	C	1.192834	-0.343454	-0.798625
C124	C	1.692834	0.156546	-0.298625
C125	C	1.041267	-0.222664	-0.839927
C126	C	1.541267	0.277336	-0.339927
C127	C	1.041278	-0.222645	-0.922478
C128	C	1.541278	0.277355	-0.422478
C129	C	1.091812	-0.262895	-0.963745
C130	C	1.591812	0.237105	-0.463745
C131	C	1.142331	-0.303167	-0.922459
C132	C	1.642331	0.196833	-0.422459
C133	C	1.192861	-0.343420	-0.963724
C134	C	1.692861	0.156580	-0.463724
C135	C	1.243384	-0.383689	-0.922440
C136	C	1.743384	0.116311	-0.422440
C137	C	1.243368	-0.383704	-0.839891
C138	C	1.743368	0.116296	-0.339891
C139	C	1.091828	-0.262880	-1.046293
C140	C	1.591828	0.237120	-0.546293
C141	C	1.192874	-0.343404	-1.046278
C142	C	1.692874	0.156596	-0.546278
C143	C	1.142224	-0.303289	-0.175415
C144	C	1.642224	0.196711	0.324585
C145	C	1.142358	-0.303133	-0.087559
C146	C	1.642358	0.196867	0.412441
H147	H	0.841326	-0.230136	-0.289230
H148	H	1.341326	0.269864	0.210770
Cl149	Cl	0.425632	-0.212328	-0.266926
Cl150	Cl	0.925632	0.287672	0.233074
H151	H	0.567733	-0.189861	-0.238803
H152	H	1.067733	0.310139	0.261197
Cl153	Cl	1.256337	-0.394088	-0.664174
Cl154	Cl	1.756337	0.105912	-0.164174
Cl155	Cl	0.735792	-0.434584	-0.545131
Cl156	Cl	1.235792	0.065416	-0.045131
H157	H	1.284523	-0.416465	-0.956049
H158	H	1.784523	0.083535	-0.456049
Cl159	Cl	0.735791	-0.171994	-0.216433
Cl160	Cl	1.235791	0.328006	0.283567
H161	H	1.000139	-0.189855	-0.956085
H162	H	1.500139	0.310145	-0.456085
Cl163	Cl	1.256405	-0.394007	-1.098147
Cl164	Cl	1.756405	0.105993	-0.598147
Cl165	Cl	1.256492	-0.929186	-0.266823
Cl166	Cl	1.756492	-0.429186	0.233177
H167	H	0.567748	-0.416744	-0.522782
H168	H	1.067748	0.083256	-0.022782
H169	H	1.284500	-0.416490	-0.806270
H170	H	1.784500	0.083510	-0.306270
Cl171	Cl	1.028271	-0.212335	-0.664217
Cl172	Cl	1.528271	0.287665	-0.164217
H173	H	1.000123	-0.189897	-0.806323
H174	H	1.500123	0.310103	-0.306323
H175	H	1.234169	-1.063011	-0.289238
H176	H	1.734169	-0.563011	0.210762
H177	H	1.050636	-1.063028	-0.472499
H178	H	1.550636	-0.563028	0.027501
H179	H	1.050692	-0.230094	-1.079903
H180	H	1.550692	0.269906	-0.579903
H181	H	1.233910	-0.542908	-0.289110
H182	H	1.733910	-0.042908	0.210890
Cl183	Cl	1.027984	-0.528361	-0.494756
Cl184	Cl	1.527984	-0.028361	0.005244
Cl185	Cl	1.028168	-0.929202	-0.494836
Cl186	Cl	1.528168	-0.429202	0.005164
Cl187	Cl	0.425646	-0.394310	-0.494677
Cl188	Cl	0.925646	0.105690	0.005323
Cl189	Cl	1.256375	-0.676733	-0.266774
Cl190	Cl	1.756375	-0.176733	0.233226
Cl191	Cl	0.859618	-0.394259	-0.494653
Cl192	Cl	1.359618	0.105741	0.005347
H193	H	1.050447	-0.662191	-0.472406
H194	H	1.550447	-0.162191	0.027594
