data_functionalizedCrystal
_audit_creation_method	'MofGen! by Chris Wilmer'
_symmetry_space_group_name_H-M	'P1'
_symmetry_Int_Tables_number	1
_symmetry_cell_setting	triclinic
loop_
_symmetry_equiv_pos_as_xyz
  x,y,z
_cell_length_a	14.519709
_cell_length_b	18.366186
_cell_length_c	19.288857
_cell_angle_alpha	89.991598
_cell_angle_beta	83.406627
_cell_angle_gamma	89.996571
loop_
_atom_site_label
_atom_site_type_symbol
_atom_site_fract_x
_atom_site_fract_y
_atom_site_fract_z
O1	O	1.223292	-0.060458	0.091051
O2	O	0.954747	-0.060481	0.101774
O3	O	1.096783	-0.060460	-0.004690
O4	O	1.081256	-0.060479	0.197515
O5	O	1.096759	0.060639	-0.004696
O6	O	0.954723	0.060618	0.101768
O7	O	1.223268	0.060641	0.091046
Zn8	Zn	1.088992	0.079857	0.096406
Zn9	Zn	1.089024	-0.079697	0.096413
O10	O	1.081232	0.060620	0.197510
C11	C	0.920379	0.000066	0.101271
C12	C	0.818007	0.000057	0.099774
N13	N	1.088977	0.188748	0.096401
N14	N	1.089046	-0.188588	0.096413
C15	C	0.443146	0.000091	0.094261
C16	C	0.547444	0.000081	0.095792
C17	C	0.630573	0.000074	0.097017
C18	C	0.734878	0.000065	0.098548
C19	C	1.257637	0.000092	0.091548
C20	C	1.360009	0.000096	0.093046
C21	C	1.096273	0.000090	-0.030571
C22	C	1.094777	0.000092	-0.107681
C23	C	1.151891	0.226857	0.049282
C24	C	1.151897	0.303085	0.049279
C25	C	1.088997	0.341201	0.096407
C26	C	1.026072	0.303082	0.143529
C27	C	1.026061	0.226855	0.143526
C28	C	1.076650	0.461954	0.159650
C29	C	1.076666	0.538179	0.159654
C30	C	1.089024	0.576308	0.096416
C31	C	1.101384	0.538203	0.033170
C32	C	1.101374	0.461976	0.033167
C33	C	1.089001	0.423855	0.096415
C34	C	1.151948	0.697073	0.049289
C35	C	1.151947	0.773302	0.049285
C36	C	1.026126	0.773297	0.143542
C37	C	1.026122	0.697069	0.143540
C38	C	1.089038	0.658962	0.096414
C39	C	1.094091	-0.065920	-0.143891
C40	C	1.092672	-0.065925	-0.216342
C41	C	1.091957	0.000085	-0.252582
C42	C	1.092637	0.066105	-0.216362
C43	C	1.094047	0.066108	-0.143912
C44	C	1.143730	0.050656	-0.372629
C45	C	1.142326	0.050650	-0.445079
C46	C	1.087605	0.000076	-0.476043
C47	C	1.034300	-0.050504	-0.434550
C48	C	1.035710	-0.050500	-0.362099
C49	C	1.090428	0.000088	-0.331142
C50	C	1.085380	-0.065946	-0.590813
C51	C	1.083956	-0.065949	-0.663265
C52	C	1.083930	0.066083	-0.663285
C53	C	1.085345	0.066084	-0.590834
C54	C	1.086075	0.000067	-0.554603
C55	C	1.081743	0.000068	0.223391
C56	C	1.083239	0.000062	0.300500
H57	H	1.203131	0.334120	0.010908
H58	H	1.092109	-0.119681	-0.245830
H59	H	1.085969	-0.119701	-0.561312
C60	C	1.083206	-0.138565	-0.703102
C61	C	1.002179	-0.156740	-0.745116
C62	C	1.001432	-0.229356	-0.784956
C63	C	1.081713	-0.283799	-0.782781
C64	C	1.162747	-0.265626	-0.740766
C65	C	1.163493	-0.193009	-0.700926
H66	H	0.942744	-0.116437	-0.746727
H67	H	0.941445	-0.242809	-0.816058
H68	H	1.081160	-0.337554	-0.812273
H69	H	1.222181	-0.305928	-0.739155
H70	H	1.223480	-0.179556	-0.669824
C71	C	0.977070	-0.106127	-0.316455
C72	C	0.901849	-0.079611	-0.259238
C73	C	0.843205	-0.135236	-0.213593
C74	C	0.859783	-0.217377	-0.225164
C75	C	0.935009	-0.243897	-0.282383
C76	C	0.993652	-0.188272	-0.328029
H77	H	0.889573	-0.018802	-0.250670
H78	H	0.787518	-0.115604	-0.171235
H79	H	0.816372	-0.258554	-0.191374
H80	H	0.947284	-0.304706	-0.290952
H81	H	1.049339	-0.207904	-0.370387
H82	H	1.111446	0.569245	-0.018325
C83	C	1.200966	0.106284	-0.490715
C84	C	1.184371	0.188422	-0.479138
C85	C	1.243014	0.244057	-0.524772
C86	C	1.318252	0.217553	-0.581983
C87	C	1.334850	0.135411	-0.593563
C88	C	1.276207	0.079776	-0.547929
H89	H	1.128672	0.208045	-0.436785
H90	H	1.230726	0.304864	-0.516199
H91	H	1.361663	0.258737	-0.615763
H92	H	1.390549	0.115788	-0.635916
H93	H	1.288495	0.018969	-0.556502
C94	C	1.114957	0.420059	-0.036397
C95	C	1.114944	0.336213	-0.036397
C96	C	1.128523	0.294296	-0.105962
C97	C	1.142116	0.336225	-0.175528
C98	C	1.142130	0.420076	-0.175530
C99	C	1.128550	0.461993	-0.105965
H100	H	1.104881	0.305171	0.015102
H101	H	1.128513	0.232224	-0.105960
H102	H	1.152168	0.305196	-0.227024
H103	H	1.152192	0.451119	-0.227029
H104	H	1.128561	0.524065	-0.105967
C105	C	1.203923	0.106296	-0.338572
C106	C	1.262562	0.161925	-0.384209
C107	C	1.322748	0.217565	-0.350153
C108	C	1.324296	0.217575	-0.270459
C109	C	1.265655	0.161944	-0.224818
C110	C	1.205469	0.106304	-0.258875
H111	H	1.261418	0.161919	-0.443207
H112	H	1.366157	0.258747	-0.383940
H113	H	1.368849	0.258763	-0.245249
H114	H	1.266799	0.161949	-0.165820
H115	H	1.162059	0.065122	-0.225087
H116	H	0.974895	0.666038	0.181911
C117	C	1.221156	0.815228	-0.002549
C118	C	1.290377	0.773309	-0.054368
C119	C	1.359587	0.815237	-0.106202
C120	C	1.359575	0.899083	-0.106218
C121	C	1.290351	0.941006	-0.054397
C122	C	1.221141	0.899078	-0.002562
H123	H	1.290389	0.711237	-0.054358
H124	H	1.410831	0.784202	-0.144564
H125	H	1.410808	0.930120	-0.144589
H126	H	1.290340	1.003078	-0.054407
H127	H	1.169897	0.930113	0.035799
C128	C	0.956934	0.815216	0.195382
C129	C	0.957003	0.899062	0.195432
C130	C	0.887806	0.940985	0.247272
C131	C	0.818540	0.899063	0.299062
C132	C	0.818469	0.815212	0.299014
C133	C	0.887666	0.773288	0.247174
H134	H	1.008280	0.930099	0.157092
H135	H	0.887859	1.003057	0.247307
H136	H	0.767316	0.930097	0.337437
H137	H	0.767192	0.784174	0.337354
H138	H	0.887612	0.711216	0.247139
H139	H	1.094601	0.119865	-0.114429
H140	H	0.989741	-0.091686	-0.459759
C141	C	1.063060	0.420017	0.229219
C142	C	1.049482	0.461926	0.298784
C143	C	1.035893	0.419990	0.368350
C144	C	1.035883	0.336144	0.368350
C145	C	1.049461	0.294230	0.298782
C146	C	1.063050	0.336166	0.229216
H147	H	1.049490	0.523998	0.298786
H148	H	1.025842	0.451018	0.419848
H149	H	1.025823	0.305100	0.419846
H150	H	1.049454	0.232158	0.298780
H151	H	1.073102	0.305138	0.177718
H152	H	1.092052	0.119850	-0.245873
C153	C	1.094882	-0.138538	-0.104039
C154	C	1.175916	-0.156690	-0.062018
C155	C	1.176703	-0.229308	-0.022165
C156	C	1.096456	-0.283775	-0.024334
C157	C	1.015416	-0.265624	-0.066357
C158	C	1.014629	-0.193006	-0.106209
H159	H	1.235325	-0.116369	-0.060411
H160	H	1.236695	-0.242745	0.008943
H161	H	1.097039	-0.337532	0.005168
H162	H	0.956007	-0.305945	-0.067963
H163	H	0.954637	-0.179569	-0.137318
H164	H	1.203118	0.195832	0.010908
H165	H	1.203175	0.666044	0.010915
H166	H	1.083340	0.119829	-0.692790
C167	C	1.063078	0.580088	0.229223
C168	C	1.138893	0.632470	0.248581
C169	C	1.125307	0.674375	0.318153
C170	C	1.035906	0.663899	0.368366
C171	C	0.960084	0.611514	0.349009
C172	C	0.973670	0.569609	0.279438
H173	H	1.205079	0.640227	0.211410
H174	H	1.181435	0.713153	0.332482
H175	H	1.025848	0.694919	0.419867
H176	H	0.893899	0.603757	0.386181
H177	H	0.917542	0.530831	0.265108
H178	H	0.974828	0.195826	0.181897
H179	H	0.974856	0.334119	0.181901
H180	H	1.085911	0.119838	-0.561352
