data_functionalizedCrystal
_audit_creation_method	'MofGen! by Chris Wilmer'
_symmetry_space_group_name_H-M	'P1'
_symmetry_Int_Tables_number	1
_symmetry_cell_setting	triclinic
loop_
_symmetry_equiv_pos_as_xyz
  x,y,z
_cell_length_a	14.853567
_cell_length_b	11.792254
_cell_length_c	13.930277
_cell_angle_alpha	89.995290
_cell_angle_beta	89.995755
_cell_angle_gamma	83.916764
loop_
_atom_site_label
_atom_site_type_symbol
_atom_site_fract_x
_atom_site_fract_y
_atom_site_fract_z
O1	O	1.196951	0.148180	-0.079765
O2	O	0.934560	0.165832	-0.079782
O3	O	1.072117	-0.008203	-0.079766
O4	O	1.059394	0.322215	-0.079781
O5	O	1.072098	-0.008206	0.079896
O6	O	0.934541	0.165828	0.079880
O7	O	1.196931	0.148177	0.079897
Zn8	Zn	1.065733	0.157002	0.105238
Zn9	Zn	1.065759	0.157007	-0.105123
O10	O	1.059375	0.322211	0.079881
C11	C	0.900959	0.165031	0.000047
C12	C	0.800866	0.162634	0.000041
C13	C	1.071306	-0.050490	0.000064
C14	C	1.068907	-0.176488	0.000063
C15	C	0.387886	0.049122	0.000068
C16	C	0.367418	0.255879	0.000058
C17	C	0.461460	0.258133	0.000054
C18	C	0.518720	0.155879	0.000056
C19	C	0.481938	0.051372	0.000062
C20	C	0.498250	0.362638	0.000040
C21	C	0.592298	0.364896	0.000035
C22	C	0.649560	0.262641	0.000044
C23	C	0.612772	0.158130	0.000050
C24	C	0.670032	0.055876	0.000052
C25	C	0.633246	-0.048636	0.000065
C26	C	0.539200	-0.050883	0.000070
C27	C	0.743606	0.264887	0.000039
C28	C	0.764083	0.058127	0.000046
C29	C	1.066958	-0.278813	0.000060
C30	C	1.064521	-0.407185	0.000051
C31	C	1.230533	0.148978	0.000066
C32	C	1.330626	0.151375	0.000066
C33	C	1.060186	0.364499	0.000049
C34	C	1.062585	0.490497	0.000043
N35	N	1.065723	0.156998	0.248804
N36	N	1.065776	0.157002	-0.248689
C37	C	1.004846	0.234039	0.701067
C38	C	1.126696	0.079966	0.701050
C39	C	1.126685	0.079962	0.600554
C40	C	1.065755	0.156999	0.550310
C41	C	1.004835	0.234040	0.600562
C42	C	1.187610	0.002930	0.550295
C43	C	1.187602	0.002925	0.449793
C44	C	1.126667	0.079957	0.399547
C45	C	1.065744	0.157000	0.449805
C46	C	1.004814	0.234038	0.399561
C47	C	0.943886	0.311076	0.449817
C48	C	0.943900	0.311073	0.550316
C49	C	1.126653	0.079961	0.299048
C50	C	1.004803	0.234039	0.299056
H51	H	0.810699	-0.025142	0.000052
F52	F	1.191545	-0.002012	0.754523
F53	F	0.940002	0.316022	0.754550
F54	F	1.252459	-0.079048	0.603768
F55	F	0.348736	-0.062103	0.000086
H56	H	0.894280	0.373806	0.408897
F57	F	0.694196	-0.157458	0.000061
H58	H	1.237212	-0.059805	0.408881
F59	F	1.191498	-0.002018	0.245568
H60	H	0.509239	-0.135971	0.000104
F61	F	0.306476	0.364698	0.000044
F62	F	0.437306	0.471455	0.000024
H63	H	0.622240	0.449996	0.000025
F64	F	0.939947	0.316029	0.245590
F65	F	0.782753	0.376108	0.000018
H66	H	0.894295	0.373796	0.591241
