data_functionalizedCrystal
_audit_creation_method	'MofGen! by Chris Wilmer'
_symmetry_space_group_name_H-M	'P1'
_symmetry_Int_Tables_number	1
_symmetry_cell_setting	triclinic
loop_
_symmetry_equiv_pos_as_xyz
  x,y,z
_cell_length_a	14.044220
_cell_length_b	15.995350
_cell_length_c	12.503572
_cell_angle_alpha	93.525550
_cell_angle_beta	86.164750
_cell_angle_gamma	88.340626
loop_
_atom_site_label
_atom_site_type_symbol
_atom_site_fract_x
_atom_site_fract_y
_atom_site_fract_z
O1	O	1.263165	0.197434	-0.089196
O2	O	0.987198	0.190148	-0.089224
O3	O	1.132725	0.072467	-0.089208
O4	O	1.117638	0.315115	-0.089212
O5	O	1.121781	0.081333	0.089432
O6	O	0.976253	0.199014	0.089417
O7	O	1.252221	0.206300	0.089445
Cu8	Cu	1.113237	0.203467	0.105742
Cu9	Cu	1.126181	0.192981	-0.105521
O10	O	1.106693	0.323981	0.089429
C11	C	0.946411	0.191392	0.000093
C12	C	0.841186	0.181881	0.000082
C13	C	0.648523	0.164494	0.000104
C14	C	0.590890	0.231950	0.000107
C15	C	0.483686	0.222276	0.000119
C16	C	0.755737	0.174167	0.000092
C17	C	1.126629	0.045658	0.000110
C18	C	1.124760	-0.047432	0.000104
C19	C	1.118044	-0.385681	0.000107
C20	C	1.014426	-0.346008	-0.000304
C21	C	1.016272	-0.249158	0.000099
C22	C	1.121375	-0.217872	0.000105
C23	C	1.166245	-0.250068	0.102120
C24	C	1.163636	-0.346894	0.102206
C25	C	1.178223	-0.357175	-0.100942
C26	C	1.178281	-0.260298	-0.102290
C27	C	1.123263	-0.123033	0.000107
C28	C	1.116158	-0.480519	0.000111
C29	C	1.293007	0.205055	0.000125
C30	C	1.398233	0.214567	0.000129
C31	C	1.112789	0.350789	0.000108
C32	C	1.114659	0.443879	0.000108
N33	N	1.104141	0.210842	0.254333
N34	N	1.135285	0.185600	-0.254113
C35	C	1.090759	0.221698	0.473447
C36	C	1.148663	0.174747	0.526780
C37	C	1.141218	0.180787	0.648703
C38	C	1.098204	0.215658	0.351514
H39	H	0.968729	-0.365072	0.072438
C40	C	0.732564	0.312442	0.000035
C41	C	0.632965	0.319721	0.000063
H42	H	0.758541	0.366626	-0.000010
H43	H	0.749552	0.286003	0.062338
H44	H	0.757145	0.279772	-0.062255
H45	H	0.608382	0.352387	0.062357
H46	H	0.615969	0.346172	-0.062247
C47	C	0.506854	0.084012	0.000102
C48	C	0.606451	0.076727	0.000098
H49	H	0.480875	0.029827	0.000089
H50	H	0.482261	0.116651	0.062400
H51	H	0.489882	0.110487	-0.062193
H52	H	0.623424	0.050257	0.062397
H53	H	0.631052	0.044075	-0.062206
H54	H	0.980568	-0.227367	-0.073031
C55	C	1.033269	0.364245	0.508316
C56	C	1.016293	0.282086	0.535405
H57	H	0.987293	0.401524	0.546570
H58	H	1.095445	0.378886	0.526684
H59	H	1.028565	0.368045	0.433322
H60	H	1.021003	0.278285	0.610398
H61	H	0.954100	0.267441	0.517044
H62	H	0.977483	-0.371265	-0.073462
H63	H	1.203829	0.130016	0.480873
H64	H	0.971331	-0.220680	0.073345
H65	H	1.255304	-0.239517	-0.108445
H66	H	1.239445	-0.373229	0.106839
C67	C	1.075729	-0.297072	0.266146
C68	C	1.106996	-0.370256	0.205136
H69	H	1.040755	-0.311494	0.329687
H70	H	1.129332	-0.265801	0.284784
H71	H	1.035881	-0.264296	0.225346
H72	H	1.146851	-0.403030	0.245933
H73	H	1.053386	-0.401540	0.186500
C74	C	1.295244	-0.176856	0.018580
C75	C	1.270169	-0.222955	0.107262
H76	H	1.359400	-0.160113	0.021759
H77	H	1.289265	-0.210588	-0.045684
H78	H	1.254082	-0.128593	0.019533
H79	H	1.311327	-0.271222	0.106305
H80	H	1.276157	-0.189222	0.171543
H81	H	1.149075	-0.384083	-0.178264
C82	C	1.202662	-0.191679	-0.266925
C83	C	1.134144	-0.232260	-0.204178
H84	H	1.175412	-0.174370	-0.329826
H85	H	1.223482	-0.144058	-0.226867
H86	H	1.255553	-0.229096	-0.286652
H87	H	1.081256	-0.194842	-0.184444
H88	H	1.113311	-0.279888	-0.244244
C89	C	1.302903	-0.443671	-0.195726
C90	C	1.281438	-0.392391	-0.101876
H91	H	1.366622	-0.465410	-0.196298
H92	H	1.260227	-0.488642	-0.197958
H93	H	1.296432	-0.411733	-0.256571
H94	H	1.287902	-0.424331	-0.041030
H95	H	1.324126	-0.347414	-0.099634
H96	H	1.126089	-0.220570	0.178033
