data_functionalizedCrystal
_audit_creation_method	'MofGen! by Chris Wilmer'
_symmetry_space_group_name_H-M	'P1'
_symmetry_Int_Tables_number	1
_symmetry_cell_setting	triclinic
loop_
_symmetry_equiv_pos_as_xyz
  x,y,z
_cell_length_a	16.625548
_cell_length_b	18.050590
_cell_length_c	16.625539
_cell_angle_alpha	90.029956
_cell_angle_beta	90.020568
_cell_angle_gamma	90.019620
loop_
_atom_site_label
_atom_site_type_symbol
_atom_site_fract_x
_atom_site_fract_y
_atom_site_fract_z
Zn1	Zn	1.232702	-0.295637	0.455900
Zn2	Zn	1.482702	-0.045637	0.705900
Zn3	Zn	1.732702	0.204363	0.955900
Zn4	Zn	1.982702	0.454363	1.205900
Zn5	Zn	1.232615	-0.419835	0.321063
Zn6	Zn	1.482615	-0.169835	0.571063
Zn7	Zn	1.732615	0.080165	0.821063
Zn8	Zn	1.982615	0.330165	1.071063
Zn9	Zn	1.097864	-0.295665	0.321081
Zn10	Zn	1.347864	-0.045665	0.571081
Zn11	Zn	1.597864	0.204335	0.821081
Zn12	Zn	1.847864	0.454335	1.071081
Zn13	Zn	1.097844	-0.419792	0.455853
Zn14	Zn	1.347844	-0.169792	0.705853
Zn15	Zn	1.597844	0.080208	0.955853
Zn16	Zn	1.847844	0.330208	1.205853
O17	O	1.165256	-0.357732	0.388474
O18	O	1.415256	-0.107732	0.638474
O19	O	1.665256	0.142268	0.888474
O20	O	1.915256	0.392268	1.138474
O21	O	1.345523	-0.312118	0.438026
O22	O	1.595523	-0.062118	0.688026
O23	O	1.845523	0.187882	0.938026
O24	O	2.095523	0.437882	1.188026
O25	O	1.214712	-0.403393	0.208233
O26	O	1.464712	-0.153393	0.458233
O27	O	1.714712	0.096607	0.708233
O28	O	1.964712	0.346607	0.958233
O29	O	1.115796	-0.191737	0.338992
O30	O	1.365796	0.058263	0.588992
O31	O	1.615796	0.308263	0.838992
O32	O	1.865796	0.558263	1.088992
O33	O	1.345459	-0.403365	0.338962
O34	O	1.595459	-0.153365	0.588962
O35	O	1.845459	0.096635	0.838962
O36	O	2.095459	0.346635	1.088962
O37	O	1.214861	-0.191716	0.438043
O38	O	1.464861	0.058284	0.688043
O39	O	1.714861	0.308284	0.938043
O40	O	1.964861	0.558284	1.188043
O41	O	1.115711	-0.312166	0.208246
O42	O	1.365711	-0.062166	0.458246
O43	O	1.615711	0.187834	0.708246
O44	O	1.865711	0.437834	0.958246
O45	O	0.985029	-0.312125	0.338946
O46	O	1.235029	-0.062125	0.588946
O47	O	1.485029	0.187875	0.838946
O48	O	1.735029	0.437875	1.088946
O49	O	1.115761	-0.403293	0.568692
O50	O	1.365761	-0.153293	0.818692
O51	O	1.615761	0.096707	1.068692
O52	O	1.865761	0.346707	1.318692
O53	O	0.985014	-0.403320	0.437963
O54	O	1.235014	-0.153320	0.687963
O55	O	1.485014	0.096680	0.937963
O56	O	1.735014	0.346680	1.187963
O57	O	1.214841	-0.312077	0.568726
O58	O	1.464841	-0.062077	0.818726
O59	O	1.714841	0.187923	1.068726
O60	O	1.964841	0.437923	1.318726
O61	O	1.214692	-0.523754	0.338917
O62	O	1.464692	-0.273754	0.588917
O63	O	1.714692	-0.023754	0.838917
O64	O	1.964692	0.226246	1.088917
O65	O	1.115676	-0.523722	0.437946
O66	O	1.365676	-0.273722	0.687946
O67	O	1.615676	-0.023722	0.937946
O68	O	1.865676	0.226278	1.187946
C69	C	0.955765	-0.357722	0.388452
C70	C	1.205765	-0.107722	0.638452
C71	C	1.455765	0.142278	0.888452
C72	C	1.705765	0.392278	1.138452
C73	C	0.866144	-0.357735	0.388461
C74	C	1.116144	-0.107735	0.638461
C75	C	1.366144	0.142265	0.888461
C76	C	1.616144	0.392265	1.138461
C77	C	0.537969	-0.357740	0.388496
C78	C	0.787969	-0.107740	0.638496
C79	C	1.037969	0.142260	0.888496
C80	C	1.287969	0.392260	1.138496
C81	C	0.629277	-0.357736	0.388484
C82	C	0.879277	-0.107736	0.638484
C83	C	1.129277	0.142264	0.888484
C84	C	1.379277	0.392264	1.138484
C85	C	0.702054	-0.357738	0.388478
C86	C	0.952054	-0.107738	0.638478
C87	C	1.202054	0.142262	0.888478
C88	C	1.452054	0.392262	1.138478
C89	C	0.793368	-0.357734	0.388467
C90	C	1.043368	-0.107734	0.638467
C91	C	1.293368	0.142266	0.888467
C92	C	1.543368	0.392266	1.138467
C93	C	1.165194	-0.550684	0.388442
C94	C	1.415194	-0.300684	0.638442
C95	C	1.665194	-0.050684	0.888442
C96	C	1.915194	0.199316	1.138442
C97	C	1.165242	-0.633230	0.388455
C98	C	1.415242	-0.383230	0.638455
C99	C	1.665242	-0.133230	0.888455
C100	C	1.915242	0.116770	1.138455
C101	C	1.219198	-0.832671	0.334678
C102	C	1.469198	-0.582671	0.584678
C103	C	1.719198	-0.332671	0.834678
C104	C	1.969198	-0.082671	1.084678
C105	C	1.238896	-0.882001	0.408268
C106	C	1.488896	-0.632001	0.658268
C107	C	1.738896	-0.382001	0.908268
C108	C	1.988896	-0.132001	1.158268
C109	C	1.165287	-0.784360	0.388488
C110	C	1.415287	-0.534360	0.638488
C111	C	1.665287	-0.284360	0.888488
C112	C	1.915287	-0.034360	1.138488
C113	C	1.145672	-0.882112	0.314931
C114	C	1.395672	-0.632112	0.564931
C115	C	1.645672	-0.382112	0.814931
C116	C	1.895672	-0.132112	1.064931
C117	C	1.165333	-0.930345	0.388512
C118	C	1.415333	-0.680345	0.638512
C119	C	1.665333	-0.430345	0.888512
C120	C	1.915333	-0.180345	1.138512
C121	C	1.185022	-0.832604	0.462116
C122	C	1.435022	-0.582604	0.712116
C123	C	1.685022	-0.332604	0.962116
C124	C	1.935022	-0.082604	1.212116
C125	C	1.091765	-0.832710	0.368729
C126	C	1.341765	-0.582710	0.618729
C127	C	1.591765	-0.332710	0.868729
C128	C	1.841765	-0.082710	1.118729
C129	C	1.111434	-0.882018	0.442370
C130	C	1.361434	-0.632018	0.692370
C131	C	1.611434	-0.382018	0.942370
C132	C	1.861434	-0.132018	1.192370
C133	C	1.165263	-0.700262	0.388472
C134	C	1.415263	-0.450262	0.638472
C135	C	1.665263	-0.200262	0.888472
C136	C	1.915263	0.049738	1.138472
C137	C	1.165357	-1.014442	0.388536
C138	C	1.415357	-0.764442	0.638536
C139	C	1.665357	-0.514442	0.888536
C140	C	1.915357	-0.264442	1.138536
C141	C	1.375565	-0.357743	0.388497
C142	C	1.625565	-0.107743	0.638497
C143	C	1.875565	0.142257	0.888497
C144	C	2.125565	0.392257	1.138497
C145	C	1.465186	-0.357748	0.388507
C146	C	1.715186	-0.107748	0.638507
C147	C	1.965186	0.142252	0.888507
C148	C	2.215186	0.392252	1.138507
C149	C	1.165309	-0.357677	0.598783
C150	C	1.415309	-0.107677	0.848783
C151	C	1.665309	0.142323	1.098783
C152	C	1.915309	0.392323	1.348783
C153	C	1.165331	-0.357653	0.688405
C154	C	1.415331	-0.107653	0.938405
C155	C	1.665331	0.142347	1.188405
C156	C	1.915331	0.392347	1.438405
C157	C	1.165341	-0.164027	0.388524
C158	C	1.415341	0.085973	0.638524
C159	C	1.665341	0.335973	0.888524
C160	C	1.915341	0.585973	1.138524
C161	C	1.165376	-0.081481	0.388546
C162	C	1.415376	0.168519	0.638546
C163	C	1.665376	0.418519	0.888546
C164	C	1.915376	0.668519	1.138546
C165	C	1.165250	-0.357734	0.178984
C166	C	1.415250	-0.107734	0.428984
C167	C	1.665250	0.142266	0.678984
C168	C	1.915250	0.392266	0.928984
C169	C	1.165384	-0.357548	0.089363
C170	C	1.415384	-0.107548	0.339363
C171	C	1.665384	0.142452	0.589363
C172	C	1.915384	0.392452	0.839363
C173	C	1.165368	-0.357570	1.016580
C174	C	1.415368	-0.107570	1.266580
C175	C	1.665368	0.142430	1.516580
C176	C	1.915368	0.392430	1.766580
C177	C	1.165356	-0.357596	0.925272
C178	C	1.415356	-0.107596	1.175272
C179	C	1.665356	0.142404	1.425272
C180	C	1.915356	0.392404	1.675272
C181	C	1.165350	-0.357612	0.852495
C182	C	1.415350	-0.107612	1.102495
C183	C	1.665350	0.142388	1.352495
C184	C	1.915350	0.392388	1.602495
C185	C	1.165337	-0.357637	0.761181
C186	C	1.415337	-0.107637	1.011181
C187	C	1.665337	0.142363	1.261181
C188	C	1.915337	0.392363	1.511181
H189	H	1.264804	-0.811003	0.289221
H190	H	1.514804	-0.561003	0.539221
H191	H	1.764804	-0.311003	0.789221
H192	H	2.014804	-0.061003	1.039221
C193	C	1.322912	-0.911259	0.430866
C194	C	1.572912	-0.661259	0.680866
C195	C	1.822912	-0.411259	0.930866
C196	C	2.072912	-0.161259	1.180866
H197	H	1.361141	-0.894368	0.392574
H198	H	1.611141	-0.644368	0.642574
H199	H	1.861141	-0.394368	0.892574
H200	H	2.111141	-0.144368	1.142574
H201	H	1.337234	-0.893580	0.482758
H202	H	1.587234	-0.643580	0.732758
H203	H	1.837234	-0.393580	0.982758
H204	H	2.087234	-0.143580	1.232758
H205	H	1.322197	-0.963884	0.431188
H206	H	1.572197	-0.713884	0.681188
H207	H	1.822197	-0.463884	0.931188
H208	H	2.072197	-0.213884	1.181188
H209	H	1.065863	-0.903549	0.487938
H210	H	1.315863	-0.653549	0.737938
H211	H	1.565863	-0.403549	0.987938
H212	H	1.815863	-0.153549	1.237938
H213	H	1.029587	-0.811040	0.351980
H214	H	1.279587	-0.561040	0.601980
H215	H	1.529587	-0.311040	0.851980
H216	H	1.779587	-0.061040	1.101980
C217	C	1.123273	-0.911552	0.230901
C218	C	1.373273	-0.661552	0.480901
C219	C	1.623273	-0.411552	0.730901
C220	C	1.873273	-0.161552	0.980901
H221	H	1.075718	-0.940556	0.234514
H222	H	1.325718	-0.690556	0.484514
H223	H	1.575718	-0.440556	0.734514
H224	H	1.825718	-0.190556	0.984514
H225	H	1.114347	-0.871054	0.195546
H226	H	1.364347	-0.621054	0.445546
H227	H	1.614347	-0.371054	0.695546
H228	H	1.864347	-0.121054	0.945546
H229	H	1.165953	-0.941241	0.210811
H230	H	1.415953	-0.691241	0.460811
H231	H	1.665953	-0.441241	0.710811
H232	H	1.915953	-0.191241	0.960811
C233	C	1.207566	-0.803357	0.546187
C234	C	1.457566	-0.553357	0.796187
C235	C	1.707566	-0.303357	1.046187
C236	C	1.957566	-0.053357	1.296187
H237	H	1.207440	-0.750728	0.545658
H238	H	1.457440	-0.500728	0.795658
H239	H	1.707440	-0.250728	1.045658
H240	H	1.957440	-0.000728	1.295658
H241	H	1.169528	-0.820647	0.584450
H242	H	1.419528	-0.570647	0.834450
H243	H	1.669528	-0.320647	1.084450
H244	H	1.919528	-0.070647	1.334450
H245	H	1.259652	-0.820644	0.560311
H246	H	1.509652	-0.570644	0.810311
H247	H	1.759652	-0.320644	1.060311
H248	H	2.009652	-0.070644	1.310311
