data_functionalizedCrystal
_audit_creation_method	'MofGen! by Chris Wilmer'
_symmetry_space_group_name_H-M	'P1'
_symmetry_Int_Tables_number	1
_symmetry_cell_setting	triclinic
loop_
_symmetry_equiv_pos_as_xyz
  x,y,z
_cell_length_a	15.297475
_cell_length_b	17.640280
_cell_length_c	15.298259
_cell_angle_alpha	71.449796
_cell_angle_beta	88.370891
_cell_angle_gamma	67.467946
loop_
_atom_site_label
_atom_site_type_symbol
_atom_site_fract_x
_atom_site_fract_y
_atom_site_fract_z
Zn1	Zn	1.364895	-0.423586	-0.648284
Zn2	Zn	1.434784	-0.593367	-0.470367
Zn3	Zn	1.245917	-0.431834	-0.474981
Zn4	Zn	1.250470	-0.545615	-0.600344
O5	O	1.324017	-0.498600	-0.548494
O6	O	1.501095	-0.462640	-0.642815
O7	O	1.437073	-0.595375	-0.344055
O8	O	1.230546	-0.312068	-0.519965
O9	O	1.552441	-0.587377	-0.512100
O10	O	1.317959	-0.306008	-0.647290
O11	O	1.298314	-0.476698	-0.347446
O12	O	1.119593	-0.430395	-0.473479
O13	O	1.238306	-0.505992	-0.733627
O14	O	1.122938	-0.513990	-0.565582
O15	O	1.322373	-0.416337	-0.768848
O16	O	1.441488	-0.705704	-0.465614
O17	O	1.306074	-0.670621	-0.561108
C18	C	1.088354	-0.467907	-0.514830
C19	C	0.987538	-0.454792	-0.500446
C20	C	0.710587	-0.592338	-0.651300
C21	C	0.805311	-0.604666	-0.664811
C22	C	0.850873	-0.567199	-0.623721
C23	C	0.801700	-0.517401	-0.569117
C24	C	0.706969	-0.505076	-0.555599
C25	C	0.847254	-0.479937	-0.528020
C26	C	0.798082	-0.430139	-0.473417
C27	C	0.703359	-0.417817	-0.459902
C28	C	0.657798	-0.455285	-0.500992
C29	C	0.941986	-0.492261	-0.541538
C30	C	0.938367	-0.405000	-0.445838
C31	C	0.843643	-0.392672	-0.432327
C32	C	1.381879	-0.718932	-0.507681
C33	C	1.406710	-0.813197	-0.490263
C34	C	1.135685	-1.032059	-0.681198
C35	C	1.159024	-1.120640	-0.664803
C36	C	1.300078	-1.157094	-0.565493
C37	C	1.276752	-1.068514	-0.581883
C38	C	1.194554	-1.006003	-0.639736
C39	C	1.335622	-1.042458	-0.540421
C40	C	1.312295	-0.953886	-0.556807
C41	C	1.230099	-0.891370	-0.614654
C42	C	1.171227	-0.917430	-0.656121
C43	C	1.417816	-1.104971	-0.482564
C44	C	1.476686	-1.078915	-0.441102
C45	C	1.453363	-0.990341	-0.457492
C46	C	1.371167	-0.927825	-0.515340
C47	C	1.512235	-0.964280	-0.416025
C48	C	1.488908	-0.875708	-0.432411
C49	C	1.347840	-0.839253	-0.531725
C50	C	1.560599	-0.529415	-0.582290
C51	C	1.661417	-0.542546	-0.596692
C52	C	1.273052	-0.454918	-0.785068
C53	C	1.251333	-0.436303	-0.885881
C54	C	1.265949	-0.277408	-0.589490
C55	C	1.241203	-0.183148	-0.606960
C56	C	1.479098	-0.630995	-1.162988
C57	C	1.499500	-0.648489	-1.068267
C58	C	1.437460	-0.595444	-1.022666
C59	C	1.355015	-0.524902	-1.071795
C60	C	1.334607	-0.507410	-1.166524
C61	C	1.292969	-0.471859	-1.026202
C62	C	1.210524	-0.401316	-1.075331
C63	C	1.190120	-0.383827	-1.170050
C64	C	1.252159	-0.436872	-1.215651
C65	C	1.313377	-0.489351	-0.931473
C66	C	1.168886	-0.365766	-0.935009
C67	C	1.148484	-0.348271	-1.029730
C68	C	1.374819	-0.542059	-0.312860
C69	C	1.396650	-0.560458	-0.212116
H70	H	0.663330	-0.377279	-0.415429
H71	H	1.122981	-0.326394	-1.210046
H72	H	1.529597	-0.674182	-1.200124
Cl73	Cl	1.447167	-1.216318	-0.462002
H74	H	1.536845	-0.854494	-0.398647
H75	H	0.845342	-0.645214	-0.709266
Cl76	Cl	1.403411	-1.235686	-0.492769
Cl77	Cl	1.032354	-0.953466	-0.753938
H78	H	1.280911	-0.788352	-0.578843
Cl79	Cl	0.538708	-0.439782	-0.484015
Cl80	Cl	1.463114	-0.617435	-0.903588
H81	H	1.566621	-0.705932	-1.028270
Cl82	Cl	1.226516	-0.414880	-1.334735
H83	H	0.982013	-0.532807	-0.585998
H84	H	1.081356	-0.290835	-1.069744
H85	H	0.975463	-0.374492	-0.412378
Cl86	Cl	1.200935	-0.780009	-0.635494
Cl87	Cl	0.969955	-0.582695	-0.640710
H88	H	0.803593	-0.352126	-0.387868
H89	H	1.104298	-0.866530	-0.703238
H90	H	1.380509	-0.546783	-0.891483
H91	H	1.111088	-1.141848	-0.698583
Cl92	Cl	1.090880	-0.299086	-0.877685
Cl93	Cl	1.580019	-1.157506	-0.368378
H94	H	0.673485	-0.622845	-0.684743
Cl95	Cl	1.615561	-1.042874	-0.343293
