data_functionalizedCrystal
_audit_creation_method	'MofGen! by Chris Wilmer'
_symmetry_space_group_name_H-M	'P1'
_symmetry_Int_Tables_number	1
_symmetry_cell_setting	triclinic
loop_
_symmetry_equiv_pos_as_xyz
  x,y,z
_cell_length_a	14.044220
_cell_length_b	14.044220
_cell_length_c	13.101039
_cell_angle_alpha	93.669626
_cell_angle_beta	86.340132
_cell_angle_gamma	93.188878
loop_
_atom_site_label
_atom_site_type_symbol
_atom_site_fract_x
_atom_site_fract_y
_atom_site_fract_z
O1	O	1.281968	0.225349	-0.085100
O2	O	1.531968	0.475349	0.164900
O3	O	1.781968	0.725349	0.414900
O4	O	2.031968	0.975349	0.664900
O5	O	1.005298	0.217042	-0.085126
O6	O	1.255298	0.467042	0.164874
O7	O	1.505298	0.717042	0.414874
O8	O	1.755298	0.967042	0.664874
O9	O	1.139480	0.082860	-0.085109
O10	O	1.389480	0.332860	0.164891
O11	O	1.639480	0.582860	0.414891
O12	O	1.889480	0.832860	0.664891
O13	O	1.147786	0.359531	-0.085117
O14	O	1.397786	0.609531	0.164883
O15	O	1.647786	0.859531	0.414883
O16	O	1.897786	1.109531	0.664883
O17	O	1.129854	0.092504	0.085320
O18	O	1.379854	0.342504	0.335320
O19	O	1.629854	0.592504	0.585320
O20	O	1.879854	0.842504	0.835320
O21	O	0.995672	0.226686	0.085302
O22	O	1.245672	0.476686	0.335302
O23	O	1.495672	0.726686	0.585302
O24	O	1.745672	0.976686	0.835302
O25	O	1.272342	0.234994	0.085329
O26	O	1.522342	0.484994	0.335329
O27	O	1.772342	0.734994	0.585329
O28	O	2.022342	0.984994	0.835329
Zn29	Zn	1.132479	0.232371	0.112375
Zn30	Zn	1.382479	0.482371	0.362375
Zn31	Zn	1.632479	0.732371	0.612375
Zn32	Zn	1.882479	0.982371	0.862375
Zn33	Zn	1.145161	0.219664	-0.112172
Zn34	Zn	1.395161	0.469664	0.137828
Zn35	Zn	1.645161	0.719664	0.387828
Zn36	Zn	1.895161	0.969664	0.637828
O37	O	1.138160	0.369176	0.085311
O38	O	1.388160	0.619176	0.335311
O39	O	1.638160	0.869176	0.585311
O40	O	1.888160	1.119176	0.835311
C41	C	0.964863	0.218228	0.000085
C42	C	1.214863	0.468228	0.250085
C43	C	1.464863	0.718228	0.500085
C44	C	1.714863	0.968228	0.750085
C45	C	0.858721	0.207383	0.000075
C46	C	1.108721	0.457383	0.250075
C47	C	1.358721	0.707383	0.500075
C48	C	1.608721	0.957383	0.750075
C49	C	1.146609	0.399975	0.000096
C50	C	1.396609	0.649975	0.250096
C51	C	1.646609	0.899975	0.500096
C52	C	1.896609	1.149975	0.750096
C53	C	1.157454	0.506117	0.000093
C54	C	1.407454	0.756117	0.250093
C55	C	1.657454	1.006117	0.500093
C56	C	1.907454	1.256117	0.750093
C57	C	1.131031	0.052060	0.000104
C58	C	1.381031	0.302060	0.250104
C59	C	1.631031	0.552060	0.500104
C60	C	1.881031	0.802060	0.750104
C61	C	1.120187	-0.054083	0.000100
C62	C	1.370187	0.195917	0.250100
C63	C	1.620187	0.445917	0.500100
C64	C	1.870187	0.695917	0.750100
C65	C	0.664382	0.187558	0.000096
C66	C	0.914382	0.437558	0.250096
C67	C	1.164382	0.687558	0.500096
C68	C	1.414382	0.937558	0.750096
C69	C	0.613252	0.264472	0.000098
C70	C	0.863252	0.514472	0.250098
C71	C	1.113252	0.764472	0.500098
C72	C	1.363252	1.014472	0.750098
C73	C	0.505115	0.253442	0.000109
C74	C	0.755115	0.503442	0.250109
C75	C	1.005115	0.753442	0.500109
C76	C	1.255115	1.003442	0.750109
C77	C	0.772529	0.198587	0.000084
C78	C	1.022529	0.448587	0.250084
C79	C	1.272529	0.698587	0.500084
C80	C	1.522529	0.948587	0.750084
C81	C	1.312777	0.233807	0.000115
C82	C	1.562777	0.483807	0.250115
C83	C	1.812777	0.733807	0.500115
C84	C	2.062777	0.983807	0.750115
C85	C	1.418919	0.244652	0.000119
C86	C	1.668919	0.494652	0.250119
C87	C	1.918919	0.744652	0.500119
C88	C	2.168919	0.994652	0.750119
N89	N	1.123830	0.241044	0.265622
N90	N	1.373830	0.491044	0.515622
N91	N	1.623830	0.741044	0.765622
N92	N	1.873830	0.991044	1.015622
C93	C	1.177279	0.700456	0.000100
C94	C	1.427279	0.950456	0.250100
C95	C	1.677279	1.200456	0.500100
C96	C	1.927279	1.450456	0.750100
C97	C	1.100365	0.751585	0.000094
C98	C	1.350365	1.001585	0.250094
C99	C	1.600365	1.251585	0.500094
C100	C	1.850365	1.501585	0.750094
C101	C	1.111397	0.859721	0.000097
C102	C	1.361397	1.109721	0.250097
C103	C	1.611397	1.359721	0.500097
C104	C	1.861397	1.609721	0.750097
C105	C	1.166249	0.592309	0.000096
C106	C	1.416249	0.842309	0.250096
C107	C	1.666249	1.092309	0.500096
C108	C	1.916249	1.342309	0.750096
N109	N	1.153817	0.210984	-0.265420
N110	N	1.403817	0.460984	-0.015420
N111	N	1.653817	0.710984	0.234580
N112	N	1.903817	0.960984	0.484580
C113	C	1.112064	0.252852	0.474663
C114	C	1.362064	0.502852	0.724663
C115	C	1.612064	0.752852	0.974663
C116	C	1.862064	1.002852	1.224663
C117	C	1.165580	0.199179	0.525546
C118	C	1.415580	0.449179	0.775546
C119	C	1.665580	0.699179	1.025546
C120	C	1.915580	0.949179	1.275546
C121	C	1.159033	0.205749	0.641863
C122	C	1.409033	0.455749	0.891863
C123	C	1.659033	0.705749	1.141863
C124	C	1.909033	0.955749	1.391863
C125	C	1.118610	0.246283	0.358335
C126	C	1.368610	0.496283	0.608335
C127	C	1.618610	0.746283	0.858335
C128	C	1.868610	0.996283	1.108335
H129	H	0.650692	0.338606	0.000091
H130	H	0.900692	0.588606	0.250091
H131	H	1.150692	0.838606	0.500091
H132	H	1.400692	1.088606	0.750091
N133	N	1.232790	0.131786	0.467535
N134	N	1.482790	0.381786	0.717535
N135	N	1.732790	0.631786	0.967535
N136	N	1.982790	0.881786	1.217535
H137	H	1.300466	0.149475	0.486143
H138	H	1.550466	0.399475	0.736143
H139	H	1.800466	0.649475	0.986143
H140	H	2.050466	0.899475	1.236143
H141	H	1.214849	0.064169	0.486160
H142	H	1.464849	0.314169	0.736160
H143	H	1.714849	0.564169	0.986160
H144	H	1.964849	0.814169	1.236160
H145	H	0.626945	0.113431	0.000104
H146	H	0.876945	0.363431	0.250104
H147	H	1.126945	0.613431	0.500104
H148	H	1.376945	0.863431	0.750104
H149	H	1.026232	0.714145	0.000087
H150	H	1.276232	0.964145	0.250087
H151	H	1.526232	1.214145	0.500087
H152	H	1.776232	1.464145	0.750087
H153	H	1.061335	0.303734	0.518454
H154	H	1.311335	0.553734	0.768454
H155	H	1.561335	0.803734	1.018454
H156	H	1.811335	1.053734	1.268454
N157	N	1.275472	0.750039	0.000129
N158	N	1.525472	1.000039	0.250129
N159	N	1.775472	1.250039	0.500129
N160	N	2.025472	1.500039	0.750129
H161	H	1.269531	0.821380	0.000138
H162	H	1.519531	1.071380	0.250138
H163	H	1.769531	1.321380	0.500138
H164	H	2.019531	1.571380	0.750138
H165	H	1.307698	0.734475	0.063321
H166	H	1.557698	0.984475	0.313321
H167	H	1.807698	1.234475	0.563321
H168	H	2.057698	1.484475	0.813321
