data_functionalizedCrystal
_audit_creation_method	'MofGen! by Chris Wilmer'
_symmetry_space_group_name_H-M	'P1'
_symmetry_Int_Tables_number	1
_symmetry_cell_setting	triclinic
loop_
_symmetry_equiv_pos_as_xyz
  x,y,z
_cell_length_a	16.120530
_cell_length_b	19.120786
_cell_length_c	16.120297
_cell_angle_alpha	89.693695
_cell_angle_beta	89.871860
_cell_angle_gamma	89.436752
loop_
_atom_site_label
_atom_site_type_symbol
_atom_site_fract_x
_atom_site_fract_y
_atom_site_fract_z
Zn1	Zn	1.230439	-0.354318	0.515736
Zn2	Zn	1.232048	-0.465652	0.370762
Zn3	Zn	1.098996	-0.342500	0.370282
Zn4	Zn	1.086035	-0.465008	0.502765
O5	O	1.161880	-0.406870	0.439886
O6	O	1.346768	-0.374302	0.502134
O7	O	1.220496	-0.444639	0.254581
O8	O	1.121184	-0.246204	0.394804
O9	O	1.347950	-0.456099	0.395622
O10	O	1.217754	-0.254887	0.501668
O11	O	1.122744	-0.354160	0.254229
O12	O	0.981161	-0.353536	0.382227
O13	O	1.099093	-0.455001	0.620603
O14	O	0.971638	-0.443542	0.479562
O15	O	1.205186	-0.373678	0.630132
O16	O	1.207928	-0.563430	0.383045
O17	O	1.100653	-0.562957	0.480027
C18	C	0.946292	-0.397187	0.429435
C19	C	0.854061	-0.393062	0.424983
C20	C	0.685193	-0.385516	0.416863
C21	C	0.639400	-0.428278	0.462967
C22	C	0.545437	-0.424079	0.458449
C23	C	0.779166	-0.389714	0.421380
C24	C	1.153080	-0.588570	0.430200
C25	C	1.149390	-0.666307	0.426087
C26	C	1.197893	-0.707288	0.479835
C27	C	1.194422	-0.780330	0.475973
C28	C	1.142452	-0.812390	0.418357
C29	C	1.093943	-0.771403	0.364607
C30	C	1.097410	-0.698363	0.368475
C31	C	1.129467	-1.032702	0.403899
C32	C	1.126006	-1.105748	0.400034
C33	C	1.226484	-1.114670	0.511400
C34	C	1.229950	-1.041628	0.515259
C35	C	1.181438	-1.000648	0.461512
C36	C	1.138905	-0.887050	0.414406
C37	C	1.184981	-0.925989	0.465468
C38	C	1.378309	-0.416591	0.450378
C39	C	1.470538	-0.420733	0.454849
C40	C	1.150514	-0.415586	0.656317
C41	C	1.145671	-0.419300	0.748547
C42	C	1.170735	-0.224461	0.449629
C43	C	1.174509	-0.146729	0.453781
C44	C	1.173251	-0.398139	0.224302
C45	C	1.178264	-0.394235	0.132091
C46	C	1.136799	-0.426065	0.917412
C47	C	1.187134	-0.387472	0.963231
C48	C	1.182197	-0.391236	1.057193
C49	C	1.141734	-0.422302	0.823441
H50	H	0.653831	-0.345756	0.374001
F51	F	1.038624	-0.805525	0.303296
H52	H	1.240217	-0.681191	0.526748
H53	H	0.670765	-0.468040	0.505833
F54	F	1.075632	-0.472944	0.958375
F55	F	1.285263	-1.007513	0.576582
F56	F	1.246037	-0.823943	0.533187
F57	F	1.278108	-1.158289	0.568600
F58	F	1.070692	-1.139866	0.338707
F59	F	1.248321	-0.340604	0.922268
H60	H	1.057912	-0.664996	0.324709
F61	F	1.240285	-0.891867	0.526789
F62	F	1.077829	-0.989097	0.346701
H63	H	1.096593	-0.913161	0.367493
