data_functionalizedCrystal
_audit_creation_method	'MofGen! by Chris Wilmer'
_symmetry_space_group_name_H-M	'P1'
_symmetry_Int_Tables_number	1
_symmetry_cell_setting	triclinic
loop_
_symmetry_equiv_pos_as_xyz
  x,y,z
_cell_length_a	16.109302
_cell_length_b	10.723024
_cell_length_c	14.586319
_cell_angle_alpha	89.997376
_cell_angle_beta	89.994552
_cell_angle_gamma	83.964825
loop_
_atom_site_label
_atom_site_type_symbol
_atom_site_fract_x
_atom_site_fract_y
_atom_site_fract_z
O1	O	1.104074	0.160395	-0.076279
O2	O	1.604074	0.660395	0.423721
O3	O	0.862130	0.180354	-0.076272
O4	O	1.362130	0.680354	0.423728
O5	O	0.988683	-0.011275	-0.076272
O6	O	1.488683	0.488725	0.423728
O7	O	0.977521	0.352025	-0.076279
O8	O	1.477521	0.852025	0.423721
O9	O	0.988674	-0.011278	0.076209
O10	O	1.488674	0.488722	0.576209
O11	O	0.862121	0.180352	0.076209
O12	O	1.362121	0.680352	0.576209
O13	O	1.104065	0.160392	0.076202
O14	O	1.604065	0.660392	0.576202
Cu15	Cu	0.983092	0.170372	0.090128
Cu16	Cu	1.483092	0.670372	0.590128
Cu17	Cu	0.983103	0.170375	-0.090198
Cu18	Cu	1.483103	0.670375	0.409802
O19	O	0.977512	0.352022	0.076202
O20	O	1.477512	0.852022	0.576202
C21	C	0.831146	0.179544	-0.000030
C22	C	1.331146	0.679544	0.499970
C23	C	0.738836	0.177120	-0.000028
C24	C	1.238836	0.677120	0.499972
C25	C	0.526457	0.171513	0.083081
C26	C	1.026457	0.671513	0.583081
C27	C	0.439724	0.169221	0.083078
C28	C	0.939724	0.669221	0.583078
C29	C	0.439744	0.169231	-0.083165
C30	C	0.939744	0.669231	0.416835
C31	C	0.526477	0.171513	-0.083161
C32	C	1.026477	0.671513	0.416839
C33	C	0.569831	0.172660	-0.000035
C34	C	1.069831	0.672660	0.499965
C35	C	0.396364	0.168086	-0.000043
C36	C	0.896364	0.668086	0.499957
C37	C	0.302324	0.165602	-0.000047
C38	C	0.802324	0.665602	0.499953
C39	C	0.663877	0.175142	-0.000031
C40	C	1.163877	0.675142	0.499969
C41	C	0.987866	-0.057766	-0.000033
C42	C	1.487866	0.442234	0.499967
C43	C	0.985436	-0.196288	-0.000036
C44	C	1.485436	0.303712	0.499964
C45	C	1.056248	-0.272209	-0.000040
C46	C	1.556248	0.227791	0.499960
C47	C	1.053738	-0.415379	-0.000043
C48	C	1.553738	0.084621	0.499957
C49	C	1.135049	0.161202	-0.000042
C50	C	1.635049	0.661202	0.499958
C51	C	1.227359	0.163627	-0.000051
C52	C	1.727359	0.663627	0.499949
C53	C	0.978329	0.398512	-0.000039
C54	C	1.478329	0.898512	0.499961
C55	C	0.980759	0.537034	-0.000042
C56	C	1.480759	1.037034	0.499958
N57	N	0.983091	0.170369	0.216960
N58	N	1.483091	0.670369	0.716960
N59	N	0.983111	0.170368	-0.217030
N60	N	1.483111	0.670368	0.282970
C61	C	1.039147	0.085543	0.451966
C62	C	1.539147	0.585543	0.951966
C63	C	1.039150	0.085540	0.547947
C64	C	1.539150	0.585540	1.047947
C65	C	0.927048	0.255198	0.547957
C66	C	1.427048	0.755198	1.047957
C67	C	0.927042	0.255194	0.451978
C68	C	1.427042	0.755194	0.951978
C69	C	0.983097	0.170368	0.403985
C70	C	1.483097	0.670368	0.903985
C71	C	0.983105	0.170369	0.595945
C72	C	1.483105	0.670369	1.095945
C73	C	0.983107	0.170366	0.700012
C74	C	1.483107	0.670366	1.200012
C75	C	0.983094	0.170369	0.299911
C76	C	1.483094	0.670369	0.799911
H77	H	0.404413	0.168287	0.150759
H78	H	0.904413	0.668287	0.650759
H79	H	1.118732	-0.231215	-0.000036
H80	H	1.618732	0.268785	0.499964
H81	H	0.922953	-0.237282	-0.000040
H82	H	1.422953	0.262718	0.499960
H83	H	0.561754	0.172447	0.150767
H84	H	1.061754	0.672447	0.650767
N85	N	1.099613	-0.005939	0.599696
N86	N	1.599613	0.494061	1.099696
H87	H	1.091113	0.006928	0.667782
H88	H	1.591113	0.506928	1.167782
H89	H	1.089509	-0.094468	0.582924
H90	H	1.589509	0.405532	1.082924
N91	N	1.099583	-0.005976	0.400203
N92	N	1.599583	0.494024	0.900203
H93	H	1.091073	0.006885	0.332119
H94	H	1.591073	0.506885	0.832119
H95	H	1.158649	0.008442	0.416962
H96	H	1.658649	0.508442	0.916962
N97	N	0.866592	0.346685	0.599721
N98	N	1.366592	0.846685	1.099721
H99	H	0.875101	0.333820	0.667805
H100	H	1.375101	0.833820	1.167805
H101	H	0.876698	0.435211	0.582936
H102	H	1.376698	0.935211	1.082936
N103	N	0.866578	0.346677	0.400218
N104	N	1.366578	0.846677	0.900218
H105	H	0.831072	0.400419	0.445184
H106	H	1.331072	0.900419	0.945184
H107	H	0.898714	0.401854	0.360382
H108	H	1.398714	0.901854	0.860382
H109	H	1.114359	-0.480615	-0.000042
H110	H	1.614359	0.019385	0.499958
N111	N	0.392984	0.167991	-0.172819
N112	N	0.892984	0.667991	0.327181
H113	H	0.331457	0.166373	-0.160211
H114	H	0.831457	0.666373	0.339789
H115	H	0.401849	0.245700	-0.209117
H116	H	0.901849	0.745700	0.290883
N117	N	0.573267	0.172736	-0.172812
N118	N	1.073267	0.672736	0.327188
H119	H	0.532642	0.171669	-0.225473
H120	H	1.032642	0.671669	0.274527
H121	H	0.602957	0.250988	-0.176433
H122	H	1.102957	0.750988	0.323567
H123	H	0.920135	-0.397737	-0.000033
H124	H	1.420135	0.102263	0.499967
