data_functionalizedCrystal
_audit_creation_method	'MofGen! by Chris Wilmer'
_symmetry_space_group_name_H-M	'P1'
_symmetry_Int_Tables_number	1
_symmetry_cell_setting	triclinic
loop_
_symmetry_equiv_pos_as_xyz
  x,y,z
_cell_length_a	10.967926
_cell_length_b	11.792254
_cell_length_c	9.482900
_cell_angle_alpha	99.398945
_cell_angle_beta	92.549900
_cell_angle_gamma	84.460570
loop_
_atom_site_label
_atom_site_type_symbol
_atom_site_fract_x
_atom_site_fract_y
_atom_site_fract_z
O1	O	1.611521	0.200404	0.282842
O2	O	1.262324	0.202894	0.195354
O3	O	1.445387	0.036809	0.241229
O4	O	1.428458	0.366489	0.236967
O5	O	1.408203	0.070687	0.473704
O6	O	1.225140	0.236771	0.427829
O7	O	1.574338	0.234282	0.515317
Cu8	Cu	1.396344	0.238620	0.492799
Cu9	Cu	1.440317	0.198556	0.217871
O10	O	1.391274	0.400366	0.469442
C11	C	1.199027	0.217091	0.300391
C12	C	1.065820	0.208911	0.267017
C13	C	0.987170	0.222813	0.372567
C14	C	0.849493	0.214358	0.338076
C15	C	1.425729	0.011416	0.357199
C16	C	1.422536	-0.114721	0.356398
C17	C	1.419943	-0.217159	0.355743
C18	C	1.416702	-0.345673	0.354917
C19	C	1.637635	0.220083	0.410277
C20	C	1.770843	0.228263	0.443641
C21	C	1.410933	0.425759	0.353469
C22	C	1.414127	0.551895	0.354261
N23	N	1.365424	0.266798	0.686171
N24	N	1.471247	0.170368	0.024502
C25	C	1.431189	0.206861	0.774851
C26	C	1.405472	0.230315	0.935824
H27	H	0.805427	0.246422	0.559549
H28	H	1.506528	0.138177	0.731603
O29	O	1.024691	0.187392	0.128685
C30	C	1.007777	0.251195	-0.100762
C31	C	1.054440	0.275688	0.055856
H32	H	1.031788	0.322579	-0.159683
H33	H	1.052808	0.164721	-0.154616
H34	H	0.904099	0.248187	-0.103904
H35	H	1.158108	0.278755	0.059127
H36	H	1.009317	0.362142	0.109642
H37	H	1.330120	0.298994	0.979065
H38	H	0.814908	0.196193	0.222170
O39	O	1.560907	0.088288	0.972646
C40	C	1.667887	-0.010316	0.764824
C41	C	1.566480	0.082831	0.823402
H42	H	1.672408	-0.014776	0.644150
H43	H	1.759798	0.012370	0.817344
H44	H	1.646468	-0.097567	0.789615
H45	H	1.587782	0.170117	0.798627
H46	H	1.474600	0.060045	0.770883
O47	O	1.275380	0.348604	0.737651
C48	C	1.060177	0.412818	0.730571
C49	C	1.162030	0.320077	0.672181
H50	H	0.968513	0.389800	0.677641
H51	H	1.055343	0.417133	0.851195
H52	H	1.081295	0.500234	0.706033
H53	H	1.140984	0.232613	0.696615
H54	H	1.166840	0.315864	0.551571
H55	H	1.021761	0.240968	0.488466
