data_functionalizedCrystal
_audit_creation_method	'MofGen! by Chris Wilmer'
_symmetry_space_group_name_H-M	'P1'
_symmetry_Int_Tables_number	1
_symmetry_cell_setting	triclinic
loop_
_symmetry_equiv_pos_as_xyz
  x,y,z
_cell_length_a	11.169417
_cell_length_b	11.169416
_cell_length_c	11.169409
_cell_angle_alpha	90.030874
_cell_angle_beta	89.980176
_cell_angle_gamma	89.988781
loop_
_atom_site_label
_atom_site_type_symbol
_atom_site_fract_x
_atom_site_fract_y
_atom_site_fract_z
Zn1	Zn	1.834962	0.477682	-0.678555
Zn2	Zn	1.834852	0.678422	-0.477877
Zn3	Zn	1.634248	0.477755	-0.477889
Zn4	Zn	1.634256	0.678325	-0.678522
O5	O	1.734579	0.578046	-0.578211
O6	O	2.002897	0.504321	-0.651943
O7	O	1.808192	0.651875	-0.309929
O8	O	1.660917	0.309796	-0.504527
O9	O	2.002816	0.651804	-0.504506
O10	O	1.808380	0.309742	-0.651955
O11	O	1.660809	0.504445	-0.309938
O12	O	1.466300	0.504351	-0.504495
O13	O	1.660929	0.651637	-0.846476
O14	O	1.466305	0.651708	-0.651899
O15	O	1.808388	0.504226	-0.846500
O16	O	1.808199	0.846359	-0.504474
O17	O	1.660822	0.846287	-0.651887
C18	C	1.422755	0.578028	-0.578195
C19	C	1.289355	0.578049	-0.578217
C20	C	1.734532	0.889871	-0.578202
C21	C	1.734621	1.023271	-0.578238
C22	C	1.734660	0.265004	-0.578246
C23	C	1.734694	0.131604	-0.578261
C24	C	2.047622	0.578065	-0.578227
C25	C	2.181022	0.578073	-0.578234
C26	C	1.734672	0.577913	-0.891253
C27	C	1.734711	0.577856	-1.024653
C28	C	1.734557	0.578092	-0.266386
C29	C	1.734750	0.577811	-0.132987
