data_functionalizedCrystal
_audit_creation_method	'MofGen! by Chris Wilmer'
_symmetry_space_group_name_H-M	'P1'
_symmetry_Int_Tables_number	1
_symmetry_cell_setting	triclinic
loop_
_symmetry_equiv_pos_as_xyz
  x,y,z
_cell_length_a	8.559649
_cell_length_b	13.596369
_cell_length_c	8.559649
_cell_angle_alpha	89.995606
_cell_angle_beta	69.778664
_cell_angle_gamma	89.994083
loop_
_atom_site_label
_atom_site_type_symbol
_atom_site_fract_x
_atom_site_fract_y
_atom_site_fract_z
O1	O	-2.126883	0.081792	0.055032
O2	O	-1.626883	0.581792	0.555032
O3	O	-1.651398	0.081792	-0.028749
O4	O	-1.151398	0.581792	0.471251
O5	O	-1.931031	0.081791	0.250884
O6	O	-1.431031	0.581791	0.750884
O7	O	-1.847250	0.081793	-0.224601
O8	O	-1.347250	0.581793	0.275399
O9	O	-1.931008	-0.081792	0.250894
O10	O	-1.431008	0.418208	0.750894
O11	O	-1.651375	-0.081791	-0.028739
O12	O	-1.151375	0.418209	0.471261
O13	O	-2.126860	-0.081791	0.055043
O14	O	-1.626860	0.418209	0.555043
Zn15	Zn	-1.889113	-0.107763	0.013154
Zn16	Zn	-1.389113	0.392237	0.513154
Zn17	Zn	-1.889144	0.107765	0.013140
Zn18	Zn	-1.389144	0.607765	0.513140
O19	O	-1.847227	-0.081790	-0.224590
O20	O	-1.347227	0.418210	0.275410
C21	C	-1.591077	0.000001	-0.035093
C22	C	-1.091077	0.500001	0.464907
C23	C	-1.411378	0.000001	-0.053992
C24	C	-0.911378	0.500001	0.446008
N25	N	-1.889105	-0.254855	0.013165
N26	N	-1.389105	0.245145	0.513165
C27	C	-1.889142	-0.656146	0.013138
C28	C	-1.389142	-0.156146	0.513138
C29	C	-1.889126	-0.544494	0.013140
C30	C	-1.389126	-0.044494	0.513140
C31	C	-1.889124	-0.455504	0.013151
C32	C	-1.389124	0.044496	0.513151
C33	C	-1.889107	-0.343845	0.013154
C34	C	-1.389107	0.156155	0.513154
C35	C	-1.187180	0.000001	0.061387
C36	C	-0.687180	0.500001	0.561387
C37	C	-1.366879	0.000001	0.080286
C38	C	-0.866879	0.500001	0.580286
C39	C	-1.937369	0.000002	0.311198
C40	C	-1.437369	0.500002	0.811198
C41	C	-1.956268	0.000007	0.490898
C42	C	-1.456268	0.500007	0.990898
N43	N	-1.889167	0.254856	0.013143
N44	N	-1.389167	0.754856	0.513143
C45	C	-1.840889	0.000002	-0.284904
C46	C	-1.340889	0.500002	0.215096
C47	C	-1.821990	0.000003	-0.464604
C48	C	-1.321990	0.500003	0.035396
H49	H	-1.311990	0.000006	-0.183420
H50	H	-0.811990	0.500006	0.316580
N51	N	-2.127709	0.000002	0.622544
N52	N	-1.627709	0.500002	1.122544
H53	H	-2.190324	0.060644	0.609638
H54	H	-1.690324	0.560644	1.109638
H55	H	-2.190168	-0.060677	0.609559
H56	H	-1.690168	0.439323	1.109559
H57	H	-1.692570	0.000000	0.436018
H58	H	-1.192570	0.500000	0.936018
H59	H	-1.466258	0.000006	0.209705
H60	H	-0.966258	0.500006	0.709705
