data_functionalizedCrystal
_audit_creation_method	'MofGen! by Chris Wilmer'
_symmetry_space_group_name_H-M	'P1'
_symmetry_Int_Tables_number	1
_symmetry_cell_setting	triclinic
loop_
_symmetry_equiv_pos_as_xyz
  x,y,z
_cell_length_a	21.295417
_cell_length_b	12.759401
_cell_length_c	12.759393
_cell_angle_alpha	89.980198
_cell_angle_beta	89.961905
_cell_angle_gamma	90.029593
loop_
_atom_site_label
_atom_site_type_symbol
_atom_site_fract_x
_atom_site_fract_y
_atom_site_fract_z
Zn1	Zn	-0.250594	1.606151	-0.593933
Zn2	Zn	0.249406	2.106151	-0.093933
Zn3	Zn	-0.355876	1.605994	-0.418230
Zn4	Zn	0.144124	2.105994	0.081770
Zn5	Zn	-0.250623	1.430450	-0.418271
Zn6	Zn	0.249377	1.930450	0.081729
Zn7	Zn	-0.355828	1.430393	-0.593870
Zn8	Zn	0.144172	1.930393	-0.093870
O9	O	-0.303230	1.518247	-0.506076
O10	O	0.196770	2.018247	-0.006076
O11	O	-0.264568	1.753151	-0.570634
O12	O	0.235432	2.253151	-0.070634
O13	O	-0.341947	1.582665	-0.271214
O14	O	0.158053	2.082665	0.228786
O15	O	-0.162530	1.453846	-0.441617
O16	O	0.337470	1.953846	0.058383
O17	O	-0.341918	1.753035	-0.441546
O18	O	0.158082	2.253035	0.058454
O19	O	-0.162509	1.582933	-0.570675
O20	O	0.337491	2.082933	-0.070675
O21	O	-0.264618	1.453694	-0.271245
O22	O	0.235382	1.953694	0.228755
O23	O	-0.264571	1.283421	-0.441556
O24	O	0.235429	1.783421	0.058444
O25	O	-0.341836	1.453750	-0.740900
O26	O	0.158164	1.953750	-0.240900
O27	O	-0.341864	1.283380	-0.570568
O28	O	0.158136	1.783380	-0.070568
O29	O	-0.264521	1.582878	-0.740946
O30	O	0.235479	2.082878	-0.240946
O31	O	-0.443959	1.582610	-0.441485
O32	O	0.056041	2.082610	0.058515
O33	O	-0.443924	1.453597	-0.570527
O34	O	0.056076	1.953597	-0.070527
C35	C	-0.303216	1.245279	-0.506061
C36	C	0.196784	1.745279	-0.006061
C37	C	-0.303225	1.128503	-0.506079
C38	C	0.196775	1.628503	-0.006079
C39	C	-0.466782	1.518109	-0.506018
C40	C	0.033218	2.018109	-0.006018
C41	C	-0.536750	1.518146	-0.506028
C42	C	-0.036750	2.018146	-0.006028
C43	C	-0.263036	0.963965	-0.573406
C44	C	0.236964	1.463965	-0.073406
C45	C	-0.263023	1.073689	-0.573399
C46	C	0.236977	1.573689	-0.073399
C47	C	-0.343445	1.073587	-0.438769
C48	C	0.156555	1.573587	0.061231
C49	C	-0.343460	0.963865	-0.438782
C50	C	0.156540	1.463865	0.061218
C51	C	-0.569614	1.585383	-0.438904
C52	C	-0.069614	2.085383	0.061096
C53	C	-0.635357	1.585432	-0.438928
C54	C	-0.135357	2.085432	0.061072
C55	C	-0.668233	1.518226	-0.506064
C56	C	-0.168233	2.018226	-0.006064
C57	C	-0.635360	1.450985	-0.573201
C58	C	-0.135360	1.950985	-0.073201
C59	C	-0.569619	1.450945	-0.573183
C60	C	-0.069619	1.950945	-0.073183
N61	N	-0.771497	1.426319	-0.514068
N62	N	-0.271497	1.926319	-0.014068
N63	N	-0.833948	1.426360	-0.514080
N64	N	-0.333948	1.926360	-0.014080
C65	C	-0.866307	1.518344	-0.506124
C66	C	-0.366307	2.018344	-0.006124
N67	N	-0.833855	1.610287	-0.498137
N68	N	-0.333855	2.110287	0.001863
N69	N	-0.771398	1.610245	-0.498121
N70	N	-0.271398	2.110245	0.001879
C71	C	-0.739518	1.518262	-0.506092
C72	C	-0.239518	2.018262	-0.006092
C73	C	-0.970457	1.585639	-0.439023
C74	C	-0.470457	2.085639	0.060977
C75	C	-1.036201	1.585690	-0.439054
C76	C	-0.536201	2.085690	0.060946
C77	C	-1.036203	1.451233	-0.573321
C78	C	-0.536203	1.951233	-0.073321
C79	C	-0.970460	1.451192	-0.573296
C80	C	-0.470460	1.951192	-0.073296
C81	C	-0.937591	1.518393	-0.506141
C82	C	-0.437591	2.018393	-0.006141
C83	C	-0.139040	1.518414	-0.506157
C84	C	0.360960	2.018414	-0.006157
C85	C	-0.069072	1.518485	-0.506192
C86	C	0.430928	2.018485	-0.006192
C87	C	-0.303170	1.518325	-0.780109
C88	C	0.196830	2.018325	-0.280109
C89	C	-0.303144	1.518359	-0.896886
C90	C	0.196856	2.018359	-0.396886
C91	C	-0.303245	1.792280	-0.506092
C92	C	0.196755	2.292280	-0.006092
C93	C	-0.303252	1.909057	-0.506099
C94	C	0.196748	2.409057	-0.006099
C95	C	-0.262880	1.585601	-0.951774
C96	C	0.237120	2.085601	-0.451774
C97	C	-0.262853	1.585619	-1.061498
C98	C	0.237147	2.085619	-0.561498
C99	C	-0.343359	1.451149	-1.061437
C100	C	0.156641	1.951149	-0.561437
C101	C	-0.343383	1.451127	-0.951715
C102	C	0.156617	1.951127	-0.451715
C103	C	-0.303245	1.518229	-0.233109
C104	C	0.196755	2.018229	0.266891
C105	C	-0.303093	1.518399	-0.116332
C106	C	0.196907	2.018399	0.383668
H107	H	-0.230295	0.919343	-0.628220
H108	H	0.269705	1.419343	-0.128220
H109	H	-0.376180	1.118226	-0.383959
H110	H	0.123820	1.618226	0.116041
H111	H	-0.376213	0.919158	-0.383971
H112	H	0.123787	1.419158	0.116029
C113	C	-0.428081	1.436416	-0.828265
C114	C	0.071919	1.936416	-0.328265
C115	C	-0.387645	1.377211	-0.891370
C116	C	0.112355	1.877211	-0.391370
H117	H	-0.455400	1.390782	-0.791007
H118	H	0.044600	1.890782	-0.291007
H119	H	-0.452155	1.482161	-0.871063
H120	H	0.047845	1.982161	-0.371063
H121	H	-0.404110	1.476445	-0.779916
H122	H	0.095890	1.976445	-0.279916
H123	H	-0.411616	1.337188	-0.939725
H124	H	0.088384	1.837188	-0.439725
H125	H	-0.363568	1.331448	-0.848569
H126	H	0.136432	1.831448	-0.348569
H127	H	-0.542854	1.640105	-0.384226
H128	H	-0.042854	2.140105	0.115774
C129	C	-0.709245	1.726779	-0.424423
C130	C	-0.209245	2.226779	0.075577
C131	C	-0.671499	1.659315	-0.365122
C132	C	-0.171499	2.159315	0.134878
H133	H	-0.731555	1.772385	-0.378851
H134	H	-0.231555	2.272385	0.121149
H135	H	-0.738220	1.686760	-0.464419
H136	H	-0.238220	2.186760	0.035581
H137	H	-0.683555	1.766957	-0.470203
H138	H	-0.183555	2.266957	0.029797
H139	H	-0.697190	1.619130	-0.319347
H140	H	-0.197190	2.119130	0.180653
H141	H	-0.642521	1.699337	-0.325108
H142	H	-0.142521	2.199337	0.174892
C143	C	-0.736139	1.391335	-0.632832
C144	C	-0.236139	1.891335	-0.132832
C145	C	-0.671495	1.377107	-0.646996
C146	C	-0.171495	1.877107	-0.146996
H147	H	-0.758445	1.345721	-0.678391
H148	H	-0.258445	1.845721	-0.178391
H149	H	-0.746866	1.461915	-0.648274
H150	H	-0.246866	1.961915	-0.148274
H151	H	-0.746948	1.375999	-0.562228
H152	H	-0.246948	1.875999	-0.062228
H153	H	-0.660685	1.392450	-0.717599
H154	H	-0.160685	1.892450	-0.217599
H155	H	-0.660764	1.306511	-0.631561
H156	H	-0.160764	1.806511	-0.131561
C157	C	-0.428009	1.436490	-1.184778
C158	C	0.071991	1.936490	-0.684778
C159	C	-0.387594	1.377259	-1.121708
C160	C	0.112406	1.877259	-0.621708
H161	H	-0.455321	1.390871	-1.221980
H162	H	0.044679	1.890871	-0.721980
H163	H	-0.404026	1.476530	-1.233168
H164	H	0.095974	1.976530	-0.733168
H165	H	-0.452097	1.482226	-1.141955
H166	H	0.047903	1.982226	-0.641955
H167	H	-0.363502	1.331528	-1.164532
H168	H	0.136498	1.831528	-0.664532
H169	H	-0.411580	1.337201	-1.073313
H170	H	0.088420	1.837201	-0.573313
H171	H	-0.542860	1.396192	-0.627844
H172	H	-0.042860	1.896192	-0.127844
C173	C	-0.227295	1.241926	-0.633169
C174	C	0.272705	1.741926	-0.133169
C175	C	-0.218816	1.134045	-0.647385
C176	C	0.281184	1.634045	-0.147385
H177	H	-0.200005	1.279185	-0.678853
H178	H	0.299995	1.779185	-0.178853
H179	H	-0.218029	1.259879	-0.562614
H180	H	0.281971	1.759879	-0.062614
H181	H	-0.269601	1.259881	-0.648415
H182	H	0.230399	1.759881	-0.148415
H183	H	-0.176512	1.116089	-0.632131
H184	H	0.323488	1.616089	-0.132131
H185	H	-0.228078	1.116085	-0.717956
H186	H	0.271922	1.616085	-0.217956
C187	C	-0.977056	1.718549	-0.306311
C188	C	-0.477056	2.218549	0.193689
C189	C	-0.934322	1.659512	-0.365216
C190	C	-0.434322	2.159512	0.134784
H191	H	-0.954747	1.764158	-0.260750
H192	H	-0.454747	2.264158	0.239250
H193	H	-1.002743	1.672813	-0.266096
H194	H	-0.502743	2.172813	0.233904
H195	H	-1.002651	1.758730	-0.352141
H196	H	-0.502651	2.258730	0.147859
H197	H	-0.908730	1.619325	-0.319385
H198	H	-0.408730	2.119325	0.180615
H199	H	-0.908624	1.705254	-0.405434
H200	H	-0.408624	2.205254	0.094566
H201	H	-0.230113	1.640343	-0.907135
H202	H	0.269887	2.140343	-0.407135
H203	H	-0.230065	1.640373	-1.106183
H204	H	0.269935	2.140373	-0.606183
C205	C	-1.136974	1.645614	-0.379626
C206	C	-0.636974	2.145614	0.120374
C207	C	-1.072329	1.659713	-0.365376
C208	C	-0.572329	2.159713	0.134624
H209	H	-1.159277	1.691350	-0.334175
H210	H	-0.659277	2.191350	0.165825
H211	H	-1.147825	1.575083	-0.364094
H212	H	-0.647825	2.075083	0.135906
H213	H	-1.147661	1.660866	-0.450272
H214	H	-0.647661	2.160866	0.049728
H215	H	-1.061640	1.644453	-0.294731
H216	H	-0.561640	2.144453	0.205269
H217	H	-1.061473	1.730260	-0.380901
H218	H	-0.561473	2.230260	0.119099
C219	C	-1.136977	1.391595	-0.632968
C220	C	-0.636977	1.891595	-0.132968
C221	C	-1.072332	1.377360	-0.647123
C222	C	-0.572332	1.877360	-0.147123
H223	H	-1.159282	1.345985	-0.678531
H224	H	-0.659282	1.845985	-0.178531
H225	H	-1.147700	1.462176	-0.648408
H226	H	-0.647700	1.962176	-0.148408
H227	H	-1.147789	1.376258	-0.562365
H228	H	-0.647789	1.876258	-0.062365
H229	H	-1.061519	1.392705	-0.717724
H230	H	-0.561519	1.892705	-0.217724
H231	H	-1.061605	1.306763	-0.631689
H232	H	-0.561605	1.806763	-0.131689
H233	H	-0.943701	1.396437	-0.627950
H234	H	-0.443701	1.896437	-0.127950
