data_functionalizedCrystal
_audit_creation_method	'MofGen! by Chris Wilmer'
_symmetry_space_group_name_H-M	'P1'
_symmetry_Int_Tables_number	1
_symmetry_cell_setting	triclinic
loop_
_symmetry_equiv_pos_as_xyz
  x,y,z
_cell_length_a	14.853567
_cell_length_b	17.699083
_cell_length_c	16.776229
_cell_angle_alpha	90.006428
_cell_angle_beta	89.997147
_cell_angle_gamma	96.541194
loop_
_atom_site_label
_atom_site_type_symbol
_atom_site_fract_x
_atom_site_fract_y
_atom_site_fract_z
O1	O	0.114005	-1.004375	-0.066268
O2	O	0.128838	-0.784035	-0.066272
O3	O	-0.009830	-0.900090	-0.066272
O4	O	0.252673	-0.888319	-0.066268
O5	O	-0.009839	-0.900075	0.066304
O6	O	0.128830	-0.784019	0.066305
O7	O	0.113996	-1.004359	0.066308
Zn8	Zn	0.121412	-0.894187	0.087356
Zn9	Zn	0.121423	-0.894207	-0.087319
O10	O	0.252664	-0.888304	0.066309
C11	C	0.128302	-0.755829	0.000016
C12	C	0.126708	-0.671806	0.000014
C13	C	0.125953	-0.632329	0.072282
C14	C	0.124440	-0.553382	0.072283
C15	C	0.123690	-0.513915	0.000015
C16	C	0.124443	-0.553398	-0.072259
C17	C	0.125949	-0.632344	-0.072259
C18	C	0.118369	-0.235020	-0.072262
C19	C	0.116866	-0.156068	-0.072256
C20	C	0.116860	-0.156059	0.072280
C21	C	0.118366	-0.235004	0.072280
C22	C	0.119115	-0.274481	0.000007
C23	C	0.120753	-0.360084	0.000007
C24	C	0.122059	-0.428313	0.000014
C25	C	-0.043421	-0.899549	0.000014
C26	C	-0.143499	-0.897951	0.000007
C27	C	-0.555754	-0.822255	0.000021
C28	C	-0.577543	-0.960132	0.000023
C29	C	-0.483515	-0.961635	0.000018
C30	C	-0.425601	-0.893447	0.000016
C31	C	-0.461716	-0.823756	0.000018
C32	C	-0.447392	-1.031324	0.000024
C33	C	-0.353359	-1.032830	0.000020
C34	C	-0.295444	-0.964641	0.000012
C35	C	-0.331564	-0.894947	0.000014
C36	C	-0.273651	-0.826759	0.000011
C37	C	-0.309770	-0.757065	0.000007
C38	C	-0.403801	-0.755567	0.000010
C39	C	-0.201412	-0.966139	0.000009
C40	C	-0.179614	-0.828260	0.000009
C41	C	0.286255	-0.888845	0.000021
C42	C	0.386333	-0.890443	0.000023
C43	C	0.114526	-0.032566	0.000018
C44	C	0.116104	-0.116590	0.000013
N45	N	0.121403	-0.894179	0.206567
N46	N	0.121424	-0.894222	-0.206530
C47	C	0.060026	-0.945584	0.248284
C48	C	0.060025	-0.945588	0.331736
C49	C	0.121407	-0.894190	0.373470
C50	C	0.182787	-0.842779	0.331747
C51	C	0.182783	-0.842772	0.248297
C52	C	0.182805	-0.842807	0.668295
C53	C	0.182806	-0.842819	0.751751
C54	C	0.060047	-0.945622	0.751734
C55	C	0.060043	-0.945615	0.668283
C56	C	0.121420	-0.894202	0.626568
C57	C	0.121419	-0.894197	0.536080
C58	C	0.121413	-0.894198	0.463957
H59	H	0.123810	-0.521245	0.131131
H60	H	-0.585166	-0.765512	0.000014
H61	H	0.010047	-0.987445	0.365702
H62	H	0.118976	-0.267153	-0.131111
N63	N	0.248989	-0.787332	0.203301
H64	H	0.239671	-0.795124	0.144103
H65	H	0.238653	-0.733634	0.217902
N66	N	0.126771	-0.674894	0.150230
H67	H	0.126061	-0.637903	0.196011
H68	H	0.071531	-0.713730	0.153379
H69	H	0.010068	-0.987484	0.785708
H70	H	0.232762	-0.800926	0.365732
H71	H	-0.323960	-1.089579	0.000023
H72	H	0.118981	-0.267135	0.131129
H73	H	0.116247	-0.123907	0.131129
N74	N	0.249016	-0.787368	0.623310
H75	H	0.239703	-0.795157	0.564112
H76	H	0.238688	-0.733669	0.637912
N77	N	-0.640000	-1.033674	0.000038
H78	H	-0.705050	-1.022148	0.000044
H79	H	-0.628329	-1.064050	-0.049109
H80	H	0.232792	-0.800962	0.785729
N81	N	-0.162454	-1.041299	0.000023
H82	H	-0.183580	-1.071190	-0.049118
H83	H	-0.094104	-1.031838	0.000051
N84	N	0.116054	-0.113497	-0.150206
H85	H	0.116754	-0.150484	-0.195992
H86	H	0.059564	-0.086821	-0.153346
N87	N	0.123623	-0.510835	-0.150208
H88	H	0.122556	-0.454832	-0.139243
H89	H	0.179752	-0.518557	-0.181769
N90	N	0.126771	-0.674929	-0.150203
H91	H	0.071529	-0.713762	-0.153423
H92	H	0.126102	-0.637899	-0.195942
H93	H	-0.132466	-0.772732	0.000004
N94	N	-0.247292	-0.683527	0.000020
H95	H	-0.207783	-0.681084	-0.049121
H96	H	-0.284491	-0.639185	0.000051
N97	N	-0.006173	-1.001025	0.203274
H98	H	-0.045056	-1.033589	0.242368
H99	H	-0.045989	-0.972009	0.168659
H100	H	0.010064	-0.987471	0.634306
N101	N	-0.442757	-0.680402	0.000009
H102	H	-0.511113	-0.689800	0.000016
H103	H	-0.421560	-0.650556	0.049157
H104	H	-0.494552	-1.086839	0.000033
