data_functionalizedCrystal
_audit_creation_method	'MofGen! by Chris Wilmer'
_symmetry_space_group_name_H-M	'P1'
_symmetry_Int_Tables_number	1
_symmetry_cell_setting	triclinic
loop_
_symmetry_equiv_pos_as_xyz
  x,y,z
_cell_length_a	17.038272
_cell_length_b	16.109301
_cell_length_c	14.586319
_cell_angle_alpha	89.998390
_cell_angle_beta	89.999529
_cell_angle_gamma	87.286519
loop_
_atom_site_label
_atom_site_type_symbol
_atom_site_fract_x
_atom_site_fract_y
_atom_site_fract_z
O1	O	-1.037367	-0.180534	0.076131
O2	O	-0.809737	-0.177667	0.076158
O3	O	-0.929805	-0.058514	0.076134
O4	O	-0.917299	-0.299687	0.076154
O5	O	-0.929791	-0.058520	-0.076347
O6	O	-0.809722	-0.177674	-0.076323
O7	O	-1.037353	-0.180540	-0.076350
Cu8	Cu	-0.923536	-0.179108	-0.090259
Cu9	Cu	-0.923553	-0.179100	0.090067
O10	O	-0.917284	-0.299694	-0.076326
C11	C	-0.780601	-0.175063	-0.000079
C12	C	-0.693808	-0.167284	-0.000069
N13	N	-0.923530	-0.179113	-0.217091
C14	C	-1.066488	-0.183145	-0.000111
C15	C	-1.153281	-0.190924	-0.000115
C16	C	-0.643694	-0.238705	-0.000064
C17	C	-0.562143	-0.231391	-0.000077
C18	C	-0.530709	-0.152655	-0.000089
C19	C	-0.580830	-0.081229	-0.000097
C20	C	-0.662379	-0.088544	-0.000091
C21	C	-0.284951	-0.126813	-0.000116
C22	C	-0.203396	-0.119503	-0.000120
C23	C	-0.184714	-0.269665	-0.000102
C24	C	-0.266266	-0.276973	-0.000089
C25	C	-0.316380	-0.205547	-0.000102
C26	C	-0.447351	-0.145177	-0.000100
C27	C	-0.399736	-0.213026	-0.000098
C28	C	-0.929291	-0.027506	-0.000107
C29	C	-0.927773	0.064897	-0.000108
C30	C	-0.917798	-0.330702	-0.000084
C31	C	-0.919317	-0.423105	-0.000076
C32	C	-0.995487	0.282360	-0.000101
C33	C	-0.994054	0.369183	-0.000093
C34	C	-0.851597	0.359425	-0.000080
C35	C	-0.853031	0.272605	-0.000081
C36	C	-0.924978	0.234075	-0.000096
C37	C	-0.922111	0.407718	-0.000088
C38	C	-0.920557	0.501854	-0.000079
C39	C	-0.926533	0.139932	-0.000103
C40	C	-0.970946	-0.232909	-0.452099
C41	C	-0.970955	-0.232904	-0.548080
C42	C	-0.876147	-0.125287	-0.548087
C43	C	-0.876144	-0.125288	-0.452107
C44	C	-0.923542	-0.179104	-0.404116
C45	C	-0.923554	-0.179097	-0.596076
C46	C	-0.923562	-0.179091	-0.700144
C47	C	-0.923535	-0.179109	-0.300042
N48	N	-0.923566	-0.179089	0.216899
H49	H	-0.669280	-0.302820	-0.000054
H50	H	-1.051470	0.408493	-0.000095
H51	H	-1.009541	-0.276729	-0.413027
O52	O	-1.065325	0.244836	0.000016
C53	C	-1.149642	0.152514	0.079038
C54	C	-1.070515	0.194938	0.079004
H55	H	-1.153871	0.112176	0.142903
H56	H	-1.153887	0.112057	0.015268
H57	H	-1.199777	0.201956	0.078994
H58	H	-1.020334	0.145553	0.079081
H59	H	-1.066339	0.235412	0.142769
H60	H	-0.177806	-0.055384	-0.000129
H61	H	-0.795610	0.233289	-0.000075
H62	H	-0.837541	-0.081469	-0.413038
O63	O	-1.017022	-0.285251	-0.594548
C64	C	-1.111089	-0.391960	-0.584406
C65	C	-1.058939	-0.332733	-0.531668
H66	H	-1.145005	-0.430353	-0.533591
H67	H	-1.072663	-0.435190	-0.629321
H68	H	-1.154251	-0.354136	-0.629362
H69	H	-1.015769	-0.370490	-0.486663
H70	H	-1.097414	-0.289501	-0.486811
H71	H	-0.521342	-0.289549	-0.000072
H72	H	-0.793020	0.390807	-0.000070
O73	O	-0.550336	-0.004726	-0.000270
C74	C	-0.541399	0.125872	-0.079245
C75	C	-0.575966	0.039249	-0.079180
H76	H	-0.562120	0.161457	-0.143028
H77	H	-0.474502	0.118885	-0.079304
H78	H	-0.562028	0.161425	-0.015405
H79	H	-0.555398	0.003649	-0.143010
H80	H	-0.642860	0.046295	-0.079074
O81	O	-0.296668	-0.353521	-0.000124
C82	C	-0.269530	-0.501689	-0.000056
C83	C	-0.234995	-0.415051	-0.000043
H84	H	-0.219684	-0.551459	0.000029
H85	H	-0.307217	-0.508925	-0.063881
H86	H	-0.307267	-0.508820	0.063745
H87	H	-0.197223	-0.407861	-0.063801
H88	H	-0.197353	-0.407854	0.063824
O89	O	-0.830122	-0.073096	-0.594847
C90	C	-0.788091	-0.025406	-0.742707
C91	C	-0.840242	-0.084568	-0.689871
H92	H	-0.796268	-0.034648	-0.819543
H93	H	-0.723878	-0.039333	-0.723861
H94	H	-0.805562	0.041612	-0.723822
H95	H	-0.822841	-0.151606	-0.708727
H96	H	-0.904443	-0.070569	-0.708721
H97	H	-0.325745	-0.068652	-0.000127
O98	O	-0.711032	-0.019142	0.000071
C99	C	-0.751922	0.106991	0.079028
C100	C	-0.696792	0.028416	0.078974
H101	H	-0.740417	0.145472	0.142805
H102	H	-0.815621	0.088286	0.079092
H103	H	-0.740503	0.145414	0.015182
H104	H	-0.708140	-0.010043	0.142810
H105	H	-0.633111	0.047179	0.078863
O106	O	-0.135954	-0.338983	0.000025
C107	C	-0.033069	-0.417898	0.079045
C108	C	-0.088232	-0.339349	0.079010
H109	H	0.005517	-0.418229	0.142907
H110	H	0.005628	-0.418238	0.015272
H111	H	-0.069560	-0.475416	0.079009
H112	H	-0.051803	-0.281789	0.079079
H113	H	-0.126932	-0.339082	0.142777
H114	H	-0.425333	-0.277132	-0.000094
O115	O	-0.416775	-0.068714	0.000058
C116	C	-0.335490	0.026660	0.079012
C117	C	-0.370084	-0.059951	0.078961
H118	H	-0.297719	0.033766	0.142788
H119	H	-0.385280	0.076494	0.079074
H120	H	-0.297814	0.033817	0.015165
H121	H	-0.407750	-0.067189	0.142797
H122	H	-0.320256	-0.109742	0.078851
