data_functionalizedCrystal
_audit_creation_method	'MofGen! by Chris Wilmer'
_symmetry_space_group_name_H-M	'P1'
_symmetry_Int_Tables_number	1
_symmetry_cell_setting	triclinic
loop_
_symmetry_equiv_pos_as_xyz
  x,y,z
_cell_length_a	17.077404
_cell_length_b	13.897448
_cell_length_c	17.077396
_cell_angle_alpha	89.972632
_cell_angle_beta	89.980499
_cell_angle_gamma	90.017917
loop_
_atom_site_label
_atom_site_type_symbol
_atom_site_fract_x
_atom_site_fract_y
_atom_site_fract_z
Zn1	Zn	1.200083	-0.384009	-0.443849
Zn2	Zn	1.700083	0.115991	0.056151
Zn3	Zn	1.200002	-0.545322	-0.312585
Zn4	Zn	1.700002	-0.045322	0.187415
Zn5	Zn	1.068815	-0.384043	-0.312597
Zn6	Zn	1.568815	0.115957	0.187403
Zn7	Zn	1.068795	-0.545264	-0.443809
Zn8	Zn	1.568795	-0.045264	0.056191
O9	O	1.134424	-0.464660	-0.378210
O10	O	1.634424	0.035340	0.121790
O11	O	1.309919	-0.405417	-0.426448
O12	O	1.809919	0.094583	0.073552
O13	O	1.182574	-0.523966	-0.202740
O14	O	1.682574	-0.023966	0.297260
O15	O	1.086270	-0.249057	-0.330029
O16	O	1.586270	0.250943	0.169971
O17	O	1.309860	-0.523933	-0.330010
O18	O	1.809860	-0.023933	0.169990
O19	O	1.182712	-0.249032	-0.426459
O20	O	1.682712	0.250968	0.073541
O21	O	1.086192	-0.405475	-0.202748
O22	O	1.586192	0.094525	0.297252
O23	O	0.958965	-0.405420	-0.329990
O24	O	1.458965	0.094580	0.170010
O25	O	1.086236	-0.523835	-0.553661
O26	O	1.586236	-0.023835	-0.053661
O27	O	0.958950	-0.523868	-0.426391
O28	O	1.458950	-0.023868	0.073609
O29	O	1.182693	-0.405362	-0.553690
O30	O	1.682693	0.094638	-0.053690
O31	O	1.182555	-0.680296	-0.329971
O32	O	1.682555	-0.180296	0.170029
O33	O	1.086157	-0.680254	-0.426380
O34	O	1.586157	-0.180254	0.073620
C35	C	0.930476	-0.464642	-0.378188
C36	C	1.430476	0.035358	0.121812
C37	C	0.843226	-0.464658	-0.378198
C38	C	1.343226	0.035342	0.121802
C39	C	1.134366	-0.715274	-0.378187
C40	C	1.634366	-0.215274	0.121813
C41	C	1.134414	-0.822488	-0.378204
C42	C	1.634414	-0.322488	0.121796
C43	C	0.802249	-0.526427	-0.428313
C44	C	1.302249	-0.026427	0.071687
C45	C	0.720268	-0.526429	-0.428326
C46	C	1.220268	-0.026429	0.071674
C47	C	0.679267	-0.464666	-0.378218
C48	C	1.179267	0.035334	0.121782
C49	C	0.720250	-0.402890	-0.328100
C50	C	1.220250	0.097110	0.171900
C51	C	0.802229	-0.402884	-0.328092
C52	C	1.302229	0.097116	0.171908
C53	C	0.549380	-0.402909	-0.328119
C54	C	1.049380	0.097091	0.171881
C55	C	0.467395	-0.402916	-0.328126
C56	C	0.967395	0.097084	0.171874
C57	C	0.467419	-0.526454	-0.428353
C58	C	0.967419	-0.026454	0.071647
C59	C	0.549398	-0.526448	-0.428345
C60	C	1.049398	-0.026448	0.071655
C61	C	0.590376	-0.464673	-0.378226
C62	C	1.090376	0.035327	0.121774
C63	C	1.134496	-1.018783	-0.378253
C64	C	1.634496	-0.518783	0.121747
C65	C	1.134448	-0.909550	-0.378228
C66	C	1.634448	-0.409550	0.121772
C67	C	1.339168	-0.464678	-0.378232
C68	C	1.839168	0.035322	0.121768
C69	C	1.426418	-0.464686	-0.378242
C70	C	1.926418	0.035314	0.121758
C71	C	1.134471	-0.464588	-0.582954
C72	C	1.634471	0.035412	-0.082954
C73	C	1.134491	-0.464558	-0.670204
C74	C	1.634491	0.035442	-0.170204
C75	C	1.134502	-0.213067	-0.378250
C76	C	1.634502	0.286933	0.121750
C77	C	1.134536	-0.105853	-0.378267
C78	C	1.634536	0.394147	0.121733
C79	C	1.184718	-0.402864	-0.711211
C80	C	1.684718	0.097136	-0.211211
C81	C	1.184728	-0.402832	-0.793191
C82	C	1.684728	0.097168	-0.293191
C83	C	1.134514	-0.464500	-0.834164
C84	C	1.634514	0.035500	-0.334164
C85	C	1.084281	-0.526197	-0.793151
C86	C	1.584281	-0.026197	-0.293151
C87	C	1.084268	-0.526223	-0.711172
C88	C	1.584268	-0.026223	-0.211172
C89	C	1.084313	-0.526139	-0.964021
C90	C	1.584313	-0.026139	-0.464021
C91	C	1.084326	-0.526114	-1.046006
C92	C	1.584326	-0.026114	-0.546006
C93	C	1.184772	-0.402747	-1.046040
C94	C	1.684772	0.097253	-0.546040
C95	C	1.184759	-0.402774	-0.964061
C96	C	1.684759	0.097226	-0.464061
C97	C	1.134528	-0.464472	-0.923055
C98	C	1.634528	0.035528	-0.423055
C99	C	1.134421	-0.464661	-0.174262
C100	C	1.634421	0.035339	0.325738
C101	C	1.134553	-0.464419	-0.087013
C102	C	1.634553	0.035581	0.412987
H103	H	0.835626	-0.576725	-0.469114
H104	H	1.335626	-0.076725	0.030886
H105	H	0.434014	-0.352612	-0.287334
H106	H	0.934014	0.147388	0.212666
H107	H	1.225671	-0.352508	-1.079432
H108	H	1.725671	0.147492	-0.579432
Cl109	Cl	0.600893	-0.325247	-0.265112
Cl110	Cl	1.100893	0.174753	0.234888
H111	H	0.686908	-0.576729	-0.469134
H112	H	1.186908	-0.076729	0.030866
Cl113	Cl	0.600942	-0.604101	-0.491332
Cl114	Cl	1.100942	-0.104101	0.008668
H115	H	1.225611	-0.352650	-0.677857
H116	H	1.725611	0.147350	-0.177857
Cl117	Cl	1.247908	-0.325312	-0.844739
Cl118	Cl	1.747908	0.174688	-0.344739
Cl119	Cl	1.247891	-0.325253	-0.912554
Cl120	Cl	1.747891	0.174747	-0.412554
Cl121	Cl	0.853743	-0.325225	-0.265089
Cl122	Cl	1.353743	0.174775	0.234911
H123	H	1.043436	-0.576327	-1.079364
H124	H	1.543436	-0.076327	-0.579364
H125	H	0.434051	-0.576751	-0.469164
H126	H	0.934051	-0.076751	0.030836
Cl127	Cl	0.668704	-0.325238	-0.265113
Cl128	Cl	1.168704	0.174762	0.234887
H129	H	1.043396	-0.576365	-0.930636
H130	H	1.543396	-0.076365	-0.430636
H131	H	1.043393	-0.576404	-0.826517
H132	H	1.543393	-0.076404	-0.326517
H133	H	1.043360	-0.576451	-0.677786
H134	H	1.543360	-0.076451	-0.177786
