data_functionalizedCrystal
_audit_creation_method	'MofGen! by Chris Wilmer'
_symmetry_space_group_name_H-M	'P1'
_symmetry_Int_Tables_number	1
_symmetry_cell_setting	triclinic
loop_
_symmetry_equiv_pos_as_xyz
  x,y,z
_cell_length_a	14.519731
_cell_length_b	10.654549
_cell_length_c	9.730223
_cell_angle_alpha	89.997731
_cell_angle_beta	89.998958
_cell_angle_gamma	95.913185
loop_
_atom_site_label
_atom_site_type_symbol
_atom_site_fract_x
_atom_site_fract_y
_atom_site_fract_z
O1	O	-0.129529	1.666607	-0.114240
O2	O	-0.141871	1.301011	-0.114248
O3	O	-0.001513	1.493489	-0.114254
O4	O	-0.269887	1.474130	-0.114234
O5	O	-0.001509	1.493476	0.114326
O6	O	-0.141867	1.300999	0.114332
O7	O	-0.129525	1.666595	0.114340
Zn8	Zn	-0.135695	1.483795	0.150628
Zn9	Zn	-0.135701	1.483811	-0.150536
O10	O	-0.269883	1.474118	0.114346
C11	C	-0.140963	1.254216	0.000041
C12	C	-0.138252	1.114798	0.000037
C13	C	-0.218338	0.903522	0.000048
C14	C	-0.220892	1.034518	0.000040
C15	C	-0.053051	1.064076	0.000028
C16	C	-0.050498	0.933082	0.000026
C17	C	-0.304249	1.475031	0.000058
C18	C	-0.406643	1.477749	0.000066
C19	C	-0.489799	1.479958	0.000060
C20	C	-0.594122	1.482717	0.000047
C21	C	-0.677272	1.484908	0.000036
C22	C	-0.781602	1.487667	0.000025
C23	C	0.032853	1.492575	0.000031
C24	C	0.135247	1.489857	0.000014
C25	C	-0.130433	1.713391	0.000048
C26	C	-0.133144	1.852808	0.000043
N27	N	-0.135691	1.483793	0.356164
N28	N	-0.135697	1.483823	-0.356072
C29	C	-0.073568	1.569051	0.428088
C30	C	-0.073568	1.569063	0.571971
C31	C	-0.197824	1.398556	0.571994
C32	C	-0.197819	1.398539	0.428114
H33	H	-0.290265	1.075802	0.000043
H34	H	-0.248408	1.329146	0.630590
F35	F	0.034901	1.149520	0.000019
F36	F	-0.007446	1.659804	0.648512
H37	H	0.018880	0.891792	0.000017
H38	H	-0.285634	0.838165	0.000061
F39	F	-0.263939	1.307786	0.351562
H40	H	-0.022979	1.638468	0.369510
