data_functionalizedCrystal
_audit_creation_method	'MofGen! by Chris Wilmer'
_symmetry_space_group_name_H-M	'P1'
_symmetry_Int_Tables_number	1
_symmetry_cell_setting	triclinic
loop_
_symmetry_equiv_pos_as_xyz
  x,y,z
_cell_length_a	14.853567
_cell_length_b	9.065218
_cell_length_c	8.140239
_cell_angle_alpha	90.002802
_cell_angle_beta	90.000276
_cell_angle_gamma	95.674592
loop_
_atom_site_label
_atom_site_type_symbol
_atom_site_fract_x
_atom_site_fract_y
_atom_site_fract_z
O1	O	0.132191	-1.957778	-0.136602
O2	O	0.632191	-1.457778	0.363398
O3	O	0.143034	-1.528278	-0.136603
O4	O	0.643034	-1.028278	0.363397
O5	O	0.006468	-1.754501	-0.136607
O6	O	0.506468	-1.254501	0.363393
O7	O	0.268757	-1.731555	-0.136598
O8	O	0.768757	-1.231555	0.363402
O9	O	0.006466	-1.754488	0.136620
O10	O	0.506466	-1.254488	0.636620
O11	O	0.143032	-1.528266	0.136624
O12	O	0.643032	-1.028266	0.636624
O13	O	0.132189	-1.957765	0.136625
O14	O	0.632189	-1.457765	0.636625
Zn15	Zn	0.137611	-1.743014	0.180005
Zn16	Zn	0.637611	-1.243014	0.680005
Zn17	Zn	0.137613	-1.743030	-0.179983
Zn18	Zn	0.637613	-1.243030	0.320017
O19	O	0.268756	-1.731543	0.136630
O20	O	0.768756	-1.231543	0.636630
C21	C	0.141991	-1.473306	0.000010
C22	C	0.641991	-0.973306	0.500010
C23	C	0.138875	-1.309525	0.000009
C24	C	0.638875	-0.809525	0.500009
C25	C	-0.027130	-1.753455	0.000001
C26	C	0.472870	-1.253455	0.500001
C27	C	-0.127236	-1.750339	-0.000013
C28	C	0.372764	-1.250339	0.499987
N29	N	0.137609	-1.743013	0.425688
N30	N	0.637609	-1.243013	0.925688
C31	C	-0.540862	-1.602788	0.000018
C32	C	-0.040862	-1.102788	0.500018
C33	C	-0.560154	-1.871546	0.000019
C34	C	-0.060154	-1.371546	0.500019
C35	C	-0.466099	-1.874475	0.000009
C36	C	0.033901	-1.374475	0.500009
C37	C	-0.409421	-1.741559	0.000006
C38	C	0.090579	-1.241559	0.500006
C39	C	-0.446798	-1.605714	0.000013
C40	C	0.053202	-1.105714	0.500013
C41	C	-0.428714	-2.010318	0.000018
C42	C	0.071286	-1.510318	0.500018
C43	C	-0.334654	-2.013253	0.000011
C44	C	0.165346	-1.513253	0.500011
C45	C	-0.277974	-1.880335	-0.000004
C46	C	0.222026	-1.380335	0.499996
C47	C	-0.315356	-1.744484	0.000002
C48	C	0.184644	-1.244484	0.500002
C49	C	-0.258678	-1.611568	-0.000001
C50	C	0.241322	-1.111568	0.499999
C51	C	-0.296059	-1.475716	-0.000008
C52	C	0.203941	-0.975716	0.499992
C53	C	-0.390118	-1.472796	-0.000001
C54	C	0.109882	-0.972796	0.499999
C55	C	-0.183915	-1.883255	-0.000010
C56	C	0.316085	-1.383255	0.499990
C57	C	-0.164614	-1.614494	-0.000006
C58	C	0.335386	-1.114494	0.499994
C59	C	0.302353	-1.732589	0.000017
C60	C	0.802353	-1.232589	0.500017
C61	C	0.402460	-1.735704	0.000021
C62	C	0.902460	-1.235704	0.500021
C63	C	0.133232	-2.012738	0.000008
C64	C	0.633232	-1.512738	0.500008
C65	C	0.136348	-2.176519	-0.000001
C66	C	0.636348	-1.676519	0.499999
N67	N	0.137608	-1.743042	-0.425666
N68	N	0.637608	-1.243042	0.074334
H69	H	-0.249899	-1.367496	0.000002
H70	H	0.250101	-0.867496	0.500002
H71	H	-0.606307	-1.979760	0.000034
H72	H	-0.106307	-1.479760	0.500034
C73	C	-0.490400	-2.154459	-0.000048
C74	C	0.009600	-1.654459	0.499952
C75	C	-0.580773	-2.122816	-0.000093
C76	C	-0.080773	-1.622816	0.499907
C77	C	-0.637627	-2.255566	-0.000174
C78	C	-0.137627	-1.755566	0.499826
H79	H	-0.479067	-2.210248	0.095212
H80	H	0.020933	-1.710248	0.595212
H81	H	-0.479006	-2.210177	-0.095361
H82	H	0.020994	-1.710177	0.404639
H83	H	-0.592162	-2.067122	0.095210
H84	H	-0.092162	-1.567122	0.595210
H85	H	-0.592134	-2.067049	-0.095346
H86	H	-0.092134	-1.567049	0.404654
H87	H	-0.626233	-2.311285	-0.095487
H88	H	-0.126233	-1.811285	0.404513
H89	H	-0.626286	-2.311345	0.095088
H90	H	-0.126286	-1.811345	0.595088
H91	H	-0.698951	-2.234115	-0.000220
H92	H	-0.198951	-1.734115	0.499780
H93	H	-0.420562	-1.362192	-0.000005
H94	H	0.079438	-0.862192	0.499995
C95	C	-0.143377	-2.030776	-0.000347
C96	C	0.356623	-1.530776	0.499653
C97	C	-0.172065	-2.111131	-0.140931
C98	C	0.327935	-1.611131	0.359069
C99	C	-0.134731	-2.247032	-0.141314
C100	C	0.365269	-1.747032	0.358686
H101	H	-0.162723	-2.085684	0.094826
H102	H	0.337277	-1.585684	0.594826
H103	H	-0.079237	-2.013543	-0.000446
H104	H	0.420763	-1.513543	0.499554
H105	H	-0.236191	-2.128369	-0.140817
H106	H	0.263809	-1.628369	0.359183
H107	H	-0.152720	-2.056269	-0.236126
H108	H	0.347280	-1.556269	0.263874
H109	H	-0.070592	-2.229799	-0.141413
H110	H	0.429408	-1.729799	0.358587
H111	H	-0.154080	-2.301926	-0.046135
H112	H	0.345920	-1.801926	0.453865
H113	H	-0.154184	-2.301564	-0.236705
H114	H	0.345816	-1.801564	0.263295
H115	H	-0.118471	-1.506255	-0.000015
H116	H	0.381529	-1.006255	0.499985
H117	H	-0.304227	-2.123872	0.000014
H118	H	0.195773	-1.623872	0.500014
H119	H	-0.571302	-1.492180	0.000006
H120	H	-0.071302	-0.992180	0.500006
