data_functionalizedCrystal
_audit_creation_method	'MofGen! by Chris Wilmer'
_symmetry_space_group_name_H-M	'P1'
_symmetry_Int_Tables_number	1
_symmetry_cell_setting	triclinic
loop_
_symmetry_equiv_pos_as_xyz
  x,y,z
_cell_length_a	14.519709
_cell_length_b	14.044220
_cell_length_c	12.503572
_cell_angle_alpha	86.156832
_cell_angle_beta	86.481314
_cell_angle_gamma	91.565489
loop_
_atom_site_label
_atom_site_type_symbol
_atom_site_fract_x
_atom_site_fract_y
_atom_site_fract_z
O1	O	-1.238751	0.118805	0.089169
O2	O	-0.971456	0.133437	0.089205
O3	O	-1.101091	-0.011870	0.089177
O4	O	-1.109116	0.264112	0.089197
O5	O	-1.091343	-0.000924	-0.089463
O6	O	-0.961708	0.144383	-0.089435
O7	O	-1.229003	0.129751	-0.089471
Cu8	Cu	-1.094465	0.138067	-0.105764
Cu9	Cu	-1.105993	0.125122	0.105498
O10	O	-1.099368	0.275058	-0.089443
C11	C	-0.932168	0.138228	-0.000111
C12	C	-0.829622	0.136183	-0.000097
C13	C	-1.092704	-0.041717	-0.000143
C14	C	-1.082227	-0.146961	-0.000143
C15	C	-0.454117	0.128662	-0.000143
C16	C	-0.558594	0.130751	-0.000130
C17	C	-0.641866	0.132422	-0.000119
C18	C	-0.746350	0.134512	-0.000108
C19	C	-1.063074	-0.339655	-0.000125
C20	C	-1.137381	-0.397162	-0.000132
C21	C	-1.126724	-0.504384	-0.000122
C22	C	-1.073730	-0.232423	-0.000135
C23	C	-0.268291	0.124960	-0.000151
C24	C	-0.370838	0.127004	-0.000149
C25	C	-1.107755	0.304905	-0.000121
C26	C	-1.118232	0.410148	-0.000114
N27	N	-1.086364	0.147171	-0.254355
C28	C	-1.074447	0.160572	-0.473467
C29	C	-1.126016	0.102612	-0.526806
C30	C	-1.119385	0.110069	-0.648728
C31	C	-1.081077	0.153116	-0.351535
N32	N	-1.114101	0.116010	0.254088
H33	H	-1.209006	-0.365874	-0.000069
H34	H	-0.991459	-0.370947	-0.000113
C35	C	-0.943870	0.188710	-0.600102
C36	C	-1.008135	0.235118	-0.535429
H37	H	-0.902939	0.234735	-0.638369
H38	H	-0.909723	0.146613	-0.556233
H39	H	-0.975366	0.153320	-0.649578
H40	H	-0.976639	0.270503	-0.485948
H41	H	-1.042286	0.277232	-0.579302
C42	C	-1.282872	0.044811	-0.491652
C43	C	-1.192253	0.028060	-0.464717
H44	H	-1.323734	-0.001218	-0.453283
H45	H	-1.299195	0.106966	-0.473321
H46	H	-1.287144	0.040029	-0.566622
H47	H	-1.187979	0.032850	-0.389749
H48	H	-1.175925	-0.034110	-0.483042
