data_functionalizedCrystal
_audit_creation_method	'MofGen! by Chris Wilmer'
_symmetry_space_group_name_H-M	'P1'
_symmetry_Int_Tables_number	1
_symmetry_cell_setting	triclinic
loop_
_symmetry_equiv_pos_as_xyz
  x,y,z
_cell_length_a	19.121414
_cell_length_b	17.637015
_cell_length_c	17.640968
_cell_angle_alpha	109.664735
_cell_angle_beta	98.346508
_cell_angle_gamma	104.095983
loop_
_atom_site_label
_atom_site_type_symbol
_atom_site_fract_x
_atom_site_fract_y
_atom_site_fract_z
Zn1	Zn	1.103529	-0.189857	0.355659
Zn2	Zn	1.043897	-0.357991	0.192301
Zn3	Zn	0.956301	-0.223643	0.223703
Zn4	Zn	0.956272	-0.333577	0.333583
O5	O	1.015000	-0.276267	0.276311
O6	O	1.193904	-0.208238	0.330087
O7	O	1.007333	-0.364526	0.082116
O8	O	1.000800	-0.102788	0.263588
O9	O	1.150093	-0.331765	0.210068
O10	O	1.108967	-0.077966	0.360536
O11	O	0.942977	-0.265821	0.105187
O12	O	0.858011	-0.242148	0.242181
O13	O	1.000750	-0.290155	0.450862
O14	O	0.857990	-0.322916	0.322909
O15	O	1.108939	-0.184565	0.467082
O16	O	1.007305	-0.471125	0.188662
O17	O	0.942927	-0.453188	0.292460
C18	C	0.832516	-0.283549	0.283558
C19	C	0.754449	-0.286681	0.286673
C20	C	0.968665	-0.492326	0.234775
C21	C	0.948913	-0.584748	0.217030
C22	C	0.864775	-0.728015	0.141491
C23	C	0.883341	-0.641168	0.158171
C24	C	0.995947	-0.615160	0.259230
C25	C	0.977392	-0.702007	0.242555
C26	C	0.911804	-0.758428	0.183686
C27	C	1.024421	-0.732419	0.284750
C28	C	1.005865	-0.819258	0.268080
C29	C	0.940280	-0.875684	0.209215
C30	C	0.893248	-0.845266	0.167015
C31	C	1.090006	-0.675996	0.343624
C32	C	1.137035	-0.706409	0.385819
C33	C	1.118482	-0.793249	0.369145
C34	C	1.052897	-0.849675	0.310279
C35	C	1.165514	-0.823667	0.411344
C36	C	1.146958	-0.910505	0.394674
C37	C	1.034341	-0.936514	0.293609
C38	C	0.717799	-0.246002	0.246207
C39	C	0.644445	-0.248951	0.249133
C40	C	0.607744	-0.292575	0.292530
C41	C	0.644398	-0.333259	0.332997
C42	C	0.717749	-0.330314	0.330066
C43	C	0.386268	-0.303580	0.303473
C44	C	0.312913	-0.306520	0.306403
C45	C	0.312964	-0.222213	0.222538
C46	C	0.386318	-0.219268	0.219615
C47	C	0.422965	-0.259955	0.260078
C48	C	0.532765	-0.295589	0.295524
C49	C	0.497941	-0.256946	0.257079
C50	C	1.198196	-0.268956	0.269037
C51	C	1.276263	-0.265841	0.265938
C52	C	1.061493	-0.230868	0.489451
C53	C	1.081305	-0.211521	0.580278
C54	C	1.061538	-0.059360	0.318027
C55	C	1.081370	0.033073	0.335804
C56	C	0.968741	-0.321428	0.064011
C57	C	0.949114	-0.340534	-0.026776
C58	C	0.864852	-0.422776	0.836771
C59	C	0.883486	-0.404586	0.922119
C60	C	0.996133	-0.294644	0.938996
C61	C	0.977507	-0.312822	0.853649
C62	C	0.911866	-0.376890	0.802543
C63	C	1.024520	-0.266936	0.819421
C64	C	1.005897	-0.285116	0.734081
C65	C	0.940260	-0.349182	0.682969
C66	C	0.893242	-0.395069	0.717203
C67	C	1.090164	-0.202872	0.870528
C68	C	1.137178	-0.156986	0.836299
C69	C	1.118552	-0.175162	0.750959
C70	C	1.052915	-0.239228	0.699847
C71	C	1.165570	-0.129274	0.716725
C72	C	1.146947	-0.147454	0.631384
C73	C	1.034292	-0.257408	0.614506
H74	H	0.980936	-0.982457	0.245667
O75	O	0.922277	-0.960008	0.193169
C76	C	0.915049	-0.973053	0.266616
H77	H	0.947993	-0.912474	0.322834
H78	H	0.937480	-1.026750	0.268764
H79	H	0.853830	-0.990485	0.267640
O80	O	0.801085	-0.485078	0.787228
C81	C	0.763571	-0.521675	0.835738
H82	H	0.804991	-0.510428	0.894885
H83	H	0.736665	-0.592752	0.798783
H84	H	0.718725	-0.491441	0.852773
H85	H	1.105326	-0.188075	0.940016
O86	O	1.059863	-0.232315	0.988579
C87	C	1.057731	-0.154484	0.984293
H88	H	1.017580	-0.167038	0.923737
H89	H	1.115782	-0.115790	0.986527
H90	H	1.038110	-0.117688	1.039148
H91	H	1.190624	-0.104825	0.877921
H92	H	1.218911	-0.777717	0.459282
H93	H	1.219018	-0.077116	0.758346
O94	O	0.837900	-0.449233	0.955388
C95	C	0.877140	-0.490814	0.992854
H96	H	0.925740	-0.499229	0.963945
H97	H	0.838217	-0.555617	0.982532
H98	H	0.899192	-0.451223	1.062379
H99	H	1.185229	-0.110087	0.603516
H100	H	0.811370	-0.773958	0.093549
O101	O	0.829510	-0.900152	0.109921
C102	C	0.783505	-0.942313	0.148559
H103	H	0.818978	-0.941076	0.207046
H104	H	0.753807	-1.010871	0.103914
H105	H	0.740530	-0.909083	0.165960
O106	O	0.837583	-0.611771	0.117082
C107	C	0.775706	-0.680191	0.061570
H108	H	0.790645	-0.741510	0.045739
H109	H	0.759554	-0.669146	0.002289
H110	H	0.726882	-0.685243	0.091792
O111	O	1.059645	-0.560239	0.316360
C112	C	1.065929	-0.477068	0.322044
H113	H	1.031727	-0.479612	0.262142
H114	H	1.126819	-0.440713	0.331889
H115	H	1.044324	-0.443624	0.376697
O116	O	0.970593	-0.319759	0.564854
C117	C	0.972714	-0.397581	0.569174
H118	H	1.033043	-0.394525	0.589617
H119	H	0.945626	-0.450860	0.505385
H120	H	0.941188	-0.410286	0.616010
O121	O	1.107905	-0.591644	0.359833
C122	C	1.051333	-0.560926	0.389003
H123	H	0.997127	-0.615617	0.366985
H124	H	1.043244	-0.511205	0.363781
H125	H	1.067880	-0.531119	0.459829
H126	H	0.283034	-0.342042	0.341748
H127	H	1.190435	-0.660461	0.433753
H128	H	1.185248	-0.935265	0.429043
O129	O	0.753372	-0.203743	0.203916
C130	C	0.713778	-0.239853	0.119696
H131	H	0.678452	-0.307990	0.103503
H132	H	0.754750	-0.239291	0.078797
H133	H	0.676114	-0.201480	0.108685
O134	O	0.608774	-0.209599	0.209677
C135	C	0.544684	-0.269849	0.149435
H136	H	0.551640	-0.335539	0.130863
H137	H	0.536622	-0.253132	0.092405
H138	H	0.493968	-0.269595	0.176323
H139	H	0.839778	-0.447220	0.675593
H140	H	0.416193	-0.183752	0.184270
H141	H	0.283119	-0.189088	0.189594
O142	O	0.421764	-0.343113	0.342858
C143	C	0.373634	-0.382260	0.381773
H144	H	0.329279	-0.349683	0.393294
H145	H	0.406958	-0.376674	0.443570
H146	H	0.345746	-0.452079	0.339926
O147	O	0.608759	-0.375497	0.375265
C148	C	0.587988	-0.318679	0.438886
H149	H	0.625258	-0.251209	0.455744
H150	H	0.594408	-0.335500	0.495957
H151	H	0.527505	-0.323382	0.416405
O152	O	0.753256	-0.369841	0.369453
C153	C	0.705130	-0.408993	0.408370
H154	H	0.660773	-0.376420	0.419892
H155	H	0.738457	-0.403404	0.470165
H156	H	0.677246	-0.478812	0.366522
O157	O	0.533543	-0.214452	0.214987
C158	C	0.537328	-0.128480	0.249639
H159	H	0.491289	-0.122248	0.283503
H160	H	0.529970	-0.103747	0.198013
H161	H	0.593784	-0.089927	0.295419
O162	O	0.497124	-0.337818	0.337797
C163	C	0.476349	-0.280994	0.401409
H164	H	0.513621	-0.213526	0.418264
H165	H	0.482760	-0.297810	0.458484
H166	H	0.415867	-0.285697	0.378919
O167	O	0.922070	-0.366977	0.600046
C168	C	0.854044	-0.433348	0.562284
H169	H	0.844520	-0.471849	0.602514
H170	H	0.856005	-0.476222	0.498278
H171	H	0.806601	-0.405642	0.555525
