data_functionalizedCrystal
_audit_creation_method	'MofGen! by Chris Wilmer'
_symmetry_space_group_name_H-M	'P1'
_symmetry_Int_Tables_number	1
_symmetry_cell_setting	triclinic
loop_
_symmetry_equiv_pos_as_xyz
  x,y,z
_cell_length_a	10.489741
_cell_length_b	10.868271
_cell_length_c	11.792241
_cell_angle_alpha	90.005281
_cell_angle_beta	84.366295
_cell_angle_gamma	90.001615
loop_
_atom_site_label
_atom_site_type_symbol
_atom_site_fract_x
_atom_site_fract_y
_atom_site_fract_z
O1	O	1.693508	0.102247	0.160137
O2	O	2.193508	0.602247	0.660137
O3	O	1.322261	0.102266	0.175169
O4	O	1.822261	0.602266	0.675169
O5	O	1.516893	0.102247	0.002507
O6	O	2.016893	0.602247	0.502507
O7	O	1.498875	0.102265	0.332799
O8	O	1.998875	0.602265	0.832799
O9	O	1.516877	-0.102397	0.002500
O10	O	2.016877	0.397603	0.502500
O11	O	1.322245	-0.102379	0.175162
O12	O	1.822245	0.397621	0.675162
O13	O	1.693492	-0.102398	0.160130
O14	O	2.193492	0.397602	0.660130
Zn15	Zn	1.507866	-0.134880	0.167645
Zn16	Zn	2.007866	0.365120	0.667645
Zn17	Zn	1.507887	0.134748	0.167654
Zn18	Zn	2.007887	0.634748	0.667654
O19	O	1.498859	-0.102379	0.332792
O20	O	1.998859	0.397621	0.832792
C21	C	1.274725	-0.000054	0.174030
C22	C	1.774725	0.499946	0.674030
C23	C	1.133107	-0.000047	0.170633
C24	C	1.633107	0.499953	0.670633
N25	N	1.507860	-0.318894	0.167638
N26	N	2.007860	0.181106	0.667638
C27	C	1.507880	-0.569900	0.167652
C28	C	2.007880	-0.069900	0.667652
C29	C	1.507865	-0.430223	0.167648
C30	C	2.007865	0.069777	0.667648
C31	C	1.065341	-0.000065	0.060774
C32	C	1.565341	0.499935	0.560774
C33	C	0.973046	0.100836	0.112674
C34	C	1.473046	0.600836	0.612674
C35	C	0.973064	-0.100927	0.112693
C36	C	1.473064	0.399073	0.612693
C37	C	1.042676	0.100937	0.222579
C38	C	1.542676	0.600937	0.722579
C39	C	1.042704	-0.100917	0.222583
C40	C	1.542704	0.399083	0.722583
C41	C	0.950436	0.000008	0.274563
C42	C	1.450436	0.500008	0.774563
C43	C	1.741027	-0.000075	0.161269
C44	C	2.241027	0.499925	0.661269
C45	C	1.882645	-0.000074	0.164666
C46	C	2.382645	0.499926	0.664666
C47	C	1.515753	-0.000075	-0.039791
C48	C	2.015753	0.499925	0.460209
C49	C	1.512366	-0.000073	-0.165813
C50	C	2.012366	0.499927	0.334187
N51	N	1.507902	0.318762	0.167652
N52	N	2.007902	0.818762	0.667652
C53	C	1.506136	-0.000052	-0.396542
C54	C	2.006136	0.499948	0.103458
C55	C	1.509598	-0.000064	-0.268148
C56	C	2.009598	0.499936	0.231852
C57	C	1.499999	-0.000055	0.375090
C58	C	1.999999	0.499945	0.875090
C59	C	1.503387	-0.000048	0.501113
C60	C	2.003387	0.499952	1.001113
H61	H	1.115339	0.000057	-0.029538
H62	H	1.615339	0.500057	0.470462
H63	H	0.942196	0.186137	0.066193
H64	H	1.442196	0.686137	0.566193
O65	O	1.083298	0.214092	0.284066
O66	O	1.583298	0.714092	0.784066
H67	H	1.188864	0.213247	0.286053
H68	H	1.688864	0.713247	0.786053
O69	O	1.083626	-0.213905	0.284107
O70	O	1.583626	0.286095	0.784107
H71	H	1.189089	-0.212363	0.286775
H72	H	1.689089	0.287637	0.786775
O73	O	0.932242	-0.213935	0.051103
O74	O	1.432242	0.286065	0.551103
H75	H	0.883032	-0.185522	-0.023818
H76	H	1.383032	0.314478	0.476182
O77	O	0.884566	0.000063	0.394319
O78	O	1.384566	0.500063	0.894319
H79	H	0.912456	0.083898	0.439639
H80	H	1.412456	0.583898	0.939639
