data_functionalizedCrystal
_audit_creation_method	'MofGen! by Chris Wilmer'
_symmetry_space_group_name_H-M	'P1'
_symmetry_Int_Tables_number	1
_symmetry_cell_setting	triclinic
loop_
_symmetry_equiv_pos_as_xyz
  x,y,z
_cell_length_a	14.044220
_cell_length_b	15.944551
_cell_length_c	13.101039
_cell_angle_alpha	93.361595
_cell_angle_beta	86.340132
_cell_angle_gamma	88.343808
loop_
_atom_site_label
_atom_site_type_symbol
_atom_site_fract_x
_atom_site_fract_y
_atom_site_fract_z
O1	O	1.262927	0.198266	-0.085109
O2	O	0.986959	0.190957	-0.085135
O3	O	1.132479	0.072901	-0.085112
O4	O	1.117408	0.316322	-0.085132
O5	O	1.122038	0.081387	0.085316
O6	O	0.976518	0.199443	0.085293
O7	O	1.252486	0.206752	0.085319
Zn8	Zn	1.112845	0.204444	0.112365
Zn9	Zn	1.126601	0.193264	-0.112181
O10	O	1.106967	0.324807	0.085296
C11	C	0.946424	0.192001	0.000076
C12	C	0.841198	0.182459	0.000066
C13	C	0.648535	0.165017	0.000088
C14	C	0.590906	0.232688	0.000087
C15	C	0.483701	0.222982	0.000099
C16	C	0.755749	0.174721	0.000076
C17	C	1.126633	0.045803	0.000102
C18	C	1.124757	-0.047583	0.000102
C19	C	1.030074	-0.269531	0.000079
C20	C	1.068894	-0.323071	0.084115
C21	C	1.121364	-0.218563	0.000094
C22	C	1.079209	-0.331419	-0.083914
C23	C	1.118080	-0.383723	0.000082
C24	C	1.160204	-0.270871	0.084199
C25	C	1.170512	-0.279217	-0.083905
C26	C	1.209397	-0.332734	0.000151
C27	C	1.123253	-0.123419	0.000102
C28	C	1.116197	-0.478865	0.000081
C29	C	1.293021	0.205707	0.000106
C30	C	1.398248	0.215249	0.000108
C31	C	1.112813	0.351905	0.000079
C32	C	1.114689	0.445291	0.000072
N33	N	1.103463	0.212075	0.265612
N34	N	1.135990	0.185628	-0.265429
C35	C	1.090699	0.222464	0.474653
C36	C	1.148750	0.175242	0.525537
C37	C	1.141649	0.181022	0.641855
C38	C	1.097800	0.216684	0.358325
H39	H	1.025929	-0.342534	0.155153
C40	C	0.632339	0.319704	-0.000102
C41	C	0.606878	0.358843	-0.087779
C42	C	0.645020	0.439004	-0.087988
H43	H	0.699915	0.314879	-0.000165
H44	H	0.607891	0.352364	0.059293
H45	H	0.631331	0.326191	-0.147159
H46	H	0.539309	0.363690	-0.087735
H47	H	0.620571	0.471664	-0.028593
H48	H	0.712595	0.434171	-0.088048
H49	H	0.627743	0.465573	-0.147471
C50	C	0.606932	0.078062	-0.000120
C51	C	0.556190	0.064211	-0.087812
C52	C	0.517850	-0.015884	-0.088050
H53	H	0.565124	0.074338	0.059244
H54	H	0.657162	0.036845	-0.000181
H55	H	0.505966	0.105417	-0.087743
H56	H	0.597977	0.067919	-0.147191
H57	H	0.568080	-0.057101	-0.088111
H58	H	0.476047	-0.019602	-0.028682
H59	H	0.483425	-0.025296	-0.147552
H60	H	1.035671	0.267230	0.518441
C61	C	0.929001	-0.232707	0.000387
C62	C	0.876238	-0.254717	0.088573
C63	C	0.783133	-0.220799	0.088903
H64	H	0.899744	-0.254247	-0.058636
H65	H	0.930892	-0.173221	-0.000169
H66	H	0.874342	-0.314190	0.089119
H67	H	0.905464	-0.233177	0.147611
H68	H	0.785024	-0.161313	0.088348
H69	H	0.753886	-0.242342	0.029876
H70	H	0.747324	-0.235721	0.148741
C71	C	1.205764	-0.235485	0.179001
C72	C	1.206927	-0.147763	0.177936
C73	C	1.248873	-0.115134	0.265257
H74	H	1.269287	-0.257555	0.179341
H75	H	1.169891	-0.250776	0.238624
H76	H	1.242801	-0.132479	0.118329
H77	H	1.143416	-0.125670	0.177611
H78	H	1.213000	-0.130426	0.324880
H79	H	1.312394	-0.137210	0.265589
H80	H	1.249660	-0.055612	0.264550
H81	H	1.285236	-0.360212	0.000205
C82	C	1.227609	-0.253108	-0.178662
C83	C	1.169140	-0.203864	-0.235758
C84	C	1.221700	-0.179786	-0.323056
H85	H	1.250219	-0.301787	-0.219288
H86	H	1.280309	-0.221483	-0.158518
H87	H	1.116457	-0.235488	-0.255904
H88	H	1.146528	-0.155173	-0.195162
H89	H	1.274400	-0.148161	-0.302912
H90	H	1.244308	-0.228469	-0.363673
H91	H	1.182039	-0.146365	-0.361801
C92	C	1.033361	-0.366652	-0.178610
C93	C	0.939512	-0.334466	-0.178223
C94	C	0.897245	-0.366890	-0.265442
H95	H	1.032925	-0.426202	-0.178349
H96	H	1.068782	-0.350916	-0.238306
H97	H	0.904101	-0.350208	-0.118543
H98	H	0.939920	-0.274920	-0.178499
H99	H	0.932666	-0.351153	-0.325137
H100	H	0.896816	-0.426439	-0.265173
H101	H	0.833568	-0.345050	-0.265196
C102	C	1.222017	0.115326	0.467332
C103	C	1.204793	0.032977	0.493472
C104	C	1.272255	-0.022273	0.439917
H105	H	1.284291	0.129849	0.484849
H106	H	1.217175	0.119176	0.395746
H107	H	1.209644	0.029130	0.565042
H108	H	1.142532	0.018428	0.475953
H109	H	1.267413	-0.018423	0.368331
H110	H	1.334524	-0.007743	0.457438
H111	H	1.260572	-0.078154	0.457638
