data_functionalizedCrystal
_audit_creation_method	'MofGen! by Chris Wilmer'
_symmetry_space_group_name_H-M	'P1'
_symmetry_Int_Tables_number	1
_symmetry_cell_setting	triclinic
loop_
_symmetry_equiv_pos_as_xyz
  x,y,z
_cell_length_a	15.995292
_cell_length_b	15.995350
_cell_length_c	14.472310
_cell_angle_alpha	89.998838
_cell_angle_beta	89.985801
_cell_angle_gamma	96.519505
loop_
_atom_site_label
_atom_site_type_symbol
_atom_site_fract_x
_atom_site_fract_y
_atom_site_fract_z
O1	O	1.111027	-0.107689	-0.076861
O2	O	1.444360	0.225644	0.256472
O3	O	1.777694	0.558978	0.589805
O4	O	0.867245	-0.121067	-0.076857
O5	O	1.200578	0.212266	0.256476
O6	O	1.533912	0.545599	0.589810
O7	O	0.995800	0.007511	-0.076858
O8	O	1.329133	0.340844	0.256475
O9	O	1.662467	0.674177	0.589808
O10	O	0.982472	-0.236267	-0.076860
O11	O	1.315805	0.097066	0.256473
O12	O	1.649139	0.430399	0.589807
O13	O	0.995767	0.007503	0.076824
O14	O	1.329100	0.340837	0.410157
O15	O	1.662433	0.674170	0.743490
O16	O	0.867212	-0.121075	0.076825
O17	O	1.200545	0.212258	0.410158
O18	O	1.533879	0.545592	0.743492
O19	O	1.110994	-0.107696	0.076821
O20	O	1.444327	0.225637	0.410154
O21	O	1.777660	0.558970	0.743487
Cu22	Cu	0.989100	-0.114386	0.090855
Cu23	Cu	1.322433	0.218947	0.424189
Cu24	Cu	1.655766	0.552280	0.757522
Cu25	Cu	0.989139	-0.114378	-0.090892
Cu26	Cu	1.322472	0.218956	0.242442
Cu27	Cu	1.655806	0.552289	0.575775
O28	O	0.982439	-0.236275	0.076822
O29	O	1.315772	0.097059	0.410155
O30	O	1.649106	0.430392	0.743489
C31	C	0.836033	-0.120527	-0.000016
C32	C	1.169366	0.212807	0.333318
C33	C	1.502699	0.546140	0.666651
C34	C	0.743080	-0.118894	-0.000014
C35	C	1.076413	0.214439	0.333319
C36	C	1.409747	0.547772	0.666652
C37	C	0.405341	-0.112893	-0.000025
C38	C	0.738675	0.220440	0.333309
C39	C	1.072008	0.553774	0.666642
C40	C	0.428654	-0.205697	-0.000368
C41	C	0.761987	0.127636	0.332965
C42	C	1.095320	0.460969	0.666298
C43	C	0.525329	-0.207461	-0.000018
C44	C	0.858663	0.125872	0.333315
C45	C	1.191996	0.459205	0.666649
C46	C	0.572897	-0.115871	-0.000020
C47	C	0.906231	0.217462	0.333313
C48	C	1.239564	0.550796	0.666647
C49	C	0.543777	-0.069477	0.087737
C50	C	0.877110	0.263856	0.421071
C51	C	1.210443	0.597189	0.754404
C52	C	0.446986	-0.068360	0.087807
C53	C	0.780319	0.264973	0.421140
C54	C	1.113653	0.598307	0.754473
C55	C	0.447168	-0.066457	-0.086958
C56	C	0.780502	0.266877	0.246375
C57	C	1.113835	0.600210	0.579708
C58	C	0.543661	-0.069896	-0.088114
C59	C	0.876994	0.263438	0.245219
C60	C	1.210328	0.596771	0.578552
C61	C	0.667593	-0.117549	-0.000014
C62	C	1.000927	0.215784	0.333319
C63	C	1.334260	0.549118	0.666652
C64	C	0.310646	-0.111212	-0.000024
C65	C	0.643979	0.222121	0.333309
C66	C	0.977312	0.555454	0.666643
C67	C	0.995232	0.038702	-0.000019
C68	C	1.328566	0.372035	0.333314
C69	C	1.661899	0.705368	0.666647
C70	C	0.993580	0.131652	-0.000024
C71	C	1.326914	0.464985	0.333309
C72	C	1.660247	0.798318	0.666642
C73	C	1.142206	-0.108237	-0.000023
C74	C	1.475539	0.225096	0.333310
C75	C	1.808873	0.558429	0.666644
C76	C	1.235159	-0.109870	-0.000030
C77	C	1.568492	0.223464	0.333303
C78	C	1.901826	0.556797	0.666636
C79	C	0.983006	-0.267466	-0.000019
C80	C	1.316340	0.065868	0.333314
C81	C	1.649673	0.399201	0.666647
C82	C	0.984658	-0.360416	-0.000020
C83	C	1.317992	-0.027082	0.333313
C84	C	1.651325	0.306251	0.666647
N85	N	0.989078	-0.114392	0.218686
N86	N	1.322412	0.218941	0.552019
N87	N	1.655745	0.552275	0.885353
C88	C	0.987648	0.469398	-0.000021
C89	C	1.320981	0.802731	0.333312
C90	C	1.654315	1.136065	0.666645
C91	C	0.896094	0.421945	-0.000364
C92	C	1.229427	0.755278	0.332969
C93	C	1.562760	1.088612	0.666302
C94	C	0.897746	0.325255	-0.000018
C95	C	1.231079	0.658588	0.333315
C96	C	1.564413	0.991922	0.666649
C97	C	0.990591	0.301838	-0.000023
C98	C	1.323924	0.635171	0.333310
C99	C	1.657257	0.968505	0.666643
C100	C	1.035730	0.342921	0.087734
C101	C	1.369063	0.676254	0.421068
C102	C	1.702396	1.009587	0.754401
C103	C	1.033430	0.439556	0.087808
C104	C	1.366763	0.772889	0.421141
C105	C	1.700096	1.106223	0.754474
C106	C	1.035359	0.439923	-0.086958
C107	C	1.368692	0.773256	0.246376
C108	C	1.702025	1.106590	0.579709
C109	C	1.035337	0.342978	-0.088117
C110	C	1.368671	0.676311	0.245216
C111	C	1.702004	1.009644	0.578549
C112	C	0.992259	0.207141	-0.000021
C113	C	1.325592	0.540474	0.333312
C114	C	1.658925	0.873808	0.666645
C115	C	0.985983	0.564095	-0.000017
C116	C	1.319316	0.897429	0.333316
C117	C	1.652650	1.230762	0.666650
N118	N	0.989167	-0.114365	-0.218722
N119	N	1.322500	0.218968	0.114611
N120	N	1.655834	0.552301	0.447944
C121	C	0.989138	-0.114374	0.592777
C122	C	1.322471	0.218959	0.926111
C123	C	1.655804	0.552293	1.259444
C124	C	0.920120	-0.182943	0.553612
C125	C	1.253453	0.150390	0.886945
C126	C	1.586787	0.483724	1.220279
C127	C	0.920279	-0.183193	0.446524
C128	C	1.253612	0.150140	0.779857
C129	C	1.586946	0.483474	1.113191
C130	C	0.989108	-0.114383	0.407186
C131	C	1.322441	0.218950	0.740520
C132	C	1.655774	0.552284	1.073853
C133	C	1.076475	-0.133447	0.446022
C134	C	1.409808	0.199887	0.779355
C135	C	1.743141	0.533220	1.112688
C136	C	1.076087	-0.133934	0.553143
C137	C	1.409420	0.199399	0.886477
C138	C	1.742753	0.532733	1.219810
C139	C	0.971568	-0.026538	0.553308
C140	C	1.304902	0.306795	0.886641
C141	C	1.638235	0.640128	1.219974
C142	C	0.969564	-0.027124	0.446180
C143	C	1.302898	0.306209	0.779513
C144	C	1.636231	0.639542	1.112847
C145	C	0.989096	-0.114386	0.302298
C146	C	1.322429	0.218947	0.635631
C147	C	1.655763	0.552280	0.968965
C148	C	0.989155	-0.114373	0.697665
C149	C	1.322488	0.218961	1.030999
C150	C	1.655822	0.552294	1.364332
H151	H	0.433175	0.001854	-0.087553
H152	H	0.766509	0.335187	0.245780
H153	H	1.099842	0.668520	0.579113
H154	H	0.862262	0.296829	-0.062926
H155	H	1.195596	0.630162	0.270407
H156	H	1.528929	0.963495	0.603741
H157	H	1.092327	-0.196774	0.419184
H158	H	1.425661	0.136560	0.752517
H159	H	1.758994	0.469893	1.085850
H160	H	0.399622	-0.241273	0.062213
H161	H	0.732955	0.092060	0.395546
H162	H	1.066288	0.425394	0.728879
H163	H	1.103940	0.328809	0.090994
H164	H	1.437273	0.662142	0.424327
H165	H	1.770606	0.995476	0.757661
H166	H	0.576632	-0.003044	-0.093416
H167	H	0.909966	0.330290	0.239917
H168	H	1.243299	0.663623	0.573250
H169	H	0.432435	-0.000316	0.091792
H170	H	0.765768	0.333017	0.425125
H171	H	1.099101	0.666351	0.758459
H172	H	0.931499	-0.248375	0.420889
H173	H	1.264832	0.084958	0.754223
H174	H	1.598166	0.418292	1.087556
H175	H	1.102861	0.471698	-0.087551
H176	H	1.436195	0.805031	0.245782
H177	H	1.769528	1.138365	0.579116
H178	H	0.861997	0.297380	0.062999
H179	H	1.195330	0.630713	0.396332
H180	H	1.528663	0.964046	0.729665
H181	H	0.575644	-0.002079	0.090999
H182	H	0.908978	0.331254	0.424332
H183	H	1.242311	0.664587	0.757666
H184	H	0.562245	-0.103675	-0.153037
H185	H	0.895578	0.229658	0.180297
H186	H	1.228911	0.562992	0.513630
H187	H	1.000486	0.457847	0.153412
H188	H	1.333820	0.791181	0.486745
H189	H	1.667153	1.124514	0.820078
H190	H	1.002335	0.315725	-0.153038
H191	H	1.335668	0.649059	0.180295
H192	H	1.669002	0.982392	0.513629
H193	H	1.103045	0.327630	-0.093420
H194	H	1.436378	0.660963	0.239913
H195	H	1.769711	0.994297	0.573247
H196	H	1.129049	-0.085960	0.579049
H197	H	1.462382	0.247373	0.912382
H198	H	1.795716	0.580707	1.245715
H199	H	1.004351	0.314530	0.153044
H200	H	1.337685	0.647863	0.486377
H201	H	1.671018	0.981196	0.819711
H202	H	0.909244	-0.008203	0.580376
H203	H	1.242577	0.325131	0.913710
H204	H	1.575910	0.658464	1.247043
H205	H	1.091569	-0.197992	0.578118
H206	H	1.424903	0.135342	0.911451
H207	H	1.758236	0.468675	1.244785
H208	H	0.563822	-0.101701	0.153047
H209	H	0.897155	0.231632	0.486381
H210	H	1.230488	0.564966	0.819714
H211	H	0.418855	-0.095461	-0.153473
H212	H	0.752189	0.237873	0.179860
H213	H	1.085522	0.571206	0.513193
H214	H	0.905296	-0.012657	0.420799
H215	H	1.238630	0.320677	0.754132
H216	H	1.571963	0.654010	1.087466
H217	H	1.129060	-0.084832	0.420538
H218	H	1.462394	0.248501	0.753871
H219	H	1.795727	0.581834	1.087204
H220	H	0.855338	-0.171838	0.420269
H221	H	1.188671	0.161496	0.753603
H222	H	1.522004	0.494829	1.086936
H223	H	1.016569	0.026291	0.419406
H224	H	1.349902	0.359624	0.752739
H225	H	1.683235	0.692957	1.086072
H226	H	0.859514	0.440472	-0.063297
H227	H	1.192847	0.773805	0.270037
H228	H	1.526180	1.107139	0.603370
H229	H	1.021900	0.024488	0.578633
H230	H	1.355233	0.357822	0.911967
H231	H	1.688566	0.691155	1.245300
H232	H	0.859649	0.441528	0.062219
H233	H	1.192983	0.774862	0.395552
H234	H	1.526316	1.108195	0.728886
H235	H	0.543719	-0.244020	0.062997
H236	H	0.877052	0.089313	0.396330
H237	H	1.210386	0.422646	0.729663
H238	H	1.100647	0.471818	0.091786
H239	H	1.433980	0.805151	0.425119
H240	H	1.767313	1.138485	0.758452
H241	H	0.854968	-0.171775	0.579401
H242	H	1.188301	0.161558	0.912735
H243	H	1.521635	0.494892	1.246068
H244	H	1.005439	0.460460	-0.153473
H245	H	1.338773	0.793793	0.179861
H246	H	1.672106	1.127126	0.513194
H247	H	0.931185	-0.247758	0.580521
H248	H	1.264518	0.085575	0.913854
H249	H	1.597851	0.418909	1.247188
H250	H	0.544369	-0.243790	-0.062928
H251	H	0.877703	0.089543	0.270405
H252	H	1.211036	0.422876	0.603739
H253	H	0.400671	-0.241465	-0.063303
H254	H	0.734005	0.091868	0.270030
H255	H	1.067338	0.425201	0.603363
H256	H	0.420155	-0.100497	0.153408
H257	H	0.753488	0.232837	0.486742
H258	H	1.086822	0.566170	0.820075
