data_functionalizedCrystal
_audit_creation_method	'MofGen! by Chris Wilmer'
_symmetry_space_group_name_H-M	'P1'
_symmetry_Int_Tables_number	1
_symmetry_cell_setting	triclinic
loop_
_symmetry_equiv_pos_as_xyz
  x,y,z
_cell_length_a	27.440280
_cell_length_b	15.698487
_cell_length_c	27.440280
_cell_angle_alpha	60.007442
_cell_angle_beta	90.008003
_cell_angle_gamma	59.997891
loop_
_atom_site_label
_atom_site_type_symbol
_atom_site_fract_x
_atom_site_fract_y
_atom_site_fract_z
Zr1	Zr	0.469500	0.932289	-0.063879
O2	O	0.391680	1.109999	-0.141696
O3	O	0.493356	0.754578	-0.040025
O4	O	0.493354	0.932268	-0.141686
O5	O	0.391682	0.932326	0.040158
O6	O	0.573557	0.932251	-0.141675
O7	O	0.391681	0.932309	-0.040035
O8	O	0.573560	0.614397	0.040177
O9	O	0.391679	1.250181	-0.141694
O10	O	0.563385	0.827661	-0.029842
O11	O	0.503531	0.827685	0.029998
O12	O	0.503529	1.036892	-0.089695
O13	O	0.443676	1.036917	-0.029855
Zr14	Zr	0.597416	0.932289	0.064037
Zr15	Zr	0.597414	0.932262	-0.063863
Zr16	Zr	0.469502	0.932315	0.064021
Zr17	Zr	0.469500	1.155862	-0.063876
Zr18	Zr	0.597416	0.708716	0.064034
O19	O	0.573560	1.109999	0.040183
O20	O	0.573557	1.109962	-0.141673
O21	O	0.391682	1.110037	0.040160
O22	O	0.675236	0.754578	0.141854
O23	O	0.675233	0.754541	-0.040002
O24	O	0.493359	0.754615	0.141831
O25	O	0.675233	0.932251	-0.040000
O26	O	0.573561	0.932309	0.141843
O27	O	0.493358	0.932326	0.141833
O28	O	0.675235	0.932268	0.040193
O29	O	0.493354	1.250160	-0.141681
O30	O	0.573562	0.614417	0.141839
O31	O	0.675236	0.614397	0.141852
O32	O	0.675235	0.614376	0.040189
O33	O	0.391681	1.250201	-0.040031
O34	O	0.493356	1.250181	-0.040019
O35	O	0.563386	0.827685	0.089852
O36	O	0.623240	0.827661	0.030013
O37	O	0.563385	1.036892	-0.029840
O38	O	0.503531	1.036917	0.030000
C39	C	0.533458	0.652633	0.000075
C40	C	0.533458	0.557720	0.000074
C41	C	0.533457	0.383938	0.000085
C42	C	0.533456	0.480642	0.000080
C43	C	0.373457	0.932321	0.000059
C44	C	0.319154	0.932333	0.000052
C45	C	0.013700	0.823052	0.031338
C46	C	-0.037318	0.823045	0.031343
O47	O	-0.037135	0.730161	0.057931
N48	N	-0.094079	0.932261	0.000100
C49	C	-0.099821	1.041490	-0.031145
O50	O	-0.152785	1.134386	-0.057719
C51	C	-0.048803	1.041496	-0.031147
C52	C	0.007957	0.932273	0.000093
C53	C	0.070457	0.713838	0.062576
C54	C	0.121472	0.713846	0.062569
C55	C	0.115730	0.823066	0.031325
C56	C	0.058972	0.932280	0.000087
C57	C	-0.054545	1.150723	-0.062388
C58	C	-0.003521	1.150719	-0.062386
C59	C	0.053239	1.041497	-0.031146
C60	C	0.104244	1.041508	-0.031163
N61	N	0.161005	0.932292	0.000079
C62	C	0.166748	0.823072	0.031324
C63	C	-0.206959	1.041470	-0.031139
C64	C	-0.257977	1.041466	-0.031141
C65	C	-0.195471	0.823021	0.031348
C66	C	-0.144453	0.823027	0.031346
C67	C	-0.150199	0.932255	0.000104
C68	C	0.273880	0.823095	0.031308
C69	C	0.324896	0.823112	0.031296
C70	C	0.262386	1.041556	-0.031190
C71	C	0.211374	1.041540	-0.031182
C72	C	0.217125	0.932300	0.000072
O73	O	0.104106	1.134345	-0.057736
O74	O	0.219713	0.730192	0.057899
C75	C	0.693459	0.932256	0.000099
C76	C	0.747762	0.932245	0.000106
C77	C	0.533456	0.932256	-0.159903
C78	C	0.533455	0.932245	-0.214200
C79	C	0.533458	1.211944	0.000083
C80	C	0.533458	1.306857	0.000084
C81	C	0.502219	1.041525	-0.582176
C82	C	0.502221	1.041532	-0.633199
O83	O	0.475668	1.134416	-0.686157
N84	N	0.533464	0.932316	-0.627474
C85	C	0.564712	0.823087	-0.570722
O86	O	0.591287	0.730191	-0.570538
C87	C	0.564713	0.823082	-0.519701
C88	C	0.533463	0.932304	-0.525431
C89	C	0.470973	1.150739	-0.587903
C90	C	0.470970	1.150732	-0.536884
C91	C	0.502214	1.041511	-0.480139
C92	C	0.533461	0.932297	-0.474412
C93	C	0.595964	0.713854	-0.462951
C94	C	0.595963	0.713858	-0.411929
C95	C	0.564714	0.823080	-0.417658
C96	C	0.564703	0.823069	-0.366647
N97	N	0.533460	0.932285	-0.372372
C98	C	0.502216	1.041506	-0.429118
C99	C	0.564707	0.823107	-0.677872
C100	C	0.564703	0.823111	-0.728892
C101	C	0.502213	1.041556	-0.791365
C102	C	0.502214	1.041551	-0.740344
C103	C	0.533465	0.932322	-0.683597
C104	C	0.502212	1.041482	-0.321972
C105	C	0.502211	1.041466	-0.270946
C106	C	0.564703	0.823021	-0.208477
C107	C	0.564702	0.823037	-0.259499
C108	C	0.533456	0.932278	-0.316248
O109	O	0.591244	0.730232	-0.313670
O110	O	0.475652	1.134386	-0.429291
C111	C	0.533460	0.932321	0.160061
C112	C	0.533461	0.932333	0.214358
C113	C	0.693459	0.652600	0.000095
C114	C	0.747762	0.557676	0.000101
C115	C	0.533460	0.652666	0.160058
C116	C	0.533461	0.557764	0.214353
C117	C	0.693461	0.652633	0.160078
C118	C	0.747765	0.557720	0.214380
C119	C	0.373454	1.211944	-0.159920
C120	C	0.319150	1.306857	-0.214222
C121	C	0.373457	1.211977	0.000063
C122	C	0.319154	1.306901	0.000057
C123	C	0.533455	1.211912	-0.159900
C124	C	0.533454	1.306813	-0.214195
C125	C	0.742020	0.513099	-0.031145
C126	C	0.793038	0.423921	-0.031152
C127	C	0.849799	0.379315	0.000091
C128	C	0.855540	0.423901	0.031339
C129	C	0.804522	0.513084	0.031342
C130	C	0.564705	0.513198	0.271100
C131	C	0.564704	0.424040	0.322121
C132	C	0.533461	0.379445	0.316394
C133	C	0.502213	0.424020	0.259641
C134	C	0.502212	0.513182	0.208621
C135	C	0.804515	0.513136	0.208645
C136	C	0.855544	0.423968	0.259663
C137	C	0.849822	0.379380	0.316415
C138	C	0.793066	0.423973	0.322149
C139	C	0.742038	0.513146	0.271131
C140	C	0.262400	1.351452	-0.208487
C141	C	0.211371	1.440648	-0.259505
C142	C	0.217094	1.485241	-0.316257
C143	C	0.273850	1.440641	-0.321991
C144	C	0.324877	1.351453	-0.270973
C145	C	0.324896	1.351487	0.031298
C146	C	0.273878	1.440691	0.031291
C147	C	0.217117	1.485299	0.000045
C148	C	0.211376	1.440709	-0.031200
C149	C	0.262394	1.351514	-0.031195
C150	C	0.564703	1.351380	-0.208449
C151	C	0.564714	1.440538	-0.259460
C152	C	0.533472	1.485134	-0.316217
C153	C	0.502223	1.440558	-0.321962
C154	C	0.502216	1.351395	-0.270951
H155	H	0.371113	0.734166	0.056738
Br156	Br	0.281684	1.501184	0.073699
H157	H	0.476787	1.476882	-0.368180
H158	H	-0.304189	1.130406	-0.056588
Br159	Br	0.607105	0.674806	-0.251724
H160	H	0.901761	0.387570	0.056776
Br161	Br	0.665022	0.573638	0.278926
H162	H	0.371109	1.315173	0.056746
Br163	Br	0.459804	1.189786	-0.748126
Br164	Br	0.607124	1.501020	-0.251650
Br165	Br	0.785310	0.363449	0.399174
Br166	Br	0.607116	0.363562	0.399134
H167	H	0.371084	1.315144	-0.275650
H168	H	0.175580	1.557928	0.000047
Br169	Br	-0.011324	1.298967	-0.104786
Br170	Br	0.638384	0.565610	-0.334915
Br171	Br	0.607107	1.290878	-0.131428
Br172	Br	0.812327	0.573565	0.073755
Br173	Br	0.078267	0.565589	0.104987
H174	H	0.476767	1.315119	-0.275638
Br175	Br	0.533487	1.606144	-0.385441
H176	H	0.891377	0.306770	0.357951
H177	H	0.165154	1.477044	-0.056639
H178	H	0.257730	1.315150	-0.162281
H179	H	0.476771	0.549457	0.162418
H180	H	0.533468	0.306843	0.357942
H181	H	0.476776	0.387697	0.254987
Br182	Br	0.281693	0.674839	0.073722
H183	H	0.901753	0.387668	0.254983
Br184	Br	0.198498	0.565607	0.104973
Br185	Br	0.638376	0.565613	-0.455159
H186	H	0.476771	1.130490	-0.837578
H187	H	0.165163	1.476946	-0.254824
Br188	Br	0.134341	1.189771	-0.073593
H189	H	0.175539	1.557863	-0.357793
Br190	Br	0.785232	0.363428	-0.073561
H191	H	-0.098239	0.734088	0.056790
H192	H	-0.190803	0.734087	0.056787
H193	H	-0.211646	1.130423	-0.056583
Br194	Br	0.812298	0.573634	0.131631
H195	H	0.445530	1.239684	-0.634106
Br196	Br	0.281605	1.501170	-0.399016
Br197	Br	0.254589	1.291009	-0.073595
H198	H	0.695807	0.549416	-0.056595
Br199	Br	-0.131566	1.298964	-0.104783
H200	H	0.590142	0.734171	-0.724219
Br201	Br	0.607114	0.573694	0.278888
Br202	Br	0.254605	1.189777	-0.073581
H203	H	0.476761	1.130412	-0.275618
H204	H	0.590139	0.734096	-0.162266
Br205	Br	0.428545	1.298971	-0.544671
Br206	Br	0.607115	0.674854	-0.600859
Br207	Br	0.459807	1.189738	-0.398981
Br208	Br	0.919032	0.258279	0.000081
