data_functionalizedCrystal
_audit_creation_method	'MofGen! by Chris Wilmer'
_symmetry_space_group_name_H-M	'P1'
_symmetry_Int_Tables_number	1
_symmetry_cell_setting	triclinic
loop_
_symmetry_equiv_pos_as_xyz
  x,y,z
_cell_length_a	18.215407
_cell_length_b	18.215405
_cell_length_c	18.215399
_cell_angle_alpha	90.029767
_cell_angle_beta	89.985640
_cell_angle_gamma	89.975026
loop_
_atom_site_label
_atom_site_type_symbol
_atom_site_fract_x
_atom_site_fract_y
_atom_site_fract_z
Zn1	Zn	1.125037	0.293025	-0.416070
Zn2	Zn	1.625037	0.793025	0.083930
Zn3	Zn	1.124946	0.416101	-0.293005
Zn4	Zn	1.624946	0.916101	0.206995
Zn5	Zn	1.001976	0.293047	-0.293023
Zn6	Zn	1.501976	0.793047	0.206977
Zn7	Zn	1.001929	0.416048	-0.416036
Zn8	Zn	1.501929	0.916048	0.083964
O9	O	1.063472	0.354555	-0.354534
O10	O	1.563472	0.854555	0.145466
O11	O	1.228009	0.309363	-0.399753
O12	O	1.728009	0.809363	0.100247
O13	O	1.108615	0.399809	-0.190023
O14	O	1.608615	0.899809	0.309977
O15	O	1.018357	0.190060	-0.309368
O16	O	1.518357	0.690060	0.190632
O17	O	1.227942	0.399787	-0.309337
O18	O	1.727942	0.899787	0.190663
O19	O	1.108770	0.190043	-0.399770
O20	O	1.608770	0.690043	0.100230
O21	O	1.018269	0.309402	-0.190036
O22	O	1.518269	0.809402	0.309964
O23	O	0.898985	0.309351	-0.309334
O24	O	1.398985	0.809351	0.190666
O25	O	1.018278	0.399697	-0.519025
O26	O	1.518278	0.899697	-0.019025
O27	O	0.898951	0.399720	-0.399711
O28	O	1.398951	0.899720	0.100289
O29	O	1.108725	0.309312	-0.519050
O30	O	1.608725	0.809312	-0.019050
O31	O	1.108570	0.519078	-0.309304
O32	O	1.608570	1.019078	0.190696
O33	O	1.018190	0.519040	-0.399693
O34	O	1.518190	1.019040	0.100307
C35	C	0.872266	0.354533	-0.354521
C36	C	1.372266	0.854533	0.145479
C37	C	0.790467	0.354541	-0.354533
C38	C	1.290467	0.854541	0.145467
C39	C	0.602306	0.307554	-0.401686
C40	C	1.102306	0.807554	0.098314
C41	C	0.525448	0.307560	-0.401689
C42	C	1.025448	0.807560	0.098311
C43	C	0.525389	0.401577	-0.307394
C44	C	1.025389	0.901577	0.192606
C45	C	0.602246	0.401567	-0.307388
C46	C	1.102246	0.901567	0.192612
C47	C	0.640703	0.354556	-0.354539
C48	C	1.140703	0.854556	0.145461
C49	C	0.486987	0.354573	-0.354547
C50	C	0.986987	0.854573	0.145453
C51	C	0.403653	0.354580	-0.354549
C52	C	0.903653	0.854580	0.145451
C53	C	0.724042	0.354548	-0.354536
C54	C	1.224042	0.854548	0.145464
C55	C	1.063385	0.545762	-0.354509
C56	C	1.563385	1.045762	0.145491
C57	C	1.063416	0.627560	-0.354523
C58	C	1.563416	1.127560	0.145477
C59	C	1.110512	0.892552	-0.401663
C60	C	1.610512	1.392552	0.098337
C61	C	1.110494	0.815693	-0.401653
C62	C	1.610494	1.315693	0.098347
C63	C	1.016430	0.815818	-0.307431
C64	C	1.516430	1.315818	0.192569
C65	C	1.016451	0.892675	-0.307438
C66	C	1.516451	1.392675	0.192562
C67	C	1.063491	0.931040	-0.354558
C68	C	1.563491	1.431040	0.145442
C69	C	1.063452	0.777324	-0.354541
C70	C	1.563452	1.277324	0.145459
C71	C	1.063433	0.693990	-0.354530
C72	C	1.563433	1.193990	0.145470
C73	C	1.063512	1.014379	-0.354569
C74	C	1.563512	1.514379	0.145431
C75	C	1.255425	0.354579	-0.354547
C76	C	1.755425	0.854579	0.145453
C77	C	1.337224	0.354588	-0.354553
C78	C	1.837224	0.854588	0.145447
C79	C	1.063507	0.354497	-0.546487
C80	C	1.563507	0.854497	-0.046487
C81	C	1.063521	0.354471	-0.628286
C82	C	1.563521	0.854471	-0.128286
C83	C	1.063555	1.162602	-0.354571
C84	C	1.563555	1.662602	0.145429
C85	C	1.063528	1.080804	-0.354577
C86	C	1.563528	1.580804	0.145423
C87	C	1.016518	0.307365	-0.816487
C88	C	1.516518	0.807365	-0.316487
C89	C	1.016531	0.307350	-0.893346
C90	C	1.516531	0.807350	-0.393346
C91	C	1.110613	0.401490	-0.893322
C92	C	1.610613	0.901490	-0.393322
C93	C	1.110596	0.401508	-0.816464
C94	C	1.610596	0.901508	-0.316464
C95	C	1.063549	0.354441	-0.778049
C96	C	1.563549	0.854441	-0.278049
C97	C	1.063579	0.354409	-0.931765
C98	C	1.563579	0.854409	-0.431765
C99	C	1.063593	0.354393	-1.015099
C100	C	1.563593	0.854393	-0.515099
C101	C	1.063534	0.354458	-0.694710
C102	C	1.563534	0.854458	-0.194710
C103	C	1.063480	0.354561	-0.163327
C104	C	1.563480	0.854561	0.336673
C105	C	1.063607	0.354379	-0.081529
C106	C	1.563607	0.854379	0.418471
H107	H	0.633510	0.439842	-0.268991
H108	H	1.133510	0.939842	0.231009
H109	H	1.148896	0.439847	-0.785167
H110	H	1.648896	0.939847	-0.285167
H111	H	0.633616	0.269273	-0.440077
H112	H	1.133616	0.769273	0.059923
H113	H	1.148916	0.439810	-0.924609
H114	H	1.648916	0.939810	-0.424609
C115	C	1.162260	0.934754	-0.453488
C116	C	1.662260	1.434754	0.046512
C117	C	1.213985	0.892414	-0.505299
C118	C	1.713985	1.392414	-0.005299
C119	C	1.265737	0.934614	-0.557123
C120	C	1.765737	1.434614	-0.057123
C121	C	1.265764	1.019154	-0.557136
C122	C	1.765764	1.519154	-0.057136
C123	C	1.214037	1.061499	-0.505323
C124	C	1.714037	1.561499	-0.005323
C125	C	1.162285	1.019299	-0.453499
C126	C	1.662285	1.519299	0.046501
H127	H	1.213967	0.829828	-0.505291
H128	H	1.713967	1.329828	-0.005291
H129	H	1.304028	0.903267	-0.595479
H130	H	1.804028	1.403267	-0.095479
H131	H	1.304073	1.050393	-0.595500
H132	H	1.804073	1.550393	-0.095500
H133	H	1.214055	1.124084	-0.505331
H134	H	1.714055	1.624084	-0.005331
H135	H	1.123993	1.050646	-0.415144
H136	H	1.623993	1.550646	0.084856
C137	C	0.964763	0.255599	-0.774230
C138	C	1.464763	0.755599	-0.274230
C139	C	0.906958	0.287497	-0.721381
C140	C	1.406958	0.787497	-0.221381
C141	C	0.855198	0.235732	-0.679127
C142	C	1.355198	0.735732	-0.179127
C143	C	0.861244	0.152068	-0.689721
C144	C	1.361244	0.652068	-0.189721
C145	C	0.919051	0.120165	-0.742572
C146	C	1.419051	0.620165	-0.242572
C147	C	0.970810	0.171931	-0.784827
C148	C	1.470810	0.671931	-0.284827
H149	H	0.902480	0.349434	-0.713536
H150	H	1.402480	0.849434	-0.213536
H151	H	0.812406	0.259349	-0.640003
H152	H	1.312406	0.759349	-0.140003
H153	H	0.822928	0.113748	-0.658442
H154	H	1.322928	0.613748	-0.158442
H155	H	0.923529	0.058228	-0.750417
H156	H	1.423529	0.558228	-0.250417
H157	H	1.013603	0.148314	-0.823951
H158	H	1.513603	0.648314	-0.323951
C159	C	0.483209	0.255863	-0.453556
C160	C	0.983209	0.755863	0.046444
C161	C	0.430380	0.198049	-0.421776
C162	C	0.930380	0.698049	0.078224
C163	C	0.388141	0.146349	-0.473646
C164	C	0.888141	0.646349	0.026354
C165	C	0.398731	0.152464	-0.557296
C166	C	0.898731	0.652464	-0.057296
C167	C	0.451563	0.210280	-0.589081
C168	C	0.951563	0.710280	-0.089081
C169	C	0.493802	0.261979	-0.537211
C170	C	0.993802	0.761979	-0.037211
H171	H	0.422539	0.193521	-0.359849
H172	H	0.922539	0.693521	0.140151
H173	H	0.349032	0.103550	-0.450116
H174	H	0.849032	0.603550	0.049884
H175	H	0.367464	0.114193	-0.595693
H176	H	0.867464	0.614193	-0.095693
H177	H	0.459404	0.214808	-0.651007
H178	H	0.959404	0.714808	-0.151007
H179	H	0.532911	0.304778	-0.560740
H180	H	1.032911	0.804778	-0.060740
H181	H	0.494068	0.439852	-0.269006
H182	H	0.994068	0.939852	0.230994
H183	H	1.148784	0.784358	-0.440009
H184	H	1.648784	1.284358	0.059991
H185	H	0.978130	0.784573	-0.269068
H186	H	1.478130	1.284573	0.230932
C187	C	0.964723	0.935018	-0.255621
C188	C	1.464723	1.435018	0.244379
C189	C	0.912973	0.892822	-0.203798
C190	C	1.412973	1.392822	0.296202
C191	C	0.861249	0.935166	-0.151983
C192	C	1.361249	1.435166	0.348017
C193	C	0.861275	1.019706	-0.151990
C194	C	1.361275	1.519706	0.348010
C195	C	0.913027	1.061907	-0.203815
C196	C	1.413027	1.561907	0.296185
C197	C	0.964751	1.019563	-0.255630
C198	C	1.464751	1.519563	0.244370
H199	H	0.912952	0.830236	-0.203791
H200	H	1.412952	1.330236	0.296209
H201	H	0.822939	0.903925	-0.113619
H202	H	1.322939	1.403925	0.386381
H203	H	0.822986	1.051051	-0.113633
H204	H	1.322986	1.551051	0.386367
H205	H	0.913048	1.124493	-0.203822
H206	H	1.413048	1.624493	0.296178
H207	H	1.003061	1.050804	-0.293994
H208	H	1.503061	1.550804	0.206006
C209	C	0.964799	0.255561	-0.935628
C210	C	1.464799	0.755561	-0.435628
C211	C	0.913053	0.203792	-0.893370
C212	C	1.413053	0.703792	-0.393370
C213	C	0.861318	0.152001	-0.935651
C214	C	1.361318	0.652001	-0.435651
C215	C	0.861330	0.151980	-1.020191
C216	C	1.361330	0.651980	-0.520191
C217	C	0.913078	0.203751	-1.062455
C218	C	1.413078	0.703751	-0.562455
C219	C	0.964812	0.255542	-1.020173
C220	C	1.464812	0.755542	-0.520173
H221	H	0.913043	0.203806	-0.830784
H222	H	1.413043	0.703806	-0.330784
H223	H	0.823011	0.113677	-0.904365
H224	H	1.323011	0.613677	-0.404365
H225	H	0.823032	0.113641	-1.051491
H226	H	1.323032	0.613641	-0.551491
H227	H	0.913088	0.203737	-1.125041
H228	H	1.413088	0.703737	-0.625041
H229	H	1.003120	0.293867	-1.051459
H230	H	1.503120	0.793867	-0.551459
