data_functionalizedCrystal
_audit_creation_method	'MofGen! by Chris Wilmer'
_symmetry_space_group_name_H-M	'P1'
_symmetry_Int_Tables_number	1
_symmetry_cell_setting	triclinic
loop_
_symmetry_equiv_pos_as_xyz
  x,y,z
_cell_length_a	16.120530
_cell_length_b	19.121063
_cell_length_c	16.120297
_cell_angle_alpha	84.820568
_cell_angle_beta	89.871860
_cell_angle_gamma	89.687057
loop_
_atom_site_label
_atom_site_type_symbol
_atom_site_fract_x
_atom_site_fract_y
_atom_site_fract_z
Zn1	Zn	1.228532	-0.355748	0.551587
Zn2	Zn	1.561866	-0.022415	0.884920
Zn3	Zn	1.895199	0.310918	1.218253
Zn4	Zn	1.229542	-0.467532	0.417878
Zn5	Zn	1.562875	-0.134198	0.751211
Zn6	Zn	1.896208	0.199135	1.084544
Zn7	Zn	1.097153	-0.343883	0.404937
Zn8	Zn	1.430487	-0.010549	0.738270
Zn9	Zn	1.763820	0.322784	1.071604
Zn10	Zn	1.083532	-0.466885	0.549816
Zn11	Zn	1.416866	-0.133552	0.883149
Zn12	Zn	1.750199	0.199782	1.216483
O13	O	1.159690	-0.408512	0.481054
O14	O	1.493023	-0.075179	0.814388
O15	O	1.826357	0.258155	1.147721
O16	O	1.344754	-0.375813	0.540007
O17	O	1.678087	-0.042480	0.873340
O18	O	2.011421	0.290854	1.206673
O19	O	1.218103	-0.446434	0.299571
O20	O	1.551436	-0.113101	0.632904
O21	O	1.884770	0.220232	0.966238
O22	O	1.119859	-0.247198	0.419716
O23	O	1.453192	0.086135	0.753049
O24	O	1.786525	0.419469	1.086382
O25	O	1.345496	-0.457940	0.441771
O26	O	1.678829	-0.124607	0.775105
O27	O	2.012162	0.208727	1.108438
O28	O	1.216382	-0.255916	0.527458
O29	O	1.549716	0.077418	0.860792
O30	O	1.883049	0.410751	1.194125
O31	O	1.120838	-0.355590	0.290063
O32	O	1.454171	-0.022256	0.623397
O33	O	1.787504	0.311077	0.956730
O34	O	0.979258	-0.354963	0.417999
O35	O	1.312592	-0.021629	0.751332
O36	O	1.645925	0.311704	1.084665
O37	O	1.096644	-0.456838	0.666641
O38	O	1.429978	-0.123504	0.999974
O39	O	1.763311	0.209829	1.333308
O40	O	0.969251	-0.445332	0.524441
O41	O	1.302585	-0.111999	0.857774
O42	O	1.635918	0.221335	1.191107
O43	O	1.203175	-0.375186	0.667942
O44	O	1.536508	-0.041853	1.001275
O45	O	1.869842	0.291481	1.334609
O46	O	1.204895	-0.565705	0.440054
O47	O	1.538229	-0.232371	0.773388
O48	O	1.871562	0.100962	1.106721
O49	O	1.097623	-0.565230	0.536989
O50	O	1.430956	-0.231896	0.870322
O51	O	1.764290	0.101437	1.203656
C52	C	0.944155	-0.398790	0.469624
C53	C	1.277488	-0.065457	0.802957
C54	C	1.610821	0.267877	1.136290
C55	C	0.851946	-0.394649	0.464754
C56	C	1.185279	-0.061316	0.798088
C57	C	1.518612	0.272018	1.131421
C58	C	0.683119	-0.387072	0.455870
C59	C	1.016452	-0.053738	0.789204
C60	C	1.349785	0.279595	1.122537
C61	C	0.637096	-0.430006	0.506302
C62	C	0.970429	-0.096673	0.839635
C63	C	1.303762	0.236660	1.172968
C64	C	0.543155	-0.425790	0.501358
C65	C	0.876488	-0.092457	0.834692
C66	C	1.209821	0.240876	1.168025
C67	C	0.777068	-0.391287	0.460812
C68	C	1.110402	-0.057953	0.794146
C69	C	1.443735	0.275380	1.127479
C70	C	1.149912	-0.590946	0.489753
C71	C	1.483246	-0.257613	0.823086
C72	C	1.816579	0.075720	1.156420
C73	C	1.145804	-0.668997	0.493506
C74	C	1.479137	-0.335664	0.826840
C75	C	1.812470	-0.002330	1.160173
C76	C	1.199763	-0.705893	0.444847
C77	C	1.533097	-0.372560	0.778181
C78	C	1.866430	-0.039226	1.111514
C79	C	1.195904	-0.779230	0.448382
C80	C	1.529237	-0.445897	0.781716
C81	C	1.862571	-0.112564	1.115049
C82	C	1.138080	-0.815670	0.500573
C83	C	1.471414	-0.482336	0.833906
C84	C	1.804747	-0.149003	1.167239
C85	C	1.084118	-0.778769	0.549237
C86	C	1.417452	-0.445435	0.882570
C87	C	1.750785	-0.112102	1.215904
C88	C	1.087982	-0.705433	0.545706
C89	C	1.421316	-0.372100	0.879039
C90	C	1.754649	-0.038766	1.212373
C91	C	1.123621	-1.037085	0.513761
C92	C	1.456955	-0.703752	0.847095
C93	C	1.790288	-0.370418	1.180428
C94	C	1.119760	-1.110426	0.517287
C95	C	1.453093	-0.777092	0.850620
C96	C	1.786426	-0.443759	1.183954
C97	C	1.231547	-1.110882	0.416433
C98	C	1.564880	-0.777549	0.749766
C99	C	1.898214	-0.444215	1.083100
C100	C	1.235403	-1.037545	0.412903
C101	C	1.568736	-0.704211	0.746236
C102	C	1.902069	-0.370878	1.079569
C103	C	1.181443	-1.000650	0.461570
C104	C	1.514777	-0.667317	0.794904
C105	C	1.848110	-0.333984	1.128237
C106	C	1.134132	-0.890632	0.504185
C107	C	1.467466	-0.557299	0.837519
C108	C	1.800799	-0.223966	1.170852
C109	C	1.185396	-0.925690	0.457962
C110	C	1.518729	-0.592356	0.791295
C111	C	1.852063	-0.259023	1.124628
C112	C	1.376067	-0.418272	0.492530
C113	C	1.709400	-0.084939	0.825863
C114	C	2.042734	0.248394	1.159197
C115	C	1.468274	-0.422431	0.497420
C116	C	1.801607	-0.089098	0.830754
C117	C	2.134940	0.244235	1.164087
C118	C	1.148278	-0.417263	0.698367
C119	C	1.481611	-0.083930	1.031701
C120	C	1.814944	0.249403	1.365034
C121	C	1.143414	-0.420993	0.790973
C122	C	1.476748	-0.087659	1.124306
C123	C	1.810081	0.245674	1.457640
C124	C	1.169527	-0.225367	0.472341
C125	C	1.502861	0.107966	0.805674
C126	C	1.836194	0.441300	1.139008
C127	C	1.173720	-0.147322	0.468628
C128	C	1.507053	0.186012	0.801961
C129	C	1.840386	0.519345	1.135295
C130	C	1.171108	-0.399746	0.264587
C131	C	1.504442	-0.066413	0.597920
C132	C	1.837775	0.266921	0.931254
C133	C	1.176143	-0.395826	0.171981
C134	C	1.509476	-0.062493	0.505314
C135	C	1.842809	0.270841	0.838647
C136	C	1.134506	-0.427785	0.960523
C137	C	1.467839	-0.094451	1.293856
C138	C	1.801172	0.238882	1.627189
C139	C	1.185049	-0.389036	1.002436
C140	C	1.518382	-0.055703	1.335770
C141	C	1.851715	0.277630	1.669103
C142	C	1.180092	-0.392815	1.096780
C143	C	1.513425	-0.059482	1.430113
C144	C	1.846759	0.273851	1.763446
C145	C	1.139461	-0.424006	0.866171
C146	C	1.472795	-0.090673	1.199504
C147	C	1.806128	0.242660	1.532838
H148	H	1.246846	-0.676228	0.402345
H149	H	1.580179	-0.342895	0.735678
H150	H	1.913513	-0.009562	1.069011
H151	H	1.087516	-0.463794	0.995491
H152	H	1.420849	-0.130460	1.328824
H153	H	1.754183	0.202873	1.662158
H154	H	1.232042	-0.353024	0.967466
H155	H	1.565375	-0.019691	1.300799
H156	H	1.898709	0.313643	1.634132
H157	H	1.072682	-1.140094	0.559802
H158	H	1.406015	-0.806760	0.893135
H159	H	1.739349	-0.473427	1.226468
F160	F	1.253338	-0.818495	0.396595
F161	F	1.586671	-0.485162	0.729928
F162	F	1.920005	-0.151828	1.063262
F163	F	0.642406	-0.334892	0.394588
F164	F	0.975739	-0.001559	0.727921
F165	F	1.309072	0.331774	1.061255
F166	F	1.288974	-1.150153	0.364645
F167	F	1.622307	-0.816820	0.697978
F168	F	1.955640	-0.483487	1.031312
F169	F	0.677809	-0.482186	0.567593
F170	F	1.011142	-0.148853	0.900926
F171	F	1.344475	0.184481	1.234259
F172	F	1.296955	-0.998769	0.357364
F173	F	1.630288	-0.665436	0.690698
F174	F	1.963622	-0.332102	1.024031
H175	H	1.037040	-0.808444	0.591735
H176	H	1.370374	-0.475111	0.925069
H177	H	1.703707	-0.141777	1.258402
F178	F	1.066192	-0.997828	0.565557
F179	F	1.399525	-0.664495	0.898891
F180	F	1.732859	-0.331162	1.232224
F181	F	1.030553	-0.666166	0.597498
F182	F	1.363886	-0.332833	0.930831
F183	F	1.697220	0.000501	1.264165
F184	F	1.246937	-0.886907	0.402422
F185	F	1.580271	-0.553574	0.735756
F186	F	1.913604	-0.220240	1.069089
H187	H	1.087051	-0.920309	0.546677
H188	H	1.420384	-0.586976	0.880010
H189	H	1.753717	-0.253643	1.213344
