data_functionalizedCrystal
_audit_creation_method	'MofGen! by Chris Wilmer'
_symmetry_space_group_name_H-M	'P1'
_symmetry_Int_Tables_number	1
_symmetry_cell_setting	triclinic
loop_
_symmetry_equiv_pos_as_xyz
  x,y,z
_cell_length_a	29.839131
_cell_length_b	25.639242
_cell_length_c	25.639233
_cell_angle_alpha	90.022166
_cell_angle_beta	89.980415
_cell_angle_gamma	89.963053
loop_
_atom_site_label
_atom_site_type_symbol
_atom_site_fract_x
_atom_site_fract_y
_atom_site_fract_z
Zn1	Zn	-0.178962	-0.799215	-0.295739
Zn2	Zn	0.154372	-0.465882	0.037594
Zn3	Zn	0.487705	-0.132548	0.370927
Zn4	Zn	-0.254076	-0.799134	-0.208302
Zn5	Zn	0.079257	-0.465801	0.125031
Zn6	Zn	0.412591	-0.132468	0.458364
Zn7	Zn	-0.178955	-0.711791	-0.208303
Zn8	Zn	0.154378	-0.378458	0.125030
Zn9	Zn	0.487712	-0.045125	0.458363
Zn10	Zn	-0.254059	-0.711732	-0.295692
Zn11	Zn	0.079274	-0.378399	0.037641
Zn12	Zn	0.412607	-0.045066	0.370975
O13	O	-0.216513	-0.755468	-0.252009
O14	O	0.116820	-0.422135	0.081324
O15	O	0.450154	-0.088802	0.414657
O16	O	-0.188935	-0.872370	-0.284160
O17	O	0.144398	-0.539036	0.049174
O18	O	0.477731	-0.205703	0.382507
O19	O	-0.244115	-0.787539	-0.135137
O20	O	0.089218	-0.454206	0.198196
O21	O	0.422551	-0.120872	0.531530
O22	O	-0.116089	-0.723447	-0.219922
O23	O	0.217245	-0.390114	0.113411
O24	O	0.550578	-0.056780	0.446745
O25	O	-0.244122	-0.872310	-0.219920
O26	O	0.089212	-0.538977	0.113413
O27	O	0.422545	-0.205644	0.446746
O28	O	-0.116094	-0.787677	-0.284161
O29	O	0.217240	-0.454343	0.049173
O30	O	0.550573	-0.121010	0.382506
O31	O	-0.188924	-0.723369	-0.135138
O32	O	0.144409	-0.390035	0.198195
O33	O	0.477742	-0.056702	0.531529
O34	O	-0.188908	-0.638618	-0.219876
O35	O	0.144425	-0.305285	0.113457
O36	O	0.477759	0.028048	0.446790
O37	O	-0.244093	-0.723346	-0.368864
O38	O	0.089240	-0.390013	-0.035530
O39	O	0.422573	-0.056680	0.297803
O40	O	-0.244087	-0.638575	-0.284081
O41	O	0.089246	-0.305242	0.049253
O42	O	0.422580	0.028092	0.382586
O43	O	-0.188919	-0.787619	-0.368898
O44	O	0.144414	-0.454286	-0.035565
O45	O	0.477747	-0.120953	0.297769
O46	O	-0.316941	-0.787482	-0.219875
O47	O	0.016392	-0.454149	0.113459
O48	O	0.349726	-0.120815	0.446792
O49	O	-0.316929	-0.723268	-0.284080
O50	O	0.016405	-0.389935	0.049254
O51	O	0.349738	-0.056601	0.382587
C52	C	-0.333236	-0.755374	-0.251983
C53	C	0.000098	-0.422041	0.081350
C54	C	0.333431	-0.088707	0.414683
C55	C	-0.383170	-0.755381	-0.251990
C56	C	-0.049837	-0.422048	0.081344
C57	C	0.283497	-0.088715	0.414677
C58	C	-0.216495	-0.619626	-0.251974
C59	C	0.116838	-0.286292	0.081360
C60	C	0.450171	0.047041	0.414693
C61	C	-0.216499	-0.561512	-0.251971
C62	C	0.116835	-0.228178	0.081362
C63	C	0.450168	0.105155	0.414696
C64	C	-0.216505	-0.755485	-0.388382
C65	C	0.116828	-0.422152	-0.055049
C66	C	0.450162	-0.088819	0.278284
C67	C	-0.216502	-0.755492	-0.446496
C68	C	0.116832	-0.422159	-0.113163
C69	C	0.450165	-0.088826	0.220170
C70	C	-0.692807	-0.788965	-0.218627
C71	C	-0.359474	-0.455632	0.114707
C72	C	-0.026140	-0.122299	0.448040
C73	C	-0.880480	-0.789030	-0.218647
C74	C	-0.547147	-0.455696	0.114686
C75	C	-0.213814	-0.122363	0.448020
O76	O	-0.904740	-0.817509	-0.190260
O77	O	-0.571406	-0.484176	0.143073
O78	O	-0.238073	-0.150843	0.476406
N79	N	-0.903955	-0.755577	-0.252049
N80	N	-0.570622	-0.422243	0.081285
N81	N	-0.237288	-0.088910	0.414618
C82	C	-0.880509	-0.722108	-0.285450
C83	C	-0.547176	-0.388774	0.047883
C84	C	-0.213842	-0.055441	0.381216
O85	O	-0.904782	-0.693659	-0.313865
O86	O	-0.571449	-0.360326	0.019469
O87	O	-0.238115	-0.026992	0.352802
C88	C	-0.692837	-0.722046	-0.285432
C89	C	-0.359503	-0.388713	0.047901
C90	C	-0.026170	-0.055379	0.381235
C91	C	-0.669364	-0.755498	-0.252024
C92	C	-0.336031	-0.422164	0.081309
C93	C	-0.002698	-0.088831	0.414642
C94	C	-0.669335	-0.822415	-0.185222
C95	C	-0.336001	-0.489081	0.148111
C96	C	-0.002668	-0.155748	0.481445
C97	C	-0.622419	-0.822396	-0.185215
C98	C	-0.289086	-0.489063	0.148118
C99	C	0.044247	-0.155729	0.481451
C100	C	-0.598976	-0.788928	-0.218613
C101	C	-0.265643	-0.455595	0.114720
C102	C	0.067690	-0.122262	0.448054
C103	C	-0.622449	-0.755479	-0.252018
C104	C	-0.289115	-0.422146	0.081316
C105	C	0.044218	-0.088812	0.414649
C106	C	-0.669391	-0.688580	-0.318836
C107	C	-0.336058	-0.355247	0.014497
C108	C	-0.002725	-0.021913	0.347831
C109	C	-0.622470	-0.688568	-0.318829
C110	C	-0.289137	-0.355235	0.014504
C111	C	0.044196	-0.021902	0.347837
C112	C	-0.598998	-0.722020	-0.285422
C113	C	-0.265664	-0.388687	0.047912
C114	C	0.067669	-0.055353	0.381245
C115	C	-0.552090	-0.721993	-0.285409
C116	C	-0.218757	-0.388660	0.047925
C117	C	0.114576	-0.055326	0.381258
N118	N	-0.528615	-0.755446	-0.252007
N119	N	-0.195282	-0.422113	0.081326
N120	N	0.138051	-0.088779	0.414660
C121	C	-0.552058	-0.788914	-0.218609
C122	C	-0.218725	-0.455580	0.114724
C123	C	0.114608	-0.122247	0.448058
C124	C	-0.979039	-0.722141	-0.285457
C125	C	-0.645706	-0.388808	0.047877
C126	C	-0.312373	-0.055475	0.381210
C127	C	-1.025957	-0.722156	-0.285461
C128	C	-0.692624	-0.388823	0.047873
C129	C	-0.359291	-0.055489	0.381206
C130	C	-1.025925	-0.789079	-0.218658
C131	C	-0.692592	-0.455746	0.114676
C132	C	-0.359259	-0.122413	0.448009
C133	C	-0.979007	-0.789062	-0.218652
C134	C	-0.645673	-0.455728	0.114682
C135	C	-0.312340	-0.122395	0.448015
C136	C	-0.955565	-0.755595	-0.252055
C137	C	-0.622231	-0.422261	0.081279
C138	C	-0.288898	-0.088928	0.414612
C139	C	-0.453533	-0.788872	-0.218597
C140	C	-0.120199	-0.455539	0.114736
C141	C	0.213134	-0.122205	0.448070
C142	C	-0.406613	-0.788849	-0.218592
C143	C	-0.073280	-0.455516	0.114742
C144	C	0.260054	-0.122182	0.448075
C145	C	-0.406649	-0.721928	-0.285396
C146	C	-0.073316	-0.388595	0.047937
C147	C	0.260018	-0.055261	0.381270
C148	C	-0.453564	-0.721949	-0.285400
C149	C	-0.120231	-0.388616	0.047933
C150	C	0.213102	-0.055282	0.381267
C151	C	-0.477005	-0.755425	-0.251999
C152	C	-0.143672	-0.422092	0.081335
C153	C	0.189662	-0.088758	0.414668
O154	O	-0.527802	-0.693533	-0.313784
O155	O	-0.194469	-0.360199	0.019549
O156	O	0.138865	-0.026866	0.352882
O157	O	-0.527777	-0.817366	-0.190207
O158	O	-0.194444	-0.484033	0.143126
O159	O	0.138889	-0.150700	0.476460
C160	C	-0.739723	-0.788984	-0.218633
C161	C	-0.406389	-0.455650	0.114700
C162	C	-0.073056	-0.122317	0.448033
C163	C	-0.763195	-0.755535	-0.252038
C164	C	-0.429862	-0.422201	0.081295
C165	C	-0.096528	-0.088868	0.414629
C166	C	-0.739752	-0.722067	-0.285436
C167	C	-0.406419	-0.388733	0.047898
C168	C	-0.073085	-0.055400	0.381231
C169	C	-0.810113	-0.755549	-0.252042
C170	C	-0.476780	-0.422216	0.081291
C171	C	-0.143446	-0.088882	0.414625
C172	C	-0.833556	-0.789017	-0.218644
C173	C	-0.500223	-0.455684	0.114689
C174	C	-0.166889	-0.122350	0.448023
C175	C	-0.810081	-0.822470	-0.185242
C176	C	-0.476748	-0.489137	0.148091
C177	C	-0.143414	-0.155803	0.481424
C178	C	-0.763166	-0.822451	-0.185235
C179	C	-0.429832	-0.489118	0.148098
C180	C	-0.096499	-0.155785	0.481431
C181	C	-0.763227	-0.688614	-0.318838
C182	C	-0.429894	-0.355280	0.014496
C183	C	-0.096560	-0.021947	0.347829
C184	C	-0.810143	-0.688635	-0.318841
C185	C	-0.476809	-0.355301	0.014492
C186	C	-0.143476	-0.021968	0.347825
C187	C	-0.833585	-0.722102	-0.285443
C188	C	-0.500252	-0.388769	0.047890
C189	C	-0.166919	-0.055436	0.381223
C190	C	-0.099335	-0.755577	-0.252047
C191	C	0.233999	-0.422244	0.081287
C192	C	0.567332	-0.088911	0.414620
C193	C	-0.049400	-0.755624	-0.252063
C194	C	0.283933	-0.422290	0.081271
C195	C	0.617266	-0.088957	0.414604
C196	C	-0.216531	-0.891841	-0.252045
C197	C	0.116802	-0.558508	0.081288
C198	C	0.450136	-0.225175	0.414622
C199	C	-0.216539	-0.949955	-0.252060
C200	C	0.116794	-0.616622	0.081273
C201	C	0.450128	-0.283289	0.414606
C202	C	-0.245293	-0.201135	-0.285409
C203	C	0.088041	0.132198	0.047925
C204	C	0.421374	0.465532	0.381258
C205	C	-0.245295	-0.146531	-0.285417
C206	C	0.088038	0.186803	0.047916
C207	C	0.421371	0.520136	0.381250
O208	O	-0.269755	-0.118282	-0.313817
O209	O	0.063578	0.215051	0.019517
O210	O	0.396911	0.548384	0.352850
N211	N	-0.216525	-0.119229	-0.252043
N212	N	0.116808	0.214104	0.081290
N213	N	0.450141	0.547437	0.414623
C214	C	-0.187748	-0.146535	-0.218663
C215	C	0.145586	0.186798	0.114670
C216	C	0.478919	0.520132	0.448004
O217	O	-0.163276	-0.118299	-0.190277
O218	O	0.170057	0.215034	0.143056
O219	O	0.503390	0.548368	0.476389
C220	C	-0.187743	-0.201138	-0.218658
C221	C	0.145590	0.132195	0.114676
C222	C	0.478924	0.465528	0.448009
C223	C	-0.216518	-0.228437	-0.252030
C224	C	0.116815	0.104896	0.081303
C225	C	0.450149	0.438230	0.414637
C226	C	-0.274065	-0.228434	-0.318778
C227	C	0.059268	0.104900	0.014555
C228	C	0.392602	0.438233	0.347888
C229	C	-0.274063	-0.283034	-0.318769
C230	C	0.059270	0.050299	0.014564
C231	C	0.392604	0.383633	0.347897
C232	C	-0.245288	-0.310336	-0.285390
C233	C	0.088045	0.022997	0.047943
C234	C	0.421379	0.356331	0.381276
C235	C	-0.216516	-0.283037	-0.252021
C236	C	0.116818	0.050296	0.081313
C237	C	0.450151	0.383629	0.414646
C238	C	-0.158963	-0.228443	-0.185281
C239	C	0.174370	0.104890	0.148053
C240	C	0.507704	0.438224	0.481386
C241	C	-0.158961	-0.283050	-0.185279
C242	C	0.174373	0.050283	0.148055
C243	C	0.507706	0.383617	0.481388
C244	C	-0.187736	-0.310349	-0.218651
C245	C	0.145598	0.022985	0.114683
C246	C	0.478931	0.356318	0.448016
C247	C	-0.187739	-0.364940	-0.218633
C248	C	0.145595	-0.031607	0.114700
C249	C	0.478928	0.301727	0.448034
N250	N	-0.216509	-0.392241	-0.252006
N251	N	0.116825	-0.058908	0.081327
N252	N	0.450158	0.274425	0.414660
C253	C	-0.245283	-0.364939	-0.285385
C254	C	0.088050	-0.031606	0.047948
C255	C	0.421383	0.301727	0.381281
C256	C	-0.187759	-0.031864	-0.218677
C257	C	0.145574	0.301469	0.114656
C258	C	0.478908	0.634802	0.447989
C259	C	-0.187766	0.022738	-0.218679
C260	C	0.145568	0.356071	0.114654
C261	C	0.478901	0.689405	0.447987
C262	C	-0.245313	0.022739	-0.285434
C263	C	0.088020	0.356072	0.047899
C264	C	0.421354	0.689405	0.381233
C265	C	-0.245308	-0.031865	-0.285429
C266	C	0.088025	0.301469	0.047904
C267	C	0.421358	0.634802	0.381238
C268	C	-0.216529	-0.059166	-0.252051
C269	C	0.116804	0.274168	0.081283
C270	C	0.450138	0.607501	0.414616
C271	C	-0.245277	-0.479604	-0.285363
C272	C	0.088057	-0.146271	0.047970
C273	C	0.421390	0.187062	0.381303
C274	C	-0.245273	-0.534210	-0.285350
C275	C	0.088060	-0.200876	0.047984
C276	C	0.421393	0.132457	0.381317
C277	C	-0.187724	-0.534206	-0.218597
C278	C	0.145609	-0.200872	0.114736
C279	C	0.478942	0.132461	0.448069
C280	C	-0.187729	-0.479605	-0.218609
C281	C	0.145604	-0.146272	0.114725
C282	C	0.478937	0.187062	0.448058
C283	C	-0.216507	-0.452306	-0.251996
C284	C	0.116826	-0.118972	0.081337
C285	C	0.450160	0.214361	0.414671
O286	O	-0.163290	-0.393223	-0.190249
O287	O	0.170043	-0.059890	0.143084
O288	O	0.503377	0.273444	0.476418
O289	O	-0.269746	-0.393182	-0.313771
O290	O	0.063587	-0.059849	0.019562
O291	O	0.396920	0.273485	0.352896
C292	C	-0.187687	-0.789002	-0.806883
C293	C	0.145646	-0.455669	-0.473550
C294	C	0.478979	-0.122335	-0.140217
C295	C	-0.187675	-0.789008	-0.861488
C296	C	0.145658	-0.455675	-0.528154
C297	C	0.478992	-0.122342	-0.194821
O298	O	-0.163229	-0.817457	-0.889744
O299	O	0.170105	-0.484124	-0.556411
O300	O	0.503438	-0.150790	-0.223078
N301	N	-0.216396	-0.755550	-0.888779
N302	N	0.116937	-0.422217	-0.555446
N303	N	0.450270	-0.088883	-0.222112
C304	C	-0.245129	-0.722079	-0.861463
C305	C	0.088204	-0.388746	-0.528130
C306	C	0.421538	-0.055413	-0.194797
O307	O	-0.269558	-0.693621	-0.889691
O308	O	0.063776	-0.360287	-0.556358
O309	O	0.397109	-0.026954	-0.223024
C310	C	-0.245139	-0.722071	-0.806860
C311	C	0.088194	-0.388737	-0.473527
C312	C	0.421528	-0.055404	-0.140193
C313	C	-0.216419	-0.755535	-0.779571
C314	C	0.116915	-0.422202	-0.446238
C315	C	0.450248	-0.088868	-0.112905
C316	C	-0.158969	-0.822463	-0.779594
C317	C	0.174364	-0.489130	-0.446261
C318	C	0.507698	-0.155796	-0.112928
C319	C	-0.158982	-0.822457	-0.724994
C320	C	0.174351	-0.489124	-0.391661
C321	C	0.507685	-0.155790	-0.058327
C322	C	-0.187714	-0.788990	-0.697682
C323	C	0.145620	-0.455657	-0.364349
C324	C	0.478953	-0.122323	-0.031015
C325	C	-0.216432	-0.755529	-0.724971
C326	C	0.116901	-0.422196	-0.391637
C327	C	0.450235	-0.088862	-0.058304
C328	C	-0.273869	-0.688598	-0.779545
C329	C	0.059464	-0.355264	-0.446212
C330	C	0.392798	-0.021931	-0.112879
C331	C	-0.273876	-0.688592	-0.724938
C332	C	0.059457	-0.355258	-0.391605
C333	C	0.392791	-0.021925	-0.058272
C334	C	-0.245156	-0.722056	-0.697650
C335	C	0.088177	-0.388722	-0.364316
C336	C	0.421511	-0.055389	-0.030983
C337	C	-0.245176	-0.722056	-0.643058
C338	C	0.088157	-0.388723	-0.309725
C339	C	0.421490	-0.055389	0.023608
N340	N	-0.216455	-0.755514	-0.615767
N341	N	0.116879	-0.422181	-0.282434
N342	N	0.450212	-0.088848	0.050900
C343	C	-0.187723	-0.788981	-0.643079
C344	C	0.145610	-0.455648	-0.309745
C345	C	0.478943	-0.122315	0.023588
C346	C	-0.245106	-0.722100	-0.976134
C347	C	0.088228	-0.388766	-0.642801
C348	C	0.421561	-0.055433	-0.309467
C349	C	-0.245099	-0.722110	-1.030736
C350	C	0.088235	-0.388777	-0.697403
C351	C	0.421568	-0.055444	-0.364070
C352	C	-0.187644	-0.789039	-1.030757
C353	C	0.145690	-0.455706	-0.697423
C354	C	0.479023	-0.122372	-0.364090
C355	C	-0.187653	-0.789030	-0.976153
C356	C	0.145680	-0.455697	-0.642820
C357	C	0.479013	-0.122364	-0.309487
C358	C	-0.216384	-0.755558	-0.948843
C359	C	0.116949	-0.422224	-0.615509
C360	C	0.450282	-0.088891	-0.282176
C361	C	-0.187753	-0.788967	-0.528414
C362	C	0.145580	-0.455633	-0.195080
C363	C	0.478913	-0.122300	0.138253
C364	C	-0.187770	-0.788959	-0.473808
C365	C	0.145563	-0.455626	-0.140475
C366	C	0.478896	-0.122293	0.192859
C367	C	-0.245223	-0.722029	-0.473793
C368	C	0.088110	-0.388696	-0.140459
C369	C	0.421443	-0.055363	0.192874
C370	C	-0.245208	-0.722038	-0.528393
C371	C	0.088125	-0.388705	-0.195060
C372	C	0.421458	-0.055372	0.138274
C373	C	-0.216470	-0.755509	-0.555702
C374	C	0.116864	-0.422175	-0.222369
C375	C	0.450197	-0.088842	0.110964
O376	O	-0.269609	-0.693620	-0.614767
O377	O	0.063725	-0.360287	-0.281433
O378	O	0.397058	-0.026954	0.051900
O379	O	-0.163295	-0.817430	-0.614845
O380	O	0.170039	-0.484097	-0.281511
O381	O	0.503372	-0.150764	0.051822
C382	C	-0.216488	-0.755482	-0.116167
C383	C	0.116845	-0.422148	0.217167
C384	C	0.450178	-0.088815	0.550500
C385	C	-0.216365	-0.755576	-0.058053
C386	C	0.116968	-0.422242	0.275280
C387	C	0.450301	-0.088909	0.608614
H388	H	-0.387503	-0.816089	-0.191385
H389	H	-0.054170	-0.482756	0.141948
H390	H	0.279164	-0.149423	0.475281
H391	H	-0.135594	-0.849706	-0.702780
H392	H	0.197739	-0.516373	-0.369447
H393	H	0.531072	-0.183039	-0.036114
H394	H	-0.164350	-0.816220	-0.550642
H395	H	0.168983	-0.482887	-0.217309
H396	H	0.502317	-0.149553	0.116024
N397	N	-0.158377	0.050611	-0.184579
N398	N	0.174957	0.383945	0.148754
N399	N	0.508290	0.717278	0.482088
N400	N	-0.132690	0.026221	-0.154779
N401	N	0.200643	0.359555	0.178555
N402	N	0.533976	0.692888	0.511888
H403	H	-0.111932	0.045905	-0.130695
H404	H	0.221402	0.379238	0.202638
H405	H	0.554735	0.712571	0.535971
H406	H	-0.268617	-0.694783	-0.451545
H407	H	0.064716	-0.361450	-0.118212
H408	H	0.398049	-0.028116	0.215121
N409	N	-0.477465	-0.823069	-0.184475
N410	N	-0.144132	-0.489736	0.148858
N411	N	0.189202	-0.156402	0.482192
N412	N	-0.456494	-0.852928	-0.154653
N413	N	-0.123161	-0.519594	0.178681
N414	N	0.210172	-0.186261	0.512014
H415	H	-0.473396	-0.877077	-0.130551
H416	H	-0.140063	-0.543743	0.202783
H417	H	0.193270	-0.210410	0.536116
N418	N	-1.049931	-0.687974	-0.319574
N419	N	-0.716597	-0.354640	0.013760
N420	N	-0.383264	-0.021307	0.347093
N421	N	-1.044727	-0.639730	-0.316051
N422	N	-0.711394	-0.306397	0.017282
N423	N	-0.378061	0.026937	0.350616
H424	H	-1.061657	-0.615588	-0.340146
H425	H	-0.728324	-0.282255	-0.006812
H426	H	-0.394991	0.051078	0.326521
H427	H	-0.688495	-0.661337	-0.346038
H428	H	-0.355161	-0.328004	-0.012704
H429	H	-0.021828	0.005329	0.320629
N430	N	-0.303225	-0.654393	-0.697050
N431	N	0.030108	-0.321059	-0.363717
N432	N	0.363442	0.012274	-0.030383
N433	N	-0.328862	-0.624518	-0.721426
N434	N	0.004471	-0.291185	-0.388092
N435	N	0.337804	0.042148	-0.054759
H436	H	-0.349590	-0.600365	-0.701731
H437	H	-0.016257	-0.267032	-0.368398
H438	H	0.317076	0.066301	-0.035064
N439	N	-0.274703	0.050625	-0.319542
N440	N	0.058630	0.383958	0.013791
N441	N	0.391964	0.717291	0.347125
N442	N	-0.300389	0.026249	-0.349341
N443	N	0.032944	0.359583	-0.016008
N444	N	0.366277	0.692916	0.317325
H445	H	-0.321145	0.045944	-0.373429
H446	H	0.012189	0.379278	-0.040096
H447	H	0.345522	0.712611	0.293237
N448	N	-0.477552	-0.687778	-0.319514
N449	N	-0.144219	-0.354445	0.013819
N450	N	0.189114	-0.021111	0.347153
N451	N	-0.503772	-0.654487	-0.301088
N452	N	-0.170439	-0.321153	0.032245
N453	N	0.162894	0.012180	0.365579
H454	H	-0.520712	-0.630356	-0.325184
H455	H	-0.187379	-0.297023	0.008149
H456	H	0.145954	0.036311	0.341483
H457	H	-0.959898	-0.816301	-0.191448
H458	H	-0.626565	-0.482968	0.141885
H459	H	-0.293231	-0.149634	0.475218
H460	H	-0.603311	-0.849637	-0.158013
H461	H	-0.269977	-0.516303	0.175320
H462	H	0.063356	-0.182970	0.508653
H463	H	-0.688417	-0.849671	-0.158025
H464	H	-0.355084	-0.516337	0.175308
H465	H	-0.021750	-0.183004	0.508641
H466	H	-0.297494	-0.305256	-0.345945
H467	H	0.035840	0.028078	-0.012612
H468	H	0.369173	0.361411	0.320721
N469	N	-0.158320	-0.823209	-0.948273
N470	N	0.175014	-0.489876	-0.614940
N471	N	0.508347	-0.156543	-0.281606
N472	N	-0.174133	-0.856508	-0.917808
N473	N	0.159200	-0.523174	-0.584474
N474	N	0.492533	-0.189841	-0.251141
H475	H	-0.153415	-0.880647	-0.898118
H476	H	0.179919	-0.547314	-0.564785
H477	H	0.513252	-0.213981	-0.231452
H478	H	-0.135522	-0.305276	-0.158101
H479	H	0.197812	0.028058	0.175233
H480	H	0.531145	0.361391	0.508566
N481	N	-0.303204	-0.654422	-0.807424
N482	N	0.030129	-0.321088	-0.474091
N483	N	0.363463	0.012245	-0.140757
N484	N	-0.331829	-0.672791	-0.837895
N485	N	0.001504	-0.339457	-0.504562
N486	N	0.334837	-0.006124	-0.171228
H487	H	-0.352548	-0.648653	-0.857586
H488	H	-0.019215	-0.315320	-0.524253
H489	H	0.314118	0.018014	-0.190920
H490	H	-0.135532	-0.206226	-0.158104
H491	H	0.197801	0.127107	0.175229
H492	H	0.531134	0.460441	0.508563
N493	N	-0.274662	-0.562102	-0.319441
N494	N	0.058672	-0.228769	0.013893
N495	N	0.392005	0.104565	0.347226
N496	N	-0.274658	-0.610854	-0.319431
N497	N	0.058675	-0.277521	0.013902
N498	N	0.392008	0.055812	0.347236
H499	H	-0.295413	-0.630553	-0.343507
H500	H	0.037920	-0.297219	-0.010174
H501	H	0.371254	0.036114	0.323160
N502	N	-1.049869	-0.823268	-0.184537
N503	N	-0.716536	-0.489935	0.148796
N504	N	-0.383202	-0.156602	0.482129
N505	N	-1.044653	-0.819840	-0.136287
N506	N	-0.711319	-0.486507	0.197046
N507	N	-0.377986	-0.153173	0.530380
H508	H	-1.061564	-0.843987	-0.112192
H509	H	-0.728231	-0.510654	0.221141
H510	H	-0.394897	-0.177321	0.554475
N511	N	-0.955104	-0.687951	-0.319584
N512	N	-0.621771	-0.354617	0.013750
N513	N	-0.288438	-0.021284	0.347083
N514	N	-0.976075	-0.658087	-0.349401
N515	N	-0.642742	-0.324754	-0.016068
N516	N	-0.309408	0.008580	0.317266
H517	H	-0.959173	-0.633938	-0.373503
H518	H	-0.625840	-0.300604	-0.040169
H519	H	-0.292506	0.032729	0.293164
H520	H	-0.297497	-0.206210	-0.345962
H521	H	0.035836	0.127123	-0.012629
H522	H	0.369170	0.460457	0.320704
H523	H	-0.268599	-0.694794	-0.550613
H524	H	0.064734	-0.361461	-0.217279
H525	H	0.398068	-0.028127	0.116054
N526	N	-0.598532	-0.654381	-0.352958
N527	N	-0.265199	-0.321048	-0.019624
N528	N	0.068134	0.012285	0.313709
N529	N	-0.619499	-0.624521	-0.382782
N530	N	-0.286166	-0.291187	-0.049448
N531	N	0.047167	0.042146	0.283885
H532	H	-0.602595	-0.600376	-0.406885
H533	H	-0.269261	-0.267042	-0.073551
H534	H	0.064072	0.066291	0.259782
H535	H	-0.135570	-0.849716	-0.801826
H536	H	0.197763	-0.516383	-0.468493
H537	H	0.531097	-0.183049	-0.135159
H538	H	-0.387554	-0.694677	-0.312587
H539	H	-0.054221	-0.361344	0.020746
H540	H	0.279112	-0.028011	0.354080
N541	N	-0.158297	-0.823223	-1.058669
N542	N	0.175036	-0.489889	-0.725336
N543	N	0.508370	-0.156556	-0.392002
N544	N	-0.158294	-0.823220	-1.107422
N545	N	0.175039	-0.489887	-0.774088
N546	N	0.508372	-0.156553	-0.440755
H547	H	-0.137570	-0.847361	-1.127137
H548	H	0.195763	-0.514027	-0.793803
H549	H	0.529097	-0.180694	-0.460470
H550	H	-0.744058	-0.849691	-0.158032
H551	H	-0.410724	-0.516358	0.175301
H552	H	-0.077391	-0.183024	0.508635
H553	H	-0.829176	-0.849719	-0.158047
H554	H	-0.495843	-0.516386	0.175286
H555	H	-0.162510	-0.183052	0.508620
N556	N	-0.158324	-0.562102	-0.184516
N557	N	0.175009	-0.228769	0.148818
N558	N	0.508343	0.104565	0.482151
N559	N	-0.116875	-0.556037	-0.188083
N560	N	0.216459	-0.222704	0.145250
N561	N	0.549792	0.110630	0.478583
H562	H	-0.096107	-0.575741	-0.164017
H563	H	0.237226	-0.242407	0.169317
H564	H	0.570560	0.090926	0.502650
N565	N	-0.274454	-0.687910	-0.948231
N566	N	0.058879	-0.354577	-0.614898
N567	N	0.392213	-0.021243	-0.281565
N568	N	-0.258652	-0.654600	-0.917758
N569	N	0.074682	-0.321266	-0.584425
N570	N	0.408015	0.012067	-0.251091
H571	H	-0.279378	-0.630452	-0.898053
H572	H	0.053956	-0.297119	-0.564720
H573	H	0.387289	0.036214	-0.231386
N574	N	-0.158431	-0.823150	-0.445942
N575	N	0.174902	-0.489816	-0.112609
N576	N	0.508235	-0.156483	0.220724
N577	N	-0.132781	-0.853027	-0.470339
N578	N	0.200553	-0.519694	-0.137005
N579	N	0.533886	-0.186361	0.196328
H580	H	-0.112060	-0.877174	-0.450661
H581	H	0.221273	-0.543841	-0.117327
H582	H	0.554607	-0.210507	0.216006
H583	H	-0.829250	-0.661390	-0.346045
H584	H	-0.495916	-0.328056	-0.012712
H585	H	-0.162583	0.005277	0.320621
N586	N	-0.739292	-0.654424	-0.352960
N587	N	-0.405958	-0.321090	-0.019626
N588	N	-0.072625	0.012243	0.313707
N589	N	-0.760262	-0.624561	-0.382779
N590	N	-0.426928	-0.291228	-0.049445
N591	N	-0.093595	0.042106	0.283888
H592	H	-0.743359	-0.600410	-0.406878
H593	H	-0.410026	-0.267077	-0.073545
H594	H	-0.076693	0.066256	0.259788
N595	N	-0.274674	-0.451732	-0.319472
N596	N	0.058660	-0.118399	0.013862
N597	N	0.391993	0.214934	0.347195
N598	N	-0.300359	-0.476121	-0.349261
N599	N	0.032974	-0.142788	-0.015928
N600	N	0.366308	0.190545	0.317406
H601	H	-0.321122	-0.456437	-0.373349
H602	H	0.012211	-0.123104	-0.040015
H603	H	0.345544	0.210229	0.293318
N604	N	-0.274445	-0.687932	-1.058600
N605	N	0.058889	-0.354598	-0.725266
N606	N	0.392222	-0.021265	-0.391933
N607	N	-0.300095	-0.658056	-1.034201
N608	N	0.033238	-0.324723	-0.700867
N609	N	0.366571	0.008611	-0.367534
H610	H	-0.320821	-0.633914	-1.053877
H611	H	0.012512	-0.300580	-0.720544
H612	H	0.345846	0.032753	-0.387210
N613	N	-0.274705	-0.059739	-0.319519
N614	N	0.058628	0.273594	0.013814
N615	N	0.391961	0.606928	0.347148
N616	N	-0.300396	-0.035349	-0.349315
N617	N	0.032938	0.297984	-0.015981
N618	N	0.366271	0.631318	0.317352
H619	H	-0.321159	-0.055032	-0.373393
H620	H	0.012175	0.278301	-0.040060
H621	H	0.345508	0.611634	0.293274
N622	N	-0.158358	-0.059741	-0.184575
N623	N	0.174976	0.273592	0.148758
N624	N	0.508309	0.606925	0.482091
N625	N	-0.132674	-0.035354	-0.154783
N626	N	0.200660	0.297980	0.178550
N627	N	0.533993	0.631313	0.511884
H628	H	-0.111908	-0.055039	-0.130699
H629	H	0.221425	0.278294	0.202634
H630	H	0.554759	0.611628	0.535968
N631	N	-0.158339	-0.451725	-0.184512
N632	N	0.174994	-0.118392	0.148821
N633	N	0.508328	0.214942	0.482154
N634	N	-0.132651	-0.476111	-0.154711
N635	N	0.200682	-0.142778	0.178623
N636	N	0.534016	0.190556	0.511956
H637	H	-0.111890	-0.456425	-0.130632
H638	H	0.221443	-0.123091	0.202701
H639	H	0.554777	0.210242	0.536034
