data_functionalizedCrystal
_audit_creation_method	'MofGen! by Chris Wilmer'
_symmetry_space_group_name_H-M	'P1'
_symmetry_Int_Tables_number	1
_symmetry_cell_setting	triclinic
loop_
_symmetry_equiv_pos_as_xyz
  x,y,z
_cell_length_a	27.732048
_cell_length_b	27.732048
_cell_length_c	7.088929
_cell_angle_alpha	96.157200
_cell_angle_beta	83.823277
_cell_angle_gamma	82.642655
loop_
_atom_site_label
_atom_site_type_symbol
_atom_site_fract_x
_atom_site_fract_y
_atom_site_fract_z
O1	O	0.062516	0.635935	-0.158766
O2	O	0.395850	0.969268	0.174567
O3	O	0.729183	1.302601	0.507901
O4	O	0.071264	0.495139	-0.158827
O5	O	0.404597	0.828473	0.174507
O6	O	0.737930	1.161806	0.507840
O7	O	-0.003508	0.569911	-0.158758
O8	O	0.329825	0.903244	0.174575
O9	O	0.663159	1.236578	0.507909
O10	O	0.137288	0.561163	-0.158835
O11	O	0.470621	0.894496	0.174499
O12	O	0.803954	1.227830	0.507832
O13	O	-0.013523	0.579904	0.159226
O14	O	0.319810	0.913237	0.492560
O15	O	0.653144	1.246570	0.825893
O16	O	0.061249	0.505132	0.159158
O17	O	0.394582	0.838465	0.492491
O18	O	0.727915	1.171799	0.825824
O19	O	0.052501	0.645927	0.159218
O20	O	0.385835	0.979261	0.492552
O21	O	0.719168	1.312594	0.825885
Cu22	Cu	0.055961	0.576442	0.188222
Cu23	Cu	0.389294	0.909775	0.521556
Cu24	Cu	0.722627	1.243109	0.854889
Cu25	Cu	0.067804	0.564625	-0.187831
Cu26	Cu	0.401138	0.897958	0.145502
Cu27	Cu	0.734471	1.231291	0.478836
O28	O	0.127273	0.571156	0.159150
O29	O	0.460606	0.904489	0.492483
O30	O	0.793940	1.237822	0.825816
C31	C	0.066073	0.482129	0.000158
C32	C	0.399406	0.815462	0.333491
C33	C	0.732739	1.148795	0.666825
C34	C	0.065521	0.428473	0.000137
C35	C	0.398854	0.761806	0.333470
C36	C	0.732187	1.095140	0.666803
C37	C	-0.026523	0.574724	0.000239
C38	C	0.306811	0.908057	0.333573
C39	C	0.640144	1.241391	0.666906
C40	C	-0.080178	0.574172	0.000255
C41	C	0.253155	0.907505	0.333588
C42	C	0.586489	1.240838	0.666921
C43	C	0.106223	0.089660	0.000197
C44	C	0.439556	0.422993	0.333531
C45	C	0.772889	0.756326	0.666864
C46	C	0.104171	-0.111999	0.000215
C47	C	0.437504	0.221334	0.333549
C48	C	0.770838	0.554667	0.666882
O49	O	0.141390	-0.143253	0.000278
O50	O	0.474723	0.190080	0.333611
O51	O	0.808056	0.523414	0.666945
N52	N	0.059835	-0.131122	0.000236
N53	N	0.393168	0.202211	0.333569
N54	N	0.726502	0.535544	0.666903
C55	C	0.016009	-0.099827	0.000265
C56	C	0.349342	0.233507	0.333598
C57	C	0.682675	0.566840	0.666932
O58	O	-0.021749	-0.120719	0.000303
O59	O	0.311584	0.212615	0.333636
O60	O	0.644917	0.545948	0.666969
C61	C	0.018060	0.101832	0.000260
C62	C	0.351394	0.435165	0.333594
C63	C	0.684727	0.768498	0.666927
C64	C	0.062400	0.120951	0.000220
C65	C	0.395733	0.454285	0.333554
C66	C	0.729066	0.787618	0.666887
C67	C	0.150558	0.108780	0.000159
C68	C	0.483892	0.442113	0.333493
C69	C	0.817225	0.775447	0.666826
C70	C	0.151071	0.159191	0.000144
C71	C	0.484404	0.492525	0.333478
C72	C	0.817738	0.825858	0.666811
C73	C	0.107248	0.190483	0.000167
C74	C	0.440581	0.523816	0.333501
C75	C	0.773915	0.857149	0.666834
C76	C	0.062912	0.171363	0.000205
C77	C	0.396246	0.504696	0.333539
C78	C	0.729579	0.838029	0.666872
C79	C	-0.025766	0.133127	0.000303
C80	C	0.307567	0.466460	0.333636
C81	C	0.640901	0.799793	0.666969
C82	C	-0.025249	0.183544	0.000306
C83	C	0.308084	0.516877	0.333640
C84	C	0.641417	0.850211	0.666973
C85	C	0.019090	0.202664	0.000266
C86	C	0.352423	0.535997	0.333600
C87	C	0.685757	0.869330	0.666933
C88	C	0.019602	0.253066	0.000213
C89	C	0.352936	0.586399	0.333547
C90	C	0.686269	0.919732	0.666880
N91	N	0.063938	0.272189	0.000193
N92	N	0.397271	0.605522	0.333526
N93	N	0.730605	0.938855	0.666859
C94	C	0.107761	0.240897	0.000170
C95	C	0.441094	0.574231	0.333503
C96	C	0.774428	0.907564	0.666836
C97	C	0.014935	-0.205701	0.000263
C98	C	0.348268	0.127632	0.333597
C99	C	0.681601	0.460966	0.666930
C100	C	0.014422	-0.256115	0.000261
C101	C	0.347755	0.077218	0.333594
C102	C	0.681088	0.410551	0.666928
C103	C	0.102584	-0.268284	0.000215
C104	C	0.435918	0.065049	0.333549
C105	C	0.769251	0.398382	0.666882
C106	C	0.103097	-0.217869	0.000204
C107	C	0.436430	0.115464	0.333537
C108	C	0.769764	0.448797	0.666871
C109	C	0.059271	-0.186578	0.000243
C110	C	0.392604	0.146756	0.333576
C111	C	0.725937	0.480089	0.666909
C112	C	0.108834	0.346765	0.000136
C113	C	0.442168	0.680099	0.333470
C114	C	0.775501	1.013432	0.666803
C115	C	0.109344	0.397182	0.000114
C116	C	0.442677	0.730515	0.333447
C117	C	0.776010	1.063848	0.666780
C118	C	0.021181	0.409346	0.000169
C119	C	0.354514	0.742680	0.333503
C120	C	0.687848	1.076013	0.666836
C121	C	0.020672	0.358934	0.000182
C122	C	0.354005	0.692268	0.333516
C123	C	0.687339	1.025601	0.666849
C124	C	0.064502	0.327645	0.000172
C125	C	0.397836	0.660978	0.333506
C126	C	0.731169	0.994311	0.666839
O127	O	-0.017597	0.284348	0.000172
O128	O	0.315736	0.617682	0.333506
O129	O	0.649069	0.951015	0.666839
O130	O	0.145512	0.261800	0.000174
O131	O	0.478846	0.595133	0.333508
O132	O	0.812179	0.928467	0.666841
C133	C	0.105710	0.039248	0.000212
C134	C	0.439043	0.372582	0.333546
C135	C	0.772376	0.705915	0.666879
C136	C	0.061374	0.020128	0.000250
C137	C	0.394707	0.353462	0.333583
C138	C	0.728041	0.686795	0.666917
C139	C	0.017551	0.051420	0.000273
C140	C	0.350885	0.384753	0.333606
C141	C	0.684218	0.718086	0.666940
C142	C	0.060861	-0.030286	0.000248
C143	C	0.394195	0.303047	0.333581
C144	C	0.727528	0.636380	0.666915
C145	C	0.104684	-0.061578	0.000225
C146	C	0.438017	0.271756	0.333558
C147	C	0.771351	0.605089	0.666892
C148	C	0.149020	-0.042455	0.000204
C149	C	0.482353	0.290879	0.333538
C150	C	0.815687	0.624212	0.666871
C151	C	0.149533	0.007957	0.000189
C152	C	0.482866	0.341290	0.333523
C153	C	0.816199	0.674624	0.666856
C154	C	-0.026785	0.032297	0.000294
C155	C	0.306549	0.365630	0.333627
C156	C	0.639882	0.698963	0.666961
C157	C	-0.027294	-0.018116	0.000307
C158	C	0.306040	0.315218	0.333640
C159	C	0.639373	0.648551	0.666973
C160	C	0.016529	-0.049407	0.000284
C161	C	0.349863	0.283926	0.333617
C162	C	0.683196	0.617260	0.666950
C163	C	-0.418990	0.614873	0.000174
C164	C	-0.085657	0.948206	0.333507
C165	C	0.247676	1.281539	0.666841
C166	C	-0.620649	0.612821	0.000147
C167	C	-0.287316	0.946154	0.333480
C168	C	0.046017	1.279488	0.666813
O169	O	-0.651903	0.650040	0.000079
O170	O	-0.318569	0.983373	0.333412
O171	O	0.014764	1.316706	0.666746
N172	N	-0.639772	0.568485	0.000129
N173	N	-0.306439	0.901819	0.333463
N174	N	0.026894	1.235152	0.666796
C175	C	-0.608477	0.524659	0.000106
C176	C	-0.275144	0.857992	0.333440
C177	C	0.058190	1.191326	0.666773
O178	O	-0.629369	0.486901	0.000071
O179	O	-0.296036	0.820234	0.333405
O180	O	0.037298	1.153568	0.666738
C181	C	-0.406819	0.526711	0.000120
C182	C	-0.073486	0.860044	0.333453
C183	C	0.259848	1.193378	0.666787
C184	C	-0.387699	0.571050	0.000157
C185	C	-0.054366	0.904383	0.333490
C186	C	0.278967	1.237717	0.666823
C187	C	-0.399870	0.659208	0.000209
C188	C	-0.066537	0.992542	0.333542
C189	C	0.266796	1.325875	0.666875
C190	C	-0.349459	0.659721	0.000226
C191	C	-0.016126	0.993055	0.333559
C192	C	0.317208	1.326388	0.666893
C193	C	-0.318168	0.615898	0.000209
C194	C	0.015166	0.949232	0.333542
C195	C	0.348499	1.282565	0.666875
C196	C	-0.337288	0.571563	0.000174
C197	C	-0.003955	0.904896	0.333507
C198	C	0.329379	1.238230	0.666841
C199	C	-0.375524	0.482885	0.000083
C200	C	-0.042191	0.816218	0.333417
C201	C	0.291143	1.149551	0.666750
C202	C	-0.325107	0.483401	0.000082
C203	C	0.008227	0.816735	0.333415
C204	C	0.341560	1.150068	0.666749
C205	C	-0.305987	0.527741	0.000119
C206	C	0.027346	0.861074	0.333452
C207	C	0.360680	1.194407	0.666785
C208	C	-0.255585	0.528253	0.000174
C209	C	0.077748	0.861586	0.333507
C210	C	0.411081	1.194920	0.666841
N211	N	-0.236462	0.572589	0.000191
N212	N	0.096871	0.905922	0.333525
N213	N	0.430205	1.239255	0.666858
C214	C	-0.267753	0.616411	0.000209
C215	C	0.065580	0.949745	0.333542
C216	C	0.398913	1.283078	0.666875
C217	C	-0.714351	0.523585	0.000103
C218	C	-0.381018	0.856918	0.333436
C219	C	-0.047684	1.190252	0.666769
C220	C	-0.764765	0.523072	0.000103
C221	C	-0.431432	0.856405	0.333436
C222	C	-0.098099	1.189739	0.666769
C223	C	-0.776934	0.611234	0.000139
C224	C	-0.443601	0.944567	0.333473
C225	C	-0.110267	1.277901	0.666806
C226	C	-0.726519	0.611747	0.000153
C227	C	-0.393186	0.945080	0.333487
C228	C	-0.059852	1.278414	0.666820
C229	C	-0.695228	0.567921	0.000120
C230	C	-0.361895	0.901254	0.333453
C231	C	-0.028561	1.234587	0.666787
C232	C	-0.161885	0.617485	0.000247
C233	C	0.171448	0.950818	0.333580
C234	C	0.504781	1.284152	0.666913
C235	C	-0.111469	0.617994	0.000272
C236	C	0.221864	0.951328	0.333605
C237	C	0.555198	1.284661	0.666939
C238	C	-0.099305	0.529832	0.000225
C239	C	0.234029	0.863165	0.333558
C240	C	0.567362	1.196499	0.666892
C241	C	-0.149717	0.529323	0.000210
C242	C	0.183617	0.862656	0.333543
C243	C	0.516950	1.195990	0.666877
C244	C	-0.181006	0.573153	0.000214
C245	C	0.152327	0.906487	0.333548
C246	C	0.485661	1.239820	0.666881
O247	O	-0.224303	0.491054	0.000220
O248	O	0.109031	0.824387	0.333554
O249	O	0.442364	1.157720	0.666887
O250	O	-0.246850	0.654163	0.000201
O251	O	0.086483	0.987496	0.333535
O252	O	0.419816	1.320829	0.666868
C253	C	-0.469402	0.614360	0.000157
C254	C	-0.136069	0.947693	0.333490
C255	C	0.197265	1.281027	0.666823
C256	C	-0.488522	0.570024	0.000122
C257	C	-0.155189	0.903358	0.333456
C258	C	0.178145	1.236691	0.666789
C259	C	-0.457231	0.526202	0.000105
C260	C	-0.123898	0.859535	0.333438
C261	C	0.209436	1.192868	0.666772
C262	C	-0.538936	0.569511	0.000122
C263	C	-0.205603	0.902845	0.333456
C264	C	0.127730	1.236178	0.666789
C265	C	-0.570228	0.613334	0.000139
C266	C	-0.236894	0.946668	0.333473
C267	C	0.096439	1.280001	0.666806
C268	C	-0.551105	0.657670	0.000157
C269	C	-0.217771	0.991003	0.333490
C270	C	0.115562	1.324337	0.666823
C271	C	-0.500693	0.658183	0.000174
C272	C	-0.167360	0.991516	0.333507
C273	C	0.165974	1.324849	0.666841
C274	C	-0.476354	0.481866	0.000088
C275	C	-0.143021	0.815199	0.333421
C276	C	0.190313	1.148533	0.666754
C277	C	-0.526766	0.481357	0.000072
C278	C	-0.193433	0.814690	0.333406
C279	C	0.139901	1.148023	0.666739
C280	C	-0.558057	0.525180	0.000090
C281	C	-0.224724	0.858513	0.333423
C282	C	0.108609	1.191846	0.666756
C283	C	0.150288	0.566343	0.000148
C284	C	0.483621	0.899676	0.333481
C285	C	0.816954	1.233009	0.666815
C286	C	0.203943	0.566895	0.000120
C287	C	0.537277	0.900228	0.333453
C288	C	0.870610	1.233561	0.666787
C289	C	0.057692	0.658938	0.000229
C290	C	0.391026	0.992271	0.333562
C291	C	0.724359	1.325605	0.666896
C292	C	0.058245	0.712593	0.000238
C293	C	0.391578	1.045927	0.333571
C294	C	0.724911	1.379260	0.666905
N295	N	0.047630	0.584757	0.452718
N296	N	0.380963	0.918091	0.786051
N297	N	0.714297	1.251424	1.119385
N298	N	0.076131	0.556313	-0.452327
N299	N	0.409464	0.889647	-0.118993
N300	N	0.742798	1.222980	0.214340
H301	H	0.145452	0.412745	0.000080
H302	H	0.478785	0.746079	0.333413
H303	H	0.812118	1.079412	0.666746
H304	H	-0.688877	0.487894	0.000076
H305	H	-0.355544	0.821227	0.333410
H306	H	-0.022211	1.154561	0.666743
Br307	Br	-0.044550	-0.163240	0.000316
Br308	Br	0.288783	0.170093	0.333650
Br309	Br	0.622116	0.503426	0.666983
Br310	Br	-0.323517	0.719897	0.000222
Br311	Br	0.009816	1.053231	0.333555
Br312	Br	0.343149	1.386564	0.666889
Br313	Br	-0.001595	0.633902	0.588848
Br314	Br	0.331738	0.967235	0.922182
Br315	Br	0.665072	1.300569	1.255515
Br316	Br	-0.085525	0.678173	0.000324
Br317	Br	0.247809	1.011506	0.333657
Br318	Br	0.581142	1.344840	0.666991
Br319	Br	0.168319	0.304309	0.000126
Br320	Br	0.501652	0.637642	0.333459
Br321	Br	0.834986	0.970975	0.666793
H322	H	0.105666	0.526834	0.466000
H323	H	0.439000	0.860167	0.799333
H324	H	0.772333	1.193501	1.132667
Br325	Br	-0.056829	0.470361	0.000202
Br326	Br	0.276505	0.803695	0.333536
Br327	Br	0.609838	1.137028	0.666869
H328	H	0.139202	-0.202306	0.000182
H329	H	0.472535	0.131028	0.333515
H330	H	0.805868	0.464361	0.666849
Br331	Br	-0.045754	-0.282059	0.000258
Br332	Br	0.287580	0.051275	0.333591
Br333	Br	0.620913	0.384608	0.666925
H334	H	-0.425343	0.694896	0.000216
H335	H	-0.092010	1.028229	0.333549
H336	H	0.241324	1.361563	0.666882
H337	H	-0.802420	0.646916	0.000155
H338	H	-0.469087	0.980250	0.333488
H339	H	-0.135754	1.313583	0.666821
Br340	Br	-0.700577	0.671924	0.000207
Br341	Br	-0.367243	1.005257	0.333540
Br342	Br	-0.033910	1.338590	0.666874
Br343	Br	-0.401458	0.422706	0.000026
Br344	Br	-0.068125	0.756039	0.333359
Br345	Br	0.265208	1.089373	0.666693
H346	H	-0.165286	0.493220	0.000233
H347	H	0.168047	0.826553	0.333567
H348	H	0.501381	1.159887	0.666900
Br349	Br	-0.474753	0.718360	0.000212
Br350	Br	-0.141420	1.051694	0.333546
Br351	Br	0.191914	1.385027	0.666879
Br352	Br	0.211249	0.185131	0.000099
Br353	Br	0.544582	0.518465	0.333432
Br354	Br	0.877915	0.851798	0.666765
H355	H	0.138267	-0.293771	0.000197
H356	H	0.471600	0.039563	0.333530
H357	H	0.804933	0.372896	0.666864
Br358	Br	0.210041	0.066321	0.000128
Br359	Br	0.543374	0.399655	0.333461
Br360	Br	0.876707	0.732988	0.666795
Br361	Br	-0.790708	0.462896	0.000098
Br362	Br	-0.457375	0.796230	0.333432
Br363	Br	-0.124042	1.129563	0.666765
Br364	Br	-0.552707	0.421177	0.000038
Br365	Br	-0.219374	0.754510	0.333371
Br366	Br	0.113959	1.087843	0.666704
H367	H	0.184702	-0.067941	0.000178
H368	H	0.518036	0.265392	0.333511
H369	H	0.851369	0.598725	0.666844
Br370	Br	-0.085943	0.107191	0.000315
Br371	Br	0.247390	0.440524	0.333648
Br372	Br	0.580723	0.773858	0.666982
Br373	Br	-0.282642	0.423919	0.000028
Br374	Br	0.050691	0.757252	0.333362
Br375	Br	0.384025	1.090586	0.666695
H376	H	0.185638	0.023519	0.000159
H377	H	0.518972	0.356852	0.333493
H378	H	0.852305	0.690186	0.666826
H379	H	-0.576591	0.693352	0.000179
H380	H	-0.243258	1.026686	0.333513
H381	H	0.090076	1.360019	0.666846
Br382	Br	-0.087473	-0.044057	0.000329
Br383	Br	0.245860	0.289276	0.333662
Br384	Br	0.579193	0.622609	0.666996
H385	H	-0.450881	0.446179	0.000069
H386	H	-0.117548	0.779513	0.333403
H387	H	0.215786	1.112846	0.666736
H388	H	-0.015432	0.343366	0.000187
H389	H	0.317902	0.676699	0.333520
H390	H	0.651235	1.010032	0.666854
Br391	Br	-0.084732	0.226009	0.000369
Br392	Br	0.248601	0.559342	0.333702
Br393	Br	0.581934	0.892676	0.667036
H394	H	-0.014498	0.434833	0.000181
H395	H	0.318835	0.768166	0.333514
H396	H	0.652169	1.101499	0.666848
H397	H	-0.062472	0.057770	0.000317
H398	H	0.270862	0.391103	0.333651
H399	H	0.604195	0.724437	0.666984
H400	H	-0.187356	0.653176	0.000243
H401	H	0.145978	0.986509	0.333576
H402	H	0.479311	1.319842	0.666910
