data_functionalizedCrystal
_audit_creation_method	'MofGen! by Chris Wilmer'
_symmetry_space_group_name_H-M	'P1'
_symmetry_Int_Tables_number	1
_symmetry_cell_setting	triclinic
loop_
_symmetry_equiv_pos_as_xyz
  x,y,z
_cell_length_a	18.050589
_cell_length_b	14.908783
_cell_length_c	14.908308
_cell_angle_alpha	90.211273
_cell_angle_beta	86.730698
_cell_angle_gamma	93.319292
loop_
_atom_site_label
_atom_site_type_symbol
_atom_site_fract_x
_atom_site_fract_y
_atom_site_fract_z
Zn1	Zn	-0.259754	1.345271	0.587846
Zn2	Zn	-0.376406	1.353832	0.437493
Zn3	Zn	-0.258950	1.203584	0.428817
Zn4	Zn	-0.390627	1.194855	0.579115
O5	O	-0.321434	1.274385	0.508318
O6	O	-0.269613	1.472235	0.575185
O7	O	-0.354538	1.341137	0.310518
O8	O	-0.155130	1.222450	0.449935
O9	O	-0.355317	1.478525	0.464722
O10	O	-0.155720	1.326546	0.566773
O11	O	-0.268243	1.230751	0.304144
O12	O	-0.282032	1.076597	0.441470
O13	O	-0.379554	1.207572	0.706097
O14	O	-0.378775	1.070184	0.551893
O15	O	-0.283402	1.318082	0.712511
O16	O	-0.482220	1.332672	0.456257
O17	O	-0.492668	1.215873	0.560306
C18	C	-0.331860	1.040765	0.494793
C19	C	-0.336339	0.940820	0.489029
C20	C	-0.255652	0.746451	0.593398
C21	C	-0.259858	0.652543	0.587985
C22	C	-0.348954	0.659095	0.472785
C23	C	-0.344747	0.753003	0.478198
C24	C	-0.298096	0.796677	0.538508
C25	C	-0.293894	0.890586	0.543925
C26	C	-0.382985	0.897137	0.428721
C27	C	-0.387192	0.803230	0.423308
C28	C	-0.514391	1.274278	0.508296
C29	C	-0.596936	1.274312	0.508322
C30	C	-0.802091	1.210857	0.564887
C31	C	-0.848392	1.193675	0.481574
C32	C	-0.748063	1.274400	0.508339
C33	C	-0.848842	1.291625	0.591664
C34	C	-0.894045	1.274482	0.508362
C35	C	-0.793276	1.257177	0.424980
C36	C	-0.793723	1.355162	0.535128
C37	C	-0.839997	1.338015	0.451760
C38	C	-0.663966	1.274350	0.508327
C39	C	-0.978139	1.274533	0.508366
C40	C	-0.127724	1.274517	0.508360
C41	C	-0.045177	1.274573	0.508378
C42	C	-0.333154	1.260898	0.742841
C43	C	-0.338149	1.255151	0.842781
C44	C	-0.310968	1.508918	0.521895
C45	C	-0.306508	1.608862	0.527681
C46	C	-0.309704	1.287872	0.274710
C47	C	-0.304493	1.293794	0.174780
C48	C	-0.247393	1.359422	1.037259
C49	C	-0.252083	1.354024	1.131161
C50	C	-0.352214	1.238954	1.124490
C51	C	-0.347524	1.244352	1.030587
C52	C	-0.295113	1.304588	0.986975
C53	C	-0.290427	1.309990	0.893071
C54	C	-0.390554	1.194916	0.886401
C55	C	-0.395244	1.189518	0.980304
H56	H	-0.425172	0.767657	0.374203
H57	H	-0.394885	1.189912	1.160015
H58	H	-0.417553	0.938041	0.384032
H59	H	-0.429413	1.150269	0.845450
H60	H	-0.785259	1.157050	0.612631
H61	H	-0.873147	1.306162	0.662121
H62	H	-0.872338	1.125415	0.458936
H63	H	-0.386926	0.623520	0.423674
H64	H	-0.769063	1.242562	0.354499
H65	H	-0.856688	1.391790	0.403891
H66	H	-0.213223	1.398673	1.172099
H67	H	-0.225293	0.611652	0.632680
H68	H	-0.255908	0.926144	0.593033
H69	H	-0.204721	1.408473	1.001750
H70	H	-0.769782	1.423404	0.557804
H71	H	-0.437915	1.140474	1.015826
H72	H	-0.247751	1.359039	0.857564
H73	H	-0.217669	0.782010	0.642508
