data_functionalizedCrystal
_audit_creation_method	'MofGen! by Chris Wilmer'
_symmetry_space_group_name_H-M	'P1'
_symmetry_Int_Tables_number	1
_symmetry_cell_setting	triclinic
loop_
_symmetry_equiv_pos_as_xyz
  x,y,z
_cell_length_a	10.654550
_cell_length_b	16.109301
_cell_length_c	15.186229
_cell_angle_alpha	90.005167
_cell_angle_beta	90.000116
_cell_angle_gamma	83.973206
loop_
_atom_site_label
_atom_site_type_symbol
_atom_site_fract_x
_atom_site_fract_y
_atom_site_fract_z
O1	O	-1.666255	-0.116773	-0.073166
O2	O	-1.300626	-0.127898	-0.073182
O3	O	-1.493485	-0.001364	-0.073165
O4	O	-1.473396	-0.243307	-0.073184
O5	O	-1.493472	-0.001363	0.073292
O6	O	-1.300613	-0.127897	0.073275
O7	O	-1.666242	-0.116771	0.073291
Zn8	Zn	-1.483425	-0.122334	0.096536
Zn9	Zn	-1.483442	-0.122336	-0.096427
O10	O	-1.473383	-0.243305	0.073274
C11	C	-1.253832	-0.127081	0.000044
C12	C	-1.114422	-0.124637	0.000038
C13	C	-1.492664	0.029616	0.000064
C14	C	-1.490225	0.121926	0.000065
C15	C	-1.713036	-0.117589	0.000063
C16	C	-1.852446	-0.120033	0.000063
C17	C	-1.033926	-0.199138	0.000035
C18	C	-0.902936	-0.196836	0.000050
C19	C	-0.932952	-0.045526	0.000069
C20	C	-1.063939	-0.047828	0.000060
C21	C	-0.705901	-0.284580	0.051365
C22	C	-0.625400	-0.359086	0.051347
C23	C	-0.654655	-0.426627	0.000015
C24	C	-0.764409	-0.419667	-0.051319
C25	C	-0.844905	-0.345160	-0.051308
C26	C	-0.815651	-0.277622	0.000044
C27	C	-1.260975	0.039910	-0.051263
C28	C	-1.341473	0.114418	-0.051258
C29	C	-1.312222	0.181966	0.000068
C30	C	-1.202465	0.175014	0.051389
C31	C	-1.121967	0.100507	0.051384
C32	C	-1.151228	0.032958	0.000060
C33	C	-1.474203	-0.274286	0.000043
C34	C	-1.476643	-0.366596	0.000036
N35	N	-1.483423	-0.122331	0.228229
C36	C	-1.598991	0.343552	0.000056
C37	C	-1.596689	0.430286	0.000049
C38	C	-1.367868	0.411772	0.000042
C39	C	-1.370172	0.325039	0.000043
C40	C	-1.485737	0.290932	0.000055
C41	C	-1.481131	0.464398	0.000046
C42	C	-1.478634	0.558439	0.000038
C43	C	-1.488234	0.196885	0.000061
N44	N	-1.483455	-0.122332	-0.228120
C45	C	-1.568850	-0.066321	0.453960
C46	C	-1.568854	-0.066319	0.546149
C47	C	-1.398019	-0.178344	0.546143
C48	C	-1.398010	-0.178342	0.453955
C49	C	-1.483432	-0.122331	0.407866
C50	C	-1.483445	-0.122332	0.592243
C51	C	-1.483449	-0.122330	0.692199
C52	C	-1.483428	-0.122332	0.307903
H53	H	-1.075024	-0.261680	0.000024
H54	H	-1.328446	-0.223952	0.416422
O55	O	-1.243233	0.448568	0.000044
H56	H	-1.188816	0.427487	-0.059654
H57	H	-1.638407	-0.020710	0.583677
O58	O	-0.507036	-0.366603	0.106722
H59	H	-0.500228	-0.307126	0.142439
O60	O	-0.674359	-0.211732	0.106741
H61	H	-0.584511	-0.229088	0.142420
O62	O	-1.718843	0.487041	0.000052
H63	H	-1.723254	0.527011	0.059741
H64	H	-1.693091	0.315784	0.000064
O65	O	-1.660949	-0.005887	0.404252
H66	H	-1.646594	-0.015291	0.332403
H67	H	-0.891833	0.017009	0.000092
H68	H	-1.277941	0.282194	0.000039
H69	H	-0.788214	-0.474667	-0.093121
O70	O	-1.003591	0.092997	0.106746
H71	H	-0.996774	0.152482	0.142445
O72	O	-0.963282	-0.337649	-0.106661
H73	H	-0.970102	-0.397136	-0.142356
O74	O	-1.305905	-0.238767	0.595852
H75	H	-1.244893	-0.203404	0.637871
O76	O	-1.170906	0.247864	0.106759
H77	H	-1.245326	0.300837	0.098149
O78	O	-1.459856	0.121918	-0.106612
H79	H	-1.521350	0.074086	-0.085488
O80	O	-1.292521	-0.032951	-0.106624
H81	H	-1.382353	-0.015594	-0.142322
H82	H	-1.377768	0.242637	0.000057
H83	H	-0.589102	-0.487291	0.000002
