data_functionalizedCrystal
_audit_creation_method	'MofGen! by Chris Wilmer'
_symmetry_space_group_name_H-M	'P1'
_symmetry_Int_Tables_number	1
_symmetry_cell_setting	triclinic
loop_
_symmetry_equiv_pos_as_xyz
  x,y,z
_cell_length_a	9.065218
_cell_length_b	27.732064
_cell_length_c	7.540329
_cell_angle_alpha	90.000516
_cell_angle_beta	89.996962
_cell_angle_gamma	83.832654
loop_
_atom_site_label
_atom_site_type_symbol
_atom_site_fract_x
_atom_site_fract_y
_atom_site_fract_z
O1	O	1.955905	0.070866	-0.147468
O2	O	1.526251	0.076679	-0.147469
O3	O	1.754409	0.003467	-0.147476
O4	O	1.727747	0.144078	-0.147462
O5	O	1.754396	0.003466	0.147489
O6	O	1.526238	0.076678	0.147496
O7	O	1.955891	0.070865	0.147497
Cu8	Cu	1.741063	0.073771	0.174429
Cu9	Cu	1.741079	0.073772	-0.174402
O10	O	1.727733	0.144077	0.147503
C11	C	1.471293	0.076120	0.000013
C12	C	1.307556	0.074449	0.000012
C13	C	1.753839	-0.014544	0.000001
C14	C	1.752143	-0.068210	-0.000015
C15	C	1.605763	-0.446282	-0.000023
C16	C	1.612007	-0.244579	-0.000025
O17	O	1.498421	-0.214102	-0.000096
N18	N	1.747301	-0.224528	-0.000025
C19	C	1.881043	-0.254906	-0.000036
O20	O	1.996261	-0.233223	-0.000054
C21	C	1.874797	-0.456608	-0.000046
C22	C	1.739494	-0.476656	-0.000028
C23	C	1.470471	-0.466330	-0.000007
C24	C	1.468912	-0.516753	0.000003
C25	C	1.602643	-0.547127	-0.000002
C26	C	1.737935	-0.527079	-0.000018
C27	C	2.008537	-0.486985	-0.000070
C28	C	2.006964	-0.537414	-0.000077
C29	C	1.871661	-0.557462	-0.000059
C30	C	1.870107	-0.607876	-0.000013
N31	N	1.734813	-0.627927	-0.000014
C32	C	1.601082	-0.597553	-0.000008
C33	C	1.884312	-0.149009	-0.000027
C34	C	1.885874	-0.098584	-0.000021
C35	C	1.616838	-0.088260	-0.000014
C36	C	1.615278	-0.138687	-0.000007
C37	C	1.749019	-0.169060	-0.000027
C38	C	1.597816	-0.703444	0.000015
C39	C	1.596268	-0.753872	0.000033
C40	C	1.865304	-0.764191	0.000016
C41	C	1.866852	-0.713768	0.000008
C42	C	1.733097	-0.683395	0.000001
O43	O	1.983632	-0.638382	0.000038
O44	O	1.485880	-0.619245	-0.000029
C45	C	1.607322	-0.395859	-0.000033
C46	C	1.742614	-0.375811	-0.000049
C47	C	1.876345	-0.406185	-0.000054
C48	C	1.744176	-0.325385	-0.000043
C49	C	1.610444	-0.295011	-0.000037
C50	C	1.475150	-0.315062	-0.000038
C51	C	1.473591	-0.365485	-0.000027
C52	C	2.011639	-0.386134	-0.000054
C53	C	2.013188	-0.335711	-0.000063
C54	C	1.879456	-0.305336	-0.000057
C55	C	2.010849	0.071424	0.000011
C56	C	2.174586	0.073095	0.000000
C57	C	1.728303	0.162088	0.000022
C58	C	1.730000	0.215754	0.000027
N59	N	1.741063	0.073770	0.419777
N60	N	1.741091	0.073770	-0.419750
H61	H	1.486084	-0.770192	0.000055
C62	C	1.320078	-0.538799	-0.000002
H63	H	1.240668	-0.513482	-0.000018
H64	H	1.313855	-0.558256	0.102853
H65	H	1.313878	-0.558253	-0.102881
H66	H	1.974184	-0.788931	0.000020
H67	H	1.366261	-0.290322	-0.000022
H68	H	1.361565	-0.441604	-0.000008
H69	H	2.120542	-0.410860	-0.000061
H70	H	1.488899	-0.678720	0.000009
H71	H	1.505103	-0.155006	0.000015
C72	C	2.015680	-0.691714	0.000009
H73	H	2.095101	-0.717028	0.000003
H74	H	2.021881	-0.672254	0.102859
H75	H	2.021884	-0.672263	-0.102875
C76	C	1.469737	-0.054843	-0.000032
H77	H	1.490057	-0.021941	-0.000049
H78	H	1.414184	-0.060979	0.102816
H79	H	1.414232	-0.060985	-0.102918
C80	C	1.324757	-0.387531	-0.000028
H81	H	1.245347	-0.362214	-0.000043
H82	H	1.318537	-0.406987	0.102829
H83	H	1.318554	-0.406985	-0.102906
C84	C	2.162027	-0.313661	-0.000072
H85	H	2.143818	-0.279279	-0.000066
H86	H	2.217037	-0.324051	-0.102934
H87	H	2.217036	-0.324046	0.102800
H88	H	1.993227	-0.173736	-0.000040
H89	H	1.996051	-0.082266	-0.000008
H90	H	2.118715	-0.470671	-0.000086
H91	H	2.115874	-0.562142	-0.000103
