data_functionalizedCrystal
_audit_creation_method	'MofGen! by Chris Wilmer'
_symmetry_space_group_name_H-M	'P1'
_symmetry_Int_Tables_number	1
_symmetry_cell_setting	triclinic
loop_
_symmetry_equiv_pos_as_xyz
  x,y,z
_cell_length_a	15.944493
_cell_length_b	15.944493
_cell_length_c	15.186229
_cell_angle_alpha	90.002130
_cell_angle_beta	89.997208
_cell_angle_gamma	83.475044
loop_
_atom_site_label
_atom_site_type_symbol
_atom_site_fract_x
_atom_site_fract_y
_atom_site_fract_z
O1	O	1.114531	0.108102	-0.073205
O2	O	0.869972	0.121509	-0.073208
O3	O	0.998955	-0.007474	-0.073214
O4	O	0.985547	0.237085	-0.073199
O5	O	0.998946	-0.007476	0.073243
O6	O	0.869963	0.121508	0.073249
O7	O	1.114522	0.108100	0.073252
Zn8	Zn	0.992241	0.114804	0.096504
Zn9	Zn	0.992253	0.114806	-0.096460
O10	O	0.985539	0.237083	0.073258
C11	C	0.838673	0.120961	0.000020
C12	C	0.745424	0.119318	0.000018
C13	C	0.998403	-0.038769	0.000011
C14	C	0.996760	-0.132018	-0.000000
C15	C	0.509649	0.195240	0.000022
C16	C	0.459095	0.154297	0.072235
C17	C	0.574704	0.116273	0.000020
C18	C	0.459108	0.154280	-0.072161
C19	C	0.409795	0.113339	0.000017
C20	C	0.525378	0.075352	0.072292
C21	C	0.525395	0.075347	-0.072168
C22	C	0.474873	0.034346	0.000062
C23	C	0.669704	0.117966	0.000022
C24	C	0.314798	0.111640	0.000022
C25	C	1.072682	-0.367793	0.000017
C26	C	1.031744	-0.418352	-0.072194
C27	C	0.993716	-0.302738	0.000010
C28	C	1.031717	-0.418330	0.072202
C29	C	0.990781	-0.467647	0.000025
C30	C	0.952799	-0.352068	-0.072260
C31	C	0.952784	-0.352043	0.072200
C32	C	0.911788	-0.402569	-0.000029
C33	C	0.995408	-0.207739	0.000001
C34	C	0.989082	-0.562644	0.000027
C35	C	1.145821	0.108649	0.000022
C36	C	1.239069	0.110292	0.000018
C37	C	0.986091	0.268379	0.000031
C38	C	0.987734	0.361627	0.000036
N39	N	0.992240	0.114801	0.228196
N40	N	0.992261	0.114802	-0.228153
C41	C	1.049373	0.057707	0.453917
C42	C	1.049375	0.057705	0.546106
C43	C	0.935121	0.171899	0.546121
C44	C	0.935115	0.171896	0.453933
C45	C	0.992246	0.114801	0.407833
C46	C	0.992255	0.114802	0.592211
C47	C	0.992257	0.114800	0.692167
C48	C	0.992243	0.114802	0.307871
H49	H	0.525258	0.263261	0.000094
C50	C	0.805314	-0.469869	0.075560
C51	C	0.819896	-0.423438	-0.000078
H52	H	0.748584	-0.482749	0.075527
H53	H	0.842562	-0.520780	0.076062
H54	H	0.814896	-0.437558	0.126386
H55	H	0.810320	-0.455751	-0.050905
H56	H	0.782636	-0.372518	-0.000588
C57	C	1.160965	-0.440290	-0.154475
C58	C	1.076765	-0.457446	-0.154605
H59	H	1.188762	-0.464429	-0.205348
H60	H	1.162797	-0.380957	-0.154803
H61	H	1.188443	-0.463865	-0.103192
H62	H	1.049285	-0.433866	-0.205885
H63	H	1.074929	-0.516791	-0.154285
H64	H	1.095891	0.011216	0.416385
H65	H	0.888592	0.218389	0.416409
C66	C	0.361547	0.267147	0.129044
C67	C	0.420006	0.199317	0.154649
H68	H	0.337414	0.294941	0.179921
H69	H	0.389273	0.305730	0.095054
H70	H	0.318298	0.246768	0.094805
H71	H	0.463258	0.219697	0.188882
H72	H	0.392279	0.160727	0.188654
C73	C	0.651857	0.032371	0.154069
C74	C	0.564290	0.030366	0.154797
H75	H	0.675877	0.004605	0.205007
H76	H	0.675123	0.004521	0.102857
H77	H	0.663954	0.089350	0.153864
H78	H	0.552193	-0.026612	0.154995
H79	H	0.541016	0.058214	0.206022
C80	C	0.909183	-0.225288	0.153288
C81	C	0.907795	-0.312930	0.154613
H82	H	0.881408	-0.201142	0.204169
H83	H	0.966021	-0.212784	0.152777
H84	H	0.881046	-0.202499	0.102022
H85	H	0.935937	-0.335720	0.205875
H86	H	0.850947	-0.325440	0.155132
H87	H	0.888608	0.218385	0.583664
C88	C	1.162316	-0.055161	0.536826
C89	C	1.112175	-0.005052	0.596761
H90	H	1.201090	-0.093902	0.568100
H91	H	1.127358	-0.085391	0.500875
H92	H	1.192517	-0.020172	0.500866
H93	H	1.081969	-0.040041	0.632718
H94	H	1.147138	0.025180	0.632728
H95	H	0.459422	-0.033727	0.000099
H96	H	0.554351	0.042024	-0.133225
H97	H	1.065079	-0.447269	0.133247
C98	C	0.483840	0.229313	-0.205018
C99	C	0.420051	0.199304	-0.154580
H100	H	0.459731	0.257105	-0.255902
H101	H	0.511545	0.267899	-0.171009
H102	H	0.523499	0.183282	-0.222363
H103	H	0.380395	0.245336	-0.137230
H104	H	0.392333	0.160715	-0.188596
C105	C	1.165090	-0.258939	0.000718
C106	C	1.164496	-0.346685	-0.000061
H107	H	1.221768	-0.245903	0.000676
H108	H	1.136781	-0.235273	-0.050062
H109	H	1.137133	-0.236133	0.052080
H110	H	1.192447	-0.369490	-0.051426
H111	H	1.192817	-0.370361	0.050725
H112	H	0.919473	-0.323241	-0.133374
