data_functionalizedCrystal
_audit_creation_method	'MofGen! by Chris Wilmer'
_symmetry_space_group_name_H-M	'P1'
_symmetry_Int_Tables_number	1
_symmetry_cell_setting	triclinic
loop_
_symmetry_equiv_pos_as_xyz
  x,y,z
_cell_length_a	14.908558
_cell_length_b	12.759400
_cell_length_c	14.908308
_cell_angle_alpha	86.729656
_cell_angle_beta	89.824401
_cell_angle_gamma	86.708584
loop_
_atom_site_label
_atom_site_type_symbol
_atom_site_fract_x
_atom_site_fract_y
_atom_site_fract_z
Zn1	Zn	1.345356	-0.548309	0.587597
Zn2	Zn	1.353954	-0.714489	0.437245
Zn3	Zn	1.203669	-0.528126	0.428595
Zn4	Zn	1.194981	-0.713238	0.578898
O5	O	1.274490	-0.626041	0.508083
O6	O	1.472324	-0.579323	0.574913
O7	O	1.341253	-0.681845	0.310272
O8	O	1.222502	-0.383786	0.449707
O9	O	1.478641	-0.701415	0.464450
O10	O	1.326599	-0.398614	0.566525
O11	O	1.230839	-0.544925	0.303917
O12	O	1.076689	-0.543712	0.441272
O13	O	1.207695	-0.699283	0.705877
O14	O	1.070307	-0.679713	0.551699
O15	O	1.318175	-0.578110	0.712268
O16	O	1.332829	-0.861341	0.456015
O17	O	1.216032	-0.860421	0.560087
C18	C	1.040872	-0.609387	0.494603
C19	C	0.940929	-0.602289	0.488858
C20	C	0.803354	-0.521384	0.423361
C21	C	0.897260	-0.528048	0.428756
C22	C	0.890684	-0.669870	0.543571
C23	C	0.796777	-0.663206	0.538177
C24	C	0.753116	-0.588962	0.478069
C25	C	0.659208	-0.582304	0.472670
C26	C	0.652633	-0.724120	0.587490
C27	C	0.746539	-0.730784	0.592884
C28	C	1.274444	-0.899004	0.508066
C29	C	1.274505	-1.015786	0.508094
C30	C	1.328676	-1.078291	0.568967
C31	C	1.328717	-1.188019	0.568991
C32	C	1.220412	-1.172729	0.447262
C33	C	1.220367	-1.063002	0.447243
C34	C	1.382814	-1.031075	0.629818
C35	C	1.436991	-1.093580	0.690695
C36	C	1.437031	-1.203308	0.690719
C37	C	1.382895	-1.250531	0.629866
C38	C	1.509020	-0.642760	0.521616
C39	C	1.608963	-0.649885	0.527383
C40	C	1.261007	-0.640808	0.742609
C41	C	1.255261	-0.647101	0.842551
C42	C	1.274560	-0.352015	0.508121
C43	C	1.274590	-0.235241	0.508138
C44	C	1.287973	-0.611259	0.274473
C45	C	1.293893	-0.604682	0.174542
C46	C	1.359503	-0.532724	1.037007
C47	C	1.354107	-0.538634	1.130911
C48	C	1.239069	-0.664823	1.124263
C49	C	1.244465	-0.658914	1.030359
C50	C	1.304685	-0.592863	0.986735
C51	C	1.310085	-0.586960	0.892830
C52	C	1.195042	-0.713143	0.886184
C53	C	1.189647	-0.719053	0.980087
H54	H	0.611719	-0.779148	0.632036
H55	H	1.481061	-1.055124	0.740244
Br56	Br	1.157339	-0.754444	1.183483
H57	H	0.938160	-0.473016	0.384210
H58	H	1.481137	-1.254197	0.740294
H59	H	0.767804	-0.460934	0.374417
H60	H	1.176255	-1.012110	0.397676
Br61	Br	1.382737	-0.882158	0.629810
H62	H	0.623660	-0.521850	0.423727
H63	H	1.382921	-1.339880	0.629901
H64	H	1.176337	-1.211187	0.397719
Br65	Br	1.391815	-0.497327	0.833625
Br66	Br	0.949955	-0.770636	0.625127
Br67	Br	1.441241	-0.443104	0.977798
Br68	Br	1.120654	-0.794782	0.817953
Br69	Br	1.107920	-0.808684	1.039300
H70	H	1.398744	-0.489659	1.171839
H71	H	0.782101	-0.791229	0.641825
