data_functionalizedCrystal
_audit_creation_method	'MofGen! by Chris Wilmer'
_symmetry_space_group_name_H-M	'P1'
_symmetry_Int_Tables_number	1
_symmetry_cell_setting	triclinic
loop_
_symmetry_equiv_pos_as_xyz
  x,y,z
_cell_length_a	16.793024
_cell_length_b	16.793047
_cell_length_c	33.586455
_cell_angle_alpha	113.253857
_cell_angle_beta	66.219990
_cell_angle_gamma	112.758327
loop_
_atom_site_label
_atom_site_type_symbol
_atom_site_fract_x
_atom_site_fract_y
_atom_site_fract_z
O1	O	0.005016	-0.570216	-0.583573
O2	O	-0.034529	-0.474528	-0.453458
O3	O	0.114723	-0.474535	-0.528082
O4	O	-0.144235	-0.570209	-0.508949
O5	O	0.108729	-0.346329	-0.530229
O6	O	-0.040523	-0.346322	-0.455605
O7	O	-0.000977	-0.442010	-0.585721
Zn8	Zn	-0.021701	-0.373810	-0.521004
Zn9	Zn	-0.013805	-0.542728	-0.518175
O10	O	-0.150229	-0.442003	-0.511097
C11	C	0.005100	-0.790970	-0.238461
C12	C	0.009223	-0.693065	-0.217557
C13	C	0.003804	-0.645758	-0.241627
C14	C	-0.075059	-0.538459	-0.266316
C15	C	0.049838	-0.422849	-0.250165
C16	C	-0.040584	-0.395375	-0.435637
C17	C	-0.044693	-0.353446	-0.386631
C18	C	-0.039275	-0.401741	-0.363054
C19	C	-0.040566	-0.125547	-0.300731
C20	C	-0.044689	-0.223451	-0.321635
C21	C	-0.039266	-0.270752	-0.297563
C22	C	0.039597	-0.378051	-0.272874
C23	C	-0.085304	-0.493667	-0.289026
C24	C	0.005118	-0.521142	-0.103554
C25	C	0.009231	-0.563064	-0.152559
C26	C	0.003809	-0.514775	-0.176138
C27	C	0.010758	-0.652581	-0.172822
C28	C	0.001010	-0.556371	-0.220792
C29	C	-0.008251	-0.506059	-0.245823
C30	C	-0.046224	-0.263935	-0.366370
C31	C	-0.036476	-0.360146	-0.318399
C32	C	-0.027211	-0.410451	-0.293367
C33	C	0.815184	-0.521162	-0.508596
C34	C	0.415541	-0.125553	-0.528781
C35	C	0.375032	-0.223457	-0.531493
C36	C	0.423813	-0.270761	-0.529101
C37	C	0.149318	-0.395376	-0.530584
C38	C	0.246774	-0.353455	-0.532364
C39	C	0.294574	-0.401748	-0.529976
C40	C	0.548961	-0.790984	-0.510398
C41	C	0.286104	-0.263940	-0.532530
C42	C	0.383336	-0.360149	-0.528302
C43	C	0.432207	-0.407971	-0.525810
C44	C	0.392316	-0.497392	-0.524993
C45	C	0.303554	-0.538991	-0.526667
C46	C	0.254683	-0.491169	-0.529159
C47	C	0.263666	-0.628421	-0.525851
C48	C	0.312537	-0.676243	-0.523359
C49	C	0.401299	-0.634644	-0.521685
C50	C	0.441190	-0.545223	-0.522502
C51	C	0.529952	-0.503624	-0.520828
C52	C	0.578823	-0.551446	-0.518336
C53	C	0.538939	-0.640864	-0.517520
C54	C	0.450177	-0.682463	-0.519194
C55	C	0.587810	-0.688687	-0.515028
C56	C	0.676572	-0.647088	-0.513354
C57	C	0.716463	-0.557666	-0.514172
C58	C	0.667586	-0.509847	-0.516662
C59	C	0.569840	-0.414195	-0.521644
C60	C	0.658602	-0.372596	-0.519970
C61	C	0.707476	-0.420426	-0.517480
C62	C	0.698493	-0.283174	-0.520788
C63	C	0.649622	-0.235352	-0.523280
C64	C	0.560860	-0.276951	-0.524954
C65	C	0.520969	-0.366372	-0.524136
C66	C	0.511989	-0.229129	-0.527446
C67	C	-0.040530	-0.395407	-0.935652
C68	C	0.005063	-0.791004	-0.738448
C69	C	0.009186	-0.693099	-0.717543
C70	C	0.003779	-0.645796	-0.741620
C71	C	0.005077	-0.521171	-0.603544
C72	C	0.009198	-0.563096	-0.652550
C73	C	0.003786	-0.514804	-0.676131
C74	C	-0.040516	-0.125574	-0.800747
C75	C	0.010719	-0.652613	-0.672809
C76	C	0.000994	-0.556406	-0.720789
C77	C	-0.004621	-0.508585	-0.744908
C78	C	-0.007444	-0.419162	-0.724369
C79	C	-0.004651	-0.377560	-0.679711
C80	C	0.000964	-0.425381	-0.655592
C81	C	-0.007471	-0.288129	-0.659174
C82	C	-0.013086	-0.240308	-0.683293
C83	C	-0.015878	-0.281910	-0.727951
C84	C	-0.013056	-0.371333	-0.748490
C85	C	-0.015848	-0.412935	-0.793148
C86	C	-0.021463	-0.365114	-0.817267
C87	C	-0.024282	-0.275694	-0.796731
C88	C	-0.021490	-0.234092	-0.752073
C89	C	-0.029897	-0.227873	-0.820850
C90	C	-0.032690	-0.269476	-0.865508
C91	C	-0.029867	-0.358899	-0.886047
C92	C	-0.024255	-0.406717	-0.861925
C93	C	-0.013028	-0.502367	-0.813685
C94	C	-0.015821	-0.543969	-0.858343
C95	C	-0.021433	-0.496140	-0.882464
C96	C	-0.012998	-0.633392	-0.878882
C97	C	-0.007383	-0.681213	-0.854763
C98	C	-0.004591	-0.639611	-0.810105
C99	C	-0.007414	-0.550188	-0.789566
C100	C	0.001024	-0.687432	-0.785986
O101	O	-0.000965	0.173549	-0.277957
O102	O	-0.040516	-0.085616	-0.325254
O103	O	0.108737	0.059592	-0.327284
O104	O	-0.150219	0.028341	-0.275927
O105	O	0.114753	0.055151	-0.263265
O106	O	-0.034500	-0.090057	-0.261234
O107	O	0.005051	0.169108	-0.213937
Zn108	Zn	-0.013769	0.038820	-0.227421
Zn109	Zn	-0.021696	0.044672	-0.311770
O110	O	-0.144202	0.023900	-0.211907
O111	O	-0.034458	-0.474571	0.046517
O112	O	0.005076	-0.570190	-0.083599
O113	O	-0.144170	-0.570237	-0.008972
O114	O	0.114787	-0.474523	-0.028110
O115	O	-0.150200	-0.442024	-0.011093
O116	O	-0.000954	-0.441976	-0.085720
O117	O	-0.040488	-0.346357	0.044396
Zn118	Zn	-0.021679	-0.373810	-0.020999
Zn119	Zn	-0.013734	-0.542737	-0.018204
O120	O	0.108757	-0.346309	-0.030231
C121	C	-0.850734	0.086244	-0.289716
C122	C	-0.753280	0.087165	-0.312001
C123	C	-0.705462	0.081107	-0.288506
C124	C	-0.599592	0.000085	-0.264184
C125	C	-0.481080	0.121287	-0.283645
C126	C	-0.450996	0.035117	-0.097351
C127	C	-0.410501	0.028587	-0.146852
C128	C	-0.459292	0.034683	-0.169840
C129	C	-0.184802	0.024283	-0.235878
C130	C	-0.282257	0.023363	-0.213592
C131	C	-0.330068	0.029423	-0.237088
C132	C	-0.435938	0.110445	-0.261411
C133	C	-0.554456	-0.010759	-0.241948
C134	C	-0.584541	0.075410	-0.428242
C135	C	-0.625029	0.081943	-0.378743
C136	C	-0.576244	0.075844	-0.355753
C137	C	-0.713963	0.086424	-0.357292
C138	C	-0.616708	0.075351	-0.310510
C139	C	-0.565963	0.065400	-0.286043
C140	C	-0.321573	0.024104	-0.168302
C141	C	-0.418828	0.035176	-0.215083
C142	C	-0.469568	0.045131	-0.239552
O143	O	0.585213	0.169090	-0.504004
O144	O	0.494056	-0.090076	-0.525516
O145	O	0.488081	0.055124	-0.449918
O146	O	0.591189	0.023889	-0.579602
O147	O	0.359978	0.059584	-0.452885
O148	O	0.365953	-0.085616	-0.528483
O149	O	0.457110	0.173550	-0.506971
Zn150	Zn	0.391193	0.044675	-0.518198
Zn151	Zn	0.559974	0.038798	-0.514289
O152	O	0.463086	0.028349	-0.582569
C153	C	0.815354	-0.521094	-0.008709
C154	C	0.717898	-0.563028	-0.006927
C155	C	0.670072	-0.514739	-0.009298
C156	C	0.564182	-0.463204	-0.048354
C157	C	0.445681	-0.498945	0.013847
C158	C	0.415547	-0.125494	-0.028771
C159	C	0.375059	-0.223405	-0.031498
C160	C	0.423859	-0.270708	-0.029121
C161	C	0.149365	-0.395355	-0.030599
C162	C	0.246820	-0.353421	-0.032381
C163	C	0.294640	-0.401713	-0.030008
C164	C	0.400530	-0.453248	0.009048
C165	C	0.519038	-0.417504	-0.053155
C166	C	0.549171	-0.790955	-0.010537
C167	C	0.589653	-0.693047	-0.007809
C168	C	0.540859	-0.645741	-0.010187
C169	C	0.678588	-0.652551	-0.006775
C170	C	0.581317	-0.556344	-0.010973
C171	C	0.530562	-0.506029	-0.015250
C172	C	0.286131	-0.263897	-0.032533
C173	C	0.383402	-0.360104	-0.028335
C174	C	0.434150	-0.410423	-0.024057
O175	O	-0.620614	0.089309	0.052274
O176	O	-0.529507	0.043784	-0.078544
O177	O	-0.523494	0.194833	-0.006033
O178	O	-0.626628	-0.061740	-0.020236
O179	O	-0.395386	0.185419	-0.005549
O180	O	-0.401400	0.034370	-0.078059
O181	O	-0.492507	0.079895	0.052758
Zn182	Zn	-0.426614	0.055638	-0.012574
Zn183	Zn	-0.595401	0.068041	-0.013212
O184	O	-0.498521	-0.071154	-0.019752
C185	C	-0.437537	0.048335	0.402491
C186	C	-0.397043	0.041789	0.352989
C187	C	-0.445822	0.047883	0.329994
C188	C	-0.496646	0.126653	0.277022
C189	C	-0.465894	-0.000633	0.218811
C190	C	-0.837226	0.099430	0.210091
C191	C	-0.739773	0.100339	0.187806
C192	C	-0.691967	0.094287	0.211308
C193	C	-0.571027	0.088563	0.071568
C194	C	-0.611521	0.095108	0.121070
C195	C	-0.562739	0.089011	0.144061
C196	C	-0.511915	0.010241	0.197033
C197	C	-0.542670	0.137531	0.255247
C198	C	-0.171338	0.037467	0.263967
C199	C	-0.268788	0.036555	0.286249
C200	C	-0.316597	0.042611	0.262750
C201	C	-0.308112	0.037305	0.331542
C202	C	-0.405351	0.048369	0.284750
C203	C	-0.456092	0.058317	0.260279
C204	C	-0.700452	0.099593	0.142516
C205	C	-0.603213	0.088528	0.189308
C206	C	-0.552469	0.078578	0.213776
O207	O	-0.040608	-1.085661	-0.825229
O208	O	-0.001018	-0.826491	-0.777938
O209	O	-0.150287	-0.971682	-0.775894
O210	O	0.108661	-0.940470	-0.827272
O211	O	-0.144253	-0.976123	-0.711878
O212	O	0.005016	-0.830932	-0.713922
O213	O	-0.034575	-1.090102	-0.761213
Zn214	Zn	-0.013821	-0.961222	-0.727403
Zn215	Zn	-0.021771	-0.955371	-0.811747
O216	O	0.114695	-0.944911	-0.763256
O217	O	-0.036862	-0.230384	-0.253947
C218	C	-0.115987	-0.202041	-0.227222
H219	H	-0.171766	-0.243574	-0.244184
H220	H	-0.101653	-0.127812	-0.223676
C221	C	-0.077925	-0.164236	-0.159072
C222	C	-0.146436	-0.215253	-0.179904
H223	H	-0.096706	-0.172381	-0.129884
H224	H	-0.024615	-0.183328	-0.177078
H225	H	-0.065986	-0.102383	-0.156122
H226	H	-0.158365	-0.277105	-0.182860
H227	H	-0.199749	-0.196172	-0.161898
H228	H	0.710767	-0.684484	-0.506030
O229	O	-0.050895	-0.224968	-0.885609
C230	C	-0.130062	-0.277002	-0.898567
H231	H	-0.172681	-0.325664	-0.877039
H232	H	-0.110969	-0.316691	-0.935886
C233	C	-0.132414	-0.154723	-0.917831
C234	C	-0.184763	-0.214486	-0.891387
H235	H	-0.166155	-0.116162	-0.913404
H236	H	-0.079076	-0.119668	-0.909103
H237	H	-0.116506	-0.187808	-0.948928
H238	H	-0.200660	-0.181402	-0.860290
H239	H	-0.238106	-0.249535	-0.900110
O240	O	-0.545867	0.040332	-0.148438
C241	C	-0.547526	0.117730	-0.110850
H242	H	-0.478221	0.168579	-0.116200
H243	H	-0.565275	0.098262	-0.078779
C244	C	-0.704101	0.097431	-0.099314
C245	C	-0.618982	0.159887	-0.105887
H246	H	-0.748181	0.123434	-0.096250
H247	H	-0.702985	0.045284	-0.124637
H248	H	-0.718879	0.081212	-0.072589
H249	H	-0.604200	0.176096	-0.132614
H250	H	-0.620097	0.212038	-0.080568
H251	H	-0.267732	0.034117	0.350946
O252	O	0.688556	-0.148085	-0.523996
C253	C	0.713961	-0.096408	-0.484089
H254	H	0.722642	-0.142180	-0.469400
H255	H	0.659271	-0.062153	-0.458229
C256	C	0.793202	0.031817	-0.513310
C257	C	0.803871	-0.024400	-0.495271
H258	H	0.848660	0.076238	-0.520207
H259	H	0.776083	-0.002997	-0.540196
H260	H	0.747623	0.060354	-0.491757
H261	H	0.849440	-0.052944	-0.516826
H262	H	0.821000	0.010411	-0.468389
H263	H	-0.123560	-0.607102	-0.263443
O264	O	0.003839	-0.384804	-0.612057
C265	C	0.084807	-0.385262	-0.608836
H266	H	0.137458	-0.391746	-0.643622
H267	H	0.071502	-0.444629	-0.596396
C268	C	0.055436	-0.288841	-0.532408
C269	C	0.120106	-0.296798	-0.575132
H270	H	0.077209	-0.234276	-0.511617
H271	H	0.000884	-0.288535	-0.534577
H272	H	0.044354	-0.338320	-0.522048
H273	H	0.131178	-0.247327	-0.585494
H274	H	0.174660	-0.297094	-0.572964
H275	H	0.550886	-0.383867	-0.081621
O276	O	0.726878	-0.700118	-0.005592
C277	C	0.803693	-0.702979	-0.044010
H278	H	0.821201	-0.643902	-0.057536
H279	H	0.788855	-0.768856	-0.071387
C280	C	0.862492	-0.769480	-0.014108
C281	C	0.884000	-0.696916	-0.030719
H282	H	0.912028	-0.765744	-0.005910
H283	H	0.810738	-0.767555	0.011774
H284	H	0.850126	-0.824369	-0.036925
H285	H	0.896354	-0.642028	-0.007900
H286	H	0.935757	-0.698831	-0.056597
O287	O	0.273615	-0.763419	-0.522483
C288	C	0.272330	-0.771727	-0.482048
H289	H	0.276140	-0.703566	-0.455284
H290	H	0.332715	-0.795740	-0.488859
C291	C	0.179527	-0.924156	-0.497702
C292	C	0.184199	-0.840441	-0.464830
H293	H	0.125166	-0.966545	-0.487082
H294	H	0.180395	-0.918560	-0.524945
H295	H	0.229853	-0.944155	-0.503375
H296	H	0.133880	-0.820439	-0.459162
H297	H	0.183320	-0.846035	-0.437586
O298	O	-0.532514	0.053191	0.351323
C299	C	-0.590436	-0.020436	0.328433
H300	H	-0.556928	-0.077803	0.308428
H301	H	-0.604393	0.001032	0.304179
C302	C	-0.721274	0.018091	0.387785
C303	C	-0.680122	-0.052371	0.363218
H304	H	-0.776598	-0.001606	0.409242
H305	H	-0.682251	0.067697	0.403206
H306	H	-0.732896	0.035975	0.367569
H307	H	-0.668490	-0.070246	0.383434
H308	H	-0.719145	-0.101981	0.347801
O309	O	0.014007	-0.700215	-0.649086
C310	C	0.092841	-0.730309	-0.671186
H311	H	0.145383	-0.685311	-0.693291
H312	H	0.075735	-0.802627	-0.693330
C313	C	0.066553	-0.781546	-0.608407
C314	C	0.131089	-0.726274	-0.635553
H315	H	0.090145	-0.779062	-0.586427
H316	H	0.013439	-0.761275	-0.593518
H317	H	0.052303	-0.841806	-0.626865
H318	H	0.145328	-0.666014	-0.617096
H319	H	0.184206	-0.746535	-0.650438
H320	H	-0.669612	-0.046576	-0.265443
O321	O	0.407550	-0.539055	0.047818
C322	C	0.321877	-0.523702	0.073241
H323	H	0.294950	-0.508609	0.051551
H324	H	0.328066	-0.463930	0.104584
C325	C	0.289378	-0.626600	0.114612
C326	C	0.256302	-0.608070	0.087970
H327	H	0.248928	-0.678640	0.123700
H328	H	0.347099	-0.636942	0.097486
H329	H	0.294534	-0.576784	0.140728
H330	H	0.251157	-0.657881	0.061852
H331	H	0.198578	-0.597739	0.105093
O332	O	-0.004796	-0.247429	-0.615613
C333	C	-0.008480	-0.157873	-0.602610
H334	H	-0.040908	-0.151484	-0.624807
H335	H	0.062919	-0.110860	-0.606940
C336	C	-0.025319	-0.140029	-0.525312
C337	C	-0.065155	-0.132184	-0.552571
H338	H	-0.060275	-0.124181	-0.494445
H339	H	-0.022834	-0.200364	-0.534072
H340	H	0.034178	-0.100852	-0.528925
H341	H	-0.124646	-0.171369	-0.548961
H342	H	-0.067651	-0.071855	-0.543809
H343	H	-0.037138	-0.474881	-0.380005
H344	H	-0.754334	0.089615	-0.376700
H345	H	0.780052	-0.386407	-0.516111
H346	H	-0.738384	0.080845	-0.251490
O347	O	-0.024357	-0.146906	-0.731970
C348	C	-0.100731	-0.142029	-0.693389
H349	H	-0.122547	-0.203399	-0.680856
H350	H	-0.158329	-0.140516	-0.702625
C351	C	-0.050085	0.019533	-0.671089
C352	C	-0.076875	-0.055840	-0.655695
H353	H	-0.035373	0.072700	-0.647838
H354	H	0.001367	0.016248	-0.697083
H355	H	-0.098089	0.020781	-0.678786
H356	H	-0.028868	-0.057093	-0.648003
H357	H	-0.128320	-0.052553	-0.629699
H358	H	-0.023718	-0.530163	-0.918978
H359	H	0.245737	-0.223998	-0.033572
H360	H	0.468233	-0.679598	-0.011487
O361	O	-0.015559	-0.673877	-0.922470
C362	C	0.058895	-0.626611	-0.951191
H363	H	0.114913	-0.587395	-0.934235
H364	H	0.037042	-0.577834	-0.957864
C365	C	0.025272	-0.742008	-1.017283
C366	C	0.094077	-0.693849	-0.996458
H367	H	0.046972	-0.783482	-1.045206
H368	H	-0.024891	-0.773851	-0.997933
H369	H	0.007067	-0.701352	-1.022840
H370	H	0.112272	-0.734504	-0.990897
H371	H	0.144244	-0.662014	-1.015808
O372	O	0.550904	-0.141855	-0.528153
C373	C	0.576295	-0.090190	-0.488240
H374	H	0.584996	-0.135966	-0.473562
H375	H	0.521587	-0.055963	-0.462377
C376	C	0.655492	0.038069	-0.517436
C377	C	0.666186	-0.018153	-0.499410
H378	H	0.710939	0.082509	-0.524325
H379	H	0.638383	0.003264	-0.544325
H380	H	0.609899	0.066583	-0.495880
H381	H	0.711770	-0.046673	-0.520967
H382	H	0.683304	0.016651	-0.472524
O383	O	0.237984	-0.216205	-0.533715
C384	C	0.232040	-0.141518	-0.494812
H385	H	0.290123	-0.123985	-0.480772
H386	H	0.164929	-0.158702	-0.467993
C387	C	0.166401	-0.081939	-0.524756
C388	C	0.237745	-0.060400	-0.507514
H389	H	0.169916	-0.031902	-0.532589
H390	H	0.170402	-0.132258	-0.550964
H391	H	0.110483	-0.096260	-0.502404
H392	H	0.293661	-0.046091	-0.529867
H393	H	0.233753	-0.010076	-0.481309
O394	O	-0.352330	0.165977	-0.259980
C395	C	-0.289292	0.114683	-0.280152
H396	H	-0.316345	0.048412	-0.304397
H397	H	-0.278068	0.100290	-0.252642
C398	C	-0.165823	0.249010	-0.276823
C399	C	-0.199047	0.167618	-0.306603
H400	H	-0.110154	0.281663	-0.293138
H401	H	-0.208293	0.283568	-0.263231
H402	H	-0.156478	0.237004	-0.253900
H403	H	-0.208402	0.179625	-0.329522
H404	H	-0.156576	0.133063	-0.320200
O405	O	-0.004604	-0.768422	-0.874869
C406	C	-0.008315	-0.795004	-0.919635
H407	H	0.016077	-0.732936	-0.931969
H408	H	-0.080913	-0.831803	-0.920456
C409	C	0.022792	-0.934409	-0.935619
C410	C	0.052758	-0.858177	-0.950769
H411	H	0.060461	-0.973380	-0.954824
H412	H	0.025289	-0.916503	-0.905459
H413	H	-0.037706	-0.965064	-0.936303
H414	H	0.113251	-0.827518	-0.950080
H415	H	0.050273	-0.876080	-0.980931
O416	O	-0.049204	-0.216238	-0.390138
C417	C	0.027481	-0.141415	-0.392510
H418	H	0.083735	-0.155127	-0.387530
H419	H	0.009238	-0.079266	-0.364801
C420	C	-0.009195	-0.108271	-0.445375
C421	C	0.059901	-0.125116	-0.439263
H422	H	0.010802	-0.098213	-0.474214
H423	H	-0.060861	-0.158679	-0.443776
H424	H	-0.024390	-0.056483	-0.422281
H425	H	0.075087	-0.176910	-0.462353
H426	H	0.111570	-0.074716	-0.440867
O427	O	0.001369	-0.686192	-0.285236
C428	C	0.080518	-0.714488	-0.311964
H429	H	0.110377	-0.723022	-0.289320
H430	H	0.131857	-0.661849	-0.329902
C431	C	0.020619	-0.794497	-0.375328
C432	C	0.057288	-0.804986	-0.347517
H433	H	0.006291	-0.850318	-0.397261
H434	H	-0.032705	-0.775431	-0.357322
H435	H	0.063407	-0.750628	-0.390273
H436	H	0.014496	-0.848846	-0.332569
H437	H	0.110604	-0.824062	-0.365522
H438	H	-0.740818	0.102779	0.123104
H439	H	-0.015393	-0.167196	-0.666497
O440	O	0.709377	-0.427441	-0.009911
C441	C	0.734837	-0.376156	0.030011
H442	H	0.743205	-0.422269	0.044612
H443	H	0.680328	-0.341704	0.055921
C444	C	0.814698	-0.247747	0.000960
C445	C	0.824983	-0.304383	0.018892
H446	H	0.870302	-0.203471	-0.005897
H447	H	0.797543	-0.282296	-0.025935
H448	H	0.769271	-0.219046	0.022555
H449	H	0.870401	-0.333091	-0.002704
H450	H	0.842148	-0.269836	0.045784
O451	O	-0.488574	0.185338	0.317851
C452	C	-0.438186	0.160028	0.333525
H453	H	-0.394285	0.117984	0.303511
H454	H	-0.486269	0.118686	0.358160
C455	C	-0.431414	0.296661	0.394774
C456	C	-0.377489	0.245029	0.357910
H457	H	-0.393976	0.349092	0.409818
H458	H	-0.465364	0.313712	0.384215
H459	H	-0.471480	0.262199	0.415299
H460	H	-0.337432	0.279487	0.337383
H461	H	-0.343530	0.227986	0.368466
O462	O	0.003648	-0.774690	-0.806042
C463	C	-0.075459	-0.826391	-0.819104
H464	H	-0.105470	-0.780632	-0.823134
H465	H	-0.126717	-0.860679	-0.792000
C466	C	-0.015231	-0.954567	-0.859595
C467	C	-0.052087	-0.898365	-0.864547
H468	H	-0.000816	-0.998966	-0.887625
H469	H	0.038064	-0.919736	-0.850793
H470	H	-0.057952	-0.983130	-0.837006
H471	H	-0.009362	-0.869793	-0.887132
H472	H	-0.105374	-0.933192	-0.873354
O473	O	0.647726	-0.468341	-0.077346
C474	C	0.672445	-0.421340	-0.109113
H475	H	0.632638	-0.369310	-0.094464
H476	H	0.656812	-0.470806	-0.141661
C477	C	0.823227	-0.437364	-0.137625
C478	C	0.774341	-0.373454	-0.119631
H479	H	0.886082	-0.407829	-0.144116
H480	H	0.806573	-0.469033	-0.116225
H481	H	0.810190	-0.478581	-0.164747
H482	H	0.787370	-0.332246	-0.092508
H483	H	0.791000	-0.341777	-0.141028
O484	O	-0.580322	0.207600	0.274144
C485	C	-0.562473	0.258856	0.315952
H486	H	-0.500118	0.247484	0.316303
H487	H	-0.622994	0.237240	0.344760
C488	C	-0.622042	0.373374	0.321802
C489	C	-0.545451	0.359413	0.322232
H490	H	-0.611546	0.435402	0.325677
H491	H	-0.634070	0.338841	0.293636
H492	H	-0.672469	0.355354	0.345808
H493	H	-0.495029	0.377422	0.298223
H494	H	-0.533414	0.393952	0.350394
H495	H	0.496488	-0.236853	-0.027824
O496	O	-0.290821	0.029578	-0.281271
C497	C	-0.265315	-0.050930	-0.307266
H498	H	-0.307875	-0.105068	-0.288962
H499	H	-0.190794	-0.038714	-0.312025
C500	C	-0.228357	-0.015746	-0.376438
C501	C	-0.280635	-0.082243	-0.353959
H502	H	-0.237803	-0.035060	-0.405242
H503	H	-0.245537	0.038495	-0.358926
H504	H	-0.166260	-0.005573	-0.380400
H505	H	-0.342731	-0.092407	-0.349993
H506	H	-0.263466	-0.136487	-0.371472
O507	O	-0.442940	0.188208	-0.304210
C508	C	-0.357267	0.236722	-0.297689
H509	H	-0.330349	0.192598	-0.290511
H510	H	-0.363453	0.299572	-0.267716
C511	C	-0.324748	0.318613	-0.349569
C512	C	-0.291684	0.264417	-0.340756
H513	H	-0.284293	0.335701	-0.376133
H514	H	-0.382469	0.285931	-0.353960
H515	H	-0.329902	0.370981	-0.324588
H516	H	-0.286541	0.212045	-0.365734
H517	H	-0.233960	0.297091	-0.336370
O518	O	-0.489604	0.070354	-0.377054
C519	C	-0.454972	0.064828	-0.346619
H520	H	-0.513271	0.037882	-0.318595
H521	H	-0.414209	0.134616	-0.331044
C522	C	-0.321846	0.034013	-0.406686
C523	C	-0.393450	0.000910	-0.372268
H524	H	-0.283893	-0.005411	-0.422507
H525	H	-0.345176	0.037739	-0.427191
H526	H	-0.287887	0.092170	-0.393702
H527	H	-0.427413	-0.057240	-0.385253
H528	H	-0.370124	-0.002828	-0.351766
H529	H	-0.518563	-0.039000	0.162804
O530	O	-0.428260	-0.070699	0.200022
C531	C	-0.465615	-0.125272	0.229548
H532	H	-0.534485	-0.115021	0.252978
H533	H	-0.418761	-0.105963	0.250688
C534	C	-0.392093	-0.237403	0.172817
C535	C	-0.476684	-0.224819	0.201591
H536	H	-0.398918	-0.298808	0.155573
H537	H	-0.366923	-0.200635	0.152925
H538	H	-0.353057	-0.221307	0.190438
H539	H	-0.515715	-0.240904	0.183970
H540	H	-0.501861	-0.261592	0.221480
O541	O	0.097545	-0.296181	-0.276264
C542	C	0.161696	-0.272536	-0.253620
H543	H	0.167349	-0.336059	-0.251394
H544	H	0.139381	-0.226738	-0.217968
C545	C	0.247339	-0.144746	-0.282788
C546	C	0.254287	-0.222767	-0.280057
H547	H	0.304452	-0.114043	-0.299093
H548	H	0.204117	-0.160674	-0.298041
H549	H	0.228739	-0.106592	-0.253076
H550	H	0.272875	-0.260925	-0.309768
H551	H	0.297514	-0.206845	-0.264809
H552	H	-0.586315	-0.066836	-0.224702
O553	O	0.177087	-0.669117	-0.527460
C554	C	0.152269	-0.758672	-0.526212
H555	H	0.196744	-0.765061	-0.510039
H556	H	0.161556	-0.805688	-0.562224
C557	C	-0.002089	-0.776509	-0.517914
C558	C	0.052531	-0.784354	-0.498047
H559	H	-0.063613	-0.792353	-0.500542
H560	H	0.014631	-0.716175	-0.518757
H561	H	0.005661	-0.815689	-0.547923
H562	H	0.044789	-0.745165	-0.468041
H563	H	0.035807	-0.844682	-0.497198
H564	H	0.107243	-0.392097	-0.234140
O565	O	-0.731326	0.093816	0.255445
C566	C	-0.808492	0.019653	0.258888
H567	H	-0.802039	-0.034327	0.224823
H568	H	-0.871329	0.042417	0.268743
C569	C	-0.824546	0.047106	0.337194
C570	C	-0.816616	-0.019196	0.295356
H571	H	-0.829561	0.023143	0.359690
H572	H	-0.772560	0.097073	0.334875
H573	H	-0.876910	0.066070	0.345400
H574	H	-0.764248	-0.038151	0.287148
H575	H	-0.868594	-0.069168	0.297674
O576	O	-0.273486	0.020146	-0.145156
C577	C	-0.317285	-0.057100	-0.129515
H578	H	-0.362102	-0.109026	-0.151405
H579	H	-0.360601	-0.037855	-0.092769
C580	C	-0.191033	-0.033557	-0.105615
C581	C	-0.246072	-0.097336	-0.132503
H582	H	-0.147106	-0.058375	-0.107455
H583	H	-0.161525	0.018488	-0.116150
H584	H	-0.227139	-0.017524	-0.074996
H585	H	-0.209967	-0.113359	-0.163122
H586	H	-0.275572	-0.149384	-0.121972
O587	O	0.001421	-0.427474	-0.155928
C588	C	0.080557	-0.376168	-0.142837
H589	H	0.136327	-0.411615	-0.164359
H590	H	0.066236	-0.368673	-0.105528
C591	C	0.042514	-0.238830	-0.123428
C592	C	0.111014	-0.282363	-0.149865
H593	H	0.061300	-0.180965	-0.127761
H594	H	-0.010803	-0.273395	-0.132246
H595	H	0.030586	-0.232594	-0.092340
H596	H	0.122933	-0.288609	-0.180952
H597	H	0.164334	-0.247797	-0.141052
O598	O	0.013741	-0.700201	-0.149016
C599	C	-0.062937	-0.702866	-0.110564
H600	H	-0.119195	-0.691379	-0.116654
H601	H	-0.044687	-0.647943	-0.079738
C602	C	-0.026260	-0.809598	-0.094495
C603	C	-0.095359	-0.795496	-0.101976
H604	H	-0.046258	-0.866734	-0.089195
H605	H	0.025402	-0.807800	-0.120399
H606	H	-0.011058	-0.763822	-0.068807
H607	H	-0.110552	-0.841264	-0.127666
H608	H	-0.147024	-0.797304	-0.076075
O609	O	0.317043	-0.447845	0.038023
C610	C	0.318627	-0.356770	0.060950
H611	H	0.376820	-0.312261	0.040119
H612	H	0.328317	-0.338535	0.095496
C613	C	0.157186	-0.396707	0.093051
C614	C	0.228655	-0.342041	0.067464
H615	H	0.101686	-0.387621	0.097072
H616	H	0.156118	-0.458067	0.077606
H617	H	0.165273	-0.381506	0.121837
H618	H	0.220573	-0.357251	0.038677
H619	H	0.229719	-0.280683	0.082904
H620	H	-0.142704	-0.524425	-0.305055
O621	O	-0.476144	0.083441	0.122634
C622	C	-0.474447	0.006033	0.085052
H623	H	-0.536977	-0.014575	0.073829
H624	H	-0.473832	-0.051238	0.094975
C625	C	-0.312153	0.051987	0.059540
C626	C	-0.388950	0.026681	0.045753
H627	H	-0.259413	0.064721	0.035299
H628	H	-0.313295	0.104137	0.084860
H629	H	-0.311653	0.004256	0.067809
H630	H	-0.389455	0.074415	0.037490
H631	H	-0.387806	-0.025461	0.020430
H632	H	0.261721	-0.474856	-0.029430
O633	O	-0.277352	0.042750	0.218566
C634	C	-0.251860	-0.037766	0.192576
H635	H	-0.294428	-0.091897	0.210885
H636	H	-0.177340	-0.025560	0.187816
C637	C	-0.214895	-0.002599	0.123398
C638	C	-0.267183	-0.069086	0.145883
H639	H	-0.224342	-0.021918	0.094595
H640	H	-0.232066	0.051647	0.140907
H641	H	-0.152799	0.007566	0.119436
H642	H	-0.329277	-0.079242	0.149850
H643	H	-0.250023	-0.123335	0.128373
H644	H	0.182115	-0.525189	-0.530531
H645	H	0.417564	-0.755580	-0.518528
H646	H	0.771070	-0.249160	-0.519423
