data_functionalizedCrystal
_audit_creation_method	'MofGen! by Chris Wilmer'
_symmetry_space_group_name_H-M	'P1'
_symmetry_Int_Tables_number	1
_symmetry_cell_setting	triclinic
loop_
_symmetry_equiv_pos_as_xyz
  x,y,z
_cell_length_a	29.839131
_cell_length_b	16.959455
_cell_length_c	16.959447
_cell_angle_alpha	89.985678
_cell_angle_beta	90.033915
_cell_angle_gamma	89.961633
loop_
_atom_site_label
_atom_site_type_symbol
_atom_site_fract_x
_atom_site_fract_y
_atom_site_fract_z
Zn1	Zn	-0.178881	-1.208267	0.446889
Zn2	Zn	-0.254014	-1.208140	0.314702
Zn3	Zn	-0.178895	-1.076095	0.314726
Zn4	Zn	-0.253981	-1.076010	0.446841
O5	O	-0.216443	-1.142128	0.380790
O6	O	-0.188856	-1.318861	0.429364
O7	O	-0.244070	-1.190606	0.204094
O8	O	-0.116026	-1.093716	0.332288
O9	O	-0.244056	-1.318767	0.332247
O10	O	-0.116016	-1.190822	0.429388
O11	O	-0.188880	-1.093593	0.204112
O12	O	-0.188847	-0.965473	0.332242
O13	O	-0.243999	-1.093572	0.557458
O14	O	-0.244012	-0.965411	0.429305
O15	O	-0.188823	-1.190740	0.557493
O16	O	-0.316877	-1.190524	0.332200
O17	O	-0.316852	-1.093449	0.429282
C18	C	-0.216428	-0.936762	0.380771
C19	C	-0.216433	-0.848905	0.380782
C20	C	-0.333165	-1.141985	0.380750
C21	C	-0.383100	-1.141996	0.380760
C22	C	-0.216406	-1.142161	0.586958
C23	C	-0.216390	-1.142175	0.674814
C24	C	-0.692743	-1.192767	0.330313
C25	C	-0.880416	-1.192864	0.330344
O26	O	-0.904681	-1.235918	0.287422
N27	N	-0.903885	-1.142292	0.380849
C28	C	-0.880432	-1.091695	0.431354
O29	O	-0.904700	-1.048688	0.474319
C30	C	-0.692760	-1.091602	0.431327
C31	C	-0.669294	-1.142172	0.380812
C32	C	-0.669277	-1.243333	0.279803
C33	C	-0.622362	-1.243305	0.279793
C34	C	-0.598913	-1.192711	0.330293
C35	C	-0.622379	-1.142144	0.380802
C36	C	-0.669308	-1.041010	0.481835
C37	C	-0.622387	-1.040992	0.481826
C38	C	-0.598921	-1.091563	0.431311
C39	C	-0.552014	-1.091522	0.431292
N40	N	-0.528545	-1.142094	0.380786
C41	C	-0.551995	-1.192689	0.330287
C42	C	-0.978963	-1.091746	0.431364
C43	C	-1.025881	-1.091768	0.431370
C44	C	-1.025862	-1.192939	0.330360
C45	C	-0.978943	-1.192912	0.330351
C46	C	-0.955494	-1.142319	0.380858
C47	C	-0.453469	-1.192626	0.330268
C48	C	-0.406549	-1.192591	0.330260
C49	C	-0.406572	-1.091424	0.431273
C50	C	-0.453488	-1.091455	0.431278
C51	C	-0.476935	-1.142063	0.380773
O52	O	-0.527720	-1.048497	0.474197
O53	O	-0.527719	-1.235702	0.287341
C54	C	-0.739659	-1.192795	0.330323
C55	C	-0.763125	-1.142228	0.380833
C56	C	-0.739675	-1.091633	0.431332
C57	C	-0.810043	-1.142250	0.380839
C58	C	-0.833492	-1.192845	0.330339
C59	C	-0.810024	-1.243417	0.279834
C60	C	-0.763108	-1.243389	0.279824
C61	C	-0.763144	-1.041061	0.481838
C62	C	-0.810059	-1.041092	0.481843
C63	C	-0.833509	-1.091687	0.431344
C64	C	-0.099264	-1.142293	0.380846
C65	C	-0.049330	-1.142363	0.380870
C66	C	-0.216458	-1.348296	0.380808
C67	C	-0.216465	-1.436153	0.380816
C68	C	-0.187695	-0.477437	0.330354
C69	C	-0.245228	-0.477421	0.431270
C70	C	-0.245221	-0.559967	0.431265
C71	C	-0.216452	-0.601252	0.380803
C72	C	-0.187688	-0.559991	0.330346
C73	C	-0.273987	-0.601235	0.481716
C74	C	-0.273982	-0.683786	0.481713
C75	C	-0.245210	-0.725072	0.431254
C76	C	-0.216445	-0.683806	0.380795
C77	C	-0.187676	-0.725090	0.330333
C78	C	-0.158908	-0.683826	0.279878
C79	C	-0.158916	-0.601277	0.279887
C80	C	-0.245202	-0.807620	0.431245
C81	C	-0.187669	-0.807644	0.330325
C82	C	-0.216447	-1.142141	0.175423
C83	C	-0.216337	-1.142280	0.087567
C84	C	-0.245070	-1.091678	1.046274
C85	C	-0.187615	-1.192860	1.046306
C86	C	-0.187625	-1.192839	0.963760
C87	C	-0.216358	-1.142238	0.922468
C88	C	-0.245081	-1.091657	0.963721
C89	C	-0.158905	-1.243424	0.922501
C90	C	-0.158914	-1.243406	0.839950
C91	C	-0.187645	-1.192800	0.798656
C92	C	-0.216369	-1.142217	0.839914
C93	C	-0.245102	-1.091615	0.798621
C94	C	-0.273824	-1.041028	0.839878
C95	C	-0.273812	-1.041051	0.922426
C96	C	-0.187657	-1.192776	0.716107
C97	C	-0.245113	-1.091594	0.716068
H98	H	-0.387445	-1.233771	0.289123
C99	C	-0.596555	-1.298943	0.224236
H100	H	-0.617246	-1.329081	0.194173
H101	H	-0.578280	-1.268730	0.189760
H102	H	-0.578225	-1.333358	0.254508
H103	H	-0.297221	-0.999832	0.806247
C104	C	-0.695111	-0.985387	0.537408
H105	H	-0.674419	-0.955265	0.567485
H106	H	-0.713446	-0.950969	0.507157
H107	H	-0.713380	-1.015619	0.571883
H108	H	-0.135526	-1.284597	0.806366
C109	C	-0.276839	-0.432015	0.486834
H110	H	-0.293960	-0.468413	0.516898
H111	H	-0.259648	-0.399868	0.521309
H112	H	-0.296409	-0.399756	0.456589
C113	C	-0.276663	-1.036039	1.091651
H114	H	-0.272545	-1.043298	1.146729
H115	H	-0.270088	-0.982937	1.078124
H116	H	-0.306852	-1.047569	1.078104
H117	H	-0.603298	-0.999794	0.522958
H118	H	-0.164238	-0.841252	0.289237
H119	H	-0.472554	-1.233837	0.289144
H120	H	-0.297198	-0.999868	0.956025
H121	H	-0.135486	-0.717450	0.238788
C122	C	-0.156064	-1.248411	0.670728
H123	H	-0.138949	-1.278547	0.707144
H124	H	-0.173254	-1.282816	0.638510
H125	H	-0.136489	-1.218186	0.638544
H126	H	-0.135515	-1.284626	0.956128
H127	H	-0.688365	-1.284538	0.238680
C128	C	-1.051662	-1.248589	0.274810
H129	H	-1.082964	-1.241358	0.282055
H130	H	-1.044001	-1.237058	0.221688
H131	H	-1.043943	-1.301691	0.286431
C132	C	-0.953134	-1.248545	0.274792
H133	H	-0.973824	-1.278681	0.244723
H134	H	-0.934859	-1.218328	0.240320
H135	H	-0.934805	-1.282963	0.305062
H136	H	-0.164225	-1.234062	1.079932
H137	H	-0.164272	-0.443836	0.289277
C138	C	-1.051688	-1.036137	0.486931
H139	H	-1.030999	-1.006010	0.517008
H140	H	-1.070022	-1.001722	0.456672
H141	H	-1.069959	-1.066365	0.521406
C142	C	-0.835867	-0.985463	0.537415
H143	H	-0.815178	-0.955335	0.567492
H144	H	-0.854204	-0.951049	0.507162
H145	H	-0.854135	-1.015697	0.571890
H146	H	-0.959874	-1.050545	0.472494
C147	C	-0.276842	-0.853012	0.486735
H148	H	-0.272719	-0.908088	0.479501
H149	H	-0.270309	-0.839506	0.539867
H150	H	-0.307021	-0.839452	0.475060
C151	C	-0.380774	-1.035781	0.486827
H152	H	-0.401467	-1.005663	0.516913
H153	H	-0.362443	-1.065997	0.521283
H154	H	-0.362501	-1.001346	0.456558
H155	H	-0.472595	-1.050279	0.472414
H156	H	-0.744006	-1.284568	0.238690
H157	H	-0.829124	-1.284611	0.238713
H158	H	-0.297406	-0.717376	0.522797
H159	H	-0.744055	-0.999862	0.522962
H160	H	-0.135496	-0.567672	0.238808
H161	H	-0.297413	-0.567615	0.522794
C162	C	-0.276727	-1.035943	0.670652
H163	H	-0.293833	-1.005828	0.707047
H164	H	-0.259550	-1.001518	0.638450
H165	H	-0.296309	-1.066159	0.638447
