data_functionalizedCrystal
_audit_creation_method	'MofGen! by Chris Wilmer'
_symmetry_space_group_name_H-M	'P1'
_symmetry_Int_Tables_number	1
_symmetry_cell_setting	triclinic
loop_
_symmetry_equiv_pos_as_xyz
  x,y,z
_cell_length_a	12.827893
_cell_length_b	16.120484
_cell_length_c	12.827885
_cell_angle_alpha	92.863928
_cell_angle_beta	89.980728
_cell_angle_gamma	92.925431
loop_
_atom_site_label
_atom_site_type_symbol
_atom_site_fract_x
_atom_site_fract_y
_atom_site_fract_z
Zn1	Zn	1.576504	-0.331866	-0.611895
Zn2	Zn	1.826504	-0.081866	-0.361895
Zn3	Zn	2.076504	0.168134	-0.111895
Zn4	Zn	2.326504	0.418134	0.138105
Zn5	Zn	1.567505	-0.471301	-0.445998
Zn6	Zn	1.817505	-0.221301	-0.195998
Zn7	Zn	2.067505	0.028699	0.054002
Zn8	Zn	2.317505	0.278699	0.304002
Zn9	Zn	1.401742	-0.331907	-0.437171
Zn10	Zn	1.651742	-0.081907	-0.187171
Zn11	Zn	1.901742	0.168093	0.062829
Zn12	Zn	2.151742	0.418093	0.312829
Zn13	Zn	1.392841	-0.471239	-0.620694
Zn14	Zn	1.642841	-0.221239	-0.370694
Zn15	Zn	1.892841	0.028761	-0.120694
Zn16	Zn	2.142841	0.278761	0.129306
O17	O	1.484648	-0.401579	-0.528940
O18	O	1.734648	-0.151579	-0.278940
O19	O	1.984648	0.098421	-0.028940
O20	O	2.234648	0.348421	0.221060
O21	O	1.721545	-0.350372	-0.589900
O22	O	1.971545	-0.100372	-0.339900
O23	O	2.221545	0.149628	-0.089900
O24	O	2.471545	0.399628	0.160100
O25	O	1.545475	-0.452853	-0.298594
O26	O	1.795475	-0.202853	-0.048594
O27	O	2.045475	0.047147	0.201406
O28	O	2.295475	0.297147	0.451406
O29	O	1.432416	-0.215236	-0.452972
O30	O	1.682416	0.034764	-0.202972
O31	O	1.932416	0.284764	0.047028
O32	O	2.182416	0.534764	0.297028
O33	O	1.714934	-0.452814	-0.468017
O34	O	1.964934	-0.202814	-0.218017
O35	O	2.214934	0.047186	0.031983
O36	O	2.464934	0.297186	0.281983
O37	O	1.560812	-0.215206	-0.581341
O38	O	1.810812	0.034794	-0.331341
O39	O	2.060812	0.284794	-0.081341
O40	O	2.310812	0.534794	0.168659
O41	O	1.423690	-0.350441	-0.292109
O42	O	1.673690	-0.100441	-0.042109
O43	O	1.923690	0.149559	0.207891
O44	O	2.173690	0.399559	0.457891
O45	O	1.254326	-0.350381	-0.461505
O46	O	1.504326	-0.100381	-0.211505
O47	O	1.754326	0.149619	0.038495
O48	O	2.004326	0.399619	0.288495
O49	O	1.417245	-0.452708	-0.765761
O50	O	1.667245	-0.202708	-0.515761
O51	O	1.917245	0.047292	-0.265761
O52	O	2.167245	0.297292	-0.015761
O53	O	1.247787	-0.452748	-0.596338
O54	O	1.497787	-0.202748	-0.346338
O55	O	1.747787	0.047252	-0.096338
O56	O	1.997787	0.297252	0.153662
O57	O	1.552181	-0.350311	-0.759296
O58	O	1.802181	-0.100311	-0.509296
O59	O	2.052181	0.149689	-0.259296
O60	O	2.302181	0.399689	-0.009296
O61	O	1.536844	-0.587959	-0.476549
O62	O	1.786844	-0.337959	-0.226549
O63	O	2.036844	-0.087959	0.023451
O64	O	2.286844	0.162041	0.273451
O65	O	1.408520	-0.587913	-0.604897
O66	O	1.658520	-0.337913	-0.354897
O67	O	1.908520	-0.087913	-0.104897
O68	O	2.158520	0.162087	0.145103
C69	C	1.213139	-0.401562	-0.528919
C70	C	1.463139	-0.151562	-0.278919
C71	C	1.713139	0.098438	-0.028919
C72	C	1.963139	0.348438	0.221081
C73	C	1.096985	-0.401576	-0.528936
C74	C	1.346985	-0.151576	-0.278936
C75	C	1.596985	0.098424	-0.028936
C76	C	1.846985	0.348424	0.221064
C77	C	1.041987	-0.452309	-0.595563
C78	C	1.291987	-0.202309	-0.345563
C79	C	1.541987	0.047691	-0.095563
C80	C	1.791987	0.297691	0.154437
C81	C	0.921936	-0.452324	-0.595582
C82	C	1.171936	-0.202324	-0.345582
C83	C	1.421936	0.047676	-0.095582
C84	C	1.671936	0.297676	0.154418
C85	C	1.470768	-0.618186	-0.542658
C86	C	1.720768	-0.368186	-0.292658
C87	C	1.970768	-0.118186	-0.042658
C88	C	2.220768	0.131814	0.207342
C89	C	1.464925	-0.710851	-0.548562
C90	C	1.714925	-0.460851	-0.298562
C91	C	1.964925	-0.210851	-0.048562
C92	C	2.214925	0.039149	0.201438
C93	C	1.454265	-0.880512	-0.559362
C94	C	1.704265	-0.630512	-0.309362
C95	C	1.954265	-0.380512	-0.059362
C96	C	2.204265	-0.130512	0.190638
C97	C	1.515219	-0.921804	-0.498534
C98	C	1.765219	-0.671804	-0.248534
C99	C	2.015219	-0.421804	0.001466
C100	C	2.265219	-0.171804	0.251466
C101	C	1.509287	-1.016209	-0.504544
C102	C	1.759287	-0.766209	-0.254544
C103	C	2.009287	-0.516209	-0.004544
C104	C	2.259287	-0.266209	0.245456
C105	C	1.460195	-0.786099	-0.553355
C106	C	1.710195	-0.536099	-0.303355
C107	C	1.960195	-0.286099	-0.053355
C108	C	2.210195	-0.036099	0.196645
C109	C	1.757217	-0.401595	-0.528962
C110	C	2.007217	-0.151595	-0.278962
C111	C	2.257217	0.098405	-0.028962
C112	C	2.507217	0.348405	0.221038
C113	C	1.873370	-0.401602	-0.528971
C114	C	2.123370	-0.151602	-0.278971
C115	C	2.373370	0.098398	-0.028971
C116	C	2.623370	0.348398	0.221029
C117	C	1.484724	-0.401498	-0.801505
C118	C	1.734724	-0.151498	-0.551505
C119	C	1.984724	0.098502	-0.301505
C120	C	2.234724	0.348502	-0.051505
C121	C	1.484757	-0.401464	-0.917656
C122	C	1.734757	-0.151464	-0.667656
C123	C	1.984757	0.098536	-0.417656
C124	C	2.234757	0.348536	-0.167656
C125	C	1.498611	-0.184125	-0.515191
C126	C	1.748611	0.065875	-0.265191
C127	C	1.998611	0.315875	-0.015191
C128	C	2.248611	0.565875	0.234809
C129	C	1.504561	-0.091460	-0.509332
C130	C	1.754561	0.158540	-0.259332
C131	C	2.004561	0.408540	-0.009332
C132	C	2.254561	0.658540	0.240668
C133	C	1.551535	-0.350785	-0.966241
C134	C	1.801535	-0.100785	-0.716241
C135	C	2.051535	0.149215	-0.466241
C136	C	2.301535	0.399215	-0.216241
C137	C	1.551570	-0.350749	-1.086289
C138	C	1.801570	-0.100749	-0.836289
C139	C	2.051570	0.149251	-0.586289
C140	C	2.301570	0.399251	-0.336289
C141	C	1.484636	-0.401598	-0.257431
C142	C	1.734636	-0.151598	-0.007431
C143	C	1.984636	0.098402	0.242569
C144	C	2.234636	0.348402	0.492569
C145	C	1.484821	-0.401397	-0.141266
C146	C	1.734821	-0.151397	0.108734
C147	C	1.984821	0.098603	0.358734
C148	C	2.234821	0.348603	0.608734
H149	H	0.920648	-0.358168	-0.471922
H150	H	1.170648	-0.108168	-0.221922
H151	H	1.420648	0.141832	0.028078
H152	H	1.670648	0.391832	0.278078
H153	H	1.608744	-0.307363	-1.128084
H154	H	1.858744	-0.057363	-0.878084
H155	H	2.108744	0.192637	-0.628084
H156	H	2.358744	0.442637	-0.378084
H157	H	1.055194	-0.358148	-0.471913
H158	H	1.305194	-0.108148	-0.221913
H159	H	1.555194	0.141852	0.028087
H160	H	1.805194	0.391852	0.278087
H161	H	0.874651	-0.495761	-0.652621
H162	H	1.124651	-0.245761	-0.402621
H163	H	1.374651	0.004239	-0.152621
H164	H	1.624651	0.254239	0.097379
H165	H	1.571857	-0.886255	-0.441944
H166	H	1.821857	-0.636255	-0.191944
H167	H	2.071857	-0.386255	0.058056
H168	H	2.321857	-0.136255	0.308056
H169	H	1.427651	-0.444791	-1.099479
H170	H	1.677651	-0.194791	-0.849479
H171	H	1.927651	0.055209	-0.599479
H172	H	2.177651	0.305209	-0.349479
H173	H	1.608676	-0.307421	-0.918962
H174	H	1.858676	-0.057421	-0.668962
H175	H	2.108676	0.192579	-0.418962
H176	H	2.358676	0.442579	-0.168962
H177	H	1.427605	-0.444820	-0.964935
H178	H	1.677605	-0.194820	-0.714935
H179	H	1.927605	0.055180	-0.464935
H180	H	2.177605	0.305180	-0.214935
H181	H	1.083779	-0.495730	-0.652594
H182	H	1.333779	-0.245730	-0.402594
H183	H	1.583779	0.004270	-0.152594
H184	H	1.833779	0.254270	0.097406
H185	H	1.397630	-0.916059	-0.615947
H186	H	1.647630	-0.666059	-0.365947
H187	H	1.897630	-0.416059	-0.115947
H188	H	2.147630	-0.166059	0.134053
