data_functionalizedCrystal
_audit_creation_method	'MofGen! by Chris Wilmer'
_symmetry_space_group_name_H-M	'P1'
_symmetry_Int_Tables_number	1
_symmetry_cell_setting	triclinic
loop_
_symmetry_equiv_pos_as_xyz
  x,y,z
_cell_length_a	12.759401
_cell_length_b	18.101396
_cell_length_c	12.759387
_cell_angle_alpha	90.062388
_cell_angle_beta	89.958684
_cell_angle_gamma	89.961452
loop_
_atom_site_label
_atom_site_type_symbol
_atom_site_fract_x
_atom_site_fract_y
_atom_site_fract_z
Zn1	Zn	1.606315	0.294540	-0.594012
Zn2	Zn	2.106315	0.794540	-0.094012
Zn3	Zn	1.606075	0.418465	-0.418328
Zn4	Zn	2.106075	0.918465	0.081672
Zn5	Zn	1.430551	0.294645	-0.418347
Zn6	Zn	1.930551	0.794645	0.081653
Zn7	Zn	1.430537	0.418347	-0.593965
Zn8	Zn	1.930537	0.918347	-0.093965
O9	O	1.518370	0.356499	-0.506163
O10	O	2.018370	0.856499	-0.006163
O11	O	1.753304	0.310984	-0.570718
O12	O	2.253304	0.810984	-0.070718
O13	O	1.582697	0.402134	-0.271309
O14	O	2.082697	0.902134	0.228691
O15	O	1.453973	0.190998	-0.441676
O16	O	1.953973	0.690998	0.058324
O17	O	1.753128	0.402031	-0.441644
O18	O	2.253128	0.902031	0.058356
O19	O	1.583106	0.190921	-0.570737
O20	O	2.083106	0.690921	-0.070737
O21	O	1.453740	0.311164	-0.271323
O22	O	1.953740	0.811164	0.228677
O23	O	1.283528	0.311049	-0.441631
O24	O	1.783528	0.811049	0.058369
O25	O	1.453949	0.401830	-0.740993
O26	O	1.953949	0.901830	-0.240993
O27	O	1.283518	0.401933	-0.570657
O28	O	1.783518	0.901933	-0.070657
O29	O	1.583092	0.310869	-0.741027
O30	O	2.083092	0.810869	-0.241027
O31	O	1.582683	0.522082	-0.441599
O32	O	2.082683	1.022082	0.058401
O33	O	1.453716	0.521996	-0.570639
O34	O	1.953716	1.021996	-0.070639
C35	C	1.245402	0.356490	-0.506142
C36	C	1.745402	0.856490	-0.006142
C37	C	1.128626	0.356504	-0.506158
C38	C	1.628626	0.856504	-0.006158
C39	C	1.073786	0.403899	-0.573236
C40	C	1.573786	0.903899	-0.073236
C41	C	0.964062	0.403902	-0.573257
C42	C	1.464062	0.903902	-0.073257
C43	C	0.964027	0.309113	-0.439112
C44	C	1.464027	0.809113	0.060888
C45	C	1.073749	0.309107	-0.439098
C46	C	1.573749	0.809107	0.060902
C47	C	1.518201	0.548910	-0.506135
C48	C	2.018201	1.048910	-0.006135
C49	C	1.518225	0.631224	-0.506158
C50	C	2.018225	1.131224	-0.006158
C51	C	1.518411	0.930315	-0.506219
C52	C	2.018411	1.430315	-0.006219
C53	C	1.437462	0.898966	-0.587609
C54	C	1.937462	1.398966	-0.087609
C55	C	1.437089	0.813348	-0.587353
C56	C	1.937089	1.313348	-0.087353
C57	C	1.518319	0.781932	-0.506190
C58	C	2.018319	1.281932	-0.006190
C59	C	1.488292	0.813133	-0.395465
C60	C	1.988292	1.313133	0.104535
C61	C	1.487758	0.898778	-0.395953
C62	C	1.987758	1.398778	0.104047
C63	C	1.629569	0.898644	-0.534580
C64	C	2.129569	1.398644	-0.034580
C65	C	1.628929	0.812992	-0.537007
C66	C	2.128929	1.312992	-0.037007
C67	C	1.518268	0.698073	-0.506166
C68	C	2.018268	1.198073	-0.006166
C69	C	1.518459	1.014174	-0.506235
C70	C	2.018459	1.514174	-0.006235
C71	C	1.792403	0.356509	-0.506184
C72	C	2.292403	0.856509	-0.006184
C73	C	1.909179	0.356513	-0.506194
C74	C	2.409179	0.856513	-0.006194
C75	C	1.518546	0.356325	-0.780197
C76	C	2.018546	0.856325	-0.280197
C77	C	1.518621	0.356250	-0.896973
C78	C	2.018621	0.856250	-0.396973
C79	C	1.518531	1.163337	-0.506218
C80	C	2.018531	1.663337	-0.006218
C81	C	1.518505	1.081023	-0.506251
C82	C	2.018505	1.581023	-0.006251
C83	C	1.518254	0.356620	-0.233195
C84	C	2.018254	0.856620	0.266805
C85	C	1.518383	0.356485	-0.116419
C86	C	2.018383	0.856485	0.383581
C87	C	1.450935	0.309291	0.048117
C88	C	1.950935	0.809291	0.548117
C89	C	1.450813	0.309410	-0.061607
C90	C	1.950813	0.809410	0.438393
C91	C	1.586072	0.403450	-0.061502
C92	C	2.086072	0.903450	0.438498
C93	C	1.586187	0.403334	0.048220
C94	C	2.086187	0.903334	0.548220
H95	H	0.919416	0.442495	-0.627880
H96	H	1.419416	0.942495	-0.127880
H97	H	1.641308	0.441576	0.092929
H98	H	2.141308	0.941576	0.592929
H99	H	1.545401	0.792789	-0.333169
H100	H	2.045401	1.292789	0.166831
C101	C	1.376360	0.257747	-0.122002
C102	C	1.876360	0.757747	0.377998
N103	N	1.320279	0.218831	-0.167491
N104	N	1.820279	0.718831	0.332509
C105	C	1.660174	0.455393	-0.121798
C106	C	2.160174	0.955393	0.378202
N107	N	1.715910	0.494574	-0.167212
N108	N	2.215910	0.994574	0.332788
H109	H	0.919333	0.270525	-0.384513
H110	H	1.419333	0.770525	0.115487
H111	H	1.456061	0.919477	-0.669977
H112	H	1.956061	1.419477	-0.169977
H113	H	1.455881	0.792247	-0.669455
H114	H	1.955881	1.292247	-0.169455
C115	C	1.134076	0.256966	-0.365302
C116	C	1.634076	0.756966	0.134698
N117	N	1.179515	0.217694	-0.309723
N118	N	1.679515	0.717694	0.190277
C119	C	1.134146	0.456032	-0.647012
C120	C	1.634146	0.956032	-0.147012
N121	N	1.179606	0.495298	-0.702586
N122	N	1.679606	0.995298	-0.202586
H123	H	1.355571	0.920562	-0.569060
H124	H	1.855571	1.420562	-0.069060
H125	H	1.354704	0.792935	-0.568567
H126	H	1.854704	1.292935	-0.068567
H127	H	1.406501	0.918833	-0.371928
H128	H	1.906501	1.418833	0.128072
H129	H	1.544158	0.919522	-0.333244
H130	H	2.044158	1.419522	0.166756
C131	C	1.379683	0.784268	-0.362428
C132	C	1.879683	1.284268	0.137572
N133	N	1.297875	0.762529	-0.337552
N134	N	1.797875	1.262529	0.162448
H135	H	1.651571	0.792593	-0.618495
H136	H	2.151571	1.292593	-0.118495
H137	H	1.656928	0.920157	-0.613945
H138	H	2.156928	1.420157	-0.113945
H139	H	1.692442	0.791602	-0.482047
H140	H	2.192442	1.291602	0.017953
H141	H	1.689880	0.918919	-0.475301
H142	H	2.189880	1.418919	0.024699
H143	H	1.395918	0.270953	0.092737
H144	H	1.895918	0.770953	0.592737
