data_functionalizedCrystal
_audit_creation_method	'MofGen! by Chris Wilmer'
_symmetry_space_group_name_H-M	'P1'
_symmetry_Int_Tables_number	1
_symmetry_cell_setting	triclinic
loop_
_symmetry_equiv_pos_as_xyz
  x,y,z
_cell_length_a	10.723024
_cell_length_b	10.723023
_cell_length_c	9.730223
_cell_angle_alpha	90.000536
_cell_angle_beta	90.004128
_cell_angle_gamma	84.467709
loop_
_atom_site_label
_atom_site_type_symbol
_atom_site_fract_x
_atom_site_fract_y
_atom_site_fract_z
O1	O	0.175024	1.657182	0.114282
O2	O	0.191779	1.294030	0.114286
O3	O	0.001825	1.483982	0.114279
O4	O	0.364978	1.467229	0.114289
O5	O	0.001816	1.483980	-0.114301
O6	O	0.191769	1.294027	-0.114294
O7	O	0.175015	1.657180	-0.114298
Zn8	Zn	0.183390	1.475603	-0.150588
Zn9	Zn	0.183403	1.475606	0.150576
O10	O	0.364968	1.467227	-0.114291
C11	C	0.190555	1.247529	-0.000004
C12	C	0.186908	1.108974	-0.000003
C13	C	-0.044679	1.482762	-0.000010
C14	C	-0.183233	1.479114	-0.000005
C15	C	0.181507	0.904005	-0.118409
C16	C	0.185277	1.047208	-0.118413
C17	C	-0.258216	1.585402	-0.000004
C18	C	-0.401420	1.581634	0.000001
C19	C	0.411473	1.468447	0.000001
C20	C	0.550027	1.472095	0.000005
C21	C	0.176239	1.703680	-0.000005
C22	C	0.179886	1.842235	0.000003
N23	N	0.183402	1.475609	0.356112
N24	N	0.183381	1.475610	-0.356124
C25	C	0.099456	1.559878	0.428035
C26	C	0.099448	1.559882	0.571918
C27	C	0.267336	1.391337	0.571942
C28	C	0.267349	1.391340	0.428062
C29	C	0.002524	1.657183	0.428023
C30	C	0.002516	1.657187	0.571906
H31	H	0.186665	1.100330	-0.219790
H32	H	0.180111	0.850871	-0.219782
H33	H	-0.465852	1.672625	-0.000004
H34	H	0.181296	0.895367	0.101376
H35	H	-0.385548	1.381099	-0.000005
H36	H	-0.216394	1.679188	-0.000013
H37	H	0.024067	1.753023	0.388986
O38	O	-0.112028	1.631918	0.618251
C39	C	-0.320771	1.586038	0.558136
C40	C	-0.191108	1.614615	0.505465
H41	H	-0.384751	1.572067	0.466976
H42	H	-0.310424	1.497211	0.623176
H43	H	-0.363153	1.667778	0.623267
H44	H	-0.148653	1.532952	0.440278
H45	H	-0.201536	1.703484	0.440499
O46	O	0.185466	1.045537	0.120915
C47	C	0.289482	0.885125	0.265305
C48	C	0.291283	0.956903	0.128332
H49	H	0.375011	0.813431	0.271334
H50	H	0.291377	0.953843	0.354512
H51	H	0.200659	0.834903	0.271430
H52	H	0.380092	1.007129	0.122073
H53	H	0.289321	0.888126	0.039190
H54	H	0.033055	1.747721	0.616539
H55	H	-0.225055	1.385328	0.000005
O56	O	0.348951	1.309372	0.358408
C57	C	0.515544	1.142271	0.373622
C58	C	0.423171	1.235012	0.452675
H59	H	0.575594	1.082145	0.449802
H60	H	0.461053	1.079493	0.306281
H61	H	0.578434	1.196587	0.306242
H62	H	0.360259	1.180798	0.520130
H63	H	0.477741	1.297789	0.519929
H64	H	0.335685	1.322728	0.630539
H65	H	-0.088170	1.627044	0.383376
