data_functionalizedCrystal
_audit_creation_method	'MofGen! by Chris Wilmer'
_symmetry_space_group_name_H-M	'P1'
_symmetry_Int_Tables_number	1
_symmetry_cell_setting	triclinic
loop_
_symmetry_equiv_pos_as_xyz
  x,y,z
_cell_length_a	25.639239
_cell_length_b	18.050591
_cell_length_c	18.050582
_cell_angle_alpha	89.980240
_cell_angle_beta	89.975362
_cell_angle_gamma	90.035133
loop_
_atom_site_label
_atom_site_type_symbol
_atom_site_fract_x
_atom_site_fract_y
_atom_site_fract_z
Zn1	Zn	-0.208234	1.135238	-0.419998
Zn2	Zn	-0.295661	1.135126	-0.295803
Zn3	Zn	-0.208236	1.011058	-0.295811
Zn4	Zn	-0.295634	1.010983	-0.419941
O5	O	-0.251941	1.073101	-0.357888
O6	O	-0.219841	1.239148	-0.403543
O7	O	-0.284077	1.118653	-0.191880
O8	O	-0.135071	1.027609	-0.312312
O9	O	-0.284074	1.239066	-0.312298
O10	O	-0.135069	1.118844	-0.403551
O11	O	-0.219846	1.027500	-0.191886
O12	O	-0.219820	0.907123	-0.312257
O13	O	-0.284028	1.027481	-0.523873
O14	O	-0.284031	0.907068	-0.403455
O15	O	-0.219815	1.118771	-0.523915
O16	O	-0.368823	1.118580	-0.312243
O17	O	-0.368803	1.027373	-0.403447
C18	C	-0.251923	0.880149	-0.357851
C19	C	-0.251928	0.797604	-0.357853
C20	C	-0.387784	1.072977	-0.357854
C21	C	-0.445898	1.072991	-0.357865
C22	C	-0.216974	0.548786	-0.308377
C23	C	-0.204244	0.598222	-0.376154
C24	C	-0.251954	0.500483	-0.357914
C25	C	-0.264646	0.598130	-0.290111
C26	C	-0.251940	0.646468	-0.357880
C27	C	-0.239200	0.548831	-0.425727
C28	C	-0.299624	0.548735	-0.339638
C29	C	-0.286913	0.598148	-0.407462
C30	C	-0.251961	0.416385	-0.357932
C31	C	-0.251933	0.730565	-0.357870
C32	C	-0.806259	1.120717	-0.310480
C33	C	-0.860863	1.120746	-0.310489
O34	O	-0.889098	1.161195	-0.270164
N35	N	-0.888180	1.073232	-0.357938
C36	C	-0.860891	1.025691	-0.405384
O37	O	-0.889140	0.985280	-0.445744
C38	C	-0.806287	1.025667	-0.405377
C39	C	-0.778973	1.073179	-0.357921
C40	C	-0.778944	1.168226	-0.263027
C41	C	-0.724344	1.168196	-0.263017
C42	C	-0.697058	1.120657	-0.310458
C43	C	-0.724372	1.073149	-0.357910
C44	C	-0.778999	0.978131	-0.452827
C45	C	-0.724391	0.978111	-0.452817
C46	C	-0.697077	1.025622	-0.405360
C47	C	-0.642486	1.025580	-0.405341
N48	N	-0.615168	1.073094	-0.357893
C49	C	-0.642454	1.120633	-0.310451
C50	C	-0.975561	1.025747	-0.405396
C51	C	-1.030164	1.025767	-0.405399
C52	C	-1.030132	1.120823	-0.310505
C53	C	-0.975529	1.120799	-0.310499
C54	C	-0.948244	1.073261	-0.357948
C55	C	-0.527789	1.120566	-0.310432
C56	C	-0.473184	1.120529	-0.310423
C57	C	-0.473220	1.025477	-0.405320
C58	C	-0.527821	1.025510	-0.405326
C59	C	-0.555104	1.073061	-0.357880
O60	O	-0.614216	0.985154	-0.445648
O61	O	-0.614198	1.161044	-0.270105
C62	C	-0.115568	1.073247	-0.357939
C63	C	-0.057454	1.073309	-0.357960
C64	C	-0.251918	1.073131	-0.551594
C65	C	-0.251908	1.073143	-0.634140
C66	C	-0.251960	1.266807	-0.357926
C67	C	-0.251968	1.349353	-0.357942
C68	C	-0.286780	1.023537	-0.833568
C69	C	-0.299563	1.091289	-0.882964
C70	C	-0.251868	1.073180	-0.785270
C71	C	-0.239071	1.005465	-0.882956
C72	C	-0.251831	1.073209	-0.931256
C73	C	-0.264677	1.140967	-0.833579
C74	C	-0.204162	1.055097	-0.833566
C75	C	-0.216927	1.122896	-0.882940
C76	C	-0.251891	1.073162	-0.701172
C77	C	-0.251808	1.073235	-1.015352
C78	C	-0.251927	1.073115	-0.164936
C79	C	-0.251789	1.073247	-0.082391
H80	H	-0.187375	0.527114	-0.266551
O81	O	-0.352980	1.111572	-0.911714
H82	H	-0.352372	1.111919	-0.973198
O83	O	-0.946075	1.172057	-0.259322
H84	H	-0.921163	1.209806	-0.292601
O85	O	-1.059623	0.974518	-0.456579
H86	H	-1.031470	0.941463	-0.489566
O87	O	-0.353014	0.519910	-0.319145
H88	H	-0.382120	0.540545	-0.359695
H89	H	-0.187388	1.164937	-0.904482
O90	O	-0.326091	0.626677	-0.462994
H91	H	-0.355911	0.660479	-0.433956
H92	H	-0.275386	0.619787	-0.232785
O93	O	-0.443722	1.171781	-0.259242
H94	H	-0.471873	1.204848	-0.226263
H95	H	-0.702107	1.206886	-0.224376
O96	O	-0.150840	0.627027	-0.396619
H97	H	-0.121877	0.607265	-0.355433
O98	O	-0.224904	0.520276	-0.501684
H99	H	-0.225001	0.458788	-0.501093
H100	H	-0.549997	1.159288	-0.271798
H101	H	-0.801155	1.206941	-0.224395
O102	O	-0.325931	0.967979	-0.804843
H103	H	-0.325336	0.968089	-0.743359
O104	O	-0.694966	0.926825	-0.503988
H105	H	-0.705418	0.939524	-0.562289
O106	O	-0.278793	1.216962	-0.804981
H107	H	-0.278619	1.216383	-0.743494
H108	H	-1.052358	1.159534	-0.271878
H109	H	-0.953348	0.987030	-0.444032
H110	H	-0.450995	0.986769	-0.443944
O111	O	-0.224750	0.929595	-0.911683
H112	H	-0.188697	0.933610	-0.945512
O113	O	-0.150766	1.034784	-0.804774
H114	H	-0.140248	0.978508	-0.824505
H115	H	-0.801229	0.939438	-0.491468
O116	O	-0.557287	0.974266	-0.456507
H117	H	-0.529137	0.941207	-0.489496
