data_functionalizedCrystal
_audit_creation_method	'MofGen! by Chris Wilmer'
_symmetry_space_group_name_H-M	'P1'
_symmetry_Int_Tables_number	1
_symmetry_cell_setting	triclinic
loop_
_symmetry_equiv_pos_as_xyz
  x,y,z
_cell_length_a	19.288840
_cell_length_b	16.974813
_cell_length_c	17.766277
_cell_angle_alpha	86.339073
_cell_angle_beta	89.983415
_cell_angle_gamma	83.260449
loop_
_atom_site_label
_atom_site_type_symbol
_atom_site_fract_x
_atom_site_fract_y
_atom_site_fract_z
O1	O	0.921541	0.098544	-0.068721
O2	O	1.421541	0.598544	0.431279
O3	O	0.719302	0.111871	-0.069507
O4	O	1.219302	0.611871	0.430493
O5	O	0.826059	-0.009917	-0.062099
O6	O	1.326059	0.490083	0.437901
O7	O	0.814785	0.220332	-0.076130
O8	O	1.314785	0.720332	0.423870
O9	O	0.826040	-0.009923	0.063090
O10	O	1.326040	0.490077	0.563090
O11	O	0.719284	0.111865	0.055682
O12	O	1.219284	0.611865	0.555682
O13	O	0.921523	0.098538	0.056467
O14	O	1.421523	0.598538	0.556467
Cu15	Cu	0.820401	0.105201	0.067505
Cu16	Cu	1.320401	0.605201	0.567505
Cu17	Cu	0.820424	0.105208	-0.080545
Cu18	Cu	1.320424	0.605208	0.419455
O19	O	0.814766	0.220326	0.049059
O20	O	1.314766	0.720326	0.549059
C21	C	0.693415	0.111442	-0.006883
C22	C	1.193415	0.611442	0.493117
C23	C	0.616309	0.110165	-0.006795
C24	C	1.116309	0.610165	0.493205
C25	C	0.580114	0.109555	-0.075000
C26	C	1.080114	0.609555	0.425000
C27	C	0.507665	0.108346	-0.074936
C28	C	1.007665	0.608346	0.425064
C29	C	0.471415	0.107731	-0.006662
C30	C	0.971415	0.607731	0.493338
C31	C	0.507618	0.108346	0.061552
C32	C	1.007618	0.608346	0.561552
C33	C	0.580064	0.109563	0.061485
C34	C	1.080064	0.609563	0.561485
C35	C	0.361993	0.059487	0.048547
C36	C	0.861993	0.559487	0.548547
C37	C	0.289548	0.058265	0.048611
C38	C	0.789548	0.558265	0.548611
C39	C	0.247965	0.103981	-0.006453
C40	C	0.747965	0.603981	0.493547
C41	C	0.278836	0.150909	-0.061593
C42	C	0.778836	0.650909	0.438407
C43	C	0.351283	0.152126	-0.061660
C44	C	0.851283	0.652126	0.438340
C45	C	0.392859	0.106412	-0.006582
C46	C	0.892859	0.606412	0.493418
C47	C	0.133213	0.102061	-0.074593
C48	C	0.633213	0.602061	0.425407
C49	C	0.060762	0.100857	-0.074526
C50	C	0.560762	0.600857	0.425474
C51	C	0.060717	0.100849	0.061965
C52	C	0.560717	0.600849	0.561965
C53	C	0.133165	0.102061	0.061895
C54	C	0.633165	0.602061	0.561895
C55	C	0.169409	0.102663	-0.006385
C56	C	0.669409	0.602663	0.493615
C57	C	0.825621	-0.039377	0.002289
C58	C	1.325621	0.460623	0.502289
C59	C	0.824334	-0.127149	0.007634
C60	C	1.324334	0.372851	0.507634
C61	C	0.823741	-0.168377	-0.058095
C62	C	1.323741	0.331623	0.441905
C63	C	0.822527	-0.250848	-0.053071
C64	C	1.322527	0.249152	0.446929
C65	C	0.821911	-0.292090	0.017683
C66	C	1.321911	0.207910	0.517683
C67	C	0.822502	-0.250856	0.083417
C68	C	1.322502	0.249144	0.583417
C69	C	0.823711	-0.168386	0.078392
C70	C	1.323711	0.331614	0.578392
C71	C	0.818291	-0.538738	0.040029
C72	C	1.318291	-0.038738	0.540029
C73	C	0.817084	-0.621214	0.045049
C74	C	1.317084	-0.121214	0.545049
C75	C	0.817108	-0.621200	-0.091440
C76	C	1.317108	-0.121200	0.408560
C77	C	0.818321	-0.538729	-0.096458
C78	C	1.318321	-0.038729	0.403542
C79	C	0.818908	-0.497502	-0.030724
C80	C	1.318908	0.002498	0.469276
N81	N	0.820673	-0.376388	0.022820
N82	N	1.320673	0.123612	0.522820
N83	N	0.820141	-0.413204	-0.035862
N84	N	1.320141	0.086796	0.464138
C85	C	0.947410	0.098966	-0.006158
C86	C	1.447410	0.598966	0.493842
C87	C	1.024516	0.100244	-0.006251
C88	C	1.524516	0.600244	0.493749
C89	C	0.815204	0.249786	-0.015331
C90	C	1.315204	0.749786	0.484669
C91	C	0.816491	0.337558	-0.020680
C92	C	1.316491	0.837558	0.479320
N93	N	0.820391	0.105195	0.171636
N94	N	1.320391	0.605195	0.671636
N95	N	0.820440	0.105207	-0.184675
N96	N	1.320440	0.605207	0.315325
C97	C	0.867678	0.051294	0.214302
C98	C	1.367678	0.551294	0.714302
C99	C	0.867682	0.051290	0.293104
C100	C	1.367682	0.551290	0.793104
C101	C	0.820406	0.105201	0.329236
C102	C	1.320406	0.605201	0.829236
C103	C	0.773109	0.159107	0.286561
C104	C	1.273109	0.659107	0.786561
C105	C	0.773102	0.159104	0.207761
C106	C	1.273102	0.659104	0.707761
C107	C	0.811236	0.177247	0.449685
C108	C	1.311236	0.677247	0.949685
C109	C	0.811248	0.177251	0.528483
C110	C	1.311248	0.677251	1.028483
C111	C	0.820424	0.105211	0.572282
C112	C	1.320424	0.605211	1.072282
C113	C	0.829602	0.033163	0.537273
C114	C	1.329602	0.533163	1.037273
C115	C	0.829595	0.033160	0.458473
C116	C	1.329595	0.533160	0.958473
C117	C	0.820408	0.105210	0.414681
C118	C	1.320408	0.605210	0.914681
C119	C	0.867718	0.051301	0.700394
C120	C	1.367718	0.551301	1.200394
C121	C	0.867717	0.051296	0.779198
C122	C	1.367717	0.551296	1.279198
C123	C	0.773148	0.159120	0.772653
C124	C	1.273148	0.659120	1.272653
C125	C	0.773146	0.159118	0.693851
C126	C	1.273146	0.659118	1.193851
C127	C	0.820434	0.105209	0.657727
C128	C	1.320434	0.605209	1.157727
H129	H	0.609534	0.110060	0.117028
H130	H	1.109534	0.610060	0.617028
H131	H	0.824246	-0.134804	-0.115711
H132	H	1.324246	0.365196	0.384289
H133	H	0.609620	0.110045	-0.130600
H134	H	1.109620	0.610045	0.369400
H135	H	0.906190	0.007396	0.327849
H136	H	1.406190	0.507396	0.827849
H137	H	0.244980	0.188139	-0.106429
H138	H	0.744980	0.688139	0.393571
H139	H	0.822048	-0.284412	-0.106595
H140	H	1.322048	0.215588	0.393405
H141	H	0.031202	0.100354	0.117555
H142	H	0.531202	0.600354	0.617555
H143	H	0.837074	-0.025499	0.572932
H144	H	1.337074	0.474501	1.072932
H145	H	0.395845	0.022257	0.093390
H146	H	0.895845	0.522257	0.593390
H147	H	0.816629	-0.654776	-0.144956
H148	H	1.316629	-0.154776	0.355044
H149	H	0.816579	-0.654791	0.102668
H150	H	1.316579	-0.154791	0.602668
H151	H	0.376416	0.190338	-0.106555
H152	H	0.876416	0.690338	0.393445
H153	H	0.162636	0.102553	0.117436
H154	H	0.662636	0.602553	0.617436
H155	H	0.837066	-0.025504	0.429971
H156	H	1.337066	0.474496	0.929971
H157	H	0.824184	-0.134818	0.131916
H158	H	1.324184	0.365182	0.631916
H159	H	0.734652	0.203012	0.802071
H160	H	1.234652	0.703012	1.302071
H161	H	0.818823	-0.505156	-0.154074
H162	H	1.318823	-0.005156	0.345926
H163	H	0.906222	0.007403	0.670981
H164	H	1.406222	0.507403	1.170981
H165	H	0.906222	0.007399	0.813937
H166	H	1.406222	0.507399	1.313937
H167	H	0.818783	-0.505183	0.093554
H168	H	1.318783	-0.005183	0.593554
H169	H	0.031293	0.100365	-0.130069
H170	H	0.531293	0.600365	0.369931
H171	H	0.734643	0.203012	0.659110
H172	H	1.234643	0.703012	1.159110
H173	H	0.162723	0.102560	-0.130191
H174	H	0.662723	0.602560	0.369809
H175	H	0.803779	0.235917	0.556982
H176	H	1.303779	0.735917	1.056982
H177	H	0.803752	0.235915	0.414029
H178	H	1.303752	0.735915	0.914029
H179	H	0.821996	-0.284441	0.141026
H180	H	1.321996	0.215559	0.641026
H181	H	0.906182	0.007397	0.184892
H182	H	1.406182	0.507397	0.684892
H183	H	0.734615	0.203001	0.315984
H184	H	1.234615	0.703001	0.815984
H185	H	0.734594	0.202997	0.173021
H186	H	1.234594	0.702997	0.673021
H187	H	0.478190	0.107850	-0.130478
H188	H	0.978190	0.607850	0.369522
H189	H	0.478098	0.107847	0.117141
H190	H	0.978098	0.607847	0.617141
H191	H	0.264418	0.020050	0.093506
H192	H	0.764418	0.520050	0.593506
