data_functionalizedCrystal
_audit_creation_method	'MofGen! by Chris Wilmer'
_symmetry_space_group_name_H-M	'P1'
_symmetry_Int_Tables_number	1
_symmetry_cell_setting	triclinic
loop_
_symmetry_equiv_pos_as_xyz
  x,y,z
_cell_length_a	14.971486
_cell_length_b	10.654541
_cell_length_c	13.448316
_cell_angle_alpha	89.993648
_cell_angle_beta	89.998199
_cell_angle_gamma	84.049029
loop_
_atom_site_label
_atom_site_type_symbol
_atom_site_fract_x
_atom_site_fract_y
_atom_site_fract_z
O1	O	1.187837	0.163659	-0.082577
O2	O	0.927543	0.183258	-0.082604
O3	O	1.063676	-0.009345	-0.082584
O4	O	1.051704	0.356262	-0.082597
O5	O	1.063659	-0.009357	0.082800
O6	O	0.927526	0.183246	0.082780
O7	O	1.187820	0.163648	0.082807
Cu8	Cu	1.057671	0.173446	0.097894
Cu9	Cu	1.057692	0.173460	-0.097691
O10	O	1.051687	0.356251	0.082787
C11	C	0.894205	0.182376	0.000085
C12	C	0.794894	0.179749	0.000074
C13	C	0.738284	0.292898	0.000072
C14	C	0.644971	0.290423	0.000087
C15	C	0.608270	0.174797	0.000097
C16	C	0.664887	0.061639	0.000103
C17	C	0.758199	0.064116	0.000095
C18	C	0.470397	0.056485	0.000117
C19	C	0.377079	0.054008	0.000123
C20	C	0.357169	0.282792	0.000108
C21	C	0.450480	0.285268	0.000100
C22	C	0.507091	0.172110	0.000104
C23	C	1.062789	-0.056140	0.000107
C24	C	1.060160	-0.195555	0.000106
C25	C	1.222944	-0.225272	0.000135
C26	C	1.303097	-0.305626	0.000152
C27	C	1.300621	-0.436618	0.000148
C28	C	1.217984	-0.487256	0.000125
C29	C	1.137831	-0.406902	0.000109
C30	C	1.140315	-0.275909	0.000115
C31	C	0.975050	-0.377185	0.000072
C32	C	0.977523	-0.246194	0.000083
C33	C	0.892412	-0.427824	0.000049
C34	C	0.812257	-0.347470	0.000040
C35	C	0.814736	-0.216471	0.000044
C36	C	0.897370	-0.165839	0.000066
C37	C	1.221158	0.164530	0.000116
C38	C	1.320469	0.167157	0.000120
C39	C	1.052574	0.403045	0.000093
C40	C	1.055203	0.542460	0.000089
N41	N	1.057663	0.173435	0.235458
N42	N	1.057707	0.173461	-0.235256
C43	C	1.117962	0.088186	0.287508
C44	C	1.117968	0.088185	0.391611
C45	C	1.057678	0.173440	0.443663
C46	C	0.997373	0.258694	0.391606
C47	C	0.997364	0.258688	0.287505
C48	C	0.997398	0.258702	0.608587
C49	C	0.997408	0.258710	0.712695
C50	C	1.118002	0.088199	0.712692
C51	C	1.117992	0.088193	0.608591
C52	C	1.057688	0.173449	0.556542
H53	H	0.804290	-0.028022	0.000097
H54	H	1.370379	-0.264381	0.000179
C55	C	0.365313	-0.141764	-0.084867
C56	C	0.336733	-0.073087	0.000141
H57	H	0.340406	-0.220229	-0.084850
H58	H	0.345929	-0.095171	-0.142534
H59	H	0.428988	-0.156485	-0.084856
H60	H	0.273057	-0.058357	0.000126
H61	H	0.356111	-0.119690	0.057823
H62	H	0.899396	-0.059181	0.000076
C63	C	0.586887	-0.073441	-0.084903
C64	C	0.532630	-0.067896	0.000118
H65	H	0.625311	-0.150222	-0.084901
H66	H	0.550067	-0.069653	-0.142561
H67	H	0.622090	-0.004214	-0.084897
H68	H	0.497422	-0.137118	0.000107
H69	H	0.569454	-0.071696	0.057791
H70	H	1.224967	-0.118613	0.000151
C71	C	1.461781	-0.452850	0.000187
C72	C	1.388725	-0.524951	0.000167
H73	H	1.516171	-0.507386	0.000204
H74	H	1.459377	-0.401137	-0.057483
H75	H	1.459348	-0.401144	0.057864
H76	H	1.391155	-0.576650	-0.057514
H77	H	1.391131	-0.576686	0.057843
H78	H	1.215976	-0.593918	0.000110
H79	H	0.890403	-0.534485	0.000040
H80	H	0.948262	0.328105	0.245128
H81	H	0.749465	-0.151052	0.000026
H82	H	0.744981	-0.388711	0.000014
C83	C	1.169116	-0.129112	0.255533
C84	C	1.184232	-0.005562	0.230322
H85	H	1.210025	-0.186999	0.220233
H86	H	1.177738	-0.141269	0.324978
H87	H	1.109334	-0.142863	0.238469
H88	H	1.244012	0.008192	0.247393
H89	H	1.175618	0.006599	0.160861
H90	H	1.167066	0.018767	0.433989
H91	H	0.948313	0.328133	0.755071
H92	H	1.167089	0.018778	0.566211
C93	C	1.237218	-0.080333	0.702228
C94	C	1.184294	-0.005513	0.769900
H95	H	1.278148	-0.138173	0.737551
H96	H	1.199710	-0.125603	0.661640
H97	H	1.269698	-0.027961	0.661610
H98	H	1.151807	-0.057885	0.810513
H99	H	1.221806	0.039760	0.810505
C100	C	0.750023	0.488674	-0.084956
C101	C	0.778617	0.420002	0.000059
H102	H	0.774917	0.567148	-0.084956
H103	H	0.769411	0.442086	-0.142618
H104	H	0.686347	0.503377	-0.084940
H105	H	0.842293	0.405291	0.000039
H106	H	0.759234	0.466600	0.057736
C107	C	0.878204	0.427264	0.619041
C108	C	0.931115	0.352422	0.551372
H109	H	0.837293	0.485129	0.583716
H110	H	0.845710	0.374919	0.659651
H111	H	0.915729	0.472518	0.659637
H112	H	0.893591	0.307161	0.510780
H113	H	0.963612	0.404774	0.510745
H114	H	0.598882	0.382560	0.000083
H115	H	0.948280	0.328106	0.433993
H116	H	0.480359	0.379421	0.000082
H117	H	0.311071	0.374929	0.000109
H118	H	0.634998	-0.032506	0.000126
