data_functionalizedCrystal
_audit_creation_method	'MofGen! by Chris Wilmer'
_symmetry_space_group_name_H-M	'P1'
_symmetry_Int_Tables_number	1
_symmetry_cell_setting	triclinic
loop_
_symmetry_equiv_pos_as_xyz
  x,y,z
_cell_length_a	31.640172
_cell_length_b	23.096457
_cell_length_c	23.096457
_cell_angle_alpha	59.999299
_cell_angle_beta	90.009611
_cell_angle_gamma	59.998714
loop_
_atom_site_label
_atom_site_type_symbol
_atom_site_fract_x
_atom_site_fract_y
_atom_site_fract_z
Zr1	Zr	0.407184	0.633672	-0.075887
O2	O	0.339684	0.754485	-0.168351
O3	O	0.427874	0.512878	-0.047545
O4	O	0.427861	0.633684	-0.168340
O5	O	0.339710	0.633662	0.047733
O6	O	0.497418	0.633672	-0.168327
O7	O	0.339698	0.633679	-0.047556
O8	O	0.497442	0.417571	0.047753
O9	O	0.339686	0.849763	-0.168347
O10	O	0.488610	0.562546	-0.035444
O11	O	0.436710	0.562543	0.035660
O12	O	0.436694	0.704777	-0.106560
O13	O	0.384794	0.704774	-0.035457
Zr14	Zr	0.518139	0.633627	0.076109
Zr15	Zr	0.518119	0.633653	-0.075866
Zr16	Zr	0.407204	0.633646	0.076089
Zr17	Zr	0.407186	0.785629	-0.075880
Zr18	Zr	0.518136	0.481669	0.076103
O19	O	0.497449	0.754421	0.047767
O20	O	0.497420	0.754458	-0.168322
O21	O	0.339713	0.754448	0.047738
O22	O	0.585639	0.512814	0.168573
O23	O	0.585610	0.512850	-0.047516
O24	O	0.427903	0.512841	0.168545
O25	O	0.585613	0.633636	-0.047511
O26	O	0.497462	0.633615	0.168562
O27	O	0.427905	0.633627	0.168550
O28	O	0.585625	0.633620	0.047778
O29	O	0.427865	0.849748	-0.168331
O30	O	0.497458	0.417551	0.168553
O31	O	0.585637	0.417536	0.168569
O32	O	0.585621	0.417556	0.047769
O33	O	0.339702	0.849742	-0.047547
O34	O	0.427881	0.849727	-0.047531
O35	O	0.488629	0.562522	0.106783
O36	O	0.540529	0.562525	0.035679
O37	O	0.488613	0.704756	-0.035438
O38	O	0.436713	0.704753	0.035666
C39	C	0.462658	0.443574	0.000103
C40	C	0.462657	0.379064	0.000100
C41	C	0.489745	0.348765	-0.037018
C42	C	0.489750	0.288142	-0.037012
C43	C	0.462657	0.257833	0.000102
C44	C	0.435568	0.288137	0.037229
C45	C	0.435568	0.348752	0.037228
N46	N	0.418559	0.195446	-0.005053
N47	N	0.418560	0.137865	-0.005056
C48	C	0.462656	0.075201	0.000109
N49	N	0.506750	0.072301	0.005263
N50	N	0.506748	0.129889	0.005262
C51	C	0.462654	0.192106	0.000108
C52	C	0.489752	-0.020833	-0.037005
C53	C	0.489759	-0.081460	-0.036994
C54	C	0.435572	-0.081458	0.037242
C55	C	0.435570	-0.020838	0.037236
C56	C	0.462659	0.009474	0.000109
C57	C	0.323898	0.633673	0.000086
C58	C	0.276803	0.633681	0.000077
C59	C	0.011897	0.559399	0.037248
C60	C	-0.165088	0.559384	0.037262
O61	O	-0.164927	0.496243	0.068859
N62	N	-0.214318	0.633627	0.000139
C63	C	-0.219300	0.707878	-0.036987
O64	O	-0.265234	0.771025	-0.068556
C65	C	-0.042316	0.707891	-0.036996
C66	C	0.006913	0.633644	0.000123
C67	C	0.061124	0.485157	0.074365
C68	C	0.105367	0.485162	0.074358
C69	C	0.100384	0.559407	0.037234
C70	C	0.051157	0.633648	0.000116
C71	C	-0.047299	0.782142	-0.074117
C72	C	-0.003047	0.782139	-0.074115
C73	C	0.046182	0.707891	-0.036995
C74	C	0.090417	0.707898	-0.037015
N75	N	0.139646	0.633656	0.000108
C76	C	0.144630	0.559410	0.037232
C77	C	-0.312218	0.707866	-0.036980
C78	C	-0.356464	0.707863	-0.036979
C79	C	-0.302249	0.559369	0.037271
C80	C	-0.258002	0.559373	0.037265
C81	C	-0.262988	0.633623	0.000143
C82	C	0.237542	0.559425	0.037214
C83	C	0.281787	0.559436	0.037202
C84	C	0.227568	0.707929	-0.037045
C85	C	0.183327	0.707919	-0.037036
C86	C	0.188317	0.633660	0.000099
O87	O	0.090294	0.771007	-0.068589
O88	O	0.190568	0.496272	0.068810
C89	C	-0.032346	0.559394	0.037255
C90	C	-0.081573	0.633636	0.000137
C91	C	-0.086557	0.707881	-0.036987
C92	C	-0.125819	0.633632	0.000139
C93	C	-0.120836	0.559387	0.037263
C94	C	-0.071606	0.485144	0.074386
C95	C	-0.027363	0.485149	0.074379
C96	C	-0.135786	0.782123	-0.074110
C97	C	-0.180028	0.782113	-0.074101
C98	C	-0.175044	0.707868	-0.036976
C99	C	0.601425	0.633625	0.000137
C100	C	0.648520	0.633617	0.000145
C101	C	0.462636	0.633681	-0.189987
C102	C	0.462628	0.633692	-0.254504
C103	C	0.462665	0.823725	0.000119
C104	C	0.462666	0.888235	0.000122
C105	C	0.500948	0.633687	-0.284791
C106	C	0.500960	0.633671	-0.345399
C107	C	0.462643	0.633676	-0.375726
C108	C	0.424319	0.633676	-0.345429
C109	C	0.424311	0.633685	-0.284819
N110	N	0.417209	0.680027	-0.494091
N111	N	0.417219	0.680021	-0.551669
C112	C	0.462664	0.633649	-0.558341
N113	N	0.508103	0.587293	-0.505265
N114	N	0.508093	0.587303	-0.447683
C115	C	0.462647	0.633666	-0.441447
C116	C	0.501001	0.633624	-0.654345
C117	C	0.501012	0.633602	-0.714951
C118	C	0.424367	0.633616	-0.714985
C119	C	0.424359	0.633630	-0.654376
C120	C	0.462676	0.633638	-0.624061
C121	C	0.462687	0.633617	0.190209
C122	C	0.462695	0.633606	0.254727
C123	C	0.601421	0.443550	0.000129
C124	C	0.648515	0.379032	0.000134
C125	C	0.462683	0.443542	0.190201
C126	C	0.462691	0.379021	0.254716
C127	C	0.601447	0.443518	0.190227
C128	C	0.648549	0.378989	0.254750
C129	C	0.323876	0.823781	-0.190004
C130	C	0.276774	0.888310	-0.254528
C131	C	0.323902	0.823749	0.000094
C132	C	0.276808	0.888267	0.000088
C133	C	0.462640	0.823757	-0.189979
C134	C	0.462632	0.888278	-0.254494
C135	C	0.643530	0.348744	-0.036995
C136	C	0.687775	0.288131	-0.037003
C137	C	0.737005	0.257803	0.000122
C138	C	0.741990	0.288096	0.037252
C139	C	0.697745	0.348712	0.037256
C140	C	0.489795	0.348710	0.322145
C141	C	0.489800	0.288095	0.382769
C142	C	0.462703	0.257786	0.375963
C143	C	0.435595	0.288103	0.308527
C144	C	0.435588	0.348722	0.247905
C145	C	0.697765	0.348687	0.247935
C146	C	0.742027	0.288063	0.308556
C147	C	0.737072	0.257739	0.375991
C148	C	0.687851	0.288047	0.382804
C149	C	0.643590	0.348673	0.322184
C150	C	0.227558	0.918619	-0.247713
C151	C	0.183296	0.979261	-0.308334
C152	C	0.188251	1.009589	-0.375768
C153	C	0.237472	0.979277	-0.382582
C154	C	0.281733	0.918640	-0.321961
C155	C	0.281793	0.918560	0.037211
C156	C	0.237548	0.979190	0.037203
C157	C	0.188318	1.009521	0.000076
C158	C	0.183333	0.979225	-0.037052
C159	C	0.227578	0.918600	-0.037047
C160	C	0.489735	0.918567	-0.247665
C161	C	0.489738	0.979183	-0.308278
C162	C	0.462635	1.009513	-0.375718
C163	C	0.435532	0.979218	-0.382545
C164	C	0.435532	0.918599	-0.321933
H165	H	0.511809	0.263468	-0.067239
H166	H	0.462639	1.058873	-0.425067
H167	H	0.413534	0.263417	0.302997
H168	H	0.511820	-0.106133	-0.067217
H169	H	0.012718	0.424689	0.104607
H170	H	0.701809	0.373368	0.193032
O171	O	0.145307	1.068510	-0.434725
C172	C	0.160228	1.088767	-0.495711
H173	H	0.201073	1.072070	-0.481809
H174	H	0.132259	1.157286	-0.538520
H175	H	0.159419	1.053326	-0.516120
H176	H	0.773028	0.208444	0.000113
H177	H	0.511803	0.373441	-0.067247
O178	O	0.409262	-0.110958	0.073234
C179	C	0.415083	-0.170975	0.065295
H180	H	0.425055	-0.161019	0.015161
H181	H	0.377368	-0.166051	0.061039
H182	H	0.447531	-0.234384	0.113261
O183	O	0.135526	1.008578	-0.301580
C184	C	0.140650	0.968809	-0.229060
H185	H	0.180142	0.907362	-0.196741
H186	H	0.108918	0.958360	-0.220612
H187	H	0.137032	1.008544	-0.211184
O188	O	0.409153	0.889302	-0.328698
C189	C	0.385244	0.929064	-0.401222
H190	H	0.379888	0.990499	-0.433538
H191	H	0.345876	0.939537	-0.409692
H192	H	0.410632	0.889312	-0.419081
O193	O	0.409206	0.008541	0.073297
C194	C	0.385305	-0.031223	0.106073
H195	H	0.379936	-0.056197	0.076959
H196	H	0.345944	0.014255	0.104068
H197	H	0.410706	-0.083878	0.163692
H198	H	0.603518	0.373337	0.327742
O199	O	0.222668	0.780100	-0.073052
C200	C	0.195392	0.825243	-0.045739
H201	H	0.170973	0.804133	-0.018559
H202	H	0.169084	0.893169	-0.090913
H203	H	0.224063	0.814932	-0.005661
O204	O	0.387065	0.633791	-0.625057
C205	C	0.338006	0.704324	-0.675169
H206	H	0.342436	0.753619	-0.716479
H207	H	0.311974	0.728012	-0.647162
H208	H	0.319938	0.688375	-0.702386
H209	H	0.413466	1.003922	-0.437464
H210	H	0.532220	0.633593	-0.739608
H211	H	0.782079	0.263393	0.067477
O212	O	0.135497	1.008612	-0.072996
C213	C	0.108291	0.993816	-0.025334
H214	H	0.137017	0.940671	0.030591
H215	H	0.083811	0.977779	-0.041420
H216	H	0.082047	1.051030	-0.026631
O217	O	0.409335	0.258535	0.073335
C218	C	0.444146	0.173591	0.125435
H219	H	0.479806	0.147910	0.109824
H220	H	0.424505	0.142166	0.129923
H221	H	0.456277	0.162008	0.178686
O222	O	-0.227821	0.854295	-0.110266
C223	C	-0.233517	0.899469	-0.182732
H224	H	-0.193689	0.878358	-0.188812
H225	H	-0.256792	0.967386	-0.205469
H226	H	-0.254677	0.889192	-0.212513
H227	H	-0.139852	0.842584	-0.104343
O228	O	0.242314	1.008564	-0.448071
C229	C	0.269566	0.943842	-0.455801
H230	H	0.294036	0.883221	-0.401218
H231	H	0.295824	0.952980	-0.487767
H232	H	0.240878	0.942988	-0.484668
H233	H	0.321871	0.498972	0.067431
O234	O	0.409205	0.378127	0.073293
C235	C	0.385305	0.338362	0.106072
H236	H	0.379938	0.313384	0.076961
H237	H	0.345943	0.383840	0.104067
H238	H	0.410706	0.285710	0.163692
O239	O	0.409338	0.378140	0.182368
C240	C	0.444124	0.363297	0.145100
H241	H	0.479788	0.355757	0.168244
H242	H	0.424460	0.417136	0.086754
H243	H	0.456252	0.305000	0.150164
O244	O	0.538120	0.633777	-0.374944
C245	C	0.514667	0.704324	-0.445278
H246	H	0.472813	0.727839	-0.466133
H247	H	0.536681	0.688455	-0.479959
H248	H	0.515541	0.753721	-0.446616
H249	H	0.393121	0.633678	-0.370124
O250	O	0.516116	0.008493	-0.073071
C251	C	0.540021	-0.031245	-0.105840
H252	H	0.545390	-0.092689	-0.076722
H253	H	0.579383	-0.041696	-0.103833
H254	H	0.514623	0.008514	-0.163460
O255	O	0.780030	0.198769	0.434928
C256	C	0.779971	0.128624	0.475537
H257	H	0.738649	0.146925	0.462285
H258	H	0.796268	0.099275	0.534343
H259	H	0.804947	0.082951	0.462823
H260	H	0.321806	0.893963	-0.327519
O261	O	0.242459	0.487239	0.073387
C262	C	0.269765	0.442071	0.145849
H263	H	0.294181	0.463191	0.151915
H264	H	0.296079	0.374154	0.168588
H265	H	0.241116	0.452344	0.175638
O266	O	0.516054	1.008674	-0.301763
C267	C	0.510238	1.068695	-0.369717
H268	H	0.500263	1.058754	-0.409908
H269	H	0.547956	1.063761	-0.369023
H270	H	0.477795	1.132103	-0.385168
H271	H	0.782100	0.263393	0.302996
H272	H	-0.067555	0.424691	0.104610
H273	H	-0.396545	0.768322	-0.067215
O274	O	0.538222	0.633650	-0.255412
C275	C	0.572041	0.633661	-0.295155
H276	H	0.570222	0.607874	-0.325470
H277	H	0.613275	0.594116	-0.257855
H278	H	0.559973	0.699002	-0.334277
H279	H	0.393105	0.633689	-0.260159
O280	O	0.683110	0.258593	0.448351
C281	C	0.707083	0.273410	0.485633
H282	H	0.737224	0.280979	0.462471
H283	H	0.726753	0.219546	0.543969
H284	H	0.676658	0.331685	0.480605
O285	O	0.595749	0.378135	-0.073123
C286	C	0.600848	0.338382	-0.105879
H287	H	0.640334	0.313404	-0.113222
H288	H	0.569105	0.383869	-0.159807
H289	H	0.597226	0.285732	-0.071097
H290	H	0.683706	0.263474	-0.067239
H291	H	0.145448	0.424702	0.104582
O292	O	0.222805	0.889182	-0.182173
C293	C	0.246779	0.903997	-0.144891
H294	H	0.276934	0.911533	-0.168035
H295	H	0.266433	0.850146	-0.086550
H296	H	0.216358	0.962288	-0.149940
O297	O	0.329585	0.889090	0.073381
C298	C	0.335270	0.854004	0.145843
H299	H	0.295438	0.881395	0.151910
H300	H	0.358549	0.867290	0.168586
H301	H	0.356421	0.784960	0.175629
O302	O	0.242333	1.008589	0.073330
C303	C	0.218375	0.993757	0.125435
H304	H	0.188206	0.986244	0.109816
H305	H	0.198742	1.047589	0.129941
H306	H	0.248804	0.935447	0.178680
H307	H	0.152295	1.058886	0.000078
O308	O	0.516028	0.889249	-0.182195
C309	C	0.496104	0.953929	-0.174418
H310	H	0.476255	1.014578	-0.228988
H311	H	0.529090	0.944770	-0.142529
H312	H	0.466859	0.954740	-0.145449
O313	O	0.135529	0.780090	-0.073207
C314	C	0.129836	0.825249	-0.145673
H315	H	0.169665	0.804146	-0.151750
H316	H	0.106551	0.893171	-0.168425
H317	H	0.108688	0.814949	-0.175443
O318	O	0.066064	0.412956	0.110440
C319	C	0.119005	0.347440	0.143210
H320	H	0.142588	0.369228	0.114089
H321	H	0.125181	0.295515	0.141211
H322	H	0.132056	0.324600	0.200828
O323	O	0.702684	0.378007	0.073394
C324	C	0.755625	0.338247	0.106144
H325	H	0.779215	0.276814	0.113478
H326	H	0.761810	0.327772	0.160076
H327	H	0.768659	0.378003	0.071363
H328	H	-0.217920	0.498914	0.067497
O329	O	0.516121	0.378089	0.328892
C330	C	0.540048	0.338319	0.401412
H331	H	0.518800	0.313335	0.433731
H332	H	0.538580	0.383796	0.409859
H333	H	0.582110	0.285671	0.419286
O334	O	0.538272	0.633495	-0.624832
C335	C	0.587349	0.562966	-0.604340
H336	H	0.582945	0.513648	-0.596354
H337	H	0.613347	0.539313	-0.552623
H338	H	0.605439	0.578906	-0.647471
O339	O	-0.297503	0.487318	0.073328
C340	C	-0.347115	0.503247	0.065350
H341	H	-0.376446	0.567058	0.051667
H342	H	-0.346621	0.455836	0.117021
H343	H	-0.358394	0.499725	0.020914
O344	O	0.387212	0.633510	-0.744445
C345	C	0.410671	0.562954	-0.744204
H346	H	0.452528	0.539430	-0.741508
H347	H	0.388667	0.578812	-0.794767
H348	H	0.409788	0.513566	-0.696147
H349	H	-0.316286	0.768333	-0.067215
H350	H	0.511877	0.263418	0.437672
O351	O	-0.095074	0.854340	-0.110178
C352	C	-0.089972	0.919861	-0.142947
H353	H	-0.050476	0.898074	-0.113833
H354	H	-0.121698	0.971777	-0.140936
H355	H	-0.093618	0.942713	-0.200569
H356	H	0.462714	0.208427	0.425332
H357	H	-0.007113	0.842604	-0.104336
H358	H	0.223511	0.893937	-0.067275
