data_functionalizedCrystal
_audit_creation_method	'MofGen! by Chris Wilmer'
_symmetry_space_group_name_H-M	'P1'
_symmetry_Int_Tables_number	1
_symmetry_cell_setting	triclinic
loop_
_symmetry_equiv_pos_as_xyz
  x,y,z
_cell_length_a	19.077713
_cell_length_b	11.169417
_cell_length_c	11.169409
_cell_angle_alpha	89.978317
_cell_angle_beta	87.738419
_cell_angle_gamma	92.268232
loop_
_atom_site_label
_atom_site_type_symbol
_atom_site_fract_x
_atom_site_fract_y
_atom_site_fract_z
Zn1	Zn	-0.280142	-1.853985	0.697761
Zn2	Zn	0.219858	-1.353985	1.197761
Zn3	Zn	-0.397854	-1.861867	0.505128
Zn4	Zn	0.102146	-1.361867	1.005128
Zn5	Zn	-0.280181	-1.653273	0.497092
Zn6	Zn	0.219819	-1.153273	0.997092
Zn7	Zn	-0.397793	-1.661267	0.705763
Zn8	Zn	0.102207	-1.161267	1.205763
O9	O	-0.338993	-1.757598	0.601436
O10	O	0.161007	-1.257598	1.101436
O11	O	-0.295766	-2.022981	0.672223
O12	O	0.204234	-1.522981	1.172223
O13	O	-0.382286	-1.834150	0.336115
O14	O	0.117714	-1.334150	0.836115
O15	O	-0.181693	-1.673254	0.516999
O16	O	0.318307	-1.173254	1.016999
O17	O	-0.382249	-2.028772	0.530696
O18	O	0.117751	-1.528772	1.030696
O19	O	-0.181664	-1.820716	0.664430
O20	O	0.318336	-1.320716	1.164430
O21	O	-0.295833	-1.680897	0.330211
O22	O	0.204167	-1.180897	0.830211
O23	O	-0.295773	-1.486383	0.524758
O24	O	0.204227	-0.986383	1.024758
O25	O	-0.382144	-1.686878	0.872648
O26	O	0.117856	-1.186878	1.372648
O27	O	-0.382182	-1.492256	0.678067
O28	O	0.117818	-0.992256	1.178067
O29	O	-0.295707	-1.828467	0.866770
O30	O	0.204293	-1.328467	1.366770
O31	O	-0.496329	-1.841901	0.538455
O32	O	0.003671	-1.341901	1.038455
O33	O	-0.496284	-1.694521	0.685860
O34	O	0.003716	-1.194521	1.185860
C35	C	-0.338976	-1.445772	0.601409
C36	C	0.161024	-0.945772	1.101409
C37	C	-0.338985	-1.312373	0.601428
C38	C	0.161015	-0.812373	1.101428
C39	C	-0.521842	-1.769966	0.613924
C40	C	-0.021842	-1.269966	1.113924
C41	C	-0.600066	-1.775367	0.619307
C42	C	-0.100066	-1.275367	1.119307
C43	C	-1.040375	-1.814100	0.657876
C44	C	-0.540375	-1.314100	1.157876
C45	C	-0.966876	-1.809012	0.652808
C46	C	-0.466876	-1.309012	1.152808
C47	C	-0.930207	-1.729754	0.573463
C48	C	-0.430207	-1.229754	1.073463
C49	C	-0.967042	-1.655587	0.499173
C50	C	-0.467042	-1.155587	0.999173
C51	C	-1.040540	-1.660682	0.504236
C52	C	-0.540540	-1.160682	1.004236
C53	C	-0.710399	-1.706296	0.550079
C54	C	-0.210399	-1.206296	1.050079
C55	C	-0.636896	-1.701204	0.545025
C56	C	-0.136896	-1.201204	1.045025
C57	C	-0.636735	-1.854631	0.698659
C58	C	-0.136735	-1.354631	1.198659
C59	C	-0.710234	-1.859714	0.703720
C60	C	-0.210234	-1.359714	1.203720
C61	C	-0.747063	-1.785552	0.629425
C62	C	-0.247063	-1.285552	1.129425
N63	N	-0.855079	-1.724548	0.568284
N64	N	-0.355079	-1.224548	1.068284
N65	N	-0.822190	-1.790764	0.634599
N66	N	-0.322190	-1.290764	1.134599
C67	C	-0.155429	-1.745214	0.588926
C68	C	0.344571	-1.245214	1.088926
C69	C	-0.077205	-1.739937	0.583594
C70	C	0.422795	-1.239937	1.083594
C71	C	-0.338914	-1.757685	0.914473
C72	C	0.161086	-1.257685	1.414473
C73	C	-0.338881	-1.757722	1.047871
C74	C	0.161119	-1.257722	1.547871
C75	C	-0.339004	-1.070641	0.601454
C76	C	0.160996	-0.570641	1.101454
C77	C	-0.338994	-1.204040	0.601436
C78	C	0.161006	-0.704040	1.101436
C79	C	-0.339020	-1.757577	0.289613
C80	C	0.160980	-1.257577	0.789613
C81	C	-0.338855	-1.757759	0.156202
C82	C	0.161145	-1.257759	0.656202
H83	H	-1.070225	-1.878629	0.722500
H84	H	-0.570225	-1.378629	1.222500
H85	H	-0.740085	-1.924268	0.768317
H86	H	-0.240085	-1.424268	1.268317
F87	F	-0.749586	-1.627359	0.471013
F88	F	-0.249586	-1.127359	0.971013
F89	F	-0.927682	-1.887947	0.731870
F90	F	-0.427682	-1.387947	1.231870
H91	H	-0.937182	-1.591057	0.434562
H92	H	-0.437182	-1.091057	0.934562
H93	H	-1.070526	-1.600290	0.443747
H94	H	-0.570526	-1.100290	0.943747
H95	H	-0.606742	-1.915012	0.759145
H96	H	-0.106742	-1.415012	1.259145
F97	F	-0.597872	-1.616851	0.460562
F98	F	-0.097872	-1.116851	0.960562
