data_functionalizedCrystal
_audit_creation_method	'MofGen! by Chris Wilmer'
_symmetry_space_group_name_H-M	'P1'
_symmetry_Int_Tables_number	1
_symmetry_cell_setting	triclinic
loop_
_symmetry_equiv_pos_as_xyz
  x,y,z
_cell_length_a	10.654562
_cell_length_b	10.540510
_cell_length_c	9.130313
_cell_angle_alpha	90.001199
_cell_angle_beta	89.996930
_cell_angle_gamma	84.501707
loop_
_atom_site_label
_atom_site_type_symbol
_atom_site_fract_x
_atom_site_fract_y
_atom_site_fract_z
O1	O	1.667869	0.178374	-0.121887
O2	O	1.302396	0.195345	-0.121868
O3	O	1.493490	0.002148	-0.121877
O4	O	1.476775	0.371571	-0.121878
O5	O	1.493488	0.002153	0.121721
O6	O	1.302394	0.195350	0.121731
O7	O	1.667866	0.178379	0.121712
Cu8	Cu	1.485130	0.186865	0.143964
Cu9	Cu	1.485133	0.186859	-0.144120
O10	O	1.476773	0.371576	0.121721
C11	C	1.255597	0.194098	-0.000066
C12	C	1.116154	0.190360	-0.000059
C13	C	1.050621	0.188619	0.132715
C14	C	0.919598	0.185117	0.132691
C15	C	0.919651	0.185101	-0.132894
C16	C	1.050673	0.188595	-0.132868
C17	C	1.116102	0.190384	0.265524
C18	C	1.050570	0.188645	0.398309
C19	C	0.919547	0.185142	0.398285
C20	C	0.854056	0.183379	0.265475
C21	C	1.492243	-0.045153	-0.000081
C22	C	1.488517	-0.186101	-0.000090
C23	C	1.621269	-0.403599	0.000461
C24	C	1.625244	-0.257004	-0.000095
C25	C	1.418527	-0.230841	-0.139190
C26	C	1.415520	-0.377601	-0.139299
C27	C	1.412670	-0.377403	0.137719
C28	C	1.419155	-0.231064	0.139550
C29	C	1.714666	0.179626	-0.000093
C30	C	1.854109	0.183364	-0.000110
C31	C	1.478019	0.418877	-0.000079
C32	C	1.481746	0.559825	-0.000079
N33	N	1.485137	0.186869	0.346586
N34	N	1.485135	0.186845	-0.346743
C35	C	1.569775	0.101350	0.423234
C36	C	1.569772	0.101335	0.576571
C37	C	1.400488	0.272368	0.576599
C38	C	1.400487	0.272376	0.423265
C39	C	1.654426	0.015843	0.346556
C40	C	1.739072	-0.069681	0.423204
C41	C	1.739069	-0.069696	0.576541
C42	C	1.654419	0.015813	0.653230
H43	H	1.103902	0.190071	0.506437
C44	C	1.307387	0.366450	0.338944
C45	C	1.214336	0.460563	0.423286
C46	C	1.121229	0.554635	0.338967
C47	C	1.121173	0.554594	0.170305
C48	C	1.214228	0.460478	0.085954
C49	C	1.307334	0.366406	0.170273
H50	H	1.214374	0.460596	0.548148
H51	H	1.052344	0.624306	0.401410
H52	H	1.052250	0.624232	0.107887
H53	H	1.214190	0.460445	-0.038908
H54	H	1.376219	0.296735	0.107830
C55	C	0.847613	0.183176	-0.278976
C56	C	0.770806	0.070739	-0.315512
C57	C	0.698769	0.068819	-0.461596
C58	C	0.703537	0.179336	-0.571144
C59	C	0.780347	0.291781	-0.534611
C60	C	0.852384	0.293701	-0.388527
H61	H	0.767274	-0.011080	-0.234415
H62	H	0.641909	-0.014422	-0.488639
H63	H	0.650211	0.177914	-0.679284
H64	H	0.783879	0.373600	-0.615707
H65	H	0.909244	0.376941	-0.361483
H66	H	1.222788	0.193240	0.265559
H67	H	0.866195	0.183716	0.506404
H68	H	1.680006	-0.227675	0.099615
H69	H	1.331571	0.341987	0.639049
C70	C	1.122772	0.190516	-0.278916
C71	C	1.118056	0.079994	-0.388472
C72	C	1.190159	0.081910	-0.534521
C73	C	1.266979	0.194348	-0.571014
C74	C	1.271699	0.304878	-0.461455
C75	C	1.199595	0.302962	-0.315406
H76	H	1.061186	-0.003247	-0.361460
H77	H	1.186665	0.000087	-0.615623
H78	H	1.320354	0.195766	-0.679128
H79	H	1.328568	0.388119	-0.488467
H80	H	1.203089	0.384785	-0.234304
H81	H	1.470083	-0.202466	0.242455
H82	H	1.310014	-0.399521	0.138662
C83	C	1.832170	-0.163771	0.660858
C84	C	1.925272	-0.257828	0.576511
C85	C	2.018382	-0.351901	0.660826
C86	C	2.018389	-0.351917	0.829488
C87	C	1.925284	-0.257856	0.913844
C88	C	1.832174	-0.163783	0.829529
H89	H	1.925270	-0.257820	0.451650
H90	H	2.087305	-0.421532	0.598379
H91	H	2.087314	-0.421555	0.891902
H92	H	1.925286	-0.257864	1.038705
H93	H	1.763251	-0.094152	0.891976
H94	H	1.674230	-0.447123	-0.098735
H95	H	0.747369	0.180525	0.265466
H96	H	1.680326	-0.228618	-0.099985
C97	C	1.480148	-0.431965	-0.279765
C98	C	1.534128	-0.341795	-0.391059
C99	C	1.598760	-0.396152	-0.531527
C100	C	1.609413	-0.540679	-0.560701
C101	C	1.555431	-0.630858	-0.449405
C102	C	1.490799	-0.576501	-0.308937
H103	H	1.526243	-0.234800	-0.369465
H104	H	1.638721	-0.329395	-0.613916
H105	H	1.657257	-0.580917	-0.664684
H106	H	1.563315	-0.737853	-0.470999
H107	H	1.450838	-0.643258	-0.226548
C108	C	1.282549	-0.166777	-0.146191
C109	C	1.233362	-0.072868	-0.025392
C110	C	1.097384	-0.008801	-0.032391
C111	C	1.010594	-0.038643	-0.160189
C112	C	1.059779	-0.132556	-0.280998
C113	C	1.195757	-0.196623	-0.273999
H114	H	1.297611	-0.050773	0.069220
H115	H	1.060975	0.060720	0.057041
H116	H	0.909935	0.008783	-0.165370
H117	H	0.995530	-0.154651	-0.375610
H118	H	1.232167	-0.266144	-0.363430
C119	C	1.284299	-0.164742	0.150906
C120	C	1.188385	-0.181285	0.027846
C121	C	1.053523	-0.114961	0.039187
C122	C	1.014574	-0.032095	0.173587
C123	C	1.110489	-0.015548	0.296656
C124	C	1.245352	-0.081871	0.285316
H125	H	1.217216	-0.242631	-0.071653
H126	H	0.982521	-0.127211	-0.051918
H127	H	0.914741	0.017002	0.181982
H128	H	1.081659	0.045798	0.396156
H129	H	1.316354	-0.069622	0.376420
H130	H	1.674535	-0.445568	0.100217
H131	H	1.313256	-0.400564	-0.145596
H132	H	1.467135	-0.200002	-0.242713
H133	H	1.456119	-0.419596	0.243158
H134	H	1.654439	0.015850	0.221702
H135	H	1.807984	-0.139307	0.360756
H136	H	1.654415	0.015785	0.778087
