data_functionalizedCrystal
_audit_creation_method	'MofGen! by Chris Wilmer'
_symmetry_space_group_name_H-M	'P1'
_symmetry_Int_Tables_number	1
_symmetry_cell_setting	triclinic
loop_
_symmetry_equiv_pos_as_xyz
  x,y,z
_cell_length_a	19.188905
_cell_length_b	19.188930
_cell_length_c	10.868271
_cell_angle_alpha	89.989749
_cell_angle_beta	89.988558
_cell_angle_gamma	83.139668
loop_
_atom_site_label
_atom_site_type_symbol
_atom_site_fract_x
_atom_site_fract_y
_atom_site_fract_z
O1	O	0.926156	0.087085	-0.102539
O2	O	0.722842	0.098837	-0.102499
O3	O	0.830366	-0.008695	-0.102496
O4	O	0.818632	0.194617	-0.102541
O5	O	0.830357	-0.008699	0.102149
O6	O	0.722833	0.098833	0.102146
O7	O	0.926147	0.087081	0.102106
Zn8	Zn	0.824489	0.092956	0.134618
Zn9	Zn	0.824500	0.092962	-0.135010
O10	O	0.818623	0.194613	0.102103
C11	C	0.696826	0.098458	-0.000171
C12	C	0.619321	0.097324	-0.000154
C13	C	0.582934	0.096782	-0.111709
C14	C	0.510110	0.095709	-0.111724
C15	C	0.473678	0.095164	-0.000178
C16	C	0.510073	0.095710	0.111392
C17	C	0.582895	0.096790	0.111403
N18	N	0.364654	0.053734	0.082844
N19	N	0.295477	0.052706	0.082825
C20	C	0.254272	0.091911	-0.000207
N21	N	0.284857	0.132174	-0.083239
N22	N	0.354041	0.133198	-0.083223
C23	C	0.394716	0.093993	-0.000178
C24	C	0.138921	0.090206	-0.111786
C25	C	0.066095	0.089138	-0.111796
C26	C	0.066061	0.089132	0.111323
C27	C	0.138884	0.090208	0.111330
C28	C	0.175310	0.090742	-0.000228
C29	C	0.829982	-0.034708	-0.000170
C30	C	0.828841	-0.112213	-0.000159
C31	C	0.891933	-0.157142	-0.000166
C32	C	0.890861	-0.229966	-0.000185
C33	C	0.826694	-0.257857	-0.000173
C34	C	0.763594	-0.212917	-0.000174
C35	C	0.764668	-0.140095	-0.000166
N36	N	0.777643	-0.365859	0.069481
N37	N	0.776628	-0.435037	0.069477
C38	C	0.823456	-0.477265	-0.000198
N39	N	0.871348	-0.447702	-0.069852
N40	N	0.872366	-0.378518	-0.069842
C41	C	0.825523	-0.336819	-0.000182
C42	C	0.885390	-0.601159	-0.000227
C43	C	0.884315	-0.673984	-0.000254
C44	C	0.757047	-0.656933	-0.000230
C45	C	0.758123	-0.584110	-0.000216
C46	C	0.822296	-0.556228	-0.000208
C47	C	0.952163	0.087460	-0.000225
C48	C	1.029668	0.088594	-0.000249
C49	C	0.819007	0.220626	-0.000225
C50	C	0.820148	0.298131	-0.000244
N51	N	0.824486	0.092952	0.318632
N52	N	0.824509	0.092960	-0.319024
C53	C	0.824497	0.092960	0.569638
C54	C	0.824488	0.092958	0.429960
H55	H	0.612521	0.097232	0.202248
H56	H	0.168511	0.090645	0.202170
Br57	Br	0.979024	-0.119304	-0.000190
H58	H	0.706747	-0.547527	-0.000203
Br59	Br	0.188360	0.090936	-0.263181
Br60	Br	0.976491	-0.290954	-0.000199
H61	H	0.036470	0.088700	-0.202642
H62	H	0.612587	0.097216	-0.202548
Br63	Br	0.669961	-0.694777	-0.000227
Br64	Br	0.972480	-0.563314	-0.000204
Br65	Br	0.676510	-0.250767	-0.000173
H66	H	0.713289	-0.103513	-0.000161
Br67	Br	0.460631	0.094979	0.262777
Br68	Br	0.969948	-0.734962	-0.000276
H69	H	0.480478	0.095268	-0.202569
Br70	Br	0.016624	0.088403	0.262710
