data_functionalizedCrystal
_audit_creation_method	'MofGen! by Chris Wilmer'
_symmetry_space_group_name_H-M	'P1'
_symmetry_Int_Tables_number	1
_symmetry_cell_setting	triclinic
loop_
_symmetry_equiv_pos_as_xyz
  x,y,z
_cell_length_a	33.592126
_cell_length_b	33.591377
_cell_length_c	33.588093
_cell_angle_alpha	60.004089
_cell_angle_beta	60.008299
_cell_angle_gamma	59.994549
loop_
_atom_site_label
_atom_site_type_symbol
_atom_site_fract_x
_atom_site_fract_y
_atom_site_fract_z
O1	O	0.055297	-0.581666	0.486338
O2	O	0.020882	-0.452873	0.391864
O3	O	0.102445	-0.534352	0.391775
O4	O	-0.026266	-0.500187	0.486427
O5	O	0.129510	-0.507292	0.418747
O6	O	0.047947	-0.425814	0.418835
O7	O	0.082362	-0.554606	0.513309
Cu8	Cu	0.067626	-0.487739	0.468535
Cu9	Cu	0.035618	-0.519740	0.436638
O10	O	0.000799	-0.473128	0.513398
N11	N	0.090139	-0.465235	0.490972
N12	N	0.013110	-0.542249	0.414202
C13	C	0.124394	-0.431229	0.734914
C14	C	0.334265	-0.431145	0.524799
C15	C	0.124204	-0.431200	0.524965
C16	C	0.124184	-0.221175	0.524955
C17	C	0.158017	-0.322536	0.558710
C18	C	0.158027	-0.397406	0.558711
C19	C	0.176763	-0.378688	0.577408
C20	C	0.258412	-0.364594	0.534386
C21	C	0.309454	-0.381596	0.517340
C22	C	0.309485	-0.464188	0.548836
C23	C	0.258444	-0.447186	0.565883
C24	C	0.170304	-0.297002	0.508532
C25	C	0.153260	-0.245956	0.491537
C26	C	0.111648	-0.245983	0.574901
C27	C	0.128691	-0.297029	0.591896
C28	C	0.107841	-0.385091	0.571080
C29	C	0.090813	-0.402108	0.554078
C30	C	0.174153	-0.443755	0.512351
C31	C	0.191183	-0.426739	0.529347
C32	C	0.107923	-0.385106	0.659111
C33	C	0.090955	-0.402138	0.710156
C34	C	0.174335	-0.443795	0.710087
C35	C	0.191302	-0.426764	0.659041
C36	C	0.158095	-0.397418	0.633555
C37	C	0.232909	-0.397388	0.558656
C38	C	0.105069	-0.449619	0.791057
C39	C	0.390406	-0.449193	0.505789
C40	C	0.104813	-0.449599	0.506607
C41	C	0.105125	-0.165028	0.506915
C42	C	-0.020560	-0.576246	0.169890
C43	C	-0.020889	-0.786183	0.379970
C44	C	-0.020859	-0.576235	0.380063
C45	C	-0.230772	-0.576015	0.379658
C46	C	-0.129417	-0.609898	0.346025
C47	C	-0.054587	-0.609979	0.346172
C48	C	-0.073269	-0.628671	0.327396
C49	C	-0.087401	-0.710299	0.370335
C50	C	-0.070424	-0.761345	0.387369
C51	C	0.012165	-0.761428	0.356003
C52	C	-0.004813	-0.710383	0.338967
C53	C	-0.155001	-0.622196	0.396191
C54	C	-0.206043	-0.605128	0.413125
C55	C	-0.205914	-0.563467	0.329724
C56	C	-0.154872	-0.580535	0.312790
C57	C	-0.066886	-0.559797	0.333828
C58	C	-0.049903	-0.542809	0.350903
C59	C	-0.008321	-0.626180	0.392654
C60	C	-0.025304	-0.643170	0.375585
C61	C	-0.066758	-0.559805	0.245702
C62	C	-0.049671	-0.542819	0.194658
C63	C	-0.008026	-0.626194	0.194706
C64	C	-0.025111	-0.643179	0.245752
C65	C	-0.054479	-0.609983	0.271248
C66	C	-0.054597	-0.684821	0.346135
C67	C	-0.002109	-0.556901	0.113746
C68	C	-0.002869	-0.842328	0.398966
C69	C	-0.002496	-0.556887	0.398501
C70	C	-0.286914	-0.556929	0.397631
N71	N	0.436349	-0.465146	0.490703
O72	O	0.592194	-0.469605	0.374236
O73	O	0.592389	-0.564393	0.502890
O74	O	0.592305	-0.564176	0.421300
O75	O	0.592277	-0.469822	0.455826
O76	O	0.511216	-0.537214	0.448415
O77	O	0.511300	-0.537431	0.530004
O78	O	0.511104	-0.442643	0.401350
Cu79	Cu	0.503798	-0.487575	0.468153
Cu80	Cu	0.599695	-0.519461	0.436087
O81	O	0.511188	-0.442860	0.482940
N82	N	0.667145	-0.541890	0.413532
N83	N	0.090108	-0.119085	0.490958
O84	O	-0.026275	0.036848	0.486394
O85	O	0.102381	0.036888	0.391584
O86	O	0.020751	0.036852	0.391854
O87	O	0.055356	0.036884	0.486124
O88	O	0.047821	-0.044242	0.418876
O89	O	0.129452	-0.044207	0.418606
O90	O	0.000796	-0.044246	0.513417
Cu91	Cu	0.067596	-0.051631	0.468479
Cu92	Cu	0.035582	0.044273	0.436522
O93	O	0.082426	-0.044211	0.513146
N94	N	0.013063	0.111726	0.414043
N95	N	0.090453	-0.465282	0.837001
O96	O	0.085913	-0.581648	0.992925
O97	O	-0.008857	-0.452947	0.992970
O98	O	-0.008635	-0.534562	0.992946
O99	O	0.085691	-0.500033	0.992949
O100	O	0.018365	-0.507512	0.911855
O101	O	0.018143	-0.425898	0.911878
O102	O	0.112912	-0.554598	0.911834
Cu103	Cu	0.067993	-0.487778	0.904452
Cu104	Cu	0.036063	-0.519767	1.000352
O105	O	0.112691	-0.472984	0.911857
N106	N	0.013602	-0.542269	1.067803
C107	C	0.031188	-0.423114	0.392334
C108	C	0.132194	-0.524016	0.392223
C109	C	0.072056	-0.584366	0.512840
C110	C	-0.028950	-0.483464	0.512950
C111	C	0.551868	-0.563965	0.532655
C112	C	0.551766	-0.563697	0.431617
C113	C	0.551623	-0.443070	0.371586
C114	C	0.551728	-0.443339	0.472623
C115	C	0.132090	-0.003555	0.392006
C116	C	0.031035	-0.003698	0.392374
C117	C	-0.028947	-0.003703	0.512961
C118	C	0.072143	-0.003661	0.512626
C119	C	-0.008408	-0.423209	0.952430
C120	C	-0.008128	-0.524272	0.952385
C121	C	0.112464	-0.584336	0.952374
C122	C	0.112190	-0.483267	0.952401
H123	H	0.050098	-0.392105	0.730957
O124	O	0.147592	-0.474543	0.952414
C125	C	0.229766	-0.506428	0.952356
C126	C	0.189712	-0.516377	0.952353
H127	H	0.263833	-0.540240	0.952296
H128	H	0.216299	-0.497171	0.986305
H129	H	0.238827	-0.474488	0.918432
H130	H	0.180633	-0.548322	0.986254
H131	H	0.203200	-0.525605	0.918381
O132	O	0.176296	-0.532618	0.356746
C133	C	0.247910	-0.508976	0.303440
C134	C	0.197970	-0.499175	0.343609
H135	H	0.265452	-0.481950	0.292814
H136	H	0.242814	-0.504552	0.270173
H137	H	0.272451	-0.547713	0.317623
H138	H	0.173402	-0.460441	0.329472
H139	H	0.203103	-0.503631	0.376868
H140	H	0.023621	-0.003702	0.362756
H141	H	-0.065919	-0.476185	0.542670
O142	O	0.552000	-0.599527	0.576693
C143	C	0.594127	-0.680822	0.620179
C144	C	0.594032	-0.640595	0.570275
H145	H	0.628112	-0.714031	0.615008
H146	H	0.560236	-0.691530	0.637724
H147	H	0.594119	-0.666670	0.644759
H148	H	0.594058	-0.654713	0.545658
H149	H	0.627920	-0.629893	0.552769
H150	H	0.237680	-0.473893	0.585645
H151	H	0.079411	-0.621363	0.542512
H152	H	0.551722	-0.413701	0.480010
H153	H	0.168963	-0.003318	0.362168
H154	H	0.551779	-0.593338	0.424228
H155	H	0.142219	-0.621297	0.952354
H156	H	-0.065895	-0.003715	0.542725
H157	H	0.015526	-0.653210	0.416597
H158	H	0.080878	-0.361206	0.638363
H159	H	0.551560	-0.413310	0.334638
H160	H	0.079554	-0.003651	0.542242
O161	O	-0.043859	-0.379094	0.952467
C162	C	-0.066521	-0.298760	0.952460
C163	C	-0.026334	-0.348701	0.952430
H164	H	-0.052364	-0.274170	0.952421
H165	H	-0.099767	-0.303858	0.986409
H166	H	-0.077174	-0.281270	0.918536
H167	H	-0.015639	-0.366219	0.986332
H168	H	0.006886	-0.343571	0.918459
H169	H	0.023834	-0.386116	0.362662
O170	O	-0.043406	-0.533142	0.952322
C171	C	-0.065692	-0.591060	0.952275
C172	C	-0.025693	-0.581076	0.952336
H173	H	-0.051390	-0.629817	0.952297
H174	H	-0.076336	-0.564083	0.918325
H175	H	-0.098981	-0.586676	0.986198
H176	H	0.007622	-0.585467	0.918436
H177	H	-0.015091	-0.608051	0.986309
H178	H	0.201378	-0.467681	0.730833
H179	H	0.080840	-0.361208	0.594989
O180	O	0.240054	-0.438812	0.634271
C181	C	0.316508	-0.503510	0.618575
C182	C	0.261307	-0.489934	0.646665
H183	H	0.333706	-0.544841	0.628577
H184	H	0.333756	-0.489456	0.628603
H185	H	0.322921	-0.486275	0.577717
H186	H	0.254850	-0.507164	0.687529
H187	H	0.244087	-0.503979	0.636596
O188	O	0.042059	-0.390209	0.566175
C189	C	-0.034349	-0.394119	0.630935
C190	C	0.020858	-0.407634	0.617303
H191	H	-0.051508	-0.408193	0.672272
H192	H	-0.040850	-0.411337	0.613777
H193	H	-0.051568	-0.352788	0.616844
H194	H	0.038114	-0.448958	0.631391
H195	H	0.027324	-0.390382	0.634454
O196	O	0.206388	-0.472174	0.483757
C197	C	0.272405	-0.478662	0.408614
C198	C	0.235913	-0.446426	0.440947
H199	H	0.296293	-0.457861	0.373999
H200	H	0.251652	-0.488705	0.398537
H201	H	0.296311	-0.513304	0.429390
H202	H	0.211998	-0.411764	0.420200
H203	H	0.256697	-0.436422	0.451026
O204	O	0.334241	-0.512564	0.555821
C205	C	0.349882	-0.582971	0.540829
C206	C	0.321807	-0.528188	0.532892
H207	H	0.339848	-0.595617	0.522287
H208	H	0.339874	-0.604366	0.581556
H209	H	0.390741	-0.589478	0.524492
H210	H	0.280942	-0.521636	0.549200
H211	H	0.331856	-0.506821	0.492159
O212	O	0.334154	-0.349672	0.493754
C213	C	0.328738	-0.265961	0.464335
C214	C	0.300704	-0.302060	0.491045
H215	H	0.301707	-0.227460	0.462145
H216	H	0.352595	-0.267477	0.425938
H217	H	0.352673	-0.276229	0.485182
H218	H	0.276743	-0.291817	0.470239
H219	H	0.276878	-0.300538	0.529444
H220	H	0.232048	-0.436761	0.519270
H221	H	0.194180	-0.317769	0.481510
O222	O	0.165255	-0.221224	0.442776
C223	C	0.208299	-0.226581	0.361882
C224	C	0.194761	-0.254650	0.417089
H225	H	0.232148	-0.253594	0.341098
H226	H	0.229103	-0.202687	0.351792
H227	H	0.173634	-0.202677	0.351884
H228	H	0.229401	-0.278580	0.427126
H229	H	0.173938	-0.278513	0.427150
O230	O	0.233556	-0.316241	0.527452
C231	C	0.175968	-0.254484	0.565079
C232	C	0.204079	-0.309259	0.573001
H233	H	0.152137	-0.248820	0.601899
H234	H	0.152011	-0.240098	0.542685
H235	H	0.202976	-0.233975	0.544782
H236	H	0.177106	-0.329807	0.593310
H237	H	0.228043	-0.323607	0.595375
H238	H	0.087777	-0.225214	0.601924
H239	H	-0.059677	-0.501957	0.173865
O240	O	0.116815	-0.321815	0.640646
C241	C	0.120745	-0.337428	0.717079
C242	C	0.134237	-0.309337	0.661876
H243	H	0.134815	-0.327342	0.734262
H244	H	0.137977	-0.378299	0.723555
H245	H	0.079418	-0.327414	0.734295
H246	H	0.175557	-0.319311	0.644624
H247	H	0.116970	-0.268474	0.655436
O248	O	-0.095208	-0.527541	0.270453
C249	C	-0.101741	-0.461505	0.286081
C250	C	-0.069472	-0.498018	0.258027
H251	H	-0.080950	-0.437619	0.276037
H252	H	-0.111825	-0.482244	0.326955
H253	H	-0.136355	-0.437596	0.275993
H254	H	-0.034837	-0.521935	0.268074
H255	H	-0.059426	-0.477248	0.217159
O256	O	0.020506	-0.658507	0.170018
C257	C	0.059973	-0.742999	0.175460
C258	C	0.027666	-0.706456	0.203480
H259	H	0.065764	-0.781773	0.202502
H260	H	0.096730	-0.737201	0.151632
H261	H	0.041314	-0.737070	0.151497
H262	H	0.046283	-0.712362	0.227469
H263	H	-0.009088	-0.712262	0.227278
H264	H	-0.090726	-0.532768	0.309877
O265	O	-0.061755	-0.494076	0.338895
C266	C	-0.032355	-0.426558	0.299656
C267	C	-0.018867	-0.481754	0.313233
H268	H	0.002311	-0.416577	0.278897
H269	H	-0.053151	-0.416471	0.334270
H270	H	-0.056217	-0.405756	0.275718
H271	H	0.005011	-0.502594	0.337158
H272	H	0.001904	-0.491804	0.278599
O273	O	-0.013294	-0.691932	0.387599
C274	C	0.029720	-0.772835	0.430834
C275	C	0.016162	-0.717627	0.417258
H276	H	0.053529	-0.793626	0.454823
H277	H	0.050572	-0.782929	0.396220
H278	H	-0.004940	-0.782822	0.451536
H279	H	0.050797	-0.707600	0.396567
H280	H	-0.004708	-0.707563	0.451889
H281	H	-0.015108	-0.684041	0.266548
O282	O	0.027118	-0.685707	0.315488
C283	C	0.110831	-0.691178	0.286150
C284	C	0.074721	-0.719183	0.312759
H285	H	0.149327	-0.718232	0.283926
H286	H	0.100601	-0.667289	0.307027
H287	H	0.109298	-0.667276	0.247763
H288	H	0.076235	-0.743113	0.351146
H289	H	0.084963	-0.743042	0.291845
H290	H	-0.097137	-0.782089	0.407066
O291	O	0.060506	-0.786338	0.349104
C292	C	0.123266	-0.865015	0.361422
C293	C	0.068507	-0.836866	0.369279
H294	H	0.129753	-0.905871	0.377721
H295	H	0.135928	-0.855031	0.379995
H296	H	0.144662	-0.854976	0.320698
H297	H	0.047072	-0.846890	0.409992
H298	H	0.055882	-0.846852	0.350675
O299	O	-0.135750	-0.685486	0.377218
C300	C	-0.206099	-0.669819	0.362115
C301	C	-0.151341	-0.697948	0.354283
H302	H	-0.218723	-0.679892	0.343586
H303	H	-0.212615	-0.628954	0.345757
H304	H	-0.227505	-0.679812	0.402838
H305	H	-0.129899	-0.687995	0.313571
H306	H	-0.144862	-0.738806	0.370674
O307	O	-0.130349	-0.650695	0.428539
C308	C	-0.135866	-0.690235	0.513051
C309	C	-0.163844	-0.657946	0.476468
H310	H	-0.162934	-0.696115	0.551809
H311	H	-0.111979	-0.671571	0.507254
H312	H	-0.111966	-0.726953	0.507167
H313	H	-0.187770	-0.621222	0.482330
H314	H	-0.187699	-0.676648	0.482274
H315	H	-0.226640	-0.539563	0.302661
O316	O	-0.230955	-0.617093	0.461847
C317	C	-0.288645	-0.656319	0.529352
C318	C	-0.260472	-0.642788	0.474168
H319	H	-0.312508	-0.677105	0.539332
H320	H	-0.312575	-0.621681	0.539396
H321	H	-0.261677	-0.680218	0.550188
H322	H	-0.287404	-0.618902	0.453294
H323	H	-0.236535	-0.677446	0.464161
H324	H	-0.134040	-0.570516	0.271939
