data_functionalizedCrystal
_audit_creation_method	'MofGen! by Chris Wilmer'
_symmetry_space_group_name_H-M	'P1'
_symmetry_Int_Tables_number	1
_symmetry_cell_setting	triclinic
loop_
_symmetry_equiv_pos_as_xyz
  x,y,z
_cell_length_a	14.519709
_cell_length_b	10.654550
_cell_length_c	9.130313
_cell_angle_alpha	90.003751
_cell_angle_beta	89.997166
_cell_angle_gamma	84.082538
loop_
_atom_site_label
_atom_site_type_symbol
_atom_site_fract_x
_atom_site_fract_y
_atom_site_fract_z
O1	O	1.224719	0.164622	0.121608
O2	O	0.956342	0.184008	0.121653
O3	O	1.096701	-0.008484	0.121620
O4	O	1.084360	0.357114	0.121641
O5	O	1.096693	-0.008487	-0.121979
O6	O	0.956335	0.184005	-0.121946
O7	O	1.224711	0.164618	-0.121991
Cu8	Cu	1.090522	0.174311	-0.144211
Cu9	Cu	1.090531	0.174315	0.143873
O10	O	1.084352	0.357110	-0.121958
C11	C	0.921974	0.183103	-0.000141
C12	C	0.819579	0.180396	-0.000124
C13	C	1.095791	-0.055275	-0.000178
C14	C	1.093080	-0.194692	-0.000176
C15	C	1.175721	-0.274972	-0.000189
C16	C	1.173168	-0.405968	-0.000171
C17	C	1.005326	-0.376391	-0.000132
C18	C	1.007880	-0.245397	-0.000140
C19	C	0.444631	0.170428	-0.000191
C20	C	0.548954	0.173196	-0.000172
C21	C	0.632102	0.175412	-0.000156
C22	C	0.736431	0.178180	-0.000140
C23	C	1.259079	0.165524	-0.000194
C24	C	1.361475	0.168231	-0.000201
C25	C	1.085262	0.403901	-0.000156
C26	C	1.087973	0.543318	-0.000150
N27	N	1.090522	0.174307	-0.346834
C28	C	1.152698	0.089104	-0.576847
C29	C	1.152693	0.089105	-0.423510
C30	C	1.028359	0.259522	-0.423502
C31	C	1.028370	0.259525	-0.576836
N32	N	1.090538	0.174309	0.346496
H33	H	1.245096	-0.233692	-0.000215
Br34	Br	0.889703	-0.445215	-0.000079
Br35	Br	1.285329	-0.514917	-0.000180
H36	H	0.977752	0.328916	-0.639255
H37	H	1.203321	0.019717	-0.639266
H38	H	0.940579	-0.180029	-0.000125
H39	H	1.203310	0.019725	-0.361099
Br40	Br	0.943989	0.375166	-0.319448
