data_functionalizedCrystal
_audit_creation_method	'MofGen! by Chris Wilmer'
_symmetry_space_group_name_H-M	'P1'
_symmetry_Int_Tables_number	1
_symmetry_cell_setting	triclinic
loop_
_symmetry_equiv_pos_as_xyz
  x,y,z
_cell_length_a	19.805407
_cell_length_b	13.897448
_cell_length_c	19.805399
_cell_angle_alpha	90.025019
_cell_angle_beta	90.019573
_cell_angle_gamma	90.017692
loop_
_atom_site_label
_atom_site_type_symbol
_atom_site_fract_x
_atom_site_fract_y
_atom_site_fract_z
Zn1	Zn	1.034777	-0.384037	0.382732
Zn2	Zn	1.368110	-0.050704	0.716065
Zn3	Zn	1.701443	0.282629	1.049398
Zn4	Zn	1.034709	-0.545343	0.269549
Zn5	Zn	1.368042	-0.212010	0.602882
Zn6	Zn	1.701375	0.121323	0.936215
Zn7	Zn	0.921591	-0.384064	0.269556
Zn8	Zn	1.254925	-0.050731	0.602890
Zn9	Zn	1.588258	0.282603	0.936223
Zn10	Zn	0.921572	-0.545292	0.382695
Zn11	Zn	1.254905	-0.211959	0.716029
Zn12	Zn	1.588239	0.121375	1.049362
O13	O	0.978162	-0.464684	0.326133
O14	O	1.311496	-0.131351	0.659466
O15	O	1.644829	0.201983	0.992800
O16	O	1.129484	-0.405445	0.367730
O17	O	1.462818	-0.072112	0.701063
O18	O	1.796151	0.261222	1.034396
O19	O	1.019683	-0.523982	0.174833
O20	O	1.353016	-0.190648	0.508166
O21	O	1.686350	0.142685	0.841500
O22	O	0.936642	-0.249079	0.284588
O23	O	1.269975	0.084255	0.617921
O24	O	1.603309	0.417588	0.951254
O25	O	1.129434	-0.523956	0.284575
O26	O	1.462768	-0.190623	0.617908
O27	O	1.796101	0.142711	0.951241
O28	O	1.019799	-0.249059	0.367737
O29	O	1.353132	0.084274	0.701071
O30	O	1.686466	0.417608	1.034404
O31	O	0.936576	-0.405490	0.174839
O32	O	1.269910	-0.072157	0.508172
O33	O	1.603243	0.261176	0.841505
O34	O	0.826872	-0.405441	0.284552
O35	O	1.160206	-0.072107	0.617886
O36	O	1.493539	0.261226	0.951219
O37	O	0.936609	-0.523869	0.477417
O38	O	1.269943	-0.190535	0.810750
O39	O	1.603276	0.142798	1.144083
O40	O	0.826858	-0.523894	0.367675
O41	O	1.160191	-0.190561	0.701008
O42	O	1.493525	0.142772	1.034342
O43	O	1.019780	-0.405395	0.477443
O44	O	1.353114	-0.072062	0.810777
O45	O	1.686447	0.261271	1.144110
O46	O	1.019664	-0.680318	0.284539
O47	O	1.352998	-0.346985	0.617873
O48	O	1.686331	-0.013651	0.951206
O49	O	0.936543	-0.680280	0.367668
O50	O	1.269877	-0.346947	0.701001
O51	O	1.603210	-0.013614	1.034334
C52	C	0.802306	-0.464666	0.326111
C53	C	1.135640	-0.131332	0.659444
C54	C	1.468973	0.202001	0.992778
C55	C	0.727074	-0.464681	0.326118
C56	C	1.060408	-0.131348	0.659451
C57	C	1.393741	0.201986	0.992784
C58	C	0.978113	-0.715298	0.326113
C59	C	1.311446	-0.381965	0.659447
C60	C	1.644779	-0.048632	0.992780
C61	C	0.978154	-0.822512	0.326128
C62	C	1.311487	-0.489179	0.659461
C63	C	1.644820	-0.155846	0.992794
C64	C	0.691740	-0.526453	0.369330
C65	C	1.025074	-0.193119	0.702663
C66	C	1.358407	0.140214	1.035996
C67	C	0.621052	-0.526454	0.369339
C68	C	0.954385	-0.193121	0.702673
C69	C	1.287719	0.140212	1.036006
C70	C	0.585699	-0.464688	0.326133
C71	C	0.919032	-0.131355	0.659466
C72	C	1.252365	0.201978	0.992800
C73	C	0.621037	-0.402910	0.282919
C74	C	0.954371	-0.069577	0.616252
C75	C	1.287704	0.263757	0.949586
C76	C	0.691725	-0.402904	0.282913
C77	C	1.025058	-0.069571	0.616247
C78	C	1.358391	0.263762	0.949580
C79	C	0.335964	-0.402931	0.282941
C80	C	0.669297	-0.069598	0.616275
C81	C	1.002631	0.263735	0.949608
C82	C	0.265272	-0.402944	0.282949
C83	C	0.598605	-0.069611	0.616282
C84	C	0.931939	0.263723	0.949616
C85	C	0.265292	-0.526481	0.369367
C86	C	0.598625	-0.193148	0.702701
C87	C	0.931958	0.140185	1.036034
C88	C	0.335979	-0.526476	0.369362
C89	C	0.669312	-0.193142	0.702695
C90	C	1.002645	0.140191	1.036028
C91	C	0.371311	-0.464694	0.326151
C92	C	0.704645	-0.131361	0.659484
C93	C	1.037978	0.201973	0.992817
C94	C	0.447960	-0.464692	0.326142
C95	C	0.781293	-0.131358	0.659475
C96	C	1.114626	0.201975	0.992808
C97	C	0.509051	-0.464695	0.326138
C98	C	0.842385	-0.131362	0.659471
C99	C	1.175718	0.201972	0.992805
C100	C	0.978225	-1.018807	0.326170
C101	C	1.311558	-0.685474	0.659503
C102	C	1.644891	-0.352141	0.992837
C103	C	0.978183	-0.909575	0.326149
C104	C	1.311517	-0.576242	0.659482
C105	C	1.644850	-0.242908	0.992815
C106	C	1.154705	-0.464703	0.326155
C107	C	1.488038	-0.131370	0.659489
C108	C	1.821372	0.201963	0.992822
C109	C	1.229937	-0.464711	0.326165
C110	C	1.563270	-0.131378	0.659498
C111	C	1.896604	0.201955	0.992832
C112	C	0.978200	-0.464623	0.502676
C113	C	1.311533	-0.131290	0.836009
C114	C	1.644867	0.202043	1.169342
C115	C	0.978216	-0.464597	0.577908
C116	C	1.311550	-0.131264	0.911241
C117	C	1.644883	0.202069	1.244574
C118	C	0.978230	-0.213091	0.326167
C119	C	1.311564	0.120242	0.659501
C120	C	1.644897	0.453576	0.992834
C121	C	0.978259	-0.105877	0.326182
C122	C	1.311593	0.227456	0.659515
C123	C	1.644926	0.560790	0.992849
C124	C	0.978163	-0.464675	0.150277
C125	C	1.311497	-0.131342	0.483610
C126	C	1.644830	0.201992	0.816944
C127	C	0.978278	-0.464429	0.075045
C128	C	1.311612	-0.131096	0.408379
C129	C	1.644945	0.202238	0.741712
C130	C	1.021524	-0.402905	0.613267
C131	C	1.354858	-0.069572	0.946600
C132	C	1.688191	0.263761	1.279934
C133	C	1.021531	-0.402877	0.683955
C134	C	1.354865	-0.069544	1.017289
C135	C	1.688198	0.263789	1.350622
C136	C	0.978233	-0.464547	0.719283
C137	C	1.311566	-0.131214	1.052617
C138	C	1.644900	0.202120	1.385950
C139	C	0.934920	-0.526242	0.683919
C140	C	1.268254	-0.192908	1.017253
C141	C	1.601587	0.140425	1.350586
C142	C	0.934910	-0.526264	0.613232
C143	C	1.268244	-0.192931	0.946565
C144	C	1.601577	0.140402	1.279899
C145	C	0.934958	-0.526152	0.968993
C146	C	1.268292	-0.192819	1.302326
C147	C	1.601625	0.140515	1.635659
C148	C	0.934973	-0.526127	1.039685
C149	C	1.268306	-0.192793	1.373018
C150	C	1.601640	0.140540	1.706352
C151	C	1.021579	-0.402765	1.039716
C152	C	1.354913	-0.069432	1.373049
C153	C	1.688246	0.263902	1.706383
C154	C	1.021570	-0.402787	0.969029
C155	C	1.354903	-0.069454	1.302362
C156	C	1.688236	0.263879	1.635696
C157	C	0.978255	-0.464478	0.933671
C158	C	1.311588	-0.131145	1.267004
C159	C	1.644921	0.202188	1.600338
C160	C	0.978247	-0.464507	0.857022
C161	C	1.311580	-0.131173	1.190356
C162	C	1.644913	0.202160	1.523689
C163	C	0.978244	-0.464524	0.795931
C164	C	1.311577	-0.131191	1.129264
C165	C	1.644911	0.202142	1.462597
H166	H	0.720520	-0.576753	0.404511
H167	H	1.053853	-0.243419	0.737844
H168	H	1.387187	0.089914	1.071178
C169	C	0.887335	-0.593965	1.078544
C170	C	1.220668	-0.260632	1.411878
C171	C	1.554001	0.072702	1.745211
N172	N	0.851455	-0.645057	1.107813
N173	N	1.184788	-0.311724	1.441147
N174	N	1.518122	0.021610	1.774480
H175	H	0.720492	-0.352598	0.247729
H176	H	1.053826	-0.019265	0.581063
H177	H	1.387159	0.314068	0.914396
C178	C	0.582146	-0.334964	0.235393
C179	C	0.915479	-0.001631	0.568727
C180	C	1.248813	0.331702	0.902060
N181	N	0.552854	-0.283789	0.199594
N182	N	0.886187	0.049545	0.532928
N183	N	1.219521	0.382878	0.866261
H184	H	1.056799	-0.352644	0.712742
H185	H	1.390132	-0.019311	1.046075
H186	H	1.723465	0.314023	1.379408
C187	C	0.374863	-0.594424	0.416891
C188	C	0.708197	-0.261091	0.750224
C189	C	1.041530	0.072243	1.083557
N190	N	0.404150	-0.645602	0.452693
N191	N	0.737484	-0.312268	0.786026
N192	N	1.070817	0.021065	1.119359
H193	H	1.056830	-0.352573	0.940268
H194	H	1.390163	-0.019240	1.273602
H195	H	1.723496	0.314094	1.606935
H196	H	0.592286	-0.576756	0.404526
H197	H	0.925620	-0.243423	0.737859
H198	H	1.258953	0.089911	1.071193
C199	C	0.887269	-0.594132	0.574337
C200	C	1.220603	-0.260799	0.907671
C201	C	1.553936	0.072535	1.241004
N202	N	0.851383	-0.645250	0.545043
N203	N	1.184717	-0.311917	0.878376
N204	N	1.518050	0.021416	1.211709
H205	H	1.056846	-0.352530	1.068513
H206	H	1.390180	-0.019197	1.401846
H207	H	1.723513	0.314137	1.735180
H208	H	0.899699	-0.576398	0.940213
H209	H	1.233032	-0.243065	1.273546
H210	H	1.566365	0.090268	1.606879
H211	H	0.899664	-0.576451	0.712689
H212	H	1.232997	-0.243117	1.046022
H213	H	1.566330	0.090216	1.379356
H214	H	0.236515	-0.576783	0.404554
H215	H	0.569849	-0.243450	0.737888
H216	H	0.903182	0.089883	1.071221
H217	H	0.236489	-0.352641	0.247765
H218	H	0.569823	-0.019308	0.581098
H219	H	0.903156	0.314026	0.914432
H220	H	1.056785	-0.352690	0.584508
H221	H	1.390118	-0.019356	0.917841
H222	H	1.723452	0.313977	1.251175
C223	C	0.374821	-0.334976	0.235404
C224	C	0.708154	-0.001642	0.568737
C225	C	1.041487	0.331691	0.902070
N226	N	0.404090	-0.283790	0.199595
N227	N	0.737423	0.049544	0.532928
N228	N	1.070757	0.382877	0.866261
