data_functionalizedCrystal
_audit_creation_method	'MofGen! by Chris Wilmer'
_symmetry_space_group_name_H-M	'P1'
_symmetry_Int_Tables_number	1
_symmetry_cell_setting	triclinic
loop_
_symmetry_equiv_pos_as_xyz
  x,y,z
_cell_length_a	19.188930
_cell_length_b	11.026607
_cell_length_c	9.482900
_cell_angle_alpha	78.599815
_cell_angle_beta	99.271188
_cell_angle_gamma	95.865398
loop_
_atom_site_label
_atom_site_type_symbol
_atom_site_fract_x
_atom_site_fract_y
_atom_site_fract_z
O1	O	-0.953962	-0.132280	-0.121373
O2	O	-0.453962	0.367720	0.378627
O3	O	-0.753241	-0.152676	-0.121274
O4	O	-0.253241	0.347324	0.378726
O5	O	-0.836965	0.034085	-0.121310
O6	O	-0.336965	0.534085	0.378690
O7	O	-0.870237	-0.319041	-0.121337
O8	O	-0.370237	0.180959	0.378663
O9	O	-0.819978	-0.004003	0.120490
O10	O	-0.319978	0.495997	0.620490
O11	O	-0.736254	-0.190764	0.120526
O12	O	-0.236254	0.309236	0.620526
O13	O	-0.936975	-0.170367	0.120427
O14	O	-0.436975	0.329633	0.620427
Cu15	Cu	-0.835063	-0.184043	0.142554
Cu16	Cu	-0.335063	0.315957	0.642554
Cu17	Cu	-0.855152	-0.139000	-0.143402
Cu18	Cu	-0.355152	0.361000	0.356598
O19	O	-0.853250	-0.357128	0.120463
O20	O	-0.353250	0.142872	0.620463
C21	C	-0.718651	-0.171062	-0.000361
C22	C	-0.218651	0.328938	0.499639
C23	C	-0.640892	-0.169087	-0.000323
C24	C	-0.140892	0.330913	0.499677
C25	C	-0.822334	0.060219	-0.000409
C26	C	-0.322334	0.560219	0.499591
C27	C	-0.804037	0.194835	-0.000405
C28	C	-0.304037	0.694835	0.499595
C29	C	-0.971564	-0.151981	-0.000489
C30	C	-0.471564	0.348019	0.499511
C31	C	-1.049325	-0.153954	-0.000537
C32	C	-0.549325	0.346046	0.499463
C33	C	-0.609935	-0.278664	-0.000354
C34	C	-0.109935	0.221336	0.499646
C35	C	-0.536876	-0.276800	-0.000370
C36	C	-0.036876	0.223200	0.499630
C37	C	-0.494776	-0.165348	-0.000384
C38	C	0.005224	0.334652	0.499616
C39	C	-0.525740	-0.055758	-0.000345
C40	C	-0.025740	0.444242	0.499655
C41	C	-0.598798	-0.057627	-0.000314
C42	C	-0.098798	0.442373	0.499686
N43	N	-0.381724	-0.067188	-0.082731
N44	N	0.118276	0.432812	0.417269
N45	N	-0.312323	-0.065419	-0.082763
N46	N	0.187677	0.434581	0.417237
C47	C	-0.274657	-0.159710	-0.000472
C48	C	0.225343	0.340290	0.499528
N49	N	-0.309016	-0.255852	0.081833
N50	N	0.190984	0.244148	0.581833
N51	N	-0.378424	-0.257623	0.081859
N52	N	0.121576	0.242377	0.581859
C53	C	-0.415557	-0.163309	-0.000416
C54	C	0.084443	0.336691	0.499584
C55	C	-0.164481	-0.267274	-0.000519
C56	C	0.335519	0.232726	0.499481
C57	C	-0.091419	-0.265407	-0.000526
C58	C	0.408581	0.234593	0.499474
C59	C	-0.080286	-0.044360	-0.000515
C60	C	0.419714	0.455640	0.499485
C61	C	-0.153346	-0.046232	-0.000493
C62	C	0.346654	0.453768	0.499507
C63	C	-0.195440	-0.157691	-0.000502
C64	C	0.304560	0.342309	0.499498
C65	C	-0.867882	-0.383262	-0.000442
C66	C	-0.367882	0.116738	0.499558
C67	C	-0.886179	-0.517877	-0.000455
C68	C	-0.386179	-0.017877	0.499545
N69	N	-0.820938	-0.215723	0.343681
N70	N	-0.320938	0.284277	0.843681
C71	C	-0.854559	0.268913	-0.000432
C72	C	-0.354559	0.768913	0.499568
C73	C	-0.835650	0.408047	-0.000428
C74	C	-0.335650	0.908047	0.499572
N75	N	-0.869282	-0.107311	-0.344528
N76	N	-0.369282	0.392689	0.155472
C77	C	-0.850981	-0.148338	0.415867
C78	C	-0.350981	0.351662	0.915867
C79	C	-0.839235	-0.174705	0.583289
C80	C	-0.339235	0.325295	1.083289
H81	H	-0.511666	-0.366034	-0.000391
H82	H	-0.011666	0.133966	0.499609
H83	H	-0.911812	0.229329	-0.000451
H84	H	-0.411812	0.729329	0.499549
H85	H	-0.903697	-0.030091	0.593333
H86	H	-0.403697	0.469909	1.093333
O87	O	-0.186738	0.071960	-0.000465
O88	O	0.313262	0.571960	0.499535
H89	H	-0.226706	0.091918	-0.098997
H90	H	0.273294	0.591918	0.401003
O91	O	-0.058025	-0.383601	-0.000546
O92	O	0.441975	0.116399	0.499454
H93	H	-0.081652	-0.421422	-0.099109
H94	H	0.418348	0.078578	0.400891
O95	O	-0.775351	-0.318006	0.425979
O96	O	-0.275351	0.181994	0.925979
H97	H	-0.773285	-0.322673	0.544564
H98	H	-0.273285	0.177327	1.044564
H99	H	-0.644204	-0.369422	-0.000364
H100	H	-0.144204	0.130578	0.499636
H101	H	-0.046016	0.046401	-0.000616
H102	H	0.453984	0.546401	0.499384
H103	H	-0.804813	-0.251917	0.645429
H104	H	-0.304813	0.248083	1.145429
H105	H	-0.624001	0.031607	-0.000290
H106	H	-0.124001	0.531607	0.499710
O107	O	-0.480339	0.064455	-0.000360
O108	O	0.019661	0.564455	0.499640
H109	H	-0.424337	0.047349	-0.000401
H110	H	0.075663	0.547349	0.499599
O111	O	-0.759803	0.460452	-0.000381
O112	O	-0.259803	0.960452	0.499619
H113	H	-0.756851	0.561506	-0.000370
H114	H	-0.256851	1.061506	0.499630
H115	H	-0.198755	-0.358034	-0.000505
H116	H	0.301245	0.141966	0.499495
O117	O	-0.962027	0.429725	-0.000497
O118	O	-0.462027	0.929725	0.499503
H119	H	-0.965854	0.357278	0.098058
H120	H	-0.465854	0.857278	0.598058
O121	O	-0.728195	0.247253	-0.000355
O122	O	-0.228195	0.747253	0.499645
H123	H	-0.724371	0.319715	-0.098897
H124	H	-0.224371	0.819715	0.401103
O125	O	-0.896546	-0.046024	0.333569
O126	O	-0.396546	0.453976	0.833569
H127	H	-0.898612	-0.041357	0.214983
H128	H	-0.398612	0.458643	0.714983
