data_functionalizedCrystal
_audit_creation_method	'MofGen! by Chris Wilmer'
_symmetry_space_group_name_H-M	'P1'
_symmetry_Int_Tables_number	1
_symmetry_cell_setting	triclinic
loop_
_symmetry_equiv_pos_as_xyz
  x,y,z
_cell_length_a	19.188925
_cell_length_b	19.188930
_cell_length_c	8.140239
_cell_angle_alpha	90.008252
_cell_angle_beta	90.002413
_cell_angle_gamma	83.143665
loop_
_atom_site_label
_atom_site_type_symbol
_atom_site_fract_x
_atom_site_fract_y
_atom_site_fract_z
O1	O	0.926144	0.087148	0.136667
O2	O	1.259478	0.420481	0.470000
O3	O	1.592811	0.753815	0.803334
O4	O	0.722832	0.098886	0.136665
O5	O	1.056166	0.432220	0.469999
O6	O	1.389499	0.765553	0.803332
O7	O	0.830356	-0.008638	0.136634
O8	O	1.163689	0.324695	0.469967
O9	O	1.497022	0.658028	0.803301
O10	O	0.818621	0.194673	0.136698
O11	O	1.151955	0.528006	0.470032
O12	O	1.485288	0.861340	0.803365
O13	O	0.830352	-0.008639	-0.136593
O14	O	1.163685	0.324694	0.196740
O15	O	1.497019	0.658027	0.530074
O16	O	0.722829	0.098886	-0.136562
O17	O	1.056162	0.432219	0.196771
O18	O	1.389496	0.765552	0.530105
O19	O	0.926141	0.087147	-0.136560
O20	O	1.259474	0.420481	0.196773
O21	O	1.592808	0.753814	0.530107
Zn22	Zn	0.824484	0.093016	-0.179942
Zn23	Zn	1.157818	0.426350	0.153392
Zn24	Zn	1.491151	0.759683	0.486725
Zn25	Zn	0.824489	0.093017	0.180047
Zn26	Zn	1.157822	0.426351	0.513380
Zn27	Zn	1.491156	0.759684	0.846714
O28	O	0.818618	0.194672	-0.136529
O29	O	1.151951	0.528006	0.196804
O30	O	1.485284	0.861339	0.530138
C31	C	0.696820	0.098507	0.000051
C32	C	1.030153	0.431840	0.333384
C33	C	1.363486	0.765173	0.666718
C34	C	0.619315	0.097367	0.000049
C35	C	0.952648	0.430701	0.333382
C36	C	1.285982	0.764034	0.666715
C37	C	0.057545	0.152831	0.000070
C38	C	0.390878	0.486165	0.333403
C39	C	0.724211	0.819498	0.666737
C40	C	0.130368	0.153908	0.000079
C41	C	0.463701	0.487241	0.333413
C42	C	0.797035	0.820575	0.666746
C43	C	0.175302	0.090816	0.000056
C44	C	0.508636	0.424149	0.333390
C45	C	0.841969	0.757482	0.666723
C46	C	0.147408	0.026642	0.000067
C47	C	0.480742	0.359976	0.333400
C48	C	0.814075	0.693309	0.666733
C49	C	0.074586	0.025568	0.000074
C50	C	0.407920	0.358901	0.333407
C51	C	0.741253	0.692234	0.666740
N52	N	0.295978	0.045139	-0.092966
N53	N	0.629312	0.378473	0.240367
N54	N	0.962645	0.711806	0.573700
N55	N	0.365156	0.046165	-0.092977
N56	N	0.698489	0.379498	0.240357
N57	N	1.031822	0.712831	0.573690
C58	C	0.394712	0.094050	0.000038
C59	C	0.728045	0.427383	0.333371
C60	C	1.061378	0.760716	0.666705
N61	N	0.352475	0.140882	0.093043
N62	N	0.685809	0.474215	0.426377
N63	N	1.019142	0.807548	0.759710
N64	N	0.283291	0.139859	0.093046
N65	N	0.616625	0.473192	0.426380
N66	N	0.949958	0.806525	0.759713
C67	C	0.254267	0.091974	0.000050
C68	C	0.587600	0.425307	0.333383
C69	C	0.920933	0.758641	0.666716
C70	C	0.501561	0.159386	0.000049
C71	C	0.834894	0.492720	0.333383
C72	C	1.168227	0.826053	0.666716
C73	C	0.574385	0.160460	0.000069
C74	C	0.907719	0.493794	0.333402
C75	C	1.241052	0.827127	0.666736
C76	C	0.591425	0.033193	0.000040
C77	C	0.924758	0.366526	0.333373
C78	C	1.258091	0.699859	0.666706
C79	C	0.518601	0.032121	0.000037
C80	C	0.851934	0.365454	0.333370
C81	C	1.185268	0.698787	0.666703
C82	C	0.473673	0.095220	0.000034
C83	C	0.807006	0.428553	0.333367
C84	C	1.140340	0.761886	0.666701
C85	C	0.829974	-0.034650	0.000016
C86	C	1.163307	0.298683	0.333349
C87	C	1.496640	0.632017	0.666683
C88	C	0.828833	-0.112154	0.000002
C89	C	1.162166	0.221179	0.333335
C90	C	1.495500	0.554512	0.666668
C91	C	0.891924	-0.157079	-0.000006
C92	C	1.225257	0.176254	0.333328
C93	C	1.558591	0.509587	0.666661
C94	C	0.890852	-0.229903	0.000021
C95	C	1.224186	0.103430	0.333354
C96	C	1.557519	0.436763	0.666687
C97	C	0.826686	-0.257799	0.000021
C98	C	1.160020	0.075535	0.333355
C99	C	1.493353	0.408868	0.666688
C100	C	0.763587	-0.212864	0.000038
C101	C	1.096920	0.120470	0.333371
C102	C	1.430254	0.453803	0.666705
C103	C	0.764660	-0.140041	0.000028
C104	C	1.097994	0.193292	0.333361
C105	C	1.431327	0.526625	0.666695
N106	N	0.777638	-0.365803	-0.092964
N107	N	1.110971	-0.032470	0.240370
N108	N	1.444304	0.300864	0.573703
N109	N	0.776622	-0.434981	-0.092958
N110	N	1.109955	-0.101648	0.240376
N111	N	1.443289	0.231685	0.573709
C112	C	0.823448	-0.477207	0.000055
C113	C	1.156781	-0.143874	0.333388
C114	C	1.490115	0.189459	0.666721
N115	N	0.871338	-0.447642	0.093040
N116	N	1.204672	-0.114309	0.426373
N117	N	1.538005	0.219024	0.759707
N118	N	0.872356	-0.378458	0.093027
N119	N	1.205689	-0.045124	0.426360
N120	N	1.539023	0.288209	0.759694
C121	C	0.825515	-0.336761	0.000033
C122	C	1.158848	-0.003428	0.333366
C123	C	1.492182	0.329906	0.666700
C124	C	0.885381	-0.601097	0.000078
C125	C	1.218715	-0.267763	0.333412
C126	C	1.552048	0.065570	0.666745
C127	C	0.884307	-0.673922	0.000115
C128	C	1.217640	-0.340588	0.333448
C129	C	1.550974	-0.007255	0.666781
C130	C	0.757040	-0.656880	0.000115
C131	C	1.090373	-0.323547	0.333449
C132	C	1.423706	0.009786	0.666782
C133	C	0.758116	-0.584057	0.000095
C134	C	1.091449	-0.250724	0.333429
C135	C	1.424782	0.082610	0.666762
C136	C	0.822289	-0.556170	0.000069
C137	C	1.155622	-0.222837	0.333402
C138	C	1.488955	0.110497	0.666736
C139	C	0.952154	0.087527	0.000058
C140	C	1.285487	0.420861	0.333391
C141	C	1.618820	0.754194	0.666725
C142	C	1.029658	0.088666	0.000071
C143	C	1.362992	0.422000	0.333404
C144	C	1.696325	0.755333	0.666738
C145	C	0.819000	0.220684	0.000093
C146	C	1.152333	0.554017	0.333426
C147	C	1.485666	0.887350	0.666760
C148	C	0.820140	0.298188	0.000118
C149	C	1.153474	0.631522	0.333451
C150	C	1.486807	0.964855	0.666785
N151	N	0.824486	0.093015	-0.425624
N152	N	1.157820	0.426349	-0.092291
N153	N	1.491153	0.759682	0.241042
N154	N	0.824492	0.093013	0.425729
N155	N	1.157826	0.426346	0.759063
N156	N	1.491159	0.759680	1.092396
H157	H	0.464978	0.210765	0.000050
H158	H	0.798311	0.544098	0.333384
H159	H	1.131645	0.877432	0.666717
H160	H	0.597088	0.212713	0.000082
H161	H	0.930421	0.546046	0.333415
H162	H	1.263755	0.879380	0.666748
H163	H	0.704794	-0.679592	0.000124
H164	H	1.038128	-0.346258	0.333457
H165	H	1.371461	-0.012925	0.666790
H166	H	0.495896	-0.020129	0.000028
H167	H	0.829230	0.313204	0.333361
H168	H	1.162563	0.646537	0.666694
H169	H	0.942230	-0.266488	0.000021
H170	H	1.275564	0.066845	0.333355
H171	H	1.608897	0.400178	0.666688
Cl172	Cl	0.647907	-0.046124	0.000036
Cl173	Cl	0.981240	0.287209	0.333370
Cl174	Cl	1.314574	0.620542	0.666703
Cl175	Cl	0.001068	0.232156	0.000089
Cl176	Cl	0.334401	0.565489	0.333422
Cl177	Cl	0.667734	0.898822	0.666755
H178	H	0.153078	0.206160	0.000063
H179	H	0.486411	0.539494	0.333396
H180	H	0.819744	0.872827	0.666730
Cl181	Cl	0.203896	-0.052674	0.000045
Cl182	Cl	0.537230	0.280660	0.333378
Cl183	Cl	0.870563	0.613993	0.666712
H184	H	0.051883	-0.026685	0.000075
H185	H	0.385216	0.306649	0.333408
H186	H	0.718549	0.639982	0.666742
Cl187	Cl	0.972598	-0.122025	0.000008
Cl188	Cl	1.305932	0.211308	0.333341
Cl189	Cl	1.639265	0.544641	0.666675
Cl190	Cl	0.682921	-0.247931	0.000052
Cl191	Cl	1.016254	0.085402	0.333385
Cl192	Cl	1.349587	0.418736	0.666718
H193	H	0.935686	-0.710500	0.000118
H194	H	1.269019	-0.377166	0.333451
H195	H	1.602352	-0.043833	0.666785
Cl196	Cl	0.966054	-0.566035	0.000036
Cl197	Cl	1.299387	-0.232702	0.333369
Cl198	Cl	1.632721	0.100631	0.666702
Cl199	Cl	0.678797	-0.527576	0.000097
Cl200	Cl	1.012130	-0.194243	0.333430
Cl201	Cl	1.345463	0.139090	0.666763
H202	H	0.713282	-0.103462	0.000033
H203	H	1.046616	0.229871	0.333367
H204	H	1.379949	0.563204	0.666700
