data_functionalizedCrystal
_audit_creation_method	'MofGen! by Chris Wilmer'
_symmetry_space_group_name_H-M	'P1'
_symmetry_Int_Tables_number	1
_symmetry_cell_setting	triclinic
loop_
_symmetry_equiv_pos_as_xyz
  x,y,z
_cell_length_a	14.044209
_cell_length_b	13.101039
_cell_length_c	14.044220
_cell_angle_alpha	93.667477
_cell_angle_beta	86.811585
_cell_angle_gamma	93.659214
loop_
_atom_site_label
_atom_site_type_symbol
_atom_site_fract_x
_atom_site_fract_y
_atom_site_fract_z
O1	O	-1.281968	-0.085094	0.225339
O2	O	-0.781968	0.414906	0.725339
O3	O	-1.005298	-0.085123	0.217034
O4	O	-0.505298	0.414877	0.717034
O5	O	-1.139480	-0.085099	0.082851
O6	O	-0.639480	0.414901	0.582851
O7	O	-1.147787	-0.085118	0.359521
O8	O	-0.647787	0.414882	0.859521
O9	O	-1.129854	0.085329	0.092496
O10	O	-0.629854	0.585329	0.592496
O11	O	-0.995672	0.085305	0.226679
O12	O	-0.495672	0.585305	0.726679
O13	O	-1.272342	0.085334	0.234984
O14	O	-0.772342	0.585334	0.734984
Zn15	Zn	-1.132479	0.112379	0.232362
Zn16	Zn	-0.632479	0.612379	0.732362
Zn17	Zn	-1.145161	-0.112168	0.219655
Zn18	Zn	-0.645161	0.387832	0.719655
O19	O	-1.138161	0.085310	0.369166
O20	O	-0.638161	0.585310	0.869166
C21	C	-0.964864	0.000087	0.218221
C22	C	-0.464864	0.500087	0.718221
C23	C	-0.858721	0.000077	0.207376
C24	C	-0.358721	0.500077	0.707376
C25	C	-0.664383	0.000096	0.187553
C26	C	-0.164383	0.500096	0.687553
C27	C	-0.613253	0.000094	0.264467
C28	C	-0.113253	0.500094	0.764467
C29	C	-0.505116	0.000105	0.253437
C30	C	-0.005116	0.500105	0.753437
C31	C	-0.772529	0.000085	0.198581
C32	C	-0.272529	0.500085	0.698581
N33	N	-1.123830	0.265626	0.241035
N34	N	-0.623830	0.765626	0.741035
C35	C	-0.312777	0.000118	0.233798
C36	C	0.187223	0.500118	0.733798
C37	C	-0.418920	0.000114	0.244648
C38	C	0.081080	0.500114	0.744648
C39	C	-1.131031	0.000115	0.052052
C40	C	-0.631031	0.500115	0.552052
C41	C	-1.120187	0.000115	-0.054091
C42	C	-0.620187	0.500115	0.445909
N43	N	-1.153817	-0.265415	0.210975
N44	N	-0.653817	0.234585	0.710975
C45	C	-1.112064	0.474666	0.252843
C46	C	-0.612064	0.974666	0.752843
C47	C	-1.165580	0.525551	0.199170
C48	C	-0.665580	1.025551	0.699170
C49	C	-1.159033	0.641869	0.205740
C50	C	-0.659033	1.141869	0.705740
C51	C	-1.118610	0.358338	0.246274
C52	C	-0.618610	0.858338	0.746274
C53	C	-1.100361	0.000099	-0.248429
C54	C	-0.600361	0.500099	0.251571
C55	C	-1.177275	0.000103	-0.299560
C56	C	-0.677275	0.500103	0.200440
C57	C	-1.166244	0.000094	-0.407696
C58	C	-0.666244	0.500094	0.092304
C59	C	-1.111391	0.000108	-0.140283
C60	C	-0.611391	0.500108	0.359717
C61	C	-1.146609	0.000093	0.399965
C62	C	-0.646609	0.500093	0.899965
C63	C	-1.157454	0.000087	0.506108
C64	C	-0.657454	0.500087	1.006108
H65	H	-0.626945	0.000106	0.113426
H66	H	-0.126945	0.500106	0.613426
H67	H	-1.026234	0.000088	-0.285866
H68	H	-0.526234	0.500088	0.214134
O69	O	-1.225901	0.473157	0.138358
O70	O	-0.725901	0.973157	0.638358
C71	C	-1.218940	0.367001	0.145096
C72	C	-0.718940	0.867001	0.645096
H73	H	-1.190856	0.352402	0.217306
H74	H	-0.690856	0.852402	0.717306
H75	H	-1.292507	0.326033	0.137913
H76	H	-0.792507	0.826033	0.637913
H77	H	-1.167831	0.336728	0.085518
H78	H	-0.667831	0.836728	0.585518
O79	O	-1.051629	0.527059	0.313532
O80	O	-0.551629	1.027059	0.813532
C81	C	-1.058460	0.633214	0.306653
C82	C	-0.558460	1.133214	0.806653
H83	H	-1.130483	0.647733	0.278101
H84	H	-0.630483	1.147733	0.778101
H85	H	-1.051820	0.674076	0.380335
H86	H	-0.551820	1.174076	0.880335
H87	H	-0.998601	0.663671	0.255962
H88	H	-0.498601	1.163671	0.755962
H89	H	-1.251412	0.000042	-0.262125
H90	H	-0.751412	0.500042	0.237875
H91	H	-0.650693	0.000085	0.338600
H92	H	-0.150693	0.500085	0.838600
