data_functionalizedCrystal
_audit_creation_method	'MofGen! by Chris Wilmer'
_symmetry_space_group_name_H-M	'P1'
_symmetry_Int_Tables_number	1
_symmetry_cell_setting	triclinic
loop_
_symmetry_equiv_pos_as_xyz
  x,y,z
_cell_length_a	28.938199
_cell_length_b	28.937346
_cell_length_c	28.934044
_cell_angle_alpha	60.005004
_cell_angle_beta	60.009897
_cell_angle_gamma	59.994060
loop_
_atom_site_label
_atom_site_type_symbol
_atom_site_fract_x
_atom_site_fract_y
_atom_site_fract_z
O1	O	0.064043	-0.675186	0.564597
O2	O	0.564043	-0.175186	1.064597
O3	O	0.024124	-0.525682	0.454913
O4	O	0.524124	-0.025682	0.954913
O5	O	0.118795	-0.620275	0.454833
O6	O	0.618795	-0.120275	0.954833
O7	O	-0.030629	-0.580593	0.564678
O8	O	0.469371	-0.080593	1.064678
O9	O	0.150204	-0.588870	0.486157
O10	O	0.650204	-0.088870	0.986157
O11	O	0.055533	-0.494276	0.486238
O12	O	0.555533	0.005724	0.986238
O13	O	0.095452	-0.643780	0.595921
O14	O	0.595452	-0.143780	1.095921
Cu15	Cu	0.078360	-0.566161	0.543940
Cu16	Cu	0.578360	-0.066161	1.043940
Cu17	Cu	0.041215	-0.603301	0.506895
Cu18	Cu	0.541215	-0.103301	1.006895
O19	O	0.000780	-0.549187	0.596002
O20	O	0.500780	-0.049187	1.096002
N21	N	0.104487	-0.540042	0.569998
N22	N	0.604487	-0.040042	1.069998
N23	N	0.015094	-0.629425	0.480837
N24	N	0.515094	-0.129425	0.980837
C25	C	0.165467	-0.323909	0.630915
C26	C	0.665467	0.176091	1.130915
C27	C	0.165587	-0.479117	0.786068
C28	C	0.665587	0.020883	1.286068
C29	C	0.165481	-0.479095	0.630906
C30	C	0.665481	0.020905	1.130906
C31	C	0.320696	-0.479083	0.630835
C32	C	0.820696	0.020917	1.130835
C33	C	0.182557	-0.375118	0.647971
C34	C	0.682557	0.124882	1.147971
C35	C	0.182626	-0.462038	0.734858
C36	C	0.682626	0.037962	1.234858
C37	C	0.269485	-0.462018	0.647928
C38	C	0.769485	0.037982	1.147928
C39	C	0.182566	-0.462025	0.647966
C40	C	0.682566	0.037975	1.147966
C41	C	0.143714	-0.258726	0.609206
C42	C	0.643714	0.241274	1.109206
C43	C	0.143738	-0.500820	0.609192
C44	C	0.643738	-0.000820	1.109192
C45	C	0.204309	-0.440300	0.669680
C46	C	0.704309	0.059700	1.169680
C47	C	0.415481	-0.462740	0.580919
C48	C	0.915481	0.037260	1.080919
C49	C	0.474732	-0.482485	0.561145
C50	C	0.974732	0.017515	1.061145
C51	C	0.474757	-0.578356	0.597704
C52	C	0.974757	-0.078356	1.097704
C53	C	0.415508	-0.558609	0.617479
C54	C	0.915508	-0.058609	1.117479
C55	C	0.157989	-0.229089	0.550957
C56	C	0.657989	0.270911	1.050957
C57	C	0.138212	-0.169834	0.531225
C58	C	0.638212	0.330166	1.031225
C59	C	0.089890	-0.169857	0.627992
C60	C	0.589890	0.330143	1.127992
C61	C	0.109667	-0.229112	0.647725
C62	C	0.609667	0.270888	1.147725
C63	C	0.085482	-0.486515	0.623535
C64	C	0.585482	0.013485	1.123535
C65	C	0.065722	-0.506265	0.603789
C66	C	0.565722	-0.006265	1.103789
C67	C	0.162467	-0.554625	0.555370
C68	C	0.662467	-0.054625	1.055370
C69	C	0.182230	-0.534875	0.575110
C70	C	0.682230	-0.034875	1.075110
C71	C	0.085661	-0.486557	0.880902
C72	C	0.585661	0.013443	1.380902
C73	C	0.065952	-0.506323	0.940155
C74	C	0.565952	-0.006323	1.440155
C75	C	0.162734	-0.554693	0.940102
C76	C	0.662734	-0.054693	1.440102
C77	C	0.182441	-0.534928	0.880847
C78	C	0.682441	-0.034928	1.380847
C79	C	0.143904	-0.500859	0.851249
C80	C	0.643904	-0.000859	1.351249
C81	C	0.385871	-0.500801	0.609083
C82	C	0.885871	-0.000801	1.109083
C83	C	-0.110907	-0.668480	0.441278
C84	C	0.389093	-0.168480	0.941278
C85	C	-0.024049	-0.668588	0.441475
C86	C	0.475951	-0.168588	0.941475
C87	C	-0.045729	-0.690282	0.419668
C88	C	0.454271	-0.190282	0.919668
C89	C	-0.062146	-0.785032	0.469507
C90	C	0.437854	-0.285032	0.969507
C91	C	-0.042446	-0.844287	0.489286
C92	C	0.457554	-0.344287	0.989286
C93	C	0.053426	-0.844399	0.452899
C94	C	0.553426	-0.344399	0.952899
C95	C	0.033725	-0.785144	0.433120
C96	C	0.533725	-0.285144	0.933120
C97	C	-0.140617	-0.682751	0.499509
C98	C	0.359383	-0.182751	0.999509
C99	C	-0.199867	-0.662928	0.519152
C100	C	0.300133	-0.162928	1.019152
C101	C	-0.199694	-0.614571	0.422330
C102	C	0.300306	-0.114571	0.922330
C103	C	-0.140443	-0.634393	0.402687
C104	C	0.359557	-0.134393	0.902687
C105	C	-0.038320	-0.610337	0.427144
C106	C	0.461680	-0.110337	0.927144
C107	C	-0.018610	-0.590621	0.446974
C108	C	0.481390	-0.090621	0.946974
C109	C	0.029642	-0.687402	0.495454
C110	C	0.529642	-0.187402	0.995454
C111	C	0.009933	-0.707121	0.475630
C112	C	0.509933	-0.207121	0.975630
C113	C	-0.038148	-0.610347	0.324832
C114	C	0.461852	-0.110347	0.824832
C115	C	-0.018301	-0.590634	0.265579
C116	C	0.481699	-0.090634	0.765579
C117	C	0.030035	-0.687421	0.265643
C118	C	0.530035	-0.187421	0.765643
C119	C	0.010190	-0.707133	0.324897
C120	C	0.510190	-0.207133	0.824897
C121	C	-0.023903	-0.668595	0.354491
C122	C	0.476097	-0.168595	0.854491
C123	C	-0.024062	-0.755463	0.441426
C124	C	0.475938	-0.255463	0.941426
N125	N	0.503527	-0.540005	0.569810
N126	N	1.003527	-0.040005	1.069810
O127	O	0.684453	-0.545211	0.434650
O128	O	1.184453	-0.045211	0.934650
O129	O	0.684643	-0.655237	0.584005
O130	O	1.184643	-0.155237	1.084005
O131	O	0.684567	-0.654986	0.489282
O132	O	1.184567	-0.154986	0.989282
O133	O	0.684529	-0.545462	0.529373
O134	O	1.184529	-0.045462	1.029373
O135	O	0.590438	-0.623674	0.520735
O136	O	1.090438	-0.123674	1.020735
O137	O	0.590513	-0.623924	0.615457
O138	O	1.090513	-0.123924	1.115457
O139	O	0.590323	-0.513899	0.466102
O140	O	1.090323	-0.013899	0.966102
Cu141	Cu	0.581823	-0.566053	0.543652
Cu142	Cu	1.081823	-0.066053	1.043652
Cu143	Cu	0.693143	-0.603083	0.506456
Cu144	Cu	1.193143	-0.103083	1.006456
O145	O	0.590399	-0.514149	0.560825
O146	O	1.090399	-0.014149	1.060825
N147	N	0.771439	-0.629131	0.480292
N148	N	1.271439	-0.129131	0.980292
N149	N	0.104456	-0.141061	0.570015
N150	N	0.604456	0.358939	1.070015
O151	O	-0.030629	0.039964	0.564688
O152	O	0.469371	0.539964	1.064688
O153	O	0.118732	0.039984	0.454661
O154	O	0.618732	0.539984	0.954661
O155	O	0.023980	0.039958	0.454946
O156	O	0.523980	0.539958	0.954946
O157	O	0.064123	0.039990	0.564403
O158	O	0.564123	0.539990	1.064403
O159	O	0.055392	-0.054179	0.486321
O160	O	0.555392	0.445821	0.986321
O161	O	0.150144	-0.054153	0.486036
O162	O	0.650144	0.445847	0.986036
O163	O	0.000784	-0.054173	0.596063
O164	O	0.500784	0.445827	1.096063
Cu165	Cu	0.078332	-0.062759	0.543914
Cu166	Cu	0.578332	0.437241	1.043914
Cu167	Cu	0.041183	0.048570	0.506810
Cu168	Cu	0.541183	0.548570	1.006810
O169	O	0.095535	-0.054147	0.595778
O170	O	0.595535	0.445853	1.095778
N171	N	0.015053	0.126872	0.480710
N172	N	0.515053	0.626872	0.980710
N173	N	0.104760	-0.540096	0.968910
N174	N	0.604760	-0.040096	1.468910
O175	O	0.099447	-0.675167	1.149923
O176	O	0.599447	-0.175167	1.649923
O177	O	-0.010552	-0.525757	1.149951
O178	O	0.489448	-0.025757	1.649951
O179	O	-0.010297	-0.620493	1.149918
O180	O	0.489703	-0.120493	1.649918
O181	O	0.099192	-0.580431	1.149956
O182	O	0.599192	-0.080431	1.649956
O183	O	0.021064	-0.589100	1.055785
O184	O	0.521064	-0.089100	1.555785
O185	O	0.020809	-0.494365	1.055818
O186	O	0.520809	0.005635	1.555818
O187	O	0.130808	-0.643774	1.055790
O188	O	0.630808	-0.143774	1.555790
Cu189	Cu	0.078672	-0.566203	1.047209
Cu190	Cu	0.578672	-0.066203	1.547209
Cu191	Cu	0.041584	-0.603328	1.158532
Cu192	Cu	0.541584	-0.103328	1.658532
O193	O	0.130553	-0.549038	1.055823
O194	O	0.630553	-0.049038	1.555823
N195	N	0.015495	-0.629442	1.236831
N196	N	0.515495	-0.129442	1.736831
C197	C	0.036087	-0.491140	0.455465
C198	C	0.536087	0.008860	0.955465
C199	C	0.153325	-0.608283	0.455364
C200	C	0.653325	-0.108283	0.955364
C201	C	0.083488	-0.678322	0.595370
C202	C	0.583488	-0.178322	1.095370
C203	C	-0.033750	-0.561180	0.595470
C204	C	0.466250	-0.061180	1.095470
C205	C	0.637601	-0.654732	0.618548
C206	C	1.137601	-0.154732	1.118548
C207	C	0.637509	-0.654422	0.501245
C208	C	1.137509	-0.154422	1.001245
C209	C	0.637362	-0.514403	0.431560
C210	C	1.137362	-0.014403	0.931560
C211	C	0.637458	-0.514713	0.548862
C212	C	1.137458	-0.014713	1.048862
C213	C	0.153215	-0.006966	0.455158
C214	C	0.653215	0.493034	0.955158
C215	C	0.035916	-0.007114	0.455550
C216	C	0.535916	0.492886	0.955550
C217	C	-0.033739	-0.007106	0.595527
C218	C	0.466261	0.492894	1.095527
C219	C	0.083600	-0.007076	0.595174
C220	C	0.583600	0.492924	1.095174
C221	C	-0.010020	-0.491238	1.102888
C222	C	0.489980	0.008762	1.602888
C223	C	-0.009698	-0.608550	1.102828
C224	C	0.490302	-0.108550	1.602828
C225	C	0.130276	-0.678293	1.102853
C226	C	0.630276	-0.178293	1.602853
C227	C	0.129961	-0.560974	1.102892
C228	C	0.629961	-0.060974	1.602892
H229	H	0.018524	-0.494668	0.964293
H230	H	0.518524	0.005332	1.464293
H231	H	-0.076633	-0.007113	0.630069
H232	H	0.423367	0.492887	1.130069
O233	O	0.637764	-0.695957	0.669696
O234	O	1.137764	-0.195957	1.169696
C235	C	0.686525	-0.709060	0.679826
C236	C	1.186525	-0.209060	1.179826
H237	H	0.720561	-0.696505	0.637802
H238	H	1.220561	-0.196505	1.137802
H239	H	0.675507	-0.684816	0.707185
H240	H	1.175507	-0.184816	1.207185
C241	C	0.666889	-0.788505	0.762317
C242	C	1.166889	-0.288505	1.262317
C243	C	0.708696	-0.773088	0.710702
C244	C	1.208696	-0.273088	1.210702
H245	H	0.680564	-0.828000	0.781365
H246	H	1.180564	-0.328000	1.281365
H247	H	0.634037	-0.779676	0.755494
H248	H	1.134037	-0.279676	1.255494
H249	H	0.657711	-0.768297	0.785109
H250	H	1.157711	-0.268297	1.285109
H251	H	0.717868	-0.793291	0.687908
H252	H	1.217868	-0.293291	1.187908
H253	H	0.741550	-0.781922	0.717522
H254	H	1.241550	-0.281922	1.217522
O255	O	-0.084971	-0.550992	0.636570
O256	O	0.415029	-0.050992	1.136570
C257	C	-0.120150	-0.495382	0.616107
C258	C	0.379850	0.004618	1.116107
H259	H	-0.092896	-0.468503	0.579754
H260	H	0.407104	0.031497	1.079754
H261	H	-0.148737	-0.496244	0.600393
H262	H	0.351263	0.003756	1.100393
C263	C	-0.190247	-0.502793	0.708734
C264	C	0.309753	-0.002793	1.208734
C265	C	-0.156774	-0.469779	0.664088
C266	C	0.343226	0.030221	1.164088
H267	H	-0.212841	-0.487000	0.738332
H268	H	0.287159	0.013000	1.238332
H269	H	-0.166548	-0.540260	0.722521
H270	H	0.333452	-0.040260	1.222521
H271	H	-0.214065	-0.503509	0.695632
H272	H	0.285935	-0.003509	1.195632
H273	H	-0.132952	-0.469069	0.677189
H274	H	0.367048	0.030931	1.177189
H275	H	-0.180470	-0.432311	0.650305
H276	H	0.319530	0.067689	1.150305
O277	O	0.637500	-0.695401	0.490929
O278	O	1.137500	-0.195401	0.990929
C279	C	0.637457	-0.674786	0.435299
C280	C	1.137457	-0.174786	0.935299
H281	H	0.619594	-0.626574	0.420426
H282	H	1.119594	-0.126574	0.920426
H283	H	0.682604	-0.689072	0.405988
H284	H	1.182604	-0.189072	0.905988
C285	C	0.622492	-0.757309	0.452484
C286	C	1.122492	-0.257309	0.952484
C287	C	0.600548	-0.698094	0.434218
C288	C	1.100548	-0.198094	0.934218
H289	H	0.599727	-0.771688	0.451816
H290	H	1.099727	-0.271688	0.951816
H291	H	0.622523	-0.771199	0.489963
H292	H	1.122523	-0.271199	0.989963
H293	H	0.660114	-0.769207	0.428056
H294	H	1.160114	-0.269207	0.928056
H295	H	0.562930	-0.686197	0.458650
H296	H	1.062930	-0.186197	0.958650
H297	H	0.600510	-0.684203	0.396743
H298	H	1.100510	-0.184203	0.896743
H299	H	0.637300	-0.479859	0.388668
H300	H	1.137300	0.020141	0.888668
H301	H	0.196241	-0.616742	0.420869
H302	H	0.696241	-0.116742	0.920869
H303	H	0.092195	-0.007066	0.629560
H304	H	0.592195	0.492934	1.129560
H305	H	0.637450	-0.480310	0.557440
H306	H	1.137450	0.019690	1.057440
H307	H	0.196022	-0.006699	0.420530
H308	H	0.696022	0.493301	0.920530
O309	O	0.025816	-0.439885	0.414418
O310	O	0.525816	0.060115	0.914418
C311	C	-0.029802	-0.404773	0.434960
C312	C	0.470198	0.095227	0.934960
H313	H	-0.056622	-0.432086	0.471310
H314	H	0.443378	0.067914	0.971310
H315	H	-0.028948	-0.376202	0.450699
H316	H	0.471052	0.123798	0.950699
C317	C	-0.022542	-0.334571	0.342387
C318	C	0.477458	0.165429	0.842387
C319	C	-0.055483	-0.368118	0.387030
C320	C	0.444517	0.131882	0.887030
H321	H	-0.038383	-0.311959	0.312822
H322	H	0.461617	0.188041	0.812822
H323	H	0.014930	-0.358225	0.328548
H324	H	0.514930	0.141775	0.828548
H325	H	-0.021833	-0.310767	0.355511
H326	H	0.478167	0.189233	0.855511
H327	H	-0.056186	-0.391926	0.373908
H328	H	0.443814	0.108074	0.873908
H329	H	-0.092956	-0.344467	0.400866
H330	H	0.407044	0.155533	0.900866
H331	H	-0.073458	-0.868361	0.512142
H332	H	0.426542	-0.368361	1.012142
O333	O	0.171015	-0.550691	1.102797
O334	O	0.671015	-0.050691	1.602797
C335	C	0.183991	-0.504846	1.054060
C336	C	0.683991	-0.004846	1.554060
H337	H	0.171552	-0.500385	1.019981
H338	H	0.671552	-0.000385	1.519981
H339	H	0.159569	-0.464263	1.065093
H340	H	0.659569	0.035737	1.565093
C341	C	0.263235	-0.521094	1.073808
C342	C	0.763235	-0.021094	1.573808
C343	C	0.247962	-0.515618	1.031950
C344	C	0.747962	-0.015618	1.531950
H345	H	0.302695	-0.527737	1.060171
H346	H	0.802695	-0.027737	1.560171
H347	H	0.254492	-0.551980	1.106644
H348	H	0.754492	-0.051980	1.606644
H349	H	0.242879	-0.487273	1.082998
H350	H	0.742879	0.012727	1.582998
H351	H	0.268312	-0.549441	1.022766
H352	H	0.768312	-0.049441	1.522766
H353	H	0.256709	-0.484738	0.999112
H354	H	0.756709	0.015262	1.499112
O355	O	0.025586	-0.007165	0.414600
O356	O	0.525586	0.492835	0.914600
C357	C	-0.030051	-0.007170	0.435229
C358	C	0.469949	0.492830	0.935229
H359	H	-0.044926	-0.024974	0.483440
H360	H	0.455074	0.475026	0.983440
H361	H	-0.059348	0.037984	0.420906
H362	H	0.440652	0.537984	0.920906
C363	C	-0.012886	-0.022254	0.352771
C364	C	0.487114	0.477746	0.852771
C365	C	-0.031154	-0.044126	0.411985
C366	C	0.468846	0.455874	0.911985
H367	H	-0.013568	-0.045048	0.338431
H368	H	0.486432	0.454952	0.838431
H369	H	0.024597	-0.022249	0.338872
H370	H	0.524597	0.477751	0.838872
H371	H	-0.037303	0.015374	0.340842
H372	H	0.462697	0.515374	0.840842
H373	H	-0.006733	-0.081750	0.423912
H374	H	0.493267	0.418250	0.923912
H375	H	-0.068634	-0.044138	0.425886
H376	H	0.431366	0.455862	0.925886
O377	O	-0.051168	-0.440024	1.102922
O378	O	0.448832	0.059976	1.602922
C379	C	-0.030791	-0.404800	1.102924
C380	C	0.469209	0.095200	1.602924
H381	H	0.005545	-0.432020	1.120746
H382	H	0.505545	0.067980	1.620746
H383	H	-0.015082	-0.376214	1.057768
H384	H	0.484918	0.123786	1.557768
C385	C	-0.123464	-0.334737	1.117958
C386	C	0.376536	0.165263	1.617958
C387	C	-0.078839	-0.368169	1.139853
C388	C	0.421161	0.131831	1.639853
H389	H	-0.153102	-0.312139	1.140735
H390	H	0.346898	0.187861	1.640735
H391	H	-0.137192	-0.358467	1.117955
H392	H	0.362808	0.141533	1.617955
H393	H	-0.110366	-0.310920	1.080329
H394	H	0.389634	0.189080	1.580329
H395	H	-0.091935	-0.391990	1.177479
H396	H	0.408065	0.108010	1.677479
H397	H	-0.065114	-0.344442	1.139863
H398	H	0.434886	0.155558	1.639863
O399	O	-0.050647	-0.618839	1.102741
O400	O	0.449353	-0.118839	1.602741
C401	C	-0.030030	-0.674478	1.102725
C402	C	0.469970	-0.174478	1.602725
H403	H	0.018180	-0.689385	1.084935
H404	H	0.518180	-0.189385	1.584935
H405	H	-0.044362	-0.703765	1.147872
H406	H	0.455638	-0.203765	1.647872
C407	C	-0.112484	-0.657246	1.087601
C408	C	0.387516	-0.157246	1.587601
C409	C	-0.053272	-0.675553	1.065747
C410	C	0.446728	-0.175553	1.565747
H411	H	-0.126823	-0.657910	1.064793
H412	H	0.373177	-0.157910	1.564793
H413	H	-0.126376	-0.619761	1.087614
H414	H	0.373624	-0.119761	1.587614
H415	H	-0.124421	-0.681654	1.125223
H416	H	0.375579	-0.181654	1.625223
H417	H	-0.041337	-0.651140	1.028128
H418	H	0.458663	-0.151140	1.528128
H419	H	-0.039379	-0.713034	1.065726
H420	H	0.460621	-0.213034	1.565726
H421	H	0.054136	-0.458786	0.651283
H422	H	0.554136	0.041214	1.151283
O423	O	0.171460	-0.729480	1.102766
O424	O	0.671460	-0.229480	1.602766
C425	C	0.184612	-0.739625	1.053995
C426	C	0.684612	-0.239625	1.553995
H427	H	0.147198	-0.713211	1.037740
H428	H	0.647198	-0.213211	1.537740
H429	H	0.223413	-0.727438	1.019863
H430	H	0.723413	-0.227438	1.519863
C431	C	0.243057	-0.835291	1.088748
C432	C	0.743057	-0.335291	1.588748
C433	C	0.197102	-0.802853	1.068786
C434	C	0.697102	-0.302853	1.568786
H435	H	0.250764	-0.874293	1.097870
H436	H	0.750764	-0.374293	1.597870
H437	H	0.234198	-0.828455	1.121605
H438	H	0.734198	-0.328455	1.621605
H439	H	0.275386	-0.825128	1.060301
H440	H	0.775386	-0.325128	1.560301
H441	H	0.164773	-0.813010	1.097235
H442	H	0.664773	-0.313010	1.597235
H443	H	0.205956	-0.809691	1.035934
H444	H	0.705956	-0.309691	1.535934
O445	O	0.048201	-0.453543	0.852179
O446	O	0.548201	0.046457	1.352179
C447	C	0.013938	-0.483460	0.866684
C448	C	0.513938	0.016540	1.366684
H449	H	0.036836	-0.530867	0.882953
H450	H	0.536836	-0.030867	1.382953
H451	H	-0.027673	-0.470853	0.901097
H452	H	0.472327	0.029147	1.401097
C453	C	-0.026333	-0.410904	0.794084
C454	C	0.473667	0.089096	1.294084
C455	C	0.001792	-0.469130	0.814062
C456	C	0.501792	0.030870	1.314062
H457	H	-0.033828	-0.402063	0.761626
H458	H	0.466172	0.097937	1.261626
H459	H	-0.003251	-0.390747	0.784313
H460	H	0.496749	0.109253	1.284313
H461	H	-0.061006	-0.400405	0.822767
H462	H	0.438994	0.099595	1.322767
H463	H	0.036468	-0.479626	0.785382
H464	H	0.536468	0.020374	1.285382
H465	H	-0.021284	-0.489289	0.823827
H466	H	0.478716	0.010711	1.323827
O467	O	0.200188	-0.587864	0.968831
O468	O	0.700188	-0.087864	1.468831
C469	C	0.234455	-0.637547	0.954321
C470	C	0.734455	-0.137547	1.454321
H471	H	0.211564	-0.645782	0.938040
H472	H	0.711564	-0.145782	1.438040
H473	H	0.276069	-0.632156	0.919915
H474	H	0.776069	-0.132156	1.419915
C475	C	0.274710	-0.677862	1.026936
C476	C	0.774710	-0.177862	1.526936
C477	C	0.246592	-0.687979	1.006944
C478	C	0.746592	-0.187979	1.506944
H479	H	0.282199	-0.708971	1.059395
H480	H	0.782199	-0.208971	1.559395
H481	H	0.251625	-0.644389	1.036711
H482	H	0.751625	-0.144389	1.536711
H483	H	0.309385	-0.673369	0.998260
H484	H	0.809385	-0.173369	1.498260
H485	H	0.211915	-0.692465	1.035617
H486	H	0.711915	-0.192465	1.535617
H487	H	0.269671	-0.721454	0.997176
H488	H	0.769671	-0.221454	1.497176
O489	O	0.239003	-0.548790	0.851955
O490	O	0.739003	-0.048790	1.351955
C491	C	0.248138	-0.524030	0.793310
C492	C	0.748138	-0.024030	1.293310
H493	H	0.209245	-0.515099	0.785239
H494	H	0.709245	-0.015099	1.285239
H495	H	0.256021	-0.482694	0.776497
H496	H	0.756021	0.017306	1.276497
C497	C	0.347776	-0.575860	0.772779
C498	C	0.847776	-0.075860	1.272779
C499	C	0.300008	-0.564894	0.762865
C500	C	0.800008	-0.064894	1.262865
H501	H	0.379773	-0.601064	0.753998
H502	H	0.879773	-0.101064	1.253998
H503	H	0.341622	-0.592539	0.812289
H504	H	0.841622	-0.092539	1.312289
H505	H	0.354337	-0.541409	0.758768
H506	H	0.854337	-0.041409	1.258768
H507	H	0.293443	-0.599343	0.776883
H508	H	0.793443	-0.099343	1.276883
H509	H	0.306162	-0.548221	0.723357
H510	H	0.806162	-0.048221	1.223357
O511	O	0.199888	-0.587624	0.522184
O512	O	0.699888	-0.087624	1.022184
C513	C	0.234124	-0.557696	0.472492
C514	C	0.734124	-0.057696	0.972492
H515	H	0.211228	-0.510291	0.464270
H516	H	0.711228	-0.010291	0.964270
H517	H	0.275762	-0.570308	0.477858
H518	H	0.775762	-0.070308	0.977858
C519	C	0.274324	-0.630227	0.432169
C520	C	0.774324	-0.130227	0.932169
C521	C	0.246201	-0.572003	0.422067
C522	C	0.746201	-0.072003	0.922067
H523	H	0.281776	-0.639053	0.401064
H524	H	0.781776	-0.139053	0.901064
H525	H	0.251261	-0.650391	0.465647
H526	H	0.751261	-0.150391	0.965647
H527	H	0.309019	-0.640729	0.436642
H528	H	0.809019	-0.140729	0.936642
H529	H	0.211504	-0.561503	0.417602
H530	H	0.711504	-0.061503	0.917602
H531	H	0.269259	-0.551837	0.388586
H532	H	0.769259	-0.051837	0.888586
O533	O	0.238814	-0.548668	0.561115
O534	O	0.738814	-0.048668	1.061115
C535	C	0.253100	-0.498872	0.531304
C536	C	0.753100	0.001128	1.031304
H537	H	0.219672	-0.463278	0.511276
H538	H	0.719672	0.036722	1.011276
H539	H	0.255083	-0.486407	0.561771
H540	H	0.755083	0.013593	1.061771
C541	C	0.352242	-0.553115	0.509236
C542	C	0.852242	-0.053115	1.009236
C543	C	0.311186	-0.509399	0.484634
C544	C	0.811186	-0.009399	0.984634
H545	H	0.388073	-0.559608	0.480450
H546	H	0.888073	-0.059608	0.980450
H547	H	0.342617	-0.586664	0.529322
H548	H	0.842617	-0.086664	1.029322
H549	H	0.353887	-0.542722	0.534625
H550	H	0.853887	-0.042722	1.034625
H551	H	0.309537	-0.519795	0.459252
H552	H	0.809537	-0.019795	0.959252
H553	H	0.320812	-0.475852	0.464543
H554	H	0.820812	0.024148	0.964543
H555	H	0.018285	-0.494604	0.615454
H556	H	0.518285	0.005396	1.115454
H557	H	0.092017	-0.721269	0.629819
H558	H	0.592017	-0.221269	1.129819
O559	O	0.386834	-0.595658	0.644805
O560	O	0.886834	-0.095658	1.144805
C561	C	0.425703	-0.650915	0.647982
C562	C	0.925703	-0.150915	1.147982
H563	H	0.467923	-0.648653	0.612973
H564	H	0.967923	-0.148653	1.112973
H565	H	0.432036	-0.673535	0.690913
H566	H	0.932036	-0.173535	1.190913
C567	C	0.350717	-0.686550	0.683747
C568	C	0.850717	-0.186550	1.183747
C569	C	0.402572	-0.683773	0.640746
C570	C	0.902572	-0.183773	1.140746
H571	H	0.336449	-0.706821	0.679287
H572	H	0.836449	-0.206821	1.179287
H573	H	0.324530	-0.649323	0.681610
H574	H	0.824530	-0.149323	1.181610
H575	H	0.356002	-0.705399	0.719520
H576	H	0.856002	-0.205399	1.219520
H577	H	0.397286	-0.664918	0.604975
H578	H	0.897286	-0.164918	1.104975
H579	H	0.428758	-0.720998	0.642877
H580	H	0.928758	-0.220998	1.142877
H581	H	0.498841	-0.451490	0.538213
H582	H	0.998841	0.048510	1.038213
O583	O	0.503608	-0.634506	0.605888
O584	O	1.003608	-0.134506	1.105888
C585	C	0.537900	-0.655041	0.638105
C586	C	1.037900	-0.155041	1.138105
H587	H	0.546772	-0.618461	0.633460
H588	H	1.046772	-0.118461	1.133460
H589	H	0.515092	-0.675458	0.684541
H590	H	1.015092	-0.175458	1.184541
C591	C	0.583284	-0.744234	0.622551
C592	C	1.083284	-0.244234	1.122551
C593	C	0.594185	-0.699306	0.616841
C594	C	1.094185	-0.199306	1.116841
H595	H	0.618003	-0.771540	0.609436
H596	H	1.118003	-0.271540	1.109436
H597	H	0.560180	-0.730400	0.600847
H598	H	1.060180	-0.230400	1.100847
H599	H	0.564276	-0.761241	0.661248
H600	H	1.064276	-0.261241	1.161248
H601	H	0.613186	-0.682295	0.578144
H602	H	1.113186	-0.182295	1.078144
H603	H	0.617294	-0.713137	0.638538
H604	H	1.117294	-0.213137	1.138538
O605	O	0.386779	-0.406569	0.572740
O606	O	0.886779	0.093431	1.072740
C607	C	0.425623	-0.377210	0.543629
C608	C	0.925623	0.122790	1.043629
H609	H	0.467871	-0.407621	0.550449
H610	H	0.967871	0.092379	1.050449
H611	H	0.431897	-0.358792	0.496490
H612	H	0.931897	0.141208	0.996490
C613	C	0.350618	-0.291588	0.557916
C614	C	0.850618	0.208412	1.057916
C615	C	0.402506	-0.328938	0.566297
C616	C	0.902506	0.171062	1.066297
H617	H	0.336358	-0.261810	0.571896
H618	H	0.836358	0.238190	1.071896
H619	H	0.324447	-0.311366	0.577527
H620	H	0.824447	0.188634	1.077527
H621	H	0.355854	-0.276246	0.518633
H622	H	0.855854	0.223754	1.018633
H623	H	0.397269	-0.344285	0.605580
H624	H	0.897269	0.155715	1.105580
H625	H	0.428676	-0.309161	0.546693
H626	H	0.928676	0.190839	1.046693
H627	H	0.185713	-0.253197	0.519589
H628	H	0.685713	0.246803	1.019589
H629	H	0.149834	-0.145702	0.483792
H630	H	0.649834	0.354298	0.983792
H631	H	0.098041	-0.253238	0.695156
H632	H	0.598041	0.246762	1.195156
O633	O	0.056888	-0.141151	0.665465
O634	O	0.556888	0.358849	1.165465
C635	C	0.086848	-0.155621	0.699685
C636	C	0.586848	0.344379	1.199685
H637	H	0.121350	-0.198637	0.700244
H638	H	0.621350	0.301363	1.200244
H639	H	0.106944	-0.122264	0.681855
H640	H	0.606944	0.377736	1.181855
C641	C	0.003444	-0.105546	0.759712
C642	C	0.503444	0.394454	1.259712
C643	C	0.045817	-0.158382	0.760402
C644	C	0.545817	0.341618	1.260402
H645	H	-0.021865	-0.107246	0.797164
H646	H	0.478135	0.392754	1.297164
H647	H	-0.016740	-0.095795	0.736656
H648	H	0.483260	0.404205	1.236656
H649	H	0.020198	-0.077754	0.744850
H650	H	0.520198	0.422246	1.244850
H651	H	0.029064	-0.186171	0.775256
H652	H	0.529064	0.313829	1.275256
H653	H	0.065998	-0.168137	0.783462
H654	H	0.565998	0.331863	1.283462
O655	O	-0.071231	-0.572831	0.353491
O656	O	0.428769	-0.072831	0.853491
C657	C	-0.079557	-0.517192	0.314608
C658	C	0.420443	-0.017192	0.814608
H659	H	-0.043790	-0.517347	0.272410
H660	H	0.456210	-0.017347	0.772410
H661	H	-0.121737	-0.500164	0.308222
H662	H	0.378263	-0.000164	0.808222
C663	C	-0.123922	-0.479015	0.389593
C664	C	0.376078	0.020985	0.889593
C665	C	-0.079989	-0.479206	0.337766
C666	C	0.420011	0.020794	0.837766
H667	H	-0.124191	-0.455582	0.403878
H668	H	0.375809	0.044418	0.903878
H669	H	-0.118314	-0.516500	0.415790
H670	H	0.381686	-0.016500	0.915790
H671	H	-0.159067	-0.464827	0.384264
H672	H	0.340933	0.035173	0.884264
H673	H	-0.044844	-0.493400	0.343096
H674	H	0.455156	0.006600	0.843096
H675	H	-0.085591	-0.441722	0.311570
H676	H	0.414409	0.058278	0.811570
H677	H	-0.029909	-0.543201	0.241439
H678	H	0.470091	-0.043201	0.741439
H679	H	0.057785	-0.718806	0.241554
H680	H	0.557785	-0.218806	0.741554
O681	O	0.024060	-0.763737	0.353618
O682	O	0.524060	-0.263737	0.853618
C683	C	0.058414	-0.793522	0.314790
C684	C	0.558414	-0.293522	0.814790
H685	H	0.050932	-0.765263	0.272511
H686	H	0.550932	-0.265263	0.772511
H687	H	0.104809	-0.806352	0.308583
H688	H	0.604809	-0.306352	0.808583
C689	C	0.052563	-0.881605	0.389803
C690	C	0.552563	-0.381605	0.889803
C691	C	0.043370	-0.846899	0.337876
C692	C	0.543370	-0.346899	0.837876
H693	H	0.043286	-0.914531	0.404044
H694	H	0.543286	-0.414531	0.904044
H695	H	0.029420	-0.861539	0.415963
H696	H	0.529420	-0.361539	0.915963
H697	H	0.091226	-0.892291	0.384623
H698	H	0.591226	-0.392291	0.884623
H699	H	0.004707	-0.836207	0.343058
H700	H	0.504707	-0.336207	0.843058
H701	H	0.066507	-0.866964	0.311718
H702	H	0.566507	-0.366964	0.811718
H703	H	-0.065985	-0.578958	0.399332
H704	H	0.434015	-0.078958	0.899332
H705	H	-0.030233	-0.543188	0.435308
H706	H	0.469767	-0.043188	0.935308
H707	H	0.021552	-0.754553	0.487300
H708	H	0.521552	-0.254553	0.987300
O709	O	0.062711	-0.724889	0.528562
O710	O	0.562711	-0.224889	1.028562
C711	C	0.112430	-0.759186	0.498704
C712	C	0.612430	-0.259186	0.998704
H713	H	0.104544	-0.759757	0.464161
H714	H	0.604544	-0.259757	0.964161
H715	H	0.148085	-0.741417	0.478668
H716	H	0.648085	-0.241417	0.978668
C717	C	0.138914	-0.819183	0.582241
C718	C	0.638914	-0.319183	1.082241
C719	C	0.129227	-0.819888	0.539818
C720	C	0.629227	-0.319888	1.039818
H721	H	0.149278	-0.856626	0.607602
H722	H	0.649278	-0.356626	1.107602
H723	H	0.105419	-0.796075	0.602357
H724	H	0.605419	-0.296075	1.102357
H725	H	0.168625	-0.804372	0.565538
H726	H	0.668625	-0.304372	1.065538
H727	H	0.099512	-0.834691	0.556521
H728	H	0.599512	-0.334691	1.056521
H729	H	0.162718	-0.842999	0.519706
H730	H	0.662718	-0.342999	1.019706
O731	O	0.070786	-0.756482	0.405784
O732	O	0.570786	-0.256482	0.905784
C733	C	0.111057	-0.770996	0.356962
C734	C	0.611057	-0.270996	0.856962
H735	H	0.113833	-0.814006	0.362301
H736	H	0.613833	-0.314006	0.862301
H737	H	0.097738	-0.737646	0.318534
H738	H	0.597738	-0.237646	0.818534
C739	C	0.165880	-0.720973	0.341772
C740	C	0.665880	-0.220973	0.841772
C741	C	0.169293	-0.773802	0.348331
C742	C	0.669293	-0.273802	0.848331
H743	H	0.201802	-0.722702	0.336447
H744	H	0.701802	-0.222702	0.836447
H745	H	0.138748	-0.711193	0.374664
H746	H	0.638748	-0.211193	0.874664
H747	H	0.154779	-0.693187	0.309750
H748	H	0.654779	-0.193187	0.809750
H749	H	0.180387	-0.801585	0.380358
H750	H	0.680387	-0.301585	0.880358
H751	H	0.196428	-0.783587	0.315445
H752	H	0.696428	-0.283587	0.815445
H753	H	0.100481	-0.868567	0.446139
H754	H	0.600481	-0.368567	0.946139
H755	H	-0.116569	-0.710512	0.530934
H756	H	0.383431	-0.210512	1.030934
O757	O	-0.118268	-0.756219	0.477484
O758	O	0.381732	-0.256219	0.977484
C759	C	-0.136301	-0.770689	0.450805
C760	C	0.363699	-0.270689	0.950805
H761	H	-0.098422	-0.787030	0.415849
H762	H	0.401578	-0.287030	0.915849
H763	H	-0.156192	-0.805038	0.483255
H764	H	0.343808	-0.305038	0.983255
C765	C	-0.226822	-0.697948	0.467982
C766	C	0.273178	-0.197948	0.967982
C767	C	-0.180299	-0.718015	0.425045
C768	C	0.319701	-0.218015	0.925045
H769	H	-0.253964	-0.665457	0.452094
H770	H	0.246036	-0.165457	0.952094
H771	H	-0.214674	-0.688201	0.485958
H772	H	0.285326	-0.188201	0.985958
H773	H	-0.243390	-0.726577	0.495020
H774	H	0.256610	-0.226577	0.995020
H775	H	-0.163727	-0.689388	0.398012
H776	H	0.336273	-0.189388	0.898012
H777	H	-0.192446	-0.727756	0.407064
H778	H	0.307554	-0.227756	0.907064
O779	O	-0.228330	-0.581528	0.384792
O780	O	0.271670	-0.081528	0.884792
C781	C	-0.213827	-0.611465	0.350537
C782	C	0.286173	-0.111465	0.850537
H783	H	-0.170834	-0.645997	0.350030
H784	H	0.329166	-0.145997	0.850030
H785	H	-0.247194	-0.631525	0.368299
H786	H	0.252806	-0.131525	0.868299
C787	C	-0.263789	-0.528007	0.290433
C788	C	0.236211	-0.028007	0.790433
C789	C	-0.210983	-0.570417	0.289806
C790	C	0.289017	-0.070417	0.789806
H791	H	-0.262038	-0.502687	0.252972
H792	H	0.237962	-0.002687	0.752972
H793	H	-0.273562	-0.507838	0.313512
H794	H	0.226438	-0.007838	0.813512
H795	H	-0.291590	-0.544731	0.305237
H796	H	0.208410	-0.044731	0.805237
H797	H	-0.183185	-0.553694	0.275009
H798	H	0.316815	-0.053694	0.775009
H799	H	-0.201205	-0.590582	0.266723
H800	H	0.298795	-0.090582	0.766723
H801	H	-0.116252	-0.622767	0.355267
H802	H	0.383748	-0.122767	0.855267
H803	H	-0.224058	-0.674545	0.566571
H804	H	0.275942	-0.174545	1.066571
