data_functionalizedCrystal
_audit_creation_method	'MofGen! by Chris Wilmer'
_symmetry_space_group_name_H-M	'P1'
_symmetry_Int_Tables_number	1
_symmetry_cell_setting	triclinic
loop_
_symmetry_equiv_pos_as_xyz
  x,y,z
_cell_length_a	16.120490
_cell_length_b	16.120444
_cell_length_c	11.169409
_cell_angle_alpha	92.861473
_cell_angle_beta	87.080796
_cell_angle_gamma	90.165174
loop_
_atom_site_label
_atom_site_type_symbol
_atom_site_fract_x
_atom_site_fract_y
_atom_site_fract_z
Zn1	Zn	1.254505	-0.395597	-0.798889
Zn2	Zn	1.587838	-0.062263	-0.465556
Zn3	Zn	1.921171	0.271070	-0.132223
Zn4	Zn	1.247337	-0.534676	-0.607813
Zn5	Zn	1.580670	-0.201343	-0.274480
Zn6	Zn	1.914003	0.131991	0.058853
Zn7	Zn	1.115435	-0.388577	-0.587565
Zn8	Zn	1.448768	-0.055244	-0.254232
Zn9	Zn	1.782101	0.278089	0.079101
Zn10	Zn	1.108354	-0.527542	-0.797798
Zn11	Zn	1.441688	-0.194209	-0.464465
Zn12	Zn	1.775021	0.139124	-0.131131
O13	O	1.181408	-0.461598	-0.698017
O14	O	1.514741	-0.128265	-0.364683
O15	O	1.848074	0.205069	-0.031350
O16	O	1.369920	-0.419969	-0.782473
O17	O	1.703253	-0.086636	-0.449140
O18	O	2.036587	0.246698	-0.115807
O19	O	1.229803	-0.515343	-0.437178
O20	O	1.563136	-0.182010	-0.103845
O21	O	1.896469	0.151323	0.229488
O22	O	1.139846	-0.273146	-0.607581
O23	O	1.473179	0.060187	-0.274248
O24	O	1.806512	0.393520	0.059086
O25	O	1.364653	-0.522150	-0.642091
O26	O	1.697987	-0.188816	-0.308757
O27	O	2.031320	0.144517	0.024576
O28	O	1.242020	-0.278303	-0.762840
O29	O	1.575353	0.055030	-0.429506
O30	O	1.908686	0.388363	-0.096173
O31	O	1.132895	-0.408006	-0.422302
O32	O	1.466228	-0.074672	-0.088969
O33	O	1.799562	0.258661	0.244364
O34	O	0.998129	-0.401088	-0.606523
O35	O	1.331463	-0.067755	-0.273189
O36	O	1.664796	0.265578	0.060144
O37	O	1.127778	-0.509992	-0.965892
O38	O	1.461112	-0.176658	-0.632559
O39	O	1.794445	0.156675	-0.299225
O40	O	0.992928	-0.503185	-0.760980
O41	O	1.326261	-0.169852	-0.427646
O42	O	1.659594	0.163481	-0.094313
O43	O	1.235154	-0.413052	-0.966694
O44	O	1.568488	-0.079718	-0.633360
O45	O	1.901821	0.253615	-0.300027
O46	O	1.222937	-0.650092	-0.641032
O47	O	1.556271	-0.316759	-0.307699
O48	O	1.889604	0.016575	0.025634
O49	O	1.120828	-0.644851	-0.780613
O50	O	1.454161	-0.311518	-0.447280
O51	O	1.787494	0.021816	-0.113947
C52	C	0.965356	-0.450602	-0.681436
C53	C	1.298689	-0.117268	-0.348103
C54	C	1.632023	0.216065	-0.014770
C55	C	0.872927	-0.445917	-0.674373
C56	C	1.206261	-0.112584	-0.341040
C57	C	1.539594	0.220749	-0.007707
C58	C	0.659960	-0.485890	-0.734656
C59	C	0.993293	-0.152556	-0.401323
C60	C	1.326626	0.180777	-0.067989
C61	C	0.703703	-0.437373	-0.661476
C62	C	1.037037	-0.104039	-0.328143
C63	C	1.370370	0.229294	0.005190
C64	C	0.797868	-0.442128	-0.668654
C65	C	1.131202	-0.108795	-0.335321
C66	C	1.464535	0.224538	-0.001988
C67	C	0.565786	-0.481135	-0.727480
C68	C	0.899119	-0.147802	-0.394147
C69	C	1.232453	0.185532	-0.060813
C70	C	1.170359	-0.677644	-0.712929
C71	C	1.503692	-0.344311	-0.379596
C72	C	1.837026	-0.010977	-0.046263
C73	C	1.165708	-0.770073	-0.719355
C74	C	1.499042	-0.436740	-0.386022
C75	C	1.832375	-0.103407	-0.052689
C76	C	1.205736	-0.983054	-0.664956
C77	C	1.539070	-0.649721	-0.331623
C78	C	1.872403	-0.316388	0.001710
C79	C	1.157233	-0.939298	-0.731101
C80	C	1.490566	-0.605965	-0.397768
C81	C	1.823900	-0.272632	-0.064434
C82	C	1.161950	-0.845133	-0.724564
C83	C	1.495283	-0.511800	-0.391230
C84	C	1.828617	-0.178466	-0.057897
C85	C	1.201020	-1.077229	-0.671492
C86	C	1.534354	-0.743895	-0.338159
C87	C	1.867687	-0.410562	-0.004826
C88	C	1.398303	-0.472638	-0.714662
C89	C	1.731636	-0.139305	-0.381329
C90	C	2.064969	0.194029	-0.047996
C91	C	1.490730	-0.477343	-0.721756
C92	C	1.824064	-0.144009	-0.388422
C93	C	2.157397	0.189324	-0.055089
C94	C	1.181476	-0.461509	-1.011058
C95	C	1.514809	-0.128176	-0.677724
C96	C	1.848143	0.205158	-0.344391
C97	C	1.181505	-0.461471	-1.144457
C98	C	1.514839	-0.128138	-0.811124
C99	C	1.848172	0.205196	-0.477790
C100	C	1.192522	-0.244710	-0.683073
C101	C	1.525855	0.088624	-0.349740
C102	C	1.859189	0.421957	-0.016407
C103	C	1.197258	-0.152285	-0.676706
C104	C	1.530592	0.181049	-0.343372
C105	C	1.863925	0.514382	-0.010039
C106	C	1.181390	-0.461629	-0.386193
C107	C	1.514724	-0.128296	-0.052859
C108	C	1.848057	0.205037	0.280474
C109	C	1.181534	-0.461441	-0.252790
C110	C	1.514867	-0.128108	0.080543
C111	C	1.848201	0.205225	0.413876
H112	H	0.693227	-0.530995	-0.802692
H113	H	1.026561	-0.197662	-0.469358
H114	H	1.359894	0.135672	-0.136025
H115	H	0.670434	-0.392265	-0.593434
H116	H	1.003767	-0.058931	-0.260101
H117	H	1.337100	0.274402	0.073232
H118	H	1.112165	-0.972558	-0.792638
H119	H	1.445498	-0.639225	-0.459305
H120	H	1.778832	-0.305891	-0.125972
H121	H	1.250800	-0.949798	-0.603422
H122	H	1.584134	-0.616465	-0.270089
H123	H	1.917467	-0.283132	0.063245
