data_functionalizedCrystal
_audit_creation_method	'MofGen! by Chris Wilmer'
_symmetry_space_group_name_H-M	'P1'
_symmetry_Int_Tables_number	1
_symmetry_cell_setting	triclinic
loop_
_symmetry_equiv_pos_as_xyz
  x,y,z
_cell_length_a	6.817900
_cell_length_b	17.110486
_cell_length_c	17.329528
_cell_angle_alpha	92.675316
_cell_angle_beta	103.027692
_cell_angle_gamma	99.060439
loop_
_atom_site_label
_atom_site_type_symbol
_atom_site_fract_x
_atom_site_fract_y
_atom_site_fract_z
V1	V	-3.971147	-0.239566	-0.108505
O2	O	-3.965663	-0.242383	0.005455
O3	O	-3.917327	-0.230832	-0.215379
O4	O	-3.901098	-0.347286	-0.106731
O5	O	-3.982004	-0.125123	-0.103946
V6	V	-4.458282	-0.226740	-0.094887
O7	O	-4.224481	-0.267702	-0.138378
O8	O	-4.655145	-0.198604	-0.065014
O9	O	-4.288895	-0.235474	0.011987
O10	O	-4.581163	-0.223922	-0.208847
O11	O	-4.564822	-0.341183	-0.099446
O12	O	-4.305123	-0.119019	-0.096662
C13	C	-3.761710	-0.225222	-0.241436
C14	C	-3.798849	-0.218799	-0.328806
C15	C	-3.741008	-0.373770	-0.102843
C16	C	-3.764984	-0.461785	-0.102099
C17	C	-4.007496	-0.178804	-0.822382
C18	C	-3.972614	-0.184852	-0.740291
C19	C	-3.980205	-0.259607	-0.710410
C20	C	-4.022660	-0.328317	-0.762625
C21	C	-4.057526	-0.322268	-0.844714
C22	C	-3.876170	-0.281460	-0.463111
C23	C	-3.841306	-0.287504	-0.381015
C24	C	-3.791259	-0.144039	-0.358687
C25	C	-3.826140	-0.137996	-0.440779
C26	C	-3.868581	-0.206706	-0.492986
C27	C	-3.944557	-0.265791	-0.626500
C28	C	-3.904213	-0.200521	-0.576894
C29	C	-3.957335	-0.506907	-0.105672
C30	C	-3.979851	-0.589607	-0.104973
C31	C	-3.810015	-0.627183	-0.100706
C32	C	-3.617647	-0.582054	-0.097130
C33	C	-3.595131	-0.499356	-0.097824
C34	C	-3.868936	-0.876689	-0.098410
C35	C	-3.891468	-0.959394	-0.097719
C36	C	-4.253671	-0.966940	-0.105560
C37	C	-4.231140	-0.884240	-0.106258
C38	C	-4.038773	-0.839119	-0.102678
C39	C	-3.833026	-0.711715	-0.099993
C40	C	-4.015762	-0.754588	-0.103385
C41	C	-4.107854	-0.241081	0.038040
C42	C	-4.049952	-0.247509	0.125409
C43	C	-4.128557	-0.092532	-0.100552
C44	C	-4.083820	-0.004516	-0.101292
H45	H	-4.001320	-0.117931	-0.846704
F46	F	-3.664212	-0.828679	-0.094616
F47	F	-3.818079	-0.058433	-0.472574
H48	H	-3.694751	-0.742319	-0.096522
F49	F	-3.952626	-0.345348	-0.594690
H50	H	-4.092091	-0.378215	-0.887222
F51	F	-4.138107	-0.466924	-0.110219
F52	F	-3.849399	-0.367072	-0.349216
H53	H	-3.438490	-0.462616	-0.094895
F54	F	-4.184580	-0.637626	-0.108784
F55	F	-4.030716	-0.407877	-0.730820
F56	F	-4.196506	-0.714595	-0.107924
H57	H	-3.938051	-0.128905	-0.697785
H58	H	-3.756697	-0.088099	-0.316171
H59	H	-3.898023	-0.139656	-0.601227
H60	H	-4.369443	-0.853652	-0.109731
H61	H	-3.753155	-0.989985	-0.094241
F62	F	-3.921197	-0.354585	-0.518661
F63	F	-4.458390	-1.014967	-0.109367
H64	H	-3.479363	-0.612655	-0.093651
