data_functionalizedCrystal
_audit_creation_method	'MofGen! by Chris Wilmer'
_symmetry_space_group_name_H-M	'P1'
_symmetry_Int_Tables_number	1
_symmetry_cell_setting	triclinic
loop_
_symmetry_equiv_pos_as_xyz
  x,y,z
_cell_length_a	12.645035
_cell_length_b	12.645331
_cell_length_c	12.759393
_cell_angle_alpha	90.023082
_cell_angle_beta	90.117716
_cell_angle_gamma	89.849968
loop_
_atom_site_label
_atom_site_type_symbol
_atom_site_fract_x
_atom_site_fract_y
_atom_site_fract_z
Zn1	Zn	0.421994	1.619761	0.595162
Zn2	Zn	0.599300	1.619233	0.419936
Zn3	Zn	0.422046	1.442475	0.419490
Zn4	Zn	0.599222	1.442049	0.595567
O5	O	0.510640	1.530880	0.507539
O6	O	0.445525	1.768039	0.571935
O7	O	0.575841	1.595743	0.272856
O8	O	0.273688	1.466391	0.442438
O9	O	0.575791	1.767651	0.443197
O10	O	0.273649	1.596643	0.571502
O11	O	0.445614	1.465880	0.272529
O12	O	0.445538	1.294071	0.442830
O13	O	0.575657	1.465666	0.742534
O14	O	0.575708	1.293758	0.572193
O15	O	0.445449	1.596230	0.742236
O16	O	0.747641	1.595331	0.443590
O17	O	0.747584	1.465154	0.572625
C18	C	0.510621	1.255450	0.507508
C19	C	0.510639	1.137620	0.507519
C20	C	0.428621	1.092900	0.426269
C21	C	0.428318	0.970341	0.426546
C22	C	0.480837	0.969860	0.618351
C23	C	0.480224	1.092459	0.617843
C24	C	0.622702	1.092146	0.478985
C25	C	0.622117	0.969540	0.476579
C26	C	0.234127	1.531624	0.506875
C27	C	0.116294	1.531941	0.506592
C28	C	-0.051270	1.612045	0.589617
C29	C	0.071270	1.613510	0.588248
C30	C	0.070176	1.561828	0.396308
C31	C	-0.052411	1.561278	0.397910
C32	C	-0.049253	1.418209	0.536379
C33	C	0.073361	1.419944	0.537693
C34	C	0.786078	1.530168	0.508223
C35	C	0.903912	1.529960	0.508550
C36	C	0.510539	1.530959	0.781572
C37	C	0.510495	1.530993	0.898349
C38	C	0.510661	1.807385	0.507571
C39	C	0.510669	1.925215	0.507584
C40	C	0.510665	1.530862	0.234571
C41	C	0.510410	1.531034	0.117795
C42	C	0.442685	1.598983	0.953057
C43	C	0.442639	1.599001	1.062781
C44	C	0.578223	1.463036	1.063078
C45	C	0.578263	1.463014	0.953356
H46	H	0.398323	1.121266	0.641996
H47	H	0.537389	1.122042	0.680461
H48	H	0.633481	1.407641	0.908811
H49	H	0.538757	0.940627	0.680558
H50	H	0.387420	1.654364	1.107320
H51	H	-0.083263	1.694396	0.571435
H52	H	0.633400	1.407692	1.107879
H53	H	0.446931	0.940154	0.344419
H54	H	0.102517	1.594775	0.670041
H55	H	-0.078940	1.390336	0.615989
H56	H	0.649939	1.122949	0.399571
H57	H	-0.079578	1.593023	0.672230
H58	H	0.447019	1.122260	0.343862
H59	H	-0.082127	1.504102	0.335410
H60	H	0.099397	1.696893	0.569283
H61	H	0.104110	1.356126	0.482390
H62	H	-0.082249	1.643007	0.374233
H63	H	0.346055	1.123917	0.444947
H64	H	0.387501	1.654333	0.908273
H65	H	0.683803	1.121045	0.538167
H66	H	0.345289	0.941223	0.445474
H67	H	0.099281	1.504456	0.333689
H68	H	0.099636	1.643212	0.371663
H69	H	0.644619	0.940349	0.395061
H70	H	0.686468	0.938794	0.531433
H71	H	0.399845	0.939367	0.642941
H72	H	-0.078222	1.357090	0.477302
H73	H	0.103644	1.397365	0.618887
