data_functionalizedCrystal
_audit_creation_method	'MofGen! by Chris Wilmer'
_symmetry_space_group_name_H-M	'P1'
_symmetry_Int_Tables_number	1
_symmetry_cell_setting	triclinic
loop_
_symmetry_equiv_pos_as_xyz
  x,y,z
_cell_length_a	14.560432
_cell_length_b	23.196402
_cell_length_c	23.196402
_cell_angle_alpha	89.996498
_cell_angle_beta	120.000702
_cell_angle_gamma	60.004778
loop_
_atom_site_label
_atom_site_type_symbol
_atom_site_fract_x
_atom_site_fract_y
_atom_site_fract_z
Zr1	Zr	1.005296	-0.075663	-0.555351
O2	O	1.196890	-0.167706	-0.463293
O3	O	0.813697	-0.047449	-0.583572
O4	O	1.005294	-0.167714	-0.583562
O5	O	1.005295	0.047429	-0.463312
O6	O	1.005298	-0.167718	-0.678431
O7	O	1.005292	-0.047440	-0.463304
O8	O	0.662565	0.047415	-0.678450
O9	O	1.348028	-0.167704	-0.463293
O10	O	0.892508	-0.035416	-0.666408
O11	O	0.892507	0.035387	-0.595614
O12	O	1.118089	-0.106210	-0.595601
O13	O	1.118088	-0.035407	-0.524807
Zr14	Zr	1.005305	0.075637	-0.706670
Zr15	Zr	1.005302	-0.075669	-0.706657
Zr16	Zr	1.005299	0.075644	-0.555364
Zr17	Zr	1.246343	-0.075659	-0.555351
Zr18	Zr	0.764258	0.075634	-0.706670
O19	O	1.196904	0.047423	-0.678449
O20	O	1.196899	-0.167716	-0.678431
O21	O	1.196896	0.047432	-0.463312
O22	O	0.813711	0.167680	-0.798728
O23	O	0.813705	-0.047458	-0.798709
O24	O	0.813702	0.167690	-0.583590
O25	O	1.005306	-0.047455	-0.798709
O26	O	1.005306	0.167689	-0.678459
O27	O	1.005303	0.167693	-0.583590
O28	O	1.005308	0.047415	-0.798717
O29	O	1.348033	-0.167709	-0.583561
O30	O	0.662568	0.167683	-0.678460
O31	O	0.662573	0.167678	-0.798728
O32	O	0.662570	0.047410	-0.798718
O33	O	1.348031	-0.047435	-0.463303
O34	O	1.348036	-0.047441	-0.583571
O35	O	0.892512	0.106184	-0.666420
O36	O	0.892513	0.035381	-0.737214
O37	O	1.118094	-0.035413	-0.666407
O38	O	1.118092	0.035391	-0.595613
C39	C	0.703787	-0.000017	-0.631011
C40	C	0.601456	-0.000019	-0.631011
C41	C	1.005293	-0.000005	-0.441750
C42	C	1.005290	-0.000002	-0.377517
C43	C	1.005305	0.189249	-0.631027
C44	C	1.005307	0.253482	-0.631032
C45	C	0.601450	-0.073945	-0.704914
C46	C	0.553377	-0.110910	-0.741862
C47	C	0.457227	-0.110908	-0.741860
C48	C	0.409147	-0.073937	-0.704908
C49	C	0.457221	-0.036973	-0.667960
C50	C	0.553375	-0.036980	-0.667964
C51	C	0.457219	0.036957	-0.594062
C52	C	0.553375	0.036953	-0.594059
C53	C	0.409139	0.073929	-0.557110
C54	C	0.457219	0.110890	-0.520157
C55	C	0.553375	0.110886	-0.520160
C56	C	0.601449	0.073917	-0.557111
C57	C	1.306814	-0.000008	-0.631010
C58	C	1.409145	-0.000007	-0.631010
C59	C	1.005296	-0.189274	-0.630994
C60	C	1.005294	-0.253508	-0.630989
C61	C	1.123054	0.246704	-0.594075
C62	C	1.123056	0.307058	-0.594065
C63	C	1.005303	0.374191	-0.631025
C64	C	0.887541	0.380967	-0.667984
C65	C	0.887542	0.320612	-0.667987
C66	C	0.915090	0.498124	-0.692927
C67	C	0.915094	0.558475	-0.692925
C68	C	1.005294	0.560344	-0.631013
C69	C	1.095512	0.501848	-0.569103
C70	C	1.095514	0.441494	-0.569107
C71	C	1.005289	0.439639	-0.631025
C72	C	1.123051	0.619006	-0.594042
C73	C	1.123048	0.679363	-0.594029
C74	C	0.887529	0.753272	-0.667955
C75	C	0.887536	0.692915	-0.667961
C76	C	1.005300	0.625785	-0.631005
C77	C	0.887543	0.036945	-0.384302
C78	C	0.887540	0.036949	-0.323948
C79	C	1.005292	-0.000009	-0.256809
C80	C	1.123055	-0.036957	-0.250026
C81	C	1.123054	-0.036954	-0.310380
C82	C	1.095504	-0.061916	-0.132875
C83	C	1.095499	-0.061921	-0.072524
C84	C	1.005298	-0.000018	-0.070656
C85	C	0.915080	0.061891	-0.129154
C86	C	0.915079	0.061894	-0.189507
C87	C	1.005305	-0.000016	-0.191361
C88	C	0.887540	0.036936	-0.012001
C89	C	0.887542	0.036942	0.048356
C90	C	1.123060	-0.036971	0.122277
C91	C	1.123055	-0.036970	0.061921
C92	C	1.005291	-0.000018	-0.005216
C93	C	1.005304	-0.000019	0.179728
C94	C	1.005295	-0.000015	0.115491
C95	C	0.703794	-0.000026	-0.820271
C96	C	0.601466	-0.000030	-0.884505
C97	C	0.703791	0.189244	-0.631027
C98	C	0.601462	0.253476	-0.631033
C99	C	0.703799	0.189236	-0.820288
C100	C	0.601472	0.253465	-0.884526
C101	C	1.306802	-0.189262	-0.441734
C102	C	1.409129	-0.253491	-0.377495
C103	C	1.306807	-0.000000	-0.441750
C104	C	1.409135	0.000004	-0.377516
C105	C	1.306810	-0.189270	-0.630994
C106	C	1.409139	-0.253502	-0.630988
C107	C	0.553409	-0.036994	-0.877710
C108	C	0.457274	-0.037012	-0.938058
C109	C	0.409191	-0.000062	-1.005201
C110	C	0.457257	0.036903	-1.011995
C111	C	0.553397	0.036917	-0.951647
C112	C	0.553409	0.320602	-0.667995
C113	C	0.457273	0.380961	-0.667998
C114	C	0.409185	0.374192	-0.631041
C115	C	0.457247	0.307059	-0.594074
C116	C	0.553388	0.246702	-0.594068
C117	C	0.553419	0.246669	-0.951654
C118	C	0.457285	0.307014	-1.012019
C119	C	0.409200	0.374153	-1.005255
C120	C	0.457263	0.380948	-0.938120
C121	C	0.553401	0.320604	-0.877757
C122	C	1.457194	-0.246695	-0.310367
C123	C	1.553357	-0.307039	-0.250002
C124	C	1.601447	-0.374179	-0.256766
C125	C	1.553379	-0.380974	-0.323901
C126	C	1.457223	-0.320630	-0.384264
C127	C	1.457202	0.036962	-0.384311
C128	C	1.553364	0.036963	-0.323963
C129	C	1.601450	0.000011	-0.256820
C130	C	1.553379	-0.036951	-0.250026
C131	C	1.457226	-0.036956	-0.310374
C132	C	1.457197	-0.246711	-0.667952
C133	C	1.553333	-0.307058	-0.667961
C134	C	1.601417	-0.374195	-0.631001
C135	C	1.553350	-0.380985	-0.594036
C136	C	1.457209	-0.320639	-0.594032
H137	H	0.592529	-0.141010	-0.771950
H138	H	0.418059	0.140992	-0.490077
H139	H	1.218936	-0.067063	0.176942
N140	N	0.405362	-0.150770	-0.781714
H141	H	0.450403	-0.174190	-0.805125
H142	H	0.422092	-0.187918	-0.747771
N143	N	0.817802	0.621561	-0.759697
H144	H	0.760652	0.611223	-0.798916
H145	H	0.762404	0.663986	-0.751317
H146	H	1.592546	-0.067037	-0.195350
N147	N	0.405376	0.453367	-0.930837
H148	H	0.365469	0.459027	-0.904185
H149	H	0.478772	0.458993	-0.904199
H150	H	0.841609	0.112294	-0.127643
N151	N	0.305472	0.439296	-0.631064
H152	H	0.282290	0.424828	-0.602047
H153	H	0.339014	0.468319	-0.610055
H154	H	0.791654	0.067034	0.042825
N155	N	1.705138	0.000034	-0.191735
H156	H	1.728310	-0.028979	-0.148166
H157	H	1.784848	-0.020976	-0.191774
N158	N	1.605180	-0.299722	-0.707821
H159	H	1.673378	-0.348135	-0.702222
H160	H	1.531744	-0.273026	-0.759504
H161	H	1.679702	-0.423328	-0.631010
H162	H	1.168976	-0.112326	-0.134382
H163	H	0.841626	0.112303	-0.237133
H164	H	0.330846	-0.073932	-0.704917
N165	N	1.405368	0.076816	-0.456722
H166	H	1.422099	0.042916	-0.483405
H167	H	1.308870	0.114010	-0.483361
N168	N	1.605218	-0.453400	-0.554174
H169	H	1.673418	-0.490593	-0.559788
H170	H	1.645051	-0.458993	-0.502488
N171	N	1.405382	-0.327969	-0.554161
H172	H	1.450440	-0.379659	-0.530749
H173	H	1.422125	-0.304544	-0.517003
H174	H	1.418092	-0.067050	-0.304831
N175	N	1.605245	-0.453389	-0.331193
H176	H	1.701760	-0.480072	-0.307795
H177	H	1.588423	-0.480012	-0.307798
N178	N	1.250060	-0.076813	-0.177616
H179	H	1.232195	-0.071210	-0.140411
H180	H	1.301488	-0.128495	-0.172024
N181	N	0.760533	0.700226	-0.707838
H182	H	0.755267	0.676831	-0.673950
H183	H	0.686015	0.751925	-0.731251
H184	H	1.418044	-0.192032	-0.304846
N185	N	0.760538	0.076808	-0.456714
H186	H	0.755289	0.042913	-0.483403
H187	H	0.686011	0.100216	-0.451797
H188	H	0.418153	0.435617	-0.698103
H189	H	1.168962	0.503366	-0.518689
N190	N	0.605224	0.174315	-0.554161
H191	H	0.531871	0.168659	-0.573528
H192	H	0.673468	0.137126	-0.559746
H193	H	0.418094	0.066986	-1.066671
H194	H	0.592513	0.067021	-0.957190
H195	H	0.679752	-0.073958	-0.704912
N196	N	0.405456	0.299676	-1.084422
H197	H	0.450501	0.247986	-1.079541
H198	H	0.308937	0.323106	-1.111079
H199	H	0.330843	0.073931	-0.557115
H200	H	1.418090	-0.326172	-0.438921
N201	N	0.760534	0.076799	-0.084416
H202	H	0.755281	0.042903	-0.111103
H203	H	0.686011	0.100210	-0.079496
H204	H	1.592478	-0.301493	-0.195345
N205	N	1.605210	0.076826	-0.331294
H206	H	1.531858	0.128527	-0.357954
H207	H	1.673445	0.071161	-0.282853
N208	N	0.605210	0.150762	-0.480312
H209	H	0.645092	0.131387	-0.428609
H210	H	0.673366	0.145142	-0.485972
H211	H	0.418150	-0.067113	-0.932512
N212	N	0.705152	0.073918	-0.557110
H213	H	0.784939	0.023867	-0.536069
H214	H	0.671578	0.094975	-0.607183
N215	N	1.250085	0.174310	-0.554230
H216	H	1.301592	0.168645	-0.502526
H217	H	1.232150	0.137133	-0.559891
N218	N	1.405331	-0.174304	-0.707831
H219	H	1.337129	-0.137098	-0.702227
H220	H	1.478756	-0.168707	-0.688437
H221	H	0.418079	0.301558	-0.563985
N222	N	0.817796	0.496106	-0.759701
H223	H	0.726887	0.535137	-0.775693
H224	H	0.829937	0.502812	-0.797796
H225	H	0.330906	-0.000078	-1.054334
N226	N	1.250058	0.299756	-0.554201
H227	H	1.324660	0.248071	-0.530790
H228	H	1.255176	0.323194	-0.588139
N229	N	1.192802	0.378406	-0.502338
H230	H	1.249947	0.388742	-0.463113
H231	H	1.145246	0.368287	-0.488576
H232	H	1.218941	0.564345	-0.563947
H233	H	0.791666	0.435630	-0.698076
H234	H	1.218935	0.673838	-0.563930
H235	H	0.791653	0.807931	-0.698045
H236	H	0.592556	0.192006	-0.957174
N237	N	0.760539	0.327921	-0.707858
H238	H	0.685940	0.379606	-0.731273
H239	H	0.755425	0.304494	-0.745014
H240	H	0.791653	0.067036	-0.329473
H241	H	1.218938	-0.067061	0.067449
H242	H	1.168956	-0.112332	-0.024900
N243	N	1.250058	-0.076810	-0.303065
H244	H	1.324657	-0.100222	-0.251376
H245	H	1.255180	-0.113963	-0.326494
H246	H	0.592557	-0.067092	-0.823044
H247	H	0.592552	0.326127	-0.698090
H248	H	0.330918	0.423283	-1.054413
N249	N	0.605220	0.327939	-0.805356
H250	H	0.560160	0.379630	-0.810238
H251	H	0.588471	0.304517	-0.778706
N252	N	1.705156	-0.439261	-0.191657
H253	H	1.728298	-0.424762	-0.148107
H254	H	1.671625	-0.468285	-0.191683
