data_functionalizedCrystal
_audit_creation_method	'MofGen! by Chris Wilmer'
_symmetry_space_group_name_H-M	'P1'
_symmetry_Int_Tables_number	1
_symmetry_cell_setting	triclinic
loop_
_symmetry_equiv_pos_as_xyz
  x,y,z
_cell_length_a	9.065215
_cell_length_b	10.489716
_cell_length_c	8.140239
_cell_angle_alpha	90.000891
_cell_angle_beta	89.997013
_cell_angle_gamma	84.771917
loop_
_atom_site_label
_atom_site_type_symbol
_atom_site_fract_x
_atom_site_fract_y
_atom_site_fract_z
O1	O	1.959479	0.187026	-0.136578
O2	O	2.459479	0.687026	0.363422
O3	O	1.530118	0.202372	-0.136584
O4	O	2.030118	0.702372	0.363416
O5	O	1.754588	0.009135	-0.136586
O6	O	2.254588	0.509135	0.363414
O7	O	1.735010	0.380264	-0.136575
O8	O	2.235010	0.880264	0.363425
O9	O	1.754572	0.009134	0.136641
O10	O	2.254572	0.509134	0.636641
O11	O	1.530102	0.202372	0.136643
O12	O	2.030102	0.702372	0.636643
O13	O	1.959463	0.187026	0.136649
O14	O	2.459463	0.687026	0.636649
Zn15	Zn	1.744780	0.194699	0.180027
Zn16	Zn	2.244780	0.694699	0.680027
Zn17	Zn	1.744801	0.194699	-0.179961
Zn18	Zn	2.244801	0.694699	0.320039
O19	O	1.734994	0.380263	0.136652
O20	O	2.234994	0.880263	0.636652
C21	C	1.475131	0.200898	0.000029
C22	C	1.975131	0.700898	0.500029
C23	C	1.311310	0.196491	0.000026
C24	C	1.811310	0.696491	0.500026
C25	C	1.753109	-0.038403	0.000022
C26	C	2.253109	0.461597	0.500022
C27	C	1.748708	-0.180050	0.000007
C28	C	2.248708	0.319950	0.500007
C29	C	1.886359	-0.277228	0.000024
C30	C	2.386359	0.222772	0.500024
C31	C	1.813629	-0.354850	-0.134688
C32	C	2.313629	0.145150	0.365312
C33	C	1.813581	-0.354815	0.134692
C34	C	2.313581	0.145185	0.634692
C35	C	1.676035	-0.255807	-0.134816
C36	C	2.176035	0.244193	0.365184
C37	C	1.676008	-0.255766	0.134685
C38	C	2.176008	0.244234	0.634685
C39	C	1.603176	-0.333340	-0.000060
C40	C	2.103176	0.166660	0.499940
C41	C	2.014451	0.188500	0.000033
C42	C	2.514451	0.688500	0.500033
C43	C	2.178272	0.192907	0.000025
C44	C	2.678272	0.692907	0.500025
C45	C	1.736473	0.427801	0.000040
C46	C	2.236473	0.927801	0.500040
C47	C	1.740874	0.569448	0.000044
C48	C	2.240874	1.069448	0.500044
N49	N	1.744777	0.194697	0.425710
N50	N	2.244777	0.694697	0.925710
N51	N	1.744804	0.194697	0.574356
N52	N	2.244804	0.694697	1.074356
H53	H	2.006093	-0.252120	-0.000111
H54	H	2.506093	0.247880	0.499889
H55	H	1.871744	-0.398136	-0.248578
H56	H	2.371744	0.101864	0.251422
H57	H	1.617965	-0.212712	-0.248831
H58	H	2.117965	0.287288	0.251169
F59	F	1.889558	-0.411361	0.283552
F60	F	2.389558	0.088639	0.783552
F61	F	1.446560	-0.365840	-0.000152
F62	F	1.946560	0.134160	0.499848
F63	F	1.600137	-0.199132	0.283555
F64	F	2.100137	0.300868	0.783555
