data_functionalizedCrystal
_audit_creation_method	'MofGen! by Chris Wilmer'
_symmetry_space_group_name_H-M	'P1'
_symmetry_Int_Tables_number	1
_symmetry_cell_setting	triclinic
loop_
_symmetry_equiv_pos_as_xyz
  x,y,z
_cell_length_a	16.109301
_cell_length_b	14.586319
_cell_length_c	16.109295
_cell_angle_alpha	90.000675
_cell_angle_beta	96.539666
_cell_angle_gamma	89.999213
loop_
_atom_site_label
_atom_site_type_symbol
_atom_site_fract_x
_atom_site_fract_y
_atom_site_fract_z
O1	O	1.103129	-0.076176	-0.106866
O2	O	1.603129	0.423824	0.393134
O3	O	0.861066	-0.076190	-0.120166
O4	O	1.361066	0.423810	0.379834
O5	O	0.988750	-0.076184	0.007515
O6	O	1.488750	0.423816	0.507515
O7	O	0.975445	-0.076182	-0.234547
O8	O	1.475445	0.423818	0.265453
O9	O	0.988741	0.076297	0.007517
O10	O	1.488741	0.576297	0.507517
O11	O	0.861058	0.076291	-0.120164
O12	O	1.361058	0.576291	0.379836
O13	O	1.103120	0.076305	-0.106864
O14	O	1.603120	0.576305	0.393136
Cu15	Cu	0.982088	0.090221	-0.113514
Cu16	Cu	1.482088	0.590221	0.386486
Cu17	Cu	0.982098	-0.090106	-0.113516
Cu18	Cu	1.482098	0.409894	0.386484
O19	O	0.975437	0.076299	-0.234545
O20	O	1.475437	0.576299	0.265455
C21	C	0.830087	0.000049	-0.119626
C22	C	1.330087	0.500049	0.380374
C23	C	0.737792	0.000043	-0.118011
C24	C	1.237792	0.500043	0.381989
N25	N	0.982087	0.217052	-0.113512
N26	N	1.482087	0.717052	0.386488
N27	N	0.982106	-0.216937	-0.113512
N28	N	1.482106	0.283063	0.386488
C29	C	0.515518	0.000054	-0.190019
C30	C	1.015518	0.500054	0.309981
C31	C	0.428798	0.000060	-0.188495
C32	C	0.928798	0.500060	0.311505
C33	C	0.448675	0.000055	-0.037006
C34	C	0.948675	0.500055	0.462994
C35	C	0.535394	0.000056	-0.038531
C36	C	1.035394	0.500056	0.461469
C37	C	0.568813	0.000051	-0.115040
C38	C	1.068813	0.500051	0.384960
C39	C	0.395374	0.000056	-0.111991
C40	C	0.895374	0.500056	0.388009
C41	C	0.301348	0.000062	-0.110338
C42	C	0.801348	0.500062	0.389662
C43	C	0.662845	0.000046	-0.116693
C44	C	1.162845	0.500046	0.383307
C45	C	1.134099	0.000064	-0.107404
C46	C	1.634099	0.500064	0.392596
C47	C	1.226394	0.000064	-0.109019
C48	C	1.726394	0.500064	0.390981
C49	C	0.988207	0.000054	0.038491
C50	C	1.488207	0.500054	0.538491
C51	C	0.986594	0.000048	0.130787
C52	C	1.486594	0.500048	0.630787
C53	C	1.038643	0.452062	-0.056994
C54	C	1.538643	0.952062	0.443006
C55	C	1.038646	0.548043	-0.056992
C56	C	1.538646	1.048043	0.443008
C57	C	0.925543	0.548047	-0.170033
C58	C	1.425543	1.048047	0.329967
C59	C	0.925538	0.452067	-0.170030
C60	C	1.425538	0.952067	0.329970
C61	C	0.982092	0.404077	-0.113512
C62	C	1.482092	0.904077	0.386488
C63	C	0.982100	0.596038	-0.113512
C64	C	1.482100	1.096038	0.386488
C65	C	0.982103	0.700105	-0.113510
C66	C	1.482103	1.200105	0.386490
C67	C	0.982089	0.300003	-0.113512
C68	C	1.482089	0.800003	0.386488
C69	C	1.058606	0.000018	0.353060
C70	C	1.558606	0.500018	0.853060
C71	C	1.057084	0.000003	0.439780
C72	C	1.557084	0.500003	0.939780
C73	C	0.905595	-0.000001	0.419906
C74	C	1.405595	0.499999	0.919906
C75	C	0.907118	0.000007	0.333187
C76	C	1.407118	0.500007	0.833187
C77	C	0.983626	0.000022	0.299766
C78	C	1.483626	0.500022	0.799766
C79	C	0.980580	-0.000002	0.473206
C80	C	1.480580	0.499998	0.973206
C81	C	0.978929	-0.000019	0.567232
C82	C	1.478929	0.499981	1.067232
C83	C	0.985277	0.000037	0.205734
C84	C	1.485277	0.500037	0.705734
C85	C	0.975984	0.000037	0.734479
C86	C	1.475984	0.500037	1.234479
C87	C	0.977612	-0.000028	0.642186
C88	C	1.477612	0.499972	1.142186
H89	H	0.385408	0.000065	-0.249551
H90	H	0.885408	0.500065	0.250449
H91	H	1.120904	0.000028	0.325852
H92	H	1.620904	0.500028	0.825852
H93	H	0.843304	-0.000011	0.447128
H94	H	1.343304	0.499989	0.947128
O95	O	0.587254	-0.000072	0.034254
O96	O	1.087254	0.499928	0.534254
C97	C	0.696668	-0.079098	0.120465
C98	C	1.196668	0.420902	0.620465
C99	C	0.637999	-0.079060	0.038002
C100	C	1.137999	0.420940	0.538002
H101	H	0.737698	-0.142962	0.123530
H102	H	1.237698	0.357038	0.623530
H103	H	0.737821	-0.015327	0.123550
H104	H	1.237821	0.484673	0.623550
H105	H	0.657870	-0.079057	0.175395
H106	H	1.157870	0.420943	0.675395
H107	H	0.676731	-0.079133	-0.016975
H108	H	1.176731	0.420867	0.483025
H109	H	0.596843	-0.142825	0.034990
H110	H	1.096843	0.357175	0.534990
O111	O	1.129898	-0.000162	0.491582
O112	O	1.629898	0.499838	0.991582
C113	C	1.216081	-0.079143	0.601045
C114	C	1.716081	0.420857	1.101045
C115	C	1.133594	-0.079079	0.542414
C116	C	1.633594	0.420921	1.042414
H117	H	1.219088	-0.142930	0.642169
H118	H	1.719088	0.357070	1.142169
H119	H	1.271053	-0.079192	0.562299
H120	H	1.771053	0.420808	1.062299
H121	H	1.219144	-0.015308	0.642112
H122	H	1.719144	0.484692	1.142112
H123	H	1.130449	-0.142903	0.501335
H124	H	1.630449	0.357097	1.001335
H125	H	1.078661	-0.078982	0.581210
H126	H	1.578661	0.421018	1.081210
H127	H	0.542724	0.000057	-0.252317
H128	H	1.042724	0.500057	0.247683
O129	O	0.416251	0.000212	0.037333
O130	O	0.916251	0.500212	0.537333
C131	C	0.406747	0.079164	0.167306
C132	C	0.906747	0.579164	0.667306
C133	C	0.443503	0.079117	0.083137
C134	C	0.943503	0.579117	0.583137
H135	H	0.428780	0.142942	0.204370
H136	H	0.928780	0.642942	0.704370
H137	H	0.335608	0.079219	0.155569
H138	H	0.835608	0.579219	0.655569
H139	H	0.428689	0.015320	0.204316
H140	H	0.928689	0.515320	0.704316
H141	H	0.421625	0.142951	0.046084
H142	H	0.921625	0.642951	0.546084
H143	H	0.514638	0.079015	0.094933
H144	H	1.014638	0.579015	0.594933
H145	H	1.084692	0.412990	-0.010972
H146	H	1.584692	0.912990	0.489028
O147	O	1.093661	0.594512	-0.002061
O148	O	1.593661	1.094512	0.497939
C149	C	1.205811	0.584373	0.110092
C150	C	1.705811	1.084373	0.610092
C151	C	1.143563	0.531633	0.047911
C152	C	1.643563	1.031633	0.547911
H153	H	1.246161	0.533558	0.150521
H154	H	1.746161	1.033558	0.650521
H155	H	1.247391	0.629280	0.074227
H156	H	1.747391	1.129280	0.574227
H157	H	1.169918	0.629335	0.151601
H158	H	1.669918	1.129335	0.651601
H159	H	1.179388	0.486621	0.006386
H160	H	1.679388	0.986621	0.506386
H161	H	1.101984	0.486784	0.083827
H162	H	1.601984	0.986784	0.583827
H163	H	0.879483	0.412996	-0.216054
H164	H	1.379483	0.912996	0.283946
H165	H	0.846056	0.000008	0.289793
H166	H	1.346056	0.500008	0.789793
O167	O	0.870695	0.594808	-0.224906
O168	O	1.370695	1.094808	0.275094
C169	C	0.820548	0.742671	-0.274980
C170	C	1.320548	1.242671	0.225020
C171	C	0.882720	0.689832	-0.212801
C172	C	1.382720	1.189832	0.287199
H173	H	0.830237	0.819507	-0.265204
H174	H	1.330237	1.319507	0.234796
H175	H	0.831361	0.723862	-0.341593
H176	H	1.331361	1.223862	0.158407
H177	H	0.753970	0.723754	-0.264137
H178	H	1.253970	1.223754	0.235863
H179	H	0.949322	0.708721	-0.223568
H180	H	1.449322	1.208721	0.276432
H181	H	0.871835	0.708646	-0.146210
H182	H	1.371835	1.208646	0.353790
