data_functionalizedCrystal
_audit_creation_method	'MofGen! by Chris Wilmer'
_symmetry_space_group_name_H-M	'P1'
_symmetry_Int_Tables_number	1
_symmetry_cell_setting	triclinic
loop_
_symmetry_equiv_pos_as_xyz
  x,y,z
_cell_length_a	27.732025
_cell_length_b	27.732048
_cell_length_c	26.809956
_cell_angle_alpha	89.996742
_cell_angle_beta	89.981157
_cell_angle_gamma	97.361939
loop_
_atom_site_label
_atom_site_type_symbol
_atom_site_fract_x
_atom_site_fract_y
_atom_site_fract_z
O1	O	0.057511	-0.640926	0.041400
O2	O	0.390844	-0.307593	0.374734
O3	O	0.724177	0.025740	0.708067
O4	O	0.066256	-0.500132	0.041413
O5	O	0.399590	-0.166799	0.374747
O6	O	0.732923	0.166535	0.708080
O7	O	-0.008514	-0.574908	0.041422
O8	O	0.324819	-0.241574	0.374755
O9	O	0.658153	0.091759	0.708088
O10	O	0.132281	-0.566151	0.041392
O11	O	0.465614	-0.232817	0.374725
O12	O	0.798948	0.100516	0.708059
O13	O	-0.008503	-0.574894	-0.041538
O14	O	0.324831	-0.241560	0.291796
O15	O	0.658164	0.091773	0.625129
O16	O	0.066268	-0.500118	-0.041546
O17	O	0.399601	-0.166785	0.291787
O18	O	0.732934	0.166549	0.625121
O19	O	0.057522	-0.640912	-0.041559
O20	O	0.390856	-0.307579	0.291774
O21	O	0.724189	0.025754	0.625108
Zn22	Zn	0.061897	-0.570513	-0.054724
Zn23	Zn	0.395230	-0.237180	0.278609
Zn24	Zn	0.728563	0.096154	0.611943
Zn25	Zn	0.061882	-0.570531	0.054578
Zn26	Zn	0.395215	-0.237198	0.387912
Zn27	Zn	0.728548	0.096135	0.721245
O28	O	0.132293	-0.566137	-0.041567
O29	O	0.465626	-0.232803	0.291766
O30	O	0.798959	0.100530	0.625099
C31	C	0.066079	-0.482118	-0.000064
C32	C	0.399412	-0.148785	0.333269
C33	C	0.732745	0.184548	0.666602
C34	C	0.065526	-0.428463	-0.000059
C35	C	0.398859	-0.095130	0.333275
C36	C	0.732192	0.238203	0.666608
C37	C	-0.026515	-0.574719	-0.000053
C38	C	0.306818	-0.241385	0.333280
C39	C	0.640151	0.091948	0.666614
C40	C	-0.080171	-0.574170	-0.000038
C41	C	0.253163	-0.240837	0.333295
C42	C	0.586496	0.092497	0.666628
C43	C	0.057700	-0.658926	-0.000080
C44	C	0.391033	-0.325593	0.333253
C45	C	0.724367	0.007740	0.666587
C46	C	0.058253	-0.712581	-0.000083
C47	C	0.391586	-0.379248	0.333251
C48	C	0.724920	-0.045914	0.666584
C49	C	-0.463343	-0.570281	0.045154
C50	C	-0.130009	-0.236948	0.378487
C51	C	0.203324	0.096386	0.711821
C52	C	-0.261683	-0.572334	0.045170
C53	C	0.071650	-0.239000	0.378503
C54	C	0.404984	0.094333	0.711837
O55	O	-0.235621	-0.572625	0.083630
O56	O	0.097712	-0.239292	0.416963
O57	O	0.431046	0.094042	0.750297
N58	N	-0.236456	-0.572582	-0.000050
N59	N	0.096878	-0.239249	0.333284
N60	N	0.430211	0.094084	0.666617
C61	C	-0.261647	-0.572321	-0.045277
C62	C	0.071687	-0.238988	0.288057
C63	C	0.405020	0.094345	0.621390
O64	O	-0.235563	-0.572585	-0.083739
O65	O	0.097771	-0.239252	0.249595
O66	O	0.431104	0.094081	0.582928
C67	C	-0.463306	-0.570272	-0.045292
C68	C	-0.129972	-0.236939	0.288041
C69	C	0.203361	0.096394	0.621375
C70	C	-0.488530	-0.570019	-0.000069
C71	C	-0.155196	-0.236685	0.333264
C72	C	0.178137	0.096648	0.666597
C73	C	-0.488567	-0.570028	0.090373
C74	C	-0.155233	-0.236694	0.423707
C75	C	0.178100	0.096639	0.757040
C76	C	-0.538978	-0.569512	0.090369
C77	C	-0.205645	-0.236179	0.423702
C78	C	0.127688	0.097155	0.757035
C79	C	-0.564165	-0.569250	0.045145
C80	C	-0.230832	-0.235916	0.378479
C81	C	0.102501	0.097417	0.711812
C82	C	-0.538941	-0.569503	-0.000074
C83	C	-0.205608	-0.236169	0.333260
C84	C	0.127725	0.097164	0.666593
C85	C	-0.488496	-0.570015	-0.090518
C86	C	-0.155163	-0.236681	0.242815
C87	C	0.178171	0.096652	0.576148
C88	C	-0.538914	-0.569504	-0.090518
C89	C	-0.205581	-0.236170	0.242815
C90	C	0.127752	0.097163	0.576148
C91	C	-0.564138	-0.569250	-0.045296
C92	C	-0.230805	-0.235917	0.288038
C93	C	0.102528	0.097417	0.621371
C94	C	-0.614540	-0.568725	-0.045302
C95	C	-0.281207	-0.235391	0.288032
C96	C	0.052127	0.097942	0.621365
N97	N	-0.639767	-0.568476	-0.000082
N98	N	-0.306434	-0.235142	0.333251
N99	N	0.026899	0.098191	0.666585
C100	C	-0.614580	-0.568738	0.045142
C101	C	-0.281247	-0.235405	0.378475
C102	C	0.052087	0.097929	0.711808
C103	C	-0.155773	-0.573396	-0.045265
C104	C	0.177561	-0.240063	0.288068
C105	C	0.510894	0.093270	0.621401
C106	C	-0.105358	-0.573908	-0.045262
C107	C	0.227975	-0.240574	0.288072
C108	C	0.561309	0.092759	0.621405
C109	C	-0.105398	-0.573921	0.045185
C110	C	0.227935	-0.240587	0.378519
C111	C	0.561269	0.092746	0.711852
C112	C	-0.155813	-0.573406	0.045181
C113	C	0.177520	-0.240072	0.378514
C114	C	0.510853	0.093261	0.711848
C115	C	-0.181000	-0.573147	-0.000046
C116	C	0.152333	-0.239814	0.333288
C117	C	0.485667	0.093519	0.666621
C118	C	-0.720448	-0.567655	0.045129
C119	C	-0.387114	-0.234321	0.378462
C120	C	-0.053781	0.099012	0.711796
C121	C	-0.770863	-0.567137	0.045120
C122	C	-0.437530	-0.233803	0.378454
C123	C	-0.104197	0.099530	0.711787
C124	C	-0.770819	-0.567126	-0.045326
C125	C	-0.437486	-0.233793	0.288007
C126	C	-0.104153	0.099540	0.621341
C127	C	-0.720408	-0.567642	-0.045318
C128	C	-0.387074	-0.234308	0.288015
C129	C	-0.053741	0.099025	0.621349
C130	C	-0.695223	-0.567907	-0.000086
C131	C	-0.361890	-0.234574	0.333247
C132	C	-0.028557	0.098759	0.666580
O133	O	-0.640634	-0.568438	-0.083741
O134	O	-0.307301	-0.235105	0.249592
O135	O	0.026033	0.098228	0.582925
O136	O	-0.640674	-0.568485	0.083598
O137	O	-0.307341	-0.235152	0.416931
O138	O	0.025992	0.098182	0.750264
C139	C	-0.412931	-0.570797	0.045159
C140	C	-0.079598	-0.237463	0.378492
C141	C	0.253736	0.095870	0.711825
C142	C	-0.387707	-0.571050	-0.000060
C143	C	-0.054373	-0.237717	0.333273
C144	C	0.278960	0.095617	0.666606
C145	C	-0.412894	-0.570788	-0.045284
C146	C	-0.079561	-0.237454	0.288049
C147	C	0.253773	0.095879	0.621383
C148	C	-0.337292	-0.571561	-0.000057
C149	C	-0.003959	-0.238228	0.333277
C150	C	0.329374	0.095105	0.666610
C151	C	-0.312105	-0.571824	0.045167
C152	C	0.021228	-0.238491	0.378500
C153	C	0.354562	0.094843	0.711833
C154	C	-0.337332	-0.571575	0.090386
C155	C	-0.003999	-0.238242	0.423720
C156	C	0.329334	0.095092	0.757053
C157	C	-0.387744	-0.571059	0.090382
C158	C	-0.054411	-0.237726	0.423715
C159	C	0.278923	0.095607	0.757049
C160	C	-0.387667	-0.571036	-0.090504
C161	C	-0.054333	-0.237703	0.242830
C162	C	0.279000	0.095630	0.576163
C163	C	-0.337255	-0.571552	-0.090496
C164	C	-0.003922	-0.238218	0.242838
C165	C	0.329412	0.095115	0.576171
C166	C	-0.312068	-0.571814	-0.045272
C167	C	0.021266	-0.238481	0.288061
C168	C	0.354599	0.094853	0.621395
C169	C	0.150294	-0.566326	-0.000091
C170	C	0.483627	-0.232993	0.333242
C171	C	0.816961	0.100341	0.666575
C172	C	0.203949	-0.566874	-0.000103
C173	C	0.537283	-0.233541	0.333230
C174	C	0.870616	0.099792	0.666564
C175	C	0.106230	-0.089645	-0.000089
C176	C	0.439563	0.243688	0.333245
C177	C	0.772897	0.577022	0.666578
C178	C	0.104179	0.112014	-0.000093
C179	C	0.437512	0.445348	0.333240
C180	C	0.770846	0.778681	0.666574
O181	O	0.141400	0.143273	-0.000122
O182	O	0.474733	0.476606	0.333211
O183	O	0.808067	0.809940	0.666544
N184	N	0.059843	0.131135	-0.000083
N185	N	0.393177	0.464468	0.333251
N186	N	0.726510	0.797801	0.666584
C187	C	0.016017	0.099836	-0.000075
C188	C	0.349350	0.433170	0.333259
C189	C	0.682684	0.766503	0.666592
O190	O	-0.021740	0.120726	-0.000071
O191	O	0.311593	0.454060	0.333262
O192	O	0.644927	0.787393	0.666595
C193	C	0.018069	-0.101822	-0.000074
C194	C	0.351402	0.231511	0.333259
C195	C	0.684735	0.564845	0.666592
C196	C	0.062407	-0.120939	-0.000079
C197	C	0.395741	0.212394	0.333254
C198	C	0.729074	0.545727	0.666587
C199	C	0.150565	-0.108763	-0.000095
C200	C	0.483898	0.224571	0.333239
C201	C	0.817232	0.557904	0.666572
C202	C	0.151077	-0.159175	-0.000091
C203	C	0.484411	0.174159	0.333243
C204	C	0.817744	0.507492	0.666576
C205	C	0.107255	-0.190469	-0.000081
C206	C	0.440588	0.142865	0.333252
C207	C	0.773921	0.476198	0.666585
C208	C	0.062920	-0.171351	-0.000076
C209	C	0.396253	0.161982	0.333258
C210	C	0.729586	0.495316	0.666591
C211	C	-0.025757	-0.133119	-0.000070
C212	C	0.307576	0.200214	0.333263
C213	C	0.640910	0.533547	0.666597
C214	C	-0.025240	-0.183537	-0.000071
C215	C	0.308093	0.149797	0.333262
C216	C	0.641427	0.483130	0.666596
C217	C	0.019099	-0.202654	-0.000076
C218	C	0.352432	0.130680	0.333257
C219	C	0.685765	0.464013	0.666590
C220	C	0.019609	-0.253057	-0.000063
C221	C	0.352942	0.080276	0.333271
C222	C	0.686276	0.413609	0.666604
N223	N	0.063945	-0.272177	-0.000073
N224	N	0.397278	0.061156	0.333261
N225	N	0.730611	0.394489	0.666594
C226	C	0.107768	-0.240883	-0.000082
C227	C	0.441101	0.092450	0.333251
C228	C	0.774434	0.425783	0.666585
C229	C	0.014943	0.205710	-0.000074
C230	C	0.348277	0.539044	0.333259
C231	C	0.681610	0.872377	0.666593
C232	C	0.014430	0.256125	-0.000073
C233	C	0.347764	0.589458	0.333260
C234	C	0.681097	0.922791	0.666593
C235	C	0.102592	0.268299	-0.000092
C236	C	0.435926	0.601633	0.333241
C237	C	0.769259	0.934966	0.666574
C238	C	0.103105	0.217884	-0.000089
C239	C	0.436438	0.551217	0.333244
C240	C	0.769771	0.884551	0.666577
C241	C	0.059279	0.186590	-0.000084
C242	C	0.392612	0.519924	0.333249
C243	C	0.725946	0.853257	0.666582
C244	C	0.108840	-0.346752	-0.000074
C245	C	0.442173	-0.013419	0.333259
C246	C	0.775507	0.319914	0.666593
C247	C	0.109348	-0.397169	-0.000068
C248	C	0.442682	-0.063836	0.333265
C249	C	0.776015	0.269497	0.666599
C250	C	0.021187	-0.409339	-0.000052
C251	C	0.354520	-0.076006	0.333282
C252	C	0.687853	0.257327	0.666615
C253	C	0.020678	-0.358927	-0.000055
C254	C	0.354011	-0.025594	0.333278
C255	C	0.687345	0.307740	0.666612
C256	C	0.064509	-0.327634	-0.000068
C257	C	0.397842	0.005699	0.333266
C258	C	0.731175	0.339033	0.666599
O259	O	-0.017592	-0.284344	-0.000039
O260	O	0.315741	0.048989	0.333295
O261	O	0.649075	0.382322	0.666628
O262	O	0.145519	-0.261783	-0.000097
O263	O	0.478853	0.071551	0.333237
O264	O	0.812186	0.404884	0.666570
C265	C	0.105718	-0.039233	-0.000093
C266	C	0.439051	0.294100	0.333241
C267	C	0.772384	0.627434	0.666574
C268	C	0.061383	-0.020115	-0.000087
C269	C	0.394716	0.313218	0.333246
C270	C	0.728049	0.646551	0.666580
C271	C	0.017560	-0.051410	-0.000077
C272	C	0.350893	0.281924	0.333256
C273	C	0.684227	0.615257	0.666589
C274	C	0.060870	0.030299	-0.000086
C275	C	0.394203	0.363632	0.333247
C276	C	0.727536	0.696966	0.666581
C277	C	0.104692	0.061593	-0.000095
C278	C	0.438026	0.394927	0.333238
C279	C	0.771359	0.728260	0.666571
C280	C	0.149028	0.042473	-0.000106
C281	C	0.482361	0.375806	0.333228
C282	C	0.815695	0.709140	0.666561
C283	C	0.149540	-0.007939	-0.000102
C284	C	0.482874	0.325394	0.333231
C285	C	0.816207	0.658728	0.666565
C286	C	-0.026776	-0.032289	-0.000067
C287	C	0.306558	0.301044	0.333266
C288	C	0.639891	0.634377	0.666599
C289	C	-0.027284	0.018123	-0.000070
C290	C	0.306049	0.351456	0.333263
C291	C	0.639382	0.684790	0.666596
C292	C	0.016538	0.049417	-0.000080
C293	C	0.349872	0.382751	0.333254
C294	C	0.683205	0.716084	0.666587
N295	N	0.061907	-0.570504	-0.129320
N296	N	0.395240	-0.237170	0.204013
N297	N	0.728573	0.096163	0.537347
C298	C	0.028782	-0.603638	-0.473942
C299	C	0.362115	-0.270304	-0.140609
C300	C	0.695448	0.063029	0.192724
C301	C	0.028774	-0.603649	-0.682820
C302	C	0.362108	-0.270316	-0.349487
C303	C	0.695441	0.063017	-0.016153
O304	O	0.000613	-0.631801	-0.709821
O305	O	0.333946	-0.298468	-0.376487
O306	O	0.667280	0.034865	-0.043154
N307	N	0.061871	-0.570534	-0.708947
N308	N	0.395204	-0.237201	-0.375614
N309	N	0.728538	0.096132	-0.042280
C310	C	0.094970	-0.537412	-0.682852
C311	C	0.428303	-0.204078	-0.349518
C312	C	0.761637	0.129255	-0.016185
O313	O	0.123118	-0.509242	-0.709867
O314	O	0.456451	-0.175909	-0.376534
O315	O	0.789784	0.157424	-0.043200
C316	C	0.094975	-0.537398	-0.473975
C317	C	0.428308	-0.204065	-0.140641
C318	C	0.761642	0.129268	0.192692
C319	C	0.061879	-0.570519	-0.447850
C320	C	0.395212	-0.237186	-0.114517
C321	C	0.728546	0.096148	0.218816
C322	C	-0.004312	-0.636755	-0.447818
C323	C	0.329021	-0.303422	-0.114485
C324	C	0.662355	0.029911	0.218849
C325	C	-0.004308	-0.636754	-0.395602
C326	C	0.329025	-0.303421	-0.062268
C327	C	0.662359	0.029913	0.271065
C328	C	0.028790	-0.603635	-0.369510
C329	C	0.362123	-0.270302	-0.036176
C330	C	0.695456	0.063032	0.297157
C331	C	0.061883	-0.570517	-0.395634
C332	C	0.395216	-0.237184	-0.062301
C333	C	0.728550	0.096149	0.271033
C334	C	0.128071	-0.504274	-0.447880
C335	C	0.461405	-0.170941	-0.114547
C336	C	0.794738	0.162393	0.218786
C337	C	0.128069	-0.504273	-0.395658
C338	C	0.461402	-0.170939	-0.062324
C339	C	0.794735	0.162394	0.271009
C340	C	0.094973	-0.537393	-0.369533
C341	C	0.428306	-0.204060	-0.036200
C342	C	0.761640	0.129273	0.297133
C343	C	0.094984	-0.537397	-0.317326
C344	C	0.428318	-0.204064	0.016007
C345	C	0.761651	0.129270	0.349341
N346	N	0.061887	-0.570512	-0.291199
N347	N	0.395221	-0.237179	0.042134
N348	N	0.728554	0.096155	0.375468
C349	C	0.028790	-0.603631	-0.317291
C350	C	0.362123	-0.270298	0.016043
C351	C	0.695457	0.063036	0.349376
C352	C	0.094966	-0.537422	-0.792515
C353	C	0.428299	-0.204088	-0.459181
C354	C	0.761633	0.129245	-0.125848
C355	C	0.094965	-0.537426	-0.844734
C356	C	0.428299	-0.204092	-0.511400
C357	C	0.761632	0.129241	-0.178067
C358	C	0.028769	-0.603663	-0.844699
C359	C	0.362102	-0.270329	-0.511365
C360	C	0.695435	0.063004	-0.178032
C361	C	0.028772	-0.603661	-0.792479
C362	C	0.362105	-0.270327	-0.459145
C363	C	0.695439	0.063006	-0.125812
C364	C	0.061869	-0.570537	-0.766388
C365	C	0.395202	-0.237204	-0.433054
C366	C	0.728536	0.096130	-0.099721
C367	C	0.028801	-0.603626	-0.207633
C368	C	0.362134	-0.270292	0.125701
C369	C	0.695468	0.063041	0.459034
C370	C	0.028809	-0.603623	-0.155412
C371	C	0.362143	-0.270289	0.177921
C372	C	0.695476	0.063044	0.511255
C373	C	0.095004	-0.537384	-0.155452
C374	C	0.428337	-0.204051	0.177882
C375	C	0.761671	0.129283	0.511215
C376	C	0.094998	-0.537389	-0.207668
C377	C	0.428331	-0.204055	0.125665
C378	C	0.761664	0.129278	0.458999
C379	C	0.061892	-0.570511	-0.233757
C380	C	0.395226	-0.237178	0.099576
C381	C	0.728559	0.096155	0.432909
O382	O	0.123127	-0.509256	-0.290293
O383	O	0.456460	-0.175923	0.043040
O384	O	0.789794	0.157411	0.376374
O385	O	0.000640	-0.631789	-0.290266
O386	O	0.333973	-0.298456	0.043067
O387	O	0.667306	0.034877	0.376400
C388	C	0.028778	-0.603639	-0.526159
C389	C	0.362111	-0.270306	-0.192825
C390	C	0.695444	0.063027	0.140508
C391	C	0.061871	-0.570522	-0.552283
C392	C	0.395205	-0.237188	-0.218950
C393	C	0.728538	0.096145	0.114384
C394	C	0.094969	-0.537403	-0.526191
C395	C	0.428302	-0.204069	-0.192858
C396	C	0.761635	0.129264	0.140476
C397	C	0.061871	-0.570526	-0.604502
C398	C	0.395204	-0.237192	-0.271169
C399	C	0.728537	0.096141	0.062165
C400	C	0.028773	-0.603645	-0.630594
C401	C	0.362107	-0.270311	-0.297261
C402	C	0.695440	0.063022	0.036073
C403	C	-0.004324	-0.636760	-0.604467
C404	C	0.329010	-0.303426	-0.271133
C405	C	0.662343	0.029907	0.062200
C406	C	-0.004320	-0.636758	-0.552251
C407	C	0.329014	-0.303425	-0.218917
C408	C	0.662347	0.029908	0.114416
C409	C	0.128066	-0.504288	-0.552318
C410	C	0.461399	-0.170954	-0.218985
C411	C	0.794732	0.162379	0.114348
C412	C	0.128059	-0.504292	-0.604535
C413	C	0.461393	-0.170959	-0.271201
C414	C	0.794726	0.162374	0.062132
C415	C	0.094962	-0.537411	-0.630626
C416	C	0.428295	-0.204078	-0.297293
C417	C	0.761628	0.129256	0.036040
N418	N	0.061868	-0.570544	0.129174
N419	N	0.395201	-0.237211	0.462508
N420	N	0.728535	0.096122	0.795841
H421	H	-0.791398	-0.566928	0.081948
H422	H	-0.458065	-0.233595	0.415281
H423	H	-0.124732	0.099738	0.748614
N424	N	-0.694728	-0.567934	0.091331
N425	N	-0.361395	-0.234600	0.424664
N426	N	-0.028061	0.098733	0.757997
N427	N	-0.705085	-0.601966	0.121608
N428	N	-0.371751	-0.268633	0.454942
N429	N	-0.038418	0.064701	0.788275
H430	H	-0.686920	-0.602162	0.154238
H431	H	-0.353586	-0.268828	0.487572
H432	H	-0.020253	0.064505	0.820905
N433	N	-0.564733	-0.569253	0.136568
N434	N	-0.231399	-0.235920	0.469901
N435	N	0.101934	0.097413	0.803234
N436	N	-0.542230	-0.569489	0.176939
N437	N	-0.208897	-0.236156	0.510272
N438	N	0.124437	0.097178	0.843605
H439	H	-0.560416	-0.569308	0.209570
H440	H	-0.227083	-0.235974	0.542903
H441	H	0.106251	0.097359	0.876236
N442	N	-0.029827	0.173748	-0.000054
N443	N	0.303507	0.507081	0.333279
N444	N	0.636840	0.840414	0.666612
N445	N	-0.039383	0.144257	0.034919
N446	N	0.293950	0.477591	0.368252
N447	N	0.627284	0.810924	0.701586
H448	H	-0.071002	0.121685	0.034936
H449	H	0.262331	0.455018	0.368269
H450	H	0.595664	0.788352	0.701602
N451	N	-0.005051	-0.637480	-0.871359
N452	N	0.328283	-0.304147	-0.538026
N453	N	0.661616	0.029186	-0.204692
N454	N	-0.034947	-0.622357	-0.900483
N455	N	0.298387	-0.289023	-0.567150
N456	N	0.631720	0.044310	-0.233816
H457	H	-0.058836	-0.646235	-0.919313
H458	H	0.274497	-0.312901	-0.585979
H459	H	0.607831	0.020432	-0.252646
N460	N	0.161877	-0.470450	-0.525678
N461	N	0.495210	-0.137117	-0.192345
N462	N	0.828544	0.196216	0.140988
N463	N	0.191421	-0.440887	-0.549017
N464	N	0.524755	-0.107554	-0.215684
N465	N	0.858088	0.225780	0.117649
H466	H	0.215304	-0.416988	-0.530205
H467	H	0.548638	-0.083654	-0.196872
H468	H	0.881971	0.249679	0.136461
H469	H	-0.176275	-0.573186	-0.082096
H470	H	0.157058	-0.239853	0.251237
H471	H	0.490391	0.093481	0.584570
H472	H	0.184710	0.067962	-0.000111
H473	H	0.518043	0.401295	0.333222
H474	H	0.851377	0.734628	0.666555
N475	N	-0.071053	-0.113608	-0.000062
N476	N	0.262281	0.219725	0.333271
N477	N	0.595614	0.553058	0.666604
N478	N	-0.110172	-0.141564	-0.000057
N479	N	0.223161	0.191769	0.333276
N480	N	0.556494	0.525103	0.666610
H481	H	-0.142166	-0.127786	-0.000052
H482	H	0.191168	0.205547	0.333281
H483	H	0.524501	0.538881	0.666615
N484	N	-0.070009	-0.215501	-0.000054
N485	N	0.263324	0.117833	0.333280
N486	N	0.596658	0.451166	0.666613
N487	N	-0.079567	-0.244990	0.034921
N488	N	0.253766	0.088344	0.368254
N489	N	0.587099	0.421677	0.701587
H490	H	-0.111186	-0.267564	0.034935
H491	H	0.222148	0.065770	0.368268
H492	H	0.555481	0.399103	0.701602
N493	N	-0.071542	-0.064252	-0.000045
N494	N	0.261791	0.269081	0.333288
N495	N	0.595125	0.602415	0.666622
N496	N	-0.081097	-0.093739	0.034932
N497	N	0.252236	0.239595	0.368265
N498	N	0.585569	0.572928	0.701598
H499	H	-0.112716	-0.116311	0.034951
H500	H	0.220617	0.217022	0.368284
H501	H	0.553950	0.550355	0.701618
N502	N	-0.462852	-0.570299	0.136577
N503	N	-0.129518	-0.236966	0.469910
N504	N	0.203815	0.096368	0.803243
N505	N	-0.485389	-0.570074	0.176943
N506	N	-0.152056	-0.236741	0.510276
N507	N	0.181277	0.096592	0.843610
H508	H	-0.467231	-0.570263	0.209578
H509	H	-0.133898	-0.236930	0.542911
H510	H	0.199435	0.096404	0.876244
N511	N	0.128775	-0.503603	-0.871424
N512	N	0.462108	-0.170270	-0.538091
N513	N	0.795442	0.163063	-0.204757
N514	N	0.158677	-0.518710	-0.900571
N515	N	0.492010	-0.185377	-0.567238
N516	N	0.825344	0.147956	-0.233905
H517	H	0.182554	-0.494821	-0.919421
H518	H	0.515888	-0.161488	-0.586088
H519	H	0.849221	0.171845	-0.252754
H520	H	-0.015426	-0.343361	-0.000043
H521	H	0.317907	-0.010028	0.333290
H522	H	0.651241	0.323306	0.666623
H523	H	-0.084882	-0.574131	0.082008
H524	H	0.248452	-0.240798	0.415341
H525	H	0.581785	0.092536	0.748675
N526	N	-0.311591	-0.571839	0.136577
N527	N	0.021742	-0.238506	0.469911
N528	N	0.355076	0.094827	0.803244
N529	N	-0.266579	-0.572299	0.136568
N530	N	0.066755	-0.238965	0.469901
N531	N	0.400088	0.094368	0.803234
H532	H	-0.248396	-0.572487	0.169188
H533	H	0.084937	-0.239154	0.502521
H534	H	0.418270	0.094179	0.835854
N535	N	-0.462746	-0.570274	-0.136718
N536	N	-0.129413	-0.236940	0.196616
N537	N	0.203921	0.096393	0.529949
N538	N	-0.485251	-0.570044	-0.177088
N539	N	-0.151918	-0.236710	0.156245
N540	N	0.181416	0.096623	0.489579
H541	H	-0.467066	-0.570228	-0.209720
H542	H	-0.133733	-0.236894	0.123614
H543	H	0.199600	0.096439	0.456947
H544	H	-0.031270	-0.663728	-0.530984
H545	H	0.302064	-0.330395	-0.197650
H546	H	0.635397	0.002939	0.135683
N547	N	-0.181569	-0.573145	0.091379
N548	N	0.151764	-0.239812	0.424712
N549	N	0.485098	0.093521	0.758046
N550	N	-0.159068	-0.573377	0.131751
N551	N	0.174265	-0.240043	0.465085
N552	N	0.507599	0.093290	0.798418
H553	H	-0.177256	-0.573193	0.164381
H554	H	0.156078	-0.239860	0.497714
H555	H	0.489411	0.093473	0.831048
N556	N	0.194836	-0.027454	-0.000116
N557	N	0.528170	0.305880	0.333217
N558	N	0.861503	0.639213	0.666550
N559	N	0.224296	-0.017737	-0.035093
N560	N	0.557629	0.315596	0.298240
N561	N	0.890963	0.648930	0.631574
H562	H	0.256289	-0.031515	-0.035104
H563	H	0.589622	0.301818	0.298229
H564	H	0.922956	0.635151	0.631562
N565	N	-0.030861	0.275648	-0.000074
N566	N	0.302472	0.608981	0.333259
N567	N	0.635805	0.942315	0.666592
N568	N	-0.040979	0.302420	-0.035045
N569	N	0.292354	0.635753	0.298288
N570	N	0.625687	0.969086	0.631622
H571	H	-0.072968	0.316206	-0.035050
H572	H	0.260365	0.649540	0.298284
H573	H	0.593698	0.982873	0.631617
N574	N	-0.311484	-0.571805	-0.136689
N575	N	0.021849	-0.238472	0.196644
N576	N	0.355182	0.094862	0.529978
N577	N	-0.278638	-0.538008	-0.146781
N578	N	0.054696	-0.204674	0.186552
N579	N	0.388029	0.128659	0.519885
H580	H	-0.260438	-0.538190	-0.179404
H581	H	0.072895	-0.204856	0.153929
H582	H	0.406229	0.128477	0.487263
N583	N	0.153607	-0.314786	-0.000089
N584	N	0.486940	0.018548	0.333244
N585	N	0.820273	0.351881	0.666577
N586	N	0.163167	-0.285295	-0.035062
N587	N	0.496500	0.048039	0.298272
N588	N	0.829834	0.381372	0.631605
H589	H	0.194783	-0.262717	-0.035071
H590	H	0.528116	0.070616	0.298263
H591	H	0.861450	0.403949	0.631596
N592	N	-0.079601	-0.574156	-0.091460
N593	N	0.253732	-0.240822	0.241873
N594	N	0.587065	0.092511	0.575207
N595	N	-0.102102	-0.573921	-0.131833
N596	N	0.231231	-0.240587	0.201501
N597	N	0.564565	0.092746	0.534834
H598	H	-0.083913	-0.574098	-0.164462
H599	H	0.249420	-0.240764	0.168871
H600	H	0.582753	0.092569	0.502204
N601	N	-0.038120	-0.670588	-0.474470
N602	N	0.295214	-0.337254	-0.141137
N603	N	0.628547	-0.003921	0.192197
N604	N	-0.022996	-0.700480	-0.503611
N605	N	0.310337	-0.367146	-0.170278
N606	N	0.643670	-0.033813	0.163055
H607	H	-0.046874	-0.724375	-0.522434
H608	H	0.286459	-0.391042	-0.189100
H609	H	0.619792	-0.057708	0.144233
H610	H	-0.408169	-0.570824	-0.127331
H611	H	-0.074836	-0.237491	0.206002
H612	H	0.258498	0.095843	0.539336
H613	H	0.145456	-0.412731	-0.000072
H614	H	0.478789	-0.079398	0.333261
H615	H	0.812122	0.253935	0.666595
H616	H	-0.014493	-0.434828	-0.000042
H617	H	0.318841	-0.101495	0.333291
H618	H	0.652174	0.231839	0.666625
N619	N	-0.564634	-0.569241	-0.136722
N620	N	-0.231300	-0.235908	0.196611
N621	N	0.102033	0.097425	0.529944
N622	N	-0.542102	-0.569468	-0.177092
N623	N	-0.208769	-0.236134	0.156241
N624	N	0.124565	0.097199	0.489575
H625	H	-0.560265	-0.569281	-0.209724
H626	H	-0.226932	-0.235948	0.123609
H627	H	0.106402	0.097386	0.456943
N628	N	-0.694642	-0.567907	-0.091512
N629	N	-0.361308	-0.234574	0.241822
N630	N	-0.027975	0.098759	0.575155
N631	N	-0.671223	-0.602284	-0.101602
N632	N	-0.337889	-0.268951	0.231731
N633	N	-0.004556	0.064382	0.565064
H634	H	-0.653029	-0.602477	-0.134228
H635	H	-0.319696	-0.269144	0.199105
H636	H	0.013637	0.064190	0.532439
N637	N	-0.005010	-0.637448	-0.128731
N638	N	0.328323	-0.304115	0.204602
N639	N	0.661656	0.029219	0.537935
N640	N	-0.049686	-0.637116	-0.134549
N641	N	0.283647	-0.303783	0.198784
N642	N	0.616981	0.029550	0.532117
H643	H	-0.073573	-0.661002	-0.115707
H644	H	0.259760	-0.327668	0.217627
H645	H	0.593094	0.005665	0.550960
H646	H	0.121953	-0.510420	-0.134199
H647	H	0.455286	-0.177087	0.199134
H648	H	0.788620	0.156246	0.532467
H649	H	0.187182	-0.174735	-0.000095
H650	H	0.520516	0.158599	0.333239
H651	H	0.853849	0.491932	0.666572
N652	N	-0.005044	-0.637470	-0.765781
N653	N	0.328289	-0.304137	-0.432448
N654	N	0.661623	0.029196	-0.099115
N655	N	-0.034936	-0.622339	-0.736639
N656	N	0.298397	-0.289006	-0.403306
N657	N	0.631731	0.044327	-0.069972
H658	H	-0.058822	-0.646213	-0.717780
H659	H	0.274512	-0.312879	-0.384447
H660	H	0.607845	0.020454	-0.051114
H661	H	0.121919	-0.510447	-0.771275
H662	H	0.455252	-0.177114	-0.437942
H663	H	0.788585	0.156219	-0.104608
H664	H	-0.031271	-0.663728	-0.625719
H665	H	0.302062	-0.330395	-0.292386
H666	H	0.635395	0.002938	0.040947
N667	N	-0.072579	0.037646	-0.000077
N668	N	0.260754	0.370979	0.333256
N669	N	0.594087	0.704312	0.666590
N670	N	-0.082695	0.064413	-0.035052
N671	N	0.250639	0.397746	0.298281
N672	N	0.583972	0.731080	0.631614
H673	H	-0.114684	0.078200	-0.035062
H674	H	0.218650	0.411533	0.298271
H675	H	0.551983	0.744866	0.631604
H676	H	0.001843	-0.630597	-0.228869
H677	H	0.335176	-0.297263	0.104464
H678	H	0.668510	0.036070	0.437798
N679	N	-0.796553	-0.566849	-0.091518
N680	N	-0.463219	-0.233516	0.241815
N681	N	-0.129886	0.099818	0.575149
N682	N	-0.819972	-0.532475	-0.101607
N683	N	-0.486639	-0.199141	0.231726
N684	N	-0.153306	0.134192	0.565060
H685	H	-0.838149	-0.532281	-0.134230
H686	H	-0.504815	-0.198947	0.199103
H687	H	-0.171482	0.134386	0.532436
N688	N	-0.413498	-0.570798	0.136581
N689	N	-0.080165	-0.237465	0.469914
N690	N	0.253169	0.095868	0.803248
N691	N	-0.390995	-0.571032	0.176952
N692	N	-0.057662	-0.237699	0.510285
N693	N	0.275672	0.095634	0.843619
H694	H	-0.409181	-0.570848	0.209583
H695	H	-0.075847	-0.237515	0.542916
H696	H	0.257486	0.095818	0.876250
N697	N	0.195337	-0.076808	-0.000107
N698	N	0.528671	0.256525	0.333226
N699	N	0.862004	0.589859	0.666559
N700	N	0.234915	-0.093894	-0.000114
N701	N	0.568248	0.239439	0.333219
N702	N	0.901581	0.572773	0.666552
H703	H	0.266539	-0.071329	-0.000120
H704	H	0.599872	0.262004	0.333213
H705	H	0.933205	0.595338	0.666546
H706	H	0.139209	0.202323	-0.000096
H707	H	0.472542	0.535656	0.333237
H708	H	0.805876	0.868989	0.666570
H709	H	-0.031259	-0.663722	-0.374334
H710	H	0.302075	-0.330389	-0.041001
H711	H	0.635408	0.002945	0.292332
N712	N	0.161885	-0.470441	-0.474549
N713	N	0.495218	-0.137108	-0.141216
N714	N	0.828552	0.196225	0.192118
N715	N	0.191430	-0.440876	-0.451237
N716	N	0.524763	-0.107542	-0.117903
N717	N	0.858096	0.225791	0.215430
H718	H	0.215314	-0.416980	-0.470070
H719	H	0.548647	-0.083646	-0.136737
H720	H	0.881980	0.249687	0.196596
N721	N	0.147352	0.300278	-0.000105
N722	N	0.480686	0.633611	0.333229
N723	N	0.814019	0.966944	0.666562
N724	N	0.146882	0.345288	-0.000108
N725	N	0.480215	0.678622	0.333225
N726	N	0.813549	1.011955	0.666558
H727	H	0.178492	0.367875	-0.000122
H728	H	0.511825	0.701209	0.333212
H729	H	0.845158	1.034542	0.666545
N730	N	0.161879	-0.470431	-0.369015
N731	N	0.495213	-0.137098	-0.035682
N732	N	0.828546	0.196235	0.297652
N733	N	0.191423	-0.440864	-0.392351
N734	N	0.524756	-0.107531	-0.059017
N735	N	0.858090	0.225802	0.274316
H736	H	0.215303	-0.416964	-0.373536
H737	H	0.548636	-0.083631	-0.040203
H738	H	0.881969	0.249703	0.293131
N739	N	0.128809	-0.503556	-0.234349
N740	N	0.462142	-0.170223	0.098985
N741	N	0.795475	0.163110	0.432318
N742	N	0.158357	-0.473988	-0.211043
N743	N	0.491690	-0.140655	0.122290
N744	N	0.825023	0.192679	0.455623
H745	H	0.182233	-0.450089	-0.229883
H746	H	0.515566	-0.116756	0.103450
H747	H	0.848899	0.216578	0.436784
H748	H	0.155014	-0.477322	-0.625801
H749	H	0.488347	-0.143989	-0.292468
H750	H	0.821681	0.189344	0.040865
