data_functionalizedCrystal
_audit_creation_method	'MofGen! by Chris Wilmer'
_symmetry_space_group_name_H-M	'P1'
_symmetry_Int_Tables_number	1
_symmetry_cell_setting	triclinic
loop_
_symmetry_equiv_pos_as_xyz
  x,y,z
_cell_length_a	21.295417
_cell_length_b	18.215407
_cell_length_c	18.215399
_cell_angle_alpha	90.020595
_cell_angle_beta	89.967848
_cell_angle_gamma	89.969572
loop_
_atom_site_label
_atom_site_type_symbol
_atom_site_fract_x
_atom_site_fract_y
_atom_site_fract_z
Zn1	Zn	-0.250617	-1.125043	-0.416109
Zn2	Zn	0.249383	-0.625043	0.083891
Zn3	Zn	-0.355888	-1.124940	-0.293034
Zn4	Zn	0.144112	-0.624940	0.206966
Zn5	Zn	-0.250637	-1.001976	-0.293055
Zn6	Zn	0.249363	-0.501976	0.206945
Zn7	Zn	-0.355852	-1.001930	-0.416057
Zn8	Zn	0.144148	-0.501930	0.083943
O9	O	-0.303248	-1.063472	-0.354564
O10	O	0.196752	-0.563472	0.145436
O11	O	-0.264588	-1.228014	-0.399796
O12	O	0.235412	-0.728014	0.100204
O13	O	-0.341950	-1.108604	-0.190052
O14	O	0.158050	-0.608604	0.309948
O15	O	-0.162545	-1.018364	-0.309409
O16	O	0.337455	-0.518364	0.190591
O17	O	-0.341931	-1.227938	-0.309373
O18	O	0.158069	-0.727938	0.190627
O19	O	-0.162530	-1.108781	-0.399817
O20	O	0.337470	-0.608781	0.100183
O21	O	-0.264622	-1.018263	-0.190068
O22	O	0.235378	-0.518263	0.309932
O23	O	-0.264587	-0.898985	-0.309359
O24	O	0.235413	-0.398985	0.190641
O25	O	-0.341869	-1.018285	-0.519049
O26	O	0.158131	-0.518285	-0.019049
O27	O	-0.341888	-0.898951	-0.399728
O28	O	0.158112	-0.398951	0.100272
O29	O	-0.264553	-1.108736	-0.519087
O30	O	0.235447	-0.608736	-0.019087
O31	O	-0.443973	-1.108559	-0.309323
O32	O	0.056027	-0.608559	0.190677
O33	O	-0.443946	-1.018184	-0.399707
O34	O	0.056054	-0.518184	0.100293
C35	C	-0.303236	-0.872266	-0.354540
C36	C	0.196764	-0.372266	0.145460
C37	C	-0.303246	-0.790467	-0.354548
C38	C	0.196754	-0.290467	0.145452
C39	C	-0.466800	-1.063376	-0.354523
C40	C	0.033200	-0.563376	0.145477
C41	C	-0.536768	-1.063402	-0.354530
C42	C	-0.036768	-0.563402	0.145470
C43	C	-0.343559	-0.602275	-0.401541
C44	C	0.156441	-0.102275	0.098459
C45	C	-0.343560	-0.525416	-0.401549
C46	C	0.156440	-0.025416	0.098451
C47	C	-0.262942	-0.525422	-0.307589
C48	C	0.237058	-0.025422	0.192411
C49	C	-0.262938	-0.602279	-0.307585
C50	C	0.237062	-0.102279	0.192415
C51	C	-0.303250	-0.640703	-0.354560
C52	C	0.196750	-0.140703	0.145440
C53	C	-0.303255	-0.486987	-0.354572
C54	C	0.196745	0.013013	0.145428
C55	C	-0.303256	-0.403654	-0.354581
C56	C	0.196744	0.096346	0.145419
C57	C	-0.303248	-0.724042	-0.354553
C58	C	0.196752	-0.224042	0.145447
C59	C	-0.569628	-1.110502	-0.307515
C60	C	-0.069628	-0.610502	0.192485
C61	C	-0.635370	-1.110536	-0.307532
C62	C	-0.135370	-0.610536	0.192468
C63	C	-0.668251	-1.063457	-0.354556
C64	C	-0.168251	-0.563457	0.145444
C65	C	-0.635383	-1.016354	-0.401580
C66	C	-0.135383	-0.516354	0.098420
C67	C	-0.569642	-1.016326	-0.401567
C68	C	-0.069642	-0.516326	0.098433
N69	N	-0.771516	-0.999079	-0.360158
N70	N	-0.271516	-0.499079	0.139842
N71	N	-0.833968	-0.999107	-0.360166
N72	N	-0.333968	-0.499107	0.139834
C73	C	-0.866325	-1.063540	-0.354598
C74	C	-0.366325	-0.563540	0.145402
N75	N	-0.833872	-1.127944	-0.349008
N76	N	-0.333872	-0.627944	0.150992
N77	N	-0.771415	-1.127915	-0.348996
N78	N	-0.271415	-0.627915	0.151004
C79	C	-0.739536	-1.063483	-0.354575
C80	C	-0.239536	-0.563483	0.145425
C81	C	-0.970470	-1.110681	-0.307598
C82	C	-0.470470	-0.610681	0.192402
C83	C	-1.036214	-1.110717	-0.307620
C84	C	-0.536214	-0.610717	0.192380
C85	C	-1.036226	-1.016528	-0.401664
C86	C	-0.536226	-0.516528	0.098336
C87	C	-0.970483	-1.016499	-0.401646
C88	C	-0.470483	-0.516499	0.098354
C89	C	-0.937610	-1.063575	-0.354609
C90	C	-0.437610	-0.563575	0.145391
C91	C	-0.139058	-1.063589	-0.354621
C92	C	0.360942	-0.563589	0.145379
C93	C	-0.069090	-1.063639	-0.354645
C94	C	0.430910	-0.563639	0.145355
C95	C	-0.303205	-1.063517	-0.546517
C96	C	0.196795	-0.563517	-0.046517
C97	C	-0.303187	-1.063536	-0.628316
C98	C	0.196813	-0.563536	-0.128316
C99	C	-0.303259	-0.255425	-0.354585
C100	C	0.196741	0.244575	0.145415
C101	C	-0.303259	-0.337224	-0.354585
C102	C	0.196741	0.162776	0.145415
C103	C	-0.262891	-1.110651	-0.816531
C104	C	0.237109	-0.610651	-0.316531
C105	C	-0.262872	-1.110660	-0.893390
C106	C	0.237128	-0.610660	-0.393390
C107	C	-0.343385	-1.016473	-0.893339
C108	C	0.156615	-0.516473	-0.393339
C109	C	-0.343400	-1.016461	-0.816481
C110	C	0.156600	-0.516461	-0.316481
C111	C	-0.303154	-1.063554	-0.778079
C112	C	0.196846	-0.563554	-0.278079
C113	C	-0.303120	-1.063575	-0.931796
C114	C	0.196880	-0.563575	-0.431796
C115	C	-0.303101	-1.063584	-1.015129
C116	C	0.196899	-0.563584	-0.515129
C117	C	-0.303172	-1.063544	-0.694740
C118	C	0.196828	-0.563544	-0.194740
C119	C	-0.303246	-1.063470	-0.163358
C120	C	0.196754	-0.563470	0.336642
C121	C	-0.303087	-1.063593	-0.081559
C122	C	0.196913	-0.563593	0.418441
H123	H	-0.376382	-0.633557	-0.439793
H124	H	0.123618	-0.133557	0.060207
H125	H	-0.230118	-1.148995	-0.785266
H126	H	0.269882	-0.648995	-0.285266
O127	O	-0.223698	-0.488129	-0.262034
O128	O	0.276302	0.011871	0.237966
C129	C	-0.160975	-0.506965	-0.278237
C130	C	0.339025	-0.006965	0.221763
H131	H	-0.157858	-0.528116	-0.337036
H132	H	0.342142	-0.028116	0.162964
H133	H	-0.144478	-0.551573	-0.238816
H134	H	0.355522	-0.051573	0.261184
C135	C	-0.122785	-0.412734	-0.197543
C136	C	0.377215	0.087266	0.302457
C137	C	-0.118956	-0.438706	-0.269763
C138	C	0.381044	0.061294	0.230237
H139	H	-0.096865	-0.370630	-0.192313
H140	H	0.403135	0.129370	0.307687
H141	H	-0.165043	-0.400045	-0.186624
H142	H	0.334957	0.099955	0.313376
H143	H	-0.109038	-0.449914	-0.164701
H144	H	0.390962	0.050086	0.335299
H145	H	-0.132711	-0.401530	-0.302604
H146	H	0.367289	0.098470	0.197396
H147	H	-0.076700	-0.451387	-0.280688
H148	H	0.423300	0.048613	0.219312
H149	H	-0.376186	-0.978104	-0.785173
H150	H	0.123814	-0.478104	-0.285173
H151	H	-0.376383	-0.494130	-0.439807
H152	H	0.123617	0.005870	0.060193
H153	H	-0.662130	-1.148893	-0.269247
H154	H	-0.162130	-0.648893	0.230753
O155	O	-0.382549	-0.970839	-0.930678
O156	O	0.117451	-0.470839	-0.430678
C157	C	-0.423189	-1.012718	-0.975140
C158	C	0.076811	-0.512718	-0.475140
H159	H	-0.427084	-1.070673	-0.951987
H160	H	0.072916	-0.570673	-0.451987
H161	H	-0.403715	-1.015277	-1.033397
H162	H	0.096285	-0.515277	-0.533397
C163	C	-0.483843	-0.905539	-1.004725
C164	C	0.016157	-0.405539	-0.504725
C165	C	-0.488631	-0.976719	-0.976285
C166	C	0.011369	-0.476719	-0.476285
H167	H	-0.524211	-0.883333	-1.005435
H168	H	-0.024211	-0.383333	-0.505435
H169	H	-0.456462	-0.877324	-0.974772
H170	H	0.043538	-0.377324	-0.474772
H171	H	-0.467612	-0.907681	-1.053270
H172	H	0.032388	-0.407681	-0.553270
H173	H	-0.504854	-0.974576	-0.927738
H174	H	-0.004854	-0.474576	-0.427738
H175	H	-0.516017	-1.004934	-1.006230
H176	H	-0.016017	-0.504934	-0.506230
H177	H	-0.542864	-1.148835	-0.269217
H178	H	-0.042864	-0.648835	0.230783
O179	O	-0.223847	-0.639581	-0.261839
O180	O	0.276153	-0.139581	0.238161
C181	C	-0.237515	-0.620752	-0.188462
C182	C	0.262485	-0.120752	0.311538
H183	H	-0.287801	-0.599593	-0.184639
H184	H	0.212199	-0.099593	0.315361
H185	H	-0.203746	-0.576153	-0.169297
H186	H	0.296254	-0.076153	0.330703
C187	C	-0.168374	-0.715001	-0.144059
C188	C	0.331626	-0.215001	0.355941
C189	C	-0.230137	-0.689019	-0.139362
C190	C	0.269863	-0.189019	0.360638
H191	H	-0.163820	-0.757110	-0.113770
H192	H	0.336180	-0.257110	0.386230
H193	H	-0.159163	-0.727685	-0.193493
H194	H	0.340837	-0.227685	0.306507
H195	H	-0.140240	-0.677828	-0.128089
H196	H	0.359760	-0.177828	0.371911
H197	H	-0.258269	-0.726188	-0.155340
H198	H	0.241731	-0.226188	0.344660
H199	H	-0.239352	-0.676343	-0.089929
H200	H	0.260648	-0.176343	0.410071
H201	H	-0.662159	-0.978024	-0.439868
H202	H	-0.162159	-0.478024	0.060132
O203	O	-0.537816	-0.970499	-0.447261
O204	O	-0.037816	-0.470499	0.052739
C205	C	-0.580931	-0.928968	-0.488788
C206	C	-0.080931	-0.428968	0.011212
H207	H	-0.627816	-0.926457	-0.458654
H208	H	-0.127816	-0.426457	0.041346
H209	H	-0.587864	-0.955891	-0.544707
H210	H	-0.087864	-0.455891	-0.044707
C211	C	-0.497743	-0.853710	-0.536328
C212	C	0.002257	-0.353710	-0.036328
C213	C	-0.555326	-0.850621	-0.499314
C214	C	-0.055326	-0.350621	0.000686
H215	H	-0.481948	-0.805383	-0.542825
H216	H	0.018052	-0.305383	-0.042825
H217	H	-0.468695	-0.881692	-0.508353
H218	H	0.031305	-0.381692	-0.008353
H219	H	-0.503528	-0.876149	-0.582923
H220	H	-0.003528	-0.376149	-0.082923
H221	H	-0.549538	-0.828191	-0.452717
H222	H	-0.049538	-0.328191	0.047283
H223	H	-0.584372	-0.822633	-0.527282
H224	H	-0.084372	-0.322633	-0.027282
O225	O	-0.938465	-1.156450	-0.262016
O226	O	-0.438465	-0.656450	0.237984
C227	C	-0.900383	-1.203952	-0.303951
C228	C	-0.400383	-0.703952	0.196049
H229	H	-0.890516	-1.177959	-0.359695
H230	H	-0.390516	-0.677959	0.140305
H231	H	-0.925671	-1.258496	-0.312097
H232	H	-0.425671	-0.758496	0.187903
C233	C	-0.850072	-1.249200	-0.194990
C234	C	-0.350072	-0.749200	0.305010
C235	C	-0.837949	-1.217271	-0.263453
C236	C	-0.337949	-0.717271	0.236547
H237	H	-0.811560	-1.257419	-0.170008
H238	H	-0.311560	-0.757419	0.329992
H239	H	-0.875729	-1.217199	-0.166737
H240	H	-0.375729	-0.717199	0.333263
H241	H	-0.871147	-1.294650	-0.201788
H242	H	-0.371147	-0.794650	0.298212
H243	H	-0.816881	-1.171819	-0.256654
H244	H	-0.316881	-0.671819	0.243346
H245	H	-0.812286	-1.249265	-0.291704
H246	H	-0.312286	-0.749265	0.208296
H247	H	-1.062967	-1.149076	-0.269336
H248	H	-0.562967	-0.649076	0.230664
H249	H	-1.062996	-0.978199	-0.439955
H250	H	-0.562996	-0.478199	0.060045
H251	H	-0.230085	-1.149009	-0.924694
H252	H	0.269915	-0.649009	-0.424694
O253	O	-0.938657	-0.970669	-0.447333
O254	O	-0.438657	-0.470669	0.052667
C255	C	-0.981773	-0.929135	-0.488856
C256	C	-0.481773	-0.429135	0.011144
H257	H	-1.028657	-0.926626	-0.458720
H258	H	-0.528657	-0.426626	0.041280
H259	H	-0.988708	-0.956053	-0.544776
H260	H	-0.488708	-0.456053	-0.044776
C261	C	-0.898586	-0.853873	-0.536392
C262	C	-0.398586	-0.353873	-0.036392
C263	C	-0.956169	-0.850786	-0.499377
C264	C	-0.456169	-0.350786	0.000623
H265	H	-0.882791	-0.805545	-0.542886
H266	H	-0.382791	-0.305545	-0.042886
H267	H	-0.869537	-0.881856	-0.508421
H268	H	-0.369537	-0.381856	-0.008421
H269	H	-0.904373	-0.876307	-0.582989
H270	H	-0.404373	-0.376307	-0.082989
H271	H	-0.950380	-0.828360	-0.452778
H272	H	-0.450380	-0.328360	0.047222
H273	H	-0.985216	-0.822797	-0.527341
H274	H	-0.485216	-0.322797	-0.027341
