data_functionalizedCrystal
_audit_creation_method	'MofGen! by Chris Wilmer'
_symmetry_space_group_name_H-M	'P1'
_symmetry_Int_Tables_number	1
_symmetry_cell_setting	triclinic
loop_
_symmetry_equiv_pos_as_xyz
  x,y,z
_cell_length_a	15.944493
_cell_length_b	14.853567
_cell_length_c	13.930277
_cell_angle_alpha	90.000757
_cell_angle_beta	89.993349
_cell_angle_gamma	96.445013
loop_
_atom_site_label
_atom_site_type_symbol
_atom_site_fract_x
_atom_site_fract_y
_atom_site_fract_z
O1	O	1.114687	-0.116024	-0.079810
O2	O	1.614687	0.383976	0.420190
O3	O	0.870147	-0.130414	-0.079814
O4	O	1.370147	0.369586	0.420186
O5	O	0.998949	0.008021	-0.079815
O6	O	1.498949	0.508021	0.420185
O7	O	0.985885	-0.254458	-0.079809
O8	O	1.485885	0.245542	0.420191
O9	O	0.998931	0.008024	0.079847
O10	O	1.498931	0.508024	0.579847
O11	O	0.870129	-0.130411	0.079848
O12	O	1.370129	0.369589	0.579848
O13	O	1.114669	-0.116021	0.079852
O14	O	1.614669	0.383979	0.579852
Zn15	Zn	0.992396	-0.123215	0.105200
Zn16	Zn	1.492396	0.376785	0.605200
Zn17	Zn	0.992420	-0.123219	-0.105162
Zn18	Zn	1.492420	0.376781	0.394838
O19	O	0.985867	-0.254455	0.079853
O20	O	1.485867	0.245545	0.579853
C21	C	0.838842	-0.129824	0.000017
C22	C	1.338842	0.370176	0.500017
C23	C	0.745592	-0.128061	0.000015
C24	C	1.245592	0.371939	0.500015
C25	C	0.509923	-0.209546	0.000016
C26	C	1.009923	0.290454	0.500016
C27	C	0.459307	-0.165603	0.078741
C28	C	0.959307	0.334397	0.578741
C29	C	0.574867	-0.124793	0.000017
C30	C	1.074867	0.375207	0.500017
C31	C	0.459329	-0.165586	-0.078673
C32	C	0.959329	0.334414	0.421327
C33	C	0.409954	-0.121644	0.000014
C34	C	0.909954	0.378356	0.500014
C35	C	0.525479	-0.080873	0.078806
C36	C	1.025479	0.419127	0.578806
C37	C	0.525505	-0.080868	-0.078678
C38	C	1.025505	0.419132	0.421322
C39	C	0.474922	-0.036862	0.000066
C40	C	0.974922	0.463138	0.500066
C41	C	0.669869	-0.126610	0.000019
C42	C	1.169869	0.373390	0.500019
C43	C	0.314955	-0.119820	0.000019
C44	C	0.814955	0.380180	0.500019
C45	C	0.998348	0.041610	0.000014
C46	C	1.498348	0.541610	0.500014
C47	C	0.996574	0.141691	0.000005
C48	C	1.496574	0.641691	0.500005
C49	C	1.145974	-0.116610	0.000019
C50	C	1.645974	0.383390	0.500019
C51	C	1.239224	-0.118374	0.000015
C52	C	1.739224	0.381626	0.500015
C53	C	0.986468	-0.288045	0.000023
C54	C	1.486468	0.211955	0.500023
C55	C	0.988242	-0.388126	0.000025
C56	C	1.488242	0.111874	0.500025
N57	N	0.992386	-0.123212	0.248766
N58	N	1.492386	0.376788	0.748766
C59	C	0.912565	0.554099	0.000022
C60	C	1.412565	1.054099	0.500022
C61	C	1.065585	0.575610	0.000024
C62	C	1.565585	1.075610	0.500024
C63	C	1.067252	0.481579	0.000019
C64	C	1.567252	0.981579	0.500019
C65	C	0.991575	0.423803	0.000016
C66	C	1.491575	0.923803	0.500016
C67	C	0.914230	0.460058	0.000019
C68	C	1.414230	0.960058	0.500019
C69	C	1.144596	0.445316	0.000025
C70	C	1.644596	0.945316	0.500025
C71	C	1.146267	0.351280	0.000021
C72	C	1.646267	0.851280	0.500021
C73	C	1.070589	0.293502	0.000011
C74	C	1.570589	0.793502	0.500011
C75	C	0.993241	0.329763	0.000014
C76	C	1.493241	0.829763	0.500014
C77	C	0.917564	0.271987	0.000011
C78	C	1.417564	0.771987	0.500011
C79	C	0.840215	0.308246	0.000006
C80	C	1.340215	0.808246	0.500006
C81	C	0.838552	0.402281	0.000010
C82	C	1.338552	0.902281	0.500010
C83	C	1.072252	0.199467	0.000008
C84	C	1.572252	0.699467	0.500008
C85	C	0.919229	0.177947	0.000008
C86	C	1.419229	0.677947	0.500008
N87	N	0.992436	-0.123215	-0.248728
N88	N	1.492436	0.376785	0.251272
C89	C	0.935384	-0.184494	0.701036
C90	C	1.435384	0.315506	1.201036
C91	C	1.049479	-0.061937	0.701004
C92	C	1.549479	0.438063	1.201004
C93	C	1.049469	-0.061934	0.600508
C94	C	1.549469	0.438066	1.100508
C95	C	0.992416	-0.123213	0.550272
C96	C	1.492416	0.376787	1.050272
C97	C	0.935374	-0.184495	0.600531
C98	C	1.435374	0.315505	1.100531
C99	C	1.106516	-0.000660	0.550242
C100	C	1.606516	0.499340	1.050242
C101	C	1.106509	-0.000656	0.449740
C102	C	1.606509	0.499344	0.949740
C103	C	1.049452	-0.061931	0.399501
C104	C	1.549452	0.438069	0.899501
C105	C	0.992406	-0.123214	0.449767
C106	C	1.492406	0.376786	0.949767
C107	C	0.935354	-0.184493	0.399530
C108	C	1.435354	0.315507	0.899530
C109	C	0.878304	-0.245772	0.449793
C110	C	1.378304	0.254228	0.949793
C111	C	0.878317	-0.245770	0.550292
C112	C	1.378317	0.254230	1.050292
C113	C	1.049439	-0.061933	0.299003
C114	C	1.549439	0.438067	0.799003
C115	C	0.935344	-0.184494	0.299025
C116	C	1.435344	0.315506	0.799025
H117	H	0.554260	-0.045101	0.145428
H118	H	1.054260	0.454899	0.645428
H119	H	0.459374	0.036198	0.000110
H120	H	0.959374	0.536198	0.500110
H121	H	0.525628	-0.282552	0.000091
H122	H	1.025628	0.217448	0.500091
C123	C	0.420252	-0.213950	0.168648
C124	C	0.920252	0.286050	0.668648
H125	H	0.431966	-0.275266	0.168554
H126	H	0.931966	0.224734	0.668554
H127	H	0.443783	-0.184446	0.224549
H128	H	0.943783	0.315554	0.724549
H129	H	0.360904	-0.211982	0.168294
H130	H	0.860904	0.288018	0.668294
H131	H	1.152961	0.049242	0.408822
H132	H	1.652961	0.549242	0.908822
H133	H	0.554419	-0.045104	-0.145238
H134	H	1.054419	0.454896	0.354762
H135	H	1.095933	-0.012050	0.741910
H136	H	1.595933	0.487950	1.241910
C137	C	1.148824	0.639156	0.000028
C138	C	1.648824	1.139156	0.500028
H139	H	1.195126	0.604094	0.000031
H140	H	1.695126	1.104094	0.500031
H141	H	1.151359	0.676291	-0.055646
H142	H	1.651359	1.176291	0.444354
H143	H	1.151349	0.676280	0.055716
H144	H	1.651349	1.176280	0.555716
H145	H	1.206208	0.492364	0.000036
H146	H	1.706208	0.992364	0.500036
H147	H	0.849589	0.583625	0.000014
H148	H	1.349589	1.083625	0.500014
C149	C	0.420312	-0.213954	-0.168580
C150	C	0.920312	0.286046	0.331420
H151	H	0.432044	-0.275264	-0.168476
H152	H	0.932044	0.224736	0.331524
H153	H	0.360968	-0.211991	-0.168250
H154	H	0.860968	0.288009	0.331750
H155	H	0.443870	-0.184455	-0.224482
H156	H	0.943870	0.315545	0.275518
H157	H	1.209249	0.321766	0.000023
H158	H	1.709249	0.821766	0.500023
C159	C	1.112185	0.005462	0.243713
C160	C	1.612185	0.505462	0.743713
H161	H	1.104011	-0.003316	0.176664
H162	H	1.604011	0.496684	0.676664
H163	H	1.103004	0.065637	0.260188
H164	H	1.603004	0.565637	0.760188
H165	H	1.168256	-0.004367	0.260166
H166	H	1.668256	0.495633	0.760166
H167	H	0.857603	0.130911	0.000002
H168	H	1.357603	0.630911	0.500002
H169	H	1.152971	0.049227	0.591148
H170	H	1.652971	0.549227	1.091148
H171	H	1.135228	0.169949	0.000018
H172	H	1.635228	0.669949	0.500018
H173	H	0.775579	0.431811	0.000007
H174	H	1.275579	0.931811	0.500007
C175	C	0.756975	0.244687	0.000002
C176	C	1.256975	0.744687	0.500002
H177	H	0.769051	0.183492	-0.000002
H178	H	1.269051	0.683492	0.499998
H179	H	0.725253	0.255674	0.055675
H180	H	1.225253	0.755674	0.555675
H181	H	0.725275	0.255672	-0.055687
H182	H	1.225275	0.755672	0.444313
H183	H	0.888882	-0.234391	0.258128
H184	H	1.388882	0.265609	0.758128
H185	H	0.831869	-0.295662	0.591223
H186	H	1.331869	0.204338	1.091223
C187	C	0.815551	-0.313176	0.394526
C188	C	1.315551	0.186824	0.894526
H189	H	0.823719	-0.304394	0.327475
H190	H	1.323719	0.195606	0.827475
H191	H	0.824737	-0.373351	0.410993
H192	H	1.324737	0.126649	0.910993
H193	H	0.759480	-0.303352	0.411002
H194	H	1.259480	0.196648	0.911002
C195	C	0.872636	-0.251899	0.756319
C196	C	1.372636	0.248101	1.256319
H197	H	0.880813	-0.243129	0.823368
H198	H	1.380813	0.256871	1.323368
H199	H	0.816567	-0.242084	0.739859
H200	H	1.316567	0.257916	1.239859
H201	H	0.881832	-0.312075	0.739845
H202	H	1.381832	0.187925	1.239845
