data_functionalizedCrystal
_audit_creation_method	'MofGen! by Chris Wilmer'
_symmetry_space_group_name_H-M	'P1'
_symmetry_Int_Tables_number	1
_symmetry_cell_setting	triclinic
loop_
_symmetry_equiv_pos_as_xyz
  x,y,z
_cell_length_a	6.817900
_cell_length_b	19.551136
_cell_length_c	9.582880
_cell_angle_alpha	93.837978
_cell_angle_beta	111.207034
_cell_angle_gamma	101.650842
loop_
_atom_site_label
_atom_site_type_symbol
_atom_site_fract_x
_atom_site_fract_y
_atom_site_fract_z
V1	V	-4.107726	-0.096381	-0.467336
O2	O	-4.102842	0.004935	-0.457682
O3	O	-4.049894	-0.191400	-0.464869
O4	O	-4.098649	-0.094766	-0.670825
O5	O	-4.053750	-0.092368	-0.250300
V6	V	-4.587480	-0.084278	-0.441288
O7	O	-4.377250	-0.122930	-0.524474
O8	O	-4.768153	-0.057730	-0.384150
O9	O	-4.422106	0.010740	-0.443755
O10	O	-4.709761	-0.185595	-0.450943
O11	O	-4.758853	-0.088292	-0.658324
O12	O	-4.373351	-0.085894	-0.237800
C13	C	-3.891328	-0.214567	-0.457685
C14	C	-3.925593	-0.292245	-0.457024
C15	C	-3.875970	-0.318822	-0.319573
C16	C	-3.908228	-0.391807	-0.318907
C17	C	-3.990070	-0.438212	-0.455697
C18	C	-4.039708	-0.411627	-0.593167
C19	C	-4.007470	-0.338644	-0.593831
C20	C	-3.973748	-0.559160	-0.554881
C21	C	-4.005971	-0.632141	-0.554212
C22	C	-4.089517	-0.663317	-0.453657
C23	C	-4.140798	-0.621501	-0.353745
C24	C	-4.108559	-0.548517	-0.354409
C25	C	-4.025036	-0.517351	-0.454993
C26	C	-4.074871	-0.769032	-0.315474
C27	C	-4.107144	-0.842019	-0.314813
C28	C	-4.238605	-0.861838	-0.589077
C29	C	-4.206351	-0.788852	-0.589734
C30	C	-4.124474	-0.742454	-0.452928
C31	C	-3.953518	-0.091300	-0.720400
C32	C	-4.027318	-0.090608	-0.886758
C33	C	-4.244012	0.033904	-0.450935
C34	C	-4.188988	0.111581	-0.451606
C35	C	-4.181822	-0.089362	-0.188217
C36	C	-4.087260	-0.090051	-0.021857
H37	H	-4.008200	-0.731252	-0.204078
F38	F	-3.951335	-0.676636	-0.660516
H39	H	-3.905717	-0.533784	-0.636772
F40	F	-4.229697	-0.654673	-0.246709
H41	H	-4.305244	-0.899620	-0.700455
F42	F	-3.788843	-0.269446	-0.173971
H43	H	-4.150320	-0.514473	-0.273060
F44	F	-4.060286	-0.310359	-0.740132
H45	H	-4.066745	-0.863656	-0.202880
H46	H	-3.867815	-0.413451	-0.206974
H47	H	-4.246745	-0.767214	-0.701661
F48	F	-4.126821	-0.461016	-0.738750
