data_functionalizedCrystal
_audit_creation_method	'MofGen! by Chris Wilmer'
_symmetry_space_group_name_H-M	'P1'
_symmetry_Int_Tables_number	1
_symmetry_cell_setting	triclinic
loop_
_symmetry_equiv_pos_as_xyz
  x,y,z
_cell_length_a	8.634740
_cell_length_b	8.597304
_cell_length_c	9.130313
_cell_angle_alpha	97.702678
_cell_angle_beta	90.004321
_cell_angle_gamma	92.879790
loop_
_atom_site_label
_atom_site_type_symbol
_atom_site_fract_x
_atom_site_fract_y
_atom_site_fract_z
O1	O	2.053797	0.512861	0.186502
O2	O	2.553797	1.012861	0.686502
O3	O	1.604196	0.469855	0.181080
O4	O	2.104196	0.969855	0.681080
O5	O	1.837844	0.264230	0.155126
O6	O	2.337844	0.764230	0.655126
O7	O	1.820150	0.718487	0.212456
O8	O	2.320150	1.218487	0.712456
O9	O	1.837821	0.264228	-0.088473
O10	O	2.337821	0.764228	0.411527
O11	O	1.604174	0.469853	-0.062519
O12	O	2.104174	0.969853	0.437481
O13	O	2.053774	0.512859	-0.057097
O14	O	2.553774	1.012859	0.442903
Cu15	Cu	1.828972	0.491356	-0.082051
Cu16	Cu	2.328972	0.991356	0.417949
Cu17	Cu	1.828999	0.491358	0.206034
Cu18	Cu	2.328999	0.991358	0.706034
O19	O	1.820127	0.718485	-0.031143
O20	O	2.320127	1.218485	0.468857
C21	C	1.546588	0.460112	0.058051
C22	C	2.046588	0.960112	0.558051
C23	C	1.374967	0.431064	0.054388
C24	C	1.874967	0.931064	0.554388
C25	C	1.835931	0.205470	0.025914
C26	C	2.335931	0.705470	0.525914
C27	C	1.830249	0.030384	0.003827
C28	C	2.330249	0.530384	0.503827
C29	C	2.111383	0.522603	0.065935
C30	C	2.611383	1.022603	0.565935
C31	C	2.283004	0.551651	0.069608
C32	C	2.783004	1.051651	0.569608
C33	C	1.822039	0.777244	0.098072
C34	C	2.322039	1.277244	0.598072
C35	C	1.827722	0.952330	0.120169
C36	C	2.327722	1.452330	0.620169
N37	N	1.828965	0.491355	-0.284673
N38	N	2.328965	0.991355	0.215327
C39	C	1.725491	0.582357	-0.349877
C40	C	2.225491	1.082357	0.150123
C41	C	1.725521	0.582359	-0.503213
C42	C	2.225521	1.082359	-0.003213
C43	C	1.932503	0.400343	-0.526131
C44	C	2.432503	0.900343	-0.026131
C45	C	1.932479	0.400351	-0.372796
C46	C	2.432479	0.900351	0.127204
C47	C	1.605987	0.687437	-0.336647
C48	C	2.105987	1.187437	0.163353
C49	C	1.606017	0.687439	-0.489984
C50	C	2.106017	1.187439	0.010016
N51	N	1.829018	0.491348	0.408655
N52	N	2.329018	0.991348	0.908655
H53	H	1.335574	0.677122	0.085434
H54	H	1.835574	1.177122	0.585434
H55	H	1.829902	0.019450	0.236682
H56	H	2.329902	0.519450	0.736682
H57	H	1.828046	-0.036744	-0.112694
H58	H	2.328046	0.463256	0.387306
H59	H	1.493525	0.633199	-0.295954
H60	H	1.993525	1.133199	0.204046
F61	F	1.656082	0.843572	-0.532442
F62	F	2.156082	1.343572	-0.032442
F63	F	2.042625	0.303518	-0.303400
F64	F	2.542625	0.803518	0.196600
F65	F	2.042665	0.303497	-0.619929
F66	F	2.542665	0.803497	-0.119929
F67	F	1.641492	0.850191	-0.261711
F68	F	2.141492	1.350191	0.238289
H69	H	1.322404	0.305601	0.038592
H70	H	1.822404	0.805601	0.538592
H71	H	1.487084	0.643614	-0.537154
H72	H	1.987084	1.143614	-0.037154
