data_functionalizedCrystal
_audit_creation_method	'MofGen! by Chris Wilmer'
_symmetry_space_group_name_H-M	'P1'
_symmetry_Int_Tables_number	1
_symmetry_cell_setting	triclinic
loop_
_symmetry_equiv_pos_as_xyz
  x,y,z
_cell_length_a	11.792241
_cell_length_b	10.723024
_cell_length_c	9.198806
_cell_angle_alpha	89.997988
_cell_angle_beta	90.000255
_cell_angle_gamma	84.330643
loop_
_atom_site_label
_atom_site_type_symbol
_atom_site_fract_x
_atom_site_fract_y
_atom_site_fract_z
O1	O	-1.507283	-0.171036	0.120747
O2	O	-1.176980	-0.188663	0.120781
O3	O	-1.349750	0.001747	0.120758
O4	O	-1.334512	-0.361446	0.120770
O5	O	-1.349736	0.001747	-0.121027
O6	O	-1.176966	-0.188663	-0.121004
O7	O	-1.507269	-0.171035	-0.121038
Cu8	Cu	-1.342116	-0.179849	-0.143098
Cu9	Cu	-1.342133	-0.179850	0.142841
O10	O	-1.334499	-0.361445	-0.121015
C11	C	-1.134680	-0.187556	-0.000108
C12	C	-1.008659	-0.184242	-0.000095
C13	C	-1.348634	0.048244	-0.000133
C14	C	-1.345317	0.186789	-0.000127
C15	C	-1.549569	-0.172143	-0.000146
C16	C	-1.675590	-0.175457	-0.000150
C17	C	-0.777933	-0.178147	-0.000137
C18	C	-0.906326	-0.181533	-0.000114
C19	C	-1.335614	-0.407942	-0.000121
C20	C	-1.338932	-0.546488	-0.000117
N21	N	-1.342113	-0.179848	-0.344212
C22	C	-1.441990	0.262028	-0.000135
C23	C	-1.438563	0.405222	-0.000130
C24	C	-1.414654	-0.099549	-0.416419
C25	C	-1.414672	-0.099544	-0.583831
N26	N	-1.342145	-0.179841	0.343955
H27	H	-1.527292	0.220431	-0.000153
H28	H	-1.260014	0.228386	-0.000109
H29	H	-1.280016	-0.248588	-0.406332
H30	H	-1.521323	0.469873	-0.000143
H31	H	-1.256168	0.388868	-0.000120
H32	H	-1.476743	-0.030799	-0.354301
H33	H	-1.476782	-0.030801	-0.645925
H34	H	-1.280040	-0.248597	-0.593960
