data_functionalizedCrystal
_audit_creation_method	'MofGen! by Chris Wilmer'
_symmetry_space_group_name_H-M	'P1'
_symmetry_Int_Tables_number	1
_symmetry_cell_setting	triclinic
loop_
_symmetry_equiv_pos_as_xyz
  x,y,z
_cell_length_a	11.026607
_cell_length_b	10.967829
_cell_length_c	10.065875
_cell_angle_alpha	86.921207
_cell_angle_beta	79.302338
_cell_angle_gamma	96.380563
loop_
_atom_site_label
_atom_site_type_symbol
_atom_site_fract_x
_atom_site_fract_y
_atom_site_fract_z
O1	O	1.650232	0.494401	-0.229769
O2	O	1.294313	0.436514	-0.216157
O3	O	1.474049	0.290844	-0.181891
O4	O	1.470496	0.640071	-0.264035
O5	O	1.439782	0.318764	0.038531
O6	O	1.260047	0.464434	0.004264
O7	O	1.615965	0.522321	-0.009348
Zn8	Zn	1.432565	0.497810	0.032455
Zn9	Zn	1.477713	0.461025	-0.257959
O10	O	1.436230	0.667991	-0.043614
C11	C	1.231487	0.439794	-0.103435
C12	C	1.095337	0.407959	-0.095948
C13	C	1.454068	0.259400	-0.061003
C14	C	1.445569	0.124107	-0.029189
C15	C	1.025499	0.495861	-0.116625
C16	C	0.884780	0.462960	-0.108888
C17	C	1.459531	0.049332	-0.129191
C18	C	1.450747	-0.090500	-0.096311
C19	C	1.678792	0.519040	-0.122073
C20	C	1.814944	0.550874	-0.129568
C21	C	1.456211	0.699435	-0.164505
C22	C	1.464712	0.834726	-0.196328
N23	N	1.401762	0.522917	0.230655
N24	N	1.508526	0.435911	-0.456158
C25	C	1.466988	0.469751	0.310940
C26	C	1.443291	0.489085	0.463559
H27	H	0.840403	0.363336	-0.085490
H28	H	1.477982	0.088836	-0.239147
O29	O	0.867793	0.669767	-0.157298
C30	C	0.872964	0.877060	-0.088519
C31	C	0.813021	0.742463	-0.056936
H32	H	0.828687	0.935877	-0.007412
H33	H	0.977016	0.882496	-0.089710
H34	H	0.857508	0.912466	-0.191889
H35	H	0.828382	0.706971	0.046438
H36	H	0.708990	0.737105	-0.055835
H37	H	1.432282	-0.129999	0.013653
H38	H	1.483155	-0.125778	-0.306292
H39	H	1.050954	0.308341	-0.072551
H40	H	1.427104	0.084602	0.080768
O41	O	1.355568	0.560302	0.516312
C42	C	1.139261	0.591229	0.553009
C43	C	1.238473	0.510456	0.493232
H44	H	1.044572	0.550974	0.534346
H45	H	1.135638	0.594082	0.666713
H46	H	1.164151	0.688493	0.502133
H47	H	1.213654	0.413154	0.544002
H48	H	1.242076	0.507706	0.379523
O49	O	1.314125	0.594289	0.283225
C50	C	1.158890	0.720935	0.238707
C51	C	1.258084	0.640114	0.179005
H52	H	1.113571	0.758028	0.154469
H53	H	1.085038	0.663612	0.319063
H54	H	1.204695	0.801074	0.286787
H55	H	1.212389	0.559964	0.130854
H56	H	1.331925	0.697523	0.098716
H57	H	1.069885	0.595475	-0.140049
H58	H	1.540370	0.409914	0.266691
H59	H	1.581912	0.376070	0.499598
