data_functionalizedCrystal
_audit_creation_method	'MofGen! by Chris Wilmer'
_symmetry_space_group_name_H-M	'P1'
_symmetry_Int_Tables_number	1
_symmetry_cell_setting	triclinic
loop_
_symmetry_equiv_pos_as_xyz
  x,y,z
_cell_length_a	25.639243
_cell_length_b	25.639239
_cell_length_c	17.077396
_cell_angle_alpha	90.031074
_cell_angle_beta	90.022159
_cell_angle_gamma	90.041410
loop_
_atom_site_label
_atom_site_type_symbol
_atom_site_fract_x
_atom_site_fract_y
_atom_site_fract_z
Zn1	Zn	0.799257	-0.208113	0.443884
Zn2	Zn	1.132590	0.125221	0.777218
Zn3	Zn	1.465924	0.458554	1.110551
Zn4	Zn	0.799171	-0.295550	0.312612
Zn5	Zn	1.132504	0.037783	0.645946
Zn6	Zn	1.465838	0.371116	0.979279
Zn7	Zn	0.711824	-0.208135	0.312626
Zn8	Zn	1.045157	0.125198	0.645959
Zn9	Zn	1.378491	0.458532	0.979293
Zn10	Zn	0.711779	-0.295523	0.443830
Zn11	Zn	1.045112	0.037810	0.777163
Zn12	Zn	1.378445	0.371143	1.110496
O13	O	0.755508	-0.251830	0.378238
O14	O	1.088841	0.081503	0.711571
O15	O	1.422174	0.414836	1.044905
O16	O	0.872411	-0.219714	0.426488
O17	O	1.205744	0.113620	0.759821
O18	O	1.539078	0.446953	1.093154
O19	O	0.787567	-0.283975	0.202767
O20	O	1.120901	0.049358	0.536100
O21	O	1.454234	0.382691	0.869434
O22	O	0.723477	-0.134967	0.330066
O23	O	1.056810	0.198367	0.663400
O24	O	1.390144	0.531700	0.996733
O25	O	0.872348	-0.283954	0.330043
O26	O	1.205681	0.049380	0.663376
O27	O	1.539014	0.382713	0.996709
O28	O	0.787714	-0.134950	0.426501
O29	O	1.121047	0.198383	0.759834
O30	O	1.454381	0.531716	1.093168
O31	O	0.723394	-0.219751	0.202777
O32	O	1.056727	0.113582	0.536111
O33	O	1.390060	0.446915	0.869444
O34	O	0.638653	-0.219725	0.330014
O35	O	0.971986	0.113608	0.663347
O36	O	1.305319	0.446942	0.996680
O37	O	0.723400	-0.283907	0.553684
O38	O	1.056733	0.049426	0.887017
O39	O	1.390066	0.382759	1.220351
O40	O	0.638619	-0.283929	0.426408
O41	O	0.971953	0.049405	0.759742
O42	O	1.305286	0.382738	1.093075
O43	O	0.787670	-0.219687	0.553724
O44	O	1.121003	0.113646	0.887057
O45	O	1.454337	0.446979	1.220391
O46	O	0.787523	-0.368712	0.329990
O47	O	1.120857	-0.035379	0.663323
O48	O	1.454190	0.297955	0.996657
O49	O	0.723316	-0.368692	0.426395
O50	O	1.056650	-0.035359	0.759728
O51	O	1.389983	0.297975	1.093062
C52	C	0.619665	-0.251827	0.378207
C53	C	0.952998	0.081507	0.711540
C54	C	1.286332	0.414840	1.044874
C55	C	0.561551	-0.251838	0.378212
C56	C	0.894884	0.081495	0.711546
C57	C	1.228218	0.414829	1.044879
C58	C	0.201215	-0.218433	0.428541
C59	C	0.534549	0.114900	0.761874
C60	C	0.867882	0.448234	1.095207
C61	C	0.146611	-0.218433	0.428546
C62	C	0.479944	0.114901	0.761879
C63	C	0.813278	0.448234	1.095212
O64	O	0.118397	-0.190021	0.471298
O65	O	0.451731	0.143312	0.804631
O66	O	0.785064	0.476646	1.137965
N67	N	0.119269	-0.251829	0.378260
N68	N	0.452602	0.081505	0.711593
N69	N	0.785935	0.414838	1.044926
C70	C	0.146533	-0.285224	0.327960
C71	C	0.479867	0.048109	0.661293
C72	C	0.813200	0.381443	0.994627
O73	O	0.118262	-0.313629	0.285188
O74	O	0.451596	0.019704	0.618521
O75	O	0.784929	0.353037	0.951854
C76	C	0.201137	-0.285221	0.327952
C77	C	0.534470	0.048112	0.661285
C78	C	0.867803	0.381445	0.994618
C79	C	0.228476	-0.251827	0.378247
C80	C	0.561810	0.081507	0.711580
C81	C	0.895143	0.414840	1.044913
C82	C	0.228555	-0.185041	0.478831
C83	C	0.561888	0.148293	0.812164
C84	C	0.895222	0.481626	1.145497
C85	C	0.283155	-0.185042	0.478827
C86	C	0.616489	0.148291	0.812160
C87	C	0.949822	0.481625	1.145493
C88	C	0.310416	-0.218436	0.428533
C89	C	0.643750	0.114898	0.761866
C90	C	0.977083	0.448231	1.095199
C91	C	0.283077	-0.251828	0.378243
C92	C	0.616410	0.081505	0.711576
C93	C	0.949743	0.414839	1.044909
C94	C	0.228400	-0.318613	0.277649
C95	C	0.561734	0.014720	0.610982
C96	C	0.895067	0.348053	0.944315
C97	C	0.283007	-0.318608	0.277644
C98	C	0.616341	0.014726	0.610978
C99	C	0.949674	0.348059	0.944311
C100	C	0.310347	-0.285213	0.327939
C101	C	0.643680	0.048120	0.661273
C102	C	0.977014	0.381454	0.994606
C103	C	0.364938	-0.285223	0.327944
C104	C	0.698272	0.048111	0.661278
C105	C	1.031605	0.381444	0.994611
N106	N	0.392281	-0.251827	0.378230
N107	N	0.725614	0.081507	0.711564
N108	N	1.058947	0.414840	1.044897
C109	C	0.365020	-0.218433	0.428524
C110	C	0.698353	0.114900	0.761858
C111	C	1.031686	0.448234	1.095191
C112	C	0.031863	-0.285226	0.327980
C113	C	0.365196	0.048107	0.661313
C114	C	0.698529	0.381441	0.994647
C115	C	-0.022740	-0.285232	0.327992
C116	C	0.310594	0.048102	0.661325
C117	C	0.643927	0.381435	0.994658
C118	C	-0.022658	-0.218440	0.428576
C119	C	0.310675	0.114894	0.761910
C120	C	0.644008	0.448227	1.095243
C121	C	0.031945	-0.218437	0.428568
C122	C	0.365278	0.114896	0.761902
C123	C	0.698612	0.448230	1.095235
C124	C	0.059205	-0.251830	0.378266
C125	C	0.392538	0.081503	0.711599
C126	C	0.725872	0.414837	1.044933
C127	C	0.479685	-0.218439	0.428513
C128	C	0.813018	0.114895	0.761846
C129	C	1.146351	0.448228	1.095179
C130	C	0.534290	-0.218444	0.428506
C131	C	0.867623	0.114889	0.761840
C132	C	1.200957	0.448222	1.095173
C133	C	0.534204	-0.285234	0.327919
C134	C	0.867537	0.048099	0.661252
C135	C	1.200871	0.381433	0.994586
C136	C	0.479603	-0.285231	0.327928
C137	C	0.812937	0.048103	0.661261
C138	C	1.146270	0.381436	0.994595
C139	C	0.452345	-0.251829	0.378227
C140	C	0.785678	0.081505	0.711561
C141	C	1.119012	0.414838	1.044894
O142	O	0.393186	-0.313618	0.285212
O143	O	0.726520	0.019715	0.618545
O144	O	1.059853	0.353048	0.951878
O145	O	0.393297	-0.190027	0.471282
O146	O	0.726631	0.143306	0.804615
O147	O	1.059964	0.476639	1.137949
C148	C	0.755420	-0.387673	0.378202
C149	C	1.088753	-0.054340	0.711535
C150	C	1.422086	0.278994	1.044869
C151	C	0.755430	-0.445787	0.378213
C152	C	1.088763	-0.112454	0.711546
C153	C	1.422097	0.220880	1.044880
C154	C	0.789027	-0.806148	0.328126
C155	C	1.122361	-0.472814	0.661459
C156	C	1.455694	-0.139481	0.994792
C157	C	0.789048	-0.860752	0.328136
C158	C	1.122381	-0.527419	0.661469
C159	C	1.455714	-0.194085	0.994803
O160	O	0.817522	-0.888987	0.285511
O161	O	1.150856	-0.555654	0.618844
O162	O	1.484189	-0.222320	0.952177
N163	N	0.755600	-0.888069	0.378290
N164	N	1.088933	-0.554736	0.711623
N165	N	1.422266	-0.221403	1.044957
C166	C	0.722133	-0.860779	0.428443
C167	C	1.055466	-0.527446	0.761776
C168	C	1.388799	-0.194113	1.095109
O169	O	0.693685	-0.889029	0.471104
O170	O	1.027018	-0.555696	0.804437
O171	O	1.360351	-0.222362	1.137771
C172	C	0.722115	-0.806176	0.428435
C173	C	1.055449	-0.472843	0.761769
C174	C	1.388782	-0.139509	1.095102
C175	C	0.755562	-0.778862	0.378272
C176	C	1.088895	-0.445528	0.711606
C177	C	1.422229	-0.112195	1.044939
C178	C	0.822472	-0.778833	0.277967
C179	C	1.155805	-0.445500	0.611301
C180	C	1.489138	-0.112167	0.944634
C181	C	0.822451	-0.724233	0.277956
C182	C	1.155784	-0.390899	0.611289
C183	C	1.489117	-0.057566	0.944623
C184	C	0.788985	-0.696947	0.328103
C185	C	1.122319	-0.363613	0.661436
C186	C	1.455652	-0.030280	0.994770
C187	C	0.755541	-0.724261	0.378261
C188	C	1.088874	-0.390928	0.711594
C189	C	1.422208	-0.057595	1.044928
C190	C	0.688652	-0.778887	0.478591
C191	C	1.021985	-0.445554	0.811925
C192	C	1.355318	-0.112221	1.145258
C193	C	0.688638	-0.724280	0.478580
C194	C	1.021971	-0.390947	0.811914
C195	C	1.355304	-0.057614	1.145247
C196	C	0.722084	-0.696966	0.428417
C197	C	1.055417	-0.363632	0.761751
C198	C	1.388751	-0.030299	1.095084
C199	C	0.722054	-0.642375	0.428397
C200	C	1.055388	-0.309041	0.761730
C201	C	1.388721	0.024292	1.095063
N202	N	0.755503	-0.615057	0.378243
N203	N	1.088836	-0.281724	0.711576
N204	N	1.422169	0.051609	1.044909
C205	C	0.788968	-0.642343	0.328096
C206	C	1.122301	-0.309010	0.661429
C207	C	1.455635	0.024323	0.994762
C208	C	0.722172	-0.975450	0.428455
C209	C	1.055505	-0.642117	0.761788
C210	C	1.388839	-0.308783	1.095121
C211	C	0.722186	-1.030052	0.428458
C212	C	1.055520	-0.696719	0.761792
C213	C	1.388853	-0.363386	1.095125
C214	C	0.789102	-1.030021	0.328153
C215	C	1.122435	-0.696688	0.661486
C216	C	1.455769	-0.363355	0.994819
C217	C	0.789085	-0.975418	0.328146
C218	C	1.122418	-0.642085	0.661479
C219	C	1.455752	-0.308751	0.994812
C220	C	0.755620	-0.948133	0.378301
C221	C	1.088954	-0.614799	0.711634
C222	C	1.422287	-0.281466	1.044967
C223	C	0.788921	-0.527678	0.328075
C224	C	1.122254	-0.194345	0.661409
C225	C	1.455588	0.138988	0.994742
C226	C	0.788895	-0.473073	0.328066
C227	C	1.122229	-0.139740	0.661399
C228	C	1.455562	0.193594	0.994733
C229	C	0.721982	-0.473109	0.428374
C230	C	1.055315	-0.139776	0.761708
C231	C	1.388648	0.193558	1.095041
C232	C	0.722005	-0.527710	0.428381
C233	C	1.055338	-0.194376	0.761714
C234	C	1.388672	0.138957	1.095048
C235	C	0.755479	-0.554993	0.378229
C236	C	1.088812	-0.221660	0.711562
C237	C	1.422146	0.111674	1.044895
O238	O	0.693596	-0.614105	0.471003
O239	O	1.026929	-0.280772	0.804336
O240	O	1.360263	0.052562	1.137669
O241	O	0.817416	-0.614087	0.285449
O242	O	1.150750	-0.280754	0.618782
O243	O	1.484083	0.052579	0.952116
C244	C	0.891881	-0.251834	0.378270
C245	C	1.225214	0.081499	0.711603
C246	C	1.558547	0.414832	1.044936
C247	C	0.949995	-0.251836	0.378283
C248	C	1.283328	0.081497	0.711617
C249	C	1.616661	0.414831	1.044950
C250	C	0.755539	-0.251792	0.582982
C251	C	1.088873	0.081542	0.916316
C252	C	1.422206	0.414875	1.249649
C253	C	0.755553	-0.251775	0.670232
C254	C	1.088886	0.081558	1.003566
C255	C	1.422219	0.414891	1.336899
C256	C	0.755610	-0.115457	0.378291
C257	C	1.088944	0.217876	0.711625
C258	C	1.422277	0.551209	1.044958
C259	C	0.755654	-0.057343	0.378314
C260	C	1.088987	0.275990	0.711647
C261	C	1.422321	0.609323	1.044981
C262	C	0.755506	-0.251831	0.174290
C263	C	1.088840	0.081502	0.507624
C264	C	1.422173	0.414836	0.840957
C265	C	0.755594	-0.251700	0.087041
C266	C	1.088927	0.081633	0.420374
C267	C	1.422261	0.414967	0.753708
C268	C	0.789019	-0.218333	0.711245
C269	C	1.122353	0.115000	1.044578
C270	C	1.455686	0.448333	1.377911
C271	C	0.789026	-0.218316	0.793225
C272	C	1.122359	0.115018	1.126558
C273	C	1.455692	0.448351	1.459892
C274	C	0.755568	-0.251744	0.834192
C275	C	1.088901	0.081590	1.167525
C276	C	1.422234	0.414923	1.500858
C277	C	0.722097	-0.285187	0.793174
C278	C	1.055431	0.048146	1.126507
C279	C	1.388764	0.381479	1.459840
C280	C	0.722089	-0.285202	0.711195
C281	C	1.055422	0.048132	1.044528
C282	C	1.388755	0.381465	1.377861
C283	C	0.722118	-0.285156	0.964044
C284	C	1.055452	0.048178	1.297377
C285	C	1.388785	0.381511	1.630711
C286	C	0.722127	-0.285142	1.046029
C287	C	1.055461	0.048191	1.379362
C288	C	1.388794	0.381524	1.712695
C289	C	0.789055	-0.218270	1.046074
C290	C	1.122389	0.115063	1.379408
C291	C	1.455722	0.448397	1.712741
C292	C	0.789047	-0.218284	0.964095
C293	C	1.122380	0.115049	1.297429
C294	C	1.455713	0.448382	1.630762
C295	C	0.755577	-0.251729	0.923083
C296	C	1.088910	0.081604	1.256416
C297	C	1.422244	0.414938	1.589750
H298	H	0.206150	-0.345806	0.236692
H299	H	0.539483	-0.012473	0.570026
H300	H	0.872816	0.320860	0.903359
H301	H	0.816279	-0.191085	0.826614
H302	H	1.149612	0.142248	1.159947
H303	H	1.482946	0.475582	1.493280
H304	H	0.816307	-0.191037	1.079470
H305	H	1.149640	0.142296	1.412804
H306	H	1.482974	0.475629	1.746137
N307	N	0.686042	-0.321195	1.090217
N308	N	1.019375	0.012138	1.423551
N309	N	1.352708	0.345471	1.756884
H310	H	0.664835	-0.342382	1.051798
H311	H	0.998168	-0.009049	1.385132
H312	H	1.331501	0.324285	1.718465
H313	H	0.661870	-0.299903	1.124234
H314	H	0.995203	0.033430	1.457567
H315	H	1.328536	0.366764	1.790901
N316	N	0.686017	-0.321225	0.919807
N317	N	1.019350	0.012109	1.253140
N318	N	1.352684	0.345442	1.586473
H319	H	0.664824	-0.342400	0.958197
H320	H	0.998157	-0.009067	1.291530
H321	H	1.331490	0.324266	1.624863
H322	H	0.707278	-0.345427	0.885790
H323	H	1.040612	-0.012093	1.219123
H324	H	1.373945	0.321240	1.552456
H325	H	0.816132	-0.450835	0.287215
H326	H	1.149465	-0.117502	0.620548
H327	H	1.482798	0.215831	0.953881
N328	N	0.686012	-0.321237	0.837369
N329	N	1.019346	0.012096	1.170703
N330	N	1.352679	0.345429	1.504036
H331	H	0.694099	-0.358598	0.823093
H332	H	1.027433	-0.025265	1.156427
H333	H	1.360766	0.308068	1.489760
H334	H	0.648673	-0.313073	0.823082
H335	H	0.982007	0.020260	1.156415
H336	H	1.315340	0.353594	1.489748
H337	H	0.556410	-0.312423	0.286973
H338	H	0.889743	0.020910	0.620306
H339	H	1.223076	0.354243	0.953639
N340	N	0.825137	-0.182235	0.919907
N341	N	1.158470	0.151098	1.253240
N342	N	1.491803	0.484431	1.586573
H343	H	0.846341	-0.161046	0.958326
H344	H	1.179674	0.172288	1.291659
H345	H	1.513007	0.505621	1.624992
H346	H	0.803869	-0.158046	0.885895
H347	H	1.137202	0.175288	1.219228
H348	H	1.470535	0.508621	1.552561
H349	H	0.694831	-0.312428	0.677804
H350	H	1.028165	0.020905	1.011137
H351	H	1.361498	0.354238	1.344470
N352	N	0.312409	-0.354623	0.223385
N353	N	0.645742	-0.021289	0.556719
N354	N	0.979076	0.312044	0.890052
H355	H	0.286800	-0.375775	0.191528
H356	H	0.620134	-0.042442	0.524862
H357	H	0.953467	0.290891	0.858195
H358	H	0.335056	-0.378848	0.255265
H359	H	0.668390	-0.045515	0.588598
H360	H	1.001723	0.287818	0.921932
N361	N	0.563778	-0.182427	0.482758
N362	N	0.897111	0.150907	0.816091
N363	N	1.230444	0.484240	1.149424
H364	H	0.538219	-0.161272	0.514617
H365	H	0.871553	0.172062	0.847950
H366	H	1.204886	0.505395	1.181283
H367	H	0.586442	-0.158203	0.450872
H368	H	0.919776	0.175130	0.784205
H369	H	1.253109	0.508464	1.117538
H370	H	0.305411	-0.157848	0.519781
H371	H	0.638744	0.175485	0.853114
H372	H	0.972077	0.508819	1.186448
H373	H	0.661387	-0.702067	0.519425
H374	H	0.994720	-0.368734	0.852758
H375	H	1.328054	-0.035401	1.186092
N376	N	0.825113	-0.182285	0.667062
N377	N	1.158446	0.151049	1.000395
N378	N	1.491780	0.484382	1.333728
H379	H	0.803885	-0.158061	0.633045
H380	H	1.137218	0.175273	0.966378
H381	H	1.470552	0.508606	1.299711
H382	H	0.849313	-0.203584	0.633100
H383	H	1.182646	0.129749	0.966433
H384	H	1.515980	0.463083	1.299766
N385	N	0.858564	-0.808260	0.223869
N386	N	1.191897	-0.474927	0.557203
N387	N	1.525230	-0.141593	0.890536
H388	H	0.882793	-0.830878	0.255797
H389	H	1.216126	-0.497545	0.589130
H390	H	1.549460	-0.164211	0.922463
H391	H	0.879709	-0.782632	0.192107
H392	H	1.213043	-0.449299	0.525441
H393	H	1.546376	-0.115965	0.858774
H394	H	0.694733	-0.450884	0.469201
H395	H	1.028066	-0.117551	0.802534
H396	H	1.361400	0.215783	1.135868
N397	N	0.825161	-0.945959	0.274045
N398	N	1.158494	-0.612626	0.607378
N399	N	1.491827	-0.279293	0.940712
H400	H	0.846361	-0.971535	0.242280
H401	H	1.179694	-0.638202	0.575614
H402	H	1.513028	-0.304869	0.908947
H403	H	0.849339	-0.923268	0.306030
H404	H	1.182673	-0.589934	0.639363
H405	H	1.516006	-0.256601	0.972697
H406	H	0.206365	-0.157845	0.519787
H407	H	0.539698	0.175488	0.853120
H408	H	0.873032	0.508822	1.186453
N409	N	0.450290	-0.182411	0.482759
N410	N	0.783623	0.150923	0.816092
N411	N	1.116956	0.484256	1.149425
H412	H	0.475901	-0.161260	0.514613
H413	H	0.809234	0.172074	0.847946
H414	H	1.142568	0.505407	1.181279
H415	H	0.427629	-0.203721	0.519033
H416	H	0.760962	0.129613	0.852367
H417	H	1.094296	0.462946	1.185700
H418	H	0.054054	-0.312423	0.287020
H419	H	0.387388	0.020910	0.620353
H420	H	0.720721	0.354243	0.953687
H421	H	-0.044864	-0.191247	0.469527
H422	H	0.288469	0.142086	0.802860
H423	H	0.621803	0.475419	1.136194
N424	N	0.061431	-0.182419	0.482814
N425	N	0.394764	0.150914	0.816147
N426	N	0.728098	0.484247	1.149481
H427	H	0.035871	-0.161268	0.514675
H428	H	0.369204	0.172065	0.848009
H429	H	0.702537	0.505399	1.181342
H430	H	0.084091	-0.158193	0.450927
H431	H	0.417425	0.175141	0.784260
H432	H	0.750758	0.508474	1.117594
N433	N	0.450107	-0.321249	0.273692
N434	N	0.783440	0.012084	0.607026
N435	N	1.116773	0.345417	0.940359
H436	H	0.459582	-0.358618	0.285781
H437	H	0.792915	-0.025284	0.619114
H438	H	1.126248	0.308049	0.952447
H439	H	0.459612	-0.313038	0.217650
H440	H	0.792945	0.020296	0.550983
H441	H	1.126279	0.353629	0.884316
N442	N	0.825024	-0.557101	0.273985
N443	N	1.158357	-0.223767	0.607318
N444	N	1.491691	0.109566	0.940652
H445	H	0.846204	-0.531505	0.242211
H446	H	1.179538	-0.198172	0.575545
H447	H	1.512871	0.135162	0.908878
H448	H	0.803765	-0.579795	0.237629
H449	H	1.137098	-0.246461	0.570962
H450	H	1.470432	0.086872	0.904296
H451	H	0.849687	-0.701997	0.237111
H452	H	1.183021	-0.368663	0.570445
H453	H	1.516354	-0.035330	0.903778
N454	N	-0.052224	-0.321256	0.273755
N455	N	0.281109	0.012077	0.607089
N456	N	0.614442	0.345410	0.940422
H457	H	-0.026664	-0.342409	0.241897
H458	H	0.306669	-0.009076	0.575230
H459	H	0.640003	0.324257	0.908563
H460	H	-0.074874	-0.299945	0.237485
H461	H	0.258459	0.033389	0.570819
H462	H	0.591792	0.366722	0.904152
H463	H	0.816353	-1.052247	0.287323
H464	H	1.149687	-0.718914	0.620656
H465	H	1.483020	-0.385581	0.953990
H466	H	0.694946	-1.052287	0.469299
H467	H	1.028279	-0.718954	0.802632
H468	H	1.361612	-0.385621	1.135965
N469	N	0.686072	-0.946023	0.482547
N470	N	1.019405	-0.612689	0.815881
N471	N	1.352738	-0.279356	1.149214
H472	H	0.664887	-0.971617	0.514315
H473	H	0.998220	-0.638284	0.847649
H474	H	1.331553	-0.304951	1.180982
H475	H	0.661879	-0.923408	0.450556
H476	H	0.995213	-0.590074	0.783889
H477	H	1.328546	-0.256741	1.117222
H478	H	0.661413	-0.801117	0.519436
H479	H	0.994747	-0.467784	0.852769
H480	H	1.328080	-0.134451	1.186102
N481	N	0.685926	-0.557174	0.482474
N482	N	1.019260	-0.223841	0.815808
N483	N	1.352593	0.109493	1.149141
H484	H	0.664722	-0.531601	0.514238
H485	H	0.998055	-0.198267	0.847571
H486	H	1.331388	0.135066	1.180905
H487	H	0.707205	-0.579787	0.518840
H488	H	1.040538	-0.246453	0.852173
H489	H	1.373871	0.086880	1.185506
