data_functionalizedCrystal
_audit_creation_method	'MofGen! by Chris Wilmer'
_symmetry_space_group_name_H-M	'P1'
_symmetry_Int_Tables_number	1
_symmetry_cell_setting	triclinic
loop_
_symmetry_equiv_pos_as_xyz
  x,y,z
_cell_length_a	15.538191
_cell_length_b	15.711784
_cell_length_c	16.776229
_cell_angle_alpha	89.997723
_cell_angle_beta	89.990959
_cell_angle_gamma	83.430448
loop_
_atom_site_label
_atom_site_type_symbol
_atom_site_fract_x
_atom_site_fract_y
_atom_site_fract_z
O1	O	1.162610	-0.253352	-0.066305
O2	O	0.919389	-0.163282	-0.066302
O3	O	1.008635	-0.323994	-0.066301
O4	O	1.073365	-0.092640	-0.066305
O5	O	1.008615	-0.323996	0.066275
O6	O	0.919370	-0.163284	0.066275
O7	O	1.162590	-0.253354	0.066272
Zn8	Zn	1.040977	-0.208319	0.087323
Zn9	Zn	1.041003	-0.208316	-0.087352
O10	O	1.073345	-0.092642	0.066272
C11	C	0.887531	-0.153859	-0.000013
C12	C	0.792631	-0.125789	-0.000012
C13	C	0.998050	-0.352881	-0.000014
C14	C	0.966533	-0.438951	-0.000018
C15	C	0.847878	-0.526670	-0.000022
C16	C	0.877503	-0.445799	-0.000018
C17	C	1.025973	-0.512979	-0.000017
C18	C	0.996361	-0.593858	-0.000016
C19	C	0.907313	-0.600696	-0.000019
C20	C	1.055795	-0.667883	-0.000014
C21	C	1.026185	-0.748754	-0.000017
C22	C	0.937141	-0.755601	-0.000023
C23	C	0.877703	-0.681567	-0.000023
C24	C	1.144843	-0.661043	-0.000016
C25	C	1.204277	-0.735068	-0.000014
C26	C	1.174668	-0.815942	-0.000012
C27	C	1.085623	-0.822788	-0.000017
C28	C	1.234106	-0.889975	-0.000012
C29	C	1.204495	-0.970847	-0.000015
C30	C	1.056013	-0.903659	-0.000021
C31	C	0.408742	-0.404658	-0.000020
C32	C	0.319572	-0.378262	-0.000021
C33	C	0.348292	-0.229792	-0.000023
C34	C	0.437466	-0.256175	-0.000018
C35	C	0.467683	-0.343609	-0.000018
C36	C	0.496408	-0.195127	-0.000016
C37	C	0.585574	-0.221508	-0.000015
C38	C	0.615799	-0.308938	-0.000017
C39	C	0.556850	-0.369991	-0.000017
C40	C	0.466189	-0.107693	-0.000022
C41	C	0.525130	-0.046644	-0.000019
C42	C	0.614298	-0.073026	-0.000013
C43	C	0.644523	-0.160456	-0.000015
C44	C	0.673247	-0.011973	-0.000013
C45	C	0.762413	-0.038355	-0.000012
C46	C	0.733689	-0.186837	-0.000014
C47	C	1.194448	-0.262776	-0.000018
C48	C	1.289349	-0.290847	-0.000025
C49	C	1.083929	-0.063754	-0.000017
C50	C	1.115447	0.022315	-0.000018
N51	N	1.040965	-0.208323	0.206534
N52	N	1.041019	-0.208321	-0.206564
C53	C	1.080508	-0.279470	0.248251
C54	C	1.080512	-0.279472	0.331703
C55	C	1.040979	-0.208324	0.373437
C56	C	1.001431	-0.137173	0.331714
C57	C	1.001421	-0.137174	0.248263
C58	C	1.001467	-0.137167	0.668261
C59	C	1.001481	-0.137170	0.751718
C60	C	1.080558	-0.279465	0.751701
C61	C	1.080548	-0.279467	0.668251
C62	C	1.040997	-0.208317	0.626535
C63	C	1.040991	-0.208317	0.536047
C64	C	1.040990	-0.208322	0.463924
H65	H	0.983501	-0.909226	-0.000005
H66	H	0.913033	-0.821453	-0.000030
H67	H	0.775366	-0.532237	-0.000006
C68	C	0.824639	-0.315876	0.068135
C69	C	0.812165	-0.364426	-0.000018
H70	H	0.784306	-0.265639	0.068129
H71	H	0.816161	-0.348822	0.114357
H72	H	0.881910	-0.300228	0.068130
H73	H	0.754895	-0.380079	-0.000010
H74	H	0.820636	-0.331473	-0.046252
H75	H	0.433346	-0.475855	-0.000015
C76	C	0.733897	-0.607039	-0.000028
C77	C	0.779818	-0.689092	-0.000028
H78	H	0.673471	-0.611688	-0.000038
H79	H	0.748519	-0.576899	0.046205
H80	H	0.748550	-0.576888	-0.046260
H81	H	0.765170	-0.719240	0.046207
H82	H	0.765190	-0.719245	-0.046266
C83	C	0.966340	-0.073982	0.459644
C84	C	0.957977	-0.058963	0.377586
H85	H	0.939519	-0.025693	0.487960
H86	H	0.939170	-0.123145	0.473327
H87	H	1.026007	-0.083279	0.473295
H88	H	0.898310	-0.049672	0.363933
H89	H	0.985144	-0.009785	0.363897
C90	C	0.879342	0.018104	0.068150
C91	C	0.827209	0.028748	-0.000003
H92	H	0.919346	0.059529	0.068150
H93	H	0.843951	0.025310	0.114372
H94	H	0.910096	-0.037746	0.068138
H95	H	0.796449	0.084596	0.000012
H96	H	0.862605	0.021549	-0.046237
C97	C	0.736687	-0.321525	-0.068167
C98	C	0.766918	-0.282946	-0.000014
H99	H	0.757209	-0.380854	-0.068169
H100	H	0.675155	-0.314560	-0.068158
H101	H	0.757209	-0.295333	-0.114394
H102	H	0.746391	-0.309135	0.046214
H103	H	0.828463	-0.289918	-0.000015
H104	H	0.648630	0.059216	-0.000021
C105	C	1.146848	-0.526930	0.068169
C106	C	1.177405	-0.572153	0.000005
H107	H	1.166958	-0.472057	0.068187
H108	H	1.085318	-0.520399	0.068160
H109	H	1.167560	-0.557659	0.114388
H110	H	1.156688	-0.541427	-0.046215
H111	H	1.238948	-0.578680	0.000006
C112	C	0.891584	-0.083989	0.574444
C113	C	0.958009	-0.058956	0.622410
H114	H	0.864755	-0.035700	0.546138
H115	H	0.915125	-0.126357	0.537651
H116	H	0.849815	-0.106875	0.607017
H117	H	0.999781	-0.036076	0.589836
H118	H	0.934468	-0.016573	0.659207
C119	C	0.519510	-0.514121	-0.000020
C120	C	0.590073	-0.466101	-0.000019
H121	H	0.540024	-0.573451	-0.000029
H122	H	0.485326	-0.500750	0.046211
H123	H	0.485333	-0.500735	-0.046254
H124	H	0.624247	-0.479482	0.046217
H125	H	0.624272	-0.479478	-0.046256
H126	H	0.323676	-0.158603	-0.000027
H127	H	1.252893	-1.031122	-0.000018
C128	C	1.190393	-0.332617	0.425535
C129	C	1.123982	-0.357673	0.377566
H130	H	1.217226	-0.380896	0.453853
H131	H	1.232155	-0.309728	0.392969
H132	H	1.166834	-0.290242	0.462325
H133	H	1.147543	-0.400043	0.340772
H134	H	1.082213	-0.380575	0.410135
C135	C	0.330649	-0.110323	-0.068173
C136	C	0.368175	-0.078690	-0.000024
H137	H	0.270139	-0.092421	-0.068170
H138	H	0.356132	-0.088873	-0.114398
H139	H	0.340214	-0.171131	-0.068159
H140	H	0.358616	-0.017881	-0.000041
H141	H	0.342684	-0.100136	0.046213
H142	H	0.969220	-0.079239	0.214298
C143	C	1.345423	-0.795834	-0.000012
C144	C	1.331985	-0.882450	-0.000011
H145	H	1.405850	-0.791191	-0.000007
H146	H	1.319783	-0.768787	-0.046243
H147	H	1.319759	-0.768784	0.046222
H148	H	1.357643	-0.909498	-0.046248
H149	H	1.357635	-0.909508	0.046225
H150	H	1.098477	-0.507399	-0.000011
C151	C	0.267650	-0.496700	-0.068175
C152	C	0.254780	-0.445374	-0.000023
H153	H	0.227653	-0.538132	-0.068174
H154	H	0.258943	-0.461869	-0.114397
H155	H	0.325082	-0.524920	-0.068166
H156	H	0.197350	-0.417149	-0.000035
H157	H	0.263480	-0.480210	0.046212
C158	C	0.522167	0.088041	-0.068171
C159	C	0.491907	0.049460	-0.000021
H160	H	0.501652	0.147371	-0.068172
H161	H	0.583699	0.081068	-0.068162
H162	H	0.501658	0.061855	-0.114400
H163	H	0.512422	0.075642	0.046208
H164	H	0.430362	0.056439	-0.000023
C165	C	1.158667	-0.420131	0.256626
C166	C	1.123963	-0.357681	0.202382
H167	H	1.185488	-0.468418	0.228308
H168	H	1.200440	-0.397236	0.289160
H169	H	1.113603	-0.437100	0.289189
H170	H	1.169028	-0.340707	0.169822
H171	H	1.082186	-0.380579	0.169833
C172	C	1.158706	-0.420129	0.676619
C173	C	1.124001	-0.357677	0.622378
H174	H	1.185525	-0.468416	0.648298
H175	H	1.200482	-0.397237	0.709152
H176	H	1.113644	-0.437099	0.709183
H177	H	1.169065	-0.340702	0.589818
H178	H	1.082222	-0.380572	0.589831
H179	H	1.276781	-0.729488	-0.000008
H180	H	0.688404	-0.330417	-0.000027
H181	H	1.112760	-0.337401	0.785675
C182	C	1.019606	-0.025217	0.845553
C183	C	0.958017	-0.058960	0.797592
H184	H	0.992774	0.023067	0.873869
H185	H	1.043156	-0.067587	0.882337
H186	H	1.064652	-0.008234	0.812976
H187	H	0.912974	-0.075949	0.830170
H188	H	0.934454	-0.016582	0.760804
