data_functionalizedCrystal
_audit_creation_method	'MofGen! by Chris Wilmer'
_symmetry_space_group_name_H-M	'P1'
_symmetry_Int_Tables_number	1
_symmetry_cell_setting	triclinic
loop_
_symmetry_equiv_pos_as_xyz
  x,y,z
_cell_length_a	6.817900
_cell_length_b	12.850265
_cell_length_c	9.464801
_cell_angle_alpha	42.526215
_cell_angle_beta	90.028046
_cell_angle_gamma	91.776814
loop_
_atom_site_label
_atom_site_type_symbol
_atom_site_fract_x
_atom_site_fract_y
_atom_site_fract_z
V1	V	3.840276	0.451948	-0.638128
O2	O	3.890119	0.300389	-0.635546
O3	O	3.736536	0.586347	-0.624564
O4	O	3.736334	0.586332	-0.920635
O5	O	3.890322	0.300404	-0.337426
V6	V	4.338272	0.417120	-0.603279
O7	O	4.069787	0.528346	-0.714572
O8	O	4.558957	0.340722	-0.526836
O9	O	4.218805	0.282721	-0.616844
O10	O	4.405825	0.568679	-0.605861
O11	O	4.405622	0.568664	-0.903982
O12	O	4.219007	0.282737	-0.320772
C13	C	3.569885	0.614700	-0.612133
C14	C	3.565908	0.727568	-0.602757
C15	C	3.569628	0.614668	-0.989789
C16	C	3.565485	0.727511	-1.225019
C17	C	4.031646	0.141537	-0.638699
C18	C	4.048809	0.254389	-0.629295
C19	C	4.049056	0.254392	-0.251607
C20	C	4.032051	0.141546	-0.016376
V21	V	3.823839	0.920317	-0.606446
O22	O	3.862883	1.076914	-0.614004
O23	O	3.729923	0.774698	-0.608912
O24	O	3.729445	0.774649	-0.312776
O25	O	3.863364	1.076964	-0.912190
V26	V	4.317475	1.011499	-0.697087
O27	O	4.057724	0.870253	-0.556081
O28	O	4.532020	1.112632	-0.798014
O29	O	4.189060	1.131798	-0.669553
O30	O	4.395367	0.868219	-0.702714
O31	O	4.394886	0.868169	-0.404528
O32	O	4.189538	1.131847	-0.965688
