data_functionalizedCrystal
_audit_creation_method	'MofGen! by Chris Wilmer'
_symmetry_space_group_name_H-M	'P1'
_symmetry_Int_Tables_number	1
_symmetry_cell_setting	triclinic
loop_
_symmetry_equiv_pos_as_xyz
  x,y,z
_cell_length_a	12.594517
_cell_length_b	12.594510
_cell_length_c	16.120484
_cell_angle_alpha	92.859644
_cell_angle_beta	92.925054
_cell_angle_gamma	89.977994
loop_
_atom_site_label
_atom_site_type_symbol
_atom_site_fract_x
_atom_site_fract_y
_atom_site_fract_z
Zn1	Zn	1.605713	-0.623321	-0.331842
Zn2	Zn	1.596548	-0.454350	-0.471287
Zn3	Zn	1.427714	-0.445351	-0.331891
Zn4	Zn	1.418647	-0.632273	-0.471213
O5	O	1.512156	-0.538824	-0.401558
O6	O	1.753442	-0.600927	-0.350349
O7	O	1.574111	-0.304214	-0.452847
O8	O	1.458956	-0.461446	-0.215220
O9	O	1.746709	-0.476785	-0.452799
O10	O	1.589731	-0.592200	-0.215183
O11	O	1.450069	-0.297602	-0.350434
O12	O	1.277566	-0.470126	-0.350363
O13	O	1.443503	-0.780028	-0.452673
O14	O	1.270905	-0.607457	-0.452722
O15	O	1.580939	-0.773451	-0.350278
O16	O	1.565319	-0.485465	-0.587942
O17	O	1.434616	-0.616184	-0.587888
C18	C	1.235616	-0.538787	-0.401540
C19	C	1.117310	-0.538798	-0.401552
C20	C	1.512232	-0.816439	-0.401462
C21	C	1.512265	-0.934742	-0.401421
C22	C	0.980889	-0.464262	-0.345818
C23	C	1.053067	-0.560075	-0.325497
C24	C	1.046706	-0.442992	-0.421836
C25	C	0.978703	-0.634740	-0.381225
C26	C	0.972333	-0.517594	-0.477599
C27	C	1.044477	-0.613476	-0.457307
C28	C	1.587038	-1.000417	-0.345724
C29	C	1.491287	-1.069889	-0.325317
C30	C	1.608076	-1.076066	-0.421770
C31	C	1.416465	-1.002652	-0.380975
C32	C	1.533317	-1.008825	-0.477463
C33	C	1.437498	-1.078266	-0.457085
C34	C	1.789775	-0.538861	-0.401577
C35	C	1.908080	-0.538877	-0.401585
C36	C	1.498018	-0.552796	-0.618165
C37	C	1.492068	-0.558809	-0.710830
C38	C	1.512145	-0.262285	-0.401594
C39	C	1.512333	-0.143968	-0.401400
C40	C	1.481209	-0.569808	-0.880490
C41	C	1.543293	-0.507857	-0.921786
C42	C	1.537251	-0.513977	-1.016191
C43	C	1.487249	-0.563689	-0.786077
C44	C	1.526377	-0.524821	-0.184106
C45	C	1.532438	-0.518853	-0.091441
H46	H	0.952858	-0.401268	-0.298636
C47	C	0.924612	-0.493281	-0.564434
H48	H	0.881775	-0.551437	-0.585824
H49	H	0.882254	-0.430992	-0.560416
H50	H	0.980376	-0.482425	-0.600642
C51	C	1.100750	-0.584372	-0.238642
H52	H	1.142036	-0.647410	-0.242473
H53	H	1.144635	-0.526790	-0.217686
H54	H	1.044982	-0.593925	-0.202182
H55	H	1.600981	-0.450221	-0.886240
H56	H	1.650167	-0.966345	-0.298595
H57	H	0.948919	-0.715814	-0.364008
H58	H	1.423524	-0.627438	-0.916033
H59	H	1.473504	-1.096874	-0.261001
C60	C	1.082099	-0.698760	-0.520994
H61	H	1.058725	-0.766773	-0.506460
H62	H	1.053268	-0.684248	-0.574842
H63	H	1.157526	-0.697885	-0.520955
H64	H	1.551131	-0.981818	-0.541761
C65	C	1.717490	-1.119570	-0.445041
H66	H	1.709471	-1.164222	-0.494228
H67	H	1.763446	-1.062026	-0.454285
H68	H	1.747047	-1.159320	-0.400961
H69	H	1.076626	-0.361937	-0.438977
H70	H	1.374224	-1.112137	-0.504177
C71	C	1.307022	-0.959327	-0.357605
H72	H	1.307677	-0.883906	-0.357726
H73	H	1.253908	-0.986623	-0.396912
H74	H	1.291974	-0.980710	-0.303743
