data_functionalizedCrystal
_audit_creation_method	'MofGen! by Chris Wilmer'
_symmetry_space_group_name_H-M	'P1'
_symmetry_Int_Tables_number	1
_symmetry_cell_setting	triclinic
loop_
_symmetry_equiv_pos_as_xyz
  x,y,z
_cell_length_a	16.120530
_cell_length_b	19.805405
_cell_length_c	19.805399
_cell_angle_alpha	90.029301
_cell_angle_beta	92.915522
_cell_angle_gamma	87.121765
loop_
_atom_site_label
_atom_site_type_symbol
_atom_site_fract_x
_atom_site_fract_y
_atom_site_fract_z
Zn1	Zn	1.274516	-0.322020	0.435096
Zn2	Zn	1.524516	-0.072020	0.685096
Zn3	Zn	1.774516	0.177980	0.935096
Zn4	Zn	2.024516	0.427980	1.185096
Zn5	Zn	1.274411	-0.435204	0.321900
Zn6	Zn	1.524411	-0.185204	0.571900
Zn7	Zn	1.774411	0.064796	0.821900
Zn8	Zn	2.024411	0.314796	1.071900
Zn9	Zn	1.135102	-0.316291	0.316191
Zn10	Zn	1.385102	-0.066291	0.566191
Zn11	Zn	1.635102	0.183709	0.816191
Zn12	Zn	1.885102	0.433709	1.066191
Zn13	Zn	1.135057	-0.429423	0.429319
Zn14	Zn	1.385057	-0.179423	0.679319
Zn15	Zn	1.635057	0.070577	0.929319
Zn16	Zn	1.885057	0.320577	1.179319
O17	O	1.204772	-0.375735	0.375627
O18	O	1.454772	-0.125735	0.625627
O19	O	1.704772	0.124265	0.875627
O20	O	1.954772	0.374265	1.125627
O21	O	1.391168	-0.341851	0.424888
O22	O	1.641168	-0.091851	0.674888
O23	O	1.891168	0.158149	0.924888
O24	O	2.141168	0.408149	1.174888
O25	O	1.255907	-0.419452	0.226425
O26	O	1.505907	-0.169452	0.476425
O27	O	1.755907	0.080548	0.726425
O28	O	2.005907	0.330548	0.976425
O29	O	1.153659	-0.222337	0.331992
O30	O	1.403659	0.027663	0.581992
O31	O	1.653659	0.277663	0.831992
O32	O	1.903659	0.527663	1.081992
O33	O	1.391091	-0.425007	0.341723
O34	O	1.641091	-0.175007	0.591723
O35	O	1.891091	0.074993	0.841723
O36	O	2.141091	0.324993	1.091723
O37	O	1.256085	-0.226546	0.419351
O38	O	1.506085	0.023454	0.669351
O39	O	1.756085	0.273454	0.919351
O40	O	2.006085	0.523454	1.169351
O41	O	1.153557	-0.332087	0.222231
O42	O	1.403557	-0.082087	0.472231
O43	O	1.653557	0.167913	0.722231
O44	O	1.903557	0.417913	0.972231
O45	O	1.018431	-0.326482	0.326390
O46	O	1.268431	-0.076482	0.576390
O47	O	1.518431	0.173518	0.826390
O48	O	1.768431	0.423518	1.076390
O49	O	1.153582	-0.415154	0.524803
O50	O	1.403582	-0.165154	0.774803
O51	O	1.653582	0.084846	1.024803
O52	O	1.903582	0.334846	1.274803
O53	O	1.018398	-0.409599	0.409506
O54	O	1.268398	-0.159599	0.659506
O55	O	1.518398	0.090401	0.909506
O56	O	1.768398	0.340401	1.159506
O57	O	1.256042	-0.336245	0.529048
O58	O	1.506042	-0.086245	0.779048
O59	O	1.756042	0.163755	1.029048
O60	O	2.006042	0.413755	1.279048
O61	O	1.255863	-0.529151	0.336122
O62	O	1.505863	-0.279151	0.586122
O63	O	1.755863	-0.029151	0.836122
O64	O	2.005863	0.220849	1.086122
O65	O	1.153480	-0.524904	0.415042
O66	O	1.403480	-0.274904	0.665042
O67	O	1.653480	-0.024904	0.915042
O68	O	1.903480	0.225096	1.165042
C69	C	0.988164	-0.366792	0.366702
C70	C	1.238164	-0.116792	0.616702
C71	C	1.488164	0.133208	0.866702
C72	C	1.738164	0.383208	1.116702
C73	C	0.895499	-0.362983	0.362900
C74	C	1.145499	-0.112983	0.612900
C75	C	1.395499	0.137017	0.862900
C76	C	1.645499	0.387017	1.112900
C77	C	1.204678	-0.551587	0.375590
C78	C	1.454678	-0.301587	0.625590
C79	C	1.704678	-0.051587	0.875590
C80	C	1.954678	0.198413	1.125590
C81	C	1.204714	-0.626820	0.375600
C82	C	1.454714	-0.376820	0.625600
C83	C	1.704714	-0.126820	0.875600
C84	C	1.954714	0.123180	1.125600
C85	C	1.258077	-0.664356	0.334554
C86	C	1.508077	-0.414356	0.584554
C87	C	1.758077	-0.164356	0.834554
C88	C	2.008077	0.085644	1.084554
C89	C	1.258112	-0.735045	0.334570
C90	C	1.508112	-0.485045	0.584570
C91	C	1.758112	-0.235045	0.834570
C92	C	2.008112	0.014955	1.084570
C93	C	1.204780	-0.768199	0.375630
C94	C	1.454780	-0.518199	0.625630
C95	C	1.704780	-0.268199	0.875630
C96	C	1.954780	-0.018199	1.125630
C97	C	1.151415	-0.730658	0.416681
C98	C	1.401415	-0.480658	0.666681
C99	C	1.651415	-0.230658	0.916681
C100	C	1.901415	0.019342	1.166681
C101	C	1.151385	-0.659970	0.416668
C102	C	1.401385	-0.409970	0.666668
C103	C	1.651385	-0.159970	0.916668
C104	C	1.901385	0.090030	1.166668
C105	C	1.151538	-1.015737	0.416736
C106	C	1.401538	-0.765737	0.666736
C107	C	1.651538	-0.515737	0.916736
C108	C	1.901538	-0.265737	1.166736
C109	C	1.151571	-1.086430	0.416745
C110	C	1.401571	-0.836430	0.666745
C111	C	1.651571	-0.586430	0.916745
C112	C	1.901571	-0.336430	1.166745
C113	C	1.258266	-1.090812	0.334639
C114	C	1.508266	-0.840812	0.584639
C115	C	1.758266	-0.590812	0.834639
C116	C	2.008266	-0.340812	1.084639
C117	C	1.258235	-1.020124	0.334626
C118	C	1.508235	-0.770124	0.584626
C119	C	1.758235	-0.520124	0.834626
C120	C	2.008235	-0.270124	1.084626
C121	C	1.204874	-0.982590	0.375679
C122	C	1.454874	-0.732590	0.625679
C123	C	1.704874	-0.482590	0.875679
C124	C	1.954874	-0.232590	1.125679
C125	C	1.204837	-0.905940	0.375662
C126	C	1.454837	-0.655940	0.625662
C127	C	1.704837	-0.405940	0.875662
C128	C	1.954837	-0.155940	1.125662
C129	C	1.204812	-0.844847	0.375644
C130	C	1.454812	-0.594847	0.625644
C131	C	1.704812	-0.344847	0.875644
C132	C	1.954812	-0.094847	1.125644
C133	C	0.725838	-0.356012	0.355964
C134	C	0.975838	-0.106012	0.605964
C135	C	1.225838	0.143988	0.855964
C136	C	1.475838	0.393988	1.105964
C137	C	0.684546	-0.395507	0.395339
C138	C	0.934546	-0.145507	0.645339
C139	C	1.184546	0.104493	0.895339
C140	C	1.434546	0.354493	1.145339
C141	C	0.590141	-0.391628	0.391480
C142	C	0.840141	-0.141628	0.641480
C143	C	1.090141	0.108372	0.891480
C144	C	1.340141	0.358372	1.141480
C145	C	0.820252	-0.359890	0.359822
C146	C	1.070252	-0.109890	0.609822
C147	C	1.320252	0.140110	0.859822
C148	C	1.570252	0.390110	1.109822
C149	C	1.422225	-0.384712	0.384587
C150	C	1.672225	-0.134712	0.634587
C151	C	1.922225	0.115288	0.884587
C152	C	2.172225	0.365288	1.134587
C153	C	1.514890	-0.388538	0.388405
C154	C	1.764890	-0.138538	0.638405
C155	C	2.014890	0.111462	0.888405
C156	C	2.264890	0.361462	1.138405
C157	C	1.204819	-0.375694	0.552171
C158	C	1.454819	-0.125694	0.802171
C159	C	1.704819	0.124306	1.052171
C160	C	1.954819	0.374306	1.302171
C161	C	1.204838	-0.375677	0.627404
C162	C	1.454838	-0.125677	0.877404
C163	C	1.704838	0.124323	1.127404
C164	C	1.954838	0.374323	1.377404
C165	C	1.204889	-0.199197	0.375679
C166	C	1.454889	0.050803	0.625679
C167	C	1.704889	0.300803	0.875679
C168	C	1.954889	0.550803	1.125679
C169	C	1.204938	-0.123967	0.375702
C170	C	1.454938	0.126033	0.625702
C171	C	1.704938	0.376033	0.875702
C172	C	1.954938	0.626033	1.125702
C173	C	1.204773	-0.375728	0.199771
C174	C	1.454773	-0.125728	0.449771
C175	C	1.704773	0.124272	0.699771
C176	C	1.954773	0.374272	0.949771
C177	C	1.204915	-0.375562	0.124545
C178	C	1.454915	-0.125562	0.374545
C179	C	1.704915	0.124438	0.624545
C180	C	1.954915	0.374438	0.874545
C181	C	1.258190	-0.334587	0.664960
C182	C	1.508190	-0.084587	0.914960
C183	C	1.758190	0.165413	1.164960
C184	C	2.008190	0.415413	1.414960
C185	C	1.258199	-0.334567	0.735648
C186	C	1.508199	-0.084567	0.985648
C187	C	1.758199	0.165433	1.235648
C188	C	2.008199	0.415433	1.485648
C189	C	1.204859	-0.375642	0.768781
C190	C	1.454859	-0.125642	1.018781
C191	C	1.704859	0.124358	1.268781
C192	C	1.954859	0.374358	1.518781
C193	C	1.151501	-0.416734	0.731220
C194	C	1.401501	-0.166734	0.981220
C195	C	1.651501	0.083266	1.231220
C196	C	1.901501	0.333266	1.481220
C197	C	1.151489	-0.416749	0.660533
C198	C	1.401489	-0.166749	0.910533
C199	C	1.651489	0.083251	1.160533
C200	C	1.901489	0.333251	1.410533
C201	C	1.151548	-0.416672	1.016296
C202	C	1.401548	-0.166672	1.266296
C203	C	1.651548	0.083328	1.516296
C204	C	1.901548	0.333328	1.766296
C205	C	1.151566	-0.416656	1.086989
C206	C	1.401566	-0.166656	1.336989
C207	C	1.651566	0.083344	1.586989
C208	C	1.901566	0.333344	1.836989
C209	C	1.258258	-0.334491	1.091412
C210	C	1.508258	-0.084491	1.341412
C211	C	1.758258	0.165509	1.591412
C212	C	2.008258	0.415509	1.841412
C213	C	1.258246	-0.334506	1.020724
C214	C	1.508246	-0.084506	1.270724
C215	C	1.758246	0.165494	1.520724
C216	C	2.008246	0.415494	1.770724
C217	C	1.204885	-0.375595	0.983169
C218	C	1.454885	-0.125595	1.233169
C219	C	1.704885	0.124405	1.483169
C220	C	1.954885	0.374405	1.733169
C221	C	1.204876	-0.375614	0.906521
C222	C	1.454876	-0.125614	1.156521
C223	C	1.704876	0.124386	1.406521
C224	C	1.954876	0.374386	1.656521
C225	C	1.204873	-0.375627	0.845429
C226	C	1.454873	-0.125627	1.095429
C227	C	1.704873	0.124373	1.345429
C228	C	1.954873	0.374373	1.595429
H229	H	1.301502	-0.637367	0.301115
H230	H	1.551502	-0.387367	0.551115
H231	H	1.801502	-0.137367	0.801115
H232	H	2.051502	0.112633	1.051115
Cl233	Cl	1.325310	-0.282941	0.782860
Cl234	Cl	1.575310	-0.032941	1.032860
Cl235	Cl	1.825310	0.217059	1.282860
Cl236	Cl	2.075310	0.467059	1.532860
H237	H	1.301718	-1.121381	0.301214
H238	H	1.551718	-0.871381	0.551214
H239	H	1.801718	-0.621381	0.801214
H240	H	2.051718	-0.371381	1.051214
Cl241	Cl	1.084467	-0.468327	0.969094
Cl242	Cl	1.334467	-0.218327	1.219094
Cl243	Cl	1.584467	0.031673	1.469094
Cl244	Cl	1.834467	0.281673	1.719094
H245	H	0.690290	-0.319290	0.319359
H246	H	0.940290	-0.069290	0.569359
H247	H	1.190290	0.180710	0.819359
H248	H	1.440290	0.430710	1.069359
H249	H	1.301564	-0.765604	0.301146
H250	H	1.551564	-0.515604	0.551146
H251	H	1.801564	-0.265604	0.801146
H252	H	2.051564	-0.015604	1.051146
Cl253	Cl	1.084374	-0.772337	0.468303
Cl254	Cl	1.334374	-0.522337	0.718303
Cl255	Cl	1.584374	-0.272337	0.968303
Cl256	Cl	1.834374	-0.022337	1.218303
Cl257	Cl	1.325255	-0.282950	0.623315
Cl258	Cl	1.575255	-0.032950	0.873315
Cl259	Cl	1.825255	0.217050	1.123315
Cl260	Cl	2.075255	0.467050	1.373315
H261	H	1.301684	-0.301061	0.993751
H262	H	1.551684	-0.051061	1.243751
H263	H	1.801684	0.198939	1.493751
H264	H	2.051684	0.448939	1.743751
Cl265	Cl	1.325338	-0.282833	1.138627
Cl266	Cl	1.575338	-0.032833	1.388627
Cl267	Cl	1.825338	0.217167	1.638627
Cl268	Cl	2.075338	0.467167	1.888627
H269	H	1.107933	-0.629409	0.450093
H270	H	1.357933	-0.379409	0.700093
H271	H	1.607933	-0.129409	0.950093
H272	H	1.857933	0.120591	1.200093
H273	H	1.108068	-0.450175	0.758202
H274	H	1.358068	-0.200175	1.008202
H275	H	1.608068	0.049825	1.258202
H276	H	1.858068	0.299825	1.508202
Cl277	Cl	1.084504	-0.468296	1.128640
Cl278	Cl	1.334504	-0.218296	1.378640
Cl279	Cl	1.584504	0.031704	1.628640
Cl280	Cl	1.834504	0.281704	1.878640
H281	H	1.108143	-1.113421	0.450186
H282	H	1.358143	-0.863421	0.700186
H283	H	1.608143	-0.613421	0.950186
H284	H	1.858143	-0.363421	1.200186
Cl285	Cl	1.325284	-0.978449	0.283006
Cl286	Cl	1.575284	-0.728449	0.533006
Cl287	Cl	1.825284	-0.478449	0.783006
Cl288	Cl	2.075284	-0.228449	1.033006
Cl289	Cl	1.084454	-0.968560	0.468345
Cl290	Cl	1.334454	-0.718560	0.718345
Cl291	Cl	1.584454	-0.468560	0.968345
Cl292	Cl	1.834454	-0.218560	1.218345
H293	H	1.108036	-0.450201	0.629955
H294	H	1.358036	-0.200201	0.879955
H295	H	1.608036	0.049799	1.129955
H296	H	1.858036	0.299799	1.379955
Cl297	Cl	0.739429	-0.452204	0.451863
Cl298	Cl	0.989429	-0.202204	0.701863
Cl299	Cl	1.239429	0.047796	0.951863
Cl300	Cl	1.489429	0.297796	1.201863
