data_functionalizedCrystal
_audit_creation_method	'MofGen! by Chris Wilmer'
_symmetry_space_group_name_H-M	'P1'
_symmetry_Int_Tables_number	1
_symmetry_cell_setting	triclinic
loop_
_symmetry_equiv_pos_as_xyz
  x,y,z
_cell_length_a	16.974800
_cell_length_b	14.853567
_cell_length_c	16.053802
_cell_angle_alpha	92.572962
_cell_angle_beta	91.074188
_cell_angle_gamma	83.511964
loop_
_atom_site_label
_atom_site_type_symbol
_atom_site_fract_x
_atom_site_fract_y
_atom_site_fract_z
O1	O	1.049203	0.114922	0.001497
O2	O	1.549203	0.614922	0.501497
O3	O	0.819756	0.128723	-0.014013
O4	O	1.319756	0.628723	0.485987
O5	O	0.940608	-0.009402	-0.005846
O6	O	1.440608	0.490598	0.494154
O7	O	0.928350	0.253046	-0.006670
O8	O	1.428350	0.753046	0.493330
O9	O	0.933956	-0.001830	0.132563
O10	O	1.433956	0.498170	0.632563
O11	O	0.813104	0.136294	0.124396
O12	O	1.313104	0.636294	0.624396
O13	O	1.042551	0.122493	0.139906
O14	O	1.542551	0.622493	0.639906
Zn15	Zn	0.926771	0.130596	0.154127
Zn16	Zn	1.426771	0.630596	0.654127
Zn17	Zn	0.935536	0.120620	-0.028234
Zn18	Zn	1.435536	0.620620	0.471766
O19	O	0.921698	0.260618	0.131740
O20	O	1.421698	0.760618	0.631740
C21	C	0.787066	0.131845	0.053207
C22	C	1.287066	0.631845	0.553207
C23	C	0.699572	0.129857	0.047292
C24	C	1.199572	0.629857	0.547292
C25	C	0.654845	0.133048	0.119962
C26	C	1.154845	0.633048	0.619962
C27	C	0.572636	0.131166	0.114407
C28	C	1.072636	0.631166	0.614407
C29	C	0.535154	0.126099	0.036181
C30	C	1.035154	0.626099	0.536181
C31	C	0.579887	0.122905	-0.036495
C32	C	1.079887	0.622905	0.463505
C33	C	0.662095	0.124781	-0.030939
C34	C	1.162095	0.624781	0.469061
C35	C	0.289677	0.120040	0.011474
C36	C	0.789677	0.620040	0.511474
C37	C	0.207462	0.118168	0.005924
C38	C	0.707462	0.618168	0.505924
C39	C	0.200217	0.126427	0.156826
C40	C	0.700217	0.626427	0.656826
C41	C	0.282427	0.128308	0.162375
C42	C	0.782427	0.628308	0.662375
C43	C	0.327153	0.125109	0.089700
C44	C	0.827153	0.625109	0.589700
N45	N	0.451123	0.124178	0.030501
N46	N	0.951123	0.624178	0.530501
N47	N	0.411183	0.127023	0.095380
N48	N	0.911183	0.627023	0.595380
C49	C	0.936727	-0.039205	0.063318
C50	C	1.436727	0.460795	0.563318
C51	C	0.935063	-0.139291	0.063199
C52	C	1.435063	0.360709	0.563199
C53	C	0.856238	-0.551900	0.057886
C54	C	1.356238	-0.051900	0.557886
C55	C	0.999813	-0.573043	0.067591
C56	C	1.499813	-0.073043	0.567591
C57	C	1.001378	-0.479008	0.067692
C58	C	1.501378	0.020992	0.567692
C59	C	0.930372	-0.421414	0.062891
C60	C	1.430372	0.078586	0.562891
C61	C	0.857801	-0.457856	0.057989
C62	C	1.357801	0.042144	0.557989
C63	C	1.073948	-0.442559	0.072602
C64	C	1.573948	0.057441	0.572602
C65	C	1.075516	-0.348518	0.072704
C66	C	1.575516	0.151482	0.572704
C67	C	1.004509	-0.290923	0.067898
C68	C	1.504509	0.209077	0.567898
C69	C	0.931935	-0.327370	0.062995
C70	C	1.431935	0.172630	0.562995
C71	C	0.860929	-0.269777	0.058194
C72	C	1.360929	0.230223	0.558194
C73	C	0.788354	-0.306222	0.053285
C74	C	1.288354	0.193778	0.553285
C75	C	0.786794	-0.400261	0.053183
C76	C	1.286794	0.099739	0.553183
C77	C	1.006069	-0.196885	0.068000
C78	C	1.506069	0.303115	0.568000
C79	C	0.862492	-0.175732	0.058297
C80	C	1.362492	0.324268	0.558297
C81	C	1.075241	0.119371	0.072685
C82	C	1.575241	0.619371	0.572685
C83	C	1.162736	0.121359	0.078594
C84	C	1.662736	0.621359	0.578594
C85	C	0.925580	0.290421	0.062573
C86	C	1.425580	0.790421	0.562573
C87	C	0.927244	0.390507	0.062687
C88	C	1.427244	0.890507	0.562687
N89	N	0.920796	0.137403	0.278583
N90	N	1.420796	0.637403	0.778583
N91	N	0.941518	0.113806	-0.152690
N92	N	1.441518	0.613806	0.347310
C93	C	0.972237	0.078652	0.325753
C94	C	1.472237	0.578652	0.825753
C95	C	0.968064	0.083423	0.412878
C96	C	1.468064	0.583423	0.912878
C97	C	0.912453	0.146949	0.452831
C98	C	1.412453	0.646949	0.952831
C99	C	0.861006	0.205703	0.405655
C100	C	1.361006	0.705703	0.905655
C101	C	0.865176	0.200928	0.318531
C102	C	1.365176	0.700928	0.818531
C103	C	0.894240	0.167784	0.713010
C104	C	1.394240	0.667784	1.213010
C105	C	0.890076	0.172557	0.800140
C106	C	1.390076	0.672557	1.300140
C107	C	0.997134	0.050275	0.807357
C108	C	1.497134	0.550275	1.307357
C109	C	1.001301	0.045508	0.720232
C110	C	1.501301	0.545508	1.220232
C111	C	0.949852	0.104259	0.673063
C112	C	1.449852	0.604259	1.173063
N113	N	0.908188	0.151829	0.541887
N114	N	1.408188	0.651829	1.041887
N115	N	0.954113	0.099374	0.584009
N116	N	1.454113	0.599374	1.084009
H117	H	0.685355	0.137181	0.183662
H118	H	1.185355	0.637181	0.683662
H119	H	0.730541	-0.259317	0.049381
H120	H	1.230541	0.240683	0.549381
H121	H	1.057623	-0.619940	0.071507
H122	H	1.557623	-0.119940	0.571507
C123	C	1.033409	0.008771	0.281812
C124	C	1.533409	0.508771	0.781812
H125	H	1.063442	-0.025541	0.322386
H126	H	1.563442	0.474459	0.822386
H127	H	1.067878	0.039436	0.250033
H128	H	1.567878	0.539436	0.750033
H129	H	1.006639	-0.030711	0.245919
H130	H	1.506639	0.469289	0.745919
C131	C	0.837654	0.232415	0.661136
C132	C	1.337654	0.732415	1.161136
H133	H	0.803945	0.270938	0.697411
H134	H	1.303945	0.770938	1.197411
H135	H	0.806437	0.198025	0.624939
H136	H	1.306437	0.698025	1.124939
H137	H	0.867675	0.268171	0.629059
H138	H	1.367675	0.768171	1.129059
C139	C	1.085890	-0.156797	0.073401
C140	C	1.585890	0.343203	0.573401
H141	H	1.127955	-0.204566	0.076244
H142	H	1.627955	0.295434	0.576244
H143	H	1.087161	-0.117906	0.121907
H144	H	1.587161	0.382094	0.621907
H145	H	1.091808	-0.123199	0.025369
H146	H	1.591808	0.376801	0.525369
C147	C	0.538661	0.117346	-0.122544
C148	C	1.038661	0.617346	0.377456
H149	H	0.577076	0.115711	-0.165028
H150	H	1.077076	0.615711	0.334972
H151	H	0.500791	0.168973	-0.128242
H152	H	1.000791	0.668973	0.371758
H153	H	0.512695	0.063915	-0.127454
H154	H	1.012695	0.563915	0.372546
H155	H	0.804669	-0.128845	0.054384
H156	H	1.304669	0.371155	0.554384
H157	H	1.131757	-0.489457	0.076519
H158	H	1.631757	0.010543	0.576519
H159	H	0.163792	0.129030	0.215994
H160	H	0.663792	0.629030	0.715994
C161	C	0.323655	0.133876	0.248422
C162	C	0.823655	0.633876	0.748422
H163	H	0.379021	0.134544	0.241322
H164	H	0.879021	0.634544	0.741322
H165	H	0.314650	0.082741	0.278916
H166	H	0.814650	0.582741	0.778916
H167	H	0.302737	0.187798	0.278108
H168	H	0.802737	0.687798	0.778108
C169	C	1.155343	-0.308436	0.078093
C170	C	1.655343	0.191564	0.578093
H171	H	1.197407	-0.356207	0.080931
H172	H	1.697407	0.143793	0.580931
H173	H	1.156623	-0.269543	0.126597
H174	H	1.656623	0.230457	0.626597
H175	H	1.161254	-0.274841	0.030058
H176	H	1.661254	0.225159	0.530058
C177	C	1.024658	0.018805	0.464762
C178	C	1.524658	0.518805	0.964762
H179	H	1.058383	-0.019703	0.428490
H180	H	1.558383	0.480297	0.928490
H181	H	0.994650	-0.016954	0.496843
H182	H	1.494650	0.483046	0.996843
H183	H	1.055871	0.053212	0.500955
H184	H	1.555871	0.553212	1.000955
C185	C	0.711294	0.121277	-0.110876
C186	C	1.211294	0.621277	0.389124
H187	H	0.677198	0.117999	-0.158261
H188	H	1.177198	0.617999	0.341739
H189	H	0.749471	0.069312	-0.111445
H190	H	1.249471	0.569312	0.388555
H191	H	0.737555	0.174370	-0.112245
H192	H	1.237555	0.674370	0.387755
H193	H	1.046584	-0.006220	0.687704
H194	H	1.546584	0.493780	1.187704
H195	H	1.039021	0.002442	0.845770
H196	H	1.539021	0.502442	1.345770
C197	C	0.523439	0.134683	0.194344
C198	C	1.023439	0.634683	0.694344
H199	H	0.557534	0.137982	0.241728
H200	H	1.057534	0.637982	0.741728
H201	H	0.497175	0.081598	0.195722
H202	H	0.997175	0.581598	0.695722
H203	H	0.485263	0.186655	0.194907
H204	H	0.985263	0.686655	0.694907
H205	H	0.176947	0.114044	-0.057781
H206	H	0.676947	0.614044	0.442219
H207	H	0.727708	-0.429943	0.049187
H208	H	1.227708	0.070057	0.549187
C209	C	0.776412	-0.591984	0.052490
C210	C	1.276412	-0.091984	0.552490
H211	H	0.785646	-0.656239	0.053120
H212	H	1.285646	-0.156239	0.553120
H213	H	0.749490	-0.574867	0.002249
H214	H	1.249490	-0.074867	0.502249
H215	H	0.744856	-0.569586	0.098788
H216	H	1.244856	-0.069586	0.598788
C217	C	0.799837	0.275582	0.449601
C218	C	1.299837	0.775582	0.949601
H219	H	0.804726	0.270020	0.508245
H220	H	1.304726	0.770020	1.008245
H221	H	0.747911	0.264851	0.431783
H222	H	1.247911	0.764851	0.931783
H223	H	0.809149	0.334997	0.435896
H224	H	1.309149	0.834997	0.935896
H225	H	0.844788	0.224292	0.832666
H226	H	1.344788	0.724292	1.332666
C227	C	0.808593	0.265557	0.266644
C228	C	1.308593	0.765557	0.766644
H229	H	0.774881	0.304082	0.302916
H230	H	1.274881	0.804082	0.802916
H231	H	0.777379	0.231164	0.230448
H232	H	1.277379	0.731164	0.730448
H233	H	0.838615	0.301313	0.234568
H234	H	1.338615	0.801313	0.734568
H235	H	0.326084	0.117433	-0.047703
H236	H	0.826084	0.617433	0.452297
