data_functionalizedCrystal
_audit_creation_method	'MofGen! by Chris Wilmer'
_symmetry_space_group_name_H-M	'P1'
_symmetry_Int_Tables_number	1
_symmetry_cell_setting	triclinic
loop_
_symmetry_equiv_pos_as_xyz
  x,y,z
_cell_length_a	14.044220
_cell_length_b	14.044220
_cell_length_c	13.101039
_cell_angle_alpha	93.667477
_cell_angle_beta	86.340132
_cell_angle_gamma	93.188878
loop_
_atom_site_label
_atom_site_type_symbol
_atom_site_fract_x
_atom_site_fract_y
_atom_site_fract_z
O1	O	-1.281968	-0.225348	0.085109
O2	O	-0.781968	0.274652	0.585109
O3	O	-1.005298	-0.217041	0.085135
O4	O	-0.505298	0.282959	0.585135
O5	O	-1.139480	-0.082860	0.085112
O6	O	-0.639480	0.417140	0.585112
O7	O	-1.147787	-0.359530	0.085132
O8	O	-0.647787	0.140470	0.585132
O9	O	-1.129854	-0.092504	-0.085316
O10	O	-0.629854	0.407496	0.414684
O11	O	-0.995673	-0.226686	-0.085293
O12	O	-0.495673	0.273314	0.414707
O13	O	-1.272343	-0.234993	-0.085319
O14	O	-0.772343	0.265007	0.414681
Zn15	Zn	-1.132479	-0.232371	-0.112365
Zn16	Zn	-0.632479	0.267629	0.387635
Zn17	Zn	-1.145162	-0.219663	0.112181
Zn18	Zn	-0.645162	0.280337	0.612181
O19	O	-1.138161	-0.369175	-0.085296
O20	O	-0.638161	0.130825	0.414704
C21	C	-0.964864	-0.218228	-0.000076
C22	C	-0.464864	0.281772	0.499924
C23	C	-0.858722	-0.207383	-0.000066
C24	C	-0.358722	0.292617	0.499934
C25	C	-1.131031	-0.052060	-0.000102
C26	C	-0.631031	0.447940	0.499898
C27	C	-1.120187	0.054083	-0.000102
C28	C	-0.620187	0.554083	0.499898
C29	C	-1.312777	-0.233806	-0.000106
C30	C	-0.812777	0.266194	0.499894
C31	C	-1.418920	-0.244651	-0.000109
C32	C	-0.918920	0.255349	0.499891
C33	C	-0.664383	-0.187558	-0.000088
C34	C	-0.164383	0.312442	0.499912
C35	C	-0.613253	-0.264472	-0.000087
C36	C	-0.113253	0.235528	0.499913
C37	C	-0.505116	-0.253441	-0.000099
C38	C	-0.005116	0.246559	0.499901
C39	C	-0.772529	-0.198587	-0.000076
C40	C	-0.272529	0.301413	0.499924
C41	C	-1.146610	-0.399974	-0.000080
C42	C	-0.646610	0.100026	0.499920
C43	C	-1.157455	-0.506116	-0.000073
C44	C	-0.657455	-0.006116	0.499927
N45	N	-1.123831	-0.241043	-0.265612
N46	N	-0.623831	0.258957	0.234388
C47	C	-1.100362	0.248421	-0.000086
C48	C	-0.600362	0.748421	0.499914
C49	C	-1.177276	0.299551	-0.000090
C50	C	-0.677276	0.799551	0.499910
C51	C	-1.166245	0.407688	-0.000080
C52	C	-0.666245	0.907688	0.499920
C53	C	-1.111391	0.140275	-0.000095
C54	C	-0.611391	0.640275	0.499905
C55	C	-1.112065	-0.252851	-0.474653
C56	C	-0.612065	0.247149	0.025347
C57	C	-1.165580	-0.199179	-0.525538
C58	C	-0.665580	0.300821	-0.025538
C59	C	-1.159034	-0.205749	-0.641855
C60	C	-0.659034	0.294251	-0.141855
C61	C	-1.118610	-0.246282	-0.358325
C62	C	-0.618610	0.253718	0.141675
N63	N	-1.153817	-0.210984	0.265428
N64	N	-0.653817	0.289016	0.765428
H65	H	-0.650693	-0.338605	-0.000077
H66	H	-0.150693	0.161395	0.499923
C67	C	-0.561679	-0.071517	0.087521
C68	C	-0.061679	0.428483	0.587521
C69	C	-0.613850	-0.087484	-0.000088
C70	C	-0.113850	0.412516	0.499912
H71	H	-0.530480	-0.009734	0.087525
H72	H	-0.030480	0.490266	0.587525
H73	H	-0.515396	-0.118325	0.087507
H74	H	-0.015396	0.381675	0.587507
H75	H	-0.603786	-0.075650	0.146947
H76	H	-0.103786	0.424350	0.646947
H77	H	-0.571741	-0.083359	-0.059515
H78	H	-0.071741	0.416641	0.440485
H79	H	-0.660138	-0.040663	-0.000084
H80	H	-0.160138	0.459337	0.499916
H81	H	-1.251413	0.262115	-0.000028
H82	H	-0.751413	0.762115	0.499972
H83	H	-1.216314	-0.148295	-0.481744
H84	H	-0.716314	0.351705	0.018256
C85	C	-1.008595	0.397850	-0.000086
C86	C	-0.508595	0.897850	0.499914
C87	C	-1.000288	0.298955	-0.000085
C88	C	-0.500288	0.798955	0.499915
H89	H	-0.946813	0.429053	-0.000095
H90	H	-0.446813	0.929053	0.499905
H91	H	-1.045641	0.419143	0.059345
H92	H	-0.545641	0.919143	0.559345
H93	H	-1.038951	0.412422	-0.059519
H94	H	-0.538951	0.912422	0.440481
H95	H	-0.969938	0.284383	0.059353
H96	H	-0.469938	0.784383	0.559353
H97	H	-0.963228	0.277654	-0.059522
H98	H	-0.463228	0.777654	0.440478
H99	H	-1.061336	-0.303733	-0.518442
H100	H	-0.561336	0.196267	-0.018442
