data_functionalizedCrystal
_audit_creation_method	'MofGen! by Chris Wilmer'
_symmetry_space_group_name_H-M	'P1'
_symmetry_Int_Tables_number	1
_symmetry_cell_setting	triclinic
loop_
_symmetry_equiv_pos_as_xyz
  x,y,z
_cell_length_a	10.967926
_cell_length_b	10.268362
_cell_length_c	11.026607
_cell_angle_alpha	90.004351
_cell_angle_beta	83.619246
_cell_angle_gamma	102.128526
loop_
_atom_site_label
_atom_site_type_symbol
_atom_site_fract_x
_atom_site_fract_y
_atom_site_fract_z
O1	O	1.693971	0.271885	-0.170499
O2	O	2.193971	0.771885	0.329501
O3	O	1.334345	0.191171	-0.186826
O4	O	1.834345	0.691171	0.313174
O5	O	1.484353	0.224843	-0.001762
O6	O	1.984353	0.724843	0.498238
O7	O	1.543963	0.238213	-0.355564
O8	O	2.043963	0.738213	0.144436
O9	O	1.484348	0.441443	-0.001751
O10	O	1.984348	0.941443	0.498249
O11	O	1.334340	0.407771	-0.186816
O12	O	1.834340	0.907771	0.313184
O13	O	1.693966	0.488485	-0.170489
O14	O	2.193966	0.988485	0.329511
Cu15	Cu	1.514153	0.467905	-0.178651
Cu16	Cu	2.014153	0.967905	0.321349
Cu17	Cu	1.514158	0.211751	-0.178664
Cu18	Cu	2.014158	0.711751	0.321336
O19	O	1.543959	0.454812	-0.355553
O20	O	2.043959	0.954812	0.144447
C21	C	1.287587	0.288977	-0.185634
C22	C	1.787587	0.788977	0.314366
C23	C	1.148267	0.257709	-0.182082
C24	C	1.648267	0.757709	0.317918
C25	C	1.086151	0.355973	-0.180493
C26	C	1.586151	0.855973	0.319507
C27	C	0.942157	0.323658	-0.176822
C28	C	1.442157	0.823658	0.323178
N29	N	1.514161	0.031586	-0.178664
N30	N	2.014161	0.531586	0.321336
C31	C	1.514156	-0.234086	-0.178657
C32	C	2.014156	0.265914	0.321343
C33	C	1.514156	-0.086248	-0.178665
C34	C	2.014156	0.413752	0.321335
C35	C	1.740724	0.390676	-0.171681
C36	C	2.240724	0.890676	0.328319
C37	C	1.880044	0.421936	-0.175233
C38	C	2.380044	0.921936	0.324767
C39	C	1.473353	0.330673	0.043545
C40	C	1.973353	0.830673	0.543545
C41	C	1.440570	0.323311	0.178532
C42	C	1.940570	0.823311	0.678532
N43	N	1.514158	0.648072	-0.178641
N44	N	2.014158	1.148072	0.321359
C45	C	1.554958	0.348980	-0.400861
C46	C	2.054958	0.848980	0.099139
C47	C	1.587741	0.356333	-0.535847
C48	C	2.087741	0.856333	-0.035847
C49	C	1.531089	0.343625	0.251585
C50	C	2.031089	0.843625	0.751585
C51	C	1.497209	0.336016	0.391101
C52	C	1.997209	0.836016	0.891101
H53	H	0.888738	0.215599	-0.175462
H54	H	1.388738	0.715599	0.324538
H55	H	0.933461	0.529995	-0.176586
H56	H	1.433461	1.029995	0.323414
H57	H	1.094843	0.149657	-0.180722
H58	H	1.594843	0.649657	0.319278
Br59	Br	1.326223	0.297622	0.458991
Br60	Br	1.826223	0.797622	0.958991
H61	H	1.633669	0.366656	0.210841
H62	H	2.133669	0.866656	0.710841
H63	H	1.690328	0.379260	0.423416
H64	H	2.190328	0.879260	0.923416
H65	H	1.337991	0.300280	0.219276
H66	H	1.837991	0.800280	0.719276
H67	H	1.139574	0.464024	-0.181843
H68	H	1.639574	0.964024	0.318157
