data_functionalizedCrystal
_audit_creation_method	'MofGen! by Chris Wilmer'
_symmetry_space_group_name_H-M	'P1'
_symmetry_Int_Tables_number	1
_symmetry_cell_setting	triclinic
loop_
_symmetry_equiv_pos_as_xyz
  x,y,z
_cell_length_a	13.033293
_cell_length_b	16.120444
_cell_length_c	13.032268
_cell_angle_alpha	99.643348
_cell_angle_beta	89.079182
_cell_angle_gamma	100.431871
loop_
_atom_site_label
_atom_site_type_symbol
_atom_site_fract_x
_atom_site_fract_y
_atom_site_fract_z
Zn1	Zn	1.479894	-0.262707	-0.795796
Zn2	Zn	1.813227	0.070626	-0.462463
Zn3	Zn	2.146560	0.403960	-0.129129
Zn4	Zn	1.493060	-0.384053	-0.630435
Zn5	Zn	1.826393	-0.050720	-0.297101
Zn6	Zn	2.159726	0.282613	0.036232
Zn7	Zn	1.330069	-0.258248	-0.601729
Zn8	Zn	1.663402	0.075085	-0.268395
Zn9	Zn	1.996736	0.408419	0.064938
Zn10	Zn	1.296822	-0.419254	-0.782392
Zn11	Zn	1.630156	-0.085921	-0.449059
Zn12	Zn	1.963489	0.247413	-0.115726
O13	O	1.399961	-0.331066	-0.702588
O14	O	1.733294	0.002268	-0.369255
O15	O	2.066628	0.335601	-0.035921
O16	O	1.626468	-0.265939	-0.791483
O17	O	1.959802	0.067395	-0.458150
O18	O	2.293135	0.400728	-0.124817
O19	O	1.490862	-0.350767	-0.481814
O20	O	1.824196	-0.017434	-0.148481
O21	O	2.157529	0.315899	0.184853
O22	O	1.358348	-0.140674	-0.621068
O23	O	1.691681	0.192659	-0.287735
O24	O	2.025014	0.525993	0.045599
O25	O	1.636141	-0.355091	-0.669993
O26	O	1.969474	-0.021758	-0.336660
O27	O	2.302808	0.311576	-0.003326
O28	O	1.468423	-0.143950	-0.763649
O29	O	1.801756	0.189383	-0.430315
O30	O	2.135090	0.522717	-0.096982
O31	O	1.371114	-0.258339	-0.460724
O32	O	1.704447	0.074995	-0.127390
O33	O	2.037781	0.408328	0.205943
O34	O	1.180831	-0.292471	-0.608071
O35	O	1.514164	0.040862	-0.274738
O36	O	1.847497	0.374195	0.058595
O37	O	1.301683	-0.415085	-0.928983
O38	O	1.635017	-0.081752	-0.595650
O39	O	1.968350	0.251581	-0.262317
O40	O	1.156404	-0.410762	-0.740804
O41	O	1.489738	-0.077428	-0.407471
O42	O	1.823071	0.255905	-0.074137
O43	O	1.436185	-0.300071	-0.938831
O44	O	1.769518	0.033262	-0.605497
O45	O	2.102852	0.366596	-0.272164
O46	O	1.458624	-0.506888	-0.656996
O47	O	1.791958	-0.173555	-0.323663
O48	O	2.125291	0.159778	0.009671
O49	O	1.314450	-0.532750	-0.768639
O50	O	1.647783	-0.199417	-0.435306
O51	O	1.981116	0.133917	-0.101972
C52	C	1.131065	-0.354953	-0.669869
C53	C	1.464398	-0.021620	-0.336536
C54	C	1.797732	0.311714	-0.003202
C55	C	1.016026	-0.365195	-0.655897
C56	C	1.349359	-0.031862	-0.322564
C57	C	1.682692	0.301472	0.010769
C58	C	0.959932	-0.325741	-0.709881
C59	C	1.293266	0.007592	-0.376548
C60	C	1.626599	0.340925	-0.043214
C61	C	0.841033	-0.336326	-0.695442
C62	C	1.174366	-0.002993	-0.362108
C63	C	1.507699	0.330340	-0.028775
C64	C	1.384383	-0.550458	-0.714504
C65	C	1.717716	-0.217125	-0.381171
C66	C	2.051050	0.116209	-0.047837
C67	C	1.377809	-0.644311	-0.719648
C68	C	1.711142	-0.310977	-0.386315
C69	C	2.044475	0.022356	-0.052981
C70	C	1.434289	-0.845131	-0.676157
C71	C	1.767623	-0.511798	-0.342824
C72	C	2.100956	-0.178464	-0.009491
C73	C	1.365823	-0.816133	-0.729053
C74	C	1.699156	-0.482800	-0.395719
C75	C	2.032490	-0.149467	-0.062386
C76	C	1.372494	-0.720522	-0.723818
C77	C	1.705827	-0.387189	-0.390485
C78	C	2.039161	-0.053855	-0.057152
C79	C	1.427620	-0.940750	-0.681390
C80	C	1.760954	-0.607417	-0.348057
C81	C	2.094287	-0.274084	-0.014724
C82	C	1.669907	-0.307086	-0.735435
C83	C	2.003240	0.026248	-0.402102
C84	C	2.336574	0.359581	-0.068769
C85	C	1.784942	-0.296867	-0.749433
C86	C	2.118275	0.036466	-0.416100
C87	C	2.451608	0.369800	-0.082766
C88	C	1.363757	-0.362002	-0.972505
C89	C	1.697090	-0.028669	-0.639172
C90	C	2.030424	0.304664	-0.305839
C91	C	1.348329	-0.375185	-1.087528
C92	C	1.681662	-0.041852	-0.754195
C93	C	2.014995	0.291481	-0.420861
C94	C	1.415625	-0.110816	-0.690651
C95	C	1.748959	0.222517	-0.357318
C96	C	2.082292	0.555850	-0.023985
C97	C	1.422300	-0.016959	-0.685565
C98	C	1.755634	0.316374	-0.352231
C99	C	2.088967	0.649707	-0.018898
C100	C	1.407999	-0.324156	-1.143681
C101	C	1.741333	0.009177	-0.810348
C102	C	2.074666	0.342510	-0.477014
C103	C	1.392055	-0.337781	-1.262563
C104	C	1.725388	-0.004447	-0.929230
C105	C	2.058722	0.328886	-0.595896
C106	C	1.436088	-0.300183	-0.433725
C107	C	1.769422	0.033150	-0.100391
C108	C	2.102755	0.366483	0.232942
C109	C	1.451734	-0.286744	-0.318714
C110	C	1.785067	0.046589	0.014619
C111	C	2.118400	0.379922	0.347953
H112	H	0.801036	-0.377941	-0.638528
H113	H	1.134370	-0.044608	-0.305195
H114	H	1.467703	0.288725	0.028138
H115	H	1.470886	-0.270379	-1.103743
H116	H	1.804219	0.062954	-0.770410
H117	H	2.137552	0.396288	-0.437077
N118	N	1.285983	-0.875062	-0.790771
N119	N	1.619316	-0.541729	-0.457437
N120	N	1.952649	-0.208395	-0.124104
N121	N	1.192086	-0.873061	-0.771672
N122	N	1.525420	-0.539727	-0.438339
N123	N	1.858753	-0.206394	-0.105006
H124	H	1.135697	-0.914681	-0.815255
H125	H	1.469030	-0.581348	-0.481921
H126	H	1.802363	-0.248015	-0.148588
H127	H	1.497910	-0.798155	-0.626943
H128	H	1.831244	-0.464822	-0.293610
H129	H	2.164577	-0.131488	0.039723
H130	H	1.329154	-0.391554	-1.302495
H131	H	1.662488	-0.058221	-0.969161
H132	H	1.995821	0.275113	-0.635828
H133	H	1.514623	-0.232962	-1.278782
H134	H	1.847957	0.100372	-0.945448
H135	H	2.181290	0.433705	-0.612115
H136	H	0.824938	-0.255245	-0.806339
H137	H	1.158272	0.078089	-0.473006
H138	H	1.491605	0.411422	-0.139672
N139	N	1.269428	-0.442637	-1.137633
N140	N	1.602761	-0.109304	-0.804299
N141	N	1.936094	0.224029	-0.470966
N142	N	1.256584	-0.453607	-1.234133
N143	N	1.589917	-0.120273	-0.900800
N144	N	1.923250	0.213060	-0.567466
H145	H	1.200857	-0.501245	-1.269519
H146	H	1.534190	-0.167912	-0.936186
H147	H	1.867524	0.165421	-0.602852
H148	H	0.999934	-0.284124	-0.766784
H149	H	1.333268	0.049210	-0.433451
H150	H	1.666601	0.382543	-0.100117
N151	N	0.965841	-0.417390	-0.584499
N152	N	1.299174	-0.084056	-0.251166
N153	N	1.632507	0.249277	0.082167
N154	N	0.869326	-0.425910	-0.572866
N155	N	1.202660	-0.092577	-0.239533
N156	N	1.535993	0.240757	0.093800
H157	H	0.833884	-0.462772	-0.522439
H158	H	1.167217	-0.129439	-0.189105
H159	H	1.500550	0.203894	0.144228
