data_functionalizedCrystal
_audit_creation_method	'MofGen! by Chris Wilmer'
_symmetry_space_group_name_H-M	'P1'
_symmetry_Int_Tables_number	1
_symmetry_cell_setting	triclinic
loop_
_symmetry_equiv_pos_as_xyz
  x,y,z
_cell_length_a	16.109301
_cell_length_b	26.809956
_cell_length_c	16.109301
_cell_angle_alpha	89.997081
_cell_angle_beta	83.461481
_cell_angle_gamma	90.006107
loop_
_atom_site_label
_atom_site_type_symbol
_atom_site_fract_x
_atom_site_fract_y
_atom_site_fract_z
O1	O	1.103138	0.041450	0.106855
O2	O	1.603138	0.541450	0.606855
O3	O	0.861076	0.041458	0.120155
O4	O	1.361076	0.541458	0.620155
O5	O	0.988757	0.041448	-0.007526
O6	O	1.488757	0.541448	0.492474
O7	O	0.975458	0.041459	0.234536
O8	O	1.475458	0.541459	0.734536
O9	O	0.988733	-0.041511	-0.007506
O10	O	1.488733	0.458489	0.492494
O11	O	0.861052	-0.041501	0.120174
O12	O	1.361052	0.458499	0.620174
O13	O	1.103114	-0.041510	0.106875
O14	O	1.603114	0.458490	0.606875
Zn15	Zn	0.982079	-0.054677	0.113528
Zn16	Zn	1.482079	0.445323	0.613528
Zn17	Zn	0.982111	0.054625	0.113502
Zn18	Zn	1.482111	0.554625	0.613502
O19	O	0.975434	-0.041500	0.234556
O20	O	1.475434	0.458500	0.734556
C21	C	0.830090	-0.000021	0.119626
C22	C	1.330090	0.499979	0.619626
C23	C	0.737794	-0.000018	0.118011
C24	C	1.237794	0.499982	0.618011
N25	N	0.982064	-0.129273	0.113545
N26	N	1.482064	0.370727	0.613545
C27	C	0.515522	-0.000021	0.190018
C28	C	1.015522	0.499979	0.690018
C29	C	0.428801	-0.000024	0.188494
C30	C	0.928801	0.499976	0.688494
C31	C	0.448676	-0.000028	0.037006
C32	C	0.948676	0.499972	0.537006
C33	C	0.535394	-0.000029	0.038530
C34	C	1.035394	0.499971	0.538530
C35	C	0.568815	-0.000022	0.115039
C36	C	1.068815	0.499978	0.615039
C37	C	0.395376	-0.000025	0.111990
C38	C	0.895376	0.499975	0.611990
C39	C	0.301350	-0.000029	0.110337
C40	C	0.801350	0.499971	0.610337
C41	C	0.662847	-0.000020	0.116693
C42	C	1.162847	0.499980	0.616693
C43	C	1.038641	-0.473903	0.056979
C44	C	1.538641	0.026097	0.556979
C45	C	1.038661	-0.682781	0.056966
C46	C	1.538661	-0.182781	0.556966
O47	O	1.086731	-0.709788	0.008877
O48	O	1.586731	-0.209788	0.508877
N49	N	0.982116	-0.708900	0.113484
N50	N	1.482116	-0.208900	0.613484
C51	C	0.925558	-0.682797	0.170005
C52	C	1.425558	-0.182797	0.670005
O53	O	0.877458	-0.709806	0.218070
O54	O	1.377458	-0.209806	0.718070
C55	C	0.925535	-0.473920	0.170013
C56	C	1.425535	0.026080	0.670013
C57	C	0.982089	-0.447804	0.113497
C58	C	1.482089	0.052196	0.613497
C59	C	1.095190	-0.447787	0.000468
C60	C	1.595190	0.052213	0.500468
C61	C	1.095188	-0.395570	0.000474
C62	C	1.595188	0.104430	0.500474
C63	C	1.038636	-0.369471	0.056993
C64	C	1.538636	0.130529	0.556993
C65	C	0.982087	-0.395587	0.113504
C66	C	1.482087	0.104413	0.613504
C67	C	0.868974	-0.447818	0.226529
C68	C	1.368974	0.052182	0.726529
C69	C	0.868972	-0.395595	0.226524
C70	C	1.368972	0.104405	0.726524
C71	C	0.925526	-0.369479	0.170009
C72	C	1.425526	0.130521	0.670009
C73	C	0.925533	-0.317271	0.170029
C74	C	1.425533	0.182729	0.670029
N75	N	0.982078	-0.291152	0.113512
N76	N	1.482078	0.208848	0.613512
C77	C	1.038630	-0.317252	0.056993
C78	C	1.538630	0.182748	0.556993
C79	C	0.925575	-0.792460	0.169997
C80	C	1.425575	-0.292460	0.669997
C81	C	0.925582	-0.844679	0.169997
C82	C	1.425582	-0.344679	0.669997
C83	C	1.038684	-0.844660	0.056957
C84	C	1.538684	-0.344660	0.556957
C85	C	1.038680	-0.792440	0.056963
C86	C	1.538680	-0.292440	0.556963
C87	C	0.982120	-0.766341	0.113480
C88	C	1.482120	-0.266341	0.613480
C89	C	1.038621	-0.207594	0.057012
C90	C	1.538621	0.292406	0.557012
C91	C	1.038615	-0.155373	0.057026
C92	C	1.538615	0.344627	0.557026
C93	C	0.925511	-0.155397	0.170063
C94	C	1.425511	0.344603	0.670063
C95	C	0.925519	-0.207613	0.170052
C96	C	1.425519	0.292387	0.670052
C97	C	0.982077	-0.233710	0.113520
C98	C	1.482077	0.266290	0.613520
O99	O	0.877482	-0.290232	0.218087
O100	O	1.377482	0.209768	0.718087
O101	O	1.086710	-0.290234	0.008923
O102	O	1.586710	0.209766	0.508923
C103	C	1.038643	-0.526120	0.056972
C104	C	1.538643	-0.026120	0.556972
C105	C	0.982094	-0.552236	0.113484
C106	C	1.482094	-0.052236	0.613484
C107	C	0.925543	-0.526136	0.170002
C108	C	1.425543	-0.026136	0.670002
C109	C	0.982101	-0.604455	0.113483
C110	C	1.482101	-0.104455	0.613483
C111	C	1.038652	-0.630555	0.056965
C112	C	1.538652	-0.130555	0.556965
C113	C	1.095197	-0.604436	0.000447
C114	C	1.595197	-0.104436	0.500447
C115	C	1.095195	-0.552219	0.000454
C116	C	1.595195	-0.052219	0.500454
C117	C	0.868998	-0.552256	0.226519
C118	C	1.368998	-0.052256	0.726519
C119	C	0.869006	-0.604472	0.226508
C120	C	1.369006	-0.104472	0.726508
C121	C	0.925557	-0.630572	0.169990
C122	C	1.425557	-0.130572	0.669990
C123	C	1.134101	-0.000030	0.107404
C124	C	1.634101	0.499970	0.607404
C125	C	1.226397	-0.000030	0.109019
C126	C	1.726397	0.499970	0.609019
C127	C	0.988206	-0.000031	-0.038491
C128	C	1.488206	0.499969	0.461509
C129	C	0.986591	-0.000032	-0.130786
C130	C	1.486591	0.499968	0.369214
N131	N	0.982133	0.129221	0.113478
N132	N	1.482133	0.629221	0.613478
C133	C	1.058599	-0.000027	-0.353059
C134	C	1.558599	0.499973	0.146941
C135	C	1.057075	-0.000022	-0.439779
C136	C	1.557075	0.499978	0.060221
C137	C	0.905586	-0.000019	-0.419905
C138	C	1.405586	0.499981	0.080095
C139	C	0.907111	-0.000020	-0.333186
C140	C	1.407111	0.499980	0.166814
C141	C	0.983620	-0.000026	-0.299766
C142	C	1.483620	0.499974	0.200234
C143	C	0.980571	-0.000021	-0.473205
C144	C	1.480571	0.499979	0.026795
C145	C	0.978918	-0.000017	-0.567231
C146	C	1.478918	0.499983	-0.067231
C147	C	0.985273	-0.000030	-0.205734
C148	C	1.485273	0.499970	0.294266
C149	C	0.975984	-0.000019	0.265521
C150	C	1.475984	0.499981	0.765521
C151	C	0.977600	-0.000015	0.357816
C152	C	1.477600	0.499985	0.857816
H153	H	0.542730	-0.000019	0.252317
H154	H	1.042730	0.499981	0.752317
H155	H	0.846050	-0.000018	-0.289792
H156	H	1.346050	0.499982	0.210208
H157	H	1.120897	-0.000031	-0.325851
H158	H	1.620897	0.499969	0.174149
H159	H	0.385413	-0.000023	0.249550
H160	H	0.885413	0.499977	0.749550
O161	O	0.831342	-0.000040	-0.452510
O162	O	1.331342	0.499960	0.047490
C163	C	0.846072	-0.000029	-0.540478
C164	C	1.346072	0.499971	-0.040478
H165	H	0.910955	-0.015735	-0.560860
H166	H	1.410955	0.484265	-0.060860
H167	H	0.797114	-0.024115	-0.567086
H168	H	1.297114	0.475885	-0.067086
H169	H	0.842056	0.039770	-0.564622
H170	H	1.342056	0.539770	-0.064622
O171	O	1.149995	-0.370113	-0.054423
O172	O	1.649995	0.129887	0.445577
C173	C	1.201286	-0.339793	-0.010084
C174	C	1.701286	0.160207	0.489916
H175	H	1.203009	-0.355526	0.055442
H176	H	1.703009	0.144474	0.555442
H177	H	1.267270	-0.339068	-0.044226
H178	H	1.767270	0.160932	0.455774
H179	H	1.175054	-0.300270	-0.005616
H180	H	1.675054	0.199730	0.494384
H181	H	0.879516	-0.771214	0.216023
H182	H	1.379516	-0.271214	0.716023
H183	H	0.421454	-0.000037	-0.025285
H184	H	0.921454	0.499963	0.474715
O185	O	0.587135	0.000059	-0.034331
O186	O	1.087135	0.500059	0.465669
C187	C	0.571988	0.043017	-0.080801
C188	C	1.071988	0.543017	0.419199
H189	H	0.542340	0.073049	-0.036910
H190	H	1.042340	0.573049	0.463090
H191	H	0.633530	0.057437	-0.114156
H192	H	1.133530	0.557437	0.385844
H193	H	0.527848	0.033302	-0.128915
H194	H	1.027848	0.533302	0.371085
H195	H	1.084672	-0.134110	0.011005
H196	H	1.584672	0.365890	0.511005
H197	H	0.822912	-0.374348	0.272547
H198	H	1.322912	0.125652	0.772547
H199	H	1.084674	-0.228836	0.010978
H200	H	1.584674	0.271164	0.510978
H201	H	0.879470	-0.134138	0.216082
H202	H	1.379470	0.365862	0.716082
H203	H	1.141247	-0.530959	-0.045566
H204	H	1.641247	-0.030959	0.454434
H205	H	1.084731	-0.771179	0.010943
H206	H	1.584731	-0.271179	0.510943
O207	O	1.150211	-0.473058	-0.054468
O208	O	1.650211	0.026942	0.445532
C209	C	1.200098	-0.438799	-0.104353
C210	C	1.700098	0.061201	0.395647
H211	H	1.201005	-0.401578	-0.070256
H212	H	1.701005	0.098422	0.429744
H213	H	1.266503	-0.453870	-0.117013
H214	H	1.766503	0.046130	0.382987
H215	H	1.173128	-0.433245	-0.166127
H216	H	1.673128	0.066755	0.333873
H217	H	1.118130	-0.000022	-0.483168
H218	H	1.618130	0.499978	0.016832
H219	H	0.822922	-0.469074	0.272548
H220	H	1.322922	0.030926	0.772548
O221	O	1.093535	-0.870095	0.002082
O222	O	1.593535	-0.370095	0.502082
C223	C	1.081420	-0.921784	0.014221
C224	C	1.581420	-0.421784	0.514221
H225	H	1.015317	-0.928917	0.045286
H226	H	1.515317	-0.428917	0.545286
H227	H	1.090678	-0.941630	-0.048737
H228	H	1.590678	-0.441630	0.451263
H229	H	1.128469	-0.936601	0.055930
H230	H	1.628469	-0.436601	0.555930
O231	O	0.870571	-0.869968	0.224933
O232	O	1.370571	-0.369968	0.724933
C233	C	0.820673	-0.835728	0.274825
C234	C	1.320673	-0.335728	0.774825
H235	H	0.819748	-0.798504	0.240734
H236	H	1.319748	-0.298504	0.740734
H237	H	0.754274	-0.850819	0.287488
H238	H	1.254274	-0.350819	0.787488
H239	H	0.847645	-0.830173	0.336598
H240	H	1.347645	-0.330173	0.836598
O241	O	1.150016	-0.629817	-0.054539
O242	O	1.650016	-0.129817	0.445461
C243	C	1.105498	-0.660032	-0.105824
C244	C	1.605498	-0.160032	0.394176
H245	H	1.039938	-0.644295	-0.107246
H246	H	1.539938	-0.144295	0.392754
H247	H	1.139434	-0.660625	-0.171900
H248	H	1.639434	-0.160625	0.328100
H249	H	1.101126	-0.699608	-0.079800
H250	H	1.601126	-0.199608	0.420200
H251	H	0.822954	-0.625732	0.272537
H252	H	1.322954	-0.125732	0.772537
O253	O	0.870503	-0.232908	0.224980
O254	O	1.370503	0.267092	0.724980
C255	C	0.820605	-0.198672	0.274880
C256	C	1.320605	0.301328	0.774880
H257	H	0.819688	-0.161443	0.240802
H258	H	1.319688	0.338557	0.740802
H259	H	0.754204	-0.213760	0.287530
H260	H	1.254204	0.286240	0.787530
H261	H	0.847570	-0.193127	0.336659
H262	H	1.347570	0.306873	0.836659
H263	H	0.822946	-0.531009	0.272542
H264	H	1.322946	-0.031009	0.772542
