data_functionalizedCrystal
_audit_creation_method	'MofGen! by Chris Wilmer'
_symmetry_space_group_name_H-M	'P1'
_symmetry_Int_Tables_number	1
_symmetry_cell_setting	triclinic
loop_
_symmetry_equiv_pos_as_xyz
  x,y,z
_cell_length_a	21.395362
_cell_length_b	18.101397
_cell_length_c	21.395355
_cell_angle_alpha	90.019934
_cell_angle_beta	90.043940
_cell_angle_gamma	90.036343
loop_
_atom_site_label
_atom_site_type_symbol
_atom_site_fract_x
_atom_site_fract_y
_atom_site_fract_z
Zn1	Zn	0.957904	-0.294601	0.354579
Zn2	Zn	1.207904	-0.044601	0.604579
Zn3	Zn	1.457904	0.205399	0.854579
Zn4	Zn	1.707904	0.455399	1.104579
Zn5	Zn	0.957825	-0.418425	0.249799
Zn6	Zn	1.207825	-0.168425	0.499799
Zn7	Zn	1.457825	0.081575	0.749799
Zn8	Zn	1.707825	0.331575	0.999799
Zn9	Zn	0.853119	-0.294636	0.249781
Zn10	Zn	1.103119	-0.044636	0.499781
Zn11	Zn	1.353119	0.205364	0.749781
Zn12	Zn	1.603119	0.455364	0.999781
Zn13	Zn	0.853107	-0.418440	0.354504
Zn14	Zn	1.103107	-0.168440	0.604504
Zn15	Zn	1.353107	0.081560	0.854504
Zn16	Zn	1.603107	0.331560	1.104504
O17	O	0.905489	-0.356526	0.302166
O18	O	1.155489	-0.106526	0.552166
O19	O	1.405489	0.143474	0.802166
O20	O	1.655489	0.393474	1.052166
O21	O	1.045572	-0.311006	0.340720
O22	O	1.295572	-0.061006	0.590720
O23	O	1.545572	0.188994	0.840720
O24	O	1.795572	0.438994	1.090720
O25	O	0.943908	-0.402012	0.162119
O26	O	1.193908	-0.152012	0.412119
O27	O	1.443908	0.097988	0.662119
O28	O	1.693908	0.347988	0.912119
O29	O	0.867057	-0.190998	0.263706
O30	O	1.117057	0.059002	0.513706
O31	O	1.367057	0.309002	0.763706
O32	O	1.617057	0.559002	1.013706
O33	O	1.045514	-0.401979	0.263738
O34	O	1.295514	-0.151979	0.513738
O35	O	1.545514	0.098021	0.763738
O36	O	1.795514	0.348021	1.013738
O37	O	0.944042	-0.190973	0.340701
O38	O	1.194042	0.059027	0.590701
O39	O	1.444042	0.309027	0.840701
O40	O	1.694042	0.559027	1.090701
O41	O	0.866981	-0.311065	0.162105
O42	O	1.116981	-0.061065	0.412105
O43	O	1.366981	0.188935	0.662105
O44	O	1.616981	0.438935	0.912105
O45	O	0.765439	-0.311080	0.263633
O46	O	1.015439	-0.061080	0.513633
O47	O	1.265439	0.188920	0.763633
O48	O	1.515439	0.438920	1.013633
O49	O	0.867036	-0.402005	0.442192
O50	O	1.117036	-0.152005	0.692192
O51	O	1.367036	0.097995	0.942192
O52	O	1.617036	0.347995	1.192192
O53	O	0.765431	-0.402038	0.340573
O54	O	1.015431	-0.152038	0.590573
O55	O	1.265431	0.097962	0.840573
O56	O	1.515431	0.347962	1.090573
O57	O	0.944030	-0.311021	0.442247
O58	O	1.194030	-0.061021	0.692247
O59	O	1.444030	0.188979	0.942247
O60	O	1.694030	0.438979	1.192247
O61	O	0.943896	-0.522060	0.263665
O62	O	1.193896	-0.272060	0.513665
O63	O	1.443896	-0.022060	0.763665
O64	O	1.693896	0.227940	1.013665
O65	O	0.866960	-0.522071	0.340591
O66	O	1.116960	-0.272071	0.590591
O67	O	1.366960	-0.022071	0.840591
O68	O	1.616960	0.227929	1.090591
C69	C	0.742701	-0.356565	0.302093
C70	C	0.992701	-0.106565	0.552093
C71	C	1.242701	0.143435	0.802093
C72	C	1.492701	0.393435	1.052093
C73	C	0.673060	-0.356599	0.302077
C74	C	0.923060	-0.106599	0.552077
C75	C	1.173060	0.143401	0.802077
C76	C	1.423060	0.393401	1.052077
C77	C	0.905435	-0.548936	0.302136
C78	C	1.155435	-0.298936	0.552136
C79	C	1.405435	-0.048936	0.802136
C80	C	1.655435	0.201064	1.052136
C81	C	0.905470	-0.631250	0.302144
C82	C	1.155470	-0.381250	0.552144
C83	C	1.405470	-0.131250	0.802144
C84	C	1.655470	0.118750	1.052144
C85	C	0.640359	-0.404024	0.342080
C86	C	0.890359	-0.154024	0.592080
C87	C	1.140359	0.095976	0.842080
C88	C	1.390359	0.345976	1.092080
C89	C	0.574923	-0.404006	0.342107
C90	C	0.824923	-0.154006	0.592107
C91	C	1.074923	0.095994	0.842107
C92	C	1.324923	0.345994	1.092107
C93	C	0.542192	-0.356571	0.302122
C94	C	0.792192	-0.106571	0.552122
C95	C	1.042192	0.143429	0.802122
C96	C	1.292192	0.393429	1.052122
C97	C	0.574901	-0.309137	0.262116
C98	C	0.824901	-0.059137	0.512116
C99	C	1.074901	0.190863	0.762116
C100	C	1.324901	0.440863	1.012116
C101	C	0.640335	-0.309151	0.262094
C102	C	0.890335	-0.059151	0.512094
C103	C	1.140335	0.190849	0.762094
C104	C	1.390335	0.440849	1.012094
C105	C	0.438466	-0.350605	0.245717
C106	C	0.688466	-0.100605	0.495717
C107	C	0.938466	0.149395	0.745717
C108	C	1.188466	0.399395	0.995717
C109	C	0.373033	-0.350596	0.245738
C110	C	0.623033	-0.100596	0.495738
C111	C	0.873033	0.149404	0.745738
C112	C	1.123033	0.399404	0.995738
C113	C	0.340371	-0.356522	0.302191
C114	C	0.590371	-0.106522	0.552191
C115	C	0.840371	0.143478	0.802191
C116	C	1.090371	0.393478	1.052191
C117	C	0.373150	-0.362474	0.358624
C118	C	0.623150	-0.112474	0.608624
C119	C	0.873150	0.137526	0.858624
C120	C	1.123150	0.387526	1.108624
C121	C	0.438584	-0.362488	0.358602
C122	C	0.688584	-0.112488	0.608602
C123	C	0.938584	0.137512	0.858602
C124	C	1.188584	0.387512	1.108602
C125	C	0.471239	-0.356550	0.302142
C126	C	0.721239	-0.106550	0.552142
C127	C	0.971239	0.143450	0.802142
C128	C	1.221239	0.393450	1.052142
C129	C	0.236717	-0.403930	0.342227
C130	C	0.486717	-0.153930	0.592227
C131	C	0.736717	0.096070	0.842227
C132	C	0.986717	0.346070	1.092227
C133	C	0.171280	-0.403907	0.342256
C134	C	0.421280	-0.153907	0.592256
C135	C	0.671280	0.096093	0.842256
C136	C	0.921280	0.346093	1.092256
C137	C	0.171259	-0.309042	0.262259
C138	C	0.421259	-0.059042	0.512259
C139	C	0.671259	0.190958	0.762259
C140	C	0.921259	0.440958	1.012259
C141	C	0.236695	-0.309061	0.262236
C142	C	0.486695	-0.059061	0.512236
C143	C	0.736695	0.190939	0.762236
C144	C	0.986695	0.440939	1.012236
C145	C	0.269420	-0.356509	0.302219
C146	C	0.519420	-0.106509	0.552219
C147	C	0.769420	0.143491	0.802219
C148	C	1.019420	0.393491	1.052219
C149	C	0.905550	-0.930341	0.302201
C150	C	1.155550	-0.680341	0.552201
C151	C	1.405550	-0.430341	0.802201
C152	C	1.655550	-0.180341	1.052201
C153	C	0.953821	-0.898978	0.253671
C154	C	1.203821	-0.648978	0.503671
C155	C	1.453821	-0.398978	0.753671
C156	C	1.703821	-0.148978	1.003671
C157	C	0.953988	-0.813359	0.253797
C158	C	1.203988	-0.563359	0.503797
C159	C	1.453988	-0.313359	0.753797
C160	C	1.703988	-0.063359	1.003797
C161	C	0.905510	-0.781959	0.302172
C162	C	1.155510	-0.531959	0.552172
C163	C	1.405510	-0.281959	0.802172
C164	C	1.655510	-0.031959	1.052172
C165	C	0.923415	-0.812974	0.368221
C166	C	1.173415	-0.562974	0.618221
C167	C	1.423415	-0.312974	0.868221
C168	C	1.673415	-0.062974	1.118221
C169	C	0.923789	-0.898619	0.367956
C170	C	1.173789	-0.648619	0.617956
C171	C	1.423789	-0.398619	0.867956
C172	C	1.673789	-0.148619	1.117956
C173	C	0.839245	-0.898868	0.285253
C174	C	1.089245	-0.648868	0.535253
C175	C	1.339245	-0.398868	0.785253
C176	C	1.589245	-0.148868	1.035253
C177	C	0.839572	-0.813218	0.283779
C178	C	1.089572	-0.563218	0.533779
C179	C	1.339572	-0.313218	0.783779
C180	C	1.589572	-0.063218	1.033779
C181	C	0.905486	-0.698099	0.302159
C182	C	1.155486	-0.448099	0.552159
C183	C	1.405486	-0.198099	0.802159
C184	C	1.655486	0.051901	1.052159
C185	C	0.905575	-1.014201	0.302217
C186	C	1.155575	-0.764201	0.552217
C187	C	1.405575	-0.514201	0.802217
C188	C	1.655575	-0.264201	1.052217
C189	C	1.068912	-0.356487	0.302239
C190	C	1.318912	-0.106487	0.552239
C191	C	1.568912	0.143513	0.802239
C192	C	1.818912	0.393513	1.052239
C193	C	1.138553	-0.356470	0.302271
C194	C	1.388553	-0.106470	0.552271
C195	C	1.638553	0.143530	0.802271
C196	C	1.888553	0.393530	1.052271
C197	C	0.905541	-0.356511	0.465589
C198	C	1.155541	-0.106511	0.715589
C199	C	1.405541	0.143489	0.965589
C200	C	1.655541	0.393489	1.215589
C201	C	0.905563	-0.356504	0.535231
C202	C	1.155563	-0.106504	0.785231
C203	C	1.405563	0.143496	1.035231
C204	C	1.655563	0.393496	1.285231
C205	C	0.905560	-0.163364	0.302210
C206	C	1.155560	0.086636	0.552210
C207	C	1.405560	0.336636	0.802210
C208	C	1.655560	0.586636	1.052210
C209	C	0.905590	-0.081050	0.302229
C210	C	1.155590	0.168950	0.552229
C211	C	1.405590	0.418950	0.802229
C212	C	1.655590	0.668950	1.052229
C213	C	0.905473	-0.356487	0.139378
C214	C	1.155473	-0.106487	0.389378
C215	C	1.405473	0.143513	0.639378
C216	C	1.655473	0.393513	0.889378
C217	C	0.905572	-0.356285	0.069737
C218	C	1.155572	-0.106285	0.319737
C219	C	1.405572	0.143715	0.569737
C220	C	1.655572	0.393715	0.819737
C221	C	0.945652	-0.309127	0.567974
C222	C	1.195652	-0.059127	0.817974
C223	C	1.445652	0.190873	1.067974
C224	C	1.695652	0.440873	1.317974
C225	C	0.945651	-0.309095	0.633409
C226	C	1.195651	-0.059095	0.883409
C227	C	1.445651	0.190905	1.133409
C228	C	1.695651	0.440905	1.383409
C229	C	0.905568	-0.356454	0.666099
C230	C	1.155568	-0.106454	0.916099
C231	C	1.405568	0.143546	1.166099
C232	C	1.655568	0.393546	1.416099
C233	C	0.865471	-0.403834	0.633348
C234	C	1.115471	-0.153834	0.883348
C235	C	1.365471	0.096166	1.133348
C236	C	1.615471	0.346166	1.383348
C237	C	0.865469	-0.403859	0.567914
C238	C	1.115469	-0.153859	0.817914
C239	C	1.365469	0.096141	1.067914
C240	C	1.615469	0.346141	1.317914
C241	C	0.900602	-0.423137	0.769761
C242	C	1.150602	-0.173137	1.019761
C243	C	1.400602	0.076863	1.269761
C244	C	1.650602	0.326863	1.519761
C245	C	0.900609	-0.423113	0.835194
C246	C	1.150609	-0.173113	1.085194
C247	C	1.400609	0.076887	1.335194
C248	C	1.650609	0.326887	1.585194
C249	C	0.905572	-0.356375	0.867920
C250	C	1.155572	-0.106375	1.117920
C251	C	1.405572	0.143625	1.367920
C252	C	1.655572	0.393625	1.617920
C253	C	0.910541	-0.289660	0.835204
C254	C	1.160541	-0.039660	1.085204
C255	C	1.410541	0.210340	1.335204
C256	C	1.660541	0.460340	1.585204
C257	C	0.910539	-0.289685	0.769770
C258	C	1.160539	-0.039685	1.019770
C259	C	1.410539	0.210315	1.269770
C260	C	1.660539	0.460315	1.519770
C261	C	0.905566	-0.356431	0.737051
C262	C	1.155566	-0.106431	0.987051
C263	C	1.405566	0.143569	1.237051
C264	C	1.655566	0.393569	1.487051
C265	C	0.945662	-0.308960	0.971615
C266	C	1.195662	-0.058960	1.221615
C267	C	1.445662	0.191040	1.471615
C268	C	1.695662	0.441040	1.721615
C269	C	0.945657	-0.308927	1.037052
C270	C	1.195657	-0.058927	1.287052
C271	C	1.445657	0.191073	1.537052
C272	C	1.695657	0.441073	1.787052
C273	C	0.865480	-0.403672	1.036990
C274	C	1.115480	-0.153672	1.286990
C275	C	1.365480	0.096328	1.536990
C276	C	1.615480	0.346328	1.786990
C277	C	0.865482	-0.403699	0.971555
C278	C	1.115482	-0.153699	1.221555
C279	C	1.365482	0.096301	1.471555
C280	C	1.615482	0.346301	1.721555
C281	C	0.905576	-0.356344	0.938871
C282	C	1.155576	-0.106344	1.188871
C283	C	1.405576	0.143656	1.438871
C284	C	1.655576	0.393656	1.688871
H285	H	0.666999	-0.442659	0.374638
H286	H	0.916999	-0.192659	0.624638
H287	H	1.166999	0.057341	0.874638
H288	H	1.416999	0.307341	1.124638
H289	H	0.914583	-0.235316	0.861848
H290	H	1.164583	0.014684	1.111848
H291	H	1.414583	0.264684	1.361848
H292	H	1.664583	0.514684	1.611848
H293	H	0.801671	-0.791852	0.316535
H294	H	1.051671	-0.541852	0.566535
H295	H	1.301671	-0.291852	0.816535
H296	H	1.551671	-0.041852	1.066535
Cl297	Cl	0.815083	-0.463203	1.078080
Cl298	Cl	1.065083	-0.213203	1.328080
Cl299	Cl	1.315083	0.036797	1.578080
Cl300	Cl	1.565083	0.286797	1.828080
Cl301	Cl	0.996040	-0.249516	0.674580
Cl302	Cl	1.246040	0.000484	0.924580
Cl303	Cl	1.496040	0.250484	1.174580
Cl304	Cl	1.746040	0.500484	1.424580
H305	H	0.832841	-0.442283	0.944895
H306	H	1.082841	-0.192283	1.194895
H307	H	1.332841	0.057717	1.444895
H308	H	1.582841	0.307717	1.694895
Cl309	Cl	0.870790	-0.781582	0.425551
Cl310	Cl	1.120790	-0.531582	0.675551
Cl311	Cl	1.370790	-0.281582	0.925551
Cl312	Cl	1.620790	-0.031582	1.175551
Cl313	Cl	0.277860	-0.463573	0.392494
Cl314	Cl	0.527860	-0.213573	0.642494
Cl315	Cl	0.777860	0.036427	0.892494
Cl316	Cl	1.027860	0.286427	1.142494
Cl317	Cl	0.894368	-0.506983	0.876316
Cl318	Cl	1.144368	-0.256983	1.126316
Cl319	Cl	1.394368	-0.006983	1.376316
Cl320	Cl	1.644368	0.243017	1.626316
H321	H	0.346558	-0.367299	0.404594
H322	H	0.596558	-0.117299	0.654594
H323	H	0.846558	0.132701	0.904594
H324	H	1.096558	0.382701	1.154594
Cl325	Cl	0.533754	-0.249500	0.211851
Cl326	Cl	0.783754	0.000500	0.461851
Cl327	Cl	1.033754	0.250500	0.711851
Cl328	Cl	1.283754	0.500500	0.961851
Cl329	Cl	0.996053	-0.249590	0.526889
Cl330	Cl	1.246053	0.000410	0.776889
Cl331	Cl	1.496053	0.250410	1.026889
Cl332	Cl	1.746053	0.500410	1.276889
H333	H	0.144656	-0.442524	0.374835
H334	H	0.394656	-0.192524	0.624835
H335	H	0.644656	0.057476	0.874835
H336	H	0.894656	0.307476	1.124835
H337	H	0.978306	-0.270396	0.945003
H338	H	1.228306	-0.020396	1.195003
H339	H	1.478306	0.229604	1.445003
H340	H	1.728306	0.479604	1.695003
H341	H	0.832833	-0.442392	0.659968
H342	H	1.082833	-0.192392	0.909968
H343	H	1.332833	0.057608	1.159968
H344	H	1.582833	0.307608	1.409968
Cl345	Cl	0.894381	-0.507045	0.728628
Cl346	Cl	1.144381	-0.257045	0.978628
Cl347	Cl	1.394381	-0.007045	1.228628
Cl348	Cl	1.644381	0.242955	1.478628
H349	H	0.832820	-0.442439	0.541255
H350	H	1.082820	-0.192439	0.791255
H351	H	1.332820	0.057561	1.041255
H352	H	1.582820	0.307561	1.291255
Cl353	Cl	1.029238	-0.932097	0.270786
Cl354	Cl	1.279238	-0.682097	0.520786
Cl355	Cl	1.529238	-0.432097	0.770786
Cl356	Cl	1.779238	-0.182097	1.020786
Cl357	Cl	0.331832	-0.343113	0.174794
Cl358	Cl	0.581832	-0.093113	0.424794
Cl359	Cl	0.831832	0.156887	0.674794
Cl360	Cl	1.081832	0.406887	0.924794
Cl361	Cl	0.533804	-0.463630	0.392400
Cl362	Cl	0.783804	-0.213630	0.642400
Cl363	Cl	1.033804	0.036370	0.892400
Cl364	Cl	1.283804	0.286370	1.142400
H365	H	0.890171	-0.919365	0.405362
H366	H	1.140171	-0.669365	0.655362
H367	H	1.390171	-0.419365	0.905362
H368	H	1.640171	-0.169365	1.155362
Cl369	Cl	1.029817	-0.781615	0.271117
Cl370	Cl	1.279817	-0.531615	0.521117
Cl371	Cl	1.529817	-0.281615	0.771117
Cl372	Cl	1.779817	-0.031615	1.021117
Cl373	Cl	0.997406	-0.779753	0.390757
Cl374	Cl	1.247406	-0.529753	0.640757
Cl375	Cl	1.497406	-0.279753	0.890757
Cl376	Cl	1.747406	-0.029753	1.140757
Cl377	Cl	0.996069	-0.249373	1.078215
Cl378	Cl	1.246069	0.000627	1.328215
Cl379	Cl	1.496069	0.250627	1.578215
Cl380	Cl	1.746069	0.500627	1.828215
Cl381	Cl	0.277807	-0.249440	0.211942
Cl382	Cl	0.527807	0.000560	0.461942
Cl383	Cl	0.777807	0.250560	0.711942
Cl384	Cl	1.027807	0.500560	0.961942
Cl385	Cl	0.479790	-0.369965	0.429543
Cl386	Cl	0.729790	-0.119965	0.679543
Cl387	Cl	0.979790	0.130035	0.929543
Cl388	Cl	1.229790	0.380035	1.179543
H389	H	0.822957	-0.920524	0.237924
H390	H	1.072957	-0.670524	0.487924
H391	H	1.322957	-0.420524	0.737924
H392	H	1.572957	-0.170524	0.987924
H393	H	0.144610	-0.270415	0.229705
H394	H	0.394610	-0.020415	0.479705
H395	H	0.644610	0.229585	0.729705
H396	H	0.894610	0.479585	0.979705
H397	H	0.465054	-0.345775	0.199743
H398	H	0.715054	-0.095775	0.449743
H399	H	0.965054	0.154225	0.699743
H400	H	1.215054	0.404225	0.949743
Cl401	Cl	0.681447	-0.249527	0.211801
Cl402	Cl	0.931447	0.000473	0.461801
Cl403	Cl	1.181447	0.250473	0.711801
Cl404	Cl	1.431447	0.500473	0.961801
Cl405	Cl	0.916780	-0.205819	0.728644
Cl406	Cl	1.166780	0.044181	0.978644
Cl407	Cl	1.416780	0.294181	1.228644
Cl408	Cl	1.666780	0.544181	1.478644
H409	H	0.942753	-0.919614	0.204551
H410	H	1.192753	-0.669614	0.454551
H411	H	1.442753	-0.419614	0.704551
H412	H	1.692753	-0.169614	0.954551
H413	H	0.942785	-0.792391	0.204823
H414	H	1.192785	-0.542391	0.454823
H415	H	1.442785	-0.292391	0.704823
H416	H	1.692785	-0.042391	0.954823
H417	H	0.826071	-0.792953	0.235172
H418	H	1.076071	-0.542953	0.485172
H419	H	1.326071	-0.292953	0.735172
H420	H	1.576071	-0.042953	0.985172
Cl421	Cl	0.998617	-0.929356	0.390115
Cl422	Cl	1.248617	-0.679356	0.640115
Cl423	Cl	1.498617	-0.429356	0.890115
Cl424	Cl	1.748617	-0.179356	1.140115
H425	H	0.803279	-0.919153	0.320599
H426	H	1.053279	-0.669153	0.570599
H427	H	1.303279	-0.419153	0.820599
H428	H	1.553279	-0.169153	1.070599
