data_functionalizedCrystal
_audit_creation_method	'MofGen! by Chris Wilmer'
_symmetry_space_group_name_H-M	'P1'
_symmetry_Int_Tables_number	1
_symmetry_cell_setting	triclinic
loop_
_symmetry_equiv_pos_as_xyz
  x,y,z
_cell_length_a	11.792254
_cell_length_b	11.792241
_cell_length_c	15.455450
_cell_angle_alpha	87.025715
_cell_angle_beta	87.032395
_cell_angle_gamma	84.196007
loop_
_atom_site_label
_atom_site_type_symbol
_atom_site_fract_x
_atom_site_fract_y
_atom_site_fract_z
O1	O	1.502450	0.151173	0.072129
O2	O	1.172111	0.167191	0.072131
O3	O	1.345297	-0.005988	0.072124
O4	O	1.329264	0.324352	0.072136
O5	O	1.354182	0.002933	-0.072135
O6	O	1.180996	0.176112	-0.072128
O7	O	1.511335	0.160094	-0.072130
Cu8	Cu	1.346977	0.168918	-0.085301
Cu9	Cu	1.336469	0.158367	0.085302
O10	O	1.338149	0.333273	-0.072123
C11	C	1.134263	0.170642	0.000002
C12	C	1.008250	0.167622	0.000002
C13	C	0.905913	0.165168	0.000006
C14	C	0.777526	0.162100	0.000006
C15	C	1.348733	-0.043818	-0.000005
C16	C	1.345718	-0.169832	-0.000004
C17	C	1.340174	-0.400546	0.000010
C18	C	1.343255	-0.272160	0.000002
C19	C	1.549183	0.156643	0.000001
C20	C	1.675196	0.159662	0.000006
C21	C	1.334713	0.371103	0.000008
C22	C	1.337727	0.497117	0.000013
N23	N	1.354376	0.176337	-0.205293
C24	C	1.287940	0.109840	-0.250714
C25	C	1.293563	0.115464	-0.341520
C26	C	1.365629	0.187581	-0.386903
C27	C	1.432068	0.254087	-0.341475
C28	C	1.426438	0.248467	-0.250671
C29	C	1.389888	0.211825	-0.658474
C30	C	1.395515	0.217436	-0.749284
C31	C	1.257008	0.078815	-0.749323
C32	C	1.251389	0.073197	-0.658518
C33	C	1.317824	0.139707	-0.613098
N34	N	1.371382	0.193330	-0.479721
N35	N	1.312065	0.133964	-0.520282
N36	N	1.329079	0.150939	0.205294
H37	H	1.229259	0.051110	-0.213770
C38	C	1.236982	-0.085791	-0.556383
C39	C	1.172143	-0.006034	-0.608619
H40	H	1.188052	-0.134698	-0.525577
H41	H	1.275755	-0.046989	-0.516352
H42	H	1.291102	-0.129789	-0.591796
H43	H	1.118028	0.037970	-0.573205
H44	H	1.133351	-0.044839	-0.648654
H45	H	1.202919	0.024668	-0.786314
H46	H	1.454202	0.276168	-0.786233
C47	C	1.156106	-0.022136	-0.332450
C48	C	1.220544	0.042363	-0.391453
H49	H	1.111031	-0.067271	-0.363280
H50	H	1.107717	0.027584	-0.297041
H51	H	1.205872	-0.070481	-0.297024
H52	H	1.170777	0.090714	-0.426875
H53	H	1.268936	-0.007363	-0.426877
C54	C	1.527376	0.349391	-0.667570
C55	C	1.462926	0.284918	-0.608557
H56	H	1.572475	0.394510	-0.636748
H57	H	1.477626	0.397739	-0.702992
H58	H	1.575752	0.299646	-0.702982
H59	H	1.414544	0.334664	-0.573148
H60	H	1.512682	0.236566	-0.573119
C61	C	1.502207	0.324244	-0.480652
C62	C	1.511288	0.333358	-0.391358
H63	H	1.551123	0.373178	-0.511444
H64	H	1.425615	0.345730	-0.495547
H65	H	1.523746	0.247643	-0.495524
H66	H	1.489741	0.409959	-0.376485
H67	H	1.587897	0.311879	-0.376457
H68	H	1.480535	0.302621	-0.213690
