data_functionalizedCrystal
_audit_creation_method	'MofGen! by Chris Wilmer'
_symmetry_space_group_name_H-M	'P1'
_symmetry_Int_Tables_number	1
_symmetry_cell_setting	triclinic
loop_
_symmetry_equiv_pos_as_xyz
  x,y,z
_cell_length_a	11.792241
_cell_length_b	16.992695
_cell_length_c	15.455313
_cell_angle_alpha	92.847427
_cell_angle_beta	87.304628
_cell_angle_gamma	87.430819
loop_
_atom_site_label
_atom_site_type_symbol
_atom_site_fract_x
_atom_site_fract_y
_atom_site_fract_z
O1	O	1.520363	0.104106	-0.072047
O2	O	1.190930	0.115185	-0.072067
O3	O	1.354325	-0.004502	-0.072050
O4	O	1.356967	0.223794	-0.072064
O5	O	1.344979	0.002314	0.072211
O6	O	1.181583	0.122001	0.072194
O7	O	1.511017	0.110922	0.072214
Cu8	Cu	1.345447	0.117084	0.085376
Cu9	Cu	1.356500	0.109023	-0.085229
O10	O	1.347621	0.230610	0.072197
C11	C	1.346254	-0.030321	0.000080
C12	C	1.336116	-0.117409	0.000079
C13	C	1.143909	0.117897	0.000061
C14	C	1.017725	0.115814	0.000053
C15	C	1.433934	-0.167233	0.000086
C16	C	1.424402	-0.249060	0.000077
C17	C	1.317051	-0.281062	0.000068
C18	C	1.219227	-0.231231	0.000058
C19	C	1.228760	-0.149406	0.000061
C20	C	1.277539	-0.524828	0.000053
C21	C	1.268013	-0.606660	0.000053
C22	C	1.473190	-0.624484	0.000071
C23	C	1.482713	-0.542656	0.000079
C24	C	1.384889	-0.492832	0.000065
N25	N	1.307305	-0.364702	0.000062
N26	N	1.394636	-0.409194	0.000065
C27	C	0.786698	0.111984	0.000078
C28	C	0.915258	0.114112	0.000065
C29	C	1.558038	0.108210	0.000084
C30	C	1.684222	0.110293	0.000086
C31	C	1.355692	0.256428	0.000065
C32	C	1.365831	0.343516	0.000060
N33	N	1.337681	0.122753	0.205371
N34	N	1.364274	0.103348	-0.205224
C35	C	1.407124	0.071924	0.250772
C36	C	1.401263	0.076219	0.341580
C37	C	1.325962	0.131346	0.386984
C38	C	1.256511	0.182177	0.341576
C39	C	1.262368	0.177878	0.250771
C40	C	1.300680	0.149880	0.658563
C41	C	1.294830	0.154177	0.749375
C42	C	1.439581	0.048217	0.749372
C43	C	1.445436	0.043926	0.658565
C44	C	1.375981	0.094754	0.613165
N45	N	1.319971	0.135739	0.479804
N46	N	1.381967	0.090357	0.520347
H47	H	1.521350	-0.141184	0.000099
H48	H	1.131820	-0.257293	0.000045
H49	H	1.570129	-0.516607	0.000087
Br50	Br	1.122313	-0.650089	0.000049
H51	H	1.504055	-0.289625	0.000085
H52	H	1.205818	0.219267	0.213806
H53	H	1.506752	-0.000963	0.621598
H54	H	1.552832	-0.665058	0.000081
Br55	Br	1.144777	-0.457221	0.000029
H56	H	1.457808	0.034830	0.378545
H57	H	1.149106	-0.108839	0.000055
Br58	Br	1.154306	0.256989	0.403193
Br59	Br	1.509332	-0.002890	0.189162
H60	H	1.496127	0.006834	0.786345
H61	H	1.233509	0.199071	0.786339
H62	H	1.244128	0.191268	0.621605
