data_functionalizedCrystal
_audit_creation_method	'MofGen! by Chris Wilmer'
_symmetry_space_group_name_H-M	'P1'
_symmetry_Int_Tables_number	1
_symmetry_cell_setting	triclinic
loop_
_symmetry_equiv_pos_as_xyz
  x,y,z
_cell_length_a	14.044220
_cell_length_b	14.853567
_cell_length_c	13.330367
_cell_angle_alpha	90.000844
_cell_angle_beta	90.002608
_cell_angle_gamma	88.411904
loop_
_atom_site_label
_atom_site_type_symbol
_atom_site_fract_x
_atom_site_fract_y
_atom_site_fract_z
O1	O	-1.257997	-0.217372	-0.083301
O2	O	-0.982018	-0.209528	-0.083327
O3	O	-1.127379	-0.082805	-0.083316
O4	O	-1.112636	-0.344096	-0.083312
O5	O	-1.127358	-0.082800	0.083531
O6	O	-0.981996	-0.209524	0.083520
O7	O	-1.257976	-0.217368	0.083546
Cu8	Cu	-1.119984	-0.213445	0.098768
Cu9	Cu	-1.120009	-0.213451	-0.098548
O10	O	-1.112614	-0.344091	0.083535
C11	C	-1.126701	-0.049161	0.000104
C12	C	-1.124699	0.051082	0.000095
C13	C	-0.946688	-0.206092	0.000093
C14	C	-0.841449	-0.195851	0.000083
C15	C	-1.293306	-0.220803	0.000124
C16	C	-1.398545	-0.231045	0.000127
C17	C	-0.648763	-0.177127	0.000102
C18	C	-0.591225	-0.249765	0.000108
C19	C	-0.484008	-0.239347	0.000119
C20	C	-0.755990	-0.187544	0.000092
C21	C	-1.113293	-0.377735	0.000113
C22	C	-1.115295	-0.477978	0.000115
N23	N	-1.119974	-0.213441	0.237549
C24	C	-1.029888	0.471127	0.000106
C25	C	-1.202581	0.478726	0.000122
C26	C	-1.204464	0.384543	0.000116
C27	C	-1.119057	0.333648	0.000107
C28	C	-1.031768	0.376935	0.000103
C29	C	-1.291751	0.341248	0.000130
C30	C	-1.293637	0.247060	0.000125
C31	C	-1.208229	0.196163	0.000109
C32	C	-1.120937	0.239456	0.000104
C33	C	-1.035530	0.188561	0.000094
C34	C	-0.948237	0.231852	0.000082
C35	C	-0.946360	0.326038	0.000086
C36	C	-1.210105	0.101977	0.000105
C37	C	-1.037410	0.094369	0.000092
N38	N	-1.120027	-0.213448	-0.237330
C39	C	-1.055640	-0.269540	0.710167
C40	C	-1.184404	-0.157357	0.710145
C41	C	-1.184393	-0.157353	0.605126
C42	C	-1.120006	-0.213445	0.552624
C43	C	-1.055630	-0.269540	0.605139
C44	C	-1.248775	-0.101266	0.552603
C45	C	-1.248767	-0.101261	0.447578
C46	C	-1.184375	-0.157348	0.395073
C47	C	-1.119995	-0.213445	0.447596
C48	C	-1.055608	-0.269536	0.395093
C49	C	-0.991223	-0.325629	0.447613
C50	C	-0.991237	-0.325627	0.552635
C51	C	-1.184361	-0.157350	0.290052
C52	C	-1.055597	-0.269536	0.290065
H53	H	-0.622488	-0.319778	0.000104
Cl54	Cl	-0.836631	0.380467	0.000068
Cl55	Cl	-0.600497	-0.069039	0.000102
Cl56	Cl	-0.920154	0.525548	0.000081
Cl57	Cl	-0.930035	0.030394	0.000072
Cl58	Cl	-1.265301	-0.086844	0.224033
Cl59	Cl	-1.309943	0.542709	0.000150
Cl60	Cl	-1.399111	0.405234	0.000163
Cl61	Cl	-0.974699	-0.340050	0.776187
Cl62	Cl	-1.329721	-0.030760	0.618603
Cl63	Cl	-1.265350	-0.086851	0.776145
Cl64	Cl	-1.319836	0.047557	0.000139
H65	H	-0.938818	-0.371297	0.595403
Cl66	Cl	-0.840873	0.167859	0.000079
H67	H	-1.364716	0.211820	0.000134
H68	H	-1.003162	-0.315210	0.247323
H69	H	-0.938803	-0.371303	0.404853
Cl70	Cl	-1.329702	-0.030743	0.381560
