data_functionalizedCrystal
_audit_creation_method	'MofGen! by Chris Wilmer'
_symmetry_space_group_name_H-M	'P1'
_symmetry_Int_Tables_number	1
_symmetry_cell_setting	triclinic
loop_
_symmetry_equiv_pos_as_xyz
  x,y,z
_cell_length_a	21.295417
_cell_length_b	21.295418
_cell_length_c	11.169409
_cell_angle_alpha	90.042364
_cell_angle_beta	89.958601
_cell_angle_gamma	89.953681
loop_
_atom_site_label
_atom_site_type_symbol
_atom_site_fract_x
_atom_site_fract_y
_atom_site_fract_z
Zn1	Zn	-0.250292	-0.962347	-0.679189
Zn2	Zn	-0.355581	-0.962252	-0.478474
Zn3	Zn	-0.250358	-0.857073	-0.478445
Zn4	Zn	-0.355557	-0.857040	-0.679040
O5	O	-0.302947	-0.909678	-0.578787
O6	O	-0.264241	-1.050424	-0.652639
O7	O	-0.341660	-0.948274	-0.310521
O8	O	-0.162260	-0.871092	-0.505124
O9	O	-0.341596	-1.050354	-0.505174
O10	O	-0.162212	-0.948436	-0.652610
O11	O	-0.264354	-0.870999	-0.310499
O12	O	-0.264331	-0.768979	-0.504979
O13	O	-0.341556	-0.871035	-0.847010
O14	O	-0.341620	-0.768955	-0.652356
O15	O	-0.264218	-0.948404	-0.847119
O16	O	-0.443667	-0.948242	-0.505030
O17	O	-0.443649	-0.870943	-0.652385
C18	C	-0.466499	-0.909596	-0.578721
C19	C	-0.536467	-0.909618	-0.578732
C20	C	-0.302980	-0.746126	-0.578649
C21	C	-0.303009	-0.676158	-0.578618
C22	C	-0.302877	-0.909726	-0.891830
C23	C	-0.302847	-0.909747	-1.025230
C24	C	-0.569322	-0.949903	-0.502083
C25	C	-0.635064	-0.949933	-0.502110
C26	C	-0.667949	-0.909666	-0.578774
C27	C	-0.635086	-0.869377	-0.655438
C28	C	-0.569345	-0.869354	-0.655417
N29	N	-0.771229	-0.854598	-0.587877
N30	N	-0.833681	-0.854623	-0.587889
C31	C	-0.866024	-0.909736	-0.578843
N32	N	-0.833556	-0.964825	-0.569759
N33	N	-0.771099	-0.964800	-0.569740
C34	C	-0.739235	-0.909687	-0.578805
C35	C	-0.970164	-0.950057	-0.502219
C36	C	-1.035908	-0.950088	-0.502254
C37	C	-1.035929	-0.869527	-0.655575
C38	C	-0.970187	-0.869502	-0.655546
C39	C	-0.937308	-0.909766	-0.578861
C40	C	-0.138757	-0.909778	-0.578880
C41	C	-0.068789	-0.909821	-0.578920
C42	C	-0.302914	-1.073868	-0.578927
C43	C	-0.302900	-1.143837	-0.578986
C44	C	-0.343307	-0.643295	-0.655243
C45	C	-0.343292	-0.577553	-0.655297
C46	C	-0.302985	-0.544676	-0.578705
C47	C	-0.262680	-0.577547	-0.502075
C48	C	-0.262692	-0.643288	-0.502032
N49	N	-0.298077	-0.441401	-0.473733
N50	N	-0.298069	-0.378950	-0.473777
C51	C	-0.302945	-0.346601	-0.578832
N52	N	-0.307841	-0.379063	-0.683843
N53	N	-0.307852	-0.441521	-0.683797
C54	C	-0.302967	-0.473391	-0.578744
C55	C	-0.343228	-0.242453	-0.655521
C56	C	-0.343208	-0.176709	-0.655577
C57	C	-0.262599	-0.176704	-0.502345
C58	C	-0.262616	-0.242447	-0.502300
C59	C	-0.302933	-0.275317	-0.578886
C60	C	-0.302971	-0.909666	-0.266962
C61	C	-0.302824	-0.909768	-0.133563
H62	H	-0.542554	-0.982690	-0.439645
F63	F	-0.670038	-0.992811	-0.420526
F64	F	-0.670086	-0.826525	-0.737033
F65	F	-0.219799	-0.678264	-0.420474
H66	H	-0.229861	-0.550774	-0.439716
F67	F	-0.386097	-0.141734	-0.737142
F68	F	-0.534378	-0.826474	-0.737001
H69	H	-1.062657	-0.982897	-0.439840
F70	F	-1.070923	-0.826675	-0.737174
F71	F	-0.935170	-0.992909	-0.420605
H72	H	-0.943434	-0.836695	-0.717956
H73	H	-0.229804	-0.269204	-0.439898
F74	F	-0.386215	-0.678275	-0.736757
F75	F	-0.386183	-0.542571	-0.736854
F76	F	-0.219698	-0.141718	-0.420835
F77	F	-0.386134	-0.277438	-0.737036
