data_functionalizedCrystal
_audit_creation_method	'MofGen! by Chris Wilmer'
_symmetry_space_group_name_H-M	'P1'
_symmetry_Int_Tables_number	1
_symmetry_cell_setting	triclinic
loop_
_symmetry_equiv_pos_as_xyz
  x,y,z
_cell_length_a	16.959455
_cell_length_b	18.050590
_cell_length_c	16.959447
_cell_angle_alpha	90.031775
_cell_angle_beta	90.020374
_cell_angle_gamma	90.015572
loop_
_atom_site_label
_atom_site_type_symbol
_atom_site_fract_x
_atom_site_fract_y
_atom_site_fract_z
Zn1	Zn	1.208392	-0.295704	0.447028
Zn2	Zn	1.708392	0.204296	0.947028
Zn3	Zn	1.208318	-0.419905	0.314846
Zn4	Zn	1.708318	0.080095	0.814846
Zn5	Zn	1.076221	-0.295727	0.314852
Zn6	Zn	1.576221	0.204273	0.814852
Zn7	Zn	1.076189	-0.419850	0.446971
Zn8	Zn	1.576189	0.080150	0.946971
O9	O	1.142280	-0.357797	0.380924
O10	O	1.642280	0.142203	0.880924
O11	O	1.318993	-0.312193	0.429516
O12	O	1.818993	0.187807	0.929516
O13	O	1.190778	-0.403466	0.204236
O14	O	1.690778	0.096534	0.704236
O15	O	1.093798	-0.191800	0.332412
O16	O	1.593798	0.308200	0.832412
O17	O	1.318939	-0.403443	0.332402
O18	O	1.818939	0.096557	0.832402
O19	O	1.190904	-0.191782	0.429521
O20	O	1.690904	0.308218	0.929521
O21	O	1.093726	-0.312233	0.204240
O22	O	1.593726	0.187767	0.704240
O23	O	0.965606	-0.312179	0.332356
O24	O	1.465606	0.187821	0.832356
O25	O	1.093744	-0.403349	0.557590
O26	O	1.593744	0.096651	1.057590
O27	O	0.965582	-0.403372	0.429423
O28	O	1.465582	0.096628	0.929423
O29	O	1.190873	-0.312139	0.557632
O30	O	1.690873	0.187861	1.057632
O31	O	1.190747	-0.523823	0.332347
O32	O	1.690747	-0.023823	0.832347
O33	O	1.093672	-0.523782	0.429418
O34	O	1.593672	-0.023782	0.929418
C35	C	0.936914	-0.357772	0.380885
C36	C	1.436914	0.142228	0.880885
C37	C	0.849057	-0.357780	0.380886
C38	C	1.349057	0.142220	0.880886
C39	C	0.477543	-0.405264	0.330332
C40	C	0.977543	0.094736	0.830332
C41	C	0.477620	-0.310391	0.431613
C42	C	0.977620	0.189609	0.931613
C43	C	0.560166	-0.310379	0.431594
C44	C	1.060166	0.189621	0.931594
C45	C	0.601404	-0.357811	0.380944
C46	C	1.101404	0.142189	0.880944
C47	C	0.560096	-0.405254	0.330313
C48	C	1.060096	0.094746	0.830313
C49	C	0.601481	-0.262941	0.482230
C50	C	1.101481	0.237059	0.982230
C51	C	0.684032	-0.262928	0.482214
C52	C	1.184032	0.237072	0.982214
C53	C	0.725271	-0.310356	0.431559
C54	C	1.225271	0.189644	0.931559
C55	C	0.683958	-0.357801	0.380925
C56	C	1.183958	0.142199	0.880925
C57	C	0.725195	-0.405233	0.330274
C58	C	1.225195	0.094767	0.830274
C59	C	0.683884	-0.452675	0.279636
C60	C	1.183884	0.047325	0.779636
C61	C	0.601335	-0.452683	0.279657
C62	C	1.101335	0.047317	0.779657
C63	C	0.807819	-0.310348	0.431537
C64	C	1.307819	0.189652	0.931537
C65	C	0.807749	-0.405224	0.330255
C66	C	1.307749	0.094776	0.830255
C67	C	1.142219	-0.550749	0.380893
C68	C	1.642219	-0.050749	0.880893
C69	C	1.142266	-0.633294	0.380906
C70	C	1.642266	-0.133294	0.880906
C71	C	1.195165	-0.832740	0.328192
C72	C	1.695165	-0.332740	0.828192
C73	C	1.214468	-0.882070	0.400335
C74	C	1.714468	-0.382070	0.900335
C75	C	1.142310	-0.784425	0.380937
C76	C	1.642310	-0.284425	0.880937
C77	C	1.123088	-0.882177	0.308827
C78	C	1.623088	-0.382177	0.808827
C79	C	1.142355	-0.930410	0.380962
C80	C	1.642355	-0.430410	0.880962
C81	C	1.161650	-0.832667	0.453118
C82	C	1.661650	-0.332667	0.953118
C83	C	1.070237	-0.832770	0.361562
C84	C	1.570237	-0.332770	0.861562
C85	C	1.089513	-0.882077	0.433754
C86	C	1.589513	-0.382077	0.933754
C87	C	1.142287	-0.700327	0.380922
C88	C	1.642287	-0.200327	0.880922
C89	C	1.142379	-1.014506	0.380985
C90	C	1.642379	-0.514506	0.880985
C91	C	1.348448	-0.357821	0.380965
C92	C	1.848448	0.142179	0.880965
C93	C	1.436305	-0.357832	0.380982
C94	C	1.936305	0.142168	0.880982
C95	C	1.142313	-0.357735	0.587093
C96	C	1.642313	0.142265	1.087093
C97	C	1.142327	-0.357709	0.674949
C98	C	1.642327	0.142291	1.174949
C99	C	1.142362	-0.164091	0.380973
C100	C	1.642362	0.335909	0.880973
C101	C	1.142398	-0.081545	0.380994
C102	C	1.642398	0.418455	0.880994
C103	C	1.142293	-0.357804	0.175558
C104	C	1.642293	0.142196	0.675558
C105	C	1.142432	-0.357621	0.087702
C106	C	1.642432	0.142379	0.587702
C107	C	1.091851	-0.405119	1.046406
C108	C	1.591851	0.094881	1.546406
C109	C	1.192992	-0.310142	1.046445
C110	C	1.692992	0.189858	1.546445
C111	C	1.192971	-0.310158	0.963899
C112	C	1.692971	0.189842	1.463899
C113	C	1.142390	-0.357656	0.922603
C114	C	1.642390	0.142344	1.422603
C115	C	1.091830	-0.405138	0.963852
C116	C	1.591830	0.094862	1.463852
C117	C	1.243536	-0.262682	0.922643
C118	C	1.743536	0.237318	1.422643
C119	C	1.243518	-0.262696	0.840092
C120	C	1.743518	0.237304	1.340092
C121	C	1.192932	-0.310191	0.798794
C122	C	1.692932	0.189809	1.298794
C123	C	1.142369	-0.357674	0.840049
C124	C	1.642369	0.142326	1.340049
C125	C	1.091788	-0.405172	0.798753
C126	C	1.591788	0.094828	1.298753
C127	C	1.041220	-0.452653	0.840006
C128	C	1.541220	0.047347	1.340006
C129	C	1.041244	-0.452633	0.922554
C130	C	1.541244	0.047367	1.422554
C131	C	1.192908	-0.310211	0.716246
C132	C	1.692908	0.189789	1.216246
C133	C	1.091767	-0.405191	0.716199
C134	C	1.591767	0.094809	1.216199
H135	H	0.567692	-0.491307	0.238430
H136	H	1.067692	0.008693	0.738430
H137	H	1.275438	-0.903727	0.416738
H138	H	1.775438	-0.403727	0.916738
H139	H	1.009285	-0.811097	0.345137
H140	H	1.509285	-0.311097	0.845137
Br141	Br	0.739859	-0.517051	0.210906
Br142	Br	1.239859	-0.017051	0.710906
Br143	Br	1.312186	-0.198232	0.978690
Br144	Br	1.812186	0.301768	1.478690
Br145	Br	0.545513	-0.198587	0.550979
Br146	Br	1.045513	0.301413	1.050979
H147	H	0.443903	-0.443888	0.289101
H148	H	0.943903	0.056112	0.789101
Br149	Br	0.421655	-0.246033	0.500361
Br150	Br	0.921655	0.253967	1.000361
Br151	Br	0.863708	-0.469592	0.261504
Br152	Br	1.363708	0.030408	0.761504
Br153	Br	1.188909	-0.796581	0.554805
Br154	Br	1.688909	-0.296581	1.054805
Br155	Br	0.740090	-0.198545	0.550936
Br156	Br	1.240090	0.301455	1.050936
H157	H	1.044835	-0.903604	0.478421
H158	H	1.544835	-0.403604	0.978421
Br159	Br	1.095959	-0.918427	0.207171
Br160	Br	1.595959	-0.418427	0.707171
H161	H	1.284692	-0.224034	0.806510
H162	H	1.784692	0.275966	1.306510
Br163	Br	0.863882	-0.245974	0.500260
Br164	Br	1.363882	0.254026	1.000260
Br165	Br	1.261537	-0.245786	0.660262
Br166	Br	1.761537	0.254214	1.160262
Br167	Br	1.023222	-0.469550	1.102388
Br168	Br	1.523222	0.030450	1.602388
H169	H	1.000077	-0.491291	0.956150
H170	H	1.500077	0.008709	1.456150
H171	H	1.239877	-0.811076	0.283633
H172	H	1.739877	-0.311076	0.783633
Br173	Br	1.023110	-0.469650	0.660160
Br174	Br	1.523110	0.030350	1.160160
Br175	Br	0.972583	-0.517118	0.783951
Br176	Br	1.472583	-0.017118	1.283951
Br177	Br	1.261643	-0.245691	1.102490
Br178	Br	1.761643	0.254309	1.602490
