data_functionalizedCrystal
_audit_creation_method	'MofGen! by Chris Wilmer'
_symmetry_space_group_name_H-M	'P1'
_symmetry_Int_Tables_number	1
_symmetry_cell_setting	triclinic
loop_
_symmetry_equiv_pos_as_xyz
  x,y,z
_cell_length_a	16.992701
_cell_length_b	19.188924
_cell_length_c	16.053802
_cell_angle_alpha	92.554672
_cell_angle_beta	87.243340
_cell_angle_gamma	86.904567
loop_
_atom_site_label
_atom_site_type_symbol
_atom_site_fract_x
_atom_site_fract_y
_atom_site_fract_z
O1	O	1.043198	0.145255	-0.069442
O2	O	1.543198	0.645255	0.430558
O3	O	0.814918	0.143633	-0.069442
O4	O	1.314918	0.643633	0.430558
O5	O	0.935648	0.043174	-0.069432
O6	O	1.435648	0.543174	0.430568
O7	O	0.922468	0.245714	-0.069452
O8	O	1.422468	0.745714	0.430548
O9	O	0.929003	0.048679	0.069426
O10	O	1.429003	0.548679	0.569426
O11	O	0.808273	0.149138	0.069416
O12	O	1.308273	0.649138	0.569416
O13	O	1.036553	0.150760	0.069417
O14	O	1.536553	0.650760	0.569417
Zn15	Zn	0.921358	0.150823	0.091463
Zn16	Zn	1.421358	0.650823	0.591463
Zn17	Zn	0.930113	0.143570	-0.091489
Zn18	Zn	1.430113	0.643570	0.408511
O19	O	0.915823	0.251219	0.069407
O20	O	1.415823	0.751219	0.569407
C21	C	0.782390	0.144297	-0.000013
C22	C	1.282390	0.644297	0.499987
C23	C	0.695367	0.138064	-0.000012
C24	C	1.195367	0.638064	0.499988
C25	C	0.206553	0.096189	-0.000011
C26	C	0.706553	0.596189	0.499989
C27	C	0.288318	0.102051	-0.000007
C28	C	0.788318	0.602051	0.499993
C29	C	0.319634	0.168051	-0.000017
C30	C	0.819634	0.668051	0.499983
C31	C	0.269178	0.228195	-0.000023
C32	C	0.769178	0.728195	0.499977
C33	C	0.187414	0.222333	-0.000022
C34	C	0.687414	0.722333	0.499978
C35	C	0.563147	0.192346	-0.000017
C36	C	1.063147	0.692346	0.499983
C37	C	0.644918	0.198203	-0.000021
C38	C	1.144918	0.698203	0.499979
C39	C	0.664053	0.072058	-0.000003
C40	C	1.164053	0.572058	0.499997
C41	C	0.582286	0.066202	-0.000007
C42	C	1.082286	0.566202	0.499993
C43	C	0.531837	0.126346	-0.000008
C44	C	1.031837	0.626346	0.499992
N45	N	0.403212	0.174044	-0.000015
N46	N	0.903212	0.674044	0.499985
N47	N	0.448261	0.120353	-0.000004
N48	N	0.948261	0.620353	0.499996
C49	C	0.931899	0.019890	-0.000002
C50	C	1.431899	0.519890	0.499998
C51	C	0.930621	-0.057689	0.000000
C52	C	1.430621	0.442311	0.500000
C53	C	0.933646	-0.097124	-0.075692
C54	C	1.433646	0.402876	0.424308
C55	C	0.932434	-0.170018	-0.075698
C56	C	1.432434	0.329982	0.424302
C57	C	0.928212	-0.203475	-0.000008
C58	C	1.428212	0.296525	0.499992
C59	C	0.925181	-0.164031	0.075694
C60	C	1.425181	0.335969	0.575694
C61	C	0.926386	-0.091138	0.075698
C62	C	1.426386	0.408862	0.575698
N63	N	0.968236	-0.318405	0.056326
N64	N	1.468236	0.181595	0.556326
N65	N	0.967094	-0.387651	0.056317
N66	N	1.467094	0.112349	0.556317
C67	C	0.924581	-0.423097	-0.000016
C68	C	1.424581	0.076903	0.499984
N69	N	0.883264	-0.386683	-0.056353
N70	N	1.383264	0.113317	0.443647
N71	N	0.884410	-0.317431	-0.056346
N72	N	1.384410	0.182569	0.443654
C73	C	0.926905	-0.282515	-0.000004
C74	C	1.426905	0.217485	0.499996
C75	C	0.926291	-0.541572	-0.075720
C76	C	1.426291	-0.041572	0.424280
C77	C	0.925074	-0.614466	-0.075723
C78	C	1.425074	-0.114466	0.424277
C79	C	0.917829	-0.608478	0.075671
C80	C	1.417829	-0.108478	0.575671
C81	C	0.919039	-0.535585	0.075672
C82	C	1.419039	-0.035585	0.575672
C83	C	0.923273	-0.502136	-0.000026
C84	C	1.423273	-0.002136	0.499974
C85	C	1.069081	0.150096	-0.000014
C86	C	1.569081	0.650096	0.499986
C87	C	1.156103	0.156328	-0.000020
C88	C	1.656103	0.656328	0.499980
C89	C	0.919571	0.274502	-0.000025
C90	C	1.419571	0.774502	0.499975
C91	C	0.920850	0.352082	-0.000033
C92	C	1.420850	0.852082	0.499967
N93	N	0.915388	0.155773	0.216323
N94	N	1.415388	0.655773	0.716323
N95	N	0.936089	0.138614	-0.216348
N96	N	1.436089	0.638614	0.283652
C97	C	0.966777	0.113045	0.260021
C98	C	1.466777	0.613045	0.760021
C99	C	0.962609	0.116515	0.347428
C100	C	1.462609	0.616515	0.847428
C101	C	0.907054	0.162717	0.391134
C102	C	1.407054	0.662717	0.891134
C103	C	0.855659	0.205447	0.347430
C104	C	1.355659	0.705447	0.847430
C105	C	0.859825	0.201973	0.260025
C106	C	1.359825	0.701973	0.760025
C107	C	0.888859	0.177871	0.652543
C108	C	1.388859	0.677871	1.152543
C109	C	0.884699	0.181343	0.739953
C110	C	1.384699	0.681343	1.239953
C111	C	0.991648	0.092409	0.739945
C112	C	1.491648	0.592409	1.239945
C113	C	0.995812	0.088943	0.652539
C114	C	1.495812	0.588943	1.152539
C115	C	0.944414	0.131670	0.608842
C116	C	1.444414	0.631670	1.108842
N117	N	0.902794	0.166266	0.480478
N118	N	1.402794	0.666266	0.980478
N119	N	0.948672	0.128117	0.519500
N120	N	1.448672	0.628117	1.019500
H121	H	0.146338	0.271305	-0.000026
H122	H	0.646338	0.771305	0.499974
H123	H	0.937092	-0.069894	-0.137331
H124	H	1.437092	0.430106	0.362669
Br125	Br	1.032350	0.058523	0.406735
Br126	Br	1.532350	0.558523	0.906735
Br127	Br	0.164062	0.006612	-0.000004
Br128	Br	0.664062	0.506612	0.499996
Br129	Br	0.356783	0.020430	0.000013
Br130	Br	0.856783	0.520430	0.500013
Br131	Br	1.071211	0.026243	0.593221
Br132	Br	1.571211	0.526243	1.093221
Br133	Br	0.929171	-0.667987	-0.178458
Br134	Br	1.429171	-0.167987	0.321542
H135	H	0.916581	-0.503477	0.137308
H136	H	1.416581	-0.003477	0.637308
H137	H	0.934893	-0.202131	-0.137337
H138	H	1.434893	0.297869	0.362663
H139	H	0.670411	0.251952	-0.000017
H140	H	1.170411	0.751952	0.499983
Br141	Br	0.919441	-0.209434	0.178417
Br142	Br	1.419441	0.290566	0.678417
Br143	Br	1.061397	0.034424	0.799250
Br144	Br	1.561397	0.534424	1.299250
H145	H	0.839458	0.218969	0.775535
H146	H	1.339458	0.718969	1.275535
H147	H	0.847011	0.212662	0.616972
H148	H	1.347011	0.712662	1.116972
H149	H	0.923919	-0.059030	0.137337
H150	H	1.423919	0.440970	0.637337
H151	H	0.929735	-0.514336	-0.137358
H152	H	1.429735	-0.014336	0.362642
H153	H	0.817977	0.236766	0.224447
H154	H	1.317977	0.736766	0.724447
Br155	Br	0.912091	-0.653876	0.178395
Br156	Br	1.412091	-0.153876	0.678395
H157	H	1.012019	0.075426	0.224441
H158	H	1.512019	0.575426	0.724441
Br159	Br	0.732522	-0.009560	0.000004
Br160	Br	1.232522	0.490440	0.500004
Br161	Br	0.539794	-0.023375	-0.000029
Br162	Br	1.039794	0.476625	0.499971
Br163	Br	0.494692	0.273970	-0.000030
Br164	Br	0.994692	0.773970	0.499970
H165	H	0.294682	0.281935	-0.000027
H166	H	0.794682	0.781935	0.499973
Br167	Br	0.780256	0.268145	0.406743
Br168	Br	1.280256	0.768145	0.906743
