data_functionalizedCrystal
_audit_creation_method	'MofGen! by Chris Wilmer'
_symmetry_space_group_name_H-M	'P1'
_symmetry_Int_Tables_number	1
_symmetry_cell_setting	triclinic
loop_
_symmetry_equiv_pos_as_xyz
  x,y,z
_cell_length_a	12.759401
_cell_length_b	12.594516
_cell_length_c	12.594509
_cell_angle_alpha	89.975348
_cell_angle_beta	89.981759
_cell_angle_gamma	90.016479
loop_
_atom_site_label
_atom_site_type_symbol
_atom_site_fract_x
_atom_site_fract_y
_atom_site_fract_z
Zn1	Zn	1.606242	-0.423714	-0.601779
Zn2	Zn	1.606133	-0.601720	-0.423807
Zn3	Zn	1.430545	-0.423757	-0.423818
Zn4	Zn	1.430528	-0.601652	-0.601747
O5	O	1.518362	-0.512711	-0.512788
O6	O	1.753248	-0.447337	-0.578179
O7	O	1.582802	-0.578158	-0.274863
O8	O	1.453904	-0.274805	-0.447443
O9	O	1.753168	-0.578117	-0.447424
O10	O	1.582987	-0.274774	-0.578190
O11	O	1.453798	-0.447410	-0.274871
O12	O	1.283521	-0.447345	-0.447413
O13	O	1.453875	-0.578003	-0.750697
O14	O	1.283509	-0.578044	-0.578136
O15	O	1.582971	-0.447272	-0.750721
O16	O	1.582786	-0.750657	-0.447393
O17	O	1.453770	-0.750607	-0.578125
C18	C	1.245394	-0.512692	-0.512773
C19	C	1.128618	-0.512710	-0.512792
C20	C	1.073798	-0.444736	-0.580981
C21	C	0.964074	-0.444747	-0.580988
C22	C	0.963999	-0.580715	-0.444613
C23	C	1.073721	-0.580698	-0.444602
C24	C	1.518293	-0.789252	-0.512778
C25	C	1.518360	-0.907557	-0.512809
C26	C	1.448181	-0.976822	-0.583864
C27	C	1.422582	-1.047685	-0.486742
C28	C	1.544054	-1.047493	-0.609947
C29	C	1.492710	-0.976862	-0.415636
C30	C	1.614227	-0.976664	-0.538906
C31	C	1.588664	-1.047495	-0.441717
C32	C	1.792395	-0.512730	-0.512804
C33	C	1.909172	-0.512738	-0.512810
C34	C	1.518434	-0.512625	-0.790409
C35	C	1.518464	-0.512589	-0.908714
C36	C	1.518460	-0.235090	-0.512822
C37	C	1.518501	-0.116784	-0.512836
C38	C	1.448293	-0.583604	-1.048719
C39	C	1.422606	-0.486539	-0.977915
C40	C	1.544103	-0.609643	-0.977947
C41	C	1.492788	-0.415339	-1.048697
C42	C	1.614330	-0.538509	-1.048734
C43	C	1.588679	-0.441377	-0.977963
C44	C	1.518351	-0.512719	-0.236247
C45	C	1.518524	-0.512456	-0.117942
H46	H	0.919445	-0.389394	-0.636513
Br47	Br	1.687632	-0.341080	-0.926506
Br48	Br	1.148127	-0.672940	-0.352037
H49	H	1.470941	-0.945964	-0.333475
H50	H	1.388727	-0.945790	-0.643866
H51	H	1.388881	-0.643639	-1.079787
Br52	Br	0.889490	-0.672981	-0.352076
H53	H	1.341575	-1.078904	-0.464692
Br54	Br	1.687688	-1.098891	-0.341476
H55	H	1.695215	-0.945448	-0.561003
H56	H	1.565729	-1.078519	-0.692085
Br57	Br	1.287525	-0.449887	-0.926070
Br58	Br	1.456531	-0.278400	-1.100270
Br59	Br	1.148298	-0.352465	-0.673521
H60	H	1.695353	-0.560524	-1.079865
H61	H	1.565765	-0.691779	-0.946870
