data_functionalizedCrystal
_audit_creation_method	'MofGen! by Chris Wilmer'
_symmetry_space_group_name_H-M	'P1'
_symmetry_Int_Tables_number	1
_symmetry_cell_setting	triclinic
loop_
_symmetry_equiv_pos_as_xyz
  x,y,z
_cell_length_a	10.654549
_cell_length_b	14.971487
_cell_length_c	9.730223
_cell_angle_alpha	90.004318
_cell_angle_beta	90.000577
_cell_angle_gamma	95.950410
loop_
_atom_site_label
_atom_site_type_symbol
_atom_site_fract_x
_atom_site_fract_y
_atom_site_fract_z
O1	O	1.666487	-0.125631	-0.114256
O2	O	1.300880	-0.137600	-0.114265
O3	O	1.493482	-0.001469	-0.114254
O4	O	1.473884	-0.261762	-0.114267
O5	O	1.493480	-0.001462	0.114326
O6	O	1.300878	-0.137594	0.114315
O7	O	1.666485	-0.125624	0.114324
Zn8	Zn	1.483681	-0.131608	0.150611
Zn9	Zn	1.483683	-0.131616	-0.150553
O10	O	1.473883	-0.261756	0.114313
C11	C	1.254090	-0.136718	0.000023
C12	C	1.114675	-0.134089	0.000020
C13	C	0.903328	-0.211764	0.000021
C14	C	1.034322	-0.214241	0.000013
C15	C	1.064029	-0.051454	0.000021
C16	C	0.933037	-0.048978	0.000020
C17	C	1.492605	0.031864	0.000035
C18	C	1.489978	0.131175	0.000031
C19	C	1.603126	0.187785	0.000034
C20	C	1.600651	0.281098	0.000017
C21	C	1.485025	0.317799	0.000008
C22	C	1.371868	0.261182	0.000002
C23	C	1.374345	0.167871	0.000008
C24	C	1.366713	0.455673	-0.000008
C25	C	1.364235	0.548990	-0.000012
C26	C	1.593019	0.568899	0.000001
C27	C	1.595496	0.475588	0.000007
C28	C	1.482338	0.418978	0.000003
C29	C	1.713274	-0.126506	0.000032
C30	C	1.852689	-0.129136	0.000027
C31	C	1.474759	0.704911	0.000015
C32	C	1.477384	0.605600	-0.000010
N33	N	1.483686	-0.131615	-0.356089
C34	C	1.569129	-0.071456	-0.428010
C35	C	1.569134	-0.071451	-0.571893
C36	C	1.398242	-0.191768	-0.571921
C37	C	1.398243	-0.191777	-0.428041
N38	N	1.483689	-0.131602	0.356148
H39	H	1.075544	-0.281525	0.000008
H40	H	1.129464	0.013807	0.000019
H41	H	1.638703	-0.022470	-0.369430
H42	H	0.891809	0.018312	0.000020
H43	H	1.697282	0.157911	0.000049
H44	H	1.692788	0.327186	0.000022
H45	H	1.638711	-0.022465	-0.630447
H46	H	1.328674	-0.240749	-0.630519
H47	H	1.328665	-0.240770	-0.369479
H48	H	1.689648	0.445709	0.000025
O49	O	0.816661	-0.298214	0.000012
H50	H	0.873886	-0.356086	-0.000006
H51	H	1.274567	0.409582	-0.000015
O52	O	1.715076	0.629947	0.000002
H53	H	1.719439	0.672922	-0.093174
O54	O	1.239533	0.588587	-0.000032
H55	H	1.185170	0.565911	-0.093214
O56	O	1.247159	0.300771	-0.000001
H57	H	1.192785	0.278091	-0.093173
O58	O	1.252307	0.106806	0.000020
H59	H	1.171488	0.148002	0.000029
