data_functionalizedCrystal
_audit_creation_method	'MofGen! by Chris Wilmer'
_symmetry_space_group_name_H-M	'P1'
_symmetry_Int_Tables_number	1
_symmetry_cell_setting	triclinic
loop_
_symmetry_equiv_pos_as_xyz
  x,y,z
_cell_length_a	15.995350
_cell_length_b	11.026607
_cell_length_c	9.482944
_cell_angle_alpha	81.873049
_cell_angle_beta	79.530296
_cell_angle_gamma	96.039196
loop_
_atom_site_label
_atom_site_type_symbol
_atom_site_fract_x
_atom_site_fract_y
_atom_site_fract_z
O1	O	-1.148793	-0.173269	0.120765
O2	O	-0.648793	0.326731	0.620765
O3	O	-0.907933	-0.192589	0.120794
O4	O	-0.407933	0.307411	0.620794
O5	O	-1.008400	-0.006275	0.120777
O6	O	-0.508400	0.493725	0.620777
O7	O	-1.048326	-0.359582	0.120782
O8	O	-0.548326	0.140418	0.620782
O9	O	-0.979895	0.027466	-0.121013
O10	O	-0.479895	0.527466	0.378987
O11	O	-0.879428	-0.158847	-0.120996
O12	O	-0.379428	0.341153	0.379004
O13	O	-1.120288	-0.139528	-0.121025
O14	O	-0.620288	0.360472	0.378975
Cu15	Cu	-0.997255	-0.146107	-0.143087
Cu16	Cu	-0.497255	0.353893	0.356913
Cu17	Cu	-1.030966	-0.186010	0.142857
Cu18	Cu	-0.530966	0.313990	0.642857
O19	O	-1.019821	-0.325841	-0.121007
O20	O	-0.519821	0.174159	0.378993
C21	C	-0.862366	-0.174920	-0.000097
C22	C	-0.362366	0.325080	0.499903
C23	C	-0.769056	-0.172528	-0.000086
C24	C	-0.269056	0.327472	0.499914
C25	C	-0.986783	0.055806	-0.000116
C26	C	-0.486783	0.555806	0.499884
C27	C	-0.964827	0.190519	-0.000108
C28	C	-0.464827	0.690519	0.499892
C29	C	-1.165856	-0.157197	-0.000130
C30	C	-0.665856	0.342803	0.499870
C31	C	-1.259167	-0.159590	-0.000132
C32	C	-0.759167	0.340410	0.499868
C33	C	-0.430009	-0.163926	-0.000116
C34	C	0.069991	0.336074	0.499884
C35	C	-0.457380	-0.031163	-0.000658
C36	C	0.042620	0.468837	0.499342
C37	C	-0.554496	-0.033635	-0.000103
C38	C	-0.054496	0.466365	0.499897
C39	C	-0.598214	-0.168192	-0.000102
C40	C	-0.098214	0.331808	0.499898
C41	C	-0.583268	-0.252905	0.137967
C42	C	-0.083268	0.247095	0.637967
C43	C	-0.486143	-0.249587	0.138073
C44	C	0.013857	0.250413	0.638073
C45	C	-0.453801	-0.213958	-0.136887
C46	C	0.046199	0.286042	0.363113
C47	C	-0.550528	-0.213673	-0.138702
C48	C	-0.050528	0.286327	0.361298
C49	C	-0.693277	-0.170611	-0.000089
C50	C	-0.193277	0.329389	0.499911
C51	C	-0.334947	-0.161512	-0.000119
C52	C	0.165053	0.338488	0.499881
C53	C	-1.041439	-0.387922	-0.000112
C54	C	-0.541439	0.112078	0.499888
C55	C	-1.063396	-0.522637	-0.000110
C56	C	-0.563396	-0.022637	0.499890
N57	N	-0.973551	-0.118040	-0.344205
N58	N	-0.473551	0.381960	0.155795
C59	C	-1.025452	0.264325	-0.000113
C60	C	-0.525452	0.764325	0.499887
C61	C	-1.002761	0.403558	-0.000105
C62	C	-0.502761	0.903558	0.499895
C63	C	-1.023968	-0.177730	-0.416409
C64	C	-0.523968	0.322270	0.083591
C65	C	-1.004251	-0.154367	-0.583825
C66	C	-0.504251	0.345633	-0.083825
N67	N	-1.054675	-0.214066	0.343975
N68	N	-0.554675	0.285934	0.843975
H69	H	-0.563503	0.031621	-0.099077
H70	H	-0.063503	0.531621	0.400923
H71	H	-0.896125	0.230408	-0.000090
H72	H	-0.396125	0.730408	0.499910
H73	H	-1.112441	-0.282468	-0.593907
H74	H	-0.612441	0.217532	-0.093907
H75	H	-0.934055	0.443442	-0.000087
H76	H	-0.434055	0.943442	0.499913
H77	H	-1.132117	0.437465	-0.000009
H78	H	-0.632117	0.937465	0.499991
H79	H	-1.081731	-0.246125	-0.354284
H80	H	-0.581731	0.253875	0.145716
Br81	Br	-0.907978	-0.040344	-0.687351
Br82	Br	-0.407978	0.459656	-0.187351
H83	H	-0.915792	-0.049638	-0.406331
H84	H	-0.415792	0.450362	0.093669
Br85	Br	-0.425261	-0.376796	-0.138444
Br86	Br	0.074739	0.123204	0.361556
Br87	Br	-0.599143	-0.375286	-0.152603
Br88	Br	-0.099143	0.124714	0.347397
H89	H	-0.441437	0.007890	0.097810
H90	H	0.058563	0.507890	0.597810
Br91	Br	-0.393724	0.080271	-0.165692
Br92	Br	0.106276	0.580271	0.334308
Br93	Br	-0.632681	-0.418860	0.146566
Br94	Br	-0.132681	0.081140	0.646566
H95	H	-0.586236	0.004321	0.099042
H96	H	-0.086236	0.504321	0.599042
H97	H	-0.469316	-0.347878	0.144339
H98	H	0.030684	0.152122	0.644339
Br99	Br	-0.463913	-0.194047	0.310095
Br100	Br	0.036087	0.305953	0.810095
H101	H	-0.616905	-0.221789	0.240720
H102	H	-0.116905	0.278211	0.740720
H103	H	-0.414390	-0.155975	-0.241541
H104	H	0.085610	0.344025	0.258459
Br105	Br	-0.563847	-0.110151	-0.308949
Br106	Br	-0.063847	0.389849	0.191051
H107	H	-1.094154	0.224436	-0.000130
H108	H	-0.594154	0.724436	0.499870
