data_functionalizedCrystal
_audit_creation_method	'MofGen! by Chris Wilmer'
_symmetry_space_group_name_H-M	'P1'
_symmetry_Int_Tables_number	1
_symmetry_cell_setting	triclinic
loop_
_symmetry_equiv_pos_as_xyz
  x,y,z
_cell_length_a	9.065218
_cell_length_b	17.699083
_cell_length_c	7.540329
_cell_angle_alpha	89.995522
_cell_angle_beta	89.996962
_cell_angle_gamma	84.149450
loop_
_atom_site_label
_atom_site_type_symbol
_atom_site_fract_x
_atom_site_fract_y
_atom_site_fract_z
O1	O	1.957110	0.110973	-0.147491
O2	O	2.457110	0.610973	0.352509
O3	O	1.527555	0.120075	-0.147494
O4	O	2.027555	0.620075	0.352506
O5	O	1.754468	0.005430	-0.147477
O6	O	2.254468	0.505430	0.352523
O7	O	1.730196	0.225619	-0.147508
O8	O	2.230196	0.725619	0.352492
O9	O	1.754455	0.005428	0.147488
O10	O	2.254455	0.505428	0.647488
O11	O	1.527542	0.120074	0.147471
O12	O	2.027542	0.620074	0.647471
O13	O	1.957096	0.110971	0.147474
O14	O	2.457096	0.610971	0.647474
Cu15	Cu	1.742318	0.115522	0.174405
Cu16	Cu	2.242318	0.615522	0.674405
Cu17	Cu	1.742334	0.115524	-0.174425
Cu18	Cu	2.242334	0.615524	0.325575
O19	O	1.730183	0.225617	0.147457
O20	O	2.230183	0.725617	0.647457
C21	C	1.472588	0.119200	-0.000012
C22	C	1.972588	0.619200	0.499988
C23	C	1.308822	0.116584	-0.000012
C24	C	1.808822	0.616584	0.499988
C25	C	1.753592	-0.022775	0.000006
C26	C	2.253592	0.477225	0.500006
C27	C	1.750983	-0.106813	0.000007
C28	C	2.250983	0.393187	0.500007
C29	C	1.884176	-0.154396	0.000010
C30	C	2.384176	0.345604	0.500010
C31	C	1.881716	-0.233358	-0.000006
C32	C	2.381716	0.266642	0.499994
C33	C	1.746060	-0.264737	-0.000012
C34	C	2.246060	0.235263	0.499988
C35	C	1.612857	-0.217149	-0.000021
C36	C	2.112857	0.282851	0.499979
C37	C	1.615319	-0.138188	-0.000018
C38	C	2.115319	0.361812	0.499982
C39	C	1.602925	-0.535589	-0.000035
C40	C	2.102925	-0.035589	0.499965
C41	C	1.600474	-0.614556	-0.000033
C42	C	2.100474	-0.114556	0.499967
C43	C	1.869322	-0.630760	-0.000023
C44	C	2.369322	-0.130760	0.499977
C45	C	1.871784	-0.551799	-0.000020
C46	C	2.371784	-0.051799	0.499980
C47	C	1.738581	-0.504217	-0.000038
C48	C	2.238581	-0.004217	0.499962
C49	C	1.741251	-0.418597	-0.000025
C50	C	2.241251	0.081403	0.499975
C51	C	1.743390	-0.350355	-0.000013
C52	C	2.243390	0.149645	0.499987
C53	C	2.012064	0.111847	-0.000012
C54	C	2.512064	0.611847	0.499988
C55	C	2.175829	0.114463	-0.000023
C56	C	2.675829	0.614463	0.499977
C57	C	1.731059	0.253822	-0.000030
C58	C	2.231059	0.753822	0.499970
C59	C	1.733669	0.337860	-0.000042
C60	C	2.233669	0.837860	0.499958
N61	N	1.742317	0.115521	0.419754
N62	N	2.242317	0.615521	0.919754
N63	N	1.742346	0.115520	-0.419774
N64	N	2.242346	0.615520	0.080226
H65	H	1.994642	-0.128854	0.000026
H66	H	2.494642	0.371146	0.500026
H67	H	1.490001	-0.640101	-0.000035
H68	H	1.990001	-0.140101	0.499965
H69	H	1.502404	-0.242703	-0.000037
H70	H	2.002404	0.257297	0.499963
H71	H	1.494463	-0.496857	-0.000050
H72	H	1.994463	0.003143	0.499950
O73	O	1.485839	-0.092041	-0.000255
O74	O	1.985839	0.407959	0.499745
C75	C	1.403487	-0.106388	-0.153047
C76	C	1.903487	0.393612	0.346953
H77	H	1.439925	-0.166022	-0.203972
H78	H	1.939925	0.333978	0.296028
H79	H	1.423519	-0.063069	-0.260020
H80	H	1.923519	0.436931	0.239980
C81	C	1.192495	-0.026776	-0.044108
C82	C	1.692495	0.473224	0.455892
C83	C	1.237240	-0.100022	-0.106646
C84	C	1.737240	0.399978	0.393354
H85	H	1.089945	-0.022846	-0.015490
H86	H	1.589945	0.477154	0.484510
H87	H	1.247978	-0.017107	0.058829
H88	H	1.747978	0.482893	0.558829
H89	H	1.209201	0.009315	-0.133262
H90	H	1.709201	0.509315	0.366738
H91	H	1.220551	-0.136111	-0.017484
H92	H	1.720551	0.363889	0.482516
H93	H	1.181750	-0.109697	-0.209567
H94	H	1.681750	0.390303	0.290433
O95	O	1.998817	-0.676905	-0.000264
O96	O	2.498817	-0.176905	0.499736
C97	C	2.081192	-0.662543	-0.153044
C98	C	2.581192	-0.162543	0.346956
H99	H	2.044754	-0.602905	-0.203969
H100	H	2.544754	-0.102905	0.296031
H101	H	2.061184	-0.705855	-0.260023
H102	H	2.561184	-0.205855	0.239977
C103	C	2.292175	-0.742156	-0.044083
C104	C	2.792175	-0.242156	0.455917
C105	C	2.247430	-0.668905	-0.106621
C106	C	2.747430	-0.168905	0.393379
H107	H	2.394720	-0.746084	-0.015452
H108	H	2.894720	-0.246084	0.484548
H109	H	2.236677	-0.751834	0.058845
H110	H	2.736677	-0.251834	0.558845
H111	H	2.275490	-0.778241	-0.133243
H112	H	2.775490	-0.278241	0.366757
H113	H	2.264099	-0.632823	-0.017454
H114	H	2.764099	-0.132823	0.482546
H115	H	2.302935	-0.659221	-0.209533
H116	H	2.802935	-0.159221	0.290467
H117	H	1.990175	-0.272097	0.000001
H118	H	2.490175	0.227903	0.500001
H119	H	1.982248	-0.526255	-0.000006
H120	H	2.482248	-0.026255	0.499994
