data_functionalizedCrystal
_audit_creation_method	'MofGen! by Chris Wilmer'
_symmetry_space_group_name_H-M	'P1'
_symmetry_Int_Tables_number	1
_symmetry_cell_setting	triclinic
loop_
_symmetry_equiv_pos_as_xyz
  x,y,z
_cell_length_a	20.875641
_cell_length_b	18.878441
_cell_length_c	20.875641
_cell_angle_alpha	57.591349
_cell_angle_beta	89.845060
_cell_angle_gamma	57.588372
loop_
_atom_site_label
_atom_site_type_symbol
_atom_site_fract_x
_atom_site_fract_y
_atom_site_fract_z
Zr1	Zr	0.639066	0.728661	-0.063036
O2	O	0.528531	0.894355	-0.173564
O3	O	0.672953	0.575392	-0.029155
O4	O	0.667651	0.734873	-0.168271
O5	O	0.538012	0.725640	0.075291
O6	O	0.777391	0.725641	-0.164093
O7	O	0.533832	0.734873	-0.034449
O8	O	0.786874	0.440357	0.084760
O9	O	0.528529	1.010924	-0.173562
O10	O	0.769301	0.626942	-0.011585
O11	O	0.690523	0.626942	0.067194
O12	O	0.684282	0.814711	-0.096596
O13	O	0.605504	0.814711	-0.017817
Zr14	Zr	0.820756	0.699211	0.118649
Zr15	Zr	0.814088	0.713936	-0.056372
Zr16	Zr	0.645733	0.713936	0.111986
Zr17	Zr	0.639064	0.914576	-0.063032
Zr18	Zr	0.820758	0.513297	0.118645
O19	O	0.786869	0.852481	0.084769
O20	O	0.777390	0.873418	-0.164090
O21	O	0.538010	0.873418	0.075294
O22	O	0.931291	0.533518	0.229178
O23	O	0.921812	0.554455	-0.019680
O24	O	0.682432	0.554455	0.219703
O25	O	0.921810	0.702232	-0.019677
O26	O	0.792170	0.692999	0.223884
O27	O	0.682431	0.702232	0.219706
O28	O	0.925990	0.692999	0.090062
O29	O	0.667649	0.999220	-0.168265
O30	O	0.792173	0.428653	0.223879
O31	O	0.931293	0.416949	0.229175
O32	O	0.925993	0.428653	0.090057
O33	O	0.533829	0.999219	-0.034443
O34	O	0.672948	0.987515	-0.029146
O35	O	0.775540	0.613162	0.152210
O36	O	0.854318	0.613162	0.073431
O37	O	0.769299	0.800931	-0.011581
O38	O	0.690521	0.800930	0.067198
C39	C	0.729913	0.481386	0.027802
C40	C	0.729914	0.402460	0.027800
C41	C	0.771034	0.365381	-0.013323
C42	C	0.771037	0.291216	-0.013316
C43	C	0.729915	0.254137	0.027808
C44	C	0.688795	0.291219	0.068936
C45	C	0.688797	0.365377	0.068935
C46	C	0.688792	0.136653	0.068936
C47	C	0.688788	0.062491	0.068936
C48	C	0.771032	0.062492	-0.013315
C49	C	0.771034	0.136650	-0.013317
C50	C	0.729912	0.173728	0.027810
C51	C	0.510985	0.732355	0.019472
C52	C	0.436683	0.738606	0.016643
C53	C	0.446153	0.643532	0.059685
C54	C	0.376336	0.649412	0.057025
C55	C	0.297050	0.750367	0.011318
C56	C	0.287582	0.845448	-0.031726
C57	C	0.357398	0.839566	-0.029060
C58	C	0.083487	0.778466	-0.001407
C59	C	0.013669	0.784341	-0.004071
C60	C	0.102428	0.588304	0.084681
C61	C	0.172242	0.582432	0.087338
C62	C	0.162768	0.677512	0.044298
N63	N	0.225685	0.756380	0.008596
N64	N	0.234133	0.671498	0.047026
C65	C	0.948837	0.695518	0.036142
C66	C	1.023138	0.689267	0.038971
C67	C	0.721571	0.732355	-0.191119
C68	C	0.718741	0.738606	-0.265420
C69	C	0.729908	0.946487	0.027812
C70	C	0.729907	1.025412	0.027813
C71	C	0.761791	0.643532	-0.255954
C72	C	0.759125	0.649412	-0.325771
C73	C	0.713413	0.750368	-0.405053
C74	C	0.670358	0.845449	-0.414518
C75	C	0.673020	0.839568	-0.344702
C76	C	0.700688	0.778467	-0.618615
C77	C	0.698031	0.784341	-0.688433
C78	C	0.786797	0.588303	-0.599681
C79	C	0.789459	0.582431	-0.529867
C80	C	0.746401	0.677512	-0.539338
N81	N	0.710688	0.756380	-0.476418
N82	N	0.749121	0.671499	-0.467974
C83	C	0.738250	0.695518	0.246732
C84	C	0.741081	0.689266	0.321033
C85	C	0.948840	0.462967	0.036137
C86	C	1.023142	0.377791	0.038964
C87	C	0.738253	0.462967	0.246727
C88	C	0.741084	0.377790	0.321027
C89	C	0.957179	0.444549	0.255062
C90	C	1.034312	0.353121	0.332191
C91	C	0.502643	0.983324	-0.199449
C92	C	0.425510	1.074752	-0.276577
C93	C	0.510982	0.964905	0.019476
C94	C	0.436680	1.050082	0.016649
C95	C	0.721569	0.964906	-0.191114
C96	C	0.718738	1.050082	-0.265413
C97	C	1.013657	0.344985	-0.004093
C98	C	1.083464	0.264964	-0.001453
C99	C	1.162757	0.217746	0.044249
C100	C	1.172240	0.250560	0.087307
C101	C	1.102433	0.330584	0.084662
C102	C	0.786792	0.330597	0.400303
C103	C	0.789450	0.250574	0.470122
C104	C	0.746403	0.217741	0.460663
C105	C	0.700690	0.264944	0.381378
C106	C	0.698028	0.344970	0.311561
C107	C	1.111663	0.310185	0.327290
C108	C	1.184143	0.224289	0.399754
C109	C	1.179272	0.181326	0.477118
C110	C	1.101913	0.224270	0.482017
C111	C	1.029433	0.310169	0.409554
C112	C	0.348159	1.117697	-0.271676
C113	C	0.275678	1.203615	-0.344140
C114	C	0.280550	1.246583	-0.421505
C115	C	0.357909	1.203634	-0.426404
C116	C	0.430388	1.117722	-0.353941
C117	C	0.446165	1.082896	0.059699
C118	C	0.376357	1.162939	0.057040
C119	C	0.297064	1.210160	0.011335
C120	C	0.287581	1.177343	-0.031719
C121	C	0.357388	1.097307	-0.029065
C122	C	0.761793	1.082889	-0.255928
C123	C	0.759149	1.162909	-0.325733
C124	C	0.713444	1.210128	-0.405023
C125	C	0.670387	1.177314	-0.414507
C126	C	0.673037	1.097289	-0.344702
H127	H	0.804515	0.395571	-0.046815
H128	H	1.097958	0.189277	0.545017
H129	H	1.115645	0.345153	0.264302
H130	H	0.510723	1.044454	0.096922
Cl131	Cl	1.270397	0.073335	0.568208
H132	H	1.247126	0.189333	0.395750
Cl133	Cl	1.271929	0.191184	0.144762
H134	H	0.384094	1.189644	0.092104
H135	H	0.510708	0.561323	0.096908
Cl136	Cl	0.819269	0.516609	-0.156288
Cl137	Cl	0.932196	0.364129	0.415730
H138	H	0.344177	1.082718	-0.208689
H139	H	0.212697	1.238570	-0.340135
Cl140	Cl	0.618894	1.056068	-0.356642
H141	H	1.110168	0.357283	0.119729
Cl142	Cl	0.527626	1.063737	-0.360117
H143	H	0.804515	0.032298	-0.046802
Cl144	Cl	0.749760	0.117132	0.548443
H145	H	0.221527	1.316537	-0.480502
H146	H	0.633175	1.215772	-0.479074
Cl147	Cl	0.364020	1.257658	-0.523669
Cl148	Cl	0.819259	1.023542	-0.156257
H149	H	0.655303	0.032305	0.102423
Cl150	Cl	1.071523	0.223726	-0.055584
H151	H	0.633134	0.927649	-0.479076
Cl152	Cl	0.813277	1.204150	-0.313791
Cl153	Cl	0.646529	0.898002	-0.630532
H154	H	0.826677	0.212151	0.534673
H155	H	0.711294	1.275289	-0.461855
Cl156	Cl	0.209314	1.310773	0.008008
Cl157	Cl	0.388247	0.529883	0.111146
Cl158	Cl	0.846892	0.455513	-0.430202
H159	H	0.637961	0.916988	-0.352415
H160	H	0.660804	0.866555	-0.752990
H161	H	0.223012	1.215802	-0.068931
Cl162	Cl	0.640566	0.404284	0.211902
Cl163	Cl	0.822713	0.244629	-0.065036
Cl164	Cl	0.822722	0.183272	-0.065026
Cl165	Cl	0.637112	0.244590	0.120650
H166	H	0.349654	1.070593	-0.064119
H167	H	-0.050892	0.866555	-0.041295
Cl168	Cl	0.637094	0.183265	0.120639
H169	H	0.665643	0.238199	0.373689
Cl170	Cl	0.271913	0.455511	0.144801
Cl171	Cl	0.114331	0.468782	0.138788
Cl172	Cl	0.637104	0.411988	0.120636
H173	H	0.821851	0.510893	-0.591979
Cl174	Cl	1.250507	0.117142	0.047568
Cl175	Cl	0.071567	0.897997	-0.055518
H176	H	0.223021	0.927647	-0.068937
H177	H	0.349683	0.916985	-0.064100
H178	H	0.794181	0.571993	-0.318056
Cl179	Cl	0.840917	0.371851	0.412216
Cl180	Cl	0.913983	0.404334	-0.061557
