data_functionalizedCrystal
_audit_creation_method	'MofGen! by Chris Wilmer'
_symmetry_space_group_name_H-M	'P1'
_symmetry_Int_Tables_number	1
_symmetry_cell_setting	triclinic
loop_
_symmetry_equiv_pos_as_xyz
  x,y,z
_cell_length_a	6.817900
_cell_length_b	10.773890
_cell_length_c	19.453114
_cell_angle_alpha	96.632036
_cell_angle_beta	101.709288
_cell_angle_gamma	96.645716
loop_
_atom_site_label
_atom_site_type_symbol
_atom_site_fract_x
_atom_site_fract_y
_atom_site_fract_z
V1	V	-3.972243	-0.173886	-0.217846
O2	O	-3.996138	0.007019	-0.214877
O3	O	-3.890140	-0.343502	-0.215224
O4	O	-3.915573	-0.171798	-0.313373
O5	O	-3.970529	-0.165873	-0.116048
V6	V	-4.461309	-0.152179	-0.205808
O7	O	-4.221341	-0.221504	-0.244253
O8	O	-4.662409	-0.104561	-0.179401
O9	O	-4.320205	0.017437	-0.208430
O10	O	-4.554811	-0.333085	-0.208777
O11	O	-4.580420	-0.160192	-0.307606
O12	O	-4.294773	-0.154267	-0.110281
C13	C	-3.727210	-0.384833	-0.211495
C14	C	-3.741313	-0.523500	-0.209988
C15	C	-3.919162	-0.591378	-0.212607
C16	C	-3.933742	-0.734698	-0.211049
C17	C	-3.759651	-0.165805	-0.336693
C18	C	-3.794377	-0.165220	-0.414779
C19	C	-3.991230	-0.171207	-0.454997
C20	C	-4.023860	-0.170657	-0.528367
C21	C	-3.859629	-0.164146	-0.561519
C22	C	-3.662748	-0.158152	-0.521292
C23	C	-3.630122	-0.158689	-0.447922
N24	N	-3.786796	-0.230022	-0.679872
N25	N	-3.817802	-0.229515	-0.749571
C26	C	-3.957917	-0.162524	-0.782578
N27	N	-4.065888	-0.096077	-0.743256
N28	N	-4.034886	-0.096590	-0.673551
C29	C	-3.894986	-0.163562	-0.641076
C30	C	-4.190163	-0.167914	-0.902353
C31	C	-4.222785	-0.167356	-0.975724
C32	C	-3.861669	-0.154863	-0.968648
C33	C	-3.829051	-0.155408	-0.895277
C34	C	-3.993306	-0.161940	-0.862135
C35	C	-4.146476	0.058761	-0.212157
C36	C	-4.111611	0.197427	-0.213669
C37	C	-4.114036	-0.160264	-0.086957
C38	C	-4.058550	-0.160843	-0.008870
H39	H	-4.253095	-0.754591	-0.217067
C40	C	-3.612513	-0.148844	-0.851038
H41	H	-3.519373	-0.144898	-0.881289
H42	H	-3.581690	-0.075678	-0.816338
H43	H	-3.602873	-0.221924	-0.828202
C44	C	-4.110281	-0.526559	-0.217193
H45	H	-4.075406	-0.438734	-0.217633
H46	H	-4.206363	-0.562111	-0.259456
H47	H	-4.166967	-0.538829	-0.177305
C48	C	-3.482099	-0.150995	-0.557757
H49	H	-3.529724	-0.151546	-0.607215
H50	H	-3.391982	-0.075399	-0.538352
H51	H	-3.413155	-0.221644	-0.550207
H52	H	-4.383088	-0.172222	-1.008467
H53	H	-3.469817	-0.153804	-0.415176
H54	H	-4.124982	-0.176520	-0.428017
C55	C	-3.681014	-0.147701	-1.005106
H56	H	-3.728636	-0.148245	-1.054564
H57	H	-3.590895	-0.072107	-0.985698
H58	H	-3.612072	-0.218352	-0.997560
H59	H	-3.792263	-0.782684	-0.207658
H60	H	-3.599847	-0.571491	-0.206596
H61	H	-4.184167	-0.175539	-0.561119
H62	H	-4.323909	-0.173227	-0.875366
