data_functionalizedCrystal
_audit_creation_method	'MofGen! by Chris Wilmer'
_symmetry_space_group_name_H-M	'P1'
_symmetry_Int_Tables_number	1
_symmetry_cell_setting	triclinic
loop_
_symmetry_equiv_pos_as_xyz
  x,y,z
_cell_length_a	21.295420
_cell_length_b	16.120484
_cell_length_c	16.120297
_cell_angle_alpha	84.385569
_cell_angle_beta	92.878199
_cell_angle_gamma	87.076179
loop_
_atom_site_label
_atom_site_type_symbol
_atom_site_fract_x
_atom_site_fract_y
_atom_site_fract_z
Zn1	Zn	0.929947	0.356786	-0.489461
Zn2	Zn	1.429947	0.856786	0.010539
Zn3	Zn	0.929867	0.489476	-0.356771
Zn4	Zn	1.429867	0.989476	0.143229
Zn5	Zn	0.830300	0.349718	-0.349706
Zn6	Zn	1.330300	0.849718	0.150294
Zn7	Zn	0.819030	0.496512	-0.496493
Zn8	Zn	1.319030	0.996512	0.003507
O9	O	0.877286	0.423123	-0.423108
O10	O	1.377286	0.923123	0.076892
O11	O	1.018024	0.374401	-0.471873
O12	O	1.518024	0.874401	0.028127
O13	O	0.921343	0.465034	-0.238872
O14	O	1.421343	0.965034	0.261128
O15	O	0.848269	0.233690	-0.362345
O16	O	1.348269	0.733690	0.137655
O17	O	1.017966	0.471887	-0.374387
O18	O	1.517966	0.971887	0.125613
O19	O	0.921478	0.238883	-0.465022
O20	O	1.421478	0.738883	0.034978
O21	O	0.848192	0.362354	-0.233682
O22	O	1.348192	0.862354	0.266318
O23	O	0.740717	0.369177	-0.369164
O24	O	1.240717	0.869177	0.130836
O25	O	0.829059	0.483880	-0.612522
O26	O	1.329059	0.983880	-0.112522
O27	O	0.732436	0.477027	-0.477008
O28	O	1.232436	0.977027	0.022992
O29	O	0.910550	0.381224	-0.607356
O30	O	1.410550	0.881224	-0.107356
O31	O	0.910414	0.607374	-0.381206
O32	O	1.410414	1.107374	0.118794
O33	O	0.828982	0.612544	-0.483858
O34	O	1.328982	1.112544	0.016142
C35	C	0.713736	0.423099	-0.423083
C36	C	1.213736	0.923099	0.076917
C37	C	0.643767	0.423110	-0.423093
C38	C	1.143767	0.923110	0.076907
C39	C	0.140011	0.479376	-0.479215
C40	C	0.640011	0.979376	0.020785
C41	C	0.205754	0.479376	-0.479206
C42	C	0.705754	0.979376	0.020794
C43	C	0.242925	0.423143	-0.423135
C44	C	0.742925	0.923143	0.076865
C45	C	0.214348	0.366921	-0.367054
C46	C	0.714348	0.866921	0.132946
C47	C	0.148606	0.366929	-0.367059
C48	C	0.648606	0.866929	0.132941
N49	N	0.349358	0.349640	-0.413138
N50	N	0.849358	0.849640	0.086862
N51	N	0.411810	0.349635	-0.413139
N52	N	0.911810	0.849635	0.086861
C53	C	0.441001	0.423119	-0.423116
C54	C	0.941001	0.923119	0.076884
N55	N	0.405381	0.496609	-0.433110
N56	N	0.905381	0.996609	0.066890
N57	N	0.342924	0.496613	-0.433113
N58	N	0.842924	0.996613	0.066887
C59	C	0.314211	0.423129	-0.423123
C60	C	0.814211	0.923129	0.076877
C61	C	0.540857	0.479341	-0.479180
C62	C	1.040857	0.979341	0.020820
C63	C	0.606601	0.479342	-0.479166
C64	C	1.106601	0.979342	0.020834
C65	C	0.615194	0.366880	-0.367017
C66	C	1.115194	0.866880	0.132983
C67	C	0.549451	0.366887	-0.367028
C68	C	1.049451	0.866887	0.132972
C69	C	0.512286	0.423116	-0.423114
C70	C	1.012286	0.923116	0.076886
C71	C	0.868483	0.640288	-0.434080
C72	C	1.368483	1.140288	0.065920
C73	C	0.864774	0.733193	-0.438802
C74	C	1.364774	1.233193	0.061198
C75	C	0.868556	0.434125	-0.641114
C76	C	1.368556	0.934125	-0.141114
C77	C	0.864836	0.438814	-0.734015
C78	C	1.364836	0.938814	-0.234015
C79	C	1.041474	0.423148	-0.423134
C80	C	1.541474	0.923148	0.076866
C81	C	1.111442	0.423158	-0.423145
C82	C	1.611442	0.923158	0.076855
C83	C	0.886140	0.205111	-0.412111
C84	C	1.386140	0.705111	0.087889
C85	C	0.889912	0.112208	-0.407425
C86	C	1.389912	0.612208	0.092575
C87	C	0.858004	0.903293	-0.447440
C88	C	1.358004	1.403293	0.052560
C89	C	0.896680	0.942113	-0.398790
C90	C	1.396680	1.442113	0.101210
C91	C	0.892913	1.036763	-0.403596
C92	C	1.392913	1.536763	0.096404
C93	C	0.861770	0.808635	-0.442635
C94	C	1.361770	1.308635	0.057365
C95	C	0.858022	0.447355	-0.904105
C96	C	1.358022	0.947355	-0.404105
C97	C	0.896684	0.398640	-0.942950
C98	C	1.396684	0.898640	-0.442950
C99	C	0.892893	0.403393	-1.037594
C100	C	1.392893	0.903393	-0.537594
C101	C	0.861812	0.442604	-0.809452
C102	C	1.361812	0.942604	-0.309452
C103	C	0.886020	0.412103	-0.205947
C104	C	1.386020	0.912103	0.294053
C105	C	0.889872	0.407179	-0.113035
C106	C	1.389872	0.907179	0.386965
H107	H	0.244617	0.321138	-0.321399
H108	H	0.744617	0.821138	0.178601
H109	H	0.510596	0.525127	-0.524848
H110	H	1.010596	1.025127	-0.024848
O111	O	0.521613	0.312254	-0.312671
O112	O	1.021613	0.812254	0.187329
C113	C	0.452401	0.198839	-0.295875
C114	C	0.952401	0.698839	0.204125
C115	C	0.483879	0.260663	-0.357539
C116	C	0.983879	0.760663	0.142461
H117	H	0.421896	0.157100	-0.332127
H118	H	0.921896	0.657100	0.167873
H119	H	0.421784	0.234927	-0.254076
H120	H	0.921784	0.734927	0.245924
H121	H	0.490260	0.158683	-0.255765
H122	H	0.990260	0.658683	0.244235
H123	H	0.446063	0.300835	-0.397704
H124	H	0.946063	0.800835	0.102296
H125	H	0.514510	0.224524	-0.399280
H126	H	1.014510	0.724524	0.100720
H127	H	0.822077	0.492628	-0.941926
H128	H	1.322077	0.992628	-0.441926
H129	H	0.932632	0.353363	-0.905127
H130	H	1.432632	0.853363	-0.405127
H131	H	0.645458	0.321098	-0.321360
H132	H	1.145458	0.821098	0.178640
O133	O	0.120952	0.312232	-0.312562
O134	O	0.620952	0.812232	0.187438
C135	C	0.136412	0.200723	-0.201292
C136	C	0.636412	0.700723	0.298708
C137	C	0.167813	0.262610	-0.262976
C138	C	0.667813	0.762610	0.237024
H139	H	0.174285	0.160599	-0.161173
H140	H	0.674285	0.660599	0.338827
H141	H	0.105889	0.158960	-0.237491
H142	H	0.605889	0.658960	0.262509
H143	H	0.105808	0.236842	-0.159505
H144	H	0.605808	0.736842	0.340495
H145	H	0.198448	0.226559	-0.304778
H146	H	0.698448	0.726559	0.195222
H147	H	0.198299	0.304372	-0.226725
H148	H	0.698299	0.804372	0.273275
H149	H	0.629861	0.525127	-0.524823
H150	H	1.129861	1.025127	-0.024823
O151	O	0.939498	0.896839	-0.344807
O152	O	1.439498	1.396839	0.155193
C153	C	0.982373	0.759854	-0.290792
C154	C	1.482373	1.259854	0.209208
C155	C	0.933849	0.811028	-0.351951
C156	C	1.433849	1.311028	0.148049
H157	H	0.977831	0.690467	-0.296560
H158	H	1.477831	1.190467	0.203440
H159	H	0.973386	0.773539	-0.224218
H160	H	1.473386	1.273539	0.275782
H161	H	1.031862	0.777681	-0.306364
H162	H	1.531862	1.277681	0.193636
H163	H	0.884341	0.793230	-0.336456
H164	H	1.384341	1.293230	0.163544
H165	H	0.942891	0.797337	-0.418507
H166	H	1.442891	1.297337	0.081493
H167	H	0.822067	0.941139	-0.492696
H168	H	1.322067	1.441139	0.007304
H169	H	0.109755	0.525165	-0.524882
H170	H	0.609755	1.025165	-0.024882
H171	H	0.229020	0.525155	-0.524869
H172	H	0.729020	1.025155	-0.024869
