data_functionalizedCrystal
_audit_creation_method	'MofGen! by Chris Wilmer'
_symmetry_space_group_name_H-M	'P1'
_symmetry_Int_Tables_number	1
_symmetry_cell_setting	triclinic
loop_
_symmetry_equiv_pos_as_xyz
  x,y,z
_cell_length_a	15.298073
_cell_length_b	12.759400
_cell_length_c	12.759386
_cell_angle_alpha	90.061758
_cell_angle_beta	80.270534
_cell_angle_gamma	80.326808
loop_
_atom_site_label
_atom_site_type_symbol
_atom_site_fract_x
_atom_site_fract_y
_atom_site_fract_z
Zn1	Zn	-1.379692	-0.140042	0.872688
Zn2	Zn	-1.379542	-0.315886	0.696980
Zn3	Zn	-1.228739	-0.170590	0.666534
Zn4	Zn	-1.228789	-0.346068	0.842169
O5	O	-1.304191	-0.243146	0.769593
O6	O	-1.505937	-0.137952	0.874894
O7	O	-1.359454	-0.296765	0.545903
O8	O	-1.248805	-0.019508	0.693912
O9	O	-1.505827	-0.267143	0.745802
O10	O	-1.359710	0.002935	0.845372
O11	O	-1.248660	-0.190017	0.523535
O12	O	-1.102480	-0.219283	0.664319
O13	O	-1.248890	-0.318585	0.993255
O14	O	-1.102517	-0.348207	0.793357
O15	O	-1.359758	-0.167219	1.015678
O16	O	-1.359502	-0.466919	0.716208
O17	O	-1.248745	-0.489094	0.822878
C18	C	-1.069760	-0.290336	0.722223
C19	C	-0.969469	-0.310549	0.701983
C20	C	-0.687000	-0.098894	0.914202
C21	C	-0.781227	-0.079906	0.933225
C22	C	-0.828293	-0.137565	0.875416
C23	C	-0.781120	-0.214216	0.798581
C24	C	-0.686883	-0.233212	0.779563
C25	C	-0.828176	-0.271882	0.740776
C26	C	-0.781004	-0.348533	0.663942
C27	C	-0.686776	-0.367525	0.644926
C28	C	-0.639711	-0.309867	0.702735
C29	C	-0.922413	-0.252886	0.759795
C30	C	-0.922297	-0.387204	0.625155
C31	C	-0.828069	-0.406192	0.606133
C32	C	-1.304137	-0.516124	0.769563
C33	C	-1.304197	-0.632889	0.769602
C34	C	-0.539537	-0.195764	0.817138
C35	C	-0.639827	-0.175549	0.837375
C36	C	-1.361920	-0.675980	0.848520
C37	C	-1.361970	-0.785694	0.848559
C38	C	-1.246573	-0.809217	0.690753
C39	C	-1.246518	-0.699506	0.690720
C40	C	-1.304269	0.030903	0.769650
C41	C	-1.304302	0.147686	0.769675
C42	C	-1.304087	-0.243344	0.496604
C43	C	-1.304195	-0.243134	0.379850
C44	C	-1.246146	-0.188035	0.313318
C45	C	-1.246257	-0.187834	0.203616
C46	C	-1.362469	-0.297841	0.226989
C47	C	-1.362362	-0.298034	0.336689
C48	C	-1.304347	-0.242861	1.043658
C49	C	-1.304413	-0.242740	1.160448
H50	H	-0.960812	-0.190475	0.822353
H51	H	-1.199509	-0.664421	0.626454
C52	C	-1.183191	-0.882492	0.603927
N53	N	-1.135474	-0.937678	0.538506
C54	C	-1.182169	-0.127633	0.360792
N55	N	-1.133983	-0.082131	0.396546
C56	C	-0.931946	-0.116665	0.896334
N57	N	-1.010022	-0.100914	0.912088
C58	C	-1.426223	-0.358653	0.409879
N59	N	-1.474322	-0.404307	0.465006
H60	H	-0.648671	-0.051963	0.961268
C61	C	-0.833110	0.004416	1.017732
N62	N	-0.872188	0.067936	1.081384
H63	H	-0.562983	-0.325330	0.687258
H64	H	-1.408884	-0.621743	0.912752
C65	C	-0.634889	-0.451844	0.560405
N66	N	-0.595810	-0.515350	0.496741
C67	C	-0.974065	-0.450631	0.561558
N68	N	-1.013062	-0.498400	0.513662
C69	C	-0.776167	-0.490512	0.521621
N70	N	-0.737074	-0.554022	0.457968
H71	H	-1.198988	-0.142965	0.149450
C72	C	-1.426442	-0.358237	0.179500
N73	N	-1.474625	-0.403733	0.143732
H74	H	-1.408972	-0.820772	0.912823
