data_functionalizedCrystal
_audit_creation_method	'MofGen! by Chris Wilmer'
_symmetry_space_group_name_H-M	'P1'
_symmetry_Int_Tables_number	1
_symmetry_cell_setting	triclinic
loop_
_symmetry_equiv_pos_as_xyz
  x,y,z
_cell_length_a	16.109301
_cell_length_b	19.188930
_cell_length_c	14.586319
_cell_angle_alpha	89.991095
_cell_angle_beta	89.999213
_cell_angle_gamma	83.303131
loop_
_atom_site_label
_atom_site_type_symbol
_atom_site_fract_x
_atom_site_fract_y
_atom_site_fract_z
O1	O	1.102833	0.089744	-0.076193
O2	O	0.860734	0.100912	-0.076209
O3	O	0.988770	-0.006311	-0.076182
O4	O	0.974797	0.196968	-0.076219
O5	O	0.988762	-0.006313	0.076298
O6	O	0.860726	0.100911	0.076272
O7	O	1.102825	0.089742	0.076288
Cu8	Cu	0.981774	0.095326	0.090203
Cu9	Cu	0.981785	0.095328	-0.090124
O10	O	0.974789	0.196966	0.076262
C11	C	0.829757	0.100459	0.000030
C12	C	0.737466	0.099103	0.000025
C13	C	0.514993	0.159573	0.000024
C14	C	0.428277	0.158294	0.000030
C15	C	0.448573	0.031076	0.000050
C16	C	0.535287	0.032357	0.000050
C17	C	0.568495	0.096608	0.000033
C18	C	0.395064	0.094047	0.000038
C19	C	0.301043	0.092659	0.000045
C20	C	0.662522	0.097996	0.000028
C21	C	0.988313	-0.032324	0.000061
C22	C	0.986955	-0.109832	0.000068
C23	C	1.062082	-0.154580	0.000078
C24	C	1.060806	-0.227407	0.000063
C25	C	0.984399	-0.255482	0.000057
C26	C	0.909261	-0.210724	0.000043
C27	C	0.910540	-0.137899	0.000048
N28	N	0.925991	-0.363624	0.051945
N29	N	0.924782	-0.432805	0.051942
C30	C	0.980543	-0.474900	0.000038
N31	N	1.037571	-0.445200	-0.051850
N32	N	1.038783	-0.376013	-0.051843
C33	C	0.983004	-0.334448	0.000051
C34	C	1.054292	-0.598616	0.000030
C35	C	1.053012	-0.671443	0.000010
C36	C	0.901465	-0.654759	-0.000001
C37	C	0.902747	-0.581933	0.000010
C38	C	0.979162	-0.553866	0.000030
C39	C	1.133802	0.090196	0.000047
C40	C	1.226093	0.091552	0.000046
C41	C	0.975246	0.222979	0.000017
C42	C	0.976604	0.300486	0.000003
N43	N	0.981773	0.095325	0.217034
N44	N	0.981793	0.095325	-0.216955
C45	C	1.038486	0.047862	0.452052
C46	C	1.038488	0.047860	0.548034
C47	C	0.925074	0.142790	0.548020
C48	C	0.925068	0.142787	0.452040
C49	C	0.981779	0.095324	0.404059
C50	C	0.981787	0.095325	0.596020
C51	C	0.981789	0.095323	0.700087
C52	C	0.981776	0.095325	0.299985
H53	H	0.384719	0.209567	0.000025
H54	H	1.116514	-0.575763	0.000042
C55	C	0.412565	-0.038700	0.000245
C56	C	0.439760	-0.076761	0.078709
C57	C	0.406600	-0.141040	0.078922
H58	H	0.430927	-0.064705	-0.052863
H59	H	0.353255	-0.030476	0.000289
H60	H	0.499057	-0.084987	0.078656
H61	H	0.421399	-0.050777	0.131829
H62	H	0.347290	-0.132816	0.078966
H63	H	0.424965	-0.167039	0.025810
H64	H	0.425041	-0.166870	0.132162
H65	H	0.542027	0.211890	0.000017
H66	H	1.084662	0.009214	0.412988
H67	H	0.849360	-0.101464	0.000041
H68	H	0.878902	0.181434	0.587096
H69	H	0.839253	-0.677617	-0.000010
C70	C	0.593423	-0.035988	0.000245
C71	C	0.643782	-0.038978	0.078706
C72	C	0.697339	-0.101927	0.078926
H73	H	0.627752	-0.038196	-0.052865
H74	H	0.561258	-0.074457	0.000298
H75	H	0.675944	-0.000520	0.078645
H76	H	0.609475	-0.036782	0.131829
H77	H	0.665173	-0.140396	0.078979
H78	H	0.731662	-0.104129	0.025813
H79	H	0.731508	-0.103967	0.132165
H80	H	1.084663	0.009211	0.587107
C81	C	0.863459	0.194400	0.400092
C82	C	0.813815	0.235983	0.462652
C83	C	0.757061	0.283538	0.414831
H84	H	0.828864	0.169354	0.362657
H85	H	0.893237	0.223508	0.362659
H86	H	0.784039	0.206879	0.500069
H87	H	0.848388	0.261044	0.500089
H88	H	0.786839	0.312646	0.377397
H89	H	0.722471	0.258486	0.377397
H90	H	0.723376	0.311762	0.457270
C91	C	1.145072	-0.124150	-0.000099
C92	C	1.190470	-0.146874	-0.078554
C93	C	1.266919	-0.118848	-0.078755
H94	H	1.176090	-0.139502	0.053015
H95	H	1.135114	-0.074365	-0.000146
H96	H	1.200430	-0.196648	-0.078498
H97	H	1.159477	-0.131523	-0.131681
H98	H	1.256961	-0.069064	-0.078803
H99	H	1.297930	-0.134202	-0.025638
H100	H	1.297728	-0.134257	-0.131990
H101	H	1.121986	-0.263848	0.000067
H102	H	1.114193	-0.707878	0.000012
C103	C	0.826388	-0.241337	0.000084
C104	C	0.841348	-0.314693	0.000108
C105	C	0.765023	-0.342916	0.000153
H106	H	0.795405	-0.226046	-0.053078
H107	H	0.795453	-0.226021	0.053276
H108	H	0.872270	-0.330002	-0.053079
H109	H	0.872318	-0.330003	0.053266
H110	H	0.734087	-0.327600	0.053345
H111	H	0.734045	-0.327620	-0.053009
H112	H	0.775162	-0.392690	0.000178
H113	H	0.841570	-0.545497	0.000008
