data_functionalizedCrystal
_audit_creation_method	'MofGen! by Chris Wilmer'
_symmetry_space_group_name_H-M	'P1'
_symmetry_Int_Tables_number	1
_symmetry_cell_setting	triclinic
loop_
_symmetry_equiv_pos_as_xyz
  x,y,z
_cell_length_a	17.640280
_cell_length_b	18.050591
_cell_length_c	17.640968
_cell_angle_alpha	78.768565
_cell_angle_beta	65.682561
_cell_angle_gamma	78.795194
loop_
_atom_site_label
_atom_site_type_symbol
_atom_site_fract_x
_atom_site_fract_y
_atom_site_fract_z
Zn1	Zn	-0.233915	1.255799	-0.399858
Zn2	Zn	-0.399584	1.255738	-0.234219
Zn3	Zn	-0.261795	1.110724	-0.262041
Zn4	Zn	-0.371676	1.152473	-0.371985
O5	O	-0.316742	1.193683	-0.317026
O6	O	-0.255903	1.359721	-0.377907
O7	O	-0.404653	1.219003	-0.122577
O8	O	-0.142778	1.112521	-0.303631
O9	O	-0.377619	1.359677	-0.256213
O10	O	-0.122295	1.219107	-0.404884
O11	O	-0.303420	1.112462	-0.143017
O12	O	-0.276359	1.012331	-0.276604
O13	O	-0.330054	1.183677	-0.491015
O14	O	-0.357088	1.043004	-0.357380
O15	O	-0.228842	1.259590	-0.511493
O16	O	-0.511200	1.259486	-0.229186
O17	O	-0.490696	1.183619	-0.330402
C18	C	-0.316721	1.000720	-0.316986
C19	C	-0.316728	0.918175	-0.316985
C20	C	-0.530845	1.226099	-0.273769
C21	C	-0.622433	1.240039	-0.255291
C22	C	-0.870479	1.088135	-0.457701
C23	C	-0.956546	1.101231	-0.440312
C24	C	-0.977810	1.180307	-0.335022
C25	C	-0.891743	1.167221	-0.352406
C26	C	-0.838084	1.121133	-0.413745
C27	C	-0.859347	1.200219	-0.308449
C28	C	-0.773288	1.187130	-0.325828
C29	C	-0.719625	1.141043	-0.387164
C30	C	-0.752025	1.108044	-0.431124
C31	C	-0.913008	1.246302	-0.247106
C32	C	-0.880613	1.279301	-0.203150
C33	C	-0.794552	1.266216	-0.220533
C34	C	-0.740888	1.220129	-0.281868
C35	C	-0.762151	1.299215	-0.176572
C36	C	-0.676092	1.286126	-0.193951
C37	C	-0.654829	1.207040	-0.299247
C38	C	-0.272738	0.702032	-0.273199
C39	C	-0.351999	0.660950	-0.237742
C40	C	-0.316745	0.767054	-0.317017
C41	C	-0.237510	0.661058	-0.352466
C42	C	-0.316756	0.621077	-0.317048
C43	C	-0.396053	0.727059	-0.281514
C44	C	-0.281507	0.727169	-0.396283
C45	C	-0.360815	0.686122	-0.360845
C46	C	-0.316738	0.851147	-0.316998
C47	C	-0.316771	0.536987	-0.317066
C48	C	-0.101800	1.161164	-0.360470
C49	C	-0.010204	1.147306	-0.378983
C50	C	-0.273225	1.226298	-0.531995
C51	C	-0.254680	1.240196	-0.623602
C52	C	-0.316764	1.387401	-0.317066
C53	C	-0.316774	1.469951	-0.317083
C54	C	-0.457175	1.088317	-0.871576
C55	C	-0.439739	1.101390	-0.957657
C56	C	-0.334356	1.180431	-0.978968
C57	C	-0.351780	1.167361	-0.892888
C58	C	-0.413191	1.121304	-0.839198
C59	C	-0.307796	1.200349	-0.860510
C60	C	-0.325223	1.187283	-0.774437
C61	C	-0.386633	1.141230	-0.720741
C62	C	-0.430617	1.108238	-0.753125
C63	C	-0.246390	1.246410	-0.914201
C64	C	-0.202406	1.279398	-0.881823
C65	C	-0.219828	1.266328	-0.795749
C66	C	-0.281238	1.220274	-0.742053
C67	C	-0.175843	1.299319	-0.763365
C68	C	-0.193269	1.286253	-0.677292
C69	C	-0.298664	1.207208	-0.655980
C70	C	-0.360031	1.161230	-0.102905
C71	C	-0.378343	1.147440	-0.011345
H72	H	-0.649551	1.130381	-0.401307
C73	C	-0.145641	1.322034	-0.641965
C74	C	-0.174067	1.300752	-0.555090
C75	C	-0.130224	1.333713	-0.522515
H76	H	-0.087400	1.304959	-0.667161
H77	H	-0.154873	1.375910	-0.653591
H78	H	-0.164828	1.246887	-0.543471
H79	H	-0.232302	1.317827	-0.529871
H80	H	-0.139456	1.387590	-0.534141
H81	H	-0.071985	1.316636	-0.547718
H82	H	-0.149510	1.319284	-0.463567
H83	H	-0.463099	0.755681	-0.251471
H84	H	-0.708332	1.070522	-0.481079
H85	H	-0.284357	1.217934	-1.022693
H86	H	-0.826786	1.050612	-0.507657
C87	C	-0.991550	1.065369	-0.488166
C88	C	-0.926132	1.022224	-0.545617
C89	C	-0.958345	0.989186	-0.589720
H90	H	-1.031529	1.033305	-0.449909
H91	H	-1.017788	1.104295	-0.517384
H92	H	-0.899907	0.983302	-0.516401
H93	H	-0.886148	1.054270	-0.583891
H94	H	-0.984582	1.028112	-0.618938
H95	H	-0.998323	0.957126	-0.551457
H96	H	-0.913963	0.959914	-0.628711
H97	H	-0.170512	0.632296	-0.382405
H98	H	-0.398088	0.678735	-0.397903
C99	C	-0.640758	1.321856	-0.146293
C100	C	-0.553910	1.300511	-0.174627
C101	C	-0.521334	1.333400	-0.130733
H102	H	-0.652276	1.375730	-0.155542
H103	H	-0.666048	1.304757	-0.088044
H104	H	-0.528628	1.317614	-0.232862
H105	H	-0.542369	1.246642	-0.165377
H106	H	-0.546624	1.316302	-0.072483
H107	H	-0.532857	1.387273	-0.139985
H108	H	-0.462405	1.318917	-0.149946
C109	C	-0.241571	0.765531	-0.485635
C110	C	-0.158575	0.731805	-0.522437
C111	C	-0.121747	0.767132	-0.604745
H112	H	-0.272166	0.759732	-0.517122
H113	H	-0.242281	0.818176	-0.485013
H114	H	-0.157871	0.679174	-0.523064
H115	H	-0.127959	0.737604	-0.490974
H116	H	-0.122456	0.819776	-0.604123
H117	H	-0.152348	0.761330	-0.636224
H118	H	-0.065429	0.744259	-0.629723
H119	H	-0.400823	1.130596	-0.650655
C120	C	-0.391875	0.622591	-0.148373
C121	C	-0.474381	0.657215	-0.110986
C122	C	-0.511126	0.621879	-0.028669
H123	H	-0.392111	0.570143	-0.149029
H124	H	-0.360602	0.627597	-0.117232
H125	H	-0.505646	0.652203	-0.142119
H126	H	-0.474168	0.709661	-0.110308
H127	H	-0.479852	0.626885	0.002472
H128	H	-0.511356	0.569432	-0.029333
H129	H	-0.567107	0.645371	-0.003290
C130	C	-0.109064	1.349194	-0.821726
C131	C	-0.046227	1.306651	-0.881804
C132	C	0.015308	1.352568	-0.935572
H133	H	-0.133689	1.391431	-0.849017
H134	H	-0.085309	1.366953	-0.790151
H135	H	-0.069980	1.288903	-0.913376
H136	H	-0.021580	1.264416	-0.854537
H137	H	0.039063	1.370327	-0.903997
H138	H	-0.009325	1.394803	-0.962857
H139	H	0.057953	1.323708	-0.976337
H140	H	-1.021510	1.217829	-0.285077
C141	C	-0.365276	1.157191	-0.597550
C142	C	-0.371106	1.152797	-0.515245
C143	C	-0.432448	1.106723	-0.461399
H144	H	-0.417846	1.178516	-0.600358
H145	H	-0.350352	1.107581	-0.614040
H146	H	-0.386034	1.202397	-0.498759
H147	H	-0.318551	1.131464	-0.512410
H148	H	-0.417524	1.057113	-0.477889
H149	H	-0.485013	1.128053	-0.464214
H150	H	-0.436406	1.103730	-0.405550
C151	C	-0.223327	0.712040	-0.223561
C152	C	-0.260593	0.678296	-0.140618
C153	C	-0.215110	0.687510	-0.094864
H154	H	-0.167269	0.688437	-0.248079
H155	H	-0.223268	0.764791	-0.224258
H156	H	-0.260644	0.625556	-0.139926
H157	H	-0.316648	0.701892	-0.116077
H158	H	-0.215051	0.740260	-0.095561
H159	H	-0.159053	0.663906	-0.119389
H160	H	-0.240393	0.664622	-0.038581
C161	C	-1.006414	1.260622	-0.228392
C162	C	-1.018967	1.295769	-0.301130
C163	C	-1.105000	1.308983	-0.283921
H164	H	-1.028918	1.213555	-0.210180
H165	H	-1.033754	1.292825	-0.185596
H166	H	-0.991638	1.263566	-0.343912
H167	H	-0.996482	1.342841	-0.319353
H168	H	-1.132340	1.341187	-0.241125
H169	H	-1.127497	1.261914	-0.265708
H170	H	-1.113529	1.332838	-0.333268
C171	C	-0.939007	1.329332	-0.136603
C172	C	-1.021307	1.333741	-0.130797
C173	C	-1.075119	1.379828	-0.069506
H174	H	-0.936232	1.308009	-0.084011
H175	H	-0.922464	1.378937	-0.151568
H176	H	-1.037845	1.284146	-0.115827
H177	H	-1.024109	1.355072	-0.183373
H178	H	-1.058577	1.429433	-0.084471
H179	H	-1.072337	1.358500	-0.016918
H180	H	-1.130965	1.382831	-0.065564
H181	H	-0.480605	1.070713	-0.709411
C182	C	-0.820305	1.349356	-0.110041
C183	C	-0.795661	1.422364	-0.132294
C184	C	-0.849206	1.468570	-0.071019
H185	H	-0.876220	1.352513	-0.105931
H186	H	-0.817414	1.328021	-0.057488
H187	H	-0.798560	1.443694	-0.184832
H188	H	-0.739754	1.419230	-0.136397
H189	H	-0.846316	1.447235	-0.018466
H190	H	-0.905119	1.471721	-0.066913
H191	H	-0.832489	1.518108	-0.086104
C192	C	-0.227642	1.260630	-1.007618
C193	C	-0.300340	1.295749	-1.020244
C194	C	-0.283105	1.308850	-1.106288
H195	H	-0.184815	1.292810	-1.035048
H196	H	-0.209477	1.213507	-1.029988
H197	H	-0.318495	1.342864	-0.997884
H198	H	-0.343177	1.263581	-0.992834
H199	H	-0.264939	1.261728	-1.128658
H200	H	-0.240276	1.341029	-1.133710
H201	H	-0.332429	1.332673	-1.114865
H202	H	-0.507162	1.050791	-0.827862
H203	H	-0.475561	1.074525	-0.984014
H204	H	-0.611136	1.169518	-0.349202
H205	H	-0.152408	1.316900	-0.925548
