data_functionalizedCrystal
_audit_creation_method	'MofGen! by Chris Wilmer'
_symmetry_space_group_name_H-M	'P1'
_symmetry_Int_Tables_number	1
_symmetry_cell_setting	triclinic
loop_
_symmetry_equiv_pos_as_xyz
  x,y,z
_cell_length_a	10.723022
_cell_length_b	10.489716
_cell_length_c	9.798715
_cell_angle_alpha	90.000892
_cell_angle_beta	89.996609
_cell_angle_gamma	84.498181
loop_
_atom_site_label
_atom_site_type_symbol
_atom_site_fract_x
_atom_site_fract_y
_atom_site_fract_z
O1	O	1.657282	0.178898	-0.113469
O2	O	1.294139	0.196026	-0.113472
O3	O	1.483990	0.001857	-0.113475
O4	O	1.467432	0.373067	-0.113466
O5	O	1.483976	0.001856	0.113507
O6	O	1.294125	0.196025	0.113510
O7	O	1.657268	0.178898	0.113513
Zn8	Zn	1.475694	0.187461	0.149550
Zn9	Zn	1.475713	0.187462	-0.149509
O10	O	1.467417	0.373067	0.113516
C11	C	1.247631	0.194779	0.000018
C12	C	1.109075	0.191052	0.000016
C13	C	1.060455	0.079081	0.000013
C14	C	0.917250	0.075226	0.000011
C15	C	1.482739	-0.045675	0.000012
C16	C	1.479016	-0.187303	-0.000001
C17	C	1.595439	-0.285052	0.000013
C18	C	1.533926	-0.362373	-0.111898
C19	C	1.533885	-0.362338	0.111888
C20	C	1.417552	-0.262759	-0.112004
C21	C	1.417528	-0.262718	0.111883
C22	C	1.355929	-0.339989	-0.000056
C23	C	1.703776	0.180144	0.000020
C24	C	1.842332	0.183872	0.000013
C25	C	1.468669	0.420598	0.000027
C26	C	1.472391	0.562227	0.000030
N27	N	1.475690	0.187460	0.353650
N28	N	1.475726	0.187453	-0.353609
C29	C	1.555403	0.105575	0.421425
C30	C	1.555423	0.105570	0.578588
H31	H	1.044682	0.284059	0.000013
C32	C	1.146096	-0.045083	-0.000065
C33	C	1.073488	-0.149131	-0.000105
C34	C	1.152333	-0.263534	-0.000199
H35	H	1.197481	-0.048660	0.079064
H36	H	1.197436	-0.048540	-0.079254
H37	H	1.022169	-0.145676	0.079075
H38	H	1.022105	-0.145596	-0.079228
H39	H	1.203673	-0.266992	-0.079388
H40	H	1.203714	-0.267098	0.078932
H41	H	1.103080	-0.334144	-0.000238
H42	H	1.583050	-0.405842	0.206498
C43	C	1.352257	-0.204733	0.238206
C44	C	1.413656	-0.255392	0.355078
C45	C	1.353585	-0.201993	0.471482
H46	H	1.267632	-0.224450	0.239202
H47	H	1.354505	-0.114420	0.236903
H48	H	1.411395	-0.345685	0.356381
H49	H	1.498277	-0.235678	0.354127
H50	H	1.355833	-0.111680	0.470179
H51	H	1.268962	-0.221713	0.472465
H52	H	1.395242	-0.236349	0.550793
H53	H	1.696707	-0.260441	-0.000100
C54	C	1.646242	0.011919	0.343704
C55	C	1.624593	-0.113578	0.378296
C56	C	1.708241	-0.199877	0.306701
H57	H	1.729785	0.026124	0.366965
H58	H	1.634108	0.024290	0.248402
H59	H	1.636737	-0.125943	0.473577
H60	H	1.541067	-0.127824	0.355031
H61	H	1.696108	-0.187506	0.211399
H62	H	1.791779	-0.185660	0.329967
H63	H	1.693557	-0.285035	0.330152
H64	H	0.875388	-0.020643	-0.000027
C65	C	1.646627	0.012230	0.656218
C66	C	1.769553	0.033690	0.621560
C67	C	1.853604	-0.052264	0.693060
H68	H	1.632265	-0.073041	0.632925
H69	H	1.634631	0.024655	0.751534
H70	H	1.781543	0.021255	0.526265
H71	H	1.783955	0.118944	0.644856
H72	H	1.841608	-0.039839	0.788376
H73	H	1.839230	-0.137529	0.669762
H74	H	1.937018	-0.037707	0.669565
H75	H	1.254585	-0.364355	-0.000117
H76	H	1.407455	0.257558	0.411975
H77	H	0.884186	0.279745	0.000024
C78	C	1.599696	-0.420382	-0.237936
C79	C	1.724970	-0.393075	-0.237410
C80	C	1.785608	-0.446503	-0.353477
H81	H	1.559335	-0.385001	-0.317511
H82	H	1.596231	-0.510543	-0.237437
H83	H	1.728428	-0.302932	-0.237922
H84	H	1.765365	-0.428457	-0.157861
H85	H	1.782143	-0.536663	-0.352978
H86	H	1.745237	-0.411117	-0.433044
H87	H	1.870615	-0.427992	-0.353129
H88	H	1.407482	0.257567	0.588116
C89	C	1.352196	-0.204755	-0.238270
C90	C	1.356574	-0.071789	-0.236863
C91	C	1.296407	-0.018314	-0.353168
H92	H	1.267346	-0.223748	-0.238726
H93	H	1.393282	-0.239671	-0.317672
H94	H	1.315484	-0.036884	-0.157482
H95	H	1.441407	-0.052759	-0.236427
H96	H	1.337494	-0.053231	-0.432570
H97	H	1.211561	-0.037316	-0.353614
H98	H	1.299380	0.071907	-0.352235
