data_functionalizedCrystal
_audit_creation_method	'MofGen! by Chris Wilmer'
_symmetry_space_group_name_H-M	'P1'
_symmetry_Int_Tables_number	1
_symmetry_cell_setting	triclinic
loop_
_symmetry_equiv_pos_as_xyz
  x,y,z
_cell_length_a	14.044191
_cell_length_b	10.489716
_cell_length_c	12.503572
_cell_angle_alpha	93.562900
_cell_angle_beta	86.162165
_cell_angle_gamma	88.860456
loop_
_atom_site_label
_atom_site_type_symbol
_atom_site_fract_x
_atom_site_fract_y
_atom_site_fract_z
O1	O	1.265205	0.301031	-0.089250
O2	O	0.989161	0.289915	-0.089265
O3	O	1.133477	0.110512	-0.089261
O4	O	1.120890	0.480435	-0.089254
O5	O	1.122624	0.124028	0.089381
O6	O	0.978308	0.303432	0.089377
O7	O	1.254352	0.314548	0.089391
Cu8	Cu	1.115339	0.310224	0.105696
Cu9	Cu	1.128174	0.294239	-0.105569
O10	O	1.110036	0.493951	0.089388
C11	C	0.948388	0.291811	0.000054
C12	C	0.843064	0.277308	0.000048
C13	C	0.593293	0.353654	0.000060
C14	C	0.650227	0.250814	0.000057
C15	C	0.757531	0.265558	0.000052
C16	C	0.485978	0.338912	0.000065
C17	C	1.127105	0.069642	0.000056
C18	C	1.124276	-0.072277	0.000047
C19	C	1.212774	-0.160971	0.000061
C20	C	1.171360	-0.249741	-0.088018
C21	C	1.160640	-0.236380	0.088108
C22	C	1.082904	-0.159183	-0.088106
C23	C	1.072191	-0.145810	0.088100
C24	C	1.030714	-0.234539	-0.000001
C25	C	1.295126	0.312651	0.000070
C26	C	1.400450	0.327155	0.000069
C27	C	1.116409	0.534821	0.000068
C28	C	1.119238	0.676740	0.000071
N29	N	1.106318	0.321467	0.254288
N30	N	1.137202	0.282987	-0.254161
C31	C	1.093049	0.338017	0.473402
C32	C	1.150469	0.266441	0.526731
C33	C	1.143086	0.275649	0.648654
C34	C	1.100431	0.328810	0.351468
H35	H	0.625137	0.452765	0.000059
H36	H	0.953680	-0.266790	-0.000052
C37	C	1.019156	0.430148	0.535414
C38	C	1.011153	0.438444	0.659096
C39	C	0.937264	0.530579	0.721122
C40	C	0.871378	0.614419	0.659466
C41	C	0.879378	0.606127	0.535777
C42	C	0.953267	0.513991	0.473751
H43	H	1.059929	0.376378	0.704744
H44	H	0.931343	0.536717	0.812685
H45	H	0.816681	0.682623	0.705381
H46	H	0.830603	0.668192	0.490129
H47	H	0.959189	0.507853	0.382188
C48	C	1.316770	-0.117077	-0.000049
C49	C	1.389211	-0.161922	-0.093358
C50	C	1.493203	-0.118026	-0.093474
C51	C	1.524754	-0.029285	-0.000280
C52	C	1.452312	0.015565	0.093036
C53	C	1.348319	-0.028331	0.093152
H54	H	1.365856	-0.227618	-0.162352
H55	H	1.546830	-0.151227	-0.162553
H56	H	1.601736	0.003210	-0.000366
H57	H	1.475666	0.081261	0.162030
H58	H	1.294693	0.004870	0.162231
H59	H	0.618386	0.151689	-0.000021
H60	H	1.213243	-0.295079	-0.162481
C61	C	1.038591	-0.113435	-0.188824
C62	C	1.033155	0.030188	-0.207472
C63	C	0.988848	0.075938	-0.308191
C64	C	0.949977	-0.021933	-0.390261
C65	C	0.955413	-0.165565	-0.371615
C66	C	0.999720	-0.211316	-0.270897
H67	H	1.061931	0.102646	-0.146717
H68	H	0.984825	0.182265	-0.321993
H69	H	0.917179	0.011934	-0.464819
H70	H	0.926637	-0.238024	-0.432371
H71	H	1.003743	-0.317642	-0.257094
C72	C	1.015655	-0.084511	0.188695
C73	C	1.046012	-0.111782	0.301297
C74	C	0.989485	-0.050480	0.401902
C75	C	0.902601	0.038093	0.389906
C76	C	0.872240	0.065368	0.277300
C77	C	0.928767	0.004066	0.176694
H78	H	1.110333	-0.177353	0.310181
H79	H	1.011961	-0.070671	0.485260
H80	H	0.860756	0.083473	0.464380
H81	H	0.807919	0.130939	0.268415
H82	H	0.906291	0.024257	0.093336
C83	C	1.205012	-0.282364	0.188711
C84	C	1.309860	-0.253990	0.208038
C85	C	1.354241	-0.299969	0.308634
C86	C	1.293774	-0.374323	0.389903
C87	C	1.188919	-0.402702	0.370578
C88	C	1.144539	-0.356722	0.269982
H89	H	1.354627	-0.198945	0.147876
H90	H	1.431861	-0.278961	0.322939
H91	H	1.326627	-0.408360	0.464371
H92	H	1.144152	-0.457746	0.430740
H93	H	1.066918	-0.377730	0.255677
H94	H	1.205174	0.198248	0.480819
