data_functionalizedCrystal
_audit_creation_method	'MofGen! by Chris Wilmer'
_symmetry_space_group_name_H-M	'P1'
_symmetry_Int_Tables_number	1
_symmetry_cell_setting	triclinic
loop_
_symmetry_equiv_pos_as_xyz
  x,y,z
_cell_length_a	6.817900
_cell_length_b	15.301126
_cell_length_c	10.773894
_cell_angle_alpha	96.210204
_cell_angle_beta	96.645922
_cell_angle_gamma	104.177575
loop_
_atom_site_label
_atom_site_type_symbol
_atom_site_fract_x
_atom_site_fract_y
_atom_site_fract_z
V1	V	-3.952252	-0.121442	-0.389313
O2	O	-3.937687	0.009245	-0.381512
O3	O	-3.907641	-0.244078	-0.387026
O4	O	-3.869821	-0.118078	-0.558935
O5	O	-3.975769	-0.117627	-0.208413
V6	V	-4.439799	-0.105987	-0.367630
O7	O	-4.204684	-0.155344	-0.436876
O8	O	-4.637564	-0.072085	-0.320068
O9	O	-4.261203	0.016649	-0.369918
O10	O	-4.571760	-0.236675	-0.375432
O11	O	-4.533678	-0.109802	-0.548531
O12	O	-4.299023	-0.109351	-0.198009
C13	C	-3.754665	-0.274021	-0.380981
C14	C	-3.799251	-0.374269	-0.380241
C15	C	-4.001183	-0.425904	-0.386130
C16	C	-4.043065	-0.520098	-0.385442
C17	C	-3.883011	-0.562653	-0.378857
C18	C	-3.681062	-0.511010	-0.372972
C19	C	-3.639184	-0.416820	-0.373669
C20	C	-3.768361	-0.707333	-0.371517
C21	C	-3.810240	-0.801530	-0.370818
C22	C	-4.172242	-0.810612	-0.383291
C23	C	-4.130364	-0.716421	-0.383988
C24	C	-3.928417	-0.664785	-0.378100
C25	C	-3.706421	-0.113294	-0.600267
C26	C	-3.720333	-0.111355	-0.738936
C27	C	-3.898512	-0.114716	-0.806808
C28	C	-3.912895	-0.112712	-0.950130
C29	C	-4.077522	0.046587	-0.375959
C30	C	-4.012173	0.146834	-0.376707
C31	C	-4.125767	-0.114138	-0.156670
C32	C	-4.091093	-0.116073	-0.018000
H33	H	-3.474753	-0.374779	-0.368879
H34	H	-3.578433	-0.106988	-0.786932
O35	O	-4.067822	-0.120078	-0.749537
C36	C	-4.299671	-0.205595	-0.626741
C37	C	-4.107924	-0.199646	-0.691567
H38	H	-4.332128	-0.269911	-0.579834
H39	H	-4.436167	-0.207876	-0.700092
H40	H	-4.272582	-0.143356	-0.552227
H41	H	-4.134813	-0.261869	-0.766074
H42	H	-3.971493	-0.197321	-0.618142
O43	O	-3.743671	-0.107388	-1.007488
C44	C	-3.511670	-0.021809	-1.130143
C45	C	-3.703360	-0.027736	-1.065265
H46	H	-3.478993	0.042594	-1.176850
H47	H	-3.538680	-0.083970	-1.204783
H48	H	-3.375330	-0.019636	-1.056738
H49	H	-3.839789	-0.029881	-1.138577
H50	H	-3.676177	0.034423	-0.990602
O51	O	-4.260604	-0.121398	-0.960931
C52	C	-4.602758	-0.207922	-0.948824
C53	C	-4.410945	-0.201994	-1.013577
H54	H	-4.724343	-0.273088	-0.991343
H55	H	-4.664927	-0.146527	-0.963683
H56	H	-4.560938	-0.208566	-0.843428
H57	H	-4.452601	-0.201378	-1.118989
H58	H	-4.348824	-0.263387	-0.998615
O59	O	-4.156558	-0.384504	-0.392300
C60	C	-4.302467	-0.272083	-0.291757
C61	C	-4.126404	-0.318906	-0.284592
H62	H	-4.278125	-0.219023	-0.204700
H63	H	-4.454039	-0.325124	-0.295773
H64	H	-4.305505	-0.237394	-0.380167
H65	H	-4.123174	-0.353593	-0.196190
H66	H	-3.974915	-0.265825	-0.280646
H67	H	-4.207495	-0.562136	-0.390240
H68	H	-3.550747	-0.545667	-0.367618
H69	H	-4.260697	-0.681775	-0.389343
H70	H	-3.603919	-0.665295	-0.366733
H71	H	-3.679913	-0.836179	-0.365493
O72	O	-4.368310	-0.860837	-0.388827
C73	C	-4.608854	-0.961072	-0.286594
C74	C	-4.386735	-0.904250	-0.280200
H75	H	-4.623833	-0.996171	-0.198768
H76	H	-4.651211	-1.014595	-0.374250
H77	H	-4.716001	-0.914456	-0.291464
H78	H	-4.279439	-0.950793	-0.275282
H79	H	-4.344548	-0.850718	-0.192557
