data_functionalizedCrystal
_audit_creation_method	'MofGen! by Chris Wilmer'
_symmetry_space_group_name_H-M	'P1'
_symmetry_Int_Tables_number	1
_symmetry_cell_setting	triclinic
loop_
_symmetry_equiv_pos_as_xyz
  x,y,z
_cell_length_a	9.065218
_cell_length_b	23.532407
_cell_length_c	8.140239
_cell_angle_alpha	89.991844
_cell_angle_beta	89.997198
_cell_angle_gamma	83.932281
loop_
_atom_site_label
_atom_site_type_symbol
_atom_site_fract_x
_atom_site_fract_y
_atom_site_fract_z
O1	O	1.956283	0.083497	-0.136637
O2	O	1.526661	0.090346	-0.136641
O3	O	1.754427	0.004085	-0.136609
O4	O	1.728517	0.169758	-0.136670
O5	O	1.754415	0.004084	0.136618
O6	O	1.526649	0.090345	0.136586
O7	O	1.956271	0.083496	0.136590
Zn8	Zn	1.741458	0.086921	0.179968
Zn9	Zn	1.741474	0.086922	-0.180020
O10	O	1.728504	0.169757	0.136558
C11	C	1.471701	0.089687	-0.000028
C12	C	1.307955	0.087719	-0.000028
C13	C	1.753761	-0.017136	0.000009
C14	C	1.751778	-0.080368	0.000021
C15	C	1.874123	-0.478573	-0.000068
C16	C	1.872280	-0.537986	-0.000080
O17	O	1.985695	-0.573898	-0.000140
N18	N	1.736873	-0.561607	-0.000080
C19	C	1.603300	-0.525810	-0.000085
O20	O	1.487956	-0.551356	-0.000087
C21	C	1.605144	-0.466397	-0.000084
C22	C	1.740560	-0.442780	-0.000067
C23	C	2.009527	-0.454955	-0.000053
C24	C	2.011370	-0.395546	-0.000037
C25	C	1.877807	-0.359753	-0.000037
C26	C	1.742402	-0.383371	-0.000052
C27	C	1.471573	-0.430601	-0.000100
C28	C	1.473429	-0.371185	-0.000100
C29	C	1.608845	-0.347568	-0.000084
C30	C	1.610682	-0.288169	-0.000035
N31	N	1.746089	-0.264548	-0.000035
C32	C	1.879651	-0.300341	-0.000036
C33	C	1.599437	-0.650581	-0.000089
C34	C	1.597591	-0.709992	-0.000078
C35	C	1.866571	-0.722165	-0.000077
C36	C	1.868416	-0.662752	-0.000076
C37	C	1.734844	-0.626960	-0.000089
C38	C	1.883510	-0.175576	-0.000002
C39	C	1.885340	-0.116160	0.000021
C40	C	1.616360	-0.103993	0.000011
C41	C	1.614529	-0.163403	-0.000003
C42	C	1.748116	-0.199194	-0.000015
O43	O	1.497326	-0.252222	0.000018
O44	O	1.994976	-0.274786	-0.000055
C45	C	2.011231	0.084155	-0.000027
C46	C	2.174977	0.086123	-0.000038
C47	C	1.729170	0.190979	-0.000064
C48	C	1.731154	0.254210	-0.000087
N49	N	1.741457	0.086919	0.425651
N50	N	1.741486	0.086919	-0.425703
H51	H	1.992289	-0.204710	-0.000018
H52	H	1.978683	-0.643528	-0.000064
C53	C	2.154396	-0.493905	-0.000134
C54	C	2.123838	-0.550996	-0.000176
C55	C	2.257263	-0.586888	-0.000261
H56	H	2.210051	-0.486742	0.095124
H57	H	2.209972	-0.486694	-0.095449
H58	H	2.068286	-0.558204	0.095130
H59	H	2.068204	-0.558177	-0.095427
H60	H	2.312838	-0.579677	-0.095576
H61	H	2.312908	-0.579720	0.094999
H62	H	2.236547	-0.625627	-0.000304
H63	H	1.975325	-0.751318	-0.000084
C64	C	1.450611	-0.735662	0.000258
C65	C	1.441658	-0.769413	0.140838
C66	C	1.306269	-0.793061	0.141202
H67	H	1.444154	-0.758617	-0.094918
H68	H	1.371293	-0.705847	0.000349
H69	H	1.520954	-0.799224	0.140732
H70	H	1.448088	-0.746471	0.236036
H71	H	1.226951	-0.763246	0.141294
H72	H	1.299825	-0.816014	0.046021
H73	H	1.300171	-0.815959	0.236591
C74	C	1.467550	-0.189078	0.000331
C75	C	1.458600	-0.222834	0.140903
C76	C	1.323214	-0.246482	0.141261
H77	H	1.461095	-0.212031	-0.094850
H78	H	1.388230	-0.159264	0.000429
H79	H	1.537898	-0.252643	0.140791
H80	H	1.465029	-0.199893	0.236107
H81	H	1.243894	-0.216669	0.141359
H82	H	1.316771	-0.269433	0.046075
H83	H	1.317117	-0.269384	0.236645
H84	H	1.507618	-0.074840	0.000017
H85	H	1.995617	-0.096935	0.000038
H86	H	2.121639	-0.376323	-0.000030
H87	H	1.490659	-0.621442	-0.000085
H88	H	1.361303	-0.449820	-0.000123
H89	H	1.364656	-0.342046	-0.000113
