data_functionalizedCrystal
_audit_creation_method	'MofGen! by Chris Wilmer'
_symmetry_space_group_name_H-M	'P1'
_symmetry_Int_Tables_number	1
_symmetry_cell_setting	triclinic
loop_
_symmetry_equiv_pos_as_xyz
  x,y,z
_cell_length_a	23.532407
_cell_length_b	23.532407
_cell_length_c	9.016244
_cell_angle_alpha	89.993097
_cell_angle_beta	89.998017
_cell_angle_gamma	82.848678
loop_
_atom_site_label
_atom_site_type_symbol
_atom_site_fract_x
_atom_site_fract_y
_atom_site_fract_z
O1	O	0.755262	0.069132	-0.123170
O2	O	1.255262	0.569132	0.376830
O3	O	0.589399	0.079136	-0.123216
O4	O	1.089399	0.579136	0.376784
O5	O	0.677332	-0.008798	-0.123164
O6	O	1.177332	0.491202	0.376836
O7	O	0.667329	0.157066	-0.123221
O8	O	1.167329	0.657066	0.376779
O9	O	0.677319	-0.008796	0.123516
O10	O	1.177319	0.491204	0.623516
O11	O	0.589386	0.079138	0.123465
O12	O	1.089386	0.579138	0.623465
O13	O	0.755249	0.069135	0.123511
O14	O	1.255249	0.569135	0.623511
Cu15	Cu	0.672316	0.074136	0.146012
Cu16	Cu	1.172316	0.574136	0.646012
Cu17	Cu	0.672332	0.074134	-0.145717
Cu18	Cu	1.172332	0.574134	0.354283
O19	O	0.667316	0.157068	0.123459
O20	O	1.167316	0.657068	0.623459
C21	C	0.568176	0.078882	0.000119
C22	C	1.068176	0.578882	0.500119
C23	C	0.504959	0.078116	0.000103
C24	C	1.004959	0.578116	0.500103
C25	C	0.105856	0.125350	0.000154
C26	C	0.605856	0.625350	0.500154
C27	C	0.046456	0.124638	0.000163
C28	C	0.546456	0.624638	0.500163
O29	O	0.009711	0.168424	0.000202
O30	O	0.509711	0.668424	0.500202
N31	N	0.023830	0.072362	0.000179
N32	N	0.523830	0.572362	0.500179
C33	C	0.060607	0.020794	0.000200
C34	C	0.560607	0.520794	0.500200
O35	O	0.035908	-0.023737	0.000215
O36	O	0.535908	0.476263	0.500215
C37	C	0.120006	0.021506	0.000201
C38	C	0.620006	0.521506	0.500201
C39	C	0.142629	0.073785	0.000171
C40	C	0.642629	0.573785	0.500171
C41	C	0.128479	0.177625	0.000125
C42	C	0.628479	0.677625	0.500125
C43	C	0.187876	0.178336	0.000113
C44	C	0.687876	0.678336	0.500113
C45	C	0.224649	0.126772	0.000130
C46	C	0.724649	0.626772	0.500130
C47	C	0.202025	0.074497	0.000159
C48	C	0.702025	0.574497	0.500159
C49	C	0.156783	-0.030062	0.000233
C50	C	0.656783	0.469938	0.500233
C51	C	0.216185	-0.029345	0.000236
C52	C	0.716185	0.470655	0.500236
C53	C	0.238808	0.022934	0.000205
C54	C	0.738808	0.522934	0.500205
C55	C	0.298194	0.023643	0.000163
C56	C	0.798194	0.523643	0.500163
N57	N	0.320820	0.075920	0.000148
N58	N	0.820820	0.575920	0.500148
C59	C	0.284048	0.127484	0.000131
C60	C	0.784048	0.627484	0.500131
C61	C	-0.064135	0.019302	0.000200
C62	C	0.435865	0.519302	0.500200
C63	C	-0.123533	0.018589	0.000188
C64	C	0.376467	0.518589	0.500188
C65	C	-0.137680	0.122434	0.000154
C66	C	0.362320	0.622434	0.500154
C67	C	-0.078281	0.123146	0.000155
C68	C	0.421719	0.623146	0.500155
C69	C	-0.041509	0.071578	0.000184
C70	C	0.458491	0.571578	0.500184
C71	C	0.408784	0.128974	0.000104
C72	C	0.908784	0.628974	0.500104
C73	C	0.468186	0.129680	0.000086
C74	C	0.968186	0.629680	0.500086
C75	C	0.482329	0.025836	0.000128
C76	C	0.982329	0.525836	0.500128
C77	C	0.422932	0.025129	0.000138
C78	C	0.922932	0.525129	0.500138
C79	C	0.386160	0.076702	0.000132
C80	C	0.886160	0.576702	0.500132
O81	O	0.334974	-0.020119	0.000131
O82	O	0.834974	0.479881	0.500131
O83	O	0.308755	0.172007	0.000135
O84	O	0.808755	0.672007	0.500135
C85	C	0.677071	-0.030013	0.000180
C86	C	1.177071	0.469987	0.500180
C87	C	0.676305	-0.093230	0.000191
C88	C	1.176305	0.406770	0.500191
C89	C	0.723539	-0.492333	0.000123
C90	C	1.223539	0.007667	0.500123
C91	C	0.722827	-0.551733	0.000111
C92	C	1.222827	-0.051733	0.500111
O93	O	0.766613	-0.588478	0.000068
O94	O	1.266613	-0.088478	0.500068
N95	N	0.670551	-0.574359	0.000098
N96	N	1.170551	-0.074359	0.500098
C97	C	0.618983	-0.537582	0.000081
C98	C	1.118983	-0.037582	0.500081
O99	O	0.574452	-0.562281	0.000067
O100	O	1.074452	-0.062281	0.500067
C101	C	0.619695	-0.478182	0.000082
C102	C	1.119695	0.021818	0.500082
C103	C	0.671974	-0.455560	0.000110
C104	C	1.171974	0.044440	0.500110
C105	C	0.775814	-0.469710	0.000149
C106	C	1.275814	0.030290	0.500149
C107	C	0.776525	-0.410313	0.000164
C108	C	1.276525	0.089687	0.500164
C109	C	0.724961	-0.373540	0.000151
C110	C	1.224961	0.126460	0.500151
C111	C	0.672685	-0.396164	0.000124
C112	C	1.172685	0.103836	0.500124
C113	C	0.568127	-0.441406	0.000054
C114	C	1.068127	0.058594	0.500054
C115	C	0.568844	-0.382004	0.000054
C116	C	1.068844	0.117996	0.500054
C117	C	0.621123	-0.359381	0.000082
C118	C	1.121123	0.140619	0.500082
C119	C	0.621832	-0.299995	0.000126
C120	C	1.121832	0.200005	0.500126
N121	N	0.674109	-0.277368	0.000139
N122	N	1.174109	0.222632	0.500139
C123	C	0.725673	-0.314141	0.000152
C124	C	1.225673	0.185859	0.500152
C125	C	0.617491	-0.662324	0.000077
C126	C	1.117491	-0.162324	0.500077
C127	C	0.616778	-0.721722	0.000086
C128	C	1.116778	-0.221722	0.500086
C129	C	0.720623	-0.735869	0.000114
C130	C	1.220623	-0.235869	0.500114
C131	C	0.721335	-0.676470	0.000115
C132	C	1.221335	-0.176470	0.500115
C133	C	0.669767	-0.639698	0.000090
C134	C	1.169767	-0.139698	0.500090
C135	C	0.727163	-0.189405	0.000183
C136	C	1.227163	0.310595	0.500183
C137	C	0.727869	-0.130003	0.000203
C138	C	1.227869	0.369997	0.500203
C139	C	0.624025	-0.115860	0.000168
C140	C	1.124025	0.384140	0.500168
C141	C	0.623318	-0.175257	0.000156
C142	C	1.123318	0.324743	0.500156
C143	C	0.674891	-0.212029	0.000158
C144	C	1.174891	0.287971	0.500158
O145	O	0.578070	-0.263215	0.000163
O146	O	1.078070	0.236785	0.500163
O147	O	0.770196	-0.289433	0.000146
O148	O	1.270196	0.210567	0.500146
C149	C	0.776472	0.069388	0.000172
C150	C	1.276472	0.569388	0.500172
C151	C	0.839689	0.070154	0.000179
C152	C	1.339689	0.570154	0.500179
C153	C	0.667577	0.178283	0.000112
C154	C	1.167577	0.678283	0.500112
C155	C	0.668343	0.241500	0.000091
C156	C	1.168343	0.741500	0.500091
N157	N	0.672310	0.074138	0.351198
N158	N	1.172310	0.574138	0.851198
N159	N	0.672343	0.074128	-0.350903
N160	N	1.172343	0.574128	0.149097
C161	C	0.625132	0.121023	0.586203
C162	C	1.125132	0.621023	1.086203
C163	C	0.625232	0.121194	0.414312
C164	C	1.125232	0.621194	0.914312
C165	C	0.731662	0.086782	0.413547
C166	C	1.231662	0.586782	0.913547
C167	C	0.731404	0.087113	0.585492
C168	C	1.231404	0.587113	1.085492
C169	C	0.660730	0.014449	0.585758
C170	C	1.160730	0.514449	1.085758
C171	C	0.659358	0.014857	0.413803
C172	C	1.159358	0.514857	0.913803
H173	H	0.098544	0.219617	0.000117
H174	H	0.598544	0.719617	0.500117
H175	H	0.582043	-0.085909	0.000163
H176	H	1.082043	0.414091	0.500163
H177	H	0.742198	0.129798	0.370458
H178	H	1.242198	0.629798	0.870458
H179	H	0.767614	0.054285	0.627095
H180	H	1.267614	0.554285	1.127095
H181	H	-0.167632	0.164421	0.000147
H182	H	0.332368	0.664421	0.500147
H183	H	0.769159	-0.219337	0.000179
H184	H	1.269159	0.280663	0.500179
H185	H	0.817806	-0.499645	0.000154
H186	H	1.317806	0.000355	0.500154
H187	H	0.767616	0.053521	0.372663
H188	H	1.267616	0.553521	0.872663
H189	H	0.691533	-0.021648	0.370848
H190	H	1.191533	0.478352	0.870848
C191	C	0.707239	-0.032691	0.640712
C192	C	1.207239	0.467309	1.140712
H193	H	0.733609	-0.016115	0.701960
H194	H	1.233609	0.483885	1.201960
H195	H	0.726916	-0.050784	0.558032
H196	H	1.226916	0.449216	1.058032
H197	H	0.689883	-0.060250	0.696082
H198	H	1.189883	0.439750	1.196082
H199	H	0.770443	-0.111587	0.000230
H200	H	1.270443	0.388413	0.500230
H201	H	0.618411	0.002206	0.629199
H202	H	1.118411	0.502206	1.129199
C203	C	0.600379	0.001881	0.358764
C204	C	1.100379	0.501881	0.858764
H205	H	0.583715	0.032458	0.297876
H206	H	1.083715	0.532458	0.797876
H207	H	0.576180	-0.002179	0.441426
H208	H	1.076180	0.497821	0.941426
H209	H	0.604858	-0.032637	0.303002
H210	H	1.104858	0.467363	0.803002
H211	H	0.581103	0.113710	0.372159
H212	H	1.081103	0.613710	0.872159
H213	H	0.632408	0.165068	0.629384
H214	H	1.132408	0.665068	1.129384
C215	C	0.493068	0.187190	0.000061
C216	C	0.993068	0.687190	0.500061
H217	H	0.462657	0.217797	0.000069
H218	H	0.962657	0.717797	0.500069
H219	H	0.515945	0.189629	-0.085965
H220	H	1.015945	0.689629	0.414035
H221	H	0.515945	0.189627	0.086092
H222	H	1.015945	0.689627	0.586092
C223	C	0.212753	0.235844	0.000108
C224	C	0.712753	0.735844	0.500108
H225	H	0.182339	0.266448	0.000117
H226	H	0.682339	0.766448	0.500117
H227	H	0.235633	0.238290	-0.085910
H228	H	0.735633	0.738290	0.414090
H229	H	0.235626	0.238280	0.086147
H230	H	0.735626	0.738280	0.586147
H231	H	0.378851	0.170970	0.000103
H232	H	0.878851	0.670970	0.500103
H233	H	0.580748	-0.193677	0.000174
H234	H	1.080748	0.306323	0.500174
C235	C	0.565327	0.111093	0.642123
C236	C	1.065327	0.611093	1.142123
H237	H	0.568613	0.078262	0.704337
H238	H	1.068613	0.578262	1.204337
H239	H	0.541493	0.105276	0.559880
H240	H	1.041493	0.605276	1.059880
H241	H	0.548984	0.143616	0.696691
H242	H	1.048984	0.643616	1.196691
H243	H	-0.059867	0.165717	0.000139
H244	H	0.440133	0.665717	0.500139
C245	C	-0.148412	-0.038918	0.000207
C246	C	0.351588	0.461082	0.500207
H247	H	-0.117999	-0.069523	0.000226
H248	H	0.382001	0.430477	0.500226
H249	H	-0.171290	-0.041359	-0.085809
H250	H	0.328710	0.458641	0.414191
H251	H	-0.171286	-0.041355	0.086248
H252	H	0.328714	0.458645	0.586248
C253	C	0.131911	-0.087571	0.000287
C254	C	0.631911	0.412429	0.500287
H255	H	0.162326	-0.118173	0.000319
H256	H	0.662326	0.381827	0.500319
H257	H	0.109033	-0.090020	-0.085726
H258	H	0.609033	0.409980	0.414274
H259	H	0.109037	-0.090003	0.086331
H260	H	0.609037	0.409997	0.586331
C261	C	0.256632	-0.086072	0.000251
C262	C	0.756632	0.413928	0.500251
H263	H	0.234647	-0.117306	0.000255
H264	H	0.734647	0.382694	0.500255
H265	H	0.280101	-0.087955	0.086266
H266	H	0.780101	0.412045	0.586266
H267	H	0.280094	-0.087953	-0.085791
H268	H	0.780094	0.412047	0.414209
C269	C	-0.023690	-0.037426	0.000200
C270	C	0.476310	0.462574	0.500200
H271	H	-0.045677	-0.068658	0.000193
H272	H	0.454323	0.431342	0.500193
H273	H	-0.000222	-0.039314	0.086218
H274	H	0.499778	0.460686	0.586218
H275	H	-0.000227	-0.039307	-0.085839
H276	H	0.499773	0.460693	0.414161
H277	H	0.819097	-0.391900	0.000181
H278	H	1.319097	0.108100	0.500181
H279	H	0.574207	-0.740136	0.000089
H280	H	1.074207	-0.240136	0.500089
H281	H	0.763906	-0.658056	0.000136
H282	H	1.263906	-0.158056	0.500136
C283	C	0.398045	-0.032377	0.000156
C284	C	0.898045	0.467623	0.500156
H285	H	0.428456	-0.062984	0.000168
H286	H	0.928456	0.437016	0.500168
H287	H	0.375164	-0.034815	-0.085856
H288	H	0.875164	0.465185	0.414144
H289	H	0.375173	-0.034812	0.086201
H290	H	0.875173	0.465188	0.586201
H291	H	0.512280	-0.016146	0.000136
H292	H	1.012280	0.483854	0.500136
C293	C	0.510618	-0.466278	0.000010
C294	C	1.010618	0.033722	0.500010
H295	H	0.480016	-0.435863	-0.000017
H296	H	0.980016	0.064137	0.499983
H297	H	0.508167	-0.489161	0.086025
H298	H	1.008167	0.010839	0.586025
H299	H	0.508188	-0.489147	-0.086032
H300	H	1.008188	0.010853	0.413968
C301	C	0.512117	-0.341557	0.000033
C302	C	1.012117	0.158443	0.500033
H303	H	0.480883	-0.363542	0.000026
H304	H	0.980883	0.136458	0.500026
H305	H	0.510240	-0.318085	-0.085985
H306	H	1.010240	0.181915	0.414015
H307	H	0.510229	-0.318098	0.086072
H308	H	1.010229	0.181902	0.586072
C309	C	0.777344	-0.776327	0.000100
C310	C	1.277344	-0.276327	0.500100
H311	H	0.769428	-0.814942	0.000075
H312	H	1.269428	-0.314942	0.500075
H313	H	0.798797	-0.769512	0.086122
H314	H	1.298797	-0.269512	0.586122
H315	H	0.798792	-0.769494	-0.085935
H316	H	1.298792	-0.269494	0.414065
C317	C	0.560763	-0.621879	0.000077
C318	C	1.060763	-0.121879	0.500077
H319	H	0.529531	-0.643866	0.000083
H320	H	1.029531	-0.143866	0.500083
H321	H	0.558879	-0.598407	-0.085941
H322	H	1.058879	-0.098407	0.414059
H323	H	0.558877	-0.598420	0.086115
H324	H	1.058877	-0.098420	0.586115
H325	H	0.632609	0.165489	0.373153
H326	H	1.132609	0.665489	0.873153
C327	C	0.745290	0.145896	0.639641
C328	C	1.245290	0.645896	1.139641
H329	H	0.751033	0.169351	0.556555
H330	H	1.251033	0.669351	1.056555
H331	H	0.779075	0.140906	0.698300
H332	H	1.279075	0.640906	1.198300
H333	H	0.714318	0.163703	0.697454
H334	H	1.214318	0.663703	1.197454
