data_functionalizedCrystal
_audit_creation_method	'MofGen! by Chris Wilmer'
_symmetry_space_group_name_H-M	'P1'
_symmetry_Int_Tables_number	1
_symmetry_cell_setting	triclinic
loop_
_symmetry_equiv_pos_as_xyz
  x,y,z
_cell_length_a	10.723023
_cell_length_b	17.000371
_cell_length_c	9.798715
_cell_angle_alpha	89.996414
_cell_angle_beta	89.996449
_cell_angle_gamma	80.033398
loop_
_atom_site_label
_atom_site_type_symbol
_atom_site_fract_x
_atom_site_fract_y
_atom_site_fract_z
O1	O	1.643449	0.111564	-0.113488
O2	O	1.278981	0.122243	-0.113492
O3	O	1.483845	0.001161	-0.113480
O4	O	1.438584	0.232646	-0.113500
O5	O	1.483831	0.001160	0.113502
O6	O	1.278967	0.122243	0.113490
O7	O	1.643435	0.111563	0.113494
Zn8	Zn	1.461198	0.116903	0.149531
Zn9	Zn	1.461217	0.116903	-0.149528
O10	O	1.438570	0.232646	0.113482
C11	C	1.232570	0.121466	-0.000001
C12	C	1.094302	0.119141	-0.000002
C13	C	1.032665	0.118105	-0.117586
C14	C	0.889758	0.115702	-0.117590
C15	C	1.486269	-0.028480	0.000011
C16	C	1.493498	-0.116799	0.000009
C17	C	1.382253	-0.149432	0.000002
C18	C	1.389053	-0.232418	0.000006
C19	C	1.507099	-0.282769	0.000007
C20	C	1.618353	-0.250132	0.000018
C21	C	1.611552	-0.167147	0.000024
C22	C	1.533370	-0.533772	-0.000002
C23	C	1.540162	-0.616762	-0.000012
C24	C	1.310862	-0.599042	-0.000022
C25	C	1.304071	-0.516057	-0.000024
C26	C	1.415324	-0.483426	-0.000005
C27	C	1.514053	-0.367594	0.000007
C28	C	1.408370	-0.398602	0.000005
C29	C	1.689846	0.112340	0.000000
C30	C	1.828114	0.114665	-0.000007
C31	C	1.436146	0.262287	-0.000011
C32	C	1.428917	0.350606	-0.000019
N33	N	1.461195	0.116902	0.353630
N34	N	1.461231	0.116898	-0.353628
C35	C	1.547239	0.065839	0.421412
C36	C	1.547260	0.065836	0.578575
H37	H	1.041272	0.118254	0.100663
H38	H	1.286127	-0.108440	-0.000005
Cl39	Cl	1.114527	0.119482	-0.273014
H40	H	1.298465	-0.258983	-0.000010
H41	H	0.836753	0.114809	-0.218258
Cl42	Cl	0.909938	0.116035	0.155430
Cl43	Cl	1.660695	-0.001837	0.331380
Cl44	Cl	1.766755	-0.313431	0.000036
H45	H	1.312257	-0.357603	0.000012
H46	H	1.207945	-0.475065	-0.000029
H47	H	1.220286	-0.625619	-0.000034
H48	H	1.620930	0.022122	0.636864
H49	H	1.636295	-0.657757	-0.000020
Cl50	Cl	1.673232	-0.492761	-0.000026
Cl51	Cl	1.347493	0.184404	0.556392
Cl52	Cl	1.751409	-0.126123	0.000048
H53	H	1.610166	-0.408600	0.000005
H54	H	1.387539	0.160615	0.411951
