data_functionalizedCrystal
_audit_creation_method	'MofGen! by Chris Wilmer'
_symmetry_space_group_name_H-M	'P1'
_symmetry_Int_Tables_number	1
_symmetry_cell_setting	triclinic
loop_
_symmetry_equiv_pos_as_xyz
  x,y,z
_cell_length_a	20.875641
_cell_length_b	23.196402
_cell_length_c	23.196401
_cell_angle_alpha	59.999265
_cell_angle_beta	90.004301
_cell_angle_gamma	57.589996
loop_
_atom_site_label
_atom_site_type_symbol
_atom_site_fract_x
_atom_site_fract_y
_atom_site_fract_z
Zr1	Zr	0.641483	0.588697	-0.054488
O2	O	0.535143	0.715992	-0.150047
O3	O	0.674079	0.466277	-0.025197
O4	O	0.674057	0.586564	-0.145473
O5	O	0.535185	0.595687	0.065108
O6	O	0.783638	0.579336	-0.141860
O7	O	0.535165	0.595705	-0.029771
O8	O	0.783678	0.364164	0.073290
O9	O	0.535146	0.810860	-0.150042
O10	O	0.769764	0.509430	-0.010005
O11	O	0.688000	0.514811	0.058107
O12	O	0.687974	0.656434	-0.083502
O13	O	0.606210	0.661815	-0.015390
Zr14	Zr	0.816284	0.577141	0.102595
Zr15	Zr	0.816252	0.577169	-0.048726
Zr16	Zr	0.641515	0.588669	0.096834
Zr17	Zr	0.641488	0.739999	-0.054481
Zr18	Zr	0.816280	0.425839	0.102589
O19	O	0.783688	0.699561	0.073305
O20	O	0.783642	0.699601	-0.141855
O21	O	0.535189	0.715952	0.065114
O22	O	0.922624	0.449845	0.198154
O23	O	0.922578	0.449885	-0.017006
O24	O	0.674125	0.466237	0.189963
O25	O	0.922582	0.570150	-0.017000
O26	O	0.783710	0.579273	0.193580
O27	O	0.674129	0.586502	0.189968
O28	O	0.922602	0.570132	0.077879
O29	O	0.674064	0.801696	-0.145463
O30	O	0.783703	0.364141	0.193571
O31	O	0.922621	0.354978	0.198150
O32	O	0.922596	0.355000	0.077870
O33	O	0.535172	0.810837	-0.029762
O34	O	0.674090	0.801674	-0.025182
O35	O	0.769794	0.509404	0.131610
O36	O	0.851558	0.504022	0.063498
O37	O	0.769768	0.651026	-0.009999
O38	O	0.688004	0.656408	0.058113
C39	C	0.728878	0.393663	0.024046
C40	C	0.728876	0.329431	0.024043
C41	C	0.771550	0.296452	-0.011514
C42	C	0.771558	0.236091	-0.011508
C43	C	0.728876	0.208723	0.024045
C44	C	0.686199	0.241706	0.059609
C45	C	0.686199	0.302060	0.059608
C46	C	0.657371	0.151411	0.016413
C47	C	0.657369	0.091062	0.016408
C48	C	0.728877	0.022568	0.024052
C49	C	0.800386	0.014439	0.031685
C50	C	0.800386	0.074793	0.031684
C51	C	0.728871	0.143279	0.024050
C52	C	0.771563	-0.075863	-0.011500
C53	C	0.771573	-0.136229	-0.011489
C54	C	0.686207	-0.130606	0.059623
C55	C	0.686205	-0.070247	0.059617
C56	C	0.728881	-0.042876	0.024052
C57	C	0.510274	0.597339	0.016848
C58	C	0.436080	0.602233	0.014402
C59	C	0.443915	0.527799	0.051614
C60	C	0.374199	0.532403	0.049314
C61	C	0.296649	0.611441	0.009798
C62	C	0.288816	0.685880	-0.027415
C63	C	0.358531	0.681275	-0.025111
C64	C	0.083569	0.633439	-0.001203
C65	C	0.013852	0.638038	-0.003506
C66	C	0.099240	0.484561	0.073224
C67	C	0.168953	0.479964	0.075522
C68	C	0.161114	0.554402	0.038312
N69	N	0.225387	0.616148	0.007445
N70	N	0.232375	0.549694	0.040670
C71	C	0.947493	0.568499	0.031260
C72	C	1.021687	0.563605	0.033706
C73	C	0.728843	0.582954	-0.165227
C74	C	0.728830	0.582966	-0.229467
C75	C	0.728890	0.772175	0.024062
C76	C	0.728892	0.836406	0.024065
C77	C	0.789201	0.578985	-0.257640
C78	C	0.789219	0.578968	-0.317986
C79	C	0.728853	0.582948	-0.350165
C80	C	0.668477	0.586924	-0.321983
C81	C	0.668465	0.586933	-0.261633
C82	C	0.655182	0.635302	-0.471973
C83	C	0.655193	0.635298	-0.532324
C84	C	0.728889	0.582917	-0.536300
C85	C	0.802579	0.530549	-0.479924
C86	C	0.802567	0.530558	-0.419574
C87	C	0.728860	0.582938	-0.415604
C88	C	0.789285	0.578915	-0.629907
C89	C	0.789303	0.578893	-0.690251
C90	C	0.668555	0.586858	-0.694251
C91	C	0.668543	0.586872	-0.633903
C92	C	0.728907	0.582905	-0.601737
C93	C	0.728924	0.582884	0.213334
C94	C	0.728938	0.582872	0.277574
C95	C	0.947487	0.379243	0.031252
C96	C	1.021679	0.310117	0.033695
C97	C	0.728918	0.393628	0.213326
C98	C	0.728930	0.329384	0.277563
C99	C	0.947528	0.379208	0.220532
C100	C	1.021733	0.310070	0.287215
C101	C	0.510240	0.786630	-0.172425
C102	C	0.436034	0.855768	-0.239107
C103	C	0.510280	0.786595	0.016856
C104	C	0.436088	0.855720	0.014413
C105	C	0.728849	0.772210	-0.165218
C106	C	0.728838	0.836454	-0.229456
C107	C	1.013825	0.280478	-0.003532
C108	C	1.083529	0.215536	-0.001251
C109	C	1.161087	0.180230	0.038261
C110	C	1.168940	0.209875	0.075489
C111	C	1.099236	0.274821	0.073204
C112	C	0.771631	0.296392	0.346104
C113	C	0.771639	0.236037	0.406468
C114	C	0.728950	0.208671	0.398289
C115	C	0.686244	0.241669	0.329741
C116	C	0.686231	0.302027	0.269379
C117	C	1.099268	0.274793	0.282977
C118	C	1.168999	0.209839	0.345627
C119	C	1.161193	0.180159	0.412515
C120	C	1.083650	0.215442	0.416752
C121	C	1.013921	0.280399	0.354102
C122	C	0.358499	0.891052	-0.234869
C123	C	0.288768	0.956025	-0.297519
C124	C	0.296574	0.985708	-0.364407
C125	C	0.374118	0.950421	-0.368644
C126	C	0.443847	0.885453	-0.305994
C127	C	0.443943	0.885366	0.051634
C128	C	0.374238	0.950325	0.049336
C129	C	0.296680	0.985633	0.009822
C130	C	0.288827	0.955984	-0.027404
C131	C	0.358531	0.891031	-0.025110
C132	C	0.771535	0.863800	-0.221254
C133	C	0.771540	0.924155	-0.281605
C134	C	0.728842	0.957166	-0.350158
C135	C	0.686144	0.929814	-0.358358
C136	C	0.686144	0.869456	-0.298007
H137	H	0.806316	-0.053579	-0.040457
F138	F	1.075155	0.183994	-0.040874
H139	H	0.806418	0.209176	0.462276
H140	H	0.506977	0.856725	-0.309454
F141	F	0.816984	0.953258	-0.272863
F142	F	0.728848	1.021407	-0.414383
H143	H	-0.049294	0.702403	-0.035688
F144	F	0.206277	0.993568	-0.069454
F145	F	0.640781	-0.159729	0.097461
F146	F	0.640699	0.964961	-0.431323
F147	F	0.382413	0.982019	-0.439837
H148	H	0.352128	0.866888	-0.180412
H149	H	0.619303	0.590175	-0.238694
F150	F	0.816972	0.325578	-0.049364
H151	H	1.217978	0.127266	0.463523
H152	H	0.950679	0.309223	-0.035717
F153	F	0.853533	0.574688	-0.595669
F154	F	0.816983	0.828677	-0.148300
H155	H	1.217838	0.127347	0.040117
F156	F	0.222501	1.054762	0.007387
H157	H	0.858612	0.068169	0.037901
F158	F	0.350159	0.859482	-0.064724
F159	F	0.640814	0.212535	0.321047
F160	F	0.853565	0.574649	-0.720233
F161	F	1.251490	0.172290	0.117541
F162	F	0.222355	1.054853	-0.431079
F163	F	0.526480	0.847802	0.093691
H164	H	0.651371	0.847197	-0.304695
H165	H	0.380648	0.974454	0.079653
H166	H	0.507056	0.463438	0.083795
F167	F	0.931404	0.317934	0.358624
F168	F	0.640782	-0.035145	0.097460
H169	H	0.806310	0.209234	-0.040463
F170	F	0.876495	-0.058454	0.039817
F171	F	1.107608	0.306354	0.112833
F172	F	1.075355	0.183845	0.487945
F173	F	0.817073	0.325503	0.354825
F174	F	0.206249	0.993567	-0.292995
H175	H	0.806329	-0.163085	-0.040440
H176	H	0.619407	0.590094	-0.720448
F177	F	0.604234	0.591157	-0.356228
F178	F	0.640780	0.212574	0.097452
H179	H	0.599141	0.097690	0.010190
H180	H	0.651462	0.328882	0.213572
F181	F	0.581258	0.224307	0.008277
H182	H	0.651447	0.328913	0.088562
F183	F	0.604285	0.591115	-0.603920
H184	H	0.380586	0.471791	0.079617
H185	H	0.232094	0.415603	0.107686
H186	H	0.728966	0.159523	0.447445
F187	F	0.075217	0.712665	-0.040807
H188	H	0.105613	0.423957	0.103519
H189	H	1.105640	0.298948	0.228519
F190	F	1.251518	0.172296	0.341103
F191	F	0.350190	0.760498	-0.064715
F192	F	0.206280	0.769998	-0.069466
H193	H	0.838354	0.575752	-0.231450
H194	H	0.838382	0.575726	-0.340928
H195	H	0.862567	0.487917	-0.373673
H196	H	0.862589	0.487894	-0.483157
H197	H	0.595192	0.677943	-0.578224
H198	H	0.595164	0.677950	-0.468740
