data_functionalizedCrystal
_audit_creation_method	'MofGen! by Chris Wilmer'
_symmetry_space_group_name_H-M	'P1'
_symmetry_Int_Tables_number	1
_symmetry_cell_setting	triclinic
loop_
_symmetry_equiv_pos_as_xyz
  x,y,z
_cell_length_a	19.121321
_cell_length_b	19.120786
_cell_length_c	17.077396
_cell_angle_alpha	87.527835
_cell_angle_beta	92.423836
_cell_angle_gamma	90.133760
loop_
_atom_site_label
_atom_site_type_symbol
_atom_site_fract_x
_atom_site_fract_y
_atom_site_fract_z
Zn1	Zn	1.059809	-0.324768	-0.377772
Zn2	Zn	1.559809	0.175232	0.122228
Zn3	Zn	1.054724	-0.442017	-0.241151
Zn4	Zn	1.554724	0.057983	0.258849
Zn5	Zn	0.942580	-0.319801	-0.252350
Zn6	Zn	1.442580	0.180199	0.247650
Zn7	Zn	0.937543	-0.436982	-0.378206
Zn8	Zn	1.437543	0.063018	0.121794
O9	O	0.998664	-0.380892	-0.312370
O10	O	1.498664	0.119108	0.187630
O11	O	1.157236	-0.344508	-0.354780
O12	O	1.657236	0.155492	0.145220
O13	O	1.039828	-0.425833	-0.132789
O14	O	1.539828	0.074167	0.367211
O15	O	0.962367	-0.222350	-0.273493
O16	O	1.462367	0.277650	0.226507
O17	O	1.153500	-0.430650	-0.254405
O18	O	1.653500	0.069350	0.245595
O19	O	1.048494	-0.225999	-0.365639
O20	O	1.548494	0.274001	0.134361
O21	O	0.957436	-0.336041	-0.141017
O22	O	1.457436	0.163959	0.358983
O23	O	0.843810	-0.331159	-0.273914
O24	O	1.343810	0.168841	0.226086
O25	O	0.953782	-0.422068	-0.487996
O26	O	1.453782	0.077932	0.012004
O27	O	0.840109	-0.417252	-0.366380
O28	O	1.340109	0.082748	0.133620
O29	O	1.043610	-0.339625	-0.487677
O30	O	1.543610	0.160375	0.012323
O31	O	1.034943	-0.539459	-0.254827
O32	O	1.534943	-0.039459	0.245173
O33	O	0.948851	-0.535760	-0.355520
O34	O	1.448851	-0.035760	0.144480
C35	C	0.816523	-0.373120	-0.321410
C36	C	1.316523	0.126880	0.178590
C37	C	0.738602	-0.369812	-0.325295
C38	C	1.238602	0.130188	0.174705
C39	C	0.297994	-0.348801	-0.349933
C40	C	0.797994	0.151199	0.150067
C41	C	0.371209	-0.351923	-0.346278
C42	C	0.871209	0.148077	0.153722
C43	C	0.405865	-0.398259	-0.292112
C44	C	0.905865	0.101741	0.207888
C45	C	0.367303	-0.441482	-0.241605
C46	C	0.867303	0.058518	0.258395
C47	C	0.294089	-0.438364	-0.245264
C48	C	0.794089	0.061636	0.254736
C49	C	0.626825	-0.409917	-0.278447
C50	C	1.126825	0.090083	0.221553
C51	C	0.700044	-0.413031	-0.274789
C52	C	1.200044	0.086969	0.225211
C53	C	0.703945	-0.323471	-0.379464
C54	C	1.203945	0.176529	0.120536
C55	C	0.630730	-0.320354	-0.383116
C56	C	1.130730	0.179646	0.116884
C57	C	0.592174	-0.363580	-0.332611
C58	C	1.092174	0.136420	0.167389
C59	C	0.480702	-0.401449	-0.288373
C60	C	0.980702	0.098551	0.211627
C61	C	0.517338	-0.360393	-0.336355
C62	C	1.017338	0.139607	0.163645
C63	C	0.990818	-0.563049	-0.304022
C64	C	1.490818	-0.063049	0.195978
C65	C	0.987525	-0.640980	-0.300473
C66	C	1.487525	-0.140980	0.199527
C67	C	1.030787	-0.679430	-0.346825
C68	C	1.530787	-0.179430	0.153175
C69	C	1.027691	-0.752654	-0.343492
C70	C	1.527691	-0.252654	0.156508
C71	C	0.981336	-0.787426	-0.293804
C72	C	1.481336	-0.287426	0.206196
C73	C	0.938069	-0.748971	-0.247451
C74	C	1.438069	-0.248971	0.252549
C75	C	0.941162	-0.675748	-0.250788
C76	C	1.441162	-0.175748	0.249212
C77	C	0.969751	-1.008419	-0.281329
C78	C	1.469751	-0.508419	0.218671
C79	C	0.966662	-1.081647	-0.277994
C80	C	1.466662	-0.581647	0.222006
C81	C	1.056284	-1.085325	-0.374037
C82	C	1.556284	-0.585325	0.125963
C83	C	1.059376	-1.012101	-0.377366
C84	C	1.559376	-0.512101	0.122634
C85	C	1.016107	-0.973652	-0.331016
C86	C	1.516107	-0.473652	0.168984
C87	C	0.978171	-0.862273	-0.290394
C88	C	1.478171	-0.362273	0.209606
C89	C	1.019268	-0.898806	-0.334430
C90	C	1.519268	-0.398806	0.165570
C91	C	1.181516	-0.388695	-0.303295
C92	C	1.681516	0.111305	0.196705
C93	C	1.259437	-0.392020	-0.299428
C94	C	1.759437	0.107980	0.200572
C95	C	0.998701	-0.380839	-0.517115
C96	C	1.498701	0.119161	-0.017115
C97	C	0.998717	-0.380817	-0.604365
C98	C	1.498717	0.119183	-0.104365
C99	C	1.006560	-0.198024	-0.320767
C100	C	1.506560	0.301976	0.179233
C101	C	1.009924	-0.120097	-0.324345
C102	C	1.509924	0.379903	0.175655
C103	C	0.955830	-0.334057	-0.649638
C104	C	1.455830	0.165943	-0.149638
C105	C	0.955842	-0.334042	-0.731619
C106	C	1.455842	0.165958	-0.231619
C107	C	0.998746	-0.380783	-0.768325
C108	C	1.498746	0.119217	-0.268325
C109	C	1.041635	-0.427548	-0.723045
C110	C	1.541635	0.072452	-0.223045
C111	C	1.041619	-0.427566	-0.641066
C112	C	1.541619	0.072434	-0.141066
C113	C	1.041667	-0.427505	-0.893916
C114	C	1.541667	0.072495	-0.393916
C115	C	1.041685	-0.427486	-0.975901
C116	C	1.541685	0.072514	-0.475901
C117	C	0.955890	-0.333981	-0.984469
C118	C	1.455890	0.166019	-0.484469
C119	C	0.955874	-0.333999	-0.902490
C120	C	1.455874	0.166001	-0.402490
C121	C	0.998765	-0.380763	-0.857216
C122	C	1.498765	0.119237	-0.357216
C123	C	0.998669	-0.380896	-0.108421
C124	C	1.498669	0.119104	0.391579
C125	C	0.998797	-0.380727	-0.021174
C126	C	1.498797	0.119273	0.478826
H127	H	0.595442	-0.445113	-0.237320
H128	H	1.095442	0.054887	0.262680
H129	H	0.920897	-0.295991	-0.619759
H130	H	1.420897	0.204009	-0.119759
O131	O	0.888081	-0.786477	-0.193849
O132	O	1.388081	-0.286477	0.306151
H133	H	0.850988	-0.818338	-0.229193
H134	H	1.350988	-0.318338	0.270807
O135	O	1.087956	-0.477905	-1.015489
O136	O	1.587956	0.022095	-0.515489
H137	H	1.080765	-0.470028	-1.080100
H138	H	1.580765	0.029972	-0.580100
O139	O	0.928185	-0.899788	-0.236797
O140	O	1.428185	-0.399788	0.263203
H141	H	0.873744	-0.883442	-0.253574
H142	H	1.373744	-0.383442	0.246426
H143	H	0.920916	-0.295968	-0.768477
H144	H	1.420916	0.204032	-0.268477
O145	O	1.087883	-0.477992	-0.592229
O146	O	1.587883	0.022008	-0.092229
H147	H	1.117726	-0.510486	-0.631524
H148	H	1.617726	-0.010486	-0.131524
O149	O	0.412789	-0.305300	-0.400751
O150	O	0.912789	0.194700	0.099249
H151	H	0.444802	-0.338143	-0.437533
H152	H	0.944802	0.161857	0.062467
H153	H	0.920941	-0.295935	-0.872606
H154	H	1.420941	0.204065	-0.372606
O155	O	1.087908	-0.477962	-0.762638
O156	O	1.587908	0.022038	-0.262638
H157	H	1.073498	-0.532477	-0.744978
H158	H	1.573498	-0.032477	-0.244978
O159	O	1.087932	-0.477936	-0.845080
O160	O	1.587932	0.022064	-0.345080
H161	H	1.117777	-0.510429	-0.884375
H162	H	1.617777	-0.010429	-0.384375
O163	O	0.252499	-0.484972	-0.190783
O164	O	0.752499	0.015028	0.309217
H165	H	0.264189	-0.540613	-0.200910
H166	H	0.764189	-0.040613	0.299090
H167	H	0.735346	-0.288280	-0.420583
H168	H	1.235346	0.211720	0.079417
O169	O	0.260615	-0.298824	-0.408355
O170	O	0.760615	0.201176	0.091645
H171	H	0.299729	-0.269302	-0.442865
H172	H	0.799729	0.230698	0.057135
H173	H	0.920968	-0.295903	-1.021335
H174	H	1.420968	0.204097	-0.521335
O175	O	0.518087	-0.451422	-0.229950
O176	O	1.018087	0.048578	0.270050
H177	H	0.478979	-0.480955	-0.195443
H178	H	0.978979	0.019045	0.304557
O179	O	0.593353	-0.270373	-0.441535
O180	O	1.093353	0.229627	0.058465
H181	H	0.606905	-0.283069	-0.501864
H182	H	1.106905	0.216931	-0.001864
H183	H	1.062925	-0.783957	-0.381230
H184	H	1.562925	-0.283957	0.118770
H185	H	1.057008	-0.870492	-0.374889
H186	H	1.557008	-0.370492	0.125111
H187	H	0.728259	-0.450766	-0.230680
H188	H	1.228259	0.049234	0.269320
O189	O	1.109397	-0.974610	-0.430941
O190	O	1.609397	-0.474610	0.069059
H191	H	1.096764	-0.988116	-0.492504
H192	H	1.596764	-0.488116	0.007496
O193	O	0.404684	-0.491456	-0.183181
O194	O	0.904684	0.008544	0.316819
H195	H	0.388274	-0.545901	-0.194722
H196	H	0.888274	-0.045901	0.305278
O197	O	0.479957	-0.310415	-0.394769
O198	O	0.979957	0.189585	0.105231
H199	H	0.493506	-0.323107	-0.455100
H200	H	0.993506	0.176893	0.044900
H201	H	0.928911	-1.109956	-0.237531
H202	H	1.428911	-0.609956	0.262469
H203	H	1.068538	-0.651124	-0.387282
H204	H	1.568538	-0.151124	0.112718
O205	O	1.102941	-1.126792	-0.424040
O206	O	1.602941	-0.626792	0.075960
H207	H	1.092998	-1.183550	-0.413381
H208	H	1.592998	-0.683550	0.086619
H209	H	0.934521	-0.977119	-0.243588
H210	H	1.434521	-0.477119	0.256412
O211	O	0.894508	-0.634271	-0.200789
O212	O	1.394508	-0.134271	0.299211
H213	H	0.861760	-0.670751	-0.165669
H214	H	1.361760	-0.170751	0.334331
