data_functionalizedCrystal
_audit_creation_method	'MofGen! by Chris Wilmer'
_symmetry_space_group_name_H-M	'P1'
_symmetry_Int_Tables_number	1
_symmetry_cell_setting	triclinic
loop_
_symmetry_equiv_pos_as_xyz
  x,y,z
_cell_length_a	12.827893
_cell_length_b	14.908520
_cell_length_c	12.827885
_cell_angle_alpha	93.263516
_cell_angle_beta	89.980728
_cell_angle_gamma	93.320575
loop_
_atom_site_label
_atom_site_type_symbol
_atom_site_fract_x
_atom_site_fract_y
_atom_site_fract_z
Zn1	Zn	1.573615	-0.359115	-0.614817
Zn2	Zn	1.906948	-0.025781	-0.281483
Zn3	Zn	2.240281	0.307552	0.051850
Zn4	Zn	1.563402	-0.509998	-0.450147
Zn5	Zn	1.896735	-0.176665	-0.116814
Zn6	Zn	2.230069	0.156668	0.216520
Zn7	Zn	1.398853	-0.359159	-0.440093
Zn8	Zn	1.732186	-0.025825	-0.106760
Zn9	Zn	2.065520	0.307508	0.226574
Zn10	Zn	1.388739	-0.509931	-0.624843
Zn11	Zn	1.722072	-0.176598	-0.291509
Zn12	Zn	2.055406	0.156735	0.041824
O13	O	1.481152	-0.434551	-0.532475
O14	O	1.814485	-0.101217	-0.199141
O15	O	2.147819	0.232116	0.134192
O16	O	1.718495	-0.379139	-0.592984
O17	O	2.051829	-0.045806	-0.259651
O18	O	2.385162	0.287527	0.073682
O19	O	1.541533	-0.490036	-0.302580
O20	O	1.874866	-0.156702	0.030753
O21	O	2.208199	0.176631	0.364086
O22	O	1.430542	-0.232908	-0.454867
O23	O	1.763876	0.100425	-0.121534
O24	O	2.097209	0.433758	0.211800
O25	O	1.710992	-0.489993	-0.472002
O26	O	2.044325	-0.156660	-0.138669
O27	O	2.377659	0.176674	0.194664
O28	O	1.558939	-0.232876	-0.583236
O29	O	1.892272	0.100457	-0.249902
O30	O	2.225606	0.433791	0.083431
O31	O	1.420640	-0.379214	-0.295194
O32	O	1.753973	-0.045881	0.038140
O33	O	2.087306	0.287452	0.371473
O34	O	1.251276	-0.379149	-0.464589
O35	O	1.584609	-0.045816	-0.131255
O36	O	1.917943	0.287518	0.202078
O37	O	1.413304	-0.489879	-0.769746
O38	O	1.746638	-0.156545	-0.436412
O39	O	2.079971	0.176788	-0.103079
O40	O	1.243845	-0.489921	-0.600323
O41	O	1.577179	-0.156588	-0.266990
O42	O	1.910512	0.176745	0.066343
O43	O	1.549132	-0.379074	-0.762380
O44	O	1.882465	-0.045741	-0.429046
O45	O	2.215798	0.287592	-0.095713
O46	O	1.531726	-0.636234	-0.481724
O47	O	1.865059	-0.302900	-0.148391
O48	O	2.198392	0.030433	0.184942
O49	O	1.403401	-0.636184	-0.610072
O50	O	1.736735	-0.302851	-0.276739
O51	O	2.070068	0.030482	0.056594
C52	C	1.209643	-0.434533	-0.532454
C53	C	1.542977	-0.101200	-0.199120
C54	C	1.876310	0.232133	0.134213
C55	C	1.093489	-0.434548	-0.532471
C56	C	1.426823	-0.101214	-0.199138
C57	C	1.760156	0.232119	0.134196
C58	C	1.038049	-0.489447	-0.599545
C59	C	1.371383	-0.156113	-0.266211
C60	C	1.704716	0.177220	0.067122
C61	C	0.917998	-0.489463	-0.599564
C62	C	1.251331	-0.156129	-0.266231
C63	C	1.584665	0.177204	0.067103
C64	C	1.465386	-0.668943	-0.548100
C65	C	1.798719	-0.335609	-0.214767
C66	C	2.132053	-0.002276	0.118567
C67	C	1.458737	-0.769217	-0.554820
C68	C	1.792070	-0.435883	-0.221486
C69	C	2.125404	-0.102550	0.111847
C70	C	1.580004	-0.957632	-0.433905
C71	C	1.913337	-0.624299	-0.100572
C72	C	2.246671	-0.290966	0.232762
C73	C	1.573760	-1.051849	-0.440215
C74	C	1.907093	-0.718515	-0.106882
C75	C	2.240427	-0.385182	0.226451
C76	C	1.440011	-1.051867	-0.573755
C77	C	1.773345	-0.718534	-0.240421
C78	C	2.106678	-0.385201	0.092912
C79	C	1.446255	-0.957651	-0.567444
C80	C	1.779588	-0.624318	-0.234111
C81	C	2.112922	-0.290984	0.099222
C82	C	1.516253	-0.910537	-0.497516
C83	C	1.849586	-0.577203	-0.164183
C84	C	2.182919	-0.243870	0.169150
C85	C	1.522491	-0.816319	-0.491201
C86	C	1.855824	-0.482985	-0.157868
C87	C	2.189157	-0.149652	0.175465
C88	C	1.388748	-0.816339	-0.624745
C89	C	1.722081	-0.483006	-0.291412
C90	C	2.055415	-0.149672	0.041921
C91	C	1.382504	-0.910555	-0.631056
C92	C	1.715837	-0.577222	-0.297722
C93	C	2.049171	-0.243889	0.035611
C94	C	1.753721	-0.434569	-0.532497
C95	C	2.087054	-0.101235	-0.199163
C96	C	2.420388	0.232098	0.134170
C97	C	1.869874	-0.434576	-0.532506
C98	C	2.203207	-0.101243	-0.199173
C99	C	2.536540	0.232090	0.134161
C100	C	1.481229	-0.434464	-0.805039
C101	C	1.814562	-0.101131	-0.471706
C102	C	2.147896	0.232203	-0.138373
C103	C	1.481262	-0.434427	-0.921190
C104	C	1.814595	-0.101094	-0.587857
C105	C	2.147928	0.232240	-0.254523
C106	C	1.497008	-0.199243	-0.516811
C107	C	1.830341	0.134090	-0.183478
C108	C	2.163675	0.467423	0.149855
C109	C	1.503765	-0.098969	-0.510137
C110	C	1.837098	0.234364	-0.176803
C111	C	2.170432	0.567697	0.156530
C112	C	1.414107	-0.489195	-1.096660
C113	C	1.747441	-0.155862	-0.763327
C114	C	2.080774	0.177472	-0.429993
C115	C	1.414072	-0.489234	-0.976612
C116	C	1.747405	-0.155901	-0.643279
C117	C	2.080739	0.177432	-0.309946
C118	C	1.481140	-0.434572	-0.260966
C119	C	1.814473	-0.101239	0.072367
C120	C	2.147807	0.232095	0.405700
C121	C	1.481327	-0.434355	-0.144799
C122	C	1.814660	-0.101021	0.188534
C123	C	2.147993	0.232312	0.521867
H124	H	0.870335	-0.536467	-0.656985
H125	H	1.203668	-0.203133	-0.323652
H126	H	1.537002	0.130200	0.009681
H127	H	1.356582	-0.536114	-1.144321
H128	H	1.689915	-0.202780	-0.810988
H129	H	2.023249	0.130553	-0.477654
H130	H	1.538845	-0.387429	-1.097138
H131	H	1.872178	-0.054096	-0.763804
H132	H	2.205511	0.279238	-0.430471
H133	H	1.325517	-0.948929	-0.687992
H134	H	1.658850	-0.615595	-0.354658
H135	H	1.992183	-0.282262	-0.021325
H136	H	1.336834	-0.777983	-0.676539
H137	H	1.670167	-0.444650	-0.343206
H138	H	2.003501	-0.111317	-0.009872
F139	F	0.932162	-0.373142	-0.457437
F140	F	1.265495	-0.039809	-0.124104
F141	F	1.598829	0.293524	0.209229
H142	H	1.579483	-0.777959	-0.434260
H143	H	1.912817	-0.444626	-0.100926
H144	H	2.246150	-0.111293	0.232407
F145	F	1.654486	-0.907488	-0.359470
F146	F	1.987819	-0.574155	-0.026137
F147	F	2.321152	-0.240821	0.307196
H148	H	1.625675	-1.090190	-0.388418
H149	H	1.959008	-0.756857	-0.055085
H150	H	2.292342	-0.423524	0.278248
H151	H	1.383030	-1.090244	-0.630693
H152	H	1.716363	-0.756911	-0.297360
H153	H	2.049696	-0.423577	0.035973
F154	F	1.338853	-0.550609	-0.922488
F155	F	1.672187	-0.217276	-0.589154
F156	F	2.005520	0.116057	-0.255821
F157	F	1.556493	-0.373059	-0.975309
F158	F	1.889827	-0.039725	-0.641975
F159	F	2.223160	0.293608	-0.308642
H160	H	1.079463	-0.536433	-0.656958
H161	H	1.412796	-0.203099	-0.323624
H162	H	1.746130	0.130234	0.009709
F163	F	1.039365	-0.373122	-0.457434
F164	F	1.372698	-0.039789	-0.124101
F165	F	1.706032	0.293544	0.209232
