data_functionalizedCrystal
_audit_creation_method	'MofGen! by Chris Wilmer'
_symmetry_space_group_name_H-M	'P1'
_symmetry_Int_Tables_number	1
_symmetry_cell_setting	triclinic
loop_
_symmetry_equiv_pos_as_xyz
  x,y,z
_cell_length_a	21.295418
_cell_length_b	16.959454
_cell_length_c	16.959447
_cell_angle_alpha	89.978202
_cell_angle_beta	89.962738
_cell_angle_gamma	90.016806
loop_
_atom_site_label
_atom_site_type_symbol
_atom_site_fract_x
_atom_site_fract_y
_atom_site_fract_z
Zn1	Zn	0.962445	-0.314331	-0.447385
Zn2	Zn	0.962413	-0.446524	-0.315226
Zn3	Zn	0.857180	-0.314400	-0.315175
Zn4	Zn	0.857191	-0.446508	-0.447318
O5	O	0.909807	-0.380441	-0.381276
O6	O	1.050530	-0.331845	-0.429903
O7	O	0.948436	-0.429033	-0.204608
O8	O	0.871152	-0.203780	-0.332720
O9	O	1.050507	-0.428966	-0.332806
O10	O	0.948489	-0.203730	-0.429854
O11	O	0.871121	-0.331962	-0.204571
O12	O	0.769092	-0.331947	-0.332655
O13	O	0.871172	-0.428940	-0.557938
O14	O	0.769100	-0.429006	-0.429739
O15	O	0.948501	-0.331830	-0.557987
O16	O	0.948447	-0.557133	-0.332741
O17	O	0.871141	-0.557121	-0.429789
C18	C	0.746256	-0.380483	-0.381185
C19	C	0.676287	-0.380519	-0.381165
C20	C	0.909823	-0.174273	-0.381289
C21	C	0.909829	-0.086416	-0.381294
C22	C	0.909809	-0.585807	-0.381281
C23	C	0.909867	-0.673664	-0.381309
C24	C	0.643442	-0.431125	-0.431641
C25	C	0.577699	-0.431106	-0.431677
C26	C	0.544805	-0.380489	-0.381222
C27	C	0.577659	-0.329873	-0.330742
C28	C	0.643400	-0.329888	-0.330713
N29	N	0.441533	-0.374318	-0.312086
N30	N	0.379081	-0.374308	-0.312115
C31	C	0.346730	-0.380438	-0.381305
N32	N	0.379190	-0.386594	-0.450467
N33	N	0.441647	-0.386608	-0.450437
C34	C	0.473520	-0.380466	-0.381247
C35	C	0.242599	-0.431026	-0.431825
C36	C	0.176855	-0.431001	-0.431861
C37	C	0.176816	-0.329772	-0.330920
C38	C	0.242558	-0.329793	-0.330890
C39	C	0.275446	-0.380424	-0.381341
C40	C	1.073997	-0.380400	-0.381368
C41	C	1.143966	-0.380382	-0.381407
C42	C	0.909841	-0.380375	-0.587444
C43	C	0.909855	-0.380347	-0.675301
C44	C	0.950130	0.285088	-0.431881
C45	C	0.869598	0.285031	-0.330734
C46	C	0.869589	0.202485	-0.330731
C47	C	0.909851	0.161237	-0.381303
C48	C	0.950124	0.202535	-0.431878
C49	C	0.829322	0.161181	-0.280152
C50	C	0.829312	0.078630	-0.280147
C51	C	0.869572	0.037380	-0.330723
C52	C	0.909845	0.078683	-0.381300
C53	C	0.950108	0.037435	-0.431872
C54	C	0.990378	0.078737	-0.482453
C55	C	0.990384	0.161285	-0.482454
C56	C	0.869566	-0.045168	-0.330722
C57	C	0.950101	-0.045118	-0.431869
C58	C	0.869657	-0.329724	-1.046764
C59	C	0.950165	-0.430804	-1.046790
C60	C	0.950154	-0.430823	-0.964244
C61	C	0.909893	-0.380292	-0.922954
C62	C	0.869643	-0.329742	-0.964210
C63	C	0.990399	-0.481377	-0.922982
C64	C	0.990389	-0.481398	-0.840431
C65	C	0.950131	-0.430863	-0.799139
C66	C	0.909880	-0.380310	-0.840400
C67	C	0.869619	-0.329779	-0.799111
C68	C	0.829370	-0.279222	-0.840370
C69	C	0.829385	-0.279206	-0.922919
C70	C	0.950116	-0.430878	-0.716591
C71	C	0.869605	-0.329798	-0.716557
C72	C	0.909810	-0.380449	-0.175910
C73	C	0.909917	-0.380255	-0.088054
H74	H	0.670215	-0.472352	-0.472724
O75	O	0.830400	0.325012	-0.281655
C76	C	0.723315	0.350279	-0.243275
C77	C	0.767639	0.304932	-0.298893
H78	H	0.672562	0.334074	-0.257204
H79	H	0.734298	0.334017	-0.179529
H80	H	0.730272	0.416368	-0.251955
H81	H	0.760706	0.238833	-0.290284
H82	H	0.756644	0.321260	-0.362619
O83	O	0.274371	-0.280614	-0.281776
C84	C	0.267392	-0.180175	-0.181696
C85	C	0.231287	-0.235848	-0.237263
H86	H	0.232574	-0.143955	-0.145704
H87	H	0.298106	-0.216383	-0.140240
H88	H	0.298232	-0.138931	-0.218052
H89	H	0.200412	-0.277103	-0.200970
H90	H	0.200612	-0.199591	-0.278721
H91	H	0.796521	0.045009	-0.238960
H92	H	0.982884	-0.078697	-0.473057
O93	O	0.675337	-0.280648	-0.281787
C94	C	0.749628	-0.173973	-0.271286
C95	C	0.713486	-0.229674	-0.326788
H96	H	0.780490	-0.132758	-0.307646
H97	H	0.714856	-0.137731	-0.235245
H98	H	0.780328	-0.210239	-0.229867
H99	H	0.682784	-0.193469	-0.368254
H100	H	0.748292	-0.265919	-0.362774
H101	H	0.550951	-0.472315	-0.472783
O102	O	0.144850	-0.480087	-0.480873
C103	C	0.043590	-0.524958	-0.525620
C104	C	0.079759	-0.469315	-0.470088
H105	H	-0.009042	-0.516281	-0.516907
H106	H	0.056528	-0.511165	-0.589391
H107	H	0.056516	-0.588671	-0.511633
H108	H	0.066853	-0.405584	-0.484003
H109	H	0.066818	-0.483177	-0.406333
H110	H	1.023161	-0.522566	-0.806844
H111	H	0.150034	-0.288555	-0.289842
O112	O	1.029430	0.038542	-0.531551
C113	C	1.065135	-0.088613	-0.576322
C114	C	1.020868	-0.043188	-0.520695
H115	H	1.058237	-0.154700	-0.567552
H116	H	1.054090	-0.072432	-0.640072
H117	H	1.115886	-0.072327	-0.562483
H118	H	0.970102	-0.059450	-0.534463
H119	H	1.031967	-0.059373	-0.456961
O120	O	1.029519	0.201282	-0.531659
C121	C	1.109418	0.192631	-0.631957
C122	C	1.065121	0.147233	-0.576286
H123	H	1.138223	0.148952	-0.668041
H124	H	1.080554	0.231265	-0.673322
H125	H	1.142304	0.231296	-0.595675
H126	H	1.032226	0.108526	-0.612505
H127	H	1.094024	0.108649	-0.534920
H128	H	0.982890	-0.472036	-0.683001
H129	H	0.982916	0.318718	-0.473066
H130	H	0.982939	-0.471951	-1.080413
O131	O	0.790124	0.201165	-0.231076
C132	C	0.683038	0.226432	-0.192697
C133	C	0.727363	0.181080	-0.248309
H134	H	0.632286	0.210222	-0.206622
H135	H	0.694024	0.210180	-0.128949
H136	H	0.689993	0.292520	-0.201386
H137	H	0.720433	0.114981	-0.239691
H138	H	0.716367	0.197397	-0.312037
H139	H	0.550872	-0.288659	-0.289662
O140	O	0.830473	-0.280655	-1.086751
C141	C	0.723401	-0.242336	-1.111990
C142	C	0.767705	-0.297943	-1.066640
H143	H	0.672643	-0.256305	-1.095759
H144	H	0.734405	-0.178589	-1.095755
H145	H	0.730357	-0.250984	-1.178078
H146	H	0.760773	-0.289365	-1.000541
H147	H	0.756690	-0.361669	-1.082940
O148	O	0.274578	-0.480284	-0.480724
C149	C	0.348793	-0.587005	-0.491158
C150	C	0.312609	-0.531283	-0.435689
H151	H	0.379560	-0.628241	-0.454771
H152	H	0.314048	-0.623224	-0.527234
H153	H	0.379592	-0.550757	-0.532547
H154	H	0.281808	-0.567469	-0.394252
H155	H	0.347387	-0.495061	-0.399669
O156	O	0.830435	-0.280686	-0.676573
C157	C	0.750610	-0.180389	-0.685259
C158	C	0.794928	-0.235979	-0.730638
H159	H	0.721901	-0.144217	-0.728951
H160	H	0.717641	-0.216658	-0.646613
H161	H	0.779517	-0.139096	-0.646609
H162	H	0.766072	-0.277283	-0.769331
H163	H	0.827898	-0.199660	-0.769234
H164	H	0.836781	-0.078792	-0.289537
O165	O	0.790170	-0.230224	-0.800292
C166	C	0.683094	-0.191860	-0.775005
C167	C	0.727414	-0.247408	-0.820432
H168	H	0.632347	-0.205722	-0.791284
H169	H	0.689944	-0.200570	-0.708910
H170	H	0.694188	-0.128120	-0.791231
H171	H	0.716348	-0.311169	-0.804272
H172	H	0.720556	-0.238630	-0.886516
H173	H	0.796616	-0.238047	-0.956520
O174	O	1.029477	-0.530395	-0.963211
C175	C	1.065133	-0.575212	-1.090399
C176	C	1.020858	-0.519638	-1.044934
H177	H	1.058170	-0.566546	-1.156480
H178	H	1.115908	-0.561337	-1.074265
H179	H	1.054066	-0.638942	-1.074104
H180	H	1.031868	-0.455890	-1.061205
H181	H	0.970096	-0.533581	-1.061072
