data_functionalizedCrystal
_audit_creation_method	'MofGen! by Chris Wilmer'
_symmetry_space_group_name_H-M	'P1'
_symmetry_Int_Tables_number	1
_symmetry_cell_setting	triclinic
loop_
_symmetry_equiv_pos_as_xyz
  x,y,z
_cell_length_a	16.992694
_cell_length_b	17.038272
_cell_length_c	16.053802
_cell_angle_alpha	92.751609
_cell_angle_beta	87.249047
_cell_angle_gamma	90.889890
loop_
_atom_site_label
_atom_site_type_symbol
_atom_site_fract_x
_atom_site_fract_y
_atom_site_fract_z
O1	O	1.054593	0.163385	-0.069325
O2	O	0.826187	0.161558	-0.069350
O3	O	0.939032	0.048571	-0.069331
O4	O	0.941748	0.276372	-0.069344
O5	O	0.932819	0.054763	0.069527
O6	O	0.819974	0.167750	0.069508
O7	O	1.048380	0.169577	0.069533
Zn8	Zn	0.933190	0.169646	0.091567
Zn9	Zn	0.941376	0.161489	-0.091384
O10	O	0.935535	0.282564	0.069514
C11	C	0.793711	0.162304	0.000076
C12	C	0.706200	0.155293	0.000067
C13	C	0.660472	0.222933	0.000064
C14	C	0.578245	0.216342	0.000076
C15	C	0.541748	0.142110	0.000085
C16	C	0.587482	0.074465	0.000091
C17	C	0.669707	0.081057	0.000085
C18	C	0.296327	0.114789	0.000109
C19	C	0.214096	0.108201	0.000112
C20	C	0.204864	0.250079	0.000099
C21	C	0.287091	0.256665	0.000088
C22	C	0.332818	0.189020	0.000098
N23	N	0.457699	0.135371	0.000094
N24	N	0.416865	0.195760	0.000095
C25	C	0.933456	0.022384	0.000098
C26	C	0.926089	-0.064871	0.000097
C27	C	0.993729	-0.110741	0.000105
C28	C	0.986802	-0.192727	0.000096
C29	C	0.912235	-0.228840	0.000085
C30	C	0.844590	-0.182964	0.000075
C31	C	0.851518	-0.100981	0.000077
C32	C	0.887761	-0.476135	0.000071
C33	C	0.880838	-0.558124	0.000071
C34	C	1.023051	-0.567881	0.000091
C35	C	1.029972	-0.485895	0.000099
C36	C	0.962328	-0.440026	0.000084
C37	C	0.905153	-0.312643	0.000079
C38	C	0.969410	-0.356226	0.000084
C39	C	1.080856	0.168831	0.000105
C40	C	1.168367	0.175841	0.000109
C41	C	0.941111	0.308751	0.000084
C42	C	0.948478	0.396006	0.000079
N43	N	0.927609	0.175214	0.216427
N44	N	0.946963	0.155915	-0.216243
C45	C	0.975645	0.127157	0.260129
C46	C	0.971749	0.131060	0.347535
C47	C	0.919820	0.183023	0.391237
C48	C	0.871779	0.231082	0.347529
C49	C	0.875672	0.227175	0.260125
C50	C	0.902815	0.200067	0.652644
C51	C	0.898928	0.203972	0.740055
C52	C	0.998897	0.103948	0.740054
C53	C	1.002788	0.100050	0.652648
C54	C	0.954744	0.148105	0.608948
N55	N	0.915838	0.187015	0.480580
N56	N	0.958723	0.144109	0.519606
H57	H	0.557760	0.014024	0.000110
H58	H	1.030124	-0.326819	0.000074
H59	H	0.820113	-0.587524	0.000076
H60	H	1.054449	-0.081343	0.000119
H61	H	0.541016	0.271422	0.000072
H62	H	0.184383	0.047750	0.000119
O63	O	0.695835	0.295082	-0.000057
C64	C	0.676153	0.333410	-0.071984
H65	H	0.618835	0.307381	-0.095954
H66	H	0.725316	0.325043	-0.122346
C67	C	0.736066	0.453710	-0.020703
C68	C	0.665664	0.421746	-0.050139
H69	H	0.729599	0.508200	-0.007230
H70	H	0.749329	0.427887	0.027755
H71	H	0.777028	0.446730	-0.062676
H72	H	0.624706	0.428717	-0.008163
H73	H	0.652393	0.447572	-0.098589
O74	O	0.856076	0.246640	0.610159
C75	C	0.806959	0.199280	0.559595
H76	H	0.800317	0.138455	0.585945
H77	H	0.834280	0.193756	0.493352
C78	C	0.733527	0.311877	0.525889
C79	C	0.725365	0.237174	0.558256
H80	H	0.683198	0.335253	0.525059
H81	H	0.766620	0.343786	0.559952
H82	H	0.756298	0.307264	0.470689
H83	H	0.702605	0.241789	0.613459
H84	H	0.692266	0.205266	0.524202
O85	O	1.052586	-0.237166	0.000147
C86	C	1.119886	-0.187711	0.000144
H87	H	1.102798	-0.126670	0.026430
H88	H	1.145474	-0.183457	-0.066468
C89	C	1.202907	-0.296866	0.022327
C90	C	1.181920	-0.221895	0.054619
H91	H	1.241174	-0.317952	0.055926
H92	H	1.157566	-0.330185	0.022326
H93	H	1.224225	-0.293310	-0.033183
H94	H	1.160593	-0.225452	0.110123
H95	H	1.227259	-0.188577	0.054631
H96	H	0.316801	0.317112	0.000071
H97	H	0.796438	-0.063634	0.000071
H98	H	0.167624	0.305152	0.000092
O99	O	0.832710	-0.347697	-0.000074
C100	C	0.794350	-0.327884	-0.071981
H101	H	0.840104	-0.310431	-0.122241
H102	H	0.753299	-0.276536	-0.055722
C103	C	0.689901	-0.420616	-0.042869
C104	C	0.746096	-0.399186	-0.104602
H105	H	0.660132	-0.464597	-0.062990
H106	H	0.715742	-0.433963	0.005577
H107	H	0.655700	-0.377820	-0.029325
H108	H	0.780302	-0.441978	-0.118138
H109	H	0.720259	-0.385848	-0.153052
H110	H	0.333548	0.059707	0.000118
H111	H	1.010863	0.091928	0.383116
H112	H	1.017934	0.084847	0.224552
O113	O	0.821376	0.281663	0.389885
C114	C	0.840315	0.359239	0.368525
H115	H	0.873487	0.358219	0.305060
H116	H	0.878932	0.388193	0.417708
C117	C	0.723284	0.407495	0.442431
C118	C	0.764022	0.406243	0.364479
H119	H	0.676224	0.436492	0.439939
H120	H	0.710526	0.355232	0.456825
H121	H	0.755474	0.431622	0.483409
H122	H	0.731836	0.382108	0.323505
H123	H	0.776773	0.458504	0.350078
H124	H	1.045072	0.057737	0.617067
O125	O	1.102469	-0.450944	0.000075
C126	C	1.160685	-0.509010	0.000105
H127	H	1.136083	-0.567190	-0.026195
H128	H	1.178822	-0.516268	0.066727
C129	C	1.263225	-0.412586	-0.022028
C130	C	1.233011	-0.484043	-0.054337
H131	H	1.307841	-0.397185	-0.055607
H132	H	1.224005	-0.373465	-0.022045
H133	H	1.278334	-0.418644	0.033489
H134	H	1.217894	-0.477982	-0.109849
H135	H	1.272231	-0.523163	-0.054330
O136	O	0.822108	-0.431494	0.000173
C137	C	0.818630	-0.380588	0.072098
H138	H	0.880330	-0.371475	0.096082
H139	H	0.778617	-0.407531	0.122452
C140	C	0.709754	-0.312089	0.020787
C141	C	0.785536	-0.300890	0.050241
H142	H	0.689337	-0.262928	0.007307
H143	H	0.712095	-0.346387	-0.027668
H144	H	0.676419	-0.334544	0.062754
H145	H	0.818872	-0.278445	0.008271
H146	H	0.783200	-0.266586	0.098689
O147	O	0.772107	-0.217947	0.000173
C148	C	0.727329	-0.191755	0.072093
H149	H	0.751505	-0.132551	0.096073
H150	H	0.731030	-0.236331	0.122451
C151	C	0.611066	-0.255622	0.020780
C152	C	0.640756	-0.182902	0.050229
H153	H	0.557663	-0.250164	0.007296
H154	H	0.641234	-0.273270	-0.027673
H155	H	0.614157	-0.292761	0.062751
H156	H	0.637673	-0.145767	0.008255
H157	H	0.610585	-0.165247	0.098674
H158	H	0.856639	0.246290	0.775633
O159	O	1.045479	0.057296	0.782635
C160	C	1.030925	0.071898	0.869151
H161	H	0.969751	0.097830	0.881095
H162	H	1.077014	0.115193	0.893942
C163	C	1.110540	-0.037518	0.899367
C164	C	1.035402	-0.005674	0.914037
H165	H	1.113305	-0.085366	0.927056
H166	H	1.120348	-0.047354	0.841080
H167	H	1.148939	-0.001431	0.920026
H168	H	0.997006	-0.041756	0.893368
H169	H	1.025588	0.004154	0.972322
O170	O	0.829043	0.273779	0.217541
C171	C	0.843626	0.259202	0.131025
H172	H	0.869426	0.198104	0.119095
H173	H	0.887183	0.305024	0.106206
C174	C	0.734178	0.338958	0.100811
C175	C	0.765859	0.263913	0.086159
H176	H	0.686209	0.341867	0.073134
H177	H	0.724354	0.348782	0.159098
H178	H	0.770483	0.377134	0.080129
H179	H	0.729559	0.225739	0.106850
H180	H	0.775675	0.254082	0.027874
H181	H	0.706939	0.025977	0.000087
H182	H	1.078123	-0.605236	0.000102
