data_functionalizedCrystal
_audit_creation_method	'MofGen! by Chris Wilmer'
_symmetry_space_group_name_H-M	'P1'
_symmetry_Int_Tables_number	1
_symmetry_cell_setting	triclinic
loop_
_symmetry_equiv_pos_as_xyz
  x,y,z
_cell_length_a	27.732048
_cell_length_b	27.732048
_cell_length_c	18.266242
_cell_angle_alpha	89.988683
_cell_angle_beta	89.996455
_cell_angle_gamma	82.642655
loop_
_atom_site_label
_atom_site_type_symbol
_atom_site_fract_x
_atom_site_fract_y
_atom_site_fract_z
O1	O	0.640930	0.057518	-0.060794
O2	O	0.974264	0.390851	0.272539
O3	O	1.307597	0.724184	0.605872
O4	O	0.500137	0.066263	-0.060818
O5	O	0.833470	0.399597	0.272516
O6	O	1.166803	0.732930	0.605849
O7	O	0.574906	-0.008506	-0.060791
O8	O	0.908240	0.324827	0.272542
O9	O	1.241573	0.658160	0.605875
O10	O	0.566161	0.132287	-0.060821
O11	O	0.899494	0.465621	0.272513
O12	O	1.232827	0.798954	0.605846
O13	O	0.574894	-0.008510	0.060971
O14	O	0.908227	0.324823	0.394304
O15	O	1.241560	0.658157	0.727637
O16	O	0.500124	0.066259	0.060944
O17	O	0.833458	0.399593	0.394278
O18	O	1.166791	0.732926	0.727611
O19	O	0.640918	0.057514	0.060968
O20	O	0.974251	0.390847	0.394301
O21	O	1.307584	0.724181	0.727634
Zn22	Zn	0.570519	0.061886	0.080288
Zn23	Zn	0.903852	0.395219	0.413622
Zn24	Zn	1.237186	0.728553	0.746955
Zn25	Zn	0.570535	0.061891	-0.080138
Zn26	Zn	0.903869	0.395224	0.253195
Zn27	Zn	1.237202	0.728558	0.586528
O28	O	0.566148	0.132283	0.060941
O29	O	0.899482	0.465617	0.394275
O30	O	1.232815	0.798950	0.727608
C31	C	0.482124	0.066078	0.000061
C32	C	0.815457	0.399411	0.333394
C33	C	1.148790	0.732744	0.666727
C34	C	0.428469	0.065525	0.000052
C35	C	0.761802	0.398858	0.333386
C36	C	1.095135	0.732192	0.666719
C37	C	0.089654	0.106229	0.000076
C38	C	0.422987	0.439562	0.333409
C39	C	0.756320	0.772895	0.666742
C40	C	-0.112006	0.104178	0.000082
C41	C	0.221327	0.437511	0.333416
C42	C	0.554661	0.770844	0.666749
O43	O	-0.143262	0.141398	0.000106
O44	O	0.190072	0.474732	0.333440
O45	O	0.523405	0.808065	0.666773
N46	N	-0.131130	0.059843	0.000090
N47	N	0.202204	0.393176	0.333424
N48	N	0.535537	0.726509	0.666757
C49	C	-0.099835	0.016017	0.000101
C50	C	0.233498	0.349350	0.333435
C51	C	0.566832	0.682684	0.666768
O52	O	-0.120728	-0.021740	0.000116
O53	O	0.212605	0.311593	0.333449
O54	O	0.545938	0.644927	0.666783
C55	C	0.101824	0.018068	0.000100
C56	C	0.435157	0.351402	0.333433
C57	C	0.768490	0.684735	0.666766
C58	C	0.120944	0.062407	0.000084
C59	C	0.454278	0.395740	0.333418
C60	C	0.787611	0.729073	0.666751
C61	C	0.108775	0.150563	0.000061
C62	C	0.442108	0.483897	0.333394
C63	C	0.775442	0.817230	0.666728
C64	C	0.159187	0.151075	0.000055
C65	C	0.492520	0.484409	0.333389
C66	C	0.825853	0.817742	0.666722
C67	C	0.190477	0.107253	0.000064
C68	C	0.523811	0.440587	0.333397
C69	C	0.857144	0.773920	0.666731
C70	C	0.171356	0.062919	0.000079
C71	C	0.504690	0.396252	0.333412
C72	C	0.838023	0.729585	0.666745
C73	C	0.133117	-0.025757	0.000116
C74	C	0.466451	0.307577	0.333449
C75	C	0.799784	0.640910	0.666783
C76	C	0.183535	-0.025240	0.000117
C77	C	0.516868	0.308094	0.333451
C78	C	0.850201	0.641427	0.666784
C79	C	0.202655	0.019098	0.000102
C80	C	0.535989	0.352432	0.333435
C81	C	0.869322	0.685765	0.666769
C82	C	0.253059	0.019609	0.000082
C83	C	0.586392	0.352942	0.333415
C84	C	0.919725	0.686276	0.666748
N85	N	0.272183	0.063944	0.000074
N86	N	0.605516	0.397277	0.333407
N87	N	0.938849	0.730611	0.666740
C88	C	0.240892	0.107766	0.000065
C89	C	0.574225	0.441100	0.333398
C90	C	0.907559	0.774433	0.666732
C91	C	-0.205709	0.014943	0.000101
C92	C	0.127624	0.348276	0.333434
C93	C	0.460957	0.681610	0.666768
C94	C	-0.256124	0.014430	0.000100
C95	C	0.077210	0.347763	0.333433
C96	C	0.410543	0.681097	0.666767
C97	C	-0.268291	0.102591	0.000082
C98	C	0.065042	0.435924	0.333416
C99	C	0.398376	0.769258	0.666749
C100	C	-0.217876	0.103104	0.000078
C101	C	0.115458	0.436437	0.333411
C102	C	0.448791	0.769770	0.666745
C103	C	-0.186585	0.059278	0.000093
C104	C	0.146748	0.392612	0.333426
C105	C	0.480081	0.725945	0.666760
C106	C	0.346761	0.108839	0.000052
C107	C	0.680094	0.442172	0.333386
C108	C	1.013428	0.775505	0.666719
C109	C	0.397178	0.109347	0.000043
C110	C	0.730511	0.442681	0.333377
C111	C	1.063845	0.776014	0.666710
C112	C	0.409341	0.021186	0.000065
C113	C	0.742674	0.354520	0.333398
C114	C	1.076008	0.687853	0.666732
C115	C	0.358929	0.020678	0.000070
C116	C	0.692262	0.354011	0.333403
C117	C	1.025595	0.687344	0.666736
C118	C	0.327639	0.064508	0.000066
C119	C	0.660973	0.397841	0.333399
C120	C	0.994306	0.731175	0.666733
O121	O	0.284343	-0.017592	0.000066
O122	O	0.617676	0.315741	0.333399
O123	O	0.951009	0.649075	0.666733
O124	O	0.261794	0.145518	0.000067
O125	O	0.595128	0.478851	0.333400
O126	O	0.928461	0.812184	0.666733
C127	C	0.039242	0.105716	0.000081
C128	C	0.372575	0.439050	0.333415
C129	C	0.705908	0.772383	0.666748
C130	C	0.020120	0.061382	0.000096
C131	C	0.353454	0.394715	0.333429
C132	C	0.686787	0.728049	0.666762
C133	C	0.051411	0.017560	0.000105
C134	C	0.384744	0.350893	0.333438
C135	C	0.718078	0.684226	0.666771
C136	C	-0.030294	0.060869	0.000095
C137	C	0.303039	0.394202	0.333428
C138	C	0.636373	0.727536	0.666762
C139	C	-0.061585	0.104691	0.000086
C140	C	0.271749	0.438025	0.333419
C141	C	0.605082	0.771358	0.666753
C142	C	-0.042461	0.149026	0.000078
C143	C	0.290872	0.482360	0.333412
C144	C	0.624206	0.815693	0.666745
C145	C	0.007951	0.149539	0.000072
C146	C	0.341284	0.482872	0.333406
C147	C	0.674618	0.816205	0.666739
C148	C	0.032287	-0.026775	0.000113
C149	C	0.365621	0.306558	0.333446
C150	C	0.698954	0.639891	0.666779
C151	C	-0.018125	-0.027284	0.000117
C152	C	0.315208	0.306049	0.333451
C153	C	0.648541	0.639383	0.666784
C154	C	-0.049416	0.016538	0.000109
C155	C	0.283917	0.349871	0.333442
C156	C	0.617251	0.683205	0.666775
C157	C	0.574716	-0.026515	0.000092
C158	C	0.908050	0.306818	0.333425
C159	C	1.241383	0.640152	0.666758
C160	C	0.574164	-0.080170	0.000098
C161	C	0.907497	0.253163	0.333431
C162	C	1.240830	0.586497	0.666764
C163	C	0.614867	-0.418985	0.000067
C164	C	0.948201	-0.085652	0.333400
C165	C	1.281534	0.247682	0.666733
C166	C	0.612816	-0.620645	0.000056
C167	C	0.946150	-0.287311	0.333389
C168	C	1.279483	0.046022	0.666723
O169	O	0.650037	-0.651900	0.000030
O170	O	0.983370	-0.318567	0.333364
O171	O	1.316704	0.014766	0.666697
N172	N	0.568481	-0.639768	0.000049
N173	N	0.901814	-0.306435	0.333383
N174	N	1.235148	0.026898	0.666716
C175	C	0.524656	-0.608474	0.000041
C176	C	0.857989	-0.275140	0.333374
C177	C	1.191322	0.058193	0.666707
O178	O	0.486899	-0.629367	0.000027
O179	O	0.820232	-0.296033	0.333361
O180	O	1.153565	0.037300	0.666694
C181	C	0.526707	-0.406815	0.000046
C182	C	0.860040	-0.073482	0.333379
C183	C	1.193374	0.259852	0.666713
C184	C	0.571045	-0.387694	0.000060
C185	C	0.904378	-0.054361	0.333393
C186	C	1.237712	0.278972	0.666727
C187	C	0.659202	-0.399864	0.000080
C188	C	0.992535	-0.066530	0.333413
C189	C	1.325868	0.266803	0.666747
C190	C	0.659714	-0.349452	0.000087
C191	C	0.993047	-0.016118	0.333420
C192	C	1.326381	0.317215	0.666753
C193	C	0.615892	-0.318161	0.000080
C194	C	0.949225	0.015172	0.333413
C195	C	1.282559	0.348506	0.666747
C196	C	0.571557	-0.337282	0.000067
C197	C	0.904891	-0.003949	0.333400
C198	C	1.238224	0.329384	0.666733
C199	C	0.482882	-0.375521	0.000032
C200	C	0.816215	-0.042188	0.333365
C201	C	1.149549	0.291145	0.666699
C202	C	0.483399	-0.325104	0.000031
C203	C	0.816732	0.008229	0.333365
C204	C	1.150066	0.341563	0.666698
C205	C	0.527737	-0.305983	0.000045
C206	C	0.861070	0.027350	0.333379
C207	C	1.194404	0.360683	0.666712
C208	C	0.528247	-0.255580	0.000067
C209	C	0.861581	0.077754	0.333400
C210	C	1.194914	0.411087	0.666733
N211	N	0.572583	-0.236456	0.000073
N212	N	0.905916	0.096877	0.333407
N213	N	1.239249	0.430211	0.666740
C214	C	0.616405	-0.267747	0.000080
C215	C	0.949738	0.065587	0.333413
C216	C	1.283072	0.398920	0.666747
C217	C	0.523582	-0.714348	0.000039
C218	C	0.856915	-0.381014	0.333373
C219	C	1.190248	-0.047681	0.666706
C220	C	0.523069	-0.764762	0.000039
C221	C	0.856402	-0.431429	0.333373
C222	C	1.189735	-0.098096	0.666706
C223	C	0.611230	-0.776930	0.000053
C224	C	0.944563	-0.443596	0.333387
C225	C	1.277896	-0.110263	0.666720
C226	C	0.611742	-0.726514	0.000059
C227	C	0.945075	-0.393181	0.333392
C228	C	1.278409	-0.059848	0.666725
C229	C	0.567917	-0.695224	0.000046
C230	C	0.901250	-0.361891	0.333379
C231	C	1.234583	-0.028557	0.666713
C232	C	0.617477	-0.161878	0.000094
C233	C	0.950811	0.171456	0.333428
C234	C	1.284144	0.504789	0.666761
C235	C	0.617986	-0.111461	0.000104
C236	C	0.951319	0.221873	0.333437
C237	C	1.284652	0.555206	0.666771
C238	C	0.529825	-0.099298	0.000086
C239	C	0.863158	0.234036	0.333420
C240	C	1.196492	0.567369	0.666753
C241	C	0.529316	-0.149710	0.000080
C242	C	0.862650	0.183623	0.333414
C243	C	1.195983	0.516957	0.666747
C244	C	0.573147	-0.180999	0.000082
C245	C	0.906480	0.152334	0.333415
C246	C	1.239813	0.485667	0.666749
O247	O	0.491047	-0.224296	0.000084
O248	O	0.824380	0.109038	0.333418
O249	O	1.157713	0.442371	0.666751
O250	O	0.654156	-0.246844	0.000077
O251	O	0.987490	0.086489	0.333410
O252	O	1.320823	0.419823	0.666744
C253	C	0.614355	-0.469397	0.000060
C254	C	0.947688	-0.136064	0.333393
C255	C	1.281022	0.197270	0.666727
C256	C	0.570021	-0.488518	0.000047
C257	C	0.903354	-0.155185	0.333380
C258	C	1.236687	0.178148	0.666713
C259	C	0.526198	-0.457228	0.000040
C260	C	0.859532	-0.123894	0.333374
C261	C	1.192865	0.209439	0.666707
C262	C	0.569508	-0.538933	0.000047
C263	C	0.902841	-0.205599	0.333380
C264	C	1.236174	0.127734	0.666713
C265	C	0.613330	-0.570223	0.000053
C266	C	0.946663	-0.236890	0.333387
C267	C	1.279996	0.096443	0.666720
C268	C	0.657665	-0.551100	0.000060
C269	C	0.990998	-0.217766	0.333393
C270	C	1.324332	0.115567	0.666727
C271	C	0.658177	-0.500688	0.000067
C272	C	0.991511	-0.167354	0.333400
C273	C	1.324844	0.165979	0.666733
C274	C	0.481863	-0.476351	0.000034
C275	C	0.815197	-0.143018	0.333367
C276	C	1.148530	0.190315	0.666700
C277	C	0.481355	-0.526764	0.000028
C278	C	0.814688	-0.193430	0.333361
C279	C	1.148021	0.139903	0.666694
C280	C	0.525177	-0.558054	0.000034
C281	C	0.858510	-0.224721	0.333368
C282	C	1.191843	0.108612	0.666701
C283	C	0.658931	0.057699	0.000088
C284	C	0.992264	0.391033	0.333421
C285	C	1.325598	0.724366	0.666754
C286	C	0.712586	0.058252	0.000091
C287	C	1.045919	0.391586	0.333425
C288	C	1.379252	0.724919	0.666758
C289	C	0.566338	0.150292	0.000057
C290	C	0.899671	0.483626	0.333390
C291	C	1.233005	0.816959	0.666723
C292	C	0.566891	0.203947	0.000046
C293	C	0.900224	0.537280	0.333379
C294	C	1.233557	0.870614	0.666713
N295	N	0.570511	0.061882	0.189775
N296	N	0.903844	0.395216	0.523109
N297	N	1.237178	0.728549	0.856442
N298	N	0.570547	0.061891	-0.189625
N299	N	0.903880	0.395224	0.143708
N300	N	1.237214	0.728558	0.477041
C301	C	0.603630	0.028791	0.228096
C302	C	0.936963	0.362124	0.561429
C303	C	1.270296	0.695457	0.894762
C304	C	0.603633	0.028788	0.304741
C305	C	0.936966	0.362122	0.638074
C306	C	1.270300	0.695455	0.971407
C307	C	0.570522	0.061886	0.343062
C308	C	0.903855	0.395220	0.676395
C309	C	1.237189	0.728553	1.009729
C310	C	0.537397	0.094981	0.304732
C311	C	0.870730	0.428314	0.638066
C312	C	1.204064	0.761647	0.971399
C313	C	0.537392	0.094979	0.228089
C314	C	0.870725	0.428312	0.561422
C315	C	1.204058	0.761645	0.894756
N316	N	0.564050	0.104705	0.463385
N317	N	0.897383	0.438038	0.796718
N318	N	1.230716	0.771372	1.130052
N319	N	0.564058	0.104705	0.536193
N320	N	0.897391	0.438038	0.869526
N321	N	1.230724	0.771372	1.202860
C322	C	0.570535	0.061893	0.573985
C323	C	0.903869	0.395226	0.907318
C324	C	1.237202	0.728560	1.240651
N325	N	0.577014	0.019079	0.536217
N326	N	0.910348	0.352413	0.869551
N327	N	1.243681	0.685746	1.202884
N328	N	0.577009	0.019080	0.463403
N329	N	0.910342	0.352413	0.796736
N330	N	1.243675	0.685746	1.130069
C331	C	0.570524	0.061892	0.426169
C332	C	0.903857	0.395225	0.759502
C333	C	1.237191	0.728558	1.092836
C334	C	0.603659	0.028796	0.695412
C335	C	0.936993	0.362129	1.028746
C336	C	1.270326	0.695463	1.362079
C337	C	0.603659	0.028793	0.772059
C338	C	0.936992	0.362127	1.105392
C339	C	1.270326	0.695460	1.438725
C340	C	0.537425	0.094990	0.772049
C341	C	0.870759	0.428323	1.105382
C342	C	1.204092	0.761656	1.438715
C343	C	0.537423	0.094988	0.695404
C344	C	0.870757	0.428322	1.028737
C345	C	1.204090	0.761655	1.362071
C346	C	0.570543	0.061892	0.657090
C347	C	0.903876	0.395225	0.990424
C348	C	1.237210	0.728559	1.323757
H349	H	-0.202311	0.139207	0.000070
H350	H	0.131022	0.472541	0.333403
H351	H	0.464355	0.805874	0.666736
N352	N	0.639384	-0.006896	0.813397
N353	N	0.972717	0.326437	1.146730
N354	N	1.306051	0.659770	1.480063
H355	H	0.660641	0.011438	0.845184
H356	H	0.993975	0.344771	1.178518
H357	H	1.327308	0.678104	1.511851
H358	H	0.621045	-0.028166	0.845167
H359	H	0.954378	0.305168	1.178500
H360	H	1.287711	0.638501	1.511833
H361	H	0.630596	0.001841	0.196903
H362	H	0.963930	0.335174	0.530236
H363	H	1.297263	0.668507	0.863570
N364	N	0.338309	-0.027146	0.000087
N365	N	0.671642	0.306187	0.333421
N366	N	1.004975	0.639521	0.666754
H367	H	0.317668	-0.029324	0.045232
H368	H	0.651001	0.304009	0.378565
H369	H	0.984334	0.637342	0.711899
H370	H	0.317684	-0.029300	-0.045072
H371	H	0.651017	0.304033	0.288261
H372	H	0.984350	0.637366	0.621594
H373	H	0.083302	0.186251	0.000056
H374	H	0.416636	0.519584	0.333390
H375	H	0.749969	0.852917	0.666723
N376	N	0.443095	-0.026077	0.000075
N377	N	0.776428	0.307256	0.333408
N378	N	1.109761	0.640589	0.666741
H379	H	0.477932	-0.019021	0.000073
H380	H	0.811266	0.314313	0.333407
H381	H	1.144599	0.647646	0.666740
H382	H	0.436940	-0.045414	0.045222
H383	H	0.770273	0.287920	0.378555
H384	H	1.103606	0.621253	0.711888
H385	H	0.057760	-0.062462	0.000121
H386	H	0.391093	0.270872	0.333455
H387	H	0.724427	0.604205	0.666788
N388	N	-0.302047	0.149856	0.000122
N389	N	0.031287	0.483190	0.333455
N390	N	0.364620	0.816523	0.666788
H391	H	-0.282287	0.178024	0.000133
H392	H	0.051046	0.511358	0.333466
H393	H	0.384379	0.844691	0.666800
H394	H	-0.323242	0.151585	-0.045003
H395	H	0.010092	0.484918	0.288331
H396	H	0.343425	0.818251	0.621664
H397	H	0.023514	0.185643	0.000061
H398	H	0.356847	0.518977	0.333394
H399	H	0.690181	0.852310	0.666728
H400	H	0.646911	-0.802415	0.000059
H401	H	0.980245	-0.469082	0.333392
H402	H	1.313578	-0.135749	0.666726
N403	N	0.639354	-0.006906	0.346085
N404	N	0.972687	0.326427	0.679418
N405	N	1.306020	0.659761	1.012751
H406	H	0.660332	-0.027873	0.310183
H407	H	0.993666	0.305460	0.643516
H408	H	1.326999	0.638794	0.976850
H409	H	0.660582	0.011458	0.377872
H410	H	0.993916	0.344791	0.711205
H411	H	1.327249	0.678125	1.044538
H412	H	0.447710	-0.299629	0.000020
H413	H	0.781043	0.033704	0.333353
H414	H	1.114377	0.367037	0.666687
N415	N	0.704930	-0.584855	0.000060
N416	N	1.038263	-0.251522	0.333394
N417	N	1.371597	0.081811	0.666727
H418	H	0.733098	-0.565097	0.000067
H419	H	1.066432	-0.231763	0.333400
H420	H	1.399765	0.101570	0.666733
H421	H	0.706631	-0.606046	0.045196
H422	H	1.039965	-0.272713	0.378530
H423	H	1.373298	0.060621	0.711863
H424	H	0.493213	-0.165279	0.000089
H425	H	0.826546	0.168055	0.333423
H426	H	1.159879	0.501388	0.666756
N427	N	0.433530	-0.547384	0.000025
N428	N	0.766863	-0.214050	0.333358
N429	N	1.100196	0.119283	0.666691
H430	H	0.405849	-0.519907	0.000022
H431	H	0.739182	-0.186574	0.333355
H432	H	1.072515	0.146760	0.666688
H433	H	0.431399	-0.568028	-0.045117
H434	H	0.764732	-0.234694	0.288216
H435	H	1.098065	0.098639	0.621550
H436	H	-0.180236	-0.020747	0.000113
H437	H	0.153097	0.312586	0.333446
H438	H	0.486430	0.645920	0.666780
H439	H	0.446177	-0.450879	0.000027
H440	H	0.779510	-0.117545	0.333360
H441	H	1.112844	0.215788	0.666693
N442	N	0.501681	0.130677	0.346059
N443	N	0.835015	0.464010	0.679393
N444	N	1.168348	0.797344	1.012726
H445	H	0.506711	0.125658	0.400428
H446	H	0.840044	0.458991	0.733761
H447	H	1.173377	0.792325	1.067095
H448	H	0.507004	0.164932	0.332647
H449	H	0.840337	0.498265	0.665981
H450	H	1.173671	0.831598	0.999314
H451	H	0.694282	-0.485125	0.000078
H452	H	1.027615	-0.151791	0.333411
H453	H	1.360949	0.181542	0.666745
H454	H	0.494146	-0.073812	0.000083
H455	H	0.827480	0.259522	0.333417
H456	H	1.160813	0.592855	0.666750
N457	N	0.501668	0.130670	0.186752
N458	N	0.835001	0.464004	0.520085
N459	N	1.168335	0.797337	0.853419
H460	H	0.480690	0.151637	0.222655
H461	H	0.814023	0.484970	0.555989
H462	H	1.147357	0.818304	0.889322
H463	H	0.520009	0.151914	0.154940
H464	H	0.853342	0.485248	0.488273
H465	H	1.186676	0.818581	0.821607
N466	N	0.639377	-0.006899	0.654081
N467	N	0.972710	0.326434	0.987415
N468	N	1.306044	0.659767	1.320748
H469	H	0.660356	-0.027867	0.689991
H470	H	0.993690	0.305466	1.023324
H471	H	1.327023	0.638800	1.356657
H472	H	0.621031	-0.028142	0.622291
H473	H	0.954365	0.305191	0.955624
H474	H	1.287698	0.638525	1.288957
N475	N	0.112506	-0.073581	0.000141
N476	N	0.445839	0.259753	0.333474
N477	N	0.779173	0.593086	0.666807
H478	H	0.091861	-0.075759	0.045281
H479	H	0.425194	0.257574	0.378614
H480	H	0.758528	0.590908	0.711948
H481	H	0.091885	-0.075738	-0.045023
H482	H	0.425219	0.257595	0.288310
H483	H	0.758552	0.590928	0.621643
H484	H	0.654093	-0.095896	0.000117
H485	H	0.987426	0.237438	0.333451
H486	H	1.320759	0.570771	0.666784
N487	N	0.659563	-0.705893	0.000069
N488	N	0.992896	-0.372559	0.333402
N489	N	1.326230	-0.039226	0.666735
H490	H	0.661737	-0.685253	0.045207
H491	H	0.995071	-0.351920	0.378540
H492	H	1.328404	-0.018587	0.711874
H493	H	0.687215	-0.733396	0.000048
H494	H	1.020549	-0.400063	0.333381
H495	H	1.353882	-0.066730	0.666715
H496	H	-0.067947	0.184708	0.000068
H497	H	0.265386	0.518041	0.333401
H498	H	0.598720	0.851375	0.666735
N499	N	0.435062	-0.396141	0.000007
N500	N	0.768396	-0.062808	0.333340
N501	N	1.101729	0.270526	0.666674
H502	H	0.432873	-0.416793	0.045141
H503	H	0.766206	-0.083460	0.378474
H504	H	1.099539	0.249874	0.711808
H505	H	0.407409	-0.368639	-0.000030
H506	H	0.740742	-0.035306	0.333303
H507	H	1.074075	0.298028	0.666637
N508	N	-0.038745	-0.075109	0.000129
N509	N	0.294588	0.258224	0.333463
N510	N	0.627922	0.591558	0.666796
H511	H	-0.011268	-0.102790	0.000136
H512	H	0.322065	0.230544	0.333470
H513	H	0.655398	0.563877	0.666803
H514	H	-0.059395	-0.077242	0.045273
H515	H	0.273938	0.256091	0.378606
H516	H	0.607272	0.589424	0.711940
N517	N	0.501708	0.130686	0.813370
N518	N	0.835042	0.464019	1.146703
N519	N	1.168375	0.797352	1.480036
H520	H	0.506735	0.125665	0.867739
H521	H	0.840069	0.458998	1.201072
H522	H	1.173402	0.792332	1.534405
H523	H	0.507032	0.164940	0.799961
H524	H	0.840365	0.498274	1.133294
H525	H	1.173698	0.831607	1.466627
N526	N	0.501702	0.130680	0.654067
N527	N	0.835035	0.464014	0.987400
N528	N	1.168369	0.797347	1.320733
H529	H	0.480726	0.151648	0.689971
H530	H	0.814059	0.484981	1.023304
H531	H	1.147392	0.818314	1.356637
H532	H	0.520042	0.151924	0.622252
H533	H	0.853375	0.485257	0.955585
H534	H	1.186709	0.818590	1.288919
H535	H	0.695819	-0.333889	0.000095
H536	H	1.029152	-0.000555	0.333428
H537	H	1.362485	0.332778	0.666762
N538	N	0.179806	0.198897	0.000035
N539	N	0.513140	0.532231	0.333368
N540	N	0.846473	0.865564	0.666702
H541	H	0.152328	0.226577	0.000030
H542	H	0.485662	0.559910	0.333363
H543	H	0.818995	0.893243	0.666697
H544	H	0.200458	0.201034	0.045171
H545	H	0.533791	0.534367	0.378505
H546	H	0.867124	0.867701	0.711838
H547	H	0.412743	0.145454	0.000031
H548	H	0.746076	0.478787	0.333364
H549	H	1.079410	0.812121	0.666697
N550	N	0.706471	-0.433609	0.000088
N551	N	1.039805	-0.100275	0.333421
N552	N	1.373138	0.233058	0.666755
H553	H	0.734630	-0.413838	0.000097
H554	H	1.067963	-0.080504	0.333430
H555	H	1.401297	0.252829	0.666763
H556	H	0.708175	-0.454794	0.045229
H557	H	1.041508	-0.121461	0.378563
H558	H	1.374842	0.211873	0.711896
N559	N	0.313018	0.156111	0.000066
N560	N	0.646351	0.489445	0.333399
N561	N	0.979685	0.822778	0.666732
H562	H	0.332788	0.184271	0.000060
H563	H	0.666121	0.517604	0.333393
H564	H	0.999454	0.850938	0.666726
H565	H	0.291830	0.157830	-0.045067
H566	H	0.625164	0.491163	0.288267
H567	H	0.958497	0.824496	0.621600
N568	N	0.217283	-0.072510	0.000138
N569	N	0.550617	0.260824	0.333471
N570	N	0.883950	0.594157	0.666805
H571	H	0.197517	-0.100672	0.000149
H572	H	0.530850	0.232661	0.333482
H573	H	0.864183	0.565995	0.666815
H574	H	0.238467	-0.074220	-0.045001
H575	H	0.571800	0.259113	0.288332
H576	H	0.905133	0.592447	0.621666
H577	H	0.486964	-0.780325	0.000041
H578	H	0.820297	-0.446992	0.333374
H579	H	1.153631	-0.113659	0.666707
H580	H	-0.271687	-0.021674	0.000101
H581	H	0.061646	0.311659	0.333434
H582	H	0.394980	0.644992	0.666768
H583	H	0.487892	-0.688875	0.000029
H584	H	0.821225	-0.355542	0.333363
H585	H	1.154558	-0.022208	0.666696
N586	N	0.664750	-0.195621	0.000096
N587	N	0.998083	0.137713	0.333430
N588	N	1.331416	0.471046	0.666763
H589	H	0.692910	-0.175851	0.000107
H590	H	1.026243	0.157482	0.333441
H591	H	1.359576	0.490816	0.666774
H592	H	0.666454	-0.216810	0.045234
H593	H	0.999787	0.116524	0.378567
H594	H	1.333121	0.449857	0.711901
