data_functionalizedCrystal
_audit_creation_method	'MofGen! by Chris Wilmer'
_symmetry_space_group_name_H-M	'P1'
_symmetry_Int_Tables_number	1
_symmetry_cell_setting	triclinic
loop_
_symmetry_equiv_pos_as_xyz
  x,y,z
_cell_length_a	12.759401
_cell_length_b	15.297327
_cell_length_c	15.299448
_cell_angle_alpha	91.595009
_cell_angle_beta	80.303306
_cell_angle_gamma	99.708126
loop_
_atom_site_label
_atom_site_type_symbol
_atom_site_fract_x
_atom_site_fract_y
_atom_site_fract_z
Zn1	Zn	1.665206	-0.262970	-0.555564
Zn2	Zn	1.606003	-0.434813	-0.434421
Zn3	Zn	1.454859	-0.288354	-0.409108
Zn4	Zn	1.465046	-0.409417	-0.580851
O5	O	1.547779	-0.348889	-0.494986
O6	O	1.804375	-0.285769	-0.539505
O7	O	1.556913	-0.436636	-0.308490
O8	O	1.503275	-0.162405	-0.407360
O9	O	1.760879	-0.412022	-0.450502
O10	O	1.657816	-0.143754	-0.514960
O11	O	1.445868	-0.329034	-0.289892
O12	O	1.309188	-0.304409	-0.431880
O13	O	1.520638	-0.368739	-0.700070
O14	O	1.316673	-0.393354	-0.558058
O15	O	1.667695	-0.261145	-0.681492
O16	O	1.566792	-0.554026	-0.475022
O17	O	1.463231	-0.535369	-0.582603
C18	C	1.274809	-0.348881	-0.494967
C19	C	1.158033	-0.348895	-0.494983
C20	C	1.107060	-0.395309	-0.560611
C21	C	0.997340	-0.395309	-0.560629
C22	C	0.989572	-0.302481	-0.429383
C23	C	1.099292	-0.302476	-0.429370
C24	C	0.866621	-0.408875	-0.669335
C25	C	0.815641	-0.455304	-0.734957
C26	C	0.840116	-0.538488	-0.763036
C27	C	0.915562	-0.575264	-0.725483
C28	C	0.966534	-0.528841	-0.659855
C29	C	0.942068	-0.445641	-0.631790
C30	C	1.230011	-0.288920	-0.320664
C31	C	1.280983	-0.242501	-0.255031
C32	C	1.256509	-0.159316	-0.226943
C33	C	1.181055	-0.122547	-0.264482
C34	C	1.130083	-0.168965	-0.330114
C35	C	1.154565	-0.252149	-0.358204
C36	C	1.509726	-0.576478	-0.534322
C37	C	1.493550	-0.673837	-0.551180
C38	C	1.663895	-0.986981	-0.374802
C39	C	1.679091	-0.895508	-0.358959
C40	C	1.632708	-0.840086	-0.407013
C41	C	1.571124	-0.876145	-0.470912
C42	C	1.555919	-0.967628	-0.486752
C43	C	1.524732	-0.820733	-0.518963
C44	C	1.463148	-0.856793	-0.582862
C45	C	1.447947	-0.948266	-0.598699
C46	C	1.494330	-1.003688	-0.550645
C47	C	1.539937	-0.729251	-0.503123
C48	C	1.431961	-0.709898	-0.615073
C49	C	1.416765	-0.801370	-0.630916
C50	C	1.821814	-0.348897	-0.495006
C51	C	1.938592	-0.348900	-0.495014
C52	C	1.601907	-0.309277	-0.723452
C53	C	1.624973	-0.292398	-0.820810
C54	C	1.586013	-0.120407	-0.455515
C55	C	1.602306	-0.023041	-0.438695
C56	C	1.712375	-0.228446	-0.856873
C57	C	1.734040	-0.212575	-0.948344
C58	C	1.668310	-0.260659	-1.003762
C59	C	1.580910	-0.324616	-0.967700
C60	C	1.559238	-0.340484	-0.876219
C61	C	1.515173	-0.372697	-1.023108
C62	C	1.427774	-0.436654	-0.987046
C63	C	1.406106	-0.452519	-0.895574
C64	C	1.471836	-0.404435	-0.840156
C65	C	1.536845	-0.356829	-1.114589
C66	C	1.383708	-0.468867	-1.133935
C67	C	1.362043	-0.484737	-1.042463
C68	C	1.493932	-0.388282	-0.267398
C69	C	1.471111	-0.404915	-0.169998
H70	H	0.798601	-0.576291	-0.816468
N71	N	1.477940	-1.102352	-0.567728
H72	H	1.398385	-1.127248	-0.555400
H73	H	1.507837	-1.113856	-0.631640
H74	H	1.397786	-0.977624	-0.650720
H75	H	1.608005	-0.304753	-1.143941
H76	H	1.590079	-0.699899	-0.451096
N77	N	1.350342	-0.840267	-0.699833
H78	H	1.347752	-0.906626	-0.702572
H79	H	1.274724	-0.826711	-0.683388
N80	N	1.170419	-0.445372	-0.631376
H81	H	1.121475	-0.474774	-0.672954
H82	H	1.231522	-0.402740	-0.665813
N83	N	1.828306	-0.143598	-0.987223
H84	H	1.880033	-0.172609	-1.031335
H85	H	1.801309	-0.096434	-1.018103
N86	N	1.381920	-0.650134	-0.666904
H87	H	1.400899	-0.586711	-0.647176
H88	H	1.410381	-0.655239	-0.732236
N89	N	1.691664	-0.243536	-1.102419
H90	H	1.757002	-0.195723	-1.116855
H91	H	1.706089	-0.299844	-1.134784
N92	N	1.267766	-0.553703	-1.003558
H93	H	1.229408	-0.581757	-1.052539
H94	H	1.294753	-0.600827	-0.972612
H95	H	1.765879	-0.189299	-0.811744
H96	H	1.161112	-0.054818	-0.241598
N97	N	0.926207	-0.252443	-0.358598
H98	H	0.848961	-0.259499	-0.368556
H99	H	0.928296	-0.276848	-0.298368
H100	H	1.645083	-0.765605	-0.394109
N101	N	1.448470	-0.421557	-0.741495
H102	H	1.512634	-0.441485	-0.722261
H103	H	1.433975	-0.365263	-0.709137
N104	N	1.048697	-0.129311	-0.370605
H105	H	1.040923	-0.069569	-0.342853
H106	H	1.073996	-0.121893	-0.436574
N107	N	1.311809	-0.521468	-0.856669
H108	H	1.273450	-0.549515	-0.905652
H109	H	1.338769	-0.568601	-0.825714
H110	H	1.330179	-0.508015	-1.179055
N111	N	1.047899	-0.568495	-0.619345
H112	H	1.055666	-0.628243	-0.647086
H113	H	1.119851	-0.527788	-0.630448
H114	H	1.249953	-0.356653	-0.343538
H115	H	1.729231	-0.866152	-0.306932
H116	H	1.298012	-0.121528	-0.173493
H117	H	0.935473	-0.643006	-0.748344
N118	N	0.734271	-0.415637	-0.775457
H119	H	0.769929	-0.357282	-0.804647
H120	H	0.705710	-0.457733	-0.821246
N121	N	0.840224	-0.319150	-0.639050
H122	H	0.858126	-0.276947	-0.691073
H123	H	0.760888	-0.325155	-0.613990
N124	N	1.362364	-0.282158	-0.214537
H125	H	1.370144	-0.341897	-0.242294
H126	H	1.434309	-0.241441	-0.225634
H127	H	1.701646	-1.032114	-0.335678
