data_functionalizedCrystal
_audit_creation_method	'MofGen! by Chris Wilmer'
_symmetry_space_group_name_H-M	'P1'
_symmetry_Int_Tables_number	1
_symmetry_cell_setting	triclinic
loop_
_symmetry_equiv_pos_as_xyz
  x,y,z
_cell_length_a	13.033293
_cell_length_b	13.031981
_cell_length_c	10.685880
_cell_angle_alpha	87.686082
_cell_angle_beta	77.914556
_cell_angle_gamma	103.320033
loop_
_atom_site_label
_atom_site_type_symbol
_atom_site_fract_x
_atom_site_fract_y
_atom_site_fract_z
Zn1	Zn	1.622220	-0.268674	-0.921430
Zn2	Zn	1.585921	-0.432750	-0.679670
Zn3	Zn	1.430948	-0.277656	-0.679686
Zn4	Zn	1.418553	-0.465350	-0.859895
O5	O	1.514410	-0.361107	-0.785170
O6	O	1.767497	-0.273036	-0.915106
O7	O	1.555360	-0.402292	-0.503076
O8	O	1.476700	-0.129248	-0.737513
O9	O	1.740828	-0.393582	-0.737486
O10	O	1.617226	-0.122649	-0.915121
O11	O	1.441502	-0.288346	-0.503088
O12	O	1.279212	-0.319957	-0.677845
O13	O	1.455573	-0.449144	-1.044654
O14	O	1.270105	-0.457854	-0.810244
O15	O	1.605207	-0.304647	-1.089863
O16	O	1.543340	-0.584291	-0.677818
O17	O	1.420376	-0.608242	-0.810229
C18	C	1.235741	-0.393419	-0.737370
C19	C	1.116523	-0.407269	-0.716946
C20	C	1.076560	-0.353905	-0.795825
C21	C	0.953343	-0.368219	-0.774718
C22	C	1.476605	-0.634436	-0.737377
C23	C	1.460532	-0.751359	-0.716990
C24	C	1.522857	-0.800147	-0.795846
C25	C	1.506247	-0.920992	-0.774776
C26	C	1.794168	-0.328671	-0.833158
C27	C	1.913384	-0.314848	-0.853608
C28	C	1.533057	-0.379530	-1.114328
C29	C	1.541002	-0.387381	-1.254595
C30	C	1.552395	-0.086709	-0.833183
C31	C	1.568581	0.030223	-0.853643
C32	C	1.495909	-0.342673	-0.457317
C33	C	1.488212	-0.334502	-0.317138
H34	H	0.896338	-0.424503	-0.691553
H35	H	1.440581	-0.968685	-0.691666
H36	H	1.592285	-0.438665	-1.308365
H37	H	1.394870	-0.799055	-0.633885
H38	H	1.059516	-0.463549	-0.633787
H39	H	1.588511	-0.752454	-0.878960
H40	H	1.133568	-0.297619	-0.878978
H41	H	1.634239	-0.922087	-0.936763
Cl42	Cl	1.001386	-0.227935	-0.981999
Cl43	Cl	1.409030	-0.255334	-1.234132
