data_functionalizedCrystal
_audit_creation_method	'MofGen! by Chris Wilmer'
_symmetry_space_group_name_H-M	'P1'
_symmetry_Int_Tables_number	1
_symmetry_cell_setting	triclinic
loop_
_symmetry_equiv_pos_as_xyz
  x,y,z
_cell_length_a	17.038272
_cell_length_b	15.944551
_cell_length_c	15.021413
_cell_angle_alpha	89.996935
_cell_angle_beta	90.002222
_cell_angle_gamma	87.305147
loop_
_atom_site_label
_atom_site_type_symbol
_atom_site_fract_x
_atom_site_fract_y
_atom_site_fract_z
O1	O	1.037425	0.182391	0.073924
O2	O	1.537425	0.682391	0.573924
O3	O	0.809794	0.179495	0.073950
O4	O	1.309794	0.679495	0.573950
O5	O	0.929826	0.059112	0.073929
O6	O	1.429826	0.559112	0.573929
O7	O	0.917393	0.302774	0.073946
O8	O	1.417393	0.802774	0.573946
O9	O	0.929806	0.059129	-0.074136
O10	O	1.429806	0.559129	0.425864
O11	O	0.809775	0.179512	-0.074114
O12	O	1.309775	0.679512	0.425886
O13	O	1.037406	0.182408	-0.074140
O14	O	1.537406	0.682408	0.425860
Zn15	Zn	0.923587	0.180963	-0.097635
Zn16	Zn	1.423587	0.680963	0.402365
Zn17	Zn	0.923612	0.180940	0.097446
Zn18	Zn	1.423612	0.680940	0.597446
O19	O	0.917374	0.302791	-0.074118
O20	O	1.417374	0.802791	0.425882
C21	C	0.780655	0.176869	-0.000079
C22	C	1.280655	0.676869	0.499921
C23	C	0.693860	0.169010	-0.000069
C24	C	1.193860	0.669010	0.499931
C25	C	0.929300	0.027790	-0.000104
C26	C	1.429300	0.527790	0.499896
C27	C	0.927753	-0.065567	-0.000104
C28	C	1.427753	0.434433	0.499896
C29	C	0.849653	-0.286000	-0.000083
C30	C	1.349653	0.214000	0.499917
C31	C	0.885910	-0.344419	-0.073092
C32	C	1.385910	0.155581	0.426908
C33	C	0.924953	-0.236492	-0.000097
C34	C	1.424953	0.263508	0.499903
C35	C	0.885947	-0.344418	0.072888
C36	C	1.385947	0.155582	0.572888
C37	C	0.922244	-0.401598	-0.000086
C38	C	1.422244	0.098402	0.499914
C39	C	0.961232	-0.293682	-0.073166
C40	C	1.461232	0.206318	0.426834
C41	C	0.961258	-0.293676	0.072879
C42	C	1.461258	0.206324	0.572879
C43	C	0.997570	-0.352073	-0.000147
C44	C	1.497570	0.147927	0.499853
C45	C	0.926512	-0.141379	-0.000104
C46	C	1.426512	0.358621	0.499896
C47	C	0.920691	-0.496710	-0.000085
C48	C	1.420691	0.003290	0.499915
C49	C	0.643767	0.241168	-0.000064
C50	C	1.143767	0.741168	0.499936
C51	C	0.562214	0.233778	-0.000077
C52	C	1.062214	0.733778	0.499923
C53	C	0.530756	0.154230	-0.000088
C54	C	1.030756	0.654230	0.499912
C55	C	0.580855	0.082067	-0.000095
C56	C	1.080855	0.582067	0.499905
C57	C	0.662406	0.089457	-0.000089
C58	C	1.162406	0.589457	0.499911
C59	C	0.284990	0.128121	-0.000114
C60	C	0.784990	0.628121	0.499886
C61	C	0.203433	0.120736	-0.000118
C62	C	0.703433	0.620736	0.499882
C63	C	0.184797	0.272448	-0.000101
C64	C	0.684797	0.772448	0.499899
C65	C	0.266351	0.279831	-0.000089
C66	C	0.766351	0.779831	0.499911
C67	C	0.316443	0.207668	-0.000101
C68	C	0.816443	0.707668	0.499899
C69	C	0.447396	0.146675	-0.000098
C70	C	0.947396	0.646675	0.499902
C71	C	0.399801	0.215224	-0.000097
C72	C	0.899801	0.715224	0.499903
C73	C	1.066545	0.185034	-0.000109
C74	C	1.566545	0.685034	0.499891
C75	C	1.153340	0.192893	-0.000113
C76	C	1.653340	0.692893	0.499887
C77	C	0.917900	0.334114	-0.000084
C78	C	1.417900	0.834114	0.499916
C79	C	0.919447	0.427470	-0.000078
C80	C	1.419447	0.927470	0.499922
N81	N	0.923576	0.180978	-0.230773
N82	N	1.423576	0.680978	0.269227
C83	C	0.868065	0.236615	-0.470446
C84	C	1.368065	0.736615	0.029554
C85	C	0.938714	0.257966	-0.529787
C86	C	1.438714	0.757966	-0.029787
C87	C	0.923596	0.180959	-0.412380
C88	C	1.423596	0.680959	0.087620
C89	C	0.852965	0.159627	-0.529780
C90	C	1.352965	0.659627	-0.029780
C91	C	0.923609	0.180941	-0.587804
C92	C	1.423609	0.680941	-0.087804
C93	C	0.994281	0.202350	-0.470415
C94	C	1.494281	0.702350	0.029585
C95	C	0.908486	0.103976	-0.470402
C96	C	1.408486	0.603976	0.029598
C97	C	0.979186	0.125298	-0.529717
C98	C	1.479186	0.625298	-0.029717
C99	C	0.923587	0.180971	-0.311323
C100	C	1.423587	0.680971	0.188677
C101	C	0.923626	0.180929	-0.688859
C102	C	1.423626	0.680929	-0.188859
N103	N	0.923630	0.180919	0.230583
N104	N	1.423630	0.680919	0.730583
H105	H	0.787150	-0.257155	-0.000148
H106	H	1.287150	0.242845	0.499852
H107	H	0.703192	0.030699	-0.000092
H108	H	1.203192	0.530699	0.499908
N109	N	0.130760	0.350268	-0.000111
N110	N	0.630760	0.850268	0.499889
H111	H	0.140883	0.384716	-0.054999
H112	H	0.640883	0.884716	0.445001
H113	H	0.140893	0.384655	0.054813
H114	H	0.640893	0.884655	0.554813
N115	N	0.843758	-0.374057	0.154642
N116	N	1.343758	0.125943	0.654642
H117	H	0.787893	-0.349881	0.154579
H118	H	1.287893	0.150119	0.654579
H119	H	0.871700	-0.354756	0.209735
H120	H	1.371700	0.145244	0.709735
H121	H	0.421774	0.081906	-0.000132
H122	H	0.921774	0.581906	0.499868
N123	N	0.508185	0.311604	-0.000173
N124	N	1.008185	0.811604	0.499827
H125	H	0.540488	0.363119	-0.000192
H126	H	1.040488	0.863119	0.499808
H127	H	0.473897	0.311895	0.054680
H128	H	0.973897	0.811895	0.554680
N129	N	0.339018	0.050296	-0.000110
N130	N	0.839018	0.550296	0.499890
H131	H	0.373269	0.049985	-0.054996
H132	H	0.873269	0.549985	0.445004
H133	H	0.306663	-0.001177	-0.000078
H134	H	0.806663	0.498823	0.499922
H135	H	0.177823	0.055955	-0.000125
H136	H	0.677823	0.555955	0.499875
N137	N	0.433735	0.301016	-0.000079
N138	N	0.933735	0.801016	0.499921
H139	H	0.415471	0.332882	0.054814
H140	H	0.915471	0.832882	0.554814
H141	H	0.415465	0.332841	-0.054998
H142	H	0.915465	0.832841	0.445002
N143	N	0.843723	-0.374052	-0.154850
N144	N	1.343723	0.125948	0.345150
H145	H	0.787857	-0.349877	-0.154793
H146	H	1.287857	0.150123	0.345207
H147	H	0.843496	-0.437381	-0.154499
H148	H	1.343496	0.062619	0.345501
H149	H	0.993046	-0.271412	-0.134957
H150	H	1.493046	0.228588	0.365043
H151	H	0.821151	0.283725	-0.444422
H152	H	1.321151	0.783725	0.055578
H153	H	1.026204	0.078225	-0.555578
H154	H	1.526204	0.578225	-0.055578
H155	H	1.060128	-0.380766	-0.000196
H156	H	1.560128	0.119234	0.499804
N157	N	0.546920	-0.003728	-0.000106
N158	N	1.046920	0.496272	0.499894
H159	H	0.565186	-0.035613	0.054779
H160	H	1.065186	0.464387	0.554779
H161	H	0.565192	-0.035530	-0.055033
H162	H	1.065192	0.464470	0.444967
H163	H	0.895672	0.038899	-0.444297
H164	H	1.395672	0.538899	0.055703
N165	N	0.300266	0.365636	-0.000084
N166	N	0.800266	0.865636	0.499916
H167	H	0.333687	0.372095	-0.054967
H168	H	0.833687	0.872095	0.445033
H169	H	0.333644	0.372028	0.054844
H170	H	0.833644	0.872028	0.554844
H171	H	0.669373	0.305944	-0.000055
H172	H	1.169373	0.805944	0.499945
N173	N	0.955666	0.344188	-0.564341
N174	N	1.455666	0.844188	-0.064341
H175	H	0.913686	0.386198	-0.542787
H176	H	1.413686	0.886198	-0.042787
H177	H	0.956070	0.343334	-0.631569
H178	H	1.456070	0.843334	-0.131569
N179	N	1.003427	-0.264009	0.154628
N180	N	1.503427	0.235991	0.654628
H181	H	0.974939	-0.282352	0.209751
H182	H	1.474939	0.217648	0.709751
H183	H	1.004594	-0.200745	0.153626
H184	H	1.504594	0.299255	0.653626
N185	N	1.073429	0.226337	-0.436029
N186	N	1.573429	0.726337	0.063971
H187	H	1.072929	0.226219	-0.368795
H188	H	1.572929	0.726219	0.131205
H189	H	1.084930	0.284278	-0.458220
H190	H	1.584930	0.784278	0.041780
N191	N	0.773843	0.135723	-0.564321
N192	N	1.273843	0.635723	-0.064321
H193	H	0.774587	0.135360	-0.631552
H194	H	1.274587	0.635360	-0.131552
H195	H	0.731977	0.177827	-0.542699
H196	H	1.231977	0.677827	-0.042699
