data_functionalizedCrystal
_audit_creation_method	'MofGen! by Chris Wilmer'
_symmetry_space_group_name_H-M	'P1'
_symmetry_Int_Tables_number	1
_symmetry_cell_setting	triclinic
loop_
_symmetry_equiv_pos_as_xyz
  x,y,z
_cell_length_a	10.685904
_cell_length_b	19.121459
_cell_length_c	10.685880
_cell_angle_alpha	91.715143
_cell_angle_beta	80.918635
_cell_angle_gamma	91.768131
loop_
_atom_site_label
_atom_site_type_symbol
_atom_site_fract_x
_atom_site_fract_y
_atom_site_fract_z
Zn1	Zn	2.012049	-0.230016	-0.850299
Zn2	Zn	2.512049	0.269984	-0.350299
Zn3	Zn	2.003322	-0.338473	-0.630319
Zn4	Zn	2.503322	0.161527	-0.130319
Zn5	Zn	1.783490	-0.230054	-0.621768
Zn6	Zn	2.283490	0.269946	-0.121768
Zn7	Zn	1.808606	-0.355030	-0.825042
Zn8	Zn	2.308606	0.144970	-0.325042
O9	O	1.901867	-0.288393	-0.731857
O10	O	2.401867	0.211607	-0.231857
O11	O	2.188034	-0.237458	-0.835267
O12	O	2.688034	0.262542	-0.335267
O13	O	1.959998	-0.317177	-0.452051
O14	O	2.459998	0.182823	0.047949
O15	O	1.806950	-0.132356	-0.659075
O16	O	2.306950	0.367644	-0.159075
O17	O	2.181622	-0.317141	-0.673648
O18	O	2.681622	0.182859	-0.173648
O19	O	1.974872	-0.132329	-0.826976
O20	O	2.474872	0.367671	-0.326976
O21	O	1.798488	-0.237522	-0.445769
O22	O	2.298488	0.262478	0.054231
O23	O	1.609680	-0.253577	-0.634584
O24	O	2.109680	0.246423	-0.134584
O25	O	1.849757	-0.345360	-1.005526
O26	O	2.349757	0.154640	-0.505526
O27	O	1.628132	-0.345396	-0.783929
O28	O	2.128132	0.154604	-0.283929
O29	O	1.999225	-0.253513	-1.024082
O30	O	2.499225	0.246487	-0.524082
O31	O	1.984351	-0.438362	-0.649158
O32	O	2.484351	0.061638	-0.149158
O33	O	1.841294	-0.450526	-0.792220
O34	O	2.341294	0.049474	-0.292220
C35	C	1.572975	-0.301288	-0.705589
C36	C	2.072975	0.198712	-0.205589
C37	C	1.432277	-0.306822	-0.694380
C38	C	1.932277	0.193178	-0.194380
C39	C	1.914638	-0.469774	-0.718906
C40	C	2.414638	0.030226	-0.218906
C41	C	1.920220	-0.547367	-0.713418
C42	C	2.420220	-0.047367	-0.213418
C43	C	1.955557	-0.985895	-0.678611
C44	C	2.455557	-0.485895	-0.178611
C45	C	1.950301	-0.912989	-0.683770
C46	C	2.450301	-0.412989	-0.183770
C47	C	1.873129	-0.882897	-0.760768
C48	C	2.373129	-0.382897	-0.260768
C49	C	1.801198	-0.925715	-0.832602
C50	C	2.301198	-0.425715	-0.332602
C51	C	1.806449	-0.998620	-0.827435
C52	C	2.306449	-0.498620	-0.327435
C53	C	1.853540	-0.663090	-0.780085
C54	C	2.353540	-0.163090	-0.280085
C55	C	1.848298	-0.590180	-0.785249
C56	C	2.348298	-0.090180	-0.285249
C57	C	1.997400	-0.577458	-0.636414
C58	C	2.497400	-0.077458	-0.136414
C59	C	2.002649	-0.650365	-0.631260
C60	C	2.502649	-0.150365	-0.131260
C61	C	1.930714	-0.693177	-0.703089
C62	C	2.430714	-0.193177	-0.203089
C63	C	1.867757	-0.808375	-0.766046
C64	C	2.367757	-0.308375	-0.266046
C65	C	1.936079	-0.767697	-0.697803
C66	C	2.436079	-0.267697	-0.197803
C67	C	2.232043	-0.275449	-0.758229
C68	C	2.732043	0.224551	-0.258229
C69	C	2.372744	-0.269932	-0.769467
C70	C	2.872744	0.230068	-0.269467
C71	C	1.928266	-0.301279	-1.062017
C72	C	2.428266	0.198721	-0.562017
C73	C	1.939516	-0.306771	-1.202712
C74	C	2.439516	0.193229	-0.702712
C75	C	1.889083	-0.106304	-0.744889
C76	C	2.389083	0.393696	-0.244889
C77	C	1.883635	-0.028708	-0.750442
C78	C	2.383635	0.471292	-0.250442
C79	C	1.875640	-0.275504	-0.402991
C80	C	2.375640	0.224496	0.097009
C81	C	1.864621	-0.269806	-0.262331
C82	C	2.364621	0.230194	0.237669
H83	H	2.018407	-1.010390	-0.615918
H84	H	2.518407	-0.510390	-0.115918
H85	H	2.055965	-0.542595	-0.577933
H86	H	2.555965	-0.042595	-0.077933
N87	N	1.357221	-0.354269	-0.597874
N88	N	1.857221	0.145731	-0.097874
H89	H	1.416934	-0.378101	-0.549359
H90	H	1.916934	0.121899	-0.049359
H91	H	1.295668	-0.325651	-0.537091
H92	H	1.795668	0.174349	-0.037091
H93	H	1.804924	-0.783869	-0.828742
H94	H	2.304924	-0.283869	-0.328742
H95	H	1.747889	-1.033478	-0.885935
H96	H	2.247889	-0.533478	-0.385935
H97	H	2.012252	-0.342622	-1.259312
H98	H	2.512252	0.157378	-0.759312
N99	N	2.085884	-0.682820	-0.548211
N100	N	2.585884	-0.182820	-0.048211
H101	H	2.130648	-0.644635	-0.503485
H102	H	2.630648	-0.144635	-0.003485
H103	H	2.031891	-0.712837	-0.483337
H104	H	2.531891	-0.212837	0.016663
H105	H	1.429420	-0.234112	-0.842324
H106	H	1.929420	0.265888	-0.342324
N107	N	2.027889	-0.866811	-0.606311
N108	N	2.527889	-0.366811	-0.106311
H109	H	2.077586	-0.896937	-0.556762
H110	H	2.577586	-0.396937	-0.056762
H111	H	2.088365	-0.836245	-0.664721
H112	H	2.588365	-0.336245	-0.164721
N113	N	1.765066	-0.557721	-0.868308
N114	N	2.265066	-0.057721	-0.368308
H115	H	1.720291	-0.595904	-0.913028
H116	H	2.220291	-0.095904	-0.413028
H117	H	1.700232	-0.527790	-0.814204
H118	H	2.200232	-0.027790	-0.314204
H119	H	1.794955	-0.697939	-0.838563
H120	H	2.294955	-0.197939	-0.338563
H121	H	1.738356	-0.901210	-0.895291
H122	H	2.238356	-0.401210	-0.395291
N123	N	2.019310	-0.800158	-0.614764
N124	N	2.519310	-0.300158	-0.114764
H125	H	2.110404	-0.784648	-0.642620
H126	H	2.610404	-0.284648	-0.142620
H127	H	1.991478	-0.784729	-0.523663
H128	H	2.491478	-0.284729	-0.023663
H129	H	1.791884	-0.233960	-1.205736
H130	H	2.291884	0.266040	-0.705736
