data_functionalizedCrystal
_audit_creation_method	'MofGen! by Chris Wilmer'
_symmetry_space_group_name_H-M	'P1'
_symmetry_Int_Tables_number	1
_symmetry_cell_setting	triclinic
loop_
_symmetry_equiv_pos_as_xyz
  x,y,z
_cell_length_a	8.597366
_cell_length_b	14.519709
_cell_length_c	12.996460
_cell_angle_alpha	89.998766
_cell_angle_beta	97.695693
_cell_angle_gamma	84.511450
loop_
_atom_site_label
_atom_site_type_symbol
_atom_site_fract_x
_atom_site_fract_y
_atom_site_fract_z
O1	O	2.082775	0.137647	0.099081
O2	O	1.625883	0.148207	0.058572
O3	O	1.866443	0.008786	0.079910
O4	O	1.842215	0.277068	0.077743
O5	O	1.866412	0.008794	0.251041
O6	O	1.625852	0.148215	0.229704
O7	O	2.082744	0.137655	0.270212
Cu8	Cu	1.854295	0.142936	0.265583
Cu9	Cu	1.854332	0.142926	0.063201
O10	O	1.842184	0.277076	0.248874
C11	C	1.567394	0.147077	0.138954
C12	C	1.393162	0.143686	0.123507
C13	C	1.865298	-0.025579	0.165376
C14	C	1.861915	-0.127987	0.165076
C15	C	1.849458	-0.502983	0.163945
C16	C	1.852917	-0.398648	0.164259
C17	C	1.855686	-0.315489	0.164512
C18	C	1.859146	-0.211146	0.164824
C19	C	2.141233	0.138785	0.189828
C20	C	2.315465	0.142176	0.205269
C21	C	1.843329	0.311441	0.163407
C22	C	1.846712	0.413849	0.163699
N23	N	1.854281	0.142942	0.407929
N24	N	1.854358	0.142913	-0.079144
C25	C	1.854288	0.142944	0.501036
C26	C	1.854302	0.142938	0.617842
C27	C	1.854322	0.142928	0.710942
C28	C	1.854339	0.142923	0.827756
H29	H	1.326392	0.142378	0.041683
H30	H	1.382244	0.143477	0.287098
