data_functionalizedCrystal
_audit_creation_method	'MofGen! by Chris Wilmer'
_symmetry_space_group_name_H-M	'P1'
_symmetry_Int_Tables_number	1
_symmetry_cell_setting	triclinic
loop_
_symmetry_equiv_pos_as_xyz
  x,y,z
_cell_length_a	16.109302
_cell_length_b	10.654541
_cell_length_c	14.586319
_cell_angle_alpha	89.996435
_cell_angle_beta	89.994552
_cell_angle_gamma	83.972855
loop_
_atom_site_label
_atom_site_type_symbol
_atom_site_fract_x
_atom_site_fract_y
_atom_site_fract_z
O1	O	1.104089	0.161424	-0.076281
O2	O	0.862147	0.181511	-0.076274
O3	O	0.988682	-0.011348	-0.076272
O4	O	0.977554	0.354282	-0.076283
O5	O	0.988673	-0.011351	0.076209
O6	O	0.862138	0.181508	0.076207
O7	O	1.104080	0.161421	0.076200
Cu8	Cu	0.983108	0.171464	0.090126
Cu9	Cu	0.983119	0.171468	-0.090200
O10	O	0.977545	0.354279	0.076198
C11	C	0.831163	0.180696	-0.000033
C12	C	0.738853	0.178256	-0.000030
C13	C	0.526473	0.172612	0.083079
C14	C	0.439740	0.170306	0.083076
C15	C	0.439760	0.170316	-0.083167
C16	C	0.526493	0.172613	-0.083163
C17	C	0.569847	0.173767	-0.000038
C18	C	0.396380	0.169164	-0.000045
C19	C	0.302340	0.166664	-0.000049
C20	C	0.663894	0.176266	-0.000033
C21	C	0.987861	-0.058136	-0.000032
C22	C	0.985417	-0.197546	-0.000034
C23	C	1.136724	-0.227569	-0.000027
C24	C	1.211227	-0.308074	-0.000021
C25	C	1.208926	-0.439061	-0.000024
C26	C	1.132115	-0.489544	-0.000035
C27	C	1.057613	-0.409040	-0.000040
C28	C	1.059922	-0.278052	-0.000035
C29	C	0.906307	-0.379017	-0.000054
C30	C	0.908606	-0.248030	-0.000045
C31	C	0.829496	-0.429501	-0.000065
C32	C	0.754992	-0.348995	-0.000064
C33	C	0.757296	-0.218001	-0.000060
C34	C	0.834104	-0.167525	-0.000050
C35	C	1.135065	0.162236	-0.000044
C36	C	1.227374	0.164676	-0.000053
C37	C	0.978366	0.401068	-0.000044
C38	C	0.980810	0.540478	-0.000049
N39	N	0.983107	0.171461	0.216958
N40	N	0.983127	0.171461	-0.217032
C41	C	1.039156	0.086092	0.451965
C42	C	1.039158	0.086089	0.547946
C43	C	0.927072	0.256834	0.547954
C44	C	0.927066	0.256830	0.451975
C45	C	0.983113	0.171460	0.403983
C46	C	0.983121	0.171461	0.595943
C47	C	0.983123	0.171459	0.700010
C48	C	0.983110	0.171461	0.299909
H49	H	0.404429	0.169366	0.150757
Cl50	Cl	0.826604	-0.594171	-0.000127
H51	H	0.696627	-0.152460	-0.000068
Cl52	Cl	1.129225	-0.654215	-0.000101
Cl53	Cl	1.302586	-0.540271	-0.000025
Cl54	Cl	1.139623	-0.062900	-0.000002
Cl55	Cl	0.580973	0.174056	0.187579
Cl56	Cl	1.307784	-0.244603	-0.000013
H57	H	0.404450	0.169377	-0.150845
H58	H	0.881441	0.326342	0.587039
H59	H	0.561809	0.173550	-0.150851
Cl60	Cl	0.658441	-0.412467	-0.000089
H61	H	0.881426	0.326348	0.412905
H62	H	0.835987	-0.060871	-0.000041
H63	H	1.084792	0.016573	0.587011
H64	H	1.084791	0.016577	0.412892
