data_functionalizedCrystal
_audit_creation_method	'MofGen! by Chris Wilmer'
_symmetry_space_group_name_H-M	'P1'
_symmetry_Int_Tables_number	1
_symmetry_cell_setting	triclinic
loop_
_symmetry_equiv_pos_as_xyz
  x,y,z
_cell_length_a	6.817900
_cell_length_b	8.749629
_cell_length_c	14.858572
_cell_angle_alpha	93.945660
_cell_angle_beta	104.524003
_cell_angle_gamma	105.181975
loop_
_atom_site_label
_atom_site_type_symbol
_atom_site_fract_x
_atom_site_fract_y
_atom_site_fract_z
V1	V	-4.045983	-0.219796	-0.288748
V2	V	-3.795983	0.030204	-0.038748
V3	V	-3.545983	0.280204	0.211252
V4	V	-3.295983	0.530204	0.461252
O5	O	-4.025280	0.009538	-0.284493
O6	O	-3.775280	0.259538	-0.034493
O7	O	-3.525280	0.509538	0.215507
O8	O	-3.275280	0.759538	0.465507
O9	O	-4.004918	-0.434833	-0.285579
O10	O	-3.754918	-0.184833	-0.035579
O11	O	-3.504918	0.065167	0.214421
O12	O	-3.254918	0.315167	0.464421
O13	O	-4.002521	-0.216864	-0.415226
O14	O	-3.752521	0.033136	-0.165226
O15	O	-3.502521	0.283136	0.084774
O16	O	-3.252521	0.533136	0.334774
O17	O	-4.027694	-0.209940	-0.153949
O18	O	-3.777694	0.040060	0.096051
O19	O	-3.527694	0.290060	0.346051
O20	O	-3.277694	0.540060	0.596051
V21	V	-4.528020	-0.192312	-0.272770
V22	V	-4.278020	0.057688	-0.022770
V23	V	-4.028020	0.307688	0.227230
V24	V	-3.778020	0.557688	0.477230
O25	O	-4.310500	-0.280084	-0.323797
O26	O	-4.060500	-0.030084	-0.073797
O27	O	-3.810500	0.219916	0.176203
O28	O	-3.560500	0.469916	0.426203
O29	O	-4.713701	-0.132023	-0.237721
O30	O	-4.463701	0.117977	0.012279
O31	O	-4.213701	0.367977	0.262279
O32	O	-3.963701	0.617977	0.512279
O33	O	-4.345878	0.022726	-0.275939
O34	O	-4.095878	0.272726	-0.025939
O35	O	-3.845878	0.522726	0.224061
O36	O	-3.595878	0.772726	0.474061
O37	O	-4.666120	-0.421646	-0.277024
O38	O	-4.416120	-0.171646	-0.027024
O39	O	-4.166120	0.078354	0.222976
O40	O	-3.916120	0.328354	0.472976
O41	O	-4.663706	-0.202168	-0.407569
O42	O	-4.413706	0.047832	-0.157569
O43	O	-4.163706	0.297832	0.092431
O44	O	-3.913706	0.547832	0.342431
O45	O	-4.348276	-0.195243	-0.146292
O46	O	-4.098276	0.054757	0.103708
O47	O	-3.848276	0.304757	0.353708
O48	O	-3.598276	0.554757	0.603708
C49	C	-3.851544	-0.487241	-0.280715
C50	C	-3.601544	-0.237241	-0.030715
C51	C	-3.351544	0.012759	0.219285
C52	C	-3.101544	0.262759	0.469285
C53	C	-3.899289	-0.663039	-0.278967
C54	C	-3.649289	-0.413039	-0.028967
C55	C	-3.399289	-0.163039	0.221033
C56	C	-3.149289	0.086961	0.471033
C57	C	-3.848484	-0.209198	-0.446092
C58	C	-3.598484	0.040802	-0.196092
C59	C	-3.348484	0.290802	0.053908
C60	C	-3.098484	0.540802	0.303908
C61	C	-3.894281	-0.208224	-0.549480
C62	C	-3.644281	0.041776	-0.299480
C63	C	-3.394281	0.291776	-0.049480
C64	C	-3.144281	0.541776	0.200520
C65	C	-4.061899	-0.204664	-0.928068
C66	C	-3.811899	0.045336	-0.678068
C67	C	-3.561899	0.295336	-0.428068
C68	C	-3.311899	0.545336	-0.178068
C69	C	-4.015254	-0.205655	-0.822733
C70	C	-3.765254	0.044345	-0.572733
C71	C	-3.515254	0.294345	-0.322733
C72	C	-3.265254	0.544345	-0.072733
C73	C	-3.978092	-0.206445	-0.738778
C74	C	-3.728092	0.043555	-0.488778
C75	C	-3.478092	0.293555	-0.238778
C76	C	-3.228092	0.543555	0.011222
C77	C	-3.931444	-0.207433	-0.633436
C78	C	-3.681444	0.042567	-0.383436
C79	C	-3.431444	0.292567	-0.133436
C80	C	-3.181444	0.542567	0.116564
C81	C	-4.162595	0.075125	-0.280800
C82	C	-3.912595	0.325125	-0.030800
C83	C	-3.662595	0.575125	0.219200
C84	C	-3.412595	0.825125	0.469200
C85	C	-4.094088	0.250922	-0.282554
C86	C	-3.844088	0.500922	-0.032554
C87	C	-3.594088	0.750922	0.217446
C88	C	-3.344088	1.000922	0.467446
C89	C	-4.165654	-0.202915	-0.115421
C90	C	-3.915654	0.047085	0.134579
C91	C	-3.665654	0.297085	0.384579
C92	C	-3.415654	0.547085	0.634579
C93	C	-4.099096	-0.203881	-0.012032
C94	C	-3.849096	0.046119	0.237968
C95	C	-3.599096	0.296119	0.487968
C96	C	-3.349096	0.546119	0.737968
H97	H	-4.224350	-0.688243	-0.286971
H98	H	-3.974350	-0.438243	-0.036971
H99	H	-3.724350	-0.188243	0.213029
H100	H	-3.474350	0.061757	0.463029
H101	H	-3.769039	-0.723870	-0.274560
H102	H	-3.519039	-0.473870	-0.024560
H103	H	-3.269039	-0.223870	0.225440
H104	H	-3.019039	0.026130	0.475440
