data_functionalizedCrystal
_audit_creation_method	'MofGen! by Chris Wilmer'
_symmetry_space_group_name_H-M	'P1'
_symmetry_Int_Tables_number	1
_symmetry_cell_setting	triclinic
loop_
_symmetry_equiv_pos_as_xyz
  x,y,z
_cell_length_a	6.817900
_cell_length_b	11.102244
_cell_length_c	10.773894
_cell_angle_alpha	95.421915
_cell_angle_beta	96.645922
_cell_angle_gamma	108.604870
loop_
_atom_site_label
_atom_site_type_symbol
_atom_site_fract_x
_atom_site_fract_y
_atom_site_fract_z
V1	V	-3.974355	-0.171168	-0.388941
O2	O	-3.936005	0.013031	-0.381540
O3	O	-3.952066	-0.344020	-0.386278
O4	O	-3.891312	-0.166427	-0.558573
O5	O	-3.997179	-0.165792	-0.208052
V6	V	-4.459089	-0.149385	-0.367306
O7	O	-4.232958	-0.218952	-0.436400
O8	O	-4.650684	-0.101602	-0.319847
O9	O	-4.258172	0.023467	-0.369969
O10	O	-4.614837	-0.333584	-0.374706
O11	O	-4.553663	-0.154762	-0.548194
O12	O	-4.318926	-0.154127	-0.197674
C13	C	-3.804539	-0.386223	-0.380141
C14	C	-3.867370	-0.527518	-0.379094
C15	C	-3.877003	-0.577130	-0.264371
C16	C	-3.936050	-0.709894	-0.263402
C17	C	-3.975818	-0.743423	-0.491890
C18	C	-3.916787	-0.610662	-0.492858
C19	C	-3.854035	-0.557774	-0.132454
C20	C	-3.913082	-0.690537	-0.131485
C21	C	-3.727041	-0.159684	-0.599919
C22	C	-3.740600	-0.156951	-0.738594
C23	C	-3.919391	-0.161687	-0.806457
C24	C	-3.933409	-0.158863	-0.949785
C25	C	-4.069043	0.065663	-0.376102
C26	C	-3.985448	0.206957	-0.377157
C27	C	-4.146541	-0.160874	-0.156321
C28	C	-4.112219	-0.163600	-0.017644
H29	H	-3.908963	-0.570275	-0.586277
H30	H	-3.790701	-0.152708	-0.997789
N31	N	-3.551573	-0.148843	-0.802160
H32	H	-3.433179	-0.067553	-0.764657
H33	H	-3.588542	-0.148043	-0.895531
H34	H	-4.254927	-0.169752	-0.969642
N35	N	-3.737746	-0.721923	-0.057724
H36	H	-3.617485	-0.640087	-0.024783
H37	H	-3.688509	-0.780342	-0.114581
H38	H	-4.062077	-0.167825	-0.758445
N39	N	-4.118538	-0.743905	-0.083268
H40	H	-4.222802	-0.809931	-0.150884
H41	H	-4.174328	-0.671987	-0.060662
N42	N	-4.029150	-0.833100	-0.614588
H43	H	-4.068024	-0.924734	-0.596569
H44	H	-3.903879	-0.812876	-0.660428
H45	H	-3.968781	-0.519226	-0.086841
H46	H	-3.684584	-0.505519	-0.086895
