data_functionalizedCrystal
_audit_creation_method	'MofGen! by Chris Wilmer'
_symmetry_space_group_name_H-M	'P1'
_symmetry_Int_Tables_number	1
_symmetry_cell_setting	triclinic
loop_
_symmetry_equiv_pos_as_xyz
  x,y,z
_cell_length_a	10.685661
_cell_length_b	10.685194
_cell_length_c	18.215399
_cell_angle_alpha	85.603424
_cell_angle_beta	85.617083
_cell_angle_gamma	89.666250
loop_
_atom_site_label
_atom_site_type_symbol
_atom_site_fract_x
_atom_site_fract_y
_atom_site_fract_z
Zn1	Zn	1.879704	-0.646721	-0.471056
Zn2	Zn	1.863527	-0.856522	-0.337891
Zn3	Zn	1.669915	-0.630656	-0.339364
Zn4	Zn	1.653845	-0.840353	-0.452285
O5	O	1.766748	-0.743563	-0.400149
O6	O	2.053108	-0.688041	-0.460631
O7	O	1.837800	-0.826603	-0.235098
O8	O	1.711239	-0.457226	-0.365306
O9	O	2.041223	-0.842181	-0.362795
O10	O	1.865370	-0.469029	-0.462060
O11	O	1.695554	-0.660661	-0.236180
O12	O	1.492233	-0.644983	-0.347104
O13	O	1.683850	-0.814624	-0.557763
O14	O	1.480427	-0.799046	-0.430066
O15	O	1.849788	-0.672363	-0.571555
O16	O	1.822218	-1.029938	-0.344593
O17	O	1.668165	-1.018059	-0.428638
C18	C	1.440812	-0.718518	-0.386708
C19	C	1.301373	-0.707833	-0.380974
C20	C	1.741726	-1.069522	-0.384436
C21	C	1.731137	-1.208978	-0.377743
C22	C	2.093956	-0.768707	-0.413643
C23	C	2.233393	-0.779422	-0.419393
C24	C	1.766831	-0.743482	-0.592109
C25	C	1.766866	-0.743448	-0.673911
C26	C	1.791901	-0.416333	-0.415941
C27	C	1.802620	-0.276887	-0.422670
C28	C	1.853304	-0.669300	-0.869292
C29	C	1.853322	-0.669265	-0.946154
C30	C	1.680532	-0.817409	-0.931781
C31	C	1.680509	-0.817436	-0.854921
C32	C	1.766902	-0.743384	-0.823679
C33	C	1.766943	-0.743321	-0.977400
C34	C	1.766961	-0.743283	-1.060736
C35	C	1.766883	-0.743420	-0.740338
C36	C	1.766744	-0.743558	-0.208943
C37	C	1.766979	-0.743258	-0.127168
H38	H	1.871923	-1.228341	-0.466259
H39	H	1.661819	-1.257531	-0.334158
C40	C	1.948317	-0.587830	-0.834928
H41	H	1.999768	-0.543693	-0.873105
H42	H	1.999287	-0.640020	-0.804883
H43	H	1.904505	-0.529488	-0.805606
H44	H	1.281868	-0.848878	-0.456676
C45	C	1.585518	-0.898871	-0.966150
H46	H	1.597913	-0.888255	-1.018458
H47	H	1.502634	-0.874046	-0.950962
H48	H	1.597409	-0.984584	-0.950240
H49	H	1.610141	-0.877763	-0.817781
H50	H	1.923677	-0.608935	-0.983289
H51	H	1.252892	-0.638362	-0.343695
