data_functionalizedCrystal
_audit_creation_method	'MofGen! by Chris Wilmer'
_symmetry_space_group_name_H-M	'P1'
_symmetry_Int_Tables_number	1
_symmetry_cell_setting	triclinic
loop_
_symmetry_equiv_pos_as_xyz
  x,y,z
_cell_length_a	19.805405
_cell_length_b	21.395364
_cell_length_c	21.395355
_cell_angle_alpha	89.974702
_cell_angle_beta	90.019910
_cell_angle_gamma	89.956889
loop_
_atom_site_label
_atom_site_type_symbol
_atom_site_fract_x
_atom_site_fract_y
_atom_site_fract_z
Zn1	Zn	-0.269240	-0.957878	0.354268
Zn2	Zn	-0.382410	-0.957788	0.249488
Zn3	Zn	-0.269273	-0.853093	0.249503
Zn4	Zn	-0.382425	-0.853070	0.354227
O5	O	-0.325837	-0.905457	0.301871
O6	O	-0.284232	-1.045544	0.340379
O7	O	-0.367409	-0.943872	0.161812
O8	O	-0.174552	-0.867040	0.263424
O9	O	-0.367377	-1.045478	0.263398
O10	O	-0.174528	-0.944025	0.340394
O11	O	-0.284288	-0.866953	0.161823
O12	O	-0.284303	-0.765412	0.263384
O13	O	-0.367404	-0.867001	0.441910
O14	O	-0.367436	-0.765395	0.340324
O15	O	-0.284247	-0.944003	0.441940
O16	O	-0.477128	-0.943850	0.263358
O17	O	-0.477140	-0.866914	0.340309
C18	C	-0.325875	-0.742670	0.301852
C19	C	-0.325908	-0.673028	0.301858
C20	C	-0.282686	-0.640372	0.342004
C21	C	-0.282670	-0.574936	0.342005
C22	C	-0.325888	-0.542160	0.301868
C23	C	-0.369113	-0.574824	0.261714
C24	C	-0.369123	-0.640259	0.261709
C25	C	-0.386846	-0.438440	0.296828
C26	C	-0.386838	-0.373007	0.296837
C27	C	-0.325858	-0.340339	0.301879
C28	C	-0.264885	-0.373113	0.306925
C29	C	-0.264895	-0.438547	0.306921
C30	C	-0.325882	-0.471208	0.301868
C31	C	-0.282615	-0.236730	0.342029
C32	C	-0.282598	-0.171294	0.342026
C33	C	-0.369047	-0.171183	0.261738
C34	C	-0.369058	-0.236618	0.261738
C35	C	-0.325843	-0.269388	0.301886
C36	C	-0.501693	-0.905387	0.301841
C37	C	-0.576925	-0.905414	0.301849
C38	C	-0.612241	-0.945513	0.261823
C39	C	-0.682929	-0.945540	0.261836
C40	C	-0.718301	-0.905464	0.301874
C41	C	-0.682980	-0.865362	0.341905
C42	C	-0.612293	-0.865339	0.341894
C43	C	-0.968053	-0.865455	0.341951
C44	C	-1.038745	-0.865479	0.341958
C45	C	-1.038690	-0.945655	0.261894
C46	C	-0.968002	-0.945632	0.261883
C47	C	-0.932688	-0.905534	0.301916
C48	C	-0.856040	-0.905506	0.301901
C49	C	-0.794948	-0.905487	0.301886
C50	C	-0.149294	-0.905545	0.301916
C51	C	-0.074062	-0.905583	0.301934
C52	C	-0.325823	-0.905509	0.465295
C53	C	-0.325817	-0.905531	0.534936
C54	C	-0.325807	-0.068881	0.301888
C55	C	-0.325816	-0.138522	0.301887
C56	C	-0.325802	-0.905442	0.139084
C57	C	-0.325617	-0.905541	0.069443
C58	C	-0.282516	-0.945625	0.567666
C59	C	-0.282487	-0.945624	0.633101
C60	C	-0.325771	-0.905536	0.665804
C61	C	-0.369076	-0.865435	0.633067
C62	C	-0.369099	-0.865433	0.567632
C63	C	-0.386717	-0.900565	0.769469
C64	C	-0.386695	-0.900571	0.834902
C65	C	-0.325700	-0.905540	0.867625
C66	C	-0.264724	-0.910515	0.834908
C67	C	-0.264748	-0.910513	0.769474
C68	C	-0.325751	-0.905534	0.736757
C69	C	-0.282363	-0.945635	0.971308
C70	C	-0.282333	-0.945629	1.036744
C71	C	-0.368928	-0.865444	1.036708
C72	C	-0.368952	-0.865446	0.971273
C73	C	-0.325671	-0.905545	0.938577
H74	H	-0.247423	-0.263413	0.374716
H75	H	-0.436345	-0.896524	0.861535
O76	O	-0.578090	-0.826329	0.380797
C77	C	-0.585600	-0.746840	0.460249
C78	C	-0.624418	-0.790972	0.416207
H79	H	-0.623040	-0.718252	0.488898
H80	H	-0.552576	-0.714038	0.431483
H81	H	-0.552439	-0.775595	0.493003
H82	H	-0.657616	-0.762268	0.383444
H83	H	-0.657399	-0.823776	0.445011
O84	O	-0.240405	-0.984590	0.536003
C85	C	-0.154544	-1.064150	0.542947
C86	C	-0.202190	-1.020045	0.578885
H87	H	-0.123645	-1.092835	0.577602
H88	H	-0.119122	-1.035431	0.512320
H89	H	-0.185632	-1.096867	0.512306
H90	H	-0.171156	-0.987318	0.609559
H91	H	-0.237613	-1.048802	0.609472
O92	O	-0.446030	-0.895700	0.737781
C93	C	-0.566989	-0.885663	0.744681
C94	C	-0.499876	-0.891225	0.780643
H95	H	-0.610540	-0.882031	0.779319
H96	H	-0.574241	-0.928725	0.714047
H97	H	-0.565863	-0.842068	0.714044
H98	H	-0.500954	-0.934794	0.811313
H99	H	-0.492649	-0.848132	0.811237
O100	O	-0.240170	-0.984547	1.068469
C101	C	-0.125021	-1.015002	1.088522
C102	C	-0.172695	-0.970898	1.052545
H103	H	-0.070457	-1.003974	1.075671
H104	H	-0.136850	-1.065527	1.075666
H105	H	-0.132467	-1.008128	1.140904
H106	H	-0.165276	-0.977717	1.000155
H107	H	-0.160855	-0.920390	1.065454
O108	O	-0.577989	-0.984502	0.222908
C109	C	-0.585403	-1.064004	0.143466
C110	C	-0.624274	-1.019890	0.187516
H111	H	-0.622807	-1.092617	0.114831
H112	H	-0.552271	-1.096783	0.172225
H113	H	-0.552344	-1.035233	0.110699
H114	H	-0.657369	-1.048611	0.220292
H115	H	-0.657363	-0.987109	0.158718
O116	O	-0.411148	-0.672053	0.222800
C117	C	-0.502559	-0.745819	0.214220
C118	C	-0.454996	-0.709861	0.258352
H119	H	-0.538031	-0.776385	0.242946
H120	H	-0.471475	-0.776508	0.181520
H121	H	-0.533414	-0.711144	0.185516
H122	H	-0.424131	-0.744491	0.287097
H123	H	-0.486118	-0.679162	0.291011
H124	H	-0.404236	-0.144497	0.229057
H125	H	-0.404257	-0.263207	0.229049
H126	H	-0.247222	-0.978271	0.659755
O127	O	-0.717214	-0.984643	0.223089
C128	C	-0.796788	-1.069390	0.214905
C129	C	-0.758026	-1.025097	0.258828
H130	H	-0.829805	-1.102099	0.243781
H131	H	-0.759337	-1.098068	0.186357
H132	H	-0.829957	-1.040757	0.182050
H133	H	-0.724856	-1.053681	0.291720
H134	H	-0.795514	-0.996416	0.287331
O135	O	-0.446121	-0.341271	0.291901
C136	C	-0.567084	-0.348073	0.281917
C137	C	-0.499992	-0.384090	0.287490
H138	H	-0.610658	-0.382676	0.278362
H139	H	-0.566001	-0.317433	0.238322
H140	H	-0.574264	-0.317438	0.324992
H141	H	-0.492771	-0.414759	0.244448
H142	H	-0.501107	-0.414690	0.331111
H143	H	-0.215099	-0.914562	0.742838
O144	O	-0.717442	-0.826451	0.380739
C145	C	-0.826362	-0.790975	0.416265
C146	C	-0.787420	-0.835065	0.372245
H147	H	-0.882945	-0.797933	0.409422
H148	H	-0.812578	-0.740441	0.405212
H149	H	-0.812383	-0.801941	0.466788
H150	H	-0.801378	-0.824156	0.321707
H151	H	-0.801206	-0.885586	0.383352
O152	O	-0.933748	-0.984622	0.222971
C153	C	-0.941155	-1.064129	0.143534
C154	C	-0.980031	-1.020013	0.187578
H155	H	-0.978558	-1.092744	0.114898
H156	H	-0.908025	-1.096906	0.172297
H157	H	-0.908094	-1.035359	0.110767
H158	H	-1.013128	-1.048732	0.220353
H159	H	-1.013118	-0.987234	0.158776
H160	H	-0.404316	-0.832794	0.659698
H161	H	-1.067451	-0.978308	0.229300
H162	H	-0.404360	-0.832781	0.540984
H163	H	-1.067543	-0.832845	0.374566
H164	H	-0.215056	-0.914562	0.861550
H165	H	-0.939306	-0.832804	0.374546
O166	O	-0.240415	-0.984649	0.939516
C167	C	-0.231319	-1.069226	0.865654
C168	C	-0.278902	-1.025090	0.901626
H169	H	-0.262416	-1.101924	0.835001
H170	H	-0.200374	-1.097924	0.900264
H171	H	-0.195932	-1.040467	0.835032
H172	H	-0.314330	-1.053799	0.932249
H173	H	-0.309799	-0.996390	0.866982
O174	O	-0.411071	-0.826533	1.068396
C175	C	-0.526209	-0.796088	1.088423
C176	C	-0.478557	-0.840188	1.052485
H177	H	-0.580781	-0.807121	1.075583
H178	H	-0.514395	-0.745562	1.075522
H179	H	-0.518723	-0.802961	1.140811
H180	H	-0.486017	-0.833371	1.000089
H181	H	-0.490382	-0.890697	1.065439
H182	H	-0.247497	-0.667049	0.374696
O183	O	-0.240666	-0.543302	0.381068
C184	C	-0.154910	-0.550313	0.460689
C185	C	-0.202453	-0.586214	0.416492
H186	H	-0.123993	-0.584991	0.489332
H187	H	-0.186010	-0.519689	0.493438
H188	H	-0.119495	-0.519672	0.431982
H189	H	-0.237878	-0.616888	0.445149
H190	H	-0.171311	-0.616797	0.383742
O191	O	-0.205607	-0.470286	0.311793
C192	C	-0.084648	-0.463494	0.321827
C193	C	-0.151741	-0.427472	0.316303
H194	H	-0.041081	-0.428895	0.325489
H195	H	-0.077396	-0.494094	0.278737
H196	H	-0.085806	-0.494170	0.365395
H197	H	-0.150632	-0.396763	0.272762
H198	H	-0.158967	-0.396912	0.359425
O199	O	-0.240633	-0.139472	0.380968
C200	C	-0.202338	-0.038717	0.416588
C201	C	-0.249885	-0.074678	0.372443
H202	H	-0.209812	0.013675	0.409720
H203	H	-0.147729	-0.051577	0.405684
H204	H	-0.214308	-0.051636	0.467081
H205	H	-0.237977	-0.061779	0.321936
H206	H	-0.304481	-0.061815	0.383401
O207	O	-0.446051	-0.470241	0.292017
C208	C	-0.522008	-0.544054	0.339822
C209	C	-0.454940	-0.508090	0.345343
H210	H	-0.529223	-0.574654	0.382936
H211	H	-0.520908	-0.574710	0.296264
H212	H	-0.565571	-0.509383	0.336192
H213	H	-0.411340	-0.542716	0.348997
H214	H	-0.456098	-0.477425	0.388892
H215	H	-0.404301	-0.548134	0.229033
H216	H	-0.215229	-0.346516	0.311032
O217	O	-0.410924	-0.826438	0.939446
C218	C	-0.420077	-0.741868	0.865503
C219	C	-0.372467	-0.785999	0.901518
H220	H	-0.389004	-0.709170	0.834819
H221	H	-0.450999	-0.713168	0.900084
H222	H	-0.455485	-0.770630	0.834907
H223	H	-0.337018	-0.757285	0.932115
H224	H	-0.341592	-0.814700	0.866903
