data_functionalizedCrystal
_audit_creation_method	'MofGen! by Chris Wilmer'
_symmetry_space_group_name_H-M	'P1'
_symmetry_Int_Tables_number	1
_symmetry_cell_setting	triclinic
loop_
_symmetry_equiv_pos_as_xyz
  x,y,z
_cell_length_a	16.109301
_cell_length_b	15.995350
_cell_length_c	14.586319
_cell_angle_alpha	89.998440
_cell_angle_beta	89.999213
_cell_angle_gamma	83.476928
loop_
_atom_site_label
_atom_site_type_symbol
_atom_site_fract_x
_atom_site_fract_y
_atom_site_fract_z
O1	O	1.103160	0.107624	-0.076178
O2	O	1.603160	0.607624	0.423822
O3	O	0.861101	0.121018	-0.076192
O4	O	1.361101	0.621018	0.423808
O5	O	0.988747	-0.007569	-0.076184
O6	O	1.488747	0.492431	0.423816
O7	O	0.975514	0.236210	-0.076186
O8	O	1.475514	0.736210	0.423814
O9	O	0.988739	-0.007570	0.076297
O10	O	1.488739	0.492430	0.576297
O11	O	0.861093	0.121016	0.076289
O12	O	1.361093	0.621016	0.576289
O13	O	1.103151	0.107622	0.076303
O14	O	1.603151	0.607622	0.576303
Cu15	Cu	0.982121	0.114319	0.090219
Cu16	Cu	1.482121	0.614319	0.590219
Cu17	Cu	0.982131	0.114321	-0.090107
Cu18	Cu	1.482131	0.614321	0.409893
O19	O	0.975505	0.236208	0.076295
O20	O	1.475505	0.736208	0.576295
C21	C	0.830122	0.120474	0.000047
C22	C	1.330122	0.620474	0.500047
C23	C	0.737826	0.118848	0.000041
C24	C	1.237826	0.618848	0.500041
C25	C	0.515573	0.191366	0.000051
C26	C	1.015573	0.691366	0.500051
C27	C	0.428853	0.189831	0.000057
C28	C	0.928853	0.689831	0.500057
C29	C	0.448686	0.037268	0.000055
C30	C	0.948686	0.537268	0.500055
C31	C	0.535405	0.038804	0.000055
C32	C	1.035405	0.538804	0.500055
C33	C	0.568846	0.115855	0.000049
C34	C	1.068846	0.615855	0.500049
C35	C	0.395406	0.112785	0.000054
C36	C	0.895406	0.612785	0.500054
C37	C	0.301380	0.111120	0.000061
C38	C	0.801380	0.611120	0.500061
C39	C	0.662879	0.117520	0.000044
C40	C	1.162879	0.617520	0.500044
C41	C	0.988196	-0.038764	0.000055
C42	C	1.488196	0.461236	0.500055
C43	C	0.986556	-0.131714	0.000050
C44	C	1.486556	0.368286	0.500050
C45	C	0.980665	-0.469460	0.000053
C46	C	1.480665	0.030540	0.500053
C47	C	0.889758	-0.422001	-0.000295
C48	C	1.389758	0.077999	0.499705
C49	C	0.891399	-0.325311	0.000049
C50	C	1.391399	0.174689	0.500049
C51	C	0.983587	-0.301900	0.000051
C52	C	1.483587	0.198100	0.500051
C53	C	1.028421	-0.342991	0.087126
C54	C	1.528421	0.157009	0.587126
C55	C	1.026137	-0.439626	0.087198
C56	C	1.526137	0.060374	0.587198
C57	C	1.028025	-0.439983	-0.086201
C58	C	1.528025	0.060017	0.413799
C59	C	1.028003	-0.343037	-0.087351
C60	C	1.528003	0.156963	0.412649
C61	C	0.985243	-0.207203	0.000053
C62	C	1.485243	0.292797	0.500053
C63	C	0.979012	-0.564157	0.000057
C64	C	1.479012	-0.064157	0.500057
C65	C	1.134130	0.108166	0.000062
C66	C	1.634130	0.608166	0.500062
C67	C	1.226426	0.109792	0.000062
C68	C	1.726426	0.609792	0.500062
C69	C	0.976056	0.267404	0.000054
C70	C	1.476056	0.767404	0.500054
C71	C	0.977697	0.360354	0.000053
C72	C	1.477697	0.860354	0.500053
N73	N	0.982120	0.114317	0.217050
N74	N	1.482120	0.614317	0.717050
N75	N	0.982139	0.114317	-0.216939
N76	N	1.482139	0.614317	0.283061
C77	C	1.038660	0.057398	0.452061
C78	C	1.538660	0.557398	0.952061
C79	C	1.038662	0.057396	0.548042
C80	C	1.538662	0.557396	1.048042
C81	C	0.925593	0.171238	0.548044
C82	C	1.425593	0.671238	1.048044
C83	C	0.925587	0.171236	0.452064
C84	C	1.425587	0.671236	0.952064
C85	C	0.982125	0.114316	0.404075
C86	C	1.482125	0.614316	0.904075
C87	C	0.982134	0.114317	0.596036
C88	C	1.482134	0.614317	1.096036
C89	C	0.982136	0.114315	0.700103
C90	C	1.482136	0.614315	1.200103
C91	C	0.982122	0.114317	0.300001
C92	C	1.482122	0.614317	0.800001
H93	H	0.542798	0.254106	0.000053
H94	H	1.042798	0.754106	0.500053
N95	N	0.412617	-0.045834	0.000066
N96	N	0.912617	0.454166	0.500066
H97	H	0.349596	-0.035351	0.000066
H98	H	0.849596	0.464649	0.500066
H99	H	0.432105	-0.078878	-0.056458
H100	H	0.932105	0.421122	0.443542
H101	H	1.084697	0.011047	0.587109
H102	H	1.584697	0.511047	1.087109
H103	H	0.997274	-0.314602	0.151923
H104	H	1.497274	0.185398	0.651923
N105	N	0.982821	-0.463859	0.173413
N106	N	1.482821	0.036141	0.673413
H107	H	0.924000	-0.434299	0.174882
H108	H	1.424000	0.065701	0.674882
H109	H	0.980965	-0.526755	0.174274
H110	H	1.480965	-0.026755	0.674274
H111	H	1.092879	-0.471892	0.091150
H112	H	1.592879	0.028108	0.591150
H113	H	0.879562	0.217582	0.587126
H114	H	1.379562	0.717582	1.087126
N115	N	1.118144	-0.324339	0.091407
N116	N	1.618144	0.175661	0.591407
H117	H	1.130621	-0.288983	0.036815
H118	H	1.630621	0.211017	0.536815
H119	H	1.127396	-0.292693	0.149758
H120	H	1.627396	0.207307	0.649758
N121	N	0.844716	-0.287640	-0.082627
N122	N	1.344716	0.212360	0.417373
H123	H	0.822883	-0.333840	-0.119624
H124	H	1.322883	0.166160	0.380376
H125	H	0.796369	-0.246271	-0.061760
H126	H	1.296369	0.253729	0.438240
H127	H	0.385481	0.251320	0.000061
H128	H	0.885481	0.751320	0.500061
H129	H	0.578782	-0.022690	0.000056
H130	H	1.078782	0.477310	0.500056
N131	N	0.841624	-0.446532	-0.083002
N132	N	1.341624	0.053468	0.416998
H133	H	0.878274	-0.488649	-0.121051
H134	H	1.378274	0.011351	0.378949
H135	H	0.790510	-0.472456	-0.062149
H136	H	1.290510	0.027544	0.437851
N137	N	1.099617	-0.004013	0.400302
N138	N	1.599617	0.495987	0.900302
H139	H	1.091035	0.004617	0.332217
H140	H	1.591035	0.504617	0.832217
H141	H	1.158601	0.005661	0.417066
H142	H	1.658601	0.505661	0.917066
H143	H	0.879546	0.217586	0.412992
H144	H	1.379546	0.717586	0.912992
N145	N	0.841832	-0.447928	0.081954
N146	N	1.341832	0.052072	0.581954
H147	H	0.790942	-0.474016	0.060698
H148	H	1.290942	0.025984	0.560698
H149	H	0.878812	-0.490256	0.119403
H150	H	1.378812	0.009744	0.619403
N151	N	0.844399	-0.288380	0.082866
N152	N	1.344399	0.211620	0.582866
H153	H	0.822538	-0.334921	0.119295
H154	H	1.322538	0.165079	0.619295
H155	H	0.883200	-0.258542	0.122472
H156	H	1.383200	0.241458	0.622472
N157	N	0.988668	-0.467177	-0.173626
N158	N	1.488668	0.032823	0.326374
H159	H	0.939734	-0.498886	-0.158202
H160	H	1.439734	0.001114	0.341798
H161	H	0.968643	-0.415916	-0.211411
H162	H	1.468643	0.084084	0.288589
H163	H	1.095231	-0.327694	-0.092608
H164	H	1.595231	0.172306	0.407392
N165	N	0.984635	-0.306866	-0.172677
N166	N	1.484635	0.193134	0.327323
H167	H	0.986988	-0.244055	-0.174417
H168	H	1.486988	0.255945	0.325583
H169	H	1.013500	-0.333620	-0.228620
H170	H	1.513500	0.166380	0.271380
N171	N	1.116808	-0.482072	-0.086981
N172	N	1.616808	0.017928	0.413019
H173	H	1.126342	-0.520053	-0.031766
H174	H	1.626342	-0.020053	0.468234
H175	H	1.126741	-0.516517	-0.144783
H176	H	1.626741	-0.016517	0.355217
