data_functionalizedCrystal
_audit_creation_method	'MofGen! by Chris Wilmer'
_symmetry_space_group_name_H-M	'P1'
_symmetry_Int_Tables_number	1
_symmetry_cell_setting	triclinic
loop_
_symmetry_equiv_pos_as_xyz
  x,y,z
_cell_length_a	10.489741
_cell_length_b	15.500227
_cell_length_c	10.489741
_cell_angle_alpha	87.142580
_cell_angle_beta	84.539174
_cell_angle_gamma	92.870731
loop_
_atom_site_label
_atom_site_type_symbol
_atom_site_fract_x
_atom_site_fract_y
_atom_site_fract_z
O1	O	1.699929	0.071890	0.174105
O2	O	1.328734	0.071903	0.190997
O3	O	1.522777	0.071891	-0.003047
O4	O	1.505885	0.071902	0.368148
O5	O	1.511002	-0.071997	0.008682
O6	O	1.316958	-0.071985	0.202725
O7	O	1.688153	-0.071998	0.185833
Cu8	Cu	1.501481	-0.085129	0.195350
Cu9	Cu	1.515406	0.085035	0.181480
O10	O	1.494110	-0.071986	0.379877
C11	C	1.275315	-0.000039	0.195585
C12	C	1.133686	-0.000034	0.191767
N13	N	1.491695	-0.204814	0.205105
C14	C	1.065545	-0.000046	0.068304
C15	C	0.979224	0.070898	0.120844
C16	C	0.967648	-0.070964	0.132437
C17	C	1.049235	0.070969	0.244354
C18	C	1.037664	-0.070957	0.255935
C19	C	0.951371	0.000004	0.308564
C20	C	1.573947	-0.250096	0.122913
C21	C	1.566558	-0.340668	0.130302
C22	C	1.476923	-0.385957	0.219891
C23	C	1.394662	-0.340669	0.302086
C24	C	1.402046	-0.250098	0.294690
C25	C	1.450325	-0.659422	0.246514
C26	C	1.442950	-0.749999	0.253907
C27	C	1.614845	-0.749992	0.082121
C28	C	1.622226	-0.659420	0.074737
C29	C	1.539961	-0.614139	0.156928
C30	C	1.469371	-0.478536	0.227449
C31	C	1.547507	-0.521562	0.149363
C32	C	1.741573	-0.000054	0.181245
C33	C	1.883202	-0.000053	0.185062
C34	C	1.515614	-0.000052	-0.044714
C35	C	1.511797	-0.000051	-0.186344
N36	N	1.525202	0.204719	0.171715
C37	C	1.388333	-0.000040	-0.254485
C38	C	1.440850	-0.070986	-0.340824
C39	C	1.452489	0.070876	-0.352362
C40	C	1.564360	-0.071055	-0.270813
C41	C	1.575987	0.070871	-0.282347
C42	C	1.628593	-0.000093	-0.368657
C43	C	1.501274	-0.000041	0.421544
C44	C	1.505091	-0.000037	0.563173
H45	H	1.115241	0.000040	-0.033199
H46	H	1.084977	0.131014	0.291660
C47	C	1.072333	-0.150902	0.332249
C48	C	1.012143	-0.151449	0.457309
C49	C	1.044041	-0.225094	0.527629
H50	H	1.162642	-0.150105	0.334924
H51	H	1.044464	-0.201288	0.292448
H52	H	1.040019	-0.101076	0.497100
H53	H	0.921833	-0.152259	0.454672
H54	H	1.016172	-0.275481	0.487828
H55	H	1.134351	-0.224290	0.530294
H56	H	1.003199	-0.225479	0.612485
C57	C	1.644601	-0.472304	0.051975
C58	C	1.580140	-0.420331	-0.030995
C59	C	1.669532	-0.374935	-0.120734
H60	H	1.692554	-0.512157	0.003953
H61	H	1.701005	-0.436896	0.095412
H62	H	1.523758	-0.455736	-0.074428
H63	H	1.532193	-0.380462	0.016990
H64	H	1.725936	-0.339527	-0.077297
H65	H	1.717479	-0.414795	-0.168746
H66	H	1.625808	-0.339661	-0.177032
C67	C	0.919838	-0.151046	0.069503
C68	C	0.950952	-0.225157	0.139232
C69	C	0.906922	-0.298938	0.081295
H70	H	0.959277	-0.151078	-0.015848
H71	H	0.829412	-0.150797	0.068273
H72	H	1.041361	-0.225405	0.140448
H73	H	0.911516	-0.225153	0.224581
H74	H	0.816496	-0.298690	0.080065
H75	H	0.946364	-0.298961	-0.004054
H76	H	0.928016	-0.349231	0.128604
C77	C	1.671113	-0.200998	0.025412
C78	C	1.647427	-0.223057	-0.098320
C79	C	1.736897	-0.177850	-0.188188
H80	H	1.755216	-0.215800	0.041123
H81	H	1.663751	-0.140558	0.032658
H82	H	1.654800	-0.283483	-0.105562
H83	H	1.563341	-0.208253	-0.114072
H84	H	1.729535	-0.117411	-0.180942
H85	H	1.820994	-0.192656	-0.172465
H86	H	1.720831	-0.192805	-0.272151
H87	H	1.335066	-0.213230	0.361618
C88	C	1.719109	-0.609977	-0.022664
C89	C	1.802144	-0.557705	0.041316
C90	C	1.891159	-0.512052	-0.048512
H91	H	1.675134	-0.574747	-0.078776
H92	H	1.767161	-0.649703	-0.070876
H93	H	1.754098	-0.517984	0.089507
H94	H	1.846149	-0.592913	0.097421
H95	H	1.939211	-0.551777	-0.096724
H96	H	1.847173	-0.476827	-0.104619
H97	H	1.947516	-0.476586	-0.005114
H98	H	1.383343	-0.622562	0.313440
H99	H	1.286815	-0.000108	-0.204828
C100	C	0.885543	0.000234	0.444043
C101	C	0.927118	0.074649	0.502007
C102	C	0.866490	0.074900	0.626801
H103	H	0.906459	-0.049625	0.492451
H104	H	0.795289	-0.000201	0.440965
H105	H	1.017352	0.075075	0.505093
H106	H	0.906201	0.124520	0.453638
H107	H	0.776236	0.074465	0.623723
H108	H	0.887411	0.025038	0.675196
H109	H	0.894681	0.125393	0.666141
C110	C	1.371990	-0.527824	0.324525
C111	C	1.289073	-0.579854	0.260053
C112	C	1.199359	-0.625283	0.349434
H113	H	1.323924	-0.487991	0.372473
H114	H	1.415451	-0.563197	0.380933
H115	H	1.245615	-0.544484	0.203667
H116	H	1.337102	-0.619703	0.212110
H117	H	1.242821	-0.660655	0.405842
H118	H	1.151303	-0.585443	0.397377
H119	H	1.143097	-0.660595	0.305703
C120	C	1.704084	-0.799047	-0.007338
C121	C	1.684059	-0.777012	-0.134685
C122	C	1.766251	-0.822175	-0.217138
H123	H	1.686936	-0.859486	0.009718
H124	H	1.790581	-0.784177	0.006047
H125	H	1.597582	-0.791888	-0.148063
H126	H	1.701216	-0.716580	-0.151780
H127	H	1.852748	-0.807305	-0.203754
H128	H	1.749096	-0.882613	-0.200072
H129	H	1.752683	-0.807225	-0.303552
H130	H	1.369954	-0.786869	0.326866
H131	H	0.953118	0.130875	0.063715
C132	C	1.297269	-0.389950	0.399158
C133	C	1.214352	-0.441983	0.334692
C134	C	1.124629	-0.487401	0.424076
H135	H	1.249204	-0.350110	0.447094
H136	H	1.340723	-0.425319	0.455577
H137	H	1.170901	-0.406617	0.278295
H138	H	1.262380	-0.481840	0.286762
H139	H	1.168083	-0.522770	0.480495
H140	H	1.076574	-0.447554	0.472007
H141	H	1.068367	-0.522716	0.380350
C142	C	1.389156	0.150825	-0.399986
C143	C	1.263409	0.150494	-0.341592
C144	C	1.205025	0.224130	-0.385411
H145	H	1.387748	0.150606	-0.490379
H146	H	1.436252	0.201224	-0.378903
H147	H	1.216325	0.100108	-0.362683
H148	H	1.264780	0.150726	-0.251201
H149	H	1.252121	0.274530	-0.364329
H150	H	1.203626	0.223904	-0.475804
H151	H	1.119704	0.223920	-0.345789
H152	H	1.383701	-0.130962	-0.366947
H153	H	1.633534	-0.377536	0.063374
H154	H	1.611641	-0.131102	-0.235086
H155	H	1.730192	-0.000136	-0.418078
H156	H	1.633092	0.130850	-0.256191
