data_functionalizedCrystal
_audit_creation_method	'MofGen! by Chris Wilmer'
_symmetry_space_group_name_H-M	'P1'
_symmetry_Int_Tables_number	1
_symmetry_cell_setting	triclinic
loop_
_symmetry_equiv_pos_as_xyz
  x,y,z
_cell_length_a	10.540539
_cell_length_b	10.540539
_cell_length_c	9.482900
_cell_angle_alpha	99.430988
_cell_angle_beta	80.617679
_cell_angle_gamma	84.525492
loop_
_atom_site_label
_atom_site_type_symbol
_atom_site_fract_x
_atom_site_fract_y
_atom_site_fract_z
O1	O	1.705481	0.159216	-0.120819
O2	O	1.336070	0.176069	-0.120836
O3	O	1.529203	-0.017064	-0.120825
O4	O	1.512348	0.352348	-0.120830
O5	O	1.489975	0.022324	0.120965
O6	O	1.296842	0.215457	0.120954
O7	O	1.666252	0.198604	0.120971
Cu8	Cu	1.477965	0.210627	0.143040
Cu9	Cu	1.524357	0.164046	-0.142905
O10	O	1.473120	0.391737	0.120960
C11	C	1.269154	0.194498	0.000057
C12	C	1.128207	0.190715	0.000050
C13	C	0.944688	0.045890	0.000616
C14	C	1.091397	0.049633	0.000056
C15	C	1.088935	0.236119	-0.138020
C16	C	0.942406	0.231287	-0.138120
C17	C	0.897308	0.278950	0.136840
C18	C	1.043997	0.280544	0.138650
C19	C	1.508325	-0.044673	0.000067
C20	C	1.504545	-0.185623	0.000059
C21	C	1.359717	-0.369139	-0.000490
C22	C	1.363462	-0.222432	0.000054
C23	C	1.550039	-0.224787	0.138136
C24	C	1.545205	-0.371313	0.138252
C25	C	1.592684	-0.416623	-0.136708
C26	C	1.594280	-0.269938	-0.138534
C27	C	1.733170	0.180174	0.000075
C28	C	1.874118	0.183955	0.000072
C29	C	1.493998	0.419345	0.000065
C30	C	1.497780	0.560293	0.000063
N31	N	1.445345	0.243389	0.344158
N32	N	1.556988	0.131273	-0.344023
C33	C	1.514727	0.173702	0.416361
C34	C	1.487596	0.200971	0.583777
H35	H	0.930456	-0.025650	-0.097849
H36	H	1.149228	-0.020317	-0.099088
H37	H	1.698492	-0.247074	-0.146867
H38	H	1.645653	-0.418260	0.144521
H39	H	1.117953	0.012334	0.099031
H40	H	1.365854	0.323234	0.406284
Cl41	Cl	1.548388	-0.491640	-0.298287
Cl42	Cl	0.875744	-0.015260	0.153492
Cl43	Cl	1.679991	0.008255	0.560079
H44	H	1.652813	-0.201596	0.143275
H45	H	1.408099	0.280821	0.645897
H46	H	0.930940	0.164294	-0.241328
H47	H	1.561173	-0.245720	-0.240679
H48	H	1.293579	-0.164526	0.099193
H49	H	1.594209	0.093848	0.354238
Cl50	Cl	1.124775	0.394771	-0.145991
Cl51	Cl	0.869911	0.386359	-0.147801
H52	H	1.320050	-0.413869	-0.099508
H53	H	0.848782	0.250340	0.241496
Cl54	Cl	1.180419	0.137458	-0.296668
Cl55	Cl	1.750245	-0.489771	-0.138140
H56	H	1.068387	0.247583	0.240794
H57	H	1.066870	0.384761	0.146986
Cl58	Cl	0.824161	0.436514	0.138281
H59	H	1.326097	-0.195953	-0.098925
H60	H	1.288238	-0.383307	0.097968
H61	H	1.478282	-0.382699	0.241463
H62	H	1.486205	-0.165449	0.240884
