data_functionalizedCrystal
_audit_creation_method	'MofGen! by Chris Wilmer'
_symmetry_space_group_name_H-M	'P1'
_symmetry_Int_Tables_number	1
_symmetry_cell_setting	triclinic
loop_
_symmetry_equiv_pos_as_xyz
  x,y,z
_cell_length_a	15.297475
_cell_length_b	21.295416
_cell_length_c	15.296720
_cell_angle_alpha	99.640632
_cell_angle_beta	88.382886
_cell_angle_gamma	99.667634
loop_
_atom_site_label
_atom_site_type_symbol
_atom_site_fract_x
_atom_site_fract_y
_atom_site_fract_z
Zn1	Zn	1.253312	0.489900	0.726542
Zn2	Zn	1.278558	0.580539	0.580048
Zn3	Zn	1.132196	0.454537	0.554787
Zn4	Zn	1.106785	0.574352	0.701177
O5	O	1.192713	0.524832	0.640639
O6	O	1.379236	0.519312	0.728297
O7	O	1.280343	0.551615	0.454124
O8	O	1.148331	0.371153	0.577615
O9	O	1.397784	0.585905	0.620668
O10	O	1.237314	0.397133	0.703803
O11	O	1.172811	0.459042	0.435565
O12	O	1.006250	0.453042	0.553019
O13	O	1.105022	0.575359	0.827115
O14	O	0.987581	0.541070	0.660571
O15	O	1.212675	0.513312	0.845751
O16	O	1.255703	0.667794	0.596072
O17	O	1.129502	0.663248	0.685065
C18	C	0.965133	0.492548	0.601302
C19	C	0.867770	0.478754	0.584494
C20	C	0.554598	0.623426	0.760768
C21	C	0.646076	0.636390	0.776557
C22	C	0.701504	0.596982	0.728543
C23	C	0.665445	0.544607	0.664736
C24	C	0.573959	0.531644	0.648941
C25	C	0.720865	0.505201	0.616716
C26	C	0.684807	0.452826	0.552909
C27	C	0.593329	0.439865	0.537117
C28	C	0.537901	0.479273	0.585131
C29	C	0.812351	0.518164	0.632512
C30	C	0.831712	0.426383	0.520685
C31	C	0.740235	0.413418	0.504895
C32	C	1.192605	0.688364	0.640580
C33	C	1.192634	0.758338	0.640598
C34	C	1.258387	0.793563	0.594328
C35	C	1.258424	0.859314	0.594358
C36	C	1.192695	0.889833	0.640648
C37	C	1.126937	0.854600	0.686929
C38	C	1.126906	0.788852	0.686904
N39	N	1.114912	0.982900	0.634087
N40	N	1.114944	1.045358	0.634106
C41	C	1.192783	1.087928	0.640727
N42	N	1.270593	1.065680	0.647312
N43	N	1.270561	1.003216	0.647289
C44	C	1.192721	0.961126	0.640681
C45	C	1.258581	1.194449	0.594488
C46	C	1.258619	1.260202	0.594525
C47	C	1.127124	1.255485	0.687090
C48	C	1.127094	1.189735	0.687058
C49	C	1.192822	1.159220	0.640753
C50	C	1.421181	0.557243	0.680129
C51	C	1.518540	0.571055	0.696958
C52	C	1.153198	0.547590	0.869103
C53	C	1.136359	0.557288	0.966461
C54	C	1.192840	1.360669	0.640736
C55	C	1.192890	1.290717	0.640816
C56	C	1.232124	0.502125	0.413071
C57	C	1.249133	0.492273	0.315743
C58	C	1.313096	0.455413	1.279710
C59	C	1.328922	0.446303	1.188238
C60	C	1.280783	0.474048	1.132790
C61	C	1.216814	0.510906	1.168822
C62	C	1.200991	0.520021	1.260303
C63	C	1.168678	0.538656	1.113383
C64	C	1.104709	0.575513	1.149415
C65	C	1.088889	0.584626	1.240888
C66	C	1.137028	0.556881	1.296336
C67	C	1.184501	0.529541	1.021901
C68	C	1.072396	0.594148	1.002494
C69	C	1.056570	0.603258	1.093966
H70	H	0.563975	0.397223	0.485153
H71	H	1.311908	0.768721	0.556625
H72	H	1.033198	0.616742	0.957348
H73	H	0.841701	0.560808	0.684464
N74	N	1.056042	0.887517	0.736849
H75	H	0.995826	0.865884	0.712374
H76	H	1.058842	0.884201	0.801772
N77	N	0.494810	0.665921	0.812543
H78	H	0.499913	0.664712	0.877905
H79	H	0.513103	0.711746	0.801497
H80	H	0.463411	0.468719	0.572281
H81	H	1.381008	0.416296	1.158908
N82	N	1.055975	0.750857	0.736806
H83	H	1.021563	0.714318	0.694151
H84	H	1.084561	0.732672	0.783561
N85	N	0.701342	0.356940	0.436061
H86	H	0.634981	0.354714	0.433339
H87	H	0.728144	0.362708	0.376243
H88	H	1.312167	1.288883	0.556848
H89	H	1.311970	0.888001	0.556680
H90	H	0.876843	0.394294	0.481586
N91	N	0.800167	0.610965	0.745583
H92	H	0.819424	0.572542	0.765607
H93	H	0.832519	0.619613	0.689244
N94	N	0.684968	0.692878	0.845367
H95	H	0.635975	0.715876	0.873387
H96	H	0.715927	0.676729	0.892525
H97	H	1.312103	1.169604	0.556786
H98	H	1.073610	1.280334	0.724784
H99	H	1.073549	1.161051	0.724732
N100	N	1.253493	0.489793	0.983043
H101	H	1.237177	0.444479	0.996633
H102	H	1.256184	0.488282	0.916692
N103	N	1.297836	0.464224	1.034128
H104	H	1.361723	0.482124	1.022466
H105	H	1.285532	0.416560	1.009400
H106	H	1.352289	0.432832	1.324865
N107	N	1.119933	0.566688	1.394994
H108	H	1.160127	0.543509	1.424647
H109	H	1.132163	0.614350	1.419740
N110	N	1.019906	0.624386	1.279756
H111	H	0.991809	0.640579	1.230752
H112	H	0.972826	0.596797	1.310718
H113	H	1.004486	0.633267	1.123317
