data_functionalizedCrystal
_audit_creation_method	'MofGen! by Chris Wilmer'
_symmetry_space_group_name_H-M	'P1'
_symmetry_Int_Tables_number	1
_symmetry_cell_setting	triclinic
loop_
_symmetry_equiv_pos_as_xyz
  x,y,z
_cell_length_a	23.096457
_cell_length_b	20.875492
_cell_length_c	20.875625
_cell_angle_alpha	60.168684
_cell_angle_beta	92.969759
_cell_angle_gamma	58.317085
loop_
_atom_site_label
_atom_site_type_symbol
_atom_site_fract_x
_atom_site_fract_y
_atom_site_fract_z
Zr1	Zr	0.517301	0.740651	-0.122774
O2	O	0.413093	0.881813	-0.232545
O3	O	0.554072	0.599488	-0.084025
O4	O	0.540841	0.740653	-0.225198
O5	O	0.431270	0.740646	0.014188
O6	O	0.636121	0.740655	-0.225202
O7	O	0.426324	0.740648	-0.091372
O8	O	0.659789	0.488137	0.027330
O9	O	0.407602	0.993164	-0.238344
O10	O	0.635030	0.657552	-0.073662
O11	O	0.567616	0.657549	0.005120
O12	O	0.552038	0.823752	-0.161093
O13	O	0.484623	0.823749	-0.082312
Zr14	Zr	0.677151	0.740651	0.045576
Zr15	Zr	0.669261	0.740654	-0.122780
Zr16	Zr	0.525190	0.740648	0.045583
Zr17	Zr	0.508544	0.918243	-0.132023
Zr18	Zr	0.685907	0.563058	0.054825
O19	O	0.640379	0.881813	0.006828
O20	O	0.629161	0.881817	-0.232554
O21	O	0.424310	0.881808	0.006837
O22	O	0.781359	0.599488	0.155347
O23	O	0.770141	0.599493	-0.084034
O24	O	0.565290	0.599484	0.155356
O25	O	0.763181	0.740655	-0.091386
O26	O	0.653610	0.740648	0.148000
O27	O	0.558330	0.740646	0.148004
O28	O	0.768128	0.740653	0.014174
O29	O	0.528391	0.993166	-0.238349
O30	O	0.666061	0.488135	0.161151
O31	O	0.786849	0.488137	0.161146
O32	O	0.780578	0.488140	0.027325
O33	O	0.413873	0.993162	-0.104523
O34	O	0.534662	0.993164	-0.104528
O35	O	0.642414	0.657549	0.083895
O36	O	0.709829	0.657552	0.005114
O37	O	0.626836	0.823752	-0.082317
O38	O	0.559421	0.823749	-0.003536
C39	C	0.608179	0.518510	-0.027030
C40	C	0.611896	0.443117	-0.023103
C41	C	0.555398	0.469063	-0.082619
C42	C	0.558891	0.398237	-0.078958
C43	C	0.618880	0.301466	-0.015777
C44	C	0.675383	0.275519	0.043741
C45	C	0.671892	0.346345	0.040076
C46	C	0.635568	0.083063	0.001759
C47	C	0.639053	0.012238	0.005421
C48	C	0.522562	0.134961	-0.117279
C49	C	0.519074	0.205782	-0.120936
C50	C	0.575579	0.179830	-0.061420
N51	N	0.622450	0.229068	-0.012032
N52	N	0.572011	0.252227	-0.065169
C53	C	0.407146	0.740647	-0.038591
C54	C	0.342635	0.740646	-0.038588
C55	C	0.355650	0.653893	0.007042
C56	C	0.295035	0.653892	0.007046
C57	C	0.221404	0.740648	-0.038597
C58	C	0.208390	0.827411	-0.084230
C59	C	0.269006	0.827410	-0.084226
N60	N	0.092288	0.805225	-0.108888
N61	N	0.034708	0.805221	-0.108890
C62	C	0.038770	0.740656	-0.038611
N63	N	0.102593	0.676082	0.031670
N64	N	0.160179	0.676085	0.031671
C65	C	0.155671	0.740659	-0.038606
C66	C	-0.013938	0.653897	0.007027
C67	C	-0.074556	0.653899	0.007033
C68	C	-0.161201	0.827421	-0.084251
C69	C	-0.100582	0.827416	-0.084249
C70	C	-0.026954	0.740651	-0.038611
C71	C	0.787306	0.740654	-0.038607
C72	C	0.851817	0.740656	-0.038609
C73	C	0.587357	0.740654	-0.249187
C74	C	0.584008	0.740656	-0.320659
C75	C	0.586273	0.962791	-0.050168
C76	C	0.582556	1.038184	-0.054094
C77	C	0.634925	0.740658	-0.354239
C78	C	0.631780	0.740651	-0.421390
C79	C	0.577715	0.740648	-0.454963
C80	C	0.526796	0.740643	-0.421377
C81	C	0.529944	0.740643	-0.354224
C82	C	0.562673	0.740640	-0.655800
C83	C	0.559527	0.740643	-0.722959
C84	C	0.664512	0.740649	-0.722966
C85	C	0.667653	0.740656	-0.655814
C86	C	0.616737	0.740645	-0.622232
N87	N	0.574498	0.740644	-0.523604
N88	N	0.619958	0.740643	-0.553589
C89	C	0.607094	0.740647	0.171990
C90	C	0.610443	0.740645	0.243461
C91	C	0.798258	0.518513	-0.027038
C92	C	0.866487	0.443122	-0.023114
C93	C	0.618047	0.518506	0.183559
C94	C	0.625114	0.443112	0.258957
C95	C	0.808127	0.518510	0.183551
C96	C	0.879705	0.443117	0.258946
C97	C	0.386325	0.962791	-0.260749
C98	C	0.314747	1.038184	-0.336144
C99	C	0.396193	0.962788	-0.050160
C100	C	0.327965	1.038179	-0.054084
C101	C	0.576404	0.962795	-0.260756
C102	C	0.569338	1.038189	-0.336155
C103	C	0.859484	0.407718	-0.062398
C104	C	0.923585	0.336889	-0.058728
C105	C	0.994689	0.301462	-0.015768
C106	C	1.001690	0.336873	0.023518
C107	C	0.937590	0.407705	0.019842
C108	C	0.667476	0.407706	0.335492
C109	C	0.674113	0.336876	0.406342
C110	C	0.638391	0.301447	0.400656
C111	C	0.596023	0.336860	0.324113
C112	C	0.589382	0.407694	0.253264
C113	C	0.948515	0.407713	0.253230
C114	C	1.015775	0.336884	0.324065
C115	C	1.014223	0.301455	0.400616
C116	C	0.945406	0.336865	0.406331
C117	C	0.878147	0.407698	0.335496
C118	C	0.245936	1.073596	-0.330428
C119	C	0.178675	1.144448	-0.401264
C120	C	0.180227	1.179881	-0.477816
C121	C	0.249044	1.144466	-0.483530
C122	C	0.316303	1.073620	-0.412695
C123	C	0.334967	1.073591	-0.014807
C124	C	0.270864	1.144439	-0.018497
C125	C	0.199760	1.179869	-0.061460
C126	C	0.192759	1.144454	-0.100742
C127	C	0.256860	1.073612	-0.097056
C128	C	0.605069	1.073595	-0.330442
C129	C	0.598444	1.144426	-0.401280
C130	C	0.556083	1.179855	-0.477830
C131	C	0.520351	1.144442	-0.483540
C132	C	0.526981	1.073607	-0.412703
H133	H	0.512884	0.419372	-0.127421
C134	C	0.556735	0.297877	0.317870
C135	C	0.603463	0.190732	0.358325
C136	C	0.564180	0.151742	0.352087
C137	C	0.478169	0.219897	0.305392
C138	C	0.431437	0.327049	0.264934
C139	C	0.470720	0.366039	0.271173
H140	H	0.667137	0.140274	0.392894
H141	H	0.598774	0.072421	0.382037
H142	H	0.449090	0.191034	0.300774
H143	H	0.367763	0.377507	0.230365
H144	H	0.436125	0.445360	0.241222
H145	H	-0.111184	0.898059	-0.121412
H146	H	0.392858	1.044749	0.020183
C147	C	0.391994	1.034666	-0.418990
C148	C	0.393691	1.073645	-0.503198
C149	C	0.469380	1.034697	-0.509501
C150	C	0.543371	0.956769	-0.431596
C151	C	0.541677	0.917785	-0.347381
C152	C	0.465988	0.956733	-0.341079
H153	H	0.338916	1.131336	-0.560874
H154	H	0.470633	1.063556	-0.571843
H155	H	0.599400	0.927937	-0.436261
H156	H	0.596452	0.860094	-0.289706
H157	H	0.464734	0.927874	-0.278737
C158	C	0.741373	0.169071	0.113241
C159	C	0.803521	0.140532	0.178705
C160	C	0.869512	0.034083	0.248207
C161	C	0.873354	-0.043826	0.252245
C162	C	0.811203	-0.015289	0.186778
C163	C	0.745212	0.091160	0.117276
H164	H	0.800679	0.198206	0.175719
H165	H	0.915520	0.012958	0.296670
H166	H	0.922204	-0.122626	0.303694
H167	H	0.814045	-0.072963	0.189765
H168	H	0.699204	0.112285	0.068813
C169	C	0.244217	1.034630	-0.246227
C170	C	0.318190	0.956701	-0.168300
C171	C	0.316463	0.917743	-0.084102
C172	C	0.240763	0.956714	-0.077832
C173	C	0.166785	1.034648	-0.155762
C174	C	0.168512	1.073606	-0.239960
H175	H	0.374232	0.927849	-0.172939
H176	H	0.371227	0.860051	-0.026413
H177	H	0.239485	0.927875	-0.015504
H178	H	0.110742	1.063500	-0.151123
H179	H	0.113748	1.131297	-0.297649
H180	H	0.415598	0.583243	0.044199
C181	C	0.309344	0.558459	0.057227
C182	C	0.390330	0.463024	0.107417
C183	C	0.404641	0.367592	0.157590
C184	C	0.337964	0.367595	0.157574
C185	C	0.256972	0.463035	0.107382
C186	C	0.242662	0.558467	0.057208
H187	H	0.439693	0.463018	0.107430
H188	H	0.464597	0.296941	0.194746
H189	H	0.348558	0.296951	0.194716
H190	H	0.207609	0.463041	0.107368
H191	H	0.182705	0.629117	0.020053
C192	C	0.102984	1.183386	-0.394965
C193	C	0.080333	1.232052	-0.354314
C194	C	0.004645	1.270985	-0.348011
C195	C	-0.048393	1.261253	-0.382360
C196	C	-0.025743	1.212584	-0.423014
C197	C	0.049945	1.173651	-0.429316
H198	H	0.119596	1.239258	-0.328884
H199	H	-0.012121	1.307013	-0.317917
H200	H	-0.104422	1.290074	-0.377695
H201	H	-0.065006	1.205378	-0.448443
H202	H	0.066711	1.137623	-0.459411
C203	C	0.734039	0.317807	0.105545
C204	C	0.816091	0.257464	0.117485
C205	C	0.878242	0.228923	0.182953
C206	C	0.858342	0.260725	0.236481
C207	C	0.776286	0.321071	0.224543
C208	C	0.714135	0.349612	0.159075
H209	H	0.830826	0.233919	0.077859
H210	H	0.938985	0.184251	0.191791
H211	H	0.904350	0.239598	0.284944
H212	H	0.761551	0.344616	0.264169
H213	H	0.653392	0.394285	0.150237
C214	C	1.065197	0.223540	-0.011723
C215	C	1.143414	0.184559	0.035532
C216	C	1.213919	0.106635	0.039576
C217	C	1.206206	0.067692	-0.003635
C218	C	1.127986	0.106673	-0.050893
C219	C	1.057481	0.184597	-0.054937
H220	H	1.149126	0.213387	0.067522
H221	H	1.271823	0.077779	0.074560
H222	H	1.258398	0.010008	-0.000641
H223	H	1.122274	0.077844	-0.082883
H224	H	0.999577	0.213453	-0.089921
C225	C	0.727127	0.740653	-0.618878
C226	C	0.783135	0.740665	-0.655814
C227	C	0.842607	0.740667	-0.618877
C228	C	0.846070	0.740657	-0.545006
C229	C	0.790060	0.740645	-0.508066
C230	C	0.730589	0.740643	-0.545002
H231	H	0.780573	0.740673	-0.710502
H232	H	0.884069	0.740676	-0.646223
H233	H	0.890094	0.740658	-0.517663
H234	H	0.792622	0.740637	-0.453378
H235	H	0.689126	0.740634	-0.517657
C236	C	0.067058	0.558461	0.057234
C237	C	0.091872	0.486883	0.039492
C238	C	0.172866	0.391448	0.089699
C239	C	0.229046	0.367592	0.157647
C240	C	0.204232	0.439172	0.175392
C241	C	0.123238	0.534607	0.125185
H242	H	0.050283	0.504541	-0.010811
H243	H	0.191234	0.338460	0.076562
H244	H	0.289002	0.296945	0.194814
H245	H	0.245821	0.421513	0.225695
H246	H	0.104870	0.587595	0.138322
C247	C	0.950234	0.446680	0.169029
C248	C	1.025933	0.407731	0.162758
C249	C	1.027659	0.446696	0.078560
C250	C	0.953687	0.524610	0.000633
C251	C	0.877983	0.563564	0.006901
C252	C	0.876256	0.524599	0.091099
H253	H	1.080696	0.350050	0.220446
H254	H	1.083701	0.417859	0.073920
H255	H	0.954965	0.553455	-0.061695
H256	H	0.823219	0.621245	-0.050787
H257	H	0.820215	0.553435	0.095739
C258	C	1.079908	0.297892	0.070780
C259	C	1.108789	0.249174	0.162645
C260	C	1.187009	0.210186	0.209913
C261	C	1.236346	0.219915	0.165317
C262	C	1.207466	0.268635	0.073448
C263	C	1.129246	0.307624	0.026179
H264	H	1.072266	0.241970	0.195662
H265	H	1.208388	0.174120	0.277921
H266	H	1.294249	0.191054	0.200308
H267	H	1.243989	0.275839	0.040431
H268	H	1.107867	0.343690	-0.041829
C269	C	-0.242189	0.922855	-0.134458
C270	C	-0.308866	0.922863	-0.134465
C271	C	-0.389859	1.018300	-0.184671
C272	C	-0.404174	1.113730	-0.234870
C273	C	-0.337494	1.113726	-0.234865
C274	C	-0.256501	1.018289	-0.184659
H275	H	-0.298271	0.852216	-0.097303
H276	H	-0.439219	1.018302	-0.184674
H277	H	-0.464129	1.184379	-0.272035
H278	H	-0.348089	1.184373	-0.272027
H279	H	-0.207141	1.018287	-0.184656
C280	C	0.127397	0.922843	-0.134439
C281	C	0.071222	0.946706	-0.202397
C282	C	-0.009772	1.042141	-0.252605
C283	C	-0.034590	1.113714	-0.234855
C284	C	0.021586	1.089853	-0.166895
C285	C	0.102580	0.994418	-0.116687
H286	H	0.089593	0.893722	-0.215539
H287	H	-0.051358	1.059804	-0.302914
H288	H	-0.094547	1.184360	-0.272022
H289	H	0.003215	1.142837	-0.153753
H290	H	0.144166	0.976755	-0.066378
C291	C	0.706771	0.446672	0.341760
C292	C	0.753360	0.407721	0.425956
C293	C	0.792654	0.446686	0.432232
C294	C	0.785359	0.524602	0.354313
C295	C	0.738768	0.563557	0.270111
C296	C	0.699475	0.524592	0.263834
H297	H	0.758762	0.350039	0.483642
H298	H	0.827143	0.417848	0.494565
H299	H	0.814447	0.553446	0.358959
H300	H	0.733367	0.621239	0.212424
H301	H	0.664985	0.553430	0.201502
H302	H	0.506542	0.547857	-0.134059
H303	H	0.708615	0.308051	0.468660
C304	C	0.694399	0.740661	-0.317311
C305	C	0.778540	0.658020	-0.283078
C306	C	0.838018	0.658019	-0.246151
C307	C	0.813354	0.740660	-0.243457
C308	C	0.729208	0.823308	-0.277692
C309	C	0.669731	0.823308	-0.314619
H310	H	0.796802	0.596839	-0.285071
H311	H	0.900308	0.596838	-0.220808
H312	H	0.857382	0.740660	-0.216122
H313	H	0.710947	0.884489	-0.275699
H314	H	0.607440	0.884490	-0.339962
C315	C	0.278579	1.183376	0.024725
C316	C	0.239792	1.290506	-0.024929
C317	C	0.247510	1.329440	0.018294
C318	C	0.294013	1.261243	0.111170
C319	C	0.332803	1.154107	0.160829
C320	C	0.325086	1.115174	0.117606
H321	H	0.205365	1.340995	-0.093686
H322	H	0.218795	1.408749	-0.018467
H323	H	0.299726	1.290064	0.143166
H324	H	0.367230	1.103618	0.229586
H325	H	0.353801	1.035864	0.154367
C326	C	0.637747	1.183377	-0.394986
C327	C	0.723755	1.115190	-0.348255
C328	C	0.763056	1.154139	-0.341958
C329	C	0.716349	1.261276	-0.382391
C330	C	0.630336	1.329470	-0.429125
C331	C	0.591035	1.290521	-0.435422
H332	H	0.758335	1.035875	-0.318321
H333	H	0.826729	1.103656	-0.307362
H334	H	0.745442	1.290108	-0.377730
H335	H	0.595756	1.408785	-0.459059
H336	H	0.527362	1.341003	-0.470018
H337	H	0.470234	0.284576	-0.172395
C338	C	0.915871	0.297939	-0.101937
C339	C	0.943702	0.307693	-0.169173
C340	C	0.935987	0.268744	-0.212381
C341	C	0.900440	0.220043	-0.188353
C342	C	0.872606	0.210287	-0.121113
C343	C	0.880322	0.249235	-0.077905
H344	H	0.970018	0.343747	-0.186964
H345	H	0.956591	0.275967	-0.262157
H346	H	0.894728	0.191211	-0.220338
H347	H	0.846290	0.174233	-0.103322
H348	H	0.859718	0.242013	-0.028130
C349	C	1.091466	0.297936	0.317765
C350	C	1.150266	0.190799	0.358198
C351	C	1.225954	0.151854	0.351895
C352	C	1.242843	0.220045	0.305160
C353	C	1.184042	0.327188	0.264724
C354	C	1.108353	0.366133	0.271026
H355	H	1.137765	0.140315	0.392797
H356	H	1.269483	0.072539	0.381829
H357	H	1.298872	0.191215	0.300494
H358	H	1.196543	0.377673	0.230124
H359	H	1.064825	0.445448	0.241093
H360	H	0.476559	0.156080	-0.165735
H361	H	-0.063951	0.583252	0.044196
H362	H	0.687905	-0.066562	0.056874
H363	H	0.550690	1.237533	-0.535503
H364	H	0.681579	0.061921	0.050221
H365	H	0.554889	0.436512	0.190949
C366	C	0.467322	0.740640	-0.458305
C367	C	0.463855	0.740635	-0.532168
C368	C	0.404378	0.740635	-0.569095
C369	C	0.348367	0.740641	-0.532159
C370	C	0.351832	0.740645	-0.458291
C371	C	0.411309	0.740645	-0.421364
H372	H	0.505320	0.740631	-0.559515
H373	H	0.401813	0.740632	-0.623777
H374	H	0.304338	0.740641	-0.559495
H375	H	0.310367	0.740649	-0.430945
H376	H	0.413873	0.740648	-0.366682
H377	H	0.258402	0.898057	-0.121382
H378	H	0.801592	0.436562	-0.097391
H379	H	0.673241	0.740652	-0.448730
H380	H	0.521213	0.740634	-0.628463
H381	H	0.944154	0.308008	0.468668
C382	C	0.720524	0.740650	-0.759901
C383	C	0.774061	0.658010	-0.762598
C384	C	0.830078	0.658006	-0.799530
C385	C	0.832556	0.740644	-0.833766
C386	C	0.779017	0.823291	-0.831071
C387	C	0.723000	0.823294	-0.794139
H388	H	0.772228	0.596831	-0.737253
H389	H	0.869711	0.596825	-0.801525
H390	H	0.874023	0.740641	-0.861105
H391	H	0.780850	0.884469	-0.856416
H392	H	0.683367	0.884475	-0.792144
H393	H	0.515497	0.740641	-0.750292
H394	H	0.488484	0.740639	-0.326883
H395	H	0.943303	0.436523	0.051837
H396	H	0.147570	1.237553	-0.064454
H397	H	0.643804	0.243770	0.458353
H398	H	0.485860	1.173299	-0.545876
H399	H	1.068995	0.243778	0.458288
H400	H	0.822122	0.436515	0.340162
H401	H	0.125454	1.237567	-0.535488
H402	H	0.250298	1.173325	-0.545867
H403	H	0.134857	1.173312	-0.135721
H404	H	0.251149	1.044782	-0.129038
H405	H	0.639564	1.044760	-0.268119
H406	H	0.497880	1.044788	-0.417365
