data_functionalizedCrystal
_audit_creation_method	'MofGen! by Chris Wilmer'
_symmetry_space_group_name_H-M	'P1'
_symmetry_Int_Tables_number	1
_symmetry_cell_setting	triclinic
loop_
_symmetry_equiv_pos_as_xyz
  x,y,z
_cell_length_a	19.288864
_cell_length_b	9.065215
_cell_length_c	18.366186
_cell_angle_alpha	90.004098
_cell_angle_beta	90.022929
_cell_angle_gamma	84.075472
loop_
_atom_site_label
_atom_site_type_symbol
_atom_site_fract_x
_atom_site_fract_y
_atom_site_fract_z
O1	O	0.922781	0.184029	0.060782
O2	O	0.720713	0.208855	0.060732
O3	O	0.825925	-0.018347	0.060755
O4	O	0.817569	0.411231	0.060759
O5	O	0.825906	-0.018353	-0.060344
O6	O	0.720694	0.208848	-0.060367
O7	O	0.922762	0.184023	-0.060317
Zn8	Zn	0.821725	0.196435	-0.079569
Zn9	Zn	0.821750	0.196443	0.079984
O10	O	0.817551	0.411225	-0.060340
C11	C	0.694821	0.208053	0.000176
C12	C	0.617699	0.205655	0.000157
C13	C	0.825113	-0.073309	0.000206
C14	C	0.822713	-0.237068	0.000208
C15	C	0.574037	0.338967	0.000170
C16	C	0.501572	0.336714	0.000178
C17	C	0.472773	0.201142	0.000188
C18	C	0.516444	0.067813	0.000171
C19	C	0.588907	0.070069	0.000155
C20	C	0.363690	0.094569	0.042638
C21	C	0.291228	0.092318	0.042657
C22	C	0.249273	0.194176	0.000232
C23	C	0.279787	0.298310	-0.042205
C24	C	0.352250	0.300567	-0.042220
C25	C	0.394200	0.198680	0.000204
C26	C	0.127036	0.325054	0.000252
C27	C	0.054571	0.322796	0.000256
C28	C	0.069445	0.053891	0.000256
C29	C	0.141909	0.056153	0.000245
C30	C	0.170700	0.191739	0.000247
C31	C	0.948654	0.184825	0.000240
C32	C	1.025776	0.187223	0.000264
C33	C	0.818362	0.466186	0.000211
C34	C	0.820762	0.629946	0.000214
N35	N	0.821714	0.196428	-0.188461
C36	C	0.864394	0.285682	-0.226543
C37	C	0.864405	0.285678	-0.302771
C38	C	0.821724	0.196437	-0.340913
C39	C	0.779041	0.107165	-0.302822
C40	C	0.779036	0.107161	-0.226595
C41	C	0.759083	0.192706	-0.461710
C42	C	0.759086	0.192721	-0.537935
C43	C	0.821739	0.196442	-0.576021
C44	C	0.884390	0.200179	-0.537873
C45	C	0.884385	0.200175	-0.461646
C46	C	0.821725	0.196431	-0.423568
C47	C	0.864435	0.285696	-0.696758
C48	C	0.864448	0.285681	-0.772987
C49	C	0.779077	0.107177	-0.773037
C50	C	0.779071	0.107183	-0.696809
C51	C	0.821749	0.196451	-0.658674
N52	N	0.821767	0.196438	0.188875
H53	H	0.597474	0.449371	0.000172
O54	O	0.910429	0.381954	-0.185416
H55	H	0.903253	0.366969	-0.126012
O56	O	0.910471	0.381952	-0.655618
H57	H	0.940162	0.443998	-0.694909
O58	O	0.234543	0.408172	-0.087972
H59	H	0.242148	0.522611	-0.070506
H60	H	0.266389	0.007532	0.077214
O61	O	0.485389	-0.078417	0.000178
H62	H	0.452765	-0.085889	0.049546
H63	H	0.466016	0.445276	0.000186
H64	H	0.899208	0.358358	-0.803993
H65	H	0.744313	0.034509	-0.665802
H66	H	0.150480	0.435456	0.000243
H67	H	0.397845	0.011621	0.077190
O68	O	0.007472	0.466588	0.000267
H69	H	0.039670	0.561241	0.000271
H70	H	0.935408	0.203217	-0.568880
O71	O	0.385169	0.412817	-0.088017
H72	H	0.343828	0.483251	-0.117531
H73	H	0.744326	0.034514	-0.804092
H74	H	0.899161	0.358363	-0.333784
H75	H	0.045997	-0.056494	0.000309
H76	H	0.177459	-0.052404	0.000239
O77	O	0.951953	0.204173	-0.420497
H78	H	0.995525	0.206746	-0.459781
O79	O	0.636007	-0.073722	0.000145
H80	H	0.603811	-0.168377	0.000155
O81	O	0.691535	0.188419	-0.579080
H82	H	0.647976	0.185701	-0.539792
O83	O	0.691503	0.188703	-0.420632
H84	H	0.647939	0.186133	-0.459963
O85	O	0.733013	0.010884	-0.343951
H86	H	0.677701	0.043254	-0.329341
O87	O	0.732994	0.010905	-0.185513
H88	H	0.703313	-0.051148	-0.224839
