data_functionalizedCrystal
_audit_creation_method	'MofGen! by Chris Wilmer'
_symmetry_space_group_name_H-M	'P1'
_symmetry_Int_Tables_number	1
_symmetry_cell_setting	triclinic
loop_
_symmetry_equiv_pos_as_xyz
  x,y,z
_cell_length_a	16.120484
_cell_length_b	17.639504
_cell_length_c	17.640968
_cell_angle_alpha	70.332680
_cell_angle_beta	97.807442
_cell_angle_gamma	75.383133
loop_
_atom_site_label
_atom_site_type_symbol
_atom_site_fract_x
_atom_site_fract_y
_atom_site_fract_z
Zn1	Zn	0.110215	-1.358806	0.716865
Zn2	Zn	-0.064563	-1.323833	0.585991
Zn3	Zn	0.039567	-1.190264	0.553951
Zn4	Zn	-0.064476	-1.213926	0.695869
O5	O	0.005186	-1.271707	0.638169
O6	O	0.116561	-1.470698	0.721700
O7	O	-0.080352	-1.281576	0.467577
O8	O	0.165626	-1.217354	0.570940
O9	O	-0.011847	-1.445004	0.625548
O10	O	0.217532	-1.341181	0.690632
O11	O	-0.003849	-1.183443	0.444037
O12	O	-0.003765	-1.076870	0.550581
O13	O	-0.011700	-1.257683	0.812818
O14	O	-0.080205	-1.094255	0.654848
O15	O	0.116645	-1.364126	0.828244
O16	O	-0.181239	-1.304520	0.605189
O17	O	-0.181175	-1.223772	0.685916
C18	C	-0.049642	-1.055347	0.596960
C19	C	-0.073113	-0.962791	0.579350
C20	C	0.183619	-0.725305	0.772130
C21	C	0.161539	-0.638330	0.755567
C22	C	0.027965	-0.611572	0.655287
C23	C	0.050031	-0.698547	0.671843
C24	C	0.127860	-0.755407	0.730265
C25	C	-0.005728	-0.728648	0.629979
C26	C	0.016340	-0.815616	0.646531
C27	C	0.094166	-0.872481	0.704949
C28	C	0.149927	-0.842374	0.746818
C29	C	-0.083552	-0.671786	0.571553
C30	C	-0.139311	-0.701888	0.529689
C31	C	-0.117248	-0.788857	0.546245
C32	C	-0.039422	-0.845722	0.604662
C33	C	-0.173009	-0.818964	0.504376
C34	C	-0.150942	-0.905931	0.520929
C35	C	-0.017354	-0.932689	0.621215
C36	C	-0.211453	-1.262945	0.646773
C37	C	-0.304105	-1.259279	0.650495
C38	C	-0.473737	-1.252594	0.657309
C39	C	-0.515010	-1.290972	0.619071
C40	C	-0.609398	-1.287253	0.622862
C41	C	-0.379339	-1.256313	0.653519
C42	C	0.222681	-1.280529	0.629554
C43	C	0.315364	-1.284289	0.625883
C44	C	0.060363	-1.317445	0.850960
C45	C	0.083876	-1.336936	0.941640
C46	C	0.060239	-0.488912	0.679536
C47	C	0.083729	-0.581471	0.697156
C48	C	-0.049704	-1.226197	0.426212
C49	C	-0.072941	-1.206877	0.335555
C50	C	-0.172905	-1.123975	1.199721
C51	C	-0.150796	-1.142308	1.284931
C52	C	-0.017161	-1.253137	1.300982
C53	C	-0.039257	-1.234811	1.215771
C54	C	-0.117130	-1.170230	1.165147
C55	C	0.016517	-1.281066	1.181197
C56	C	-0.005579	-1.262744	1.095995
C57	C	-0.083450	-1.198167	1.045366
C58	C	-0.139227	-1.151908	1.079945
C59	C	0.094387	-1.345651	1.231823
C60	C	0.150162	-1.391905	1.197250
C61	C	0.128069	-1.373580	1.112045
C62	C	0.050198	-1.309003	1.061416
C63	C	0.183846	-1.419839	1.077466
C64	C	0.161749	-1.401517	0.992263
C65	C	0.028101	-1.290681	0.976213
H66	H	0.112133	-0.943294	0.718422
F67	F	0.221109	-1.450748	0.955465
H68	H	-0.202677	-0.655580	0.482119
H69	H	0.213300	-0.888674	0.794394
F70	F	0.266448	-0.785827	0.834316
H71	H	0.112374	-1.360568	1.301201
H72	H	-0.202624	-1.099301	1.038719
H73	H	-0.509288	-1.216946	0.692889
H74	H	0.046019	-0.978989	0.668791
H75	H	-0.196346	-0.930439	0.486838
H76	H	0.206954	-0.613826	0.789659
H77	H	-0.236302	-1.071368	1.158496
F78	F	-0.054861	-0.551048	0.593109
H79	H	-0.196220	-1.104637	1.313077
H80	H	-0.479456	-1.326622	0.583486
F81	F	-0.054776	-1.221940	0.922329
H82	H	-0.101442	-1.183254	0.975990
H83	H	0.213565	-1.444489	1.238479
F84	F	0.065713	-1.321869	1.354868
H85	H	0.247245	-1.472426	1.118697
H86	H	-0.236372	-0.772654	0.456803
F87	F	-0.107033	-0.579226	0.553933
