data_functionalizedCrystal
_audit_creation_method	'MofGen! by Chris Wilmer'
_symmetry_space_group_name_H-M	'P1'
_symmetry_Int_Tables_number	1
_symmetry_cell_setting	triclinic
loop_
_symmetry_equiv_pos_as_xyz
  x,y,z
_cell_length_a	12.594516
_cell_length_b	10.686154
_cell_length_c	10.686551
_cell_angle_alpha	89.693980
_cell_angle_beta	85.596700
_cell_angle_gamma	85.605258
loop_
_atom_site_label
_atom_site_type_symbol
_atom_site_fract_x
_atom_site_fract_y
_atom_site_fract_z
Zn1	Zn	-0.259568	-1.972288	-0.562463
Zn2	Zn	-0.452216	-1.956055	-0.352713
Zn3	Zn	-0.286787	-1.746405	-0.368774
Zn4	Zn	-0.450052	-1.762484	-0.578484
O5	O	-0.362155	-1.859308	-0.465609
O6	O	-0.274638	-2.145677	-0.521212
O7	O	-0.442569	-1.914721	-0.179298
O8	O	-0.134225	-1.776433	-0.394484
O9	O	-0.416176	-2.133751	-0.367110
O10	O	-0.114227	-1.942388	-0.536786
O11	O	-0.321028	-1.760693	-0.191098
O12	O	-0.318929	-1.572995	-0.410020
O13	O	-0.412486	-1.803838	-0.751904
O14	O	-0.438880	-1.584809	-0.564093
O15	O	-0.272539	-1.957980	-0.740134
O16	O	-0.600880	-1.930313	-0.382646
O17	O	-0.599290	-1.788098	-0.548519
C18	C	-0.381624	-1.533386	-0.490538
C19	C	-0.389976	-1.393958	-0.501233
C20	C	-0.638702	-1.859225	-0.465603
C21	C	-0.757000	-1.859307	-0.465633
C22	C	-0.825432	-1.781944	-0.555793
C23	C	-0.906109	-1.742591	-0.443665
C24	C	-0.887114	-1.898775	-0.577773
C25	C	-0.836127	-1.819890	-0.353448
C26	C	-0.817118	-1.976133	-0.487630
C27	C	-0.897765	-1.936818	-0.375419
C28	C	-0.084525	-1.859428	-0.465640
C29	C	0.033785	-1.859479	-0.465653
C30	C	-0.339235	-1.884513	-0.792809
C31	C	-0.329468	-1.895254	-0.932242
C32	C	-0.342602	-1.186502	-0.440574
C33	C	-0.334244	-1.325931	-0.429885
C34	C	-0.384906	-1.834273	-0.139676
C35	C	-0.394359	-1.823775	-0.000225
H36	H	-0.793709	-1.716385	-0.631946
H37	H	-0.944924	-1.643874	-0.425079
C38	C	-0.463079	-1.328541	-0.594811
C39	C	-0.583739	-1.345615	-0.582982
C40	C	-0.656841	-1.280199	-0.676558
C41	C	-0.609281	-1.197708	-0.781964
C42	C	-0.488614	-1.180631	-0.793799
C43	C	-0.415513	-1.246047	-0.700222
H44	H	-0.618951	-1.406682	-0.504949
H45	H	-0.746166	-1.292841	-0.667797
H46	H	-0.663395	-1.149283	-0.851235
H47	H	-0.453402	-1.119563	-0.871831
H48	H	-0.326187	-1.233405	-0.708983
C49	C	-0.805624	-1.774741	-0.225312
C50	C	-0.687311	-1.766261	-0.201640
C51	C	-0.656806	-1.721115	-0.073506
C52	C	-0.744612	-1.684449	0.030955
C53	C	-0.862932	-1.692928	0.007285
C54	C	-0.893438	-1.738074	-0.120848
H55	H	-0.622305	-1.793404	-0.278971
H56	H	-0.569217	-1.714839	-0.055985
H57	H	-0.722030	-1.651030	0.125807
H58	H	-0.927939	-1.665785	0.084616
H59	H	-0.981027	-1.744350	-0.138369
C60	C	-0.940403	-2.025281	-0.272324
C61	C	-0.922860	-2.000482	-0.133876
C62	C	-0.965508	-2.088932	-0.030778
C63	C	-1.025699	-2.202181	-0.066126
C64	C	-1.043244	-2.226985	-0.204580
C65	C	-1.000596	-2.138535	-0.307679
H66	H	-0.878301	-1.916644	-0.107703
H67	H	-0.952520	-2.070571	0.071715
H68	H	-1.057269	-2.267657	0.010193
H69	H	-1.087803	-2.310823	-0.230753
H70	H	-1.013585	-2.156897	-0.410172
H71	H	-0.909838	-1.932087	-0.672600
H72	H	-0.778303	-2.074832	-0.506272
H73	H	-0.457390	-1.754365	-0.951758
H74	H	-0.280141	-1.374357	-0.360619
H75	H	-0.266439	-1.964678	-0.980714
