data_functionalizedCrystal
_audit_creation_method	'MofGen! by Chris Wilmer'
_symmetry_space_group_name_H-M	'P1'
_symmetry_Int_Tables_number	1
_symmetry_cell_setting	triclinic
loop_
_symmetry_equiv_pos_as_xyz
  x,y,z
_cell_length_a	13.032721
_cell_length_b	13.033652
_cell_length_c	18.215399
_cell_angle_alpha	97.153811
_cell_angle_beta	82.845262
_cell_angle_gamma	76.639675
loop_
_atom_site_label
_atom_site_type_symbol
_atom_site_fract_x
_atom_site_fract_y
_atom_site_fract_z
Zn1	Zn	-0.216393	-1.570080	0.295247
Zn2	Zn	-0.394041	-1.547400	0.190092
Zn3	Zn	-0.239013	-1.392459	0.190080
Zn4	Zn	-0.416556	-1.369874	0.330985
O5	O	-0.316501	-1.469953	0.251601
O6	O	-0.221069	-1.715702	0.266347
O7	O	-0.373520	-1.526807	0.087114
O8	O	-0.087365	-1.434964	0.189069
O9	O	-0.351586	-1.699039	0.189090
O10	O	-0.070746	-1.565461	0.266335
O11	O	-0.259622	-1.412972	0.087105
O12	O	-0.281454	-1.240833	0.223723
O13	O	-0.389961	-1.396472	0.429221
O14	O	-0.411894	-1.224240	0.327245
O15	O	-0.242902	-1.543562	0.402965
O16	O	-0.545676	-1.504908	0.223744
O17	O	-0.562218	-1.374480	0.327257
C18	C	-0.351573	-1.193998	0.279361
C19	C	-0.366602	-1.075940	0.291257
C20	C	-0.592486	-1.434811	0.279393
C21	C	-0.710541	-1.419874	0.291297
C22	C	-0.308668	-1.031500	0.245402
C23	C	-0.324200	-0.909481	0.257696
C24	C	-0.754947	-1.477805	0.245416
C25	C	-0.876963	-1.462369	0.257718
C26	C	-0.039435	-1.505262	0.223714
C27	C	0.078634	-1.520308	0.211830
C28	C	-0.316420	-1.470027	0.443540
C29	C	-0.316385	-1.470059	0.525333
C30	C	-0.281285	-0.746987	0.223727
C31	C	-0.266257	-0.865045	0.211835
C32	C	-0.316498	-1.469950	0.060395
C33	C	-0.316207	-1.470163	-0.021449
C34	C	-0.239745	-1.546681	0.699848
C35	C	-0.239712	-1.546698	0.776702
C36	C	-0.392851	-1.393532	0.804033
C37	C	-0.392878	-1.393512	0.727179
C38	C	-0.316326	-1.470092	0.675089
C39	C	-0.316266	-1.470129	0.828796
C40	C	-0.316231	-1.470147	0.912125
C41	C	-0.316359	-1.470074	0.591754
H42	H	-0.247573	-1.083788	0.197040
C43	C	-0.684278	-1.560249	0.180042
N44	N	-0.631051	-1.622345	0.130801
H45	H	-0.762855	-1.358854	0.339688
C46	C	-0.477125	-1.309251	0.699944
N47	N	-0.540574	-1.245786	0.679429
H48	H	-0.385306	-0.857196	0.306057
C49	C	-0.155469	-1.630954	0.803933
N50	N	-0.092013	-1.694420	0.824442
C51	C	-0.947629	-1.379919	0.323093
N52	N	-1.000857	-1.317817	0.372332
H53	H	-0.869055	-1.581341	0.163441
C54	C	-0.155527	-1.630913	0.642550
N55	N	-0.092088	-1.694356	0.599395
C56	C	-0.183709	-0.935673	0.146496
N57	N	-0.121534	-0.988871	0.097284
H58	H	-0.427705	-1.023651	0.339615
C59	C	-0.477052	-1.309297	0.861339
N60	N	-0.540475	-1.245849	0.904502
