data_functionalizedCrystal
_audit_creation_method	'MofGen! by Chris Wilmer'
_symmetry_space_group_name_H-M	'P1'
_symmetry_Int_Tables_number	1
_symmetry_cell_setting	triclinic
loop_
_symmetry_equiv_pos_as_xyz
  x,y,z
_cell_length_a	12.827893
_cell_length_b	21.295416
_cell_length_c	12.827885
_cell_angle_alpha	89.964373
_cell_angle_beta	90.019272
_cell_angle_gamma	89.969508
loop_
_atom_site_label
_atom_site_type_symbol
_atom_site_fract_x
_atom_site_fract_y
_atom_site_fract_z
Zn1	Zn	1.597561	0.250576	0.590806
Zn2	Zn	1.597410	0.355858	0.416049
Zn3	Zn	1.422803	0.250607	0.416080
Zn4	Zn	1.422742	0.355812	0.590749
O5	O	1.510129	0.303213	0.503421
O6	O	1.743777	0.264548	0.567635
O7	O	1.574209	0.341929	0.269817
O8	O	1.446073	0.162514	0.439295
O9	O	1.743666	0.341899	0.439242
O10	O	1.574468	0.162491	0.567666
O11	O	1.445926	0.264601	0.269840
O12	O	1.276558	0.264556	0.439239
O13	O	1.445971	0.341819	0.736992
O14	O	1.276514	0.341850	0.567567
O15	O	1.574409	0.264503	0.737035
O16	O	1.574151	0.443941	0.439186
O17	O	1.445824	0.443907	0.567537
C18	C	1.238619	0.303202	0.503401
C19	C	1.122466	0.303212	0.503417
C20	C	1.070736	0.265004	0.567049
C21	C	0.950686	0.265014	0.567068
C22	C	1.509993	0.466765	0.503375
C23	C	1.510030	0.536733	0.503390
C24	C	1.576910	0.569596	0.436628
C25	C	1.576959	0.635339	0.436656
C26	C	1.510110	0.668215	0.503435
C27	C	1.443226	0.635344	0.570210
C28	C	1.443186	0.569603	0.570187
N29	N	1.418694	0.771481	0.511403
N30	N	1.418735	0.833932	0.511418
C31	C	1.510228	0.866290	0.503509
N32	N	1.601681	0.833837	0.495564
N33	N	1.601639	0.771380	0.495543
C34	C	1.510146	0.739501	0.503468
C35	C	1.577167	0.970439	0.436775
C36	C	1.577218	1.036183	0.436810
C37	C	1.443475	1.036187	0.570358
C38	C	1.443434	0.970444	0.570328
C39	C	1.510278	0.937574	0.503531
C40	C	1.782699	0.303225	0.503441
C41	C	1.898852	0.303230	0.503450
C42	C	1.510200	0.303153	0.775991
C43	C	1.510230	0.303127	0.892144
C44	C	1.510295	1.139023	0.503508
C45	C	1.510370	1.069055	0.503591
C46	C	1.510118	0.303228	0.231911
C47	C	1.510290	0.303076	0.115758
C48	C	1.573793	0.264861	0.943950
C49	C	1.573826	0.264834	1.064001
H50	H	1.077877	0.335928	0.448951
Br51	Br	1.667641	0.524990	0.345990
H52	H	1.631424	0.662102	0.382291
H53	H	1.388723	0.542845	0.624554
Br54	Br	1.419590	0.357691	1.041517
H55	H	1.388799	0.662116	0.624584
H56	H	1.389050	1.062954	0.624736
Br57	Br	1.668002	1.080785	0.346208
H58	H	1.115325	0.232284	0.621510
Br59	Br	0.972985	0.357761	0.412650
H60	H	1.631599	0.943675	0.382387
H61	H	1.628247	0.232075	1.108552
Br62	Br	1.352661	0.925840	0.660936
H63	H	0.906199	0.232305	0.621549
Br64	Br	1.664427	0.210269	0.869752
H65	H	1.455830	0.335863	0.936668
