data_functionalizedCrystal
_audit_creation_method	'MofGen! by Chris Wilmer'
_symmetry_space_group_name_H-M	'P1'
_symmetry_Int_Tables_number	1
_symmetry_cell_setting	triclinic
loop_
_symmetry_equiv_pos_as_xyz
  x,y,z
_cell_length_a	21.295418
_cell_length_b	21.295417
_cell_length_c	21.295411
_cell_angle_alpha	89.978356
_cell_angle_beta	89.956262
_cell_angle_gamma	90.046319
loop_
_atom_site_label
_atom_site_type_symbol
_atom_site_fract_x
_atom_site_fract_y
_atom_site_fract_z
Zn1	Zn	0.962356	-0.250415	-0.356234
Zn2	Zn	1.462356	0.249585	0.143766
Zn3	Zn	0.962258	-0.355667	-0.250959
Zn4	Zn	1.462258	0.144333	0.249041
Zn5	Zn	0.857079	-0.250445	-0.250943
Zn6	Zn	1.357079	0.249555	0.249057
Zn7	Zn	0.857048	-0.355680	-0.356155
Zn8	Zn	1.357048	0.144320	0.143845
O9	O	0.909685	-0.303052	-0.303573
O10	O	1.409685	0.196948	0.196427
O11	O	1.050432	-0.264360	-0.342308
O12	O	1.550432	0.235640	0.157692
O13	O	0.948278	-0.341716	-0.162867
O14	O	1.448278	0.158284	0.337133
O15	O	0.871098	-0.162351	-0.264937
O16	O	1.371098	0.337649	0.235063
O17	O	1.050361	-0.341688	-0.264963
O18	O	1.550361	0.158312	0.235037
O19	O	0.948444	-0.162330	-0.342293
O20	O	1.448444	0.337670	0.157707
O21	O	0.871003	-0.264410	-0.162856
O22	O	1.371003	0.235590	0.337144
O23	O	0.768985	-0.264422	-0.264861
O24	O	1.268985	0.235578	0.235139
O25	O	0.871046	-0.341709	-0.444255
O26	O	1.371046	0.158291	0.055745
O27	O	0.768963	-0.341738	-0.342160
O28	O	1.268963	0.158262	0.157840
O29	O	0.948415	-0.264372	-0.444313
O30	O	1.448415	0.235628	0.055687
O31	O	0.948248	-0.443758	-0.264887
O32	O	1.448248	0.056242	0.235113
O33	O	0.870951	-0.443767	-0.342175
O34	O	1.370951	0.056233	0.157825
C35	C	0.746134	-0.303085	-0.303500
C36	C	1.246134	0.196915	0.196500
C37	C	0.676166	-0.303114	-0.303484
C38	C	1.176166	0.196886	0.196516
C39	C	0.643304	-0.343426	-0.343674
C40	C	1.143304	0.156574	0.156326
C41	C	0.577561	-0.343410	-0.343702
C42	C	1.077561	0.156590	0.156298
C43	C	0.544683	-0.303090	-0.303530
C44	C	1.044683	0.196910	0.196470
C45	C	0.577553	-0.262770	-0.263337
C46	C	1.077553	0.237230	0.236663
C47	C	0.643294	-0.262783	-0.263315
C48	C	1.143294	0.237217	0.236685
N49	N	0.441407	-0.298163	-0.248472
N50	N	0.941407	0.201837	0.251528
N51	N	0.378956	-0.298155	-0.248495
N52	N	0.878956	0.201845	0.251505
C53	C	0.346608	-0.303050	-0.303596
C54	C	0.846608	0.196950	0.196404
N55	N	0.379072	-0.307965	-0.358675
N56	N	0.879072	0.192035	0.141325
N57	N	0.441529	-0.307976	-0.358650
N58	N	0.941529	0.192024	0.141350
C59	C	0.473398	-0.303072	-0.303550
C60	C	0.973398	0.196928	0.196450
C61	C	0.242461	-0.343346	-0.343820
C62	C	0.742461	0.156654	0.156180
C63	C	0.176717	-0.343326	-0.343849
C64	C	0.676717	0.156674	0.156151
C65	C	0.176710	-0.262690	-0.263479
C66	C	0.676710	0.237310	0.236521
C67	C	0.242453	-0.262707	-0.263455
C68	C	0.742453	0.237293	0.236545
C69	C	0.275324	-0.303038	-0.303625
C70	C	0.775324	0.196962	0.196375
C71	C	0.909603	-0.466603	-0.303538
C72	C	1.409603	0.033397	0.196462
C73	C	0.909625	-0.536571	-0.303544
C74	C	1.409625	-0.036571	0.196456
C75	C	0.949910	-0.569412	-0.263342
C76	C	1.449910	-0.069412	0.236658
C77	C	0.949939	-0.635155	-0.263356
C78	C	1.449939	-0.135155	0.236644
C79	C	0.909673	-0.668054	-0.303566
C80	C	1.409673	-0.168054	0.196434
C81	C	0.869386	-0.635205	-0.343776
C82	C	1.369386	-0.135205	0.156224
C83	C	0.869362	-0.569464	-0.343765
C84	C	1.369362	-0.069464	0.156235
N85	N	0.854606	-0.771336	-0.308340
N86	N	1.354606	-0.271336	0.191660
N87	N	0.854630	-0.833787	-0.308347
N88	N	1.354630	-0.333787	0.191653
C89	C	0.909743	-0.866129	-0.303602
C90	C	1.409743	-0.366129	0.196398
N91	N	0.964832	-0.833659	-0.298838
N92	N	1.464832	-0.333659	0.201162
N93	N	0.964807	-0.771202	-0.298828
N94	N	1.464807	-0.271202	0.201172
C95	C	0.909695	-0.739339	-0.303582
C96	C	1.409695	-0.239339	0.196418
C97	C	0.950063	-0.970255	-0.263413
C98	C	1.450063	-0.470255	0.236587
C99	C	0.950094	-1.035999	-0.263431
C100	C	1.450094	-0.535999	0.236569
C101	C	0.869535	-1.036048	-0.343848
C102	C	1.369535	-0.536048	0.156152
C103	C	0.869510	-0.970305	-0.343833
C104	C	1.369510	-0.470305	0.156167
C105	C	0.909773	-0.937413	-0.303612
C106	C	1.409773	-0.437413	0.196388
C107	C	1.073876	-0.303019	-0.303646
C108	C	1.573876	0.196981	0.196354
C109	C	1.143844	-0.303005	-0.303677
C110	C	1.643844	0.196995	0.196323
C111	C	0.909738	-0.303038	-0.467763
C112	C	1.409738	0.196962	0.032237
C113	C	0.909760	-0.303033	-0.537731
C114	C	1.409760	0.196967	-0.037731
C115	C	0.909785	-0.138861	-0.303622
C116	C	1.409785	0.361139	0.196378
C117	C	0.909828	-0.068893	-0.303642
C118	C	1.409828	0.431107	0.196358
C119	C	0.950044	-0.262761	-0.570629
C120	C	1.450044	0.237239	-0.070629
C121	C	0.950043	-0.262734	-0.636371
C122	C	1.450043	0.237266	-0.136371
C123	C	0.909765	-0.302989	-0.669214
C124	C	1.409765	0.197011	-0.169214
C125	C	0.869473	-0.343263	-0.636308
C126	C	1.369473	0.156737	-0.136308
C127	C	0.869470	-0.343285	-0.570567
C128	C	1.369470	0.156715	-0.070567
N129	N	0.904908	-0.358058	-0.772428
N130	N	1.404908	0.141942	-0.272428
N131	N	0.904914	-0.358036	-0.834879
N132	N	1.404914	0.141964	-0.334879
C133	C	0.909769	-0.302926	-0.867289
C134	C	1.409769	0.197074	-0.367289
N135	N	0.914629	-0.247837	-0.834888
N136	N	1.414629	0.252163	-0.334888
N137	N	0.914627	-0.247860	-0.772430
N138	N	1.414627	0.252140	-0.272430
C139	C	0.909763	-0.302970	-0.740499
C140	C	1.409763	0.197030	-0.240499
C141	C	0.950054	-0.262621	-0.971472
C142	C	1.450054	0.237379	-0.471472
C143	C	0.950049	-0.262593	-1.037216
C144	C	1.450049	0.237407	-0.537216
C145	C	0.869482	-0.343128	-1.037151
C146	C	1.369482	0.156872	-0.537151
C147	C	0.869484	-0.343151	-0.971409
C148	C	1.369484	0.156849	-0.471409
C149	C	0.909773	-0.302898	-0.938573
C150	C	1.409773	0.197102	-0.438573
C151	C	0.909670	-0.303019	-0.140021
C152	C	1.409670	0.196981	0.359979
C153	C	0.909769	-0.302848	-0.070054
C154	C	1.409769	0.197152	0.429946
H155	H	0.269209	-0.229884	-0.230726
H156	H	0.769209	0.270116	0.269274
C157	C	0.744066	-0.227000	-0.227595
C158	C	1.244066	0.273000	0.272405
C159	C	0.679421	-0.218472	-0.219133
C160	C	1.179421	0.281528	0.280867
H161	H	0.766369	-0.199641	-0.200320
H162	H	1.266369	0.300359	0.299680
H163	H	0.754781	-0.269279	-0.218299
H164	H	1.254781	0.230721	0.281701
H165	H	0.754891	-0.217851	-0.269906
H166	H	1.254891	0.282149	0.230094
H167	H	0.668595	-0.227625	-0.176824
H168	H	1.168595	0.272375	0.323176
H169	H	0.668702	-0.176183	-0.228425
H170	H	1.168702	0.323817	0.271575
H171	H	0.550779	-0.229940	-0.230630
H172	H	1.050779	0.270060	0.269370
C173	C	1.034742	-0.253887	-0.897612
C174	C	1.534742	0.246113	-0.397612
C175	C	0.994338	-0.218374	-0.935377
C176	C	1.494338	0.281626	-0.435377
H177	H	1.062084	-0.226570	-0.875334
H178	H	1.562084	0.273430	-0.375334
H179	H	1.010753	-0.277870	-0.868609
H180	H	1.510753	0.222130	-0.368609
H181	H	1.058799	-0.281298	-0.923285
H182	H	1.558799	0.218702	-0.423285
H183	H	0.970278	-0.190966	-0.909703
H184	H	1.470278	0.309034	-0.409703
H185	H	1.018330	-0.194380	-0.964383
H186	H	1.518330	0.305620	-0.464383
C187	C	0.762865	-0.373941	-0.656478
C188	C	1.262865	0.126059	-0.156478
C189	C	0.825199	-0.387513	-0.672408
C190	C	1.325199	0.112487	-0.172408
H191	H	0.735531	-0.401256	-0.678767
H192	H	1.235531	0.098744	-0.178767
H193	H	0.757100	-0.379720	-0.612622
H194	H	1.257100	0.120280	-0.112622
H195	H	0.753688	-0.331642	-0.667252
H196	H	1.253688	0.168358	-0.167252
H197	H	0.834377	-0.429810	-0.661629
H198	H	1.334377	0.070190	-0.161629
H199	H	0.830966	-0.381740	-0.716273
H200	H	1.330966	0.118260	-0.216273
H201	H	0.670063	-0.376266	-0.376384
H202	H	1.170063	0.123734	0.123616
C203	C	0.584165	-0.423121	-0.423138
C204	C	1.084165	0.076879	0.076862
C205	C	0.541429	-0.387721	-0.387883
C206	C	1.041429	0.112279	0.112117
H207	H	0.561858	-0.450477	-0.450412
H208	H	1.061858	0.049523	0.049588
H209	H	0.609860	-0.395736	-0.447258
H210	H	1.109860	0.104264	0.052742
H211	H	0.609752	-0.447165	-0.395652
H212	H	1.109752	0.052835	0.104348
H213	H	0.515845	-0.363674	-0.415369
H214	H	1.015845	0.136326	0.084631
H215	H	0.515723	-0.415109	-0.363762
H216	H	1.015723	0.084891	0.136238
H217	H	0.836663	-0.376078	-0.543782
H218	H	1.336663	0.123922	-0.043782
C219	C	1.029697	-0.183003	-1.030672
C220	C	1.529697	0.316997	-0.530672
C221	C	0.994334	-0.218324	-1.073379
C222	C	1.494334	0.281676	-0.573379
H223	H	1.057039	-0.155676	-1.053000
H224	H	1.557039	0.344324	-0.553000
H225	H	1.002288	-0.158936	-1.005011
H226	H	1.502288	0.341064	-0.505011
H227	H	1.053754	-0.210444	-1.005047
H228	H	1.553754	0.289556	-0.505047
H229	H	0.970273	-0.190883	-1.099002
H230	H	1.470273	0.309117	-0.599002
H231	H	1.021746	-0.242392	-1.099050
H232	H	1.521746	0.257608	-0.599050
C233	C	0.235867	-0.423042	-0.423272
C234	C	0.735867	0.076958	0.076728
C235	C	0.278598	-0.387668	-0.387982
C236	C	0.778598	0.112332	0.112018
H237	H	0.258177	-0.450400	-0.450538
H238	H	0.758177	0.049600	0.049462
H239	H	0.210172	-0.447077	-0.395813
H240	H	0.710172	0.052923	0.104187
H241	H	0.210279	-0.395636	-0.447407
H242	H	0.710279	0.104364	0.052593
H243	H	0.304184	-0.415074	-0.363843
H244	H	0.804184	0.084926	0.136157
H245	H	0.304304	-0.363632	-0.415444
H246	H	0.804304	0.136368	0.084556
H247	H	0.982696	-0.542633	-0.230593
H248	H	1.482696	-0.042633	0.269407
H249	H	0.836680	-0.375898	-1.063891
H250	H	1.336680	0.124102	-0.563891
C251	C	1.034865	-1.109753	-0.254879
C252	C	1.534865	-0.609753	0.245121
C253	C	0.994442	-1.072065	-0.219273
C254	C	1.494442	-0.572065	0.280727
H255	H	1.062264	-1.132006	-0.227626
H256	H	1.562264	-0.632006	0.272374
H257	H	1.010893	-1.138778	-0.278795
H258	H	1.510893	-0.638778	0.221205
H259	H	1.058859	-1.084031	-0.282357
H260	H	1.558859	-0.584031	0.217643
H261	H	0.970444	-1.097788	-0.191798
H262	H	1.470444	-0.597788	0.308202
H263	H	1.018416	-1.043037	-0.195346
H264	H	1.518416	-0.543037	0.304654
C265	C	1.029693	-0.183144	-0.629838
C266	C	1.529693	0.316856	-0.129838
C267	C	0.994331	-0.218469	-0.672543
C268	C	1.494331	0.281531	-0.172543
H269	H	1.057037	-0.155820	-0.652169
H270	H	1.557037	0.344180	-0.152169
H271	H	1.002284	-0.159074	-0.604181
H272	H	1.502284	0.340926	-0.104181
H273	H	1.053749	-0.210582	-0.604210
H274	H	1.553749	0.289418	-0.104210
H275	H	0.970271	-0.191030	-0.698168
H276	H	1.470271	0.308970	-0.198168
H277	H	1.021743	-0.242541	-0.698210
H278	H	1.521743	0.257459	-0.198210
C279	C	0.102880	-0.352190	-0.428540
C280	C	0.602880	0.147810	0.071460
C281	C	0.140595	-0.387640	-0.388031
C282	C	0.640595	0.112360	0.111969
H283	H	0.080583	-0.379550	-0.455819
H284	H	0.580583	0.120450	0.044181
H285	H	0.073894	-0.328178	-0.404623
H286	H	0.573894	0.171822	0.095377
H287	H	0.128590	-0.324809	-0.452659
H288	H	0.628590	0.175191	0.047341
H289	H	0.114885	-0.415018	-0.363908
H290	H	0.614885	0.084982	0.136092
H291	H	0.169585	-0.411663	-0.411951
H292	H	0.669585	0.088337	0.088049
H293	H	0.836752	-1.062833	-0.376591
H294	H	1.336752	-0.562833	0.123409
C295	C	0.833709	-0.378942	-0.870605
C296	C	1.333709	0.121058	-0.370605
C297	C	0.825207	-0.387424	-0.935243
C298	C	1.325207	0.112576	-0.435243
H299	H	0.806369	-0.406272	-0.848279
H300	H	1.306369	0.093728	-0.348279
H301	H	0.875994	-0.388150	-0.859865
H302	H	1.375994	0.111850	-0.359865
H303	H	0.824521	-0.336650	-0.859832
H304	H	1.324521	0.163350	-0.359832
H305	H	0.834400	-0.429715	-0.946016
H306	H	1.334400	0.070285	-0.446016
H307	H	0.782913	-0.378219	-0.945986
H308	H	1.282913	0.121781	-0.445986
C309	C	0.075934	-0.226897	-0.227798
C310	C	0.575934	0.273103	0.272202
C311	C	0.140578	-0.218388	-0.219300
C312	C	0.640578	0.281612	0.280700
H313	H	0.053627	-0.199552	-0.200515
H314	H	0.553627	0.300448	0.299485
H315	H	0.065211	-0.217724	-0.270102
H316	H	0.565211	0.282276	0.229898
H317	H	0.065124	-0.269185	-0.218528
H318	H	0.565124	0.230815	0.281472
H319	H	0.151390	-0.176101	-0.228575
H320	H	0.651390	0.323899	0.271425
H321	H	0.151306	-0.227556	-0.176986
H322	H	0.651306	0.272444	0.323014
H323	H	0.982746	-0.661899	-0.230619
H324	H	1.482746	-0.161899	0.269381
C325	C	0.958817	-0.178090	-0.496734
C326	C	1.458817	0.321910	0.003266
C327	C	0.994313	-0.218493	-0.534545
C328	C	1.494313	0.281507	-0.034545
H329	H	0.986145	-0.150758	-0.474457
H330	H	1.486145	0.349242	0.025543
H331	H	0.931404	-0.154029	-0.522370
H332	H	1.431404	0.345971	-0.022370
H333	H	0.934838	-0.202086	-0.467724
H334	H	1.434838	0.297914	0.032276
H335	H	1.018290	-0.194498	-0.563559
H336	H	1.518290	0.305502	-0.063559
H337	H	1.021738	-0.242557	-0.508906
H338	H	1.521738	0.257443	-0.008906
H339	H	0.836704	-0.943564	-0.376567
H340	H	1.336704	-0.443564	0.123433
H341	H	0.836602	-0.661996	-0.376516
H342	H	1.336602	-0.161996	0.123484
H343	H	0.836557	-0.542724	-0.376503
H344	H	1.336557	-0.042724	0.123497
C345	C	1.029695	-0.976807	-0.183928
C346	C	1.529695	-0.476807	0.316072
C347	C	0.994323	-0.934095	-0.219208
C348	C	1.494323	-0.434095	0.280792
H349	H	1.057021	-0.954483	-0.156640
H350	H	1.557021	-0.454483	0.343360
H351	H	1.002291	-1.002496	-0.159822
H352	H	1.502291	-0.502496	0.340178
H353	H	1.053771	-1.002404	-0.211397
H354	H	1.553771	-0.502404	0.288603
H355	H	0.970244	-0.908501	-0.191738
H356	H	1.470244	-0.408501	0.308262
H357	H	1.021731	-0.908396	-0.243315
H358	H	1.521731	-0.408396	0.256685
