data_functionalizedCrystal
_audit_creation_method	'MofGen! by Chris Wilmer'
_symmetry_space_group_name_H-M	'P1'
_symmetry_Int_Tables_number	1
_symmetry_cell_setting	triclinic
loop_
_symmetry_equiv_pos_as_xyz
  x,y,z
_cell_length_a	19.077105
_cell_length_b	16.959453
_cell_length_c	19.076919
_cell_angle_alpha	92.270942
_cell_angle_beta	90.076224
_cell_angle_gamma	87.721155
loop_
_atom_site_label
_atom_site_type_symbol
_atom_site_fract_x
_atom_site_fract_y
_atom_site_fract_z
Zn1	Zn	1.058268	-0.382396	-0.440413
Zn2	Zn	1.391602	-0.049063	-0.107080
Zn3	Zn	1.724935	0.284270	0.226254
Zn4	Zn	1.062908	-0.509487	-0.322904
Zn5	Zn	1.396241	-0.176154	0.010429
Zn6	Zn	1.729574	0.157180	0.343762
Zn7	Zn	0.945486	-0.371808	-0.318206
Zn8	Zn	1.278820	-0.038474	0.015127
Zn9	Zn	1.612153	0.294859	0.348460
Zn10	Zn	0.940729	-0.509010	-0.435657
Zn11	Zn	1.274063	-0.175677	-0.102324
Zn12	Zn	1.607396	0.157656	0.231010
O13	O	1.001848	-0.443175	-0.379295
O14	O	1.335181	-0.109842	-0.045962
O15	O	1.668515	0.223491	0.287372
O16	O	1.157216	-0.403886	-0.428782
O17	O	1.490549	-0.070553	-0.095448
O18	O	1.823882	0.262781	0.237885
O19	O	1.051264	-0.486992	-0.223950
O20	O	1.384597	-0.153658	0.109383
O21	O	1.717930	0.179675	0.442717
O22	O	0.960496	-0.262605	-0.334441
O23	O	1.293830	0.070729	-0.001108
O24	O	1.627163	0.404062	0.332225
O25	O	1.160624	-0.497259	-0.342449
O26	O	1.493957	-0.163926	-0.009115
O27	O	1.827291	0.169408	0.324218
O28	O	1.043357	-0.270384	-0.424226
O29	O	1.376690	0.062949	-0.090893
O30	O	1.710023	0.396283	0.242441
O31	O	0.964995	-0.385839	-0.220498
O32	O	1.298328	-0.052506	0.112835
O33	O	1.631661	0.280827	0.446168
O34	O	0.846523	-0.385377	-0.329830
O35	O	1.179857	-0.052044	0.003503
O36	O	1.513190	0.281290	0.336837
O37	O	0.952389	-0.496447	-0.534619
O38	O	1.285722	-0.163113	-0.201286
O39	O	1.619055	0.170220	0.132048
O40	O	0.843029	-0.486179	-0.416120
O41	O	1.176362	-0.152846	-0.082787
O42	O	1.509695	0.180488	0.250546
O43	O	1.038744	-0.403424	-0.538113
O44	O	1.372078	-0.070091	-0.204780
O45	O	1.705411	0.263243	0.128553
O46	O	1.046651	-0.620031	-0.337837
O47	O	1.379984	-0.286698	-0.004504
O48	O	1.713318	0.046635	0.328830
O49	O	0.956887	-0.619681	-0.420676
O50	O	1.290221	-0.286348	-0.087343
O51	O	1.623554	0.046986	0.245991
C52	C	0.819280	-0.434578	-0.371950
C53	C	1.152613	-0.101245	-0.038616
C54	C	1.485946	0.232089	0.294717
C55	C	0.741176	-0.430920	-0.368824
C56	C	1.074509	-0.097586	-0.035491
C57	C	1.407842	0.235747	0.297843
C58	C	0.702684	-0.481756	-0.412212
C59	C	1.036017	-0.148423	-0.078878
C60	C	1.369350	0.184910	0.254455
C61	C	0.629296	-0.478309	-0.409278
C62	C	0.962630	-0.144976	-0.075945
C63	C	1.295963	0.188358	0.257389
C64	C	0.594402	-0.424028	-0.362953
C65	C	0.927736	-0.090694	-0.029619
C66	C	1.261069	0.242639	0.303714
C67	C	0.632900	-0.373186	-0.319563
C68	C	0.966233	-0.039852	0.013770
C69	C	1.299566	0.293481	0.347103
C70	C	0.706285	-0.376630	-0.322501
C71	C	1.039619	-0.043297	0.010832
C72	C	1.372952	0.290037	0.344166
C73	C	0.375115	-0.408087	-0.349360
C74	C	0.708449	-0.074754	-0.016027
C75	C	1.041782	0.258579	0.317306
C76	C	0.301724	-0.404648	-0.346425
C77	C	0.635058	-0.071315	-0.013091
C78	C	0.968391	0.262018	0.320242
C79	C	0.298126	-0.509771	-0.436141
C80	C	0.631459	-0.176438	-0.102807
C81	C	0.964793	0.156896	0.230526
C82	C	0.371514	-0.513214	-0.439071
C83	C	0.704847	-0.179880	-0.105738
C84	C	1.038180	0.153453	0.227596
C85	C	0.410004	-0.462369	-0.395684
C86	C	0.743338	-0.129035	-0.062351
C87	C	1.076671	0.204298	0.270982
N88	N	0.519389	-0.420504	-0.359952
N89	N	0.852722	-0.087171	-0.026618
N90	N	1.186056	0.246162	0.306715
N91	N	0.485016	-0.465889	-0.398690
N92	N	0.818350	-0.132556	-0.065356
N93	N	1.151683	0.200778	0.267977
C94	C	1.001775	-0.648537	-0.379266
C95	C	1.335108	-0.315204	-0.045933
C96	C	1.668442	0.018130	0.287400
C97	C	1.001807	-0.736396	-0.379280
C98	C	1.335140	-0.403062	-0.045947
C99	C	1.668474	-0.069729	0.287387
C100	C	0.955050	-0.777514	-0.422378
C101	C	1.288384	-0.444181	-0.089044
C102	C	1.621717	-0.110847	0.244289
C103	C	1.048598	-0.777833	-0.336199
C104	C	1.381931	-0.444500	-0.002866
C105	C	1.715265	-0.111167	0.330467
C106	C	1.048632	-0.860381	-0.336214
C107	C	1.381966	-0.527048	-0.002880
C108	C	1.715299	-0.193715	0.330453
C109	C	1.001876	-0.901500	-0.379311
C110	C	1.335209	-0.568166	-0.045978
C111	C	1.668542	-0.234833	0.287355
C112	C	0.955085	-0.860070	-0.422395
C113	C	1.288418	-0.526736	-0.089061
C114	C	1.621751	-0.193403	0.244272
C115	C	1.095428	-0.901818	-0.293136
C116	C	1.428761	-0.568484	0.040197
C117	C	1.762094	-0.235151	0.373531
C118	C	1.095464	-0.984371	-0.293149
C119	C	1.428798	-0.651038	0.040184
C120	C	1.762131	-0.317704	0.373518
C121	C	1.048704	-1.025490	-0.336244
C122	C	1.382037	-0.692157	-0.002910
C123	C	1.715370	-0.358824	0.330423
C124	C	1.001910	-0.984055	-0.379328
C125	C	1.335243	-0.650722	-0.045995
C126	C	1.668577	-0.317389	0.287338
C127	C	0.955153	-1.025174	-0.422426
C128	C	1.288487	-0.691840	-0.089093
C129	C	1.621820	-0.358507	0.244241
C130	C	0.908356	-0.983740	-0.465508
C131	C	1.241689	-0.650406	-0.132174
C132	C	1.575023	-0.317073	0.201159
C133	C	0.908324	-0.901189	-0.465489
C134	C	1.241657	-0.567856	-0.132156
C135	C	1.574991	-0.234522	0.201177
C136	C	1.048735	-1.108041	-0.336262
C137	C	1.382069	-0.774708	-0.002928
C138	C	1.715402	-0.441374	0.330405
C139	C	0.955188	-1.107729	-0.422443
C140	C	1.288521	-0.774396	-0.089110
C141	C	1.621854	-0.441063	0.244224
C142	C	1.185129	-0.451807	-0.386670
C143	C	1.518462	-0.118474	-0.053336
C144	C	1.851796	0.214860	0.279997
C145	C	1.263232	-0.455485	-0.389812
C146	C	1.596566	-0.122152	-0.056479
C147	C	1.929899	0.211182	0.276854
C148	C	0.994518	-0.451063	-0.562575
C149	C	1.327852	-0.117730	-0.229242
C150	C	1.661185	0.215603	0.104091
C151	C	0.991395	-0.454425	-0.640678
C152	C	1.324728	-0.121091	-0.307345
C153	C	1.658062	0.212242	0.025988
C154	C	1.001940	-0.237013	-0.379340
C155	C	1.335273	0.096320	-0.046007
C156	C	1.668606	0.429653	0.287326
C157	C	1.001979	-0.149159	-0.379359
C158	C	1.335312	0.184174	-0.046026
C159	C	1.668645	0.517507	0.287307
C160	C	1.034886	-0.407574	-0.679191
C161	C	1.368219	-0.074241	-0.345858
C162	C	1.701553	0.259093	-0.012525
C163	C	1.031943	-0.410729	-0.752577
C164	C	1.365276	-0.077396	-0.419244
C165	C	1.698609	0.255938	-0.085911
C166	C	0.985511	-0.460739	-0.787449
C167	C	1.318845	-0.127406	-0.454115
C168	C	1.652178	0.205928	-0.120782
C169	C	0.942016	-0.507591	-0.748930
C170	C	1.275349	-0.174258	-0.415597
C171	C	1.608682	0.159075	-0.082263
C172	C	0.944956	-0.504432	-0.675545
C173	C	1.278289	-0.171098	-0.342212
C174	C	1.611623	0.162235	-0.008879
C175	C	0.971893	-0.475378	-1.006729
C176	C	1.305227	-0.142045	-0.673396
C177	C	1.638560	0.191289	-0.340063
C178	C	0.968958	-0.478536	-1.080119
C179	C	1.302291	-0.145203	-0.746786
C180	C	1.635625	0.188131	-0.413453
C181	C	1.058884	-0.381672	-1.083761
C182	C	1.392218	-0.048339	-0.750428
C183	C	1.725551	0.284995	-0.417095
C184	C	1.061823	-0.378520	-1.010375
C185	C	1.395157	-0.045187	-0.677042
C186	C	1.728490	0.288146	-0.343709
C187	C	1.018325	-0.425369	-0.971863
C188	C	1.351658	-0.092036	-0.638530
C189	C	1.684992	0.241297	-0.305197
N190	N	0.982503	-0.463967	-0.862461
N191	N	1.315837	-0.130634	-0.529127
N192	N	1.649170	0.202700	-0.195794
N193	N	1.021330	-0.422137	-0.896852
N194	N	1.354663	-0.088804	-0.563519
N195	N	1.687997	0.244530	-0.230186
C196	C	1.009189	-0.435263	-0.196730
C197	C	1.342523	-0.101930	0.136604
C198	C	1.675856	0.231404	0.469937
C199	C	1.012449	-0.431685	-0.118633
C200	C	1.345782	-0.098352	0.214701
C201	C	1.679115	0.234981	0.548034
H202	H	0.604483	-0.328985	-0.281847
H203	H	0.937816	0.004348	0.051486
H204	H	1.271150	0.337681	0.384819
H205	H	1.133499	-0.868337	-0.258051
H206	H	1.466832	-0.535004	0.075283
H207	H	1.800166	-0.201670	0.408616
Br208	Br	1.124842	-0.310649	-0.963055
Br209	Br	1.458175	0.022684	-0.629722
Br210	Br	1.791509	0.356017	-0.296388
H211	H	0.399919	-0.557417	-0.476793
H212	H	0.733253	-0.224084	-0.143459
H213	H	1.066586	0.109250	0.189874
Br214	Br	0.758525	-0.307630	-0.263619
Br215	Br	1.091859	0.025703	0.069714
Br216	Br	1.425192	0.359036	0.403048
H217	H	0.904208	-0.548308	-0.777328
H218	H	1.237541	-0.214974	-0.443995
H219	H	1.570875	0.118359	-0.110661
H220	H	0.870224	-0.867449	-0.500565
H221	H	1.203557	-0.534115	-0.167232
H222	H	1.536890	-0.200782	0.166101
H223	H	0.597959	-0.519706	-0.444608
H224	H	0.931293	-0.186373	-0.111275
H225	H	1.264626	0.146960	0.222058
Br226	Br	0.891541	-0.721286	-0.480841
Br227	Br	1.224874	-0.387953	-0.147508
Br228	Br	1.558207	-0.054620	0.185825
H229	H	0.266779	-0.551165	-0.471465
H230	H	0.600113	-0.217832	-0.138131
H231	H	0.933446	0.115502	0.195202
Br232	Br	0.254369	-0.330985	-0.283543
Br233	Br	0.587702	0.002349	0.049791
Br234	Br	0.921035	0.335682	0.383124
H235	H	1.067359	-0.372580	-0.783932
H236	H	1.400693	-0.039247	-0.450598
H237	H	1.734026	0.294087	-0.117265
Br238	Br	0.750033	-0.555433	-0.475080
Br239	Br	1.083366	-0.222100	-0.141746
Br240	Br	1.416699	0.111234	0.191587
H241	H	1.072698	-0.366853	-0.650805
H242	H	1.406031	-0.033519	-0.317471
H243	H	1.739364	0.299814	0.015862
H244	H	0.917112	-1.141202	-0.457539
H245	H	1.250445	-0.807869	-0.124206
H246	H	1.583779	-0.474535	0.209128
H247	H	1.133569	-1.018099	-0.258068
H248	H	1.466902	-0.684766	0.075265
H249	H	1.800236	-0.351433	0.408598
Br250	Br	0.427343	-0.339079	-0.290482
Br251	Br	0.760677	-0.005745	0.042852
Br252	Br	1.094010	0.327588	0.376185
H253	H	1.086670	-0.744352	-0.301114
H254	H	1.420003	-0.411019	0.032219
H255	H	1.753336	-0.077686	0.365553
Br256	Br	0.844910	-1.039554	-0.524003
Br257	Br	1.178243	-0.706220	-0.190669
Br258	Br	1.511576	-0.372887	0.142664
H259	H	1.086841	-1.141773	-0.301190
H260	H	1.420175	-0.808440	0.032143
H261	H	1.753508	-0.475106	0.365477
H262	H	1.094297	-0.343529	-1.115126
H263	H	1.427630	-0.010196	-0.781793
H264	H	1.760964	0.323138	-0.448459
Br265	Br	0.905937	-0.546409	-1.127445
Br266	Br	1.239271	-0.213075	-0.794111
Br267	Br	1.572604	0.120258	-0.460778
H268	H	0.936484	-0.513538	-0.975382
H269	H	1.269818	-0.180205	-0.642049
H270	H	1.603151	0.153129	-0.308715
Br271	Br	0.885926	-0.568012	-0.623276
Br272	Br	1.219259	-0.234679	-0.289943
Br273	Br	1.552593	0.098655	0.043390
