data_functionalizedCrystal
_audit_creation_method	'MofGen! by Chris Wilmer'
_symmetry_space_group_name_H-M	'P1'
_symmetry_Int_Tables_number	1
_symmetry_cell_setting	triclinic
loop_
_symmetry_equiv_pos_as_xyz
  x,y,z
_cell_length_a	12.827893
_cell_length_b	12.827892
_cell_length_c	12.827885
_cell_angle_alpha	90.029786
_cell_angle_beta	89.980728
_cell_angle_gamma	89.984638
loop_
_atom_site_label
_atom_site_type_symbol
_atom_site_fract_x
_atom_site_fract_y
_atom_site_fract_z
Zn1	Zn	1.597670	0.415983	-0.590849
Zn2	Zn	1.597564	0.590761	-0.416109
Zn3	Zn	1.422911	0.416034	-0.416122
Zn4	Zn	1.422896	0.590683	-0.590809
O5	O	1.510260	0.503365	-0.503472
O6	O	1.743892	0.439179	-0.567680
O7	O	1.574357	0.567637	-0.269875
O8	O	1.446144	0.269791	-0.439322
O9	O	1.743814	0.567587	-0.439300
O10	O	1.574538	0.269754	-0.567693
O11	O	1.446041	0.439266	-0.269884
O12	O	1.276673	0.439190	-0.439284
O13	O	1.446118	0.567455	-0.737050
O14	O	1.276662	0.567504	-0.567625
O15	O	1.574524	0.439104	-0.737080
O16	O	1.574343	0.736986	-0.439261
O17	O	1.446016	0.736929	-0.567612
C18	C	1.238750	0.503345	-0.503452
C19	C	1.122597	0.503362	-0.503469
C20	C	1.070835	0.566954	-0.566878
C21	C	0.950784	0.566973	-0.566896
C22	C	1.510195	0.774875	-0.503454
C23	C	1.510262	0.891028	-0.503481
C24	C	1.510331	0.503265	-0.776043
C25	C	1.510362	0.503222	-0.892196
C26	C	1.782830	0.503386	-0.503493
C27	C	1.898983	0.503395	-0.503502
C28	C	1.510354	0.230795	-0.503514
C29	C	1.510394	0.114642	-0.503531
C30	C	1.573838	0.942807	-0.440039
C31	C	1.573910	1.062857	-0.440066
C32	C	1.573907	0.439697	-0.943995
C33	C	1.573940	0.439652	-1.064045
C34	C	1.510249	0.503390	-0.231962
C35	C	1.510422	0.503138	-0.115810
H36	H	1.115396	0.621381	-0.621155
C37	C	0.959103	0.429837	-0.430155
C38	C	0.944139	0.438213	-0.311331
C39	C	1.004268	0.364654	-0.237984
C40	C	1.079361	0.282720	-0.283462
C41	C	1.094329	0.274341	-0.402292
C42	C	1.034200	0.347899	-0.475638
H43	H	0.888547	0.498868	-0.277660
H44	H	0.993187	0.370858	-0.150018
H45	H	1.123872	0.228268	-0.229166
H46	H	1.149921	0.213686	-0.435962
H47	H	1.045281	0.341696	-0.563605
H48	H	1.628336	1.107385	-0.385748
C49	C	1.436798	0.951197	-0.576888
C50	C	1.317982	0.936401	-0.568265
C51	C	1.244515	0.996567	-0.641675
C52	C	1.289864	1.071529	-0.723708
C53	C	1.408686	1.086328	-0.732334
C54	C	1.482153	1.026163	-0.658924
H55	H	1.284406	0.880906	-0.507537
H56	H	1.156554	0.985611	-0.635289
H57	H	1.235479	1.116067	-0.778051
H58	H	1.442261	1.141823	-0.793063
H59	H	1.570113	1.037119	-0.665311
H60	H	1.628220	0.898262	-0.385708
C61	C	1.436893	0.576653	-0.952341
C62	C	1.318080	0.568136	-0.937429
C63	C	1.244609	0.641570	-0.997571
C64	C	1.289951	0.723520	-1.072625
C65	C	1.408770	0.732041	-1.087539
C66	C	1.482241	0.658607	-1.027398
H67	H	1.284510	0.507468	-0.881867
H68	H	1.156651	0.635262	-0.986530
H69	H	1.235563	0.777880	-1.117145
H70	H	1.442341	0.792709	-1.143101
H71	H	1.570199	0.664915	-1.038439
C72	C	0.890658	0.640529	-0.640240
C73	C	0.905622	0.632153	-0.759064
C74	C	0.845493	0.705712	-0.832411
C75	C	0.770400	0.787646	-0.786933
C76	C	0.755432	0.796025	-0.668103
C77	C	0.815561	0.722466	-0.594756
H78	H	0.961214	0.571498	-0.792735
H79	H	0.856574	0.699509	-0.920377
H80	H	0.725889	0.842098	-0.841228
H81	H	0.699841	0.856680	-0.634432
H82	H	0.804480	0.728669	-0.506790
H83	H	1.078036	0.448927	-0.449199
H84	H	1.455957	1.070121	-0.557845
C85	C	1.647377	0.366269	-0.883848
C86	C	1.602036	0.284320	-0.808792
C87	C	1.675509	0.210890	-0.748647
C88	C	1.794322	0.219410	-0.763558
C89	C	1.839669	0.301363	-0.838617
C90	C	1.766196	0.374793	-0.898762
H91	H	1.514078	0.278010	-0.797751
H92	H	1.641940	0.150223	-0.693083
H93	H	1.848711	0.165053	-0.719035
H94	H	1.927627	0.307673	-0.849657
H95	H	1.799765	0.435460	-0.954325
H96	H	1.628348	0.385270	-1.108591
H97	H	1.456019	0.557531	-1.071270
