data_functionalizedCrystal
_audit_creation_method	'MofGen! by Chris Wilmer'
_symmetry_space_group_name_H-M	'P1'
_symmetry_Int_Tables_number	1
_symmetry_cell_setting	triclinic
loop_
_symmetry_equiv_pos_as_xyz
  x,y,z
_cell_length_a	14.044220
_cell_length_b	16.109301
_cell_length_c	14.586319
_cell_angle_alpha	90.000787
_cell_angle_beta	89.995213
_cell_angle_gamma	91.674821
loop_
_atom_site_label
_atom_site_type_symbol
_atom_site_fract_x
_atom_site_fract_y
_atom_site_fract_z
O1	O	0.121835	-1.112195	-0.076185
O2	O	0.455168	-0.778862	0.257149
O3	O	0.788501	-0.445529	0.590482
O4	O	0.136997	-0.871261	-0.076199
O5	O	0.470330	-0.537928	0.257134
O6	O	0.803663	-0.204595	0.590467
O7	O	-0.008568	-0.988112	-0.076183
O8	O	0.324765	-0.654779	0.257150
O9	O	0.658099	-0.321445	0.590484
O10	O	0.267399	-0.995345	-0.076201
O11	O	0.600732	-0.662012	0.257133
O12	O	0.934066	-0.328678	0.590466
O13	O	-0.008570	-0.988103	0.076298
O14	O	0.324763	-0.654770	0.409631
O15	O	0.658097	-0.321436	0.742964
O16	O	0.136995	-0.871252	0.076281
O17	O	0.470328	-0.537919	0.409615
O18	O	0.803661	-0.204586	0.742948
O19	O	0.121832	-1.112186	0.076296
O20	O	0.455166	-0.778853	0.409630
O21	O	0.788499	-0.445520	0.742963
Cu22	Cu	0.129413	-0.991719	0.090212
Cu23	Cu	0.462747	-0.658385	0.423545
Cu24	Cu	0.796080	-0.325052	0.756878
Cu25	Cu	0.129416	-0.991729	-0.090115
Cu26	Cu	0.462749	-0.658396	0.243219
Cu27	Cu	0.796082	-0.325063	0.576552
O28	O	0.267397	-0.995336	0.076280
O29	O	0.600730	-0.662002	0.409613
O30	O	0.934064	-0.328669	0.742947
C31	C	0.136381	-0.840236	0.000039
C32	C	0.469715	-0.506903	0.333373
C33	C	0.803048	-0.173570	0.666706
C34	C	0.134540	-0.747804	0.000034
C35	C	0.467873	-0.414471	0.333367
C36	C	0.801207	-0.081137	0.666701
C37	C	-0.043882	-0.984941	0.000058
C38	C	0.289451	-0.651608	0.333391
C39	C	0.622784	-0.318275	0.666724
C40	C	-0.149105	-0.975498	0.000058
C41	C	0.184228	-0.642164	0.333391
C42	C	0.517561	-0.308831	0.666725
C43	C	0.122448	-1.143211	0.000056
C44	C	0.455781	-0.809878	0.333389
C45	C	0.789114	-0.476545	0.666722
C46	C	0.124289	-1.235644	0.000055
C47	C	0.457622	-0.902310	0.333388
C48	C	0.790956	-0.568977	0.666722
C49	C	-0.341761	-0.958232	0.000044
C50	C	-0.008428	-0.624899	0.333377
C51	C	0.324905	-0.291566	0.666710
C52	C	-0.399415	-1.025212	0.000045
C53	C	-0.066082	-0.691878	0.333378
C54	C	0.267251	-0.358545	0.666712
C55	C	-0.506616	-1.015605	0.000037
C56	C	-0.173282	-0.682272	0.333371
C57	C	0.160051	-0.348938	0.666704
C58	C	-0.234551	-0.967838	0.000052
C59	C	0.098783	-0.634504	0.333385
C60	C	0.432116	-0.301171	0.666718
C61	C	0.302711	-0.998506	0.000037
C62	C	0.636045	-0.665173	0.333371
C63	C	0.969378	-0.331840	0.666704
C64	C	0.407934	-1.007950	0.000031
C65	C	0.741268	-0.674617	0.333364
C66	C	1.074601	-0.341284	0.666698
N67	N	0.129411	-0.991717	0.217043
N68	N	0.462744	-0.658384	0.550377
N69	N	0.796078	-0.325050	0.883710
C70	C	0.216634	-0.531640	0.000039
C71	C	0.549967	-0.198306	0.333373
C72	C	0.883300	0.135027	0.666706
C73	C	0.214896	-0.444790	0.000045
C74	C	0.548230	-0.111457	0.333379
C75	C	0.881563	0.221877	0.666712
C76	C	0.042189	-0.451815	0.000052
C77	C	0.375522	-0.118481	0.333386
C78	C	0.708855	0.214852	0.666719
C79	C	0.043927	-0.538663	0.000053
C80	C	0.377261	-0.205329	0.333386
C81	C	0.710594	0.128004	0.666720
C82	C	0.131153	-0.578573	0.000042
C83	C	0.464486	-0.245239	0.333375
C84	C	0.797819	0.088094	0.666708
C85	C	0.127677	-0.404875	0.000047
C86	C	0.461010	-0.071542	0.333381
C87	C	0.794343	0.261792	0.666714
C88	C	0.125792	-0.310709	0.000054
C89	C	0.459125	0.022625	0.333387
C90	C	0.792459	0.355958	0.666720
C91	C	0.133038	-0.672745	0.000037
C92	C	0.466371	-0.339412	0.333370
C93	C	0.799704	-0.006078	0.666704
N94	N	0.129411	-0.991737	-0.216946
N95	N	0.462744	-0.658403	0.116387
N96	N	0.796077	-0.325070	0.449720
C97	C	0.064976	-1.043479	0.452057
C98	C	0.398310	-0.710145	0.785390
C99	C	0.731643	-0.376812	1.118724
C100	C	0.064974	-1.043481	0.548038
C101	C	0.398308	-0.710148	0.881372
C102	C	0.731641	-0.376814	1.214705
C103	C	0.193848	-0.939969	0.548033
C104	C	0.527181	-0.606636	0.881367
C105	C	0.860515	-0.273303	1.214700
C106	C	0.193845	-0.939963	0.452054
C107	C	0.527178	-0.606630	0.785387
C108	C	0.860512	-0.273297	1.118720
C109	C	0.129410	-0.991723	0.404068
C110	C	0.462744	-0.658390	0.737401
C111	C	0.796077	-0.325056	1.070735
C112	C	0.129411	-0.991731	0.596029
C113	C	0.462744	-0.658398	0.929362
C114	C	0.796078	-0.325064	1.262696
C115	C	0.129409	-0.991733	0.700096
C116	C	0.462742	-0.658400	1.033429
C117	C	0.796076	-0.325066	1.366763
C118	C	0.129411	-0.991720	0.299994
C119	C	0.462744	-0.658387	0.633328
C120	C	0.796078	-0.325053	0.966661
H121	H	-0.368264	-1.089769	-0.000012
H122	H	-0.034931	-0.756436	0.333321
H123	H	0.298403	-0.423103	0.666654
H124	H	0.287658	-0.564132	0.000037
H125	H	0.620991	-0.230798	0.333370
H126	H	0.954325	0.102535	0.666704
H127	H	0.012509	-1.085623	0.412989
H128	H	0.345842	-0.752290	0.746323
H129	H	0.679175	-0.418957	1.079656
H130	H	0.012505	-1.085624	0.587108
H131	H	0.345839	-0.752291	0.920441
H132	H	0.679172	-0.418958	1.253775
H133	H	-0.028827	-0.419309	0.000067
H134	H	0.304506	-0.085976	0.333401
H135	H	0.637840	0.247357	0.666734
Br136	Br	0.281294	-0.869728	0.613160
Br137	Br	0.614627	-0.536395	0.946493
Br138	Br	0.947961	-0.203062	1.279826
H139	H	0.246315	-0.897813	0.412979
H140	H	0.579649	-0.564480	0.746312
H141	H	0.912982	-0.231147	1.079645
Br142	Br	-0.393679	-0.850637	0.000029
Br143	Br	-0.060346	-0.517304	0.333363
Br144	Br	0.272988	-0.183971	0.666696
Br145	Br	-0.072091	-0.602364	0.000068
Br146	Br	0.261242	-0.269031	0.333401
Br147	Br	0.594575	0.064303	0.666735
Br148	Br	0.330912	-0.381097	0.000046
Br149	Br	0.664245	-0.047764	0.333380
Br150	Br	0.997578	0.285569	0.666713
