data_functionalizedCrystal
_audit_creation_method	'MofGen! by Chris Wilmer'
_symmetry_space_group_name_H-M	'P1'
_symmetry_Int_Tables_number	1
_symmetry_cell_setting	triclinic
loop_
_symmetry_equiv_pos_as_xyz
  x,y,z
_cell_length_a	30.711293
_cell_length_b	30.700791
_cell_length_c	30.700862
_cell_angle_alpha	89.998029
_cell_angle_beta	59.999649
_cell_angle_gamma	60.000191
loop_
_atom_site_label
_atom_site_type_symbol
_atom_site_fract_x
_atom_site_fract_y
_atom_site_fract_z
O1	O	-0.311648	-0.371257	0.012946
O2	O	-0.222486	-0.307915	-0.012905
O3	O	-0.311647	-0.307914	0.076286
O4	O	-0.222487	-0.371258	-0.076244
O5	O	-0.384064	-0.235471	0.076281
O6	O	-0.294903	-0.235472	-0.012909
O7	O	-0.384065	-0.298814	0.012941
Cu8	Cu	-0.346097	-0.260528	0.000016
Cu9	Cu	-0.260455	-0.346201	0.000021
O10	O	-0.294905	-0.298815	-0.076249
C11	C	-0.215946	-0.155921	-0.018773
C12	C	-0.246517	-0.098464	-0.015067
C13	C	-0.241901	-0.182377	-0.019145
C14	C	-0.137093	-0.234800	-0.018780
C15	C	-0.083353	-0.261680	-0.015083
C16	C	-0.163168	-0.261136	-0.019153
C17	C	-0.215940	-0.234800	-0.018783
C18	C	-0.246504	-0.261681	-0.015089
C19	C	-0.163173	-0.182377	-0.019143
C20	C	-0.535506	-0.574966	0.039266
C21	C	-0.588276	-0.548513	0.039633
C22	C	-0.535503	-0.496092	0.039261
C23	C	-0.588273	-0.469758	0.039628
C24	C	-0.614351	-0.496093	0.039261
C25	C	-0.509547	-0.548512	0.039633
C26	C	-0.393517	-0.765171	0.024998
C27	C	-0.364490	-0.819035	0.020964
C28	C	-0.389408	-0.846056	0.018939
C29	C	-0.357931	-0.904462	0.014555
C30	C	-0.443357	-0.819209	0.020953
C31	C	-0.472384	-0.765347	0.024994
C32	C	-0.447462	-0.738328	0.027016
C33	C	-0.790217	-0.447931	0.024977
C34	C	-0.840027	-0.423106	0.020938
C35	C	-0.865011	-0.371162	0.018906
C36	C	-0.919010	-0.344244	0.014518
C37	C	-0.840185	-0.344042	0.020919
C38	C	-0.790385	-0.368863	0.024968
C39	C	-0.765401	-0.420813	0.026993
C40	C	-0.393506	-0.447926	0.024978
C41	C	-0.364472	-0.423102	0.020932
C42	C	-0.389387	-0.371157	0.018902
C43	C	-0.357907	-0.344239	0.014513
C44	C	-0.443332	-0.344040	0.020913
C45	C	-0.472361	-0.368866	0.024957
C46	C	-0.447446	-0.420809	0.026994
C47	C	-0.478939	-0.679924	0.031393
C48	C	-0.504029	-0.633370	0.034884
C49	C	-0.504023	-0.469176	0.034874
C50	C	-0.478931	-0.447722	0.031379
C51	C	-0.668351	-0.469178	0.034874
C52	C	-0.711396	-0.447725	0.031378
C53	C	-0.071062	-0.496430	-0.503877
C54	C	-0.018292	-0.548850	-0.530210
C55	C	-0.071062	-0.496430	-0.425001
C56	C	-0.018292	-0.548851	-0.451454
C57	C	0.007785	-0.575305	-0.503874
C58	C	-0.097019	-0.470095	-0.451457
C59	C	-0.213054	-0.368667	-0.552046
C60	C	-0.242083	-0.343666	-0.576874
C61	C	-0.217167	-0.370617	-0.628819
C62	C	-0.248645	-0.343515	-0.655738
C63	C	-0.163218	-0.422570	-0.655937
C64	C	-0.134190	-0.447564	-0.631112
C65	C	-0.159110	-0.420611	-0.579165
C66	C	0.183647	-0.765510	-0.631630
C67	C	0.233456	-0.819374	-0.656629
C68	C	0.258441	-0.846398	-0.629678
C69	C	0.312440	-0.904802	-0.656775
C70	C	0.233618	-0.819550	-0.577726
C71	C	0.183818	-0.765686	-0.552731
C72	C	0.158832	-0.738669	-0.579689
C73	C	-0.213052	-0.368669	-0.234798
C74	C	-0.242085	-0.343671	-0.180932
C75	C	-0.217169	-0.370623	-0.153909
C76	C	-0.248646	-0.343521	-0.095503
C77	C	-0.163224	-0.422573	-0.180754
C78	C	-0.134196	-0.447569	-0.234618
C79	C	-0.159113	-0.420610	-0.261638
C80	C	-0.127632	-0.447719	-0.552248
C81	C	-0.102540	-0.469326	-0.530793
C82	C	-0.102539	-0.469327	-0.366598
C83	C	-0.127630	-0.447721	-0.320044
C84	C	0.061784	-0.633709	-0.530976
C85	C	0.104829	-0.680263	-0.552580
O86	O	0.063309	-0.298819	0.012947
O87	O	-0.063337	-0.235469	-0.012895
O88	O	-0.063332	-0.235483	0.076292
O89	O	0.063304	-0.298804	-0.076240
O90	O	-0.063327	-0.307931	0.076282
O91	O	-0.063332	-0.307917	-0.012905
O92	O	0.063314	-0.371267	0.012938
Cu93	Cu	-0.000009	-0.346207	0.000016
Cu94	Cu	-0.000014	-0.260529	0.000027
O95	O	0.063309	-0.371252	-0.076249
O96	O	-0.384087	0.076278	0.012980
O97	O	-0.294919	-0.076256	-0.012883
O98	O	-0.384078	0.012923	0.076312
O99	O	-0.294928	-0.012900	-0.076216
O100	O	-0.311659	0.012923	0.076315
O101	O	-0.222500	-0.076255	-0.012880
O102	O	-0.311668	0.076279	0.012982
Cu103	Cu	-0.260471	0.000012	0.000051
Cu104	Cu	-0.346115	0.000011	0.000048
O105	O	-0.222509	-0.012900	-0.076213
O106	O	0.456756	-1.076592	-0.692373
O107	O	0.330119	-0.924062	-0.629035
O108	O	0.330115	-1.013250	-0.629031
O109	O	0.456760	-0.987404	-0.692377
O110	O	0.330114	-1.013248	-0.701476
O111	O	0.330117	-0.924060	-0.701479
O112	O	0.456755	-1.076591	-0.764818
Cu113	Cu	0.393436	-1.000325	-0.739763
Cu114	Cu	0.393438	-1.000327	-0.654089
O115	O	0.456758	-0.987402	-0.764821
O116	O	-0.311647	-0.307914	-0.764507
O117	O	-0.222491	-0.371255	-0.701160
O118	O	-0.311650	-0.371255	-0.701160
O119	O	-0.222488	-0.307914	-0.764507
O120	O	-0.384068	-0.298811	-0.628718
O121	O	-0.294909	-0.298811	-0.628719
O122	O	-0.384066	-0.235470	-0.692065
Cu123	Cu	-0.346100	-0.260525	-0.653777
Cu124	Cu	-0.260456	-0.346199	-0.739448
O125	O	-0.294906	-0.235469	-0.692065
C126	C	-0.469459	-0.155927	0.234817
C127	C	-0.523196	-0.098472	0.261693
C128	C	-0.443383	-0.182382	0.261154
C129	C	-0.390613	-0.234802	0.155945
C130	C	-0.360047	-0.261680	0.098491
C131	C	-0.364656	-0.261137	0.182401
C132	C	-0.390613	-0.234802	0.234821
C133	C	-0.360047	-0.261680	0.261701
C134	C	-0.443383	-0.182382	0.182398
C135	C	-0.215937	-0.234835	0.234815
C136	C	-0.246501	-0.261718	0.261687
C137	C	-0.241898	-0.182415	0.261154
C138	C	-0.137088	-0.234825	0.155948
C139	C	-0.083347	-0.261698	0.098494
C140	C	-0.163169	-0.182405	0.182407
C141	C	-0.215942	-0.155956	0.234826
C142	C	-0.246513	-0.098501	0.261708
C143	C	-0.163163	-0.261164	0.182396
C144	C	-0.390614	0.018780	0.234847
C145	C	-0.360045	0.015077	0.261724
C146	C	-0.443383	0.019144	0.261180
C147	C	-0.390620	0.018793	0.155974
C148	C	-0.360058	0.015103	0.098520
C149	C	-0.443389	0.019157	0.182427
C150	C	-0.469462	0.018780	0.234845
C151	C	-0.523197	0.015076	0.261721
C152	C	-0.364661	0.019157	0.182428
C153	C	0.464517	-0.574918	-0.503872
C154	C	0.490473	-0.548459	-0.530201
C155	C	0.385663	-0.496049	-0.424994
C156	C	0.411739	-0.469710	-0.451443
C157	C	0.464512	-0.496040	-0.503862
C158	C	0.411744	-0.548469	-0.451453
C159	C	0.526952	-0.765127	-0.552055
C160	C	0.555809	-0.818991	-0.576885
C161	C	0.609766	-0.846007	-0.628829
C162	C	0.641064	-0.904413	-0.655751
C163	C	0.634860	-0.819155	-0.655943
C164	C	0.605999	-0.765293	-0.631116
C165	C	0.552042	-0.738279	-0.579169
C166	C	0.606502	-0.447857	-0.631603
C167	C	0.635529	-0.423027	-0.656598
C168	C	0.610613	-0.371084	-0.629644
C169	C	0.642085	-0.344159	-0.656737
C170	C	0.556661	-0.343969	-0.577693
C171	C	0.527630	-0.368794	-0.552703
C172	C	0.552560	-0.420744	-0.579664
C173	C	0.209790	-0.447905	-0.234797
C174	C	0.159982	-0.423087	-0.180932
C175	C	0.134993	-0.371141	-0.153906
C176	C	0.080990	-0.344230	-0.095501
C177	C	0.159816	-0.344019	-0.180746
C178	C	0.209624	-0.368840	-0.234610
C179	C	0.234604	-0.420783	-0.261633
C180	C	0.520753	-0.679876	-0.552249
C181	C	0.495810	-0.633322	-0.530792
C182	C	0.331660	-0.469140	-0.366591
C183	C	0.288612	-0.447690	-0.320038
C184	C	0.495988	-0.469120	-0.530959
C185	C	0.521078	-0.447662	-0.552560
O186	O	-0.311682	0.076246	0.298846
O187	O	-0.222503	-0.076287	0.235498
O188	O	-0.311678	0.012896	0.235508
O189	O	-0.222507	-0.012937	0.298837
O190	O	-0.384084	0.012882	0.307954
O191	O	-0.294908	-0.076301	0.307945
O192	O	-0.384088	0.076231	0.371293
Cu193	Cu	-0.346109	-0.000036	0.346234
Cu194	Cu	-0.260481	-0.000019	0.260557
O195	O	-0.294913	-0.012952	0.371283
C196	C	0.007393	-0.039139	-0.503833
C197	C	-0.018687	-0.039504	-0.530167
C198	C	-0.071449	-0.039152	-0.424962
C199	C	-0.097408	-0.039517	-0.451416
C200	C	-0.071456	-0.039140	-0.503834
C201	C	-0.018680	-0.039516	-0.451415
C202	C	0.183255	-0.024850	-0.551992
C203	C	0.233063	-0.020808	-0.576817
C204	C	0.258044	-0.018773	-0.628760
C205	C	0.312042	-0.014380	-0.655676
C206	C	0.233217	-0.020784	-0.655880
C207	C	0.183418	-0.024833	-0.631058
C208	C	0.158437	-0.026866	-0.579112
C209	C	-0.133891	-0.024840	-0.631591
C210	C	-0.162748	-0.020798	-0.656591
C211	C	-0.216700	-0.018774	-0.629643
C212	C	-0.247997	-0.014384	-0.656741
C213	C	-0.241792	-0.020797	-0.577692
C214	C	-0.212931	-0.024848	-0.552697
C215	C	-0.158978	-0.026866	-0.579652
C216	C	-0.133856	-0.024902	-0.234761
C217	C	-0.162710	-0.020866	-0.180895
C218	C	-0.216662	-0.018844	-0.153875
C219	C	-0.247951	-0.014466	-0.095471
C220	C	-0.241761	-0.020853	-0.180721
C221	C	-0.212907	-0.024887	-0.234584
C222	C	-0.158950	-0.026916	-0.261601
C223	C	0.104434	-0.031251	-0.552199
C224	C	0.061391	-0.034749	-0.530746
C225	C	-0.102733	-0.034776	-0.366559
C226	C	-0.127669	-0.031290	-0.320006
C227	C	-0.102748	-0.034750	-0.530937
C228	C	-0.127690	-0.031253	-0.552542
H229	H	-0.284361	-0.161138	-0.019745
C230	C	-0.472430	-0.154011	0.318549
C231	C	-0.472653	-0.108377	0.321406
C232	C	-0.499394	-0.082239	0.374267
H233	H	-0.513520	-0.143975	0.340500
H234	H	-0.449319	-0.177271	0.330516
H235	H	-0.495765	-0.085120	0.309445
H236	H	-0.431572	-0.118397	0.299466
H237	H	-0.476284	-0.105500	0.386233
H238	H	-0.540482	-0.072207	0.396213
H239	H	-0.499544	-0.051276	0.376211
H240	H	-0.465198	-0.161135	0.161154
C241	C	-0.135475	-0.018764	-0.151705
C242	C	-0.120963	-0.061969	-0.132842
C243	C	-0.095879	-0.060049	-0.105945
H244	H	-0.099187	-0.020572	-0.175459
H245	H	-0.164601	0.013655	-0.122493
H246	H	-0.091839	-0.094380	-0.162050
H247	H	-0.157241	-0.060169	-0.109082
H248	H	-0.125004	-0.027630	-0.076733
H249	H	-0.059593	-0.061857	-0.129701
H250	H	-0.086034	-0.089360	-0.093139
H251	H	-0.860531	-0.301746	0.019268
C252	C	-0.300386	-0.018571	-0.548510
C253	C	-0.320301	-0.014579	-0.581512
C254	C	-0.374283	-0.012517	-0.554643
H255	H	-0.292453	-0.050080	-0.539544
H256	H	-0.331434	0.011640	-0.516865
H257	H	-0.289260	-0.044787	-0.613147
H258	H	-0.328247	0.016929	-0.590479
H259	H	-0.405331	0.017693	-0.522998
H260	H	-0.366344	-0.044028	-0.545679
H261	H	-0.387805	-0.009804	-0.577029
H262	H	-0.141350	-0.161136	-0.019736
H263	H	-0.322198	0.019752	0.161192
H264	H	-0.141347	-0.161163	0.161169
H265	H	-0.610092	-0.426688	0.040215
C266	C	-0.531023	-0.736144	0.027291
C267	C	-0.578780	-0.693172	0.075142
C268	C	-0.632808	-0.666263	0.077279
H269	H	-0.524561	-0.723261	-0.001955
H270	H	-0.541747	-0.759926	0.025536
H271	H	-0.568058	-0.669394	0.076892
H272	H	-0.585261	-0.706040	0.104397
H273	H	-0.643532	-0.690044	0.075524
H274	H	-0.626339	-0.653383	0.048031
H275	H	-0.665219	-0.637106	0.109747
H276	H	-0.284359	-0.161184	0.304226
C277	C	0.010534	-0.040345	-0.423196
C278	C	0.062428	-0.040590	-0.457601
C279	C	0.089359	-0.041363	-0.431627
H280	H	-0.018344	-0.009589	-0.392202
H281	H	0.022489	-0.071468	-0.413240
H282	H	0.050471	-0.009470	-0.467549
H283	H	0.091319	-0.071343	-0.488595
H284	H	0.101313	-0.072486	-0.421671
H285	H	0.060477	-0.010606	-0.400634
H286	H	0.124575	-0.041534	-0.454969
H287	H	-0.141339	-0.304234	0.161155
H288	H	-0.322188	-0.304205	0.161159
C289	C	0.259904	-0.018599	-0.547274
C290	C	0.227358	-0.021230	-0.496466
C291	C	0.252060	-0.019189	-0.469233
H292	H	0.302003	-0.047870	-0.566593
H293	H	0.256629	0.013851	-0.543938
H294	H	0.230638	-0.053677	-0.499804
H295	H	0.185259	0.008038	-0.477133
H296	H	0.248785	0.013262	-0.465897
H297	H	0.294159	-0.048460	-0.488556
H298	H	0.229977	-0.020969	-0.434755
C299	C	-0.075379	-0.026933	-0.660791
C300	C	-0.085290	0.016279	-0.632017
C301	C	-0.031407	0.014372	-0.658900
H302	H	-0.042926	-0.059338	-0.664032
H303	H	-0.064563	-0.025124	-0.695304
H304	H	-0.096098	0.014465	-0.597514
H305	H	-0.117734	0.048690	-0.628775
H306	H	-0.020591	0.016180	-0.693413
H307	H	0.001042	-0.018035	-0.662139
H308	H	-0.038126	0.043693	-0.639384
H309	H	0.389931	-0.569718	-0.430216
C310	C	0.260623	-0.848840	-0.548370
C311	C	0.215098	-0.847840	-0.501746
C312	C	0.239949	-0.874812	-0.474686
H313	H	0.293825	-0.884779	-0.570627
H314	H	0.275151	-0.831867	-0.539374
H315	H	0.200579	-0.864814	-0.510743
H316	H	0.181893	-0.811908	-0.479476
H317	H	0.254477	-0.857838	-0.465690
H318	H	0.273152	-0.910749	-0.496948
H319	H	0.209063	-0.874132	-0.443047
C320	C	-0.762990	-0.504336	0.027162
C321	C	-0.714048	-0.520279	0.031116
C322	C	-0.688943	-0.572239	0.033120
H323	H	-0.793731	-0.505234	0.057358
H324	H	-0.748408	-0.527873	-0.004367
H325	H	-0.728631	-0.496749	0.062642
H326	H	-0.683295	-0.519394	0.000923
H327	H	-0.674361	-0.595775	0.001591
H328	H	-0.719688	-0.573131	0.063317
H329	H	-0.655730	-0.583064	0.035799
C330	C	-0.472543	0.020060	0.154125
C331	C	-0.490056	0.065951	0.139482
C332	C	-0.516924	0.066804	0.113420
H333	H	-0.443650	-0.010676	0.123109
H334	H	-0.507794	0.020253	0.177400
H335	H	-0.454811	0.065753	0.116208
H336	H	-0.518956	0.096695	0.170488
H337	H	-0.552174	0.066997	0.136696
H338	H	-0.488027	0.036066	0.082407
H339	H	-0.528815	0.097943	0.103486
H340	H	-0.610099	-0.569754	0.040226
C341	C	-0.472382	0.019810	0.318570
C342	C	-0.429603	-0.025608	0.321406
C343	C	-0.456298	-0.025019	0.374261
H344	H	-0.484293	0.050872	0.340529
H345	H	-0.507594	0.019946	0.330537
H346	H	-0.394403	-0.025739	0.309445
H347	H	-0.417688	-0.056677	0.299459
H348	H	-0.491510	-0.024884	0.386228
H349	H	-0.468208	0.006045	0.396216
H350	H	-0.427279	-0.055837	0.376192
C351	C	-0.136214	-0.451905	-0.151413
C352	C	-0.134168	-0.498510	-0.152387
C353	C	-0.109301	-0.525539	-0.125358
H354	H	-0.095727	-0.460925	-0.168346
H355	H	-0.161231	-0.429604	-0.115477
H356	H	-0.109152	-0.520806	-0.188317
H357	H	-0.174648	-0.489505	-0.135451
H358	H	-0.134318	-0.503239	-0.089422
H359	H	-0.068815	-0.534556	-0.142294
H360	H	-0.107915	-0.557161	-0.126011
H361	H	0.389910	-0.426640	-0.430197
C362	C	0.547131	-0.576880	-0.587612
C363	C	0.564413	-0.628558	-0.605111
C364	C	0.616614	-0.654758	-0.657987
H365	H	0.538021	-0.557766	-0.609586
H366	H	0.579935	-0.578719	-0.589632
H367	H	0.531617	-0.626716	-0.603095
H368	H	0.573536	-0.647686	-0.583152
H369	H	0.649418	-0.656597	-0.660007
H370	H	0.607499	-0.635640	-0.679956
H371	H	0.628350	-0.689826	-0.669865
H372	H	0.626432	-0.743433	-0.653196
H373	H	0.139780	-0.445177	-0.159080
C374	C	-0.452941	-0.576912	0.040445
C375	C	-0.435687	-0.628578	0.040692
C376	C	-0.383550	-0.654752	0.041444
H377	H	-0.420095	-0.578781	0.009680
H378	H	-0.462130	-0.557754	0.071560
H379	H	-0.426496	-0.647732	0.009580
H380	H	-0.468518	-0.626725	0.071455
H381	H	-0.392738	-0.635594	0.072559
H382	H	-0.350709	-0.656617	0.010679
H383	H	-0.371840	-0.689808	0.041617
H384	H	-0.463617	-0.301742	0.019258
H385	H	-0.463642	-0.841213	0.019306
C386	C	0.236852	-0.504315	-0.264036
C387	C	0.204470	-0.522764	-0.228999
C388	C	0.229391	-0.574729	-0.255914
H389	H	0.233618	-0.504366	-0.293228
H390	H	0.278960	-0.527004	-0.276860
H391	H	0.162373	-0.500081	-0.216182
H392	H	0.207701	-0.522726	-0.199806
H393	H	0.271498	-0.597418	-0.268738
H394	H	0.226155	-0.574774	-0.285106
H395	H	0.207427	-0.587255	-0.232144
C396	C	-0.531001	-0.339357	0.027255
C397	C	-0.576515	-0.292744	0.071804
C398	C	-0.630545	-0.265550	0.073942
H399	H	-0.523024	-0.330330	-0.004231
H400	H	-0.544760	-0.361555	0.029983
H401	H	-0.562758	-0.270550	0.069071
H402	H	-0.584510	-0.301755	0.103297
H403	H	-0.644304	-0.287748	0.076671
H404	H	-0.622562	-0.256527	0.042454
H405	H	-0.661435	-0.233923	0.104171
C406	C	-0.305925	-0.452623	0.018780
C407	C	-0.290329	-0.503420	0.021441
C408	C	-0.236405	-0.530627	0.019468
H409	H	-0.273392	-0.455983	-0.013649
H410	H	-0.312463	-0.433262	0.048075
H411	H	-0.283788	-0.522777	-0.007852
H412	H	-0.322847	-0.500075	0.053867
H413	H	-0.242943	-0.511266	0.048763
H414	H	-0.203877	-0.533984	-0.012961
H415	H	-0.225820	-0.565094	0.021278
H416	H	0.483018	-0.743137	-0.509759
H417	H	0.535374	-0.840851	-0.554804
H418	H	-0.233339	-0.346711	-0.256798
C419	C	0.693464	-0.848586	-0.712322
C420	C	0.713381	-0.901509	-0.728258
C421	C	0.767373	-0.928639	-0.780188
H422	H	0.685543	-0.831685	-0.735901
H423	H	0.724506	-0.847999	-0.713156
H424	H	0.682346	-0.902093	-0.727427
H425	H	0.721315	-0.918425	-0.704693
H426	H	0.798415	-0.928052	-0.781022
H427	H	0.759446	-0.911734	-0.803762
H428	H	0.780897	-0.964551	-0.791005
C429	C	0.633638	-0.504245	-0.660975
C430	C	0.687084	-0.522669	-0.711823
C431	C	0.712090	-0.574608	-0.738895
H432	H	0.643520	-0.526980	-0.641588
H433	H	0.604464	-0.504243	-0.664242
H434	H	0.716252	-0.522675	-0.708554
H435	H	0.677218	-0.499949	-0.731224
H436	H	0.682917	-0.574605	-0.742161
H437	H	0.721969	-0.597337	-0.719504
H438	H	0.748353	-0.587113	-0.773399
H439	H	0.679457	-0.445107	-0.698895
H440	H	0.536369	-0.301671	-0.555749
C441	C	0.469081	-0.339280	-0.496291
C442	C	0.453477	-0.288481	-0.478025
C443	C	0.399551	-0.261281	-0.426057
H444	H	0.436552	-0.335923	-0.496179
H445	H	0.475621	-0.358644	-0.473537
H446	H	0.446933	-0.269122	-0.500773
H447	H	0.485991	-0.291822	-0.478124
H448	H	0.406092	-0.280644	-0.403303
H449	H	0.367026	-0.257928	-0.425950
H450	H	0.388960	-0.226812	-0.413655
H451	H	0.229830	-0.346752	-0.256460
C452	C	0.132582	-0.287613	-0.151322
C453	C	0.083640	-0.271673	-0.098410
C454	C	0.058536	-0.219716	-0.071291
H455	H	0.163323	-0.286717	-0.151874
H456	H	0.118000	-0.264073	-0.168263
H457	H	0.098223	-0.295207	-0.081473
H458	H	0.052887	-0.272557	-0.097841
H459	H	0.043953	-0.196176	-0.088232
H460	H	0.089280	-0.218825	-0.071848
H461	H	0.025322	-0.208892	-0.035389
C462	C	-0.153995	-0.040358	-0.423025
C463	C	-0.171238	-0.040622	-0.371365
C464	C	-0.223349	-0.041412	-0.345203
H465	H	-0.186855	-0.009601	-0.421147
H466	H	-0.144781	-0.071480	-0.442198
H467	H	-0.180454	-0.009503	-0.352196
H468	H	-0.138392	-0.071377	-0.373227
H469	H	-0.214136	-0.072535	-0.364376
H470	H	-0.256205	-0.010655	-0.343329
H471	H	-0.235051	-0.041597	-0.310151
H472	H	-0.090272	-0.489868	-0.256471
C473	C	0.010451	-0.040216	-0.587572
C474	C	0.062315	-0.040415	-0.605064
C475	C	0.089152	-0.041045	-0.657931
H476	H	0.022427	-0.071298	-0.609559
H477	H	-0.018503	-0.009416	-0.589581
H478	H	0.091263	-0.071212	-0.603060
H479	H	0.050355	-0.009336	-0.583091
H480	H	0.060198	-0.010245	-0.659939
H481	H	0.101125	-0.072127	-0.679913
H482	H	0.124341	-0.041175	-0.669804
H483	H	-0.089923	-0.026552	-0.256755
C484	C	0.260401	-0.018537	-0.712259
C485	C	0.309316	-0.014545	-0.728189
C486	C	0.334364	-0.012464	-0.780120
H487	H	0.275001	-0.050040	-0.735839
H488	H	0.229608	0.011680	-0.713097
H489	H	0.340103	-0.044759	-0.727355
H490	H	0.294731	0.016956	-0.704623
H491	H	0.303572	0.017753	-0.780958
H492	H	0.348962	-0.043968	-0.803695
H493	H	0.367552	-0.009751	-0.790933
H494	H	0.162921	-0.026506	-0.509696
C495	C	-0.866871	-0.452647	0.018731
C496	C	-0.834322	-0.503456	0.021360
C497	C	-0.859028	-0.530688	0.019322
H498	H	-0.908968	-0.433328	0.048005
H499	H	-0.863600	-0.455981	-0.013717
H500	H	-0.837599	-0.500120	0.053804
H501	H	-0.792225	-0.522789	-0.007912
H502	H	-0.855758	-0.534021	-0.013126
H503	H	-0.901126	-0.511364	0.048597
H504	H	-0.836945	-0.565166	0.021101
H505	H	0.163208	-0.026470	-0.653142
H506	H	-0.233361	-0.026498	-0.510400
C507	C	-0.135438	-0.018567	-0.712977
C508	C	-0.082026	-0.021183	-0.731223
C509	C	-0.056859	-0.019118	-0.783159
H510	H	-0.125483	-0.047835	-0.735781
H511	H	-0.164552	0.013886	-0.713025
H512	H	-0.052918	-0.053632	-0.731179
H513	H	-0.091964	0.008082	-0.708434
H514	H	-0.085973	0.013335	-0.783206
H515	H	-0.046908	-0.048386	-0.805957
H516	H	-0.020620	-0.020888	-0.795543
H517	H	-0.233346	-0.026524	-0.256439
H518	H	-0.285693	-0.019206	-0.158718
H519	H	0.003530	-0.570088	-0.430211
H520	H	-0.373212	-0.490223	0.026632
H521	H	-0.373220	-0.743176	0.026647
C522	C	-0.134078	-0.318596	-0.020034
C523	C	-0.116595	-0.350737	-0.065918
C524	C	-0.089807	-0.403668	-0.066745
H525	H	-0.098825	-0.330638	-0.020223
H526	H	-0.163025	-0.320656	0.010718
H527	H	-0.087650	-0.348679	-0.096663
H528	H	-0.151837	-0.338712	-0.065739
H529	H	-0.118755	-0.405728	-0.035993
H530	H	-0.054557	-0.415705	-0.066933
H531	H	-0.077947	-0.425482	-0.097874
C532	C	-0.305849	-0.848184	0.018663
C533	C	-0.260336	-0.847101	-0.025889
C534	C	-0.206304	-0.873954	-0.028032
H535	H	-0.313822	-0.831180	0.050147
H536	H	-0.292091	-0.884146	0.015938
H537	H	-0.274092	-0.811147	-0.023160
H538	H	-0.252344	-0.864109	-0.057381
H539	H	-0.192545	-0.909916	-0.030757
H540	H	-0.214283	-0.856947	0.003454
H541	H	-0.175415	-0.873227	-0.058263
C542	C	-0.763379	-0.339433	0.027038
C543	C	-0.742076	-0.326293	-0.019486
C544	C	-0.717186	-0.299187	-0.017605
H545	H	-0.794202	-0.307750	0.057196
H546	H	-0.730112	-0.361650	0.029707
H547	H	-0.775339	-0.304077	-0.022150
H548	H	-0.711246	-0.357966	-0.049651
H549	H	-0.683919	-0.321404	-0.014936
H550	H	-0.748013	-0.267506	0.012555
H551	H	-0.702724	-0.290272	-0.049173
C552	C	0.010735	-0.577073	-0.587646
C553	C	-0.023413	-0.542668	-0.605154
C554	C	0.003318	-0.568642	-0.658064
H555	H	0.051794	-0.587034	-0.609573
H556	H	0.010962	-0.608069	-0.589733
H557	H	-0.023634	-0.511681	-0.603071
H558	H	-0.064472	-0.532705	-0.583242
H559	H	0.003545	-0.599638	-0.660150
H560	H	0.044377	-0.578602	-0.679986
H561	H	-0.019851	-0.545304	-0.669948
C562	C	-0.153566	-0.412632	-0.423191
C563	C	-0.139851	-0.380465	-0.451561
C564	C	-0.191923	-0.327529	-0.425531
H565	H	-0.186404	-0.410523	-0.421354
H566	H	-0.165348	-0.400649	-0.388125
H567	H	-0.128077	-0.392444	-0.486618
H568	H	-0.107021	-0.382558	-0.453399
H569	H	-0.203705	-0.315546	-0.390464
H570	H	-0.224758	-0.325426	-0.423695
H571	H	-0.182623	-0.305696	-0.444773
C572	C	-0.300629	-0.287257	-0.151888
C573	C	-0.316226	-0.268996	-0.187085
C574	C	-0.370147	-0.217026	-0.160352
H575	H	-0.333164	-0.287139	-0.122704
H576	H	-0.294087	-0.264503	-0.139071
H577	H	-0.322771	-0.291743	-0.199894
H578	H	-0.283707	-0.269100	-0.216270
H579	H	-0.363605	-0.194273	-0.147534
H580	H	-0.402676	-0.216914	-0.131169
H581	H	-0.380733	-0.204628	-0.184230
H582	H	-0.286007	-0.301367	-0.554790
C583	C	-0.240186	-0.339302	-0.495657
C584	C	-0.293630	-0.288451	-0.477230
C585	C	-0.318634	-0.261386	-0.425290
H586	H	-0.250070	-0.358690	-0.472925
H587	H	-0.211010	-0.336039	-0.495659
H588	H	-0.322800	-0.291716	-0.477224
H589	H	-0.283763	-0.269049	-0.499947
H590	H	-0.289458	-0.258123	-0.425292
H591	H	-0.328514	-0.280778	-0.402563
H592	H	-0.354894	-0.226879	-0.412782
H593	H	-0.090264	-0.489862	-0.653196
C594	C	-0.136282	-0.451752	-0.712319
C595	C	-0.173259	-0.418749	-0.728252
C596	C	-0.148467	-0.445619	-0.780186
H597	H	-0.095819	-0.460722	-0.735895
H598	H	-0.134856	-0.483394	-0.713161
H599	H	-0.174678	-0.387116	-0.727414
H600	H	-0.213722	-0.409777	-0.704691
H601	H	-0.147041	-0.477261	-0.781028
H602	H	-0.108005	-0.454588	-0.803757
H603	H	-0.173555	-0.423233	-0.791001
H604	H	0.163310	-0.743516	-0.653584
H605	H	0.253663	-0.841229	-0.698927
C606	C	0.156991	-0.736580	-0.496361
C607	C	0.202613	-0.737683	-0.495371
C608	C	0.177924	-0.710882	-0.443450
H609	H	0.123765	-0.700617	-0.485282
H610	H	0.142530	-0.753624	-0.472889
H611	H	0.217065	-0.720638	-0.518835
H612	H	0.235842	-0.773639	-0.506439
H613	H	0.163463	-0.727925	-0.419979
H614	H	0.144698	-0.674920	-0.432377
H615	H	0.208876	-0.711630	-0.442771
