data_functionalizedCrystal
_audit_creation_method	'MofGen! by Chris Wilmer'
_symmetry_space_group_name_H-M	'P1'
_symmetry_Int_Tables_number	1
_symmetry_cell_setting	triclinic
loop_
_symmetry_equiv_pos_as_xyz
  x,y,z
_cell_length_a	12.759395
_cell_length_b	18.050583
_cell_length_c	12.759394
_cell_angle_alpha	89.966418
_cell_angle_beta	90.015598
_cell_angle_gamma	89.985859
loop_
_atom_site_label
_atom_site_type_symbol
_atom_site_fract_x
_atom_site_fract_y
_atom_site_fract_z
Zn1	Zn	1.606196	-0.419889	-0.418170
Zn2	Zn	1.606108	-0.295705	-0.593893
Zn3	Zn	1.430516	-0.295717	-0.418231
Zn4	Zn	1.430486	-0.419858	-0.593810
O5	O	1.518326	-0.357792	-0.506026
O6	O	1.753206	-0.403424	-0.441489
O7	O	1.582790	-0.191782	-0.570651
O8	O	1.453869	-0.312207	-0.271201
O9	O	1.753140	-0.312186	-0.570592
O10	O	1.582941	-0.403436	-0.271157
O11	O	1.453783	-0.191791	-0.441593
O12	O	1.283491	-0.312177	-0.441512
O13	O	1.453820	-0.523787	-0.570451
O14	O	1.283469	-0.403382	-0.570510
O15	O	1.582913	-0.523810	-0.441409
O16	O	1.582762	-0.312156	-0.740903
O17	O	1.453734	-0.403370	-0.740842
C18	C	1.245359	-0.357778	-0.506009
C19	C	1.128582	-0.357789	-0.506028
C20	C	0.909215	-0.452973	-0.371833
C21	C	0.964115	-0.500544	-0.304713
C22	C	1.073837	-0.500531	-0.304695
C23	C	1.128661	-0.452944	-0.371806
C24	C	1.073761	-0.405373	-0.438926
C25	C	0.964037	-0.405389	-0.438935
C26	C	1.073682	-0.310218	-0.573147
C27	C	0.963961	-0.310227	-0.573161
C28	C	1.128506	-0.262631	-0.640258
C29	C	1.073606	-0.215056	-0.707374
C30	C	0.963878	-0.215070	-0.707389
C31	C	0.909060	-0.262656	-0.640281
C32	C	1.518373	-0.551498	-0.505914
C33	C	1.518393	-0.634044	-0.505866
C34	C	1.588664	-0.833507	-0.435659
C35	C	1.492836	-0.882903	-0.409947
C36	C	1.518435	-0.785174	-0.505848
C37	C	1.614302	-0.882860	-0.531494
C38	C	1.518484	-0.931160	-0.505828
C39	C	1.422556	-0.833483	-0.480086
C40	C	1.544086	-0.833435	-0.601677
C41	C	1.448192	-0.882809	-0.576001
C42	C	1.518408	-0.701076	-0.505856
C43	C	1.518500	-1.015256	-0.505820
C44	C	1.792360	-0.357807	-0.506043
C45	C	1.909137	-0.357814	-0.506050
C46	C	1.518263	-0.357774	-0.778993
C47	C	1.518333	-0.357792	-0.895770
C48	C	1.518341	-0.164840	-0.506062
C49	C	1.518524	-0.082295	-0.505813
C50	C	1.652790	-0.262881	-0.895780
C51	C	1.720047	-0.215435	-0.950646
C52	C	1.720108	-0.215455	-1.060367
C53	C	1.652909	-0.262928	-1.115226
C54	C	1.585652	-0.310375	-1.060360
C55	C	1.585596	-0.310348	-0.950636
C56	C	1.451201	-0.405288	-1.060350
C57	C	1.451133	-0.405265	-0.950628
C58	C	1.384002	-0.452761	-1.115208
C59	C	1.316738	-0.500205	-1.060342
C60	C	1.316679	-0.500182	-0.950614
C61	C	1.383877	-0.452711	-0.895762
C62	C	1.518418	-0.357827	-0.231992
C63	C	1.518458	-0.357841	-0.115216
H64	H	0.919466	-0.539290	-0.250075
C65	C	1.573407	-0.804054	-0.711135
H66	H	1.517318	-0.775095	-0.738020
H67	H	1.634651	-0.774352	-0.706133
H68	H	1.586333	-0.844594	-0.756788
C69	C	0.903496	-0.162741	-0.781221
H70	H	0.951864	-0.134398	-0.821178
H71	H	0.860700	-0.191096	-0.827050
H72	H	0.860684	-0.130432	-0.740979
H73	H	1.774879	-0.176824	-1.105039
H74	H	1.388754	-0.904321	-0.635350
C75	C	0.788370	-0.262671	-0.640298
H76	H	0.763522	-0.227523	-0.689878
H77	H	0.763577	-0.310577	-0.658544
H78	H	0.763553	-0.249910	-0.572477
C79	C	1.134229	-0.552857	-0.230867
H80	H	1.085869	-0.581198	-0.190897
H81	H	1.177049	-0.585157	-0.271106
H82	H	1.177018	-0.524493	-0.185034
H83	H	1.652974	-0.262947	-1.204567
C84	C	1.249351	-0.452934	-0.371791
H85	H	1.274196	-0.488079	-0.322204
H86	H	1.274170	-0.465686	-0.439608
H87	H	1.274147	-0.405027	-0.353530
C88	C	1.668771	-0.804263	-0.355432
H89	H	1.650389	-0.821205	-0.287369
H90	H	1.736678	-0.821899	-0.372996
H91	H	1.668648	-0.751637	-0.356425
C92	C	1.242698	-0.552376	-0.890270
H93	H	1.202687	-0.580647	-0.938659
H94	H	1.282840	-0.584746	-0.847392
H95	H	1.196910	-0.523932	-0.847543
H96	H	1.384061	-0.452777	-1.204549
H97	H	1.383828	-0.452683	-0.806421
C98	C	1.313031	-0.804312	-0.450636
H99	H	1.313692	-0.751682	-0.450786
H100	H	1.263123	-0.821586	-0.500173
H101	H	1.294722	-0.821661	-0.382761
H102	H	1.695354	-0.904552	-0.553191
H103	H	0.819874	-0.452972	-0.371818
H104	H	1.652733	-0.262850	-0.806439
C105	C	1.793960	-0.163218	-0.890301
H106	H	1.784288	-0.169994	-0.817097
H107	H	1.864552	-0.174128	-0.908212
H108	H	1.778625	-0.113312	-0.908358
H109	H	1.217847	-0.262629	-0.640245
H110	H	1.118252	-0.176318	-0.762016
C111	C	1.463546	-0.912263	-0.300462
H112	H	1.513495	-0.895388	-0.250677
H113	H	1.395944	-0.894631	-0.281752
H114	H	1.463155	-0.964888	-0.301409
H115	H	1.262035	-0.538857	-1.105016
