data_functionalizedCrystal
_audit_creation_method	'MofGen! by Chris Wilmer'
_symmetry_space_group_name_H-M	'P1'
_symmetry_Int_Tables_number	1
_symmetry_cell_setting	triclinic
loop_
_symmetry_equiv_pos_as_xyz
  x,y,z
_cell_length_a	12.759401
_cell_length_b	17.640280
_cell_length_c	12.759393
_cell_angle_alpha	78.768122
_cell_angle_beta	89.980535
_cell_angle_gamma	78.800417
loop_
_atom_site_label
_atom_site_type_symbol
_atom_site_fract_x
_atom_site_fract_y
_atom_site_fract_z
Zn1	Zn	1.690818	-0.314631	-0.509541
Zn2	Zn	1.726243	-0.446828	-0.298370
Zn3	Zn	1.515131	-0.314671	-0.333866
Zn4	Zn	1.550622	-0.446766	-0.474025
O5	O	1.620703	-0.380724	-0.403951
O6	O	1.842541	-0.332176	-0.481536
O7	O	1.698210	-0.429340	-0.156046
O8	O	1.508757	-0.204059	-0.386888
O9	O	1.868567	-0.429301	-0.326391
O10	O	1.637834	-0.204029	-0.515955
O11	O	1.543107	-0.332245	-0.182125
O12	O	1.372815	-0.332185	-0.352451
O13	O	1.569248	-0.429195	-0.625769
O14	O	1.398891	-0.429234	-0.455425
O15	O	1.672249	-0.332116	-0.651862
O16	O	1.732625	-0.557427	-0.291953
O17	O	1.603597	-0.557382	-0.421006
C18	C	1.347732	-0.380708	-0.403936
C19	C	1.230958	-0.380720	-0.403950
C20	C	1.079908	-0.431232	-0.323110
C21	C	1.189628	-0.431216	-0.323096
C22	C	1.162560	-0.330231	-0.484816
C23	C	1.052842	-0.330244	-0.484825
C24	C	1.038587	-0.481736	-0.242257
C25	C	1.106977	-0.532224	-0.161389
C26	C	1.216696	-0.532208	-0.161376
C27	C	1.258026	-0.481704	-0.242230
C28	C	1.675835	-0.586084	-0.348797
C29	C	1.699517	-0.673937	-0.325237
C30	C	1.441228	-0.962895	-0.583315
C31	C	1.463482	-1.045447	-0.561144
C32	C	1.597922	-1.045429	-0.426897
C33	C	1.575683	-0.962876	-0.449061
C34	C	1.497333	-0.921615	-0.527270
C35	C	1.631788	-0.921596	-0.393015
C36	C	1.609546	-0.839049	-0.415174
C37	C	1.531198	-0.797783	-0.493378
C38	C	1.475091	-0.839069	-0.549429
C39	C	1.710132	-0.962858	-0.314801
C40	C	1.766237	-0.921577	-0.258756
C41	C	1.744001	-0.839030	-0.280919
C42	C	1.665653	-0.797763	-0.359123
C43	C	1.800108	-0.797744	-0.224868
C44	C	1.777866	-0.715198	-0.247027
C45	C	1.643411	-0.715217	-0.381282
C46	C	1.894741	-0.380741	-0.403966
C47	C	2.011520	-0.380748	-0.403972
C48	C	1.620756	-0.380645	-0.678006
C49	C	1.620778	-0.380611	-0.794791
C50	C	1.565385	-0.174563	-0.459343
C51	C	1.541812	-0.086709	-0.482948
C52	C	1.674418	-0.330057	-0.863243
C53	C	1.674436	-0.330028	-0.972975
C54	C	1.567171	-0.431114	-0.945792
C55	C	1.567148	-0.431138	-0.836063
C56	C	1.728049	-0.279529	-0.821971
C57	C	1.781695	-0.228972	-0.890424
C58	C	1.781712	-0.228943	-1.000155
C59	C	1.728083	-0.279472	-1.041435
C60	C	1.620697	-0.380747	-0.130977
C61	C	1.620818	-0.380558	-0.014252
H62	H	1.347367	-0.481690	-0.242206
H63	H	1.863892	-0.831350	-0.161183
F64	F	1.733831	-1.050712	-0.291248
F65	F	1.838807	-0.175137	-1.073005
H66	H	1.196221	-0.289114	-0.550644
F67	F	1.728038	-0.279558	-0.705186
F68	F	0.980053	-0.276510	-0.570884
H69	H	0.949249	-0.481756	-0.242261
H70	H	1.579619	-0.681621	-0.444976
F71	F	1.507715	-0.709929	-0.517151
H72	H	1.411299	-0.805473	-0.613123
F73	F	1.289476	-0.585931	-0.075300
F74	F	1.357848	-0.918979	-0.666564
H75	H	1.417801	-1.079054	-0.606801
H76	H	1.523508	-0.472252	-0.979411
H77	H	1.661711	-1.079035	-0.363215
H78	H	1.823552	-0.681587	-0.201388
F79	F	1.849620	-0.965498	-0.175523
H80	H	1.825349	-0.187828	-0.856808
F81	F	1.510056	-0.484942	-0.763208
F82	F	1.062987	-0.585964	-0.075337
F83	F	1.728089	-0.279429	-1.158226
