data_functionalizedCrystal
_audit_creation_method	'MofGen! by Chris Wilmer'
_symmetry_space_group_name_H-M	'P1'
_symmetry_Int_Tables_number	1
_symmetry_cell_setting	triclinic
loop_
_symmetry_equiv_pos_as_xyz
  x,y,z
_cell_length_a	14.395555
_cell_length_b	23.196402
_cell_length_c	23.196401
_cell_angle_alpha	60.008822
_cell_angle_beta	90.015017
_cell_angle_gamma	60.000171
loop_
_atom_site_label
_atom_site_type_symbol
_atom_site_fract_x
_atom_site_fract_y
_atom_site_fract_z
Zr1	Zr	0.894913	0.630974	-0.075598
O2	O	0.746552	0.751245	-0.167649
O3	O	0.940390	0.510707	-0.047383
O4	O	0.940349	0.630974	-0.167648
O5	O	0.746630	0.630976	0.047487
O6	O	1.093223	0.630970	-0.167643
O7	O	0.746593	0.630978	-0.047384
O8	O	1.093296	0.415834	0.047490
O9	O	0.746557	0.846112	-0.167645
O10	O	1.073878	0.560170	-0.035341
O11	O	0.959817	0.560172	0.035456
O12	O	0.959768	0.701771	-0.106140
O13	O	0.845708	0.701773	-0.035343
Zr14	Zr	1.138788	0.630965	0.075719
Zr15	Zr	1.138730	0.630967	-0.075590
Zr16	Zr	0.894971	0.630972	0.075711
Zr17	Zr	0.894920	0.782276	-0.075591
Zr18	Zr	1.138781	0.479662	0.075713
O19	O	1.093311	0.751232	0.047504
O20	O	1.093228	0.751235	-0.167638
O21	O	0.746635	0.751241	0.047493
O22	O	1.287148	0.510694	0.167771
O23	O	1.287065	0.510697	-0.047371
O24	O	0.940473	0.510704	0.167759
O25	O	1.287071	0.630962	-0.047366
O26	O	1.093352	0.630965	0.167769
O27	O	0.940478	0.630969	0.167764
O28	O	1.287107	0.630961	0.047505
O29	O	0.940358	0.846107	-0.167639
O30	O	1.093343	0.415832	0.167760
O31	O	1.287144	0.415827	0.167766
O32	O	1.287098	0.415828	0.047496
O33	O	0.746603	0.846110	-0.047375
O34	O	0.940405	0.846105	-0.047368
O35	O	1.073932	0.560168	0.106262
O36	O	1.187993	0.560166	0.035464
O37	O	1.073884	0.701767	-0.035335
O38	O	0.959823	0.701769	0.035463
C39	C	1.016842	0.441713	0.000053
C40	C	1.016839	0.377481	0.000050
C41	C	1.076370	0.347310	-0.036908
C42	C	1.076381	0.286949	-0.036903
C43	C	1.016839	0.256773	0.000052
C44	C	0.957306	0.286948	0.037018
C45	C	0.957306	0.347303	0.037017
C46	C	0.917084	0.194747	-0.005226
C47	C	0.917081	0.134397	-0.005230
C48	C	1.016840	0.070618	0.000059
C49	C	1.116602	0.067204	0.005338
C50	C	1.116602	0.127558	0.005337
C51	C	1.016833	0.191329	0.000057
C52	C	1.076388	-0.025004	-0.036895
C53	C	1.076403	-0.085370	-0.036884
C54	C	0.957316	-0.085363	0.037032
C55	C	0.957313	-0.025005	0.037026
C56	C	1.016847	0.005174	0.000058
C57	C	0.711873	0.630978	0.000051
C58	C	0.608367	0.630981	0.000047
C59	C	0.485560	0.708188	-0.038550
C60	C	0.454712	0.669593	-0.066525
C61	C	0.454791	0.669573	0.028018
C62	C	0.578882	0.592385	-0.027967
C63	C	0.578958	0.592376	0.066612
C64	C	0.548183	0.553725	0.038653
C65	C	1.321828	0.630961	0.000071
C66	C	1.425334	0.630958	0.000074
C67	C	1.016777	0.630972	-0.189204
C68	C	1.016753	0.630973	-0.253438
C69	C	1.016859	0.820226	0.000069
C70	C	1.016862	0.884457	0.000072
C71	C	0.957194	0.704885	-0.320568
C72	C	0.957223	0.704886	-0.380923
C73	C	1.016795	0.630971	-0.374145
C74	C	1.076366	0.557049	-0.307003
C75	C	1.076345	0.557050	-0.246650
C76	C	1.008333	0.574343	-0.441464
C77	C	1.008346	0.574346	-0.501818
C78	C	1.016867	0.630965	-0.560292
C79	C	1.025352	0.687596	-0.558412
C80	C	1.025331	0.687597	-0.498059
C81	C	1.016825	0.630962	-0.439583
C82	C	0.957337	0.704883	-0.692868
C83	C	0.957374	0.704881	-0.753223
C84	C	1.076510	0.557042	-0.679301
C85	C	1.076480	0.557046	-0.618948
C86	C	1.016888	0.630969	-0.625737
C87	C	1.016923	0.630966	0.189325
C88	C	1.016948	0.630965	0.253560
C89	C	1.321819	0.441704	0.000063
C90	C	1.425323	0.377470	0.000063
C91	C	1.016915	0.441710	0.189317
C92	C	1.016937	0.377477	0.253549
C93	C	1.321892	0.441702	0.189327
C94	C	1.425421	0.377466	0.253562
C95	C	0.711809	0.820237	-0.189206
C96	C	0.608280	0.884473	-0.253441
C97	C	0.711881	0.820234	0.000059
C98	C	0.608378	0.884469	0.000058
C99	C	1.016786	0.820228	-0.189196
C100	C	1.016764	0.884461	-0.253427
C101	C	1.414362	0.347307	-0.036902
C102	C	1.511606	0.286960	-0.036916
C103	C	1.619809	0.256773	0.000041
C104	C	1.630767	0.286942	0.037008
C105	C	1.533525	0.347292	0.037016
C106	C	1.076514	0.347311	0.320679
C107	C	1.076531	0.286966	0.381037
C108	C	1.016975	0.256784	0.374264
C109	C	0.957391	0.286957	0.307127
C110	C	0.957368	0.347305	0.246770
C111	C	1.533588	0.347299	0.246772
C112	C	1.630873	0.286951	0.307122
C113	C	1.619989	0.256767	0.374262
C114	C	1.511811	0.286940	0.381050
C115	C	1.414528	0.347291	0.320701
C116	C	0.500113	0.914647	-0.246651
C117	C	0.402828	0.975014	-0.307001
C118	C	0.413712	1.005201	-0.374140
C119	C	0.521890	0.975024	-0.380929
C120	C	0.619173	0.914663	-0.320580
C121	C	0.619338	0.914638	0.037017
C122	C	0.522095	0.975002	0.037014
C123	C	0.413892	1.005191	0.000055
C124	C	0.402934	0.975019	-0.036908
C125	C	0.500176	0.914661	-0.036909
C126	C	1.076331	0.914624	-0.246632
C127	C	1.076332	0.974969	-0.306979
C128	C	1.016760	1.005155	-0.374121
C129	C	0.957191	0.974987	-0.380915
C130	C	0.957197	0.914639	-0.320569
H131	H	1.124887	-0.109940	-0.066977
H132	H	0.401296	0.702218	0.051662
H133	H	1.542471	0.371866	0.192109
N134	N	1.016745	1.070256	-0.439204
H135	H	0.969967	1.084808	-0.482773
H136	H	1.097437	1.049199	-0.439159
N137	N	1.140804	0.254427	0.453443
H138	H	1.178535	0.282701	0.448569
H139	H	1.200680	0.193840	0.480097
N140	N	1.747541	0.254414	0.299791
H141	H	1.739665	0.282690	0.248100
H142	H	1.790500	0.193827	0.323223
N143	N	0.383780	0.712816	-0.141072
H144	H	0.376609	0.673797	-0.145241
H145	H	0.421658	0.732918	-0.174932
H146	H	1.017003	0.207645	0.423416
N147	N	1.140605	0.379841	-0.076763
H148	H	1.131578	0.422652	-0.071155
H149	H	1.109323	0.404836	-0.128448
H150	H	0.491229	0.890072	-0.191988
H151	H	1.326457	0.371845	0.326240
H152	H	0.908686	0.890087	-0.326112
H153	H	1.032285	0.733704	-0.606025
H154	H	0.908814	0.765076	-0.698396
N155	N	1.140605	0.882072	-0.174223
H156	H	1.200538	0.821487	-0.147539
H157	H	1.085931	0.892633	-0.147586
H158	H	0.314754	0.999573	-0.301460
H159	H	0.908879	0.765072	-0.807885
N160	N	1.747480	0.254373	0.076865
H161	H	1.790482	0.193788	0.114047
H162	H	1.739590	0.282689	0.100245
H163	H	0.908836	-0.109932	0.067121
H164	H	1.502965	0.262355	0.435723
N165	N	0.533621	1.007586	-0.453346
H166	H	0.455573	1.050400	-0.490540
H167	H	0.576609	0.961497	-0.458943
N168	N	0.451871	0.794658	-0.081849
H169	H	0.482806	0.804217	-0.050913
H170	H	0.366177	0.833832	-0.101849
N171	N	0.893104	0.007542	0.076888
H172	H	0.855386	-0.020732	0.100301
H173	H	0.833221	0.068128	0.042954
N174	N	0.893086	0.254402	0.076874
H175	H	0.809769	0.300449	0.057490
H176	H	0.924438	0.229349	0.128567
H177	H	0.334489	1.054351	-0.423275
N178	N	0.893127	0.379823	0.174368
H179	H	0.902144	0.422632	0.137154
H180	H	0.809842	0.404817	0.168775
H181	H	0.314822	0.999608	-0.066999
N182	N	1.297666	0.379856	-0.076764
H183	H	1.305495	0.351586	-0.100183
H184	H	1.254709	0.440443	-0.113915
H185	H	1.699212	0.207625	0.423396
H186	H	0.707245	0.890095	-0.326117
H187	H	0.632230	0.559778	-0.051676
H188	H	0.707434	0.890063	0.067118
N189	N	0.892936	1.007550	-0.453333
H190	H	0.947550	0.997048	-0.480018
H191	H	0.833012	1.068126	-0.479956
N192	N	0.533929	1.007536	0.076885
H193	H	0.617233	0.979242	0.100302
H194	H	0.496183	0.997038	0.114038
H195	H	0.908902	0.262374	0.301623
H196	H	1.698980	0.207631	0.000028
N197	N	1.140774	0.477317	-0.671980
H198	H	1.131755	0.488530	-0.720400
H199	H	1.109508	0.445038	-0.645309
H200	H	0.908675	0.765079	-0.326101
H201	H	0.835848	0.137186	-0.009532
H202	H	1.124860	0.262378	-0.067000
H203	H	0.491236	0.890098	-0.067004
H204	H	0.334720	1.054339	0.000062
N205	N	0.892971	0.784612	-0.453335
H206	H	0.833055	0.787899	-0.480034
H207	H	0.947668	0.787864	-0.479954
H208	H	1.197832	0.124773	0.009637
N209	N	1.034488	0.748669	-0.496026
H210	H	1.039889	0.784539	-0.542224
H211	H	1.104766	0.718818	-0.456047
H212	H	1.124974	0.496859	-0.564287
N213	N	1.140576	0.477326	-0.174242
H214	H	1.131519	0.488543	-0.137038
H215	H	1.223869	0.445047	-0.168632
N216	N	1.140586	1.007498	-0.299642
H217	H	1.178314	0.979220	-0.247950
H218	H	1.085908	1.068085	-0.323073
H219	H	1.197839	0.015267	0.009653
H220	H	1.124869	-0.000435	-0.066994
H221	H	1.542465	0.371843	0.067122
N222	N	0.809481	0.263535	-0.010928
H223	H	0.746283	0.256545	-0.014279
H224	H	0.787279	0.317266	-0.054544
H225	H	0.908826	0.371869	0.067113
H226	H	0.632492	0.559773	0.122883
N227	N	0.582175	0.467178	0.081899
H228	H	0.628222	0.438127	0.060700
H229	H	0.511598	0.467705	0.082000
N230	N	0.999219	0.513258	-0.503840
H231	H	0.993843	0.477378	-0.457634
H232	H	1.068784	0.478491	-0.511480
H233	H	1.124871	0.496867	-0.301488
N234	N	0.999148	0.513269	-0.378395
H235	H	0.993767	0.477399	-0.388745
H236	H	0.928854	0.543116	-0.368291
N237	N	1.499772	0.254429	-0.076789
H238	H	1.416468	0.282707	-0.100192
H239	H	1.537541	0.193842	-0.042861
H240	H	1.125012	0.371878	0.326207
