data_functionalizedCrystal
_audit_creation_method	'MofGen! by Chris Wilmer'
_symmetry_space_group_name_H-M	'P1'
_symmetry_Int_Tables_number	1
_symmetry_cell_setting	triclinic
loop_
_symmetry_equiv_pos_as_xyz
  x,y,z
_cell_length_a	16.992694
_cell_length_b	16.992695
_cell_length_c	12.503572
_cell_angle_alpha	86.236993
_cell_angle_beta	93.753406
_cell_angle_gamma	90.668223
loop_
_atom_site_label
_atom_site_type_symbol
_atom_site_fract_x
_atom_site_fract_y
_atom_site_fract_z
O1	O	-1.055098	-0.162653	-0.089186
O2	O	-0.555098	0.337347	0.410814
O3	O	-0.826700	-0.160821	-0.089218
O4	O	-0.326700	0.339179	0.410782
O5	O	-0.939983	-0.047537	-0.089194
O6	O	-0.439983	0.452463	0.410806
O7	O	-0.941815	-0.275937	-0.089211
O8	O	-0.441815	0.224063	0.410789
O9	O	-0.931464	-0.056072	0.089446
O10	O	-0.431464	0.443928	0.589446
O11	O	-0.818181	-0.169355	0.089422
O12	O	-0.318181	0.330645	0.589422
O13	O	-1.046580	-0.171188	0.089454
O14	O	-0.546580	0.328812	0.589454
Cu15	Cu	-0.931602	-0.171051	0.105749
Cu16	Cu	-0.431602	0.328949	0.605749
Cu17	Cu	-0.941677	-0.160958	-0.105513
Cu18	Cu	-0.441677	0.339042	0.394487
O19	O	-0.933296	-0.284471	0.089430
O20	O	-0.433296	0.215529	0.589430
C21	C	-0.793080	-0.162732	0.000098
C22	C	-0.293080	0.337268	0.500098
C23	C	-0.705596	-0.155703	0.000086
C24	C	-0.205596	0.344297	0.500086
C25	C	-0.933368	-0.022445	0.000126
C26	C	-0.433368	0.477555	0.500126
C27	C	-0.926339	0.065040	0.000125
C28	C	-0.426339	0.565040	0.500125
C29	C	-1.080199	-0.169277	0.000135
C30	C	-0.580199	0.330723	0.500135
C31	C	-1.167683	-0.176306	0.000140
C32	C	-0.667683	0.323694	0.500140
N33	N	-0.924522	-0.178150	0.254340
N34	N	-0.424522	0.321850	0.754340
C35	C	-0.659606	-0.223521	0.000082
C36	C	-0.159606	0.276479	0.500082
C37	C	-0.577404	-0.216912	0.000097
C38	C	-0.077404	0.283088	0.500097
C39	C	-0.541195	-0.142485	0.000109
C40	C	-0.041195	0.357515	0.500109
C41	C	-0.587192	-0.074663	0.000116
C42	C	-0.087192	0.425337	0.500116
C43	C	-0.669392	-0.081272	0.000109
C44	C	-0.169392	0.418728	0.500109
C45	C	-0.295880	-0.115092	0.000140
C46	C	0.204120	0.384908	0.500140
C47	C	-0.213674	-0.108488	0.000144
C48	C	0.286326	0.391512	0.500144
C49	C	-0.203892	-0.250738	0.000127
C50	C	0.296108	0.249262	0.500127
C51	C	-0.286094	-0.257341	0.000113
C52	C	0.213906	0.242659	0.500113
C53	C	-0.332083	-0.189518	0.000126
C54	C	0.167917	0.310482	0.500126
N55	N	-0.457172	-0.135729	0.000121
N56	N	0.042828	0.364271	0.500121
N57	N	-0.416104	-0.196276	0.000121
N58	N	0.083896	0.303724	0.500121
C59	C	-0.939911	-0.309564	0.000108
C60	C	-0.439911	0.190436	0.500108
C61	C	-0.946941	-0.397048	0.000102
C62	C	-0.446941	0.102952	0.500102
C63	C	-0.994157	0.111030	0.000135
C64	C	-0.494157	0.611030	0.500135
C65	C	-0.987548	0.193232	0.000124
C66	C	-0.487548	0.693232	0.500124
C67	C	-0.913121	0.229441	0.000110
C68	C	-0.413121	0.729441	0.500110
C69	C	-0.845299	0.183444	0.000096
C70	C	-0.345299	0.683444	0.500096
C71	C	-0.851908	0.101245	0.000100
C72	C	-0.351908	0.601245	0.500100
C73	C	-0.885728	0.474756	0.000091
C74	C	-0.385728	0.974756	0.500091
C75	C	-0.879123	0.556961	0.000091
C76	C	-0.379123	1.056961	0.500091
C77	C	-1.021373	0.566743	0.000117
C78	C	-0.521373	1.066743	0.500117
C79	C	-1.027976	0.484541	0.000127
C80	C	-0.527976	0.984541	0.500127
C81	C	-0.960154	0.438552	0.000107
C82	C	-0.460154	0.938552	0.500107
N83	N	-0.906364	0.313463	0.000102
N84	N	-0.406364	0.813463	0.500102
N85	N	-0.966912	0.354532	0.000108
N86	N	-0.466912	0.854532	0.500108
N87	N	-0.948763	-0.153853	-0.254104
N88	N	-0.448763	0.346147	0.245896
C89	C	-0.914108	-0.188599	0.473453
C90	C	-0.414108	0.311401	0.973453
C91	C	-0.959175	-0.143406	0.526790
C92	C	-0.459175	0.356594	1.026790
C93	C	-0.953380	-0.149220	0.648712
C94	C	-0.453380	0.350780	1.148712
C95	C	-0.919902	-0.182786	0.351520
C96	C	-0.419902	0.317214	0.851520
H97	H	-0.689081	-0.284127	0.000072
H98	H	-0.189081	0.215873	0.500072
O99	O	-1.010419	-0.091976	0.472203
O100	O	-0.510419	0.408024	0.972203
C101	C	-1.051202	-0.051116	0.545807
C102	C	-0.551202	0.448884	1.045807
H103	H	-1.015113	-0.052000	0.626005
H104	H	-0.515113	0.448000	1.126005
H105	H	-1.060703	0.012535	0.513212
H106	H	-0.560703	0.512535	1.013212
H107	H	-1.110766	-0.080839	0.557721
H108	H	-0.610766	0.419161	1.057721
H109	H	-0.871176	-0.231654	0.519351
H110	H	-0.371176	0.268346	1.019351
H111	H	-1.076590	0.604196	0.000131
H112	H	-0.576590	1.104196	0.500131
H113	H	-0.166439	-0.305955	0.000119
H114	H	0.333561	0.194045	0.500119
H115	H	-1.042773	0.230674	0.000135
H116	H	-0.542773	0.730674	0.500135
O117	O	-0.806763	0.592012	0.000018
O118	O	-0.306763	1.092012	0.500018
C119	C	-0.748316	0.533795	0.000024
C120	C	-0.248316	1.033795	0.500024
H121	H	-0.775490	0.478247	-0.033787
H122	H	-0.275490	0.978247	0.466213
H123	H	-0.699145	0.556603	-0.051859
H124	H	-0.199145	1.056603	0.448141
H125	H	-0.723053	0.519459	0.085719
H126	H	-0.223053	1.019459	0.585719
H127	H	-0.539962	-0.272137	0.000093
H128	H	-0.039962	0.227863	0.500093
H129	H	-0.315569	-0.317947	0.000091
H130	H	0.184431	0.182053	0.500091
H131	H	-0.184196	-0.047877	0.000153
H132	H	0.315804	0.452123	0.500153
H133	H	-0.784699	0.212932	0.000078
H134	H	-0.284699	0.712932	0.500078
O135	O	-0.551897	-0.002422	0.000082
O136	O	-0.051897	0.497578	0.500082
C137	C	-0.469482	-0.011130	0.000112
C138	C	0.030518	0.488870	0.500112
H139	H	-0.455658	-0.069735	-0.033714
H140	H	0.044342	0.430265	0.466286
H141	H	-0.443835	0.039285	-0.051745
H142	H	0.056165	0.539285	0.448255
H143	H	-0.442309	-0.009979	0.085816
H144	H	0.057691	0.490021	0.585816
O145	O	-0.819878	0.430067	-0.000111
O146	O	-0.319878	0.930067	0.499889
C147	C	-0.823859	0.386631	-0.092618
C148	C	-0.323859	0.886631	0.407382
H149	H	-0.865316	0.417261	-0.157277
H150	H	-0.365316	0.917261	0.342723
H151	H	-0.762509	0.382862	-0.123683
H152	H	-0.262509	0.882862	0.376317
H153	H	-0.846970	0.324646	-0.071699
H154	H	-0.346970	0.824646	0.428301
H155	H	-0.706837	-0.026047	0.000112
H156	H	-0.206837	0.473953	0.500112
O157	O	-0.340432	-0.049130	0.000100
O158	O	0.159568	0.450870	0.500100
C159	C	-0.290842	0.017974	0.000136
C160	C	0.209158	0.517974	0.500136
H161	H	-0.232424	0.003447	-0.033687
H162	H	0.267576	0.503447	0.466313
H163	H	-0.320480	0.068290	-0.051721
H164	H	0.179520	0.568290	0.448279
H165	H	-0.279522	0.036448	0.085842
H166	H	0.220478	0.536448	0.585842
O167	O	-1.066519	0.075989	0.000098
O168	O	-0.566519	0.575989	0.500098
C169	C	-1.124957	0.134212	0.000128
C170	C	-0.624957	0.634212	0.500128
H171	H	-1.101005	0.192985	-0.033694
H172	H	-0.601005	0.692985	0.466306
H173	H	-1.179082	0.116362	-0.051732
H174	H	-0.679082	0.616362	0.448268
H175	H	-1.142039	0.140368	0.085832
H176	H	-0.642039	0.640368	0.585832
O177	O	-1.100337	0.449499	0.000096
O178	O	-0.600337	0.949499	0.500096
C179	C	-1.158778	0.507718	0.000135
C180	C	-0.658778	1.007718	0.500135
H181	H	-1.134834	0.566491	-0.033700
H182	H	-0.634834	1.066491	0.466300
H183	H	-1.212909	0.489861	-0.051710
H184	H	-0.712909	0.989861	0.448290
H185	H	-1.175849	0.513878	0.085843
H186	H	-0.675849	1.013878	0.585843
H187	H	-0.796684	0.063800	0.000091
H188	H	-0.296684	0.563800	0.500091
