data_functionalizedCrystal
_audit_creation_method	'MofGen! by Chris Wilmer'
_symmetry_space_group_name_H-M	'P1'
_symmetry_Int_Tables_number	1
_symmetry_cell_setting	triclinic
loop_
_symmetry_equiv_pos_as_xyz
  x,y,z
_cell_length_a	19.188930
_cell_length_b	8.559649
_cell_length_c	7.681215
_cell_angle_alpha	82.929706
_cell_angle_beta	96.450142
_cell_angle_gamma	103.538277
loop_
_atom_site_label
_atom_site_type_symbol
_atom_site_fract_x
_atom_site_fract_y
_atom_site_fract_z
O1	O	-0.018526	-2.133742	0.146401
O2	O	0.017546	-1.668288	0.146420
O3	O	-0.102849	-1.914444	0.146376
O4	O	0.101869	-1.887586	0.146445
O5	O	-0.113192	-1.887519	-0.146498
O6	O	0.007203	-1.641363	-0.146454
O7	O	-0.028869	-2.106818	-0.146472
Zn8	Zn	-0.012475	-1.869816	-0.192963
Zn9	Zn	0.001152	-1.905290	0.192910
O10	O	0.091526	-1.860662	-0.146428
C11	C	0.015108	-1.595277	-0.000015
C12	C	0.023245	-1.417840	-0.000010
C13	C	-0.133986	-1.900111	-0.000066
C14	C	-0.211355	-1.897498	-0.000081
C15	C	-0.026431	-2.179829	-0.000033
C16	C	-0.034567	-2.357266	-0.000027
C17	C	-0.263831	-2.041936	-0.000095
C18	C	-0.336526	-2.039485	-0.000067
C19	C	-0.356741	-1.892585	-0.000060
C20	C	-0.304253	-1.748130	-0.000036
C21	C	-0.231560	-1.750586	-0.000047
N22	N	-0.462395	-1.771135	-0.099726
N23	N	-0.531452	-1.768811	-0.099719
C24	C	-0.575761	-1.885175	-0.000024
N25	N	-0.548408	-2.003974	0.099643
N26	N	-0.479346	-2.006302	0.099629
C27	C	-0.435563	-1.889905	-0.000047
C28	C	-0.707062	-2.026965	-0.000005
C29	C	-0.779757	-2.024509	0.000034
C30	C	-0.747483	-1.733148	0.000048
C31	C	-0.674790	-1.735610	0.000026
C32	C	-0.654584	-1.882522	-0.000008
C33	C	0.122664	-1.874995	0.000018
C34	C	0.200033	-1.877608	0.000044
N35	N	-0.021776	-1.845617	-0.456311
N36	N	0.010448	-1.929501	0.456258
H37	H	-0.247385	-2.161563	-0.000117
C38	C	0.054880	-2.045137	-0.442100
H39	H	0.074161	-2.095357	-0.523260
H40	H	0.093054	-1.986003	-0.370170
H41	H	0.024828	-2.125417	-0.370183
C42	C	-0.394260	-2.198370	-0.000095
H43	H	-0.371815	-2.286214	-0.000128
H44	H	-0.419678	-2.212867	0.102034
H45	H	-0.426898	-2.194057	-0.102241
H46	H	-0.054669	-1.760035	-0.531558
C47	C	-0.326484	-1.586541	-0.000021
H48	H	-0.284815	-1.500868	0.000001
H49	H	-0.357785	-1.570128	-0.102146
H50	H	-0.350555	-1.588928	0.102129
H51	H	-0.632062	-1.617992	0.000028
H52	H	-0.690610	-2.146590	-0.000025
C53	C	-0.173834	-1.591697	-0.000048
H54	H	-0.196282	-1.503853	-0.000048
H55	H	-0.141187	-1.595987	0.102073
H56	H	-0.148426	-1.577213	-0.102203
C57	C	-0.837485	-2.183396	0.000039
H58	H	-0.883672	-2.160899	0.000077
H59	H	-0.835821	-2.234268	-0.102098
H60	H	-0.828580	-2.253040	0.102177
C61	C	-0.769712	-1.571562	0.000061
H62	H	-0.820522	-1.590782	0.000058
H63	H	-0.747552	-1.521499	0.102192
H64	H	-0.754785	-1.502720	-0.102083
C65	C	-0.109844	-1.470578	-0.000058
H66	H	-0.105622	-1.578969	-0.000072
H67	H	-0.131569	-1.460736	0.102062
H68	H	-0.138778	-1.441953	-0.102213
C69	C	0.098528	-1.304529	0.000027
H70	H	0.133705	-1.366325	0.000050
H71	H	0.100558	-1.229288	-0.102095
H72	H	0.107767	-1.248086	0.102181
