data_functionalizedCrystal
_audit_creation_method	'MofGen! by Chris Wilmer'
_symmetry_space_group_name_H-M	'P1'
_symmetry_Int_Tables_number	1
_symmetry_cell_setting	triclinic
loop_
_symmetry_equiv_pos_as_xyz
  x,y,z
_cell_length_a	14.908571
_cell_length_b	12.594516
_cell_length_c	14.908308
_cell_angle_alpha	93.271498
_cell_angle_beta	90.175053
_cell_angle_gamma	86.712497
loop_
_atom_site_label
_atom_site_type_symbol
_atom_site_fract_x
_atom_site_fract_y
_atom_site_fract_z
Zn1	Zn	1.345329	-0.555460	-0.587618
Zn2	Zn	1.353920	-0.723816	-0.437269
Zn3	Zn	1.203643	-0.535016	-0.428614
Zn4	Zn	1.194948	-0.722551	-0.578920
O5	O	1.274460	-0.634211	-0.508105
O6	O	1.472295	-0.586878	-0.574935
O7	O	1.341220	-0.690745	-0.310295
O8	O	1.222482	-0.388787	-0.449724
O9	O	1.478607	-0.710568	-0.464475
O10	O	1.326578	-0.403807	-0.566543
O11	O	1.230812	-0.552034	-0.303937
O12	O	1.076663	-0.550808	-0.441291
O13	O	1.207662	-0.708413	-0.705899
O14	O	1.070275	-0.688589	-0.551720
O15	O	1.318147	-0.585652	-0.712289
O16	O	1.332788	-0.872590	-0.456041
O17	O	1.215992	-0.871661	-0.560112
C18	C	1.040844	-0.617344	-0.494623
C19	C	0.940900	-0.610155	-0.488877
C20	C	1.274402	-0.910747	-0.508093
C21	C	1.274457	-1.029058	-0.508123
C22	C	0.746501	-0.740319	-0.592914
C23	C	0.652595	-0.733568	-0.587518
C24	C	0.659180	-0.589898	-0.472693
C25	C	0.753086	-0.596649	-0.478089
C26	C	0.796743	-0.671863	-0.538201
C27	C	0.890651	-0.678619	-0.543592
C28	C	0.897235	-0.534943	-0.428772
C29	C	0.803329	-0.528192	-0.423376
C30	C	1.210928	-1.097842	-0.564684
C31	C	1.193759	-1.161862	-0.481377
C32	C	1.291708	-1.175844	-0.591449
C33	C	1.257247	-1.091515	-0.424769
C34	C	1.355231	-1.105496	-0.534899
C35	C	1.338096	-1.169483	-0.451537
C36	C	1.508989	-0.651145	-0.521641
C37	C	1.608931	-0.658361	-0.527409
C38	C	1.260976	-0.649172	-0.742631
C39	C	1.255230	-0.655547	-0.842572
C40	C	1.274542	-0.356598	-0.508138
C41	C	1.274577	-0.238296	-0.508153
C42	C	1.359477	-0.539672	-1.037028
C43	C	1.354081	-0.545658	-1.130932
C44	C	1.239037	-0.673502	-1.124285
C45	C	1.244433	-0.667515	-1.030381
C46	C	1.304656	-0.600599	-0.986756
C47	C	1.310057	-0.594618	-0.892851
C48	C	1.195009	-0.722455	-0.886206
C49	C	1.189612	-0.728442	-0.980110
C50	C	1.287944	-0.619235	-0.274494
C51	C	1.293864	-0.612572	-0.174564
H52	H	0.782047	-0.801567	-0.641854
N53	N	1.420994	-0.471340	-0.992447
N54	N	1.481289	-0.509588	-0.943348
H55	H	1.524737	-0.461329	-0.911863
N56	N	0.758744	-0.451355	-0.361979
N57	N	0.768896	-0.354295	-0.368677
H58	H	0.737410	-0.300026	-0.325312
H59	H	1.242625	-1.054822	-0.354289
N60	N	1.440834	-1.074089	-0.563307
N61	N	1.510063	-1.099767	-0.520292
H62	H	1.570521	-1.077582	-0.540362
N63	N	0.601286	-0.803498	-0.643416
N64	N	0.640280	-0.870642	-0.697083
H65	H	0.604044	-0.920032	-0.736566
N66	N	1.138999	-0.784676	-0.834843
N67	N	1.084723	-0.739751	-0.779143
H68	H	1.045167	-0.783693	-0.742867
N69	N	1.177490	-0.741799	-1.168860
N70	N	1.095128	-0.728034	-1.153583
H71	H	1.051649	-0.776253	-1.185070
H72	H	1.157117	-1.066391	-0.612437
N73	N	1.128098	-0.796797	-1.024667
N74	N	1.134630	-0.894771	-1.014515
H75	H	1.091180	-0.943047	-1.045978
N76	N	1.309940	-1.222029	-0.679835
N77	N	1.258349	-1.200168	-0.743260
H78	H	1.271217	-1.232784	-0.805685
H79	H	1.391875	-1.200727	-0.403659
N80	N	1.108128	-1.193213	-0.452980
N81	N	1.039099	-1.168867	-0.496799
H82	H	0.978619	-1.191005	-0.476749
N83	N	0.614562	-0.513071	-0.411309
N84	N	0.530718	-0.507053	-0.406509
H85	H	0.499204	-0.452793	-0.363156
H86	H	0.938152	-0.479203	-0.384219
N87	N	0.935234	-0.755457	-0.604990
N88	N	0.890359	-0.816572	-0.653835
H89	H	0.921842	-0.870841	-0.697201
H90	H	1.359094	-0.540133	-0.857333
N91	N	1.410080	-0.483408	-1.182269
N92	N	1.463839	-0.423665	-1.143303
H93	H	1.503390	-0.379695	-1.179559
