data_functionalizedCrystal
_audit_creation_method	'MofGen! by Chris Wilmer'
_symmetry_space_group_name_H-M	'P1'
_symmetry_Int_Tables_number	1
_symmetry_cell_setting	triclinic
loop_
_symmetry_equiv_pos_as_xyz
  x,y,z
_cell_length_a	19.077078
_cell_length_b	16.959455
_cell_length_c	19.076919
_cell_angle_alpha	87.727026
_cell_angle_beta	94.468470
_cell_angle_gamma	87.676074
loop_
_atom_site_label
_atom_site_type_symbol
_atom_site_fract_x
_atom_site_fract_y
_atom_site_fract_z
Zn1	Zn	-0.296780	-1.176455	-0.409993
Zn2	Zn	-0.409933	-1.176354	-0.296833
Zn3	Zn	-0.292054	-1.049812	-0.292106
Zn4	Zn	-0.414618	-1.038700	-0.414658
O5	O	-0.353346	-1.110330	-0.353398
O6	O	-0.311807	-1.287050	-0.395007
O7	O	-0.390357	-1.164176	-0.197560
O8	O	-0.194032	-1.071305	-0.303813
O9	O	-0.394940	-1.286976	-0.311869
O10	O	-0.197504	-1.164348	-0.390424
O11	O	-0.303752	-1.071207	-0.194087
O12	O	-0.308295	-0.937729	-0.308337
O13	O	-0.402925	-1.052365	-0.512686
O14	O	-0.398343	-0.929565	-0.398376
O15	O	-0.316350	-1.153573	-0.509258
O16	O	-0.509203	-1.153400	-0.316393
O17	O	-0.512645	-1.052267	-0.402959
C18	C	-0.353315	-0.904967	-0.353350
C19	C	-0.353319	-0.817111	-0.353348
C20	C	-0.396566	-0.445588	-0.310048
C21	C	-0.310144	-0.445673	-0.396766
C22	C	-0.310134	-0.528220	-0.396752
C23	C	-0.353342	-0.569455	-0.353387
C24	C	-0.396559	-0.528142	-0.310035
C25	C	-0.266924	-0.569539	-0.440109
C26	C	-0.266913	-0.652090	-0.440098
C27	C	-0.310117	-0.693327	-0.396728
C28	C	-0.353335	-0.652009	-0.353374
C29	C	-0.396543	-0.693244	-0.310009
C30	C	-0.439758	-0.651928	-0.266650
C31	C	-0.439763	-0.569379	-0.266665
C32	C	-0.310112	-0.775876	-0.396713
C33	C	-0.396536	-0.775798	-0.309996
C34	C	-0.536503	-1.101637	-0.360711
C35	C	-0.614860	-1.097990	-0.363863
C36	C	-1.056120	-1.071824	-0.386498
C37	C	-0.982496	-1.075252	-0.383528
C38	C	-0.943871	-1.129657	-0.337006
C39	C	-0.978876	-1.180643	-0.293455
C40	C	-1.052499	-1.177219	-0.296429
C41	C	-0.723487	-1.145552	-0.323286
C42	C	-0.649859	-1.148971	-0.320314
C43	C	-0.653484	-1.043580	-0.410389
C44	C	-0.727108	-1.040157	-0.413355
C45	C	-0.762106	-1.091146	-0.369807
N46	N	-0.868615	-1.133160	-0.333967
N47	N	-0.837361	-1.087646	-0.372850
C48	C	-0.169474	-1.119077	-0.346071
C49	C	-0.091119	-1.122805	-0.342949
C50	C	-0.360688	-1.101740	-0.537265
C51	C	-0.363816	-1.098080	-0.615618
C52	C	-0.353370	-0.316496	-0.353432
C53	C	-0.353358	-0.404354	-0.353413
C54	C	-0.320213	-1.149051	-0.650645
C55	C	-0.323150	-1.145602	-0.724266
C56	C	-0.369694	-1.091185	-0.762859
C57	C	-0.413299	-1.040209	-0.727827
C58	C	-0.410358	-1.043654	-0.654207
C59	C	-0.383319	-1.075226	-0.983231
C60	C	-0.386259	-1.071786	-1.056856
C61	C	-0.296108	-1.177179	-1.053290
C62	C	-0.293174	-1.180623	-0.979669
C63	C	-0.336777	-1.129644	-0.944643
N64	N	-0.372698	-1.087660	-0.838112
N65	N	-0.333768	-1.133165	-0.869391
C66	C	-0.345982	-1.118934	-0.170244
C67	C	-0.342655	-1.122757	-0.091883
H68	H	-0.274971	-0.412095	-0.432076
Br69	Br	-0.498407	-0.513304	-0.207828
Br70	Br	-0.779522	-0.966329	-0.476505
Br71	Br	-0.455207	-0.389521	-0.251202
Br72	Br	-0.597440	-1.222798	-0.257160
Br73	Br	-0.208301	-0.513574	-0.498971
Br74	Br	-0.257048	-1.222912	-0.598276
H75	H	-0.255275	-1.224937	-0.948251
H76	H	-0.451194	-0.995898	-0.759255
H77	H	-0.231724	-0.685723	-0.475403
Br78	Br	-0.498401	-0.707898	-0.207806
H79	H	-0.947424	-1.224945	-0.255578
H80	H	-0.274928	-0.809512	-0.432016
Br81	Br	-1.108531	-0.997978	-0.449633
Br82	Br	-0.442493	-1.006038	-0.935705
Br83	Br	-0.469532	-0.974471	-0.606669
Br84	Br	-0.934999	-1.006065	-0.442638
H85	H	-1.080994	-1.218735	-0.260968
Br86	Br	-0.605983	-0.974388	-0.469490
H87	H	-0.751973	-1.187068	-0.287824
H88	H	-0.287645	-1.187110	-0.752782
Br89	Br	-0.236935	-1.246360	-1.100828
H90	H	-0.424162	-1.027471	-1.088276
H91	H	-0.431719	-0.809366	-0.274679
