data_functionalizedCrystal
_audit_creation_method	'MofGen! by Chris Wilmer'
_symmetry_space_group_name_H-M	'P1'
_symmetry_Int_Tables_number	1
_symmetry_cell_setting	triclinic
loop_
_symmetry_equiv_pos_as_xyz
  x,y,z
_cell_length_a	14.971482
_cell_length_b	10.489741
_cell_length_c	14.048226
_cell_angle_alpha	89.993872
_cell_angle_beta	89.994098
_cell_angle_gamma	84.075891
loop_
_atom_site_label
_atom_site_type_symbol
_atom_site_fract_x
_atom_site_fract_y
_atom_site_fract_z
O1	O	1.187895	0.166199	-0.079148
O2	O	0.927608	0.186110	-0.079152
O3	O	1.063674	-0.009512	-0.079144
O4	O	1.051829	0.361821	-0.079156
O5	O	1.063657	-0.009523	0.079177
O6	O	0.927591	0.186098	0.079169
O7	O	1.187878	0.166188	0.079174
Zn8	Zn	1.057732	0.176141	0.104308
Zn9	Zn	1.057754	0.176156	-0.104287
O10	O	1.051812	0.361810	0.079166
C11	C	0.894270	0.185215	0.000008
C12	C	0.794957	0.182549	0.000006
C13	C	0.748296	0.181287	0.086308
C14	C	0.654983	0.178762	0.086309
C15	C	0.608332	0.177508	0.000007
C16	C	0.655000	0.178766	-0.086301
C17	C	0.748312	0.181282	-0.086301
C18	C	0.460508	0.173525	-0.086295
C19	C	0.367190	0.171011	-0.086295
C20	C	0.367180	0.171005	0.086316
C21	C	0.460492	0.173521	0.086316
C22	C	0.507153	0.174781	0.000007
C23	C	1.062771	-0.057039	0.000016
C24	C	1.060094	-0.198637	0.000014
C25	C	0.973519	-0.265774	0.000006
C26	C	1.014408	-0.358376	0.078067
C27	C	1.014445	-0.358340	-0.078025
C28	C	1.101019	-0.289375	0.078140
C29	C	1.101044	-0.289329	-0.078023
C30	C	1.141996	-0.381904	0.000058
C31	C	1.221216	0.167083	0.000011
C32	C	1.320529	0.169749	0.000007
C33	C	1.052715	0.409337	0.000003
C34	C	1.055392	0.550935	-0.000001
N35	N	1.057724	0.176130	0.246669
N36	N	1.057769	0.176158	-0.246648
C37	C	1.117993	0.089545	0.296491
C38	C	1.117999	0.089544	0.396148
C39	C	1.057739	0.176136	0.445982
C40	C	0.997463	0.262725	0.396154
C41	C	0.997454	0.262719	0.296498
C42	C	0.997489	0.262735	0.603868
C43	C	0.997500	0.262743	0.703531
C44	C	1.118035	0.089560	0.703518
C45	C	1.118025	0.089553	0.603862
C46	C	1.057750	0.176145	0.554041
H47	H	0.498497	0.174551	-0.156577
Cl48	Cl	0.921702	0.371580	0.458800
H49	H	0.329184	0.169979	0.156592
Cl50	Cl	0.308544	0.169431	-0.194791
Cl51	Cl	0.519137	0.175111	0.194811
Cl52	Cl	0.921679	0.371570	0.233866
Cl53	Cl	1.157519	-0.242444	0.180145
H54	H	0.786272	0.182319	0.156585
Cl55	Cl	1.193767	-0.019310	0.458783
Cl56	Cl	0.596326	0.177199	0.194808
Cl57	Cl	0.596357	0.177142	-0.194796
H58	H	0.786302	0.182312	-0.156577
H59	H	0.902338	-0.215297	0.000083
H60	H	0.977770	-0.388968	0.144061
H61	H	1.213241	-0.432154	0.000102
H62	H	1.137652	-0.258703	-0.144020
H63	H	0.948429	0.333254	0.744101
Cl64	Cl	0.957876	-0.405515	-0.179911
H65	H	1.167112	0.019054	0.744089
Cl66	Cl	1.193786	-0.019297	0.541212
H67	H	1.167067	0.019037	0.255922
H68	H	0.948404	0.333243	0.563307
