data_functionalizedCrystal
_audit_creation_method	'MofGen! by Chris Wilmer'
_symmetry_space_group_name_H-M	'P1'
_symmetry_Int_Tables_number	1
_symmetry_cell_setting	triclinic
loop_
_symmetry_equiv_pos_as_xyz
  x,y,z
_cell_length_a	8.497374
_cell_length_b	12.759401
_cell_length_c	12.759400
_cell_angle_alpha	89.985368
_cell_angle_beta	89.991978
_cell_angle_gamma	90.003061
loop_
_atom_site_label
_atom_site_type_symbol
_atom_site_fract_x
_atom_site_fract_y
_atom_site_fract_z
Zn1	Zn	0.892017	1.606068	0.418450
Zn2	Zn	0.628222	1.606018	0.594097
Zn3	Zn	0.628238	1.430425	0.418432
Zn4	Zn	0.891947	1.430358	0.594087
O5	O	0.760106	1.518217	0.506266
O6	O	0.857047	1.753082	0.441761
O7	O	0.407462	1.582732	0.570791
O8	O	0.663265	1.453773	0.271413
O9	O	0.663237	1.753045	0.570808
O10	O	0.857063	1.582817	0.271427
O11	O	0.407474	1.453725	0.441731
O12	O	0.663197	1.283395	0.441722
O13	O	1.112719	1.453659	0.570792
O14	O	0.856943	1.283346	0.570775
O15	O	1.112770	1.582752	0.441752
O16	O	0.663169	1.582667	0.741116
O17	O	0.856927	1.453611	0.741109
C18	C	0.760065	1.245250	0.506246
C19	C	0.760085	1.128473	0.506263
C20	C	0.659088	0.963858	0.573373
C21	C	0.659043	1.073582	0.573354
C22	C	0.861168	1.073634	0.439179
C23	C	0.861203	0.963912	0.439194
C24	C	0.542397	0.963829	0.650841
C25	C	0.542353	1.073553	0.650822
C26	C	0.760073	1.518155	0.779234
C27	C	0.760112	1.518224	0.896010
C28	C	1.171586	1.518209	0.506268
C29	C	1.350230	1.518212	0.506279
C30	C	0.760148	1.792250	0.506288
C31	C	0.760166	1.909027	0.506297
C32	C	0.760174	1.518308	0.232233
C33	C	0.760202	1.518347	0.115457
C34	C	0.659334	1.585498	0.950841
C35	C	0.659382	1.585563	1.060565
C36	C	0.860992	1.451070	1.060618
C37	C	0.860950	1.451012	0.950896
C38	C	0.542931	1.663143	0.950812
C39	C	0.542980	1.663208	1.060536
H40	H	0.426346	1.107565	0.621554
H41	H	0.574865	1.103328	0.732221
H42	H	0.943427	1.118335	0.384545
C43	C	0.602243	1.767619	1.106417
H44	H	0.628591	1.814075	1.050923
H45	H	0.692724	1.755112	1.148307
H46	H	0.521953	1.798094	1.148317
C47	C	0.971809	1.377013	0.890585
H48	H	1.031855	1.336987	0.938990
H49	H	1.040579	1.417141	0.847730
H50	H	0.911375	1.331240	0.847839
C51	C	0.971896	1.377137	1.120995
H52	H	0.957484	1.386803	1.194195
H53	H	1.077906	1.392442	1.102971
H54	H	0.948695	1.306546	1.103078
H55	H	0.585976	0.929795	0.728184
C56	C	0.587281	1.773012	0.910480
H57	H	0.605565	1.818236	0.968351
H58	H	0.503685	1.800075	0.869119
H59	H	0.679984	1.768505	0.869100
H60	H	0.426819	1.634043	0.916832
C61	C	0.377440	0.923570	0.621230
H62	H	0.309577	0.981470	0.609031
H63	H	0.336714	0.882195	0.676880
H64	H	0.384265	0.882218	0.559490
H65	H	0.420780	1.641496	1.090364
H66	H	0.943498	0.919273	0.384565
