data_functionalizedCrystal
_audit_creation_method	'MofGen! by Chris Wilmer'
_symmetry_space_group_name_H-M	'P1'
_symmetry_Int_Tables_number	1
_symmetry_cell_setting	triclinic
loop_
_symmetry_equiv_pos_as_xyz
  x,y,z
_cell_length_a	13.339070
_cell_length_b	14.519709
_cell_length_c	11.804365
_cell_angle_alpha	101.851959
_cell_angle_beta	74.875130
_cell_angle_gamma	99.654719
loop_
_atom_site_label
_atom_site_type_symbol
_atom_site_fract_x
_atom_site_fract_y
_atom_site_fract_z
O1	O	1.363544	0.449147	-0.099080
O2	O	1.068905	0.388436	-0.099072
O3	O	1.224034	0.286542	-0.099066
O4	O	1.208414	0.551041	-0.099087
O5	O	1.183194	0.313329	0.098989
O6	O	1.028065	0.415223	0.098982
O7	O	1.322704	0.475934	0.098974
Cu8	Cu	1.171656	0.448024	0.117062
Cu9	Cu	1.219953	0.416345	-0.117160
O10	O	1.167575	0.577828	0.098968
C11	C	1.010777	0.391574	-0.000044
C12	C	0.898419	0.361005	-0.000040
C13	C	0.534064	0.598691	-0.000078
C14	C	0.639630	0.627415	-0.000085
C15	C	0.704332	0.560815	-0.000073
C16	C	0.663459	0.465486	-0.000055
C17	C	0.557884	0.436759	-0.000058
C18	C	0.728152	0.398882	-0.000053
C19	C	0.687279	0.303554	-0.000035
C20	C	0.581714	0.274831	-0.000037
C21	C	0.517012	0.341431	-0.000048
C22	C	0.833727	0.427610	-0.000051
C23	C	0.857547	0.265677	-0.000031
C24	C	0.751981	0.236954	-0.000024
C25	C	1.202886	0.265390	-0.000038
C26	C	1.200704	0.162454	-0.000038
C27	C	1.192677	-0.214489	-0.000068
C28	C	1.194906	-0.109613	-0.000059
C29	C	1.196690	-0.026021	-0.000052
C30	C	1.198920	0.078862	-0.000045
C31	C	1.380832	0.472796	-0.000057
C32	C	1.493192	0.503364	-0.000068
C33	C	1.188723	0.598979	-0.000062
C34	C	1.190907	0.701915	-0.000071
N35	N	1.137693	0.470307	0.281801
N36	N	1.253924	0.394058	-0.281899
C37	C	1.335480	0.340531	0.655758
C38	C	1.361172	0.323670	0.531097
C39	C	1.305304	0.360328	0.468767
C40	C	1.223741	0.413850	0.531110
C41	C	1.198052	0.430719	0.655783
C42	C	1.167876	0.450515	0.468792
C43	C	1.086313	0.504037	0.531135
C44	C	1.060628	0.520903	0.655795
C45	C	1.116496	0.484245	0.718126
C46	C	1.193565	0.433646	0.344119
C47	C	1.056137	0.523834	0.344144
C48	C	1.030445	0.540695	0.468805
H49	H	0.790289	0.584207	-0.000082
H50	H	1.326226	0.346597	0.367263
H51	H	1.427580	0.280094	0.480342
C52	C	0.878681	0.532461	-0.000066
H53	H	0.950822	0.540035	-0.000073
H54	H	0.842240	0.570364	0.068993
H55	H	0.870730	0.551671	-0.069147
H56	H	0.672904	0.705029	-0.000109
C57	C	0.400889	0.309832	-0.000046
H58	H	0.385810	0.243521	-0.000033
H59	H	0.386849	0.323897	-0.069112
H60	H	0.358366	0.342577	0.069029
H61	H	0.481377	0.652905	-0.000097
H62	H	1.380966	0.310695	0.706515
H63	H	1.095575	0.497970	0.819635
C64	C	0.536755	0.169973	-0.000022
H65	H	0.590403	0.134423	-0.000004
H66	H	0.510310	0.146056	-0.069086
H67	H	0.481824	0.164750	0.069054
H68	H	1.259973	0.390069	0.293371
C69	C	0.970928	0.579793	0.724370
H70	H	0.941330	0.599207	0.669398
H71	H	0.997392	0.634112	0.772983
H72	H	0.918711	0.542382	0.773021
H73	H	0.964035	0.584274	0.519580
C74	C	0.707018	0.132096	-0.000014
H75	H	0.760664	0.096542	0.000001
H76	H	0.680572	0.108185	-0.069078
H77	H	0.652087	0.126873	0.069063
C78	C	0.928708	0.192413	-0.000015
H79	H	0.997431	0.223176	-0.000004
H80	H	0.930548	0.145096	-0.069077
H81	H	0.902055	0.163783	0.069064
H82	H	1.010646	0.553686	0.293396
