data_functionalizedCrystal
_audit_creation_method	'MofGen! by Chris Wilmer'
_symmetry_space_group_name_H-M	'P1'
_symmetry_Int_Tables_number	1
_symmetry_cell_setting	triclinic
loop_
_symmetry_equiv_pos_as_xyz
  x,y,z
_cell_length_a	12.759401
_cell_length_b	12.827892
_cell_length_c	12.759393
_cell_angle_alpha	89.970218
_cell_angle_beta	89.979062
_cell_angle_gamma	90.016917
loop_
_atom_site_label
_atom_site_type_symbol
_atom_site_fract_x
_atom_site_fract_y
_atom_site_fract_z
Zn1	Zn	1.606261	-0.415940	-0.594025
Zn2	Zn	2.106261	0.084060	-0.094025
Zn3	Zn	1.606150	-0.590717	-0.418348
Zn4	Zn	2.106150	-0.090717	0.081652
Zn5	Zn	1.430560	-0.415996	-0.418361
Zn6	Zn	1.930560	0.084004	0.081639
Zn7	Zn	1.430550	-0.590644	-0.593985
Zn8	Zn	1.930550	-0.090644	-0.093985
O9	O	1.518380	-0.503324	-0.506180
O10	O	2.018380	-0.003324	-0.006180
O11	O	1.753268	-0.439132	-0.570733
O12	O	2.253268	0.060868	-0.070733
O13	O	1.582816	-0.567594	-0.271328
O14	O	2.082816	-0.067594	0.228672
O15	O	1.453918	-0.269752	-0.441685
O16	O	1.953918	0.230248	0.058315
O17	O	1.753186	-0.567540	-0.441663
O18	O	2.253186	-0.067540	0.058337
O19	O	1.583005	-0.269711	-0.570745
O20	O	2.083005	0.230289	-0.070745
O21	O	1.453810	-0.439227	-0.271338
O22	O	1.953810	0.060773	0.228662
O23	O	1.283538	-0.439156	-0.441646
O24	O	1.783538	0.060844	0.058354
O25	O	1.453900	-0.567416	-0.741011
O26	O	1.953900	-0.067416	-0.241011
O27	O	1.283530	-0.567469	-0.570676
O28	O	1.783530	-0.067469	-0.070676
O29	O	1.582995	-0.439061	-0.741041
O30	O	2.082995	0.060939	-0.241041
O31	O	1.582806	-0.736944	-0.441624
O32	O	2.082806	-0.236944	0.058376
O33	O	1.453793	-0.736890	-0.570664
O34	O	1.953793	-0.236890	-0.070664
C35	C	1.245413	-0.503312	-0.506159
C36	C	1.745413	-0.003312	-0.006159
C37	C	1.128636	-0.503331	-0.506175
C38	C	1.628636	-0.003331	-0.006175
C39	C	1.073798	-0.570246	-0.573255
C40	C	1.573798	-0.070246	-0.073255
C41	C	0.964074	-0.570250	-0.573276
C42	C	1.464074	-0.070250	-0.073276
C43	C	0.964036	-0.436422	-0.439127
C44	C	1.464036	0.063578	0.060873
C45	C	1.073758	-0.436413	-0.439112
C46	C	1.573758	0.063587	0.060888
C47	C	1.518315	-0.774834	-0.506161
C48	C	2.018315	-0.274834	-0.006161
C49	C	1.518383	-0.890987	-0.506188
C50	C	2.018383	-0.390987	-0.006188
C51	C	1.582298	-0.942764	-0.442406
C52	C	2.082298	-0.442764	0.057594
C53	C	1.582370	-1.062814	-0.442433
C54	C	2.082370	-0.562814	0.057567
C55	C	1.792414	-0.503338	-0.506201
C56	C	2.292414	-0.003338	-0.006201
C57	C	1.909190	-0.503344	-0.506210
C58	C	2.409190	-0.003344	-0.006210
C59	C	1.518459	-0.503224	-0.780213
C60	C	2.018459	-0.003224	-0.280213
C61	C	1.518492	-0.503181	-0.896990
C62	C	2.018492	-0.003181	-0.396990
C63	C	1.518475	-0.230754	-0.506221
C64	C	2.018475	0.269246	-0.006221
C65	C	1.518515	-0.114601	-0.506239
C66	C	2.018515	0.385399	-0.006239
C67	C	1.585717	-0.436336	-0.951869
C68	C	2.085717	0.063664	-0.451869
C69	C	1.585735	-0.436291	-1.061593
C70	C	2.085735	0.063709	-0.561593
C71	C	1.451301	-0.569945	-1.061549
C72	C	1.951301	-0.069945	-0.561549
C73	C	1.451278	-0.569984	-0.951827
C74	C	1.951278	-0.069984	-0.451827
C75	C	1.518363	-0.503349	-0.233212
C76	C	2.018363	-0.003349	0.266788
C77	C	1.518533	-0.503097	-0.116436
C78	C	2.018533	-0.003097	0.383564
H79	H	1.118409	-0.381917	-0.384487
H80	H	1.618409	0.118083	0.115513
H81	H	1.636970	-0.898218	-0.387783
H82	H	2.136970	-0.398218	0.112217
H83	H	1.640474	-0.381858	-1.106271
H84	H	2.140474	0.118142	-0.606271
H85	H	1.637087	-1.107341	-0.387824
H86	H	2.137087	-0.607341	0.112176
H87	H	0.919429	-0.624737	-0.627901
H88	H	1.419429	-0.124737	-0.127901
H89	H	1.640444	-0.381938	-0.907224
H90	H	2.140444	0.118062	-0.407224
H91	H	0.919341	-0.381941	-0.384525
H92	H	1.419341	0.118059	0.115475
Br93	Br	1.427293	-1.040401	-0.597253
Br94	Br	1.927293	-0.540401	-0.097253
H95	H	1.396580	-0.624336	-1.106211
H96	H	1.896580	-0.124336	-0.606211
Br97	Br	1.360029	-0.660699	-0.877341
Br98	Br	1.860029	-0.160699	-0.377341
H99	H	1.118476	-0.624732	-0.627864
H100	H	1.618476	-0.124732	-0.127864
H101	H	1.463720	-0.935536	-0.560818
H102	H	1.963720	-0.435536	-0.060818
