data_functionalizedCrystal
_audit_creation_method	'MofGen! by Chris Wilmer'
_symmetry_space_group_name_H-M	'P1'
_symmetry_Int_Tables_number	1
_symmetry_cell_setting	triclinic
loop_
_symmetry_equiv_pos_as_xyz
  x,y,z
_cell_length_a	10.654550
_cell_length_b	9.065215
_cell_length_c	9.730223
_cell_angle_alpha	89.996783
_cell_angle_beta	89.999490
_cell_angle_gamma	84.749814
loop_
_atom_site_label
_atom_site_type_symbol
_atom_site_fract_x
_atom_site_fract_y
_atom_site_fract_z
O1	O	1.668659	0.207234	-0.114184
O2	O	1.303258	0.226978	-0.114209
O3	O	1.493513	0.002422	-0.114190
O4	O	1.478404	0.431790	-0.114203
O5	O	1.493499	0.002417	0.114390
O6	O	1.303244	0.226973	0.114371
O7	O	1.668645	0.207229	0.114396
Zn8	Zn	1.485942	0.217101	0.150675
Zn9	Zn	1.485961	0.217107	-0.150489
O10	O	1.478390	0.431785	0.114377
C11	C	1.256448	0.225526	0.000078
C12	C	1.116987	0.221189	0.000068
C13	C	1.492055	-0.052559	0.000098
C14	C	1.487716	-0.216378	0.000094
C15	C	1.038024	0.353404	0.000068
C16	C	0.906987	0.349320	0.000092
C17	C	0.933889	0.080794	0.000111
C18	C	1.064924	0.084879	0.000096
C19	C	1.715455	0.208682	0.000106
C20	C	1.854916	0.213019	0.000106
C21	C	1.479848	0.486767	0.000085
C22	C	1.484187	0.650586	0.000081
N23	N	1.485939	0.217095	0.356212
C24	C	1.570212	0.117704	0.428146
C25	C	1.570224	0.117706	0.572029
C26	C	1.401684	0.316501	0.572031
C27	C	1.401667	0.316492	0.428150
N28	N	1.485966	0.217106	0.643975
H29	H	1.080410	0.464395	0.000056
H30	H	1.333036	0.397428	0.369577
H31	H	1.638845	0.036771	0.630594
C32	C	0.820133	0.494767	0.000099
N33	N	0.754714	0.604325	0.000108
H34	H	1.129219	-0.022793	0.000100
H35	H	1.638829	0.036768	0.369577
C36	C	1.308988	0.425829	0.651176
N37	N	1.239167	0.508177	0.710788
C38	C	0.876606	-0.069139	0.000129
N39	N	0.833462	-0.182071	0.000137
