data_functionalizedCrystal
_audit_creation_method	'MofGen! by Chris Wilmer'
_symmetry_space_group_name_H-M	'P1'
_symmetry_Int_Tables_number	1
_symmetry_cell_setting	triclinic
loop_
_symmetry_equiv_pos_as_xyz
  x,y,z
_cell_length_a	6.394989
_cell_length_b	16.992694
_cell_length_c	15.455313
_cell_angle_alpha	87.142206
_cell_angle_beta	92.745973
_cell_angle_gamma	88.582967
loop_
_atom_site_label
_atom_site_type_symbol
_atom_site_fract_x
_atom_site_fract_y
_atom_site_fract_z
O1	O	0.435072	1.048122	-0.072012
O2	O	0.430202	0.819790	-0.072038
O3	O	0.129113	0.937197	-0.072025
O4	O	0.736160	0.930715	-0.072024
O5	O	0.146255	0.930482	0.072236
O6	O	0.447344	0.813075	0.072224
O7	O	0.452214	1.041407	0.072249
Cu8	Cu	0.451344	0.926628	0.085409
Cu9	Cu	0.431071	0.934569	-0.085197
O10	O	0.753302	0.924000	0.072237
C11	C	0.432511	0.787158	0.000090
C12	C	0.413829	0.699930	0.000079
C13	C	0.594077	0.651470	0.000080
C14	C	0.576513	0.569510	0.000092
C15	C	0.378698	0.536010	0.000097
C16	C	0.198437	0.584476	0.000099
C17	C	0.216003	0.666434	0.000093
C18	C	0.305891	0.291692	0.000120
C19	C	0.288338	0.209727	0.000123
C20	C	0.666416	0.194766	0.000119
C21	C	0.683964	0.276728	0.000108
C22	C	0.503704	0.325186	0.000114
N23	N	0.360740	0.452233	0.000107
N24	N	0.521664	0.408961	0.000111
C25	C	0.822766	0.928639	0.000103
C26	C	1.059654	0.932556	0.000100
C27	C	0.449904	1.074039	0.000120
C28	C	0.468586	1.161267	0.000124
N29	N	0.465602	0.921049	0.205404
N30	N	0.416798	0.940154	-0.205192
C31	C	0.337742	0.970946	0.250803
C32	C	0.348545	0.966733	0.341610
C33	C	0.487221	0.912628	0.387017
C34	C	0.615085	0.862725	0.341611
C35	C	0.604270	0.866934	0.250805
C36	C	0.533847	0.894461	0.658596
C37	C	0.544658	0.890257	0.749409
C38	C	0.278114	0.994265	0.749402
C39	C	0.267319	0.998472	0.658594
C40	C	0.395176	0.948567	0.613196
N41	N	0.498271	0.908323	0.479837
N42	N	0.384114	0.952869	0.520378
H43	H	0.069226	0.705890	0.000092
O44	O	0.786072	0.684139	0.000034
C45	C	0.980709	0.803764	0.000072
C46	C	0.763140	0.766875	0.000102
H47	H	0.962245	0.870660	0.000145
H48	H	1.063333	0.786816	-0.060315
H49	H	1.077640	0.781112	0.060431
H50	H	0.666041	0.789507	-0.060217
H51	H	0.680679	0.783818	0.060529
O52	O	0.749511	0.810127	0.385814
C53	C	0.788172	0.698530	0.488314
C54	C	0.635702	0.758059	0.438326
H55	H	0.696215	0.656407	0.530768
H56	H	0.903440	0.731454	0.530875
H57	H	0.877746	0.663624	0.440251
H58	H	0.545985	0.792981	0.486326
H59	H	0.520570	0.725088	0.395752
O60	O	0.096201	0.177151	-0.000020
C61	C	-0.151868	0.096721	-0.074719
C62	C	0.065738	0.133584	-0.074673
H63	H	-0.176549	0.061475	-0.135060
H64	H	-0.277795	0.145401	-0.074769
H65	H	-0.162300	0.055952	-0.014317
H66	H	0.076374	0.174346	-0.135065
H67	H	0.191562	0.084864	-0.074578
H68	H	0.723291	0.530057	0.000092
O69	O	0.131918	1.050929	0.614722
C70	C	-0.227798	1.094438	0.587612
C71	C	-0.074444	1.034977	0.637208
H72	H	-0.394670	1.081571	0.605787
H73	H	-0.214346	1.089034	0.514849
H74	H	-0.187873	1.156771	0.605531
H75	H	-0.114268	0.972618	0.619362
H76	H	-0.087924	1.040449	0.709959
O77	O	0.728692	0.818433	0.206836
C78	C	0.994119	0.714796	0.216420
C79	C	0.853370	0.769694	0.266322
H80	H	1.094925	0.675365	0.264493
H81	H	1.099429	0.751663	0.173920
H82	H	0.892073	0.676678	0.173895
H83	H	0.955253	0.807823	0.308895
H84	H	0.748046	0.732781	0.308767
H85	H	0.637958	0.853827	0.621641
O86	O	0.130707	0.338728	-0.000033
C87	C	-0.196015	0.380014	-0.074744
C88	C	0.002318	0.326716	-0.074688
H89	H	-0.299892	0.370309	-0.135086
H90	H	-0.149637	0.444366	-0.074801
H91	H	-0.285414	0.364785	-0.014343
H92	H	0.091809	0.341875	-0.135079
H93	H	-0.044199	0.262379	-0.074586
H94	H	0.657592	0.846196	0.786374
O95	O	0.876005	0.309366	0.000198
C96	C	1.124191	0.389750	0.074896
C97	C	0.906648	0.352840	0.074912
H98	H	1.149053	0.424893	0.135304
H99	H	1.134647	0.430590	0.014550
H100	H	1.249996	0.341036	0.074846
H101	H	0.780717	0.401500	0.074992
H102	H	0.896371	0.311981	0.135253
O103	O	0.202851	1.023526	0.206833
C104	C	-0.060301	1.126271	0.216421
C105	C	0.092343	1.066748	0.266321
H106	H	-0.149656	1.161243	0.264495
H107	H	-0.175733	1.093341	0.173942
H108	H	0.031605	1.168334	0.173875
H109	H	0.000612	1.024670	0.308914
H110	H	0.207775	1.099729	0.308746
H111	H	0.244431	1.007363	0.378574
H112	H	0.813173	0.155303	0.000115
H113	H	0.174016	1.034894	0.786373
H114	H	0.037373	0.557193	0.000115
