data_functionalizedCrystal
_audit_creation_method	'MofGen! by Chris Wilmer'
_symmetry_space_group_name_H-M	'P1'
_symmetry_Int_Tables_number	1
_symmetry_cell_setting	triclinic
loop_
_symmetry_equiv_pos_as_xyz
  x,y,z
_cell_length_a	18.050591
_cell_length_b	21.295417
_cell_length_c	18.050582
_cell_angle_alpha	89.973245
_cell_angle_beta	89.979078
_cell_angle_gamma	90.026512
loop_
_atom_site_label
_atom_site_type_symbol
_atom_site_fract_x
_atom_site_fract_y
_atom_site_fract_z
Zn1	Zn	1.135281	-0.250716	-0.420010
Zn2	Zn	1.468614	0.082617	-0.086676
Zn3	Zn	1.801947	0.415950	0.246657
Zn4	Zn	1.135186	-0.355977	-0.295811
Zn5	Zn	1.468520	-0.022644	0.037523
Zn6	Zn	1.801853	0.310689	0.370856
Zn7	Zn	1.011100	-0.250719	-0.295821
Zn8	Zn	1.344433	0.082615	0.037512
Zn9	Zn	1.677767	0.415948	0.370846
Zn10	Zn	1.011043	-0.355944	-0.419946
Zn11	Zn	1.344376	-0.022611	-0.086613
Zn12	Zn	1.677710	0.310722	0.246720
O13	O	1.073153	-0.303339	-0.357897
O14	O	1.406486	0.029994	-0.024564
O15	O	1.739819	0.363327	0.308770
O16	O	1.239193	-0.264692	-0.403557
O17	O	1.572526	0.068641	-0.070224
O18	O	1.905859	0.401974	0.263110
O19	O	1.118710	-0.342030	-0.191887
O20	O	1.452044	-0.008696	0.141446
O21	O	1.785377	0.324637	0.474779
O22	O	1.027636	-0.162629	-0.312326
O23	O	1.360969	0.170704	0.021008
O24	O	1.694303	0.504038	0.354341
O25	O	1.239124	-0.342027	-0.312308
O26	O	1.572457	-0.008694	0.021025
O27	O	1.905790	0.324639	0.354358
O28	O	1.118871	-0.162627	-0.403567
O29	O	1.452204	0.170706	-0.070233
O30	O	1.785538	0.504039	0.263100
O31	O	1.027545	-0.264697	-0.191895
O32	O	1.360878	0.068637	0.141438
O33	O	1.694211	0.401970	0.474772
O34	O	0.907168	-0.264664	-0.312264
O35	O	1.240501	0.068669	0.021069
O36	O	1.573834	0.402002	0.354403
O37	O	1.027539	-0.341971	-0.523879
O38	O	1.360872	-0.008637	-0.190546
O39	O	1.694206	0.324696	0.142787
O40	O	0.907126	-0.341973	-0.403458
O41	O	1.240459	-0.008640	-0.070125
O42	O	1.573793	0.324694	0.263208
O43	O	1.118816	-0.264660	-0.523926
O44	O	1.452149	0.068673	-0.190593
O45	O	1.785483	0.402007	0.142741
O46	O	1.118655	-0.444062	-0.312247
O47	O	1.451989	-0.110729	0.021087
O48	O	1.785322	0.222604	0.354420
O49	O	1.027448	-0.444038	-0.403449
O50	O	1.360781	-0.110705	-0.070115
O51	O	1.694114	0.222629	0.263218
C52	C	0.880200	-0.303316	-0.357856
C53	C	1.213534	0.030018	-0.024523
C54	C	1.546867	0.363351	0.308811
C55	C	0.797655	-0.303321	-0.357856
C56	C	1.130988	0.030012	-0.024523
C57	C	1.464321	0.363346	0.308811
C58	C	1.073055	-0.466891	-0.357856
C59	C	1.406388	-0.133557	-0.024522
C60	C	1.739722	0.199776	0.308811
C61	C	1.073081	-0.536859	-0.357863
C62	C	1.406415	-0.203526	-0.024530
C63	C	1.739748	0.129808	0.308804
C64	C	0.598205	-0.261232	-0.308379
C65	C	0.931539	0.072102	0.024955
C66	C	1.264872	0.405435	0.358288
C67	C	0.548783	-0.318646	-0.290098
C68	C	0.882116	0.014687	0.043236
C69	C	1.215449	0.348020	0.376569
C70	C	0.646524	-0.303340	-0.357889
C71	C	0.979858	0.029993	-0.024556
C72	C	1.313191	0.363327	0.308777
C73	C	0.548865	-0.245945	-0.376169
C74	C	0.882198	0.087388	-0.042835
C75	C	1.215532	0.420722	0.290498
C76	C	0.500539	-0.303353	-0.357920
C77	C	0.833872	0.029980	-0.024587
C78	C	1.167206	0.363313	0.308746
C79	C	0.598189	-0.360785	-0.339573
C80	C	0.931522	-0.027452	-0.006240
C81	C	1.264856	0.305882	0.327094
C82	C	0.598276	-0.288045	-0.425676
C83	C	0.931609	0.045289	-0.092342
C84	C	1.264942	0.378622	0.240991
C85	C	0.548875	-0.345499	-0.407420
C86	C	0.882209	-0.012166	-0.074087
C87	C	1.215542	0.321167	0.259246
C88	C	0.730623	-0.303331	-0.357870
C89	C	1.063956	0.030002	-0.024536
C90	C	1.397289	0.363335	0.308797
C91	C	0.416443	-0.303368	-0.357940
C92	C	0.749776	0.029965	-0.024607
C93	C	1.083109	0.363298	0.308726
C94	C	1.120615	-0.569717	-0.310423
C95	C	1.453949	-0.236384	0.022910
C96	C	1.787282	0.096949	0.356244
C97	C	1.120650	-0.635460	-0.310440
C98	C	1.453984	-0.302127	0.022894
C99	C	1.787317	0.031207	0.356227
C100	C	1.073138	-0.668341	-0.357889
C101	C	1.406471	-0.335008	-0.024555
C102	C	1.739804	-0.001675	0.308778
C103	C	1.025600	-0.635475	-0.405338
C104	C	1.358934	-0.302142	-0.072005
C105	C	1.692267	0.031192	0.261329
C106	C	1.025572	-0.569734	-0.405325
C107	C	1.358906	-0.236400	-0.071992
C108	C	1.692239	0.096933	0.261341
N109	N	1.008171	-0.771604	-0.363536
N110	N	1.341504	-0.438270	-0.030203
N111	N	1.674837	-0.104937	0.303130
N112	N	1.008200	-0.834055	-0.363544
N113	N	1.341533	-0.500722	-0.030211
N114	N	1.674866	-0.167389	0.303122
C115	C	1.073221	-0.866416	-0.357931
C116	C	1.406554	-0.533083	-0.024598
C117	C	1.739888	-0.199749	0.308735
N118	N	1.138214	-0.833966	-0.352296
N119	N	1.471547	-0.500633	-0.018962
N120	N	1.804880	-0.167300	0.314371
N121	N	1.138184	-0.771509	-0.352284
N122	N	1.471517	-0.438176	-0.018951
N123	N	1.804851	-0.104842	0.314383
C124	C	1.073163	-0.739627	-0.357908
C125	C	1.406497	-0.406293	-0.024575
C126	C	1.739830	-0.072960	0.308759
C127	C	1.120797	-0.970560	-0.310507
C128	C	1.454130	-0.637227	0.022827
C129	C	1.787463	-0.303893	0.356160
C130	C	1.120833	-1.036304	-0.310529
C131	C	1.454166	-0.702970	0.022805
C132	C	1.787499	-0.369637	0.356138
C133	C	1.025776	-1.036318	-0.405423
C134	C	1.359110	-0.702984	-0.072090
C135	C	1.692443	-0.369651	0.261244
C136	C	1.025747	-0.970575	-0.405405
C137	C	1.359080	-0.637242	-0.072072
C138	C	1.692414	-0.303909	0.261262
C139	C	1.073256	-0.937700	-0.357943
C140	C	1.406589	-0.604367	-0.024610
C141	C	1.739923	-0.271034	0.308724
C142	C	1.266858	-0.303363	-0.357939
C143	C	1.600191	0.029970	-0.024605
C144	C	1.933525	0.363304	0.308728
C145	C	1.349404	-0.303373	-0.357956
C146	C	1.682737	0.029960	-0.024623
C147	C	2.016071	0.363293	0.308710
C148	C	1.073182	-0.303311	-0.551603
C149	C	1.406515	0.030022	-0.218269
C150	C	1.739848	0.363355	0.115064
C151	C	1.073194	-0.303299	-0.634148
C152	C	1.406527	0.030034	-0.300815
C153	C	1.739861	0.363367	0.032518
C154	C	1.073270	-0.139149	-0.357954
C155	C	1.406604	0.194184	-0.024621
C156	C	1.739937	0.527518	0.308712
C157	C	1.073321	-0.069181	-0.357979
C158	C	1.406654	0.264153	-0.024646
C159	C	1.739987	0.597486	0.308688
C160	C	1.023596	-0.345283	-0.833574
C161	C	1.356929	-0.011950	-0.500240
C162	C	1.690262	0.321383	-0.166907
C163	C	1.091350	-0.360675	-0.882971
C164	C	1.424683	-0.027341	-0.549638
C165	C	1.758017	0.305992	-0.216304
C166	C	1.073231	-0.303251	-0.785279
C167	C	1.406564	0.030082	-0.451946
C168	C	1.739897	0.363415	-0.118612
C169	C	1.005513	-0.287842	-0.882964
C170	C	1.338847	0.045491	-0.549630
C171	C	1.672180	0.378824	-0.216297
C172	C	1.073260	-0.303206	-0.931264
C173	C	1.406593	0.030127	-0.597931
C174	C	1.739927	0.363461	-0.264597
C175	C	1.141021	-0.318673	-0.833589
C176	C	1.474354	0.014661	-0.500255
C177	C	1.807687	0.347994	-0.166922
C178	C	1.055138	-0.245814	-0.833577
C179	C	1.388472	0.087520	-0.500244
C180	C	1.721805	0.420853	-0.166910
C181	C	1.122940	-0.261183	-0.882952
C182	C	1.456273	0.072150	-0.549619
C183	C	1.789606	0.405483	-0.216285
C184	C	1.073213	-0.303279	-0.701181
C185	C	1.406546	0.030054	-0.367847
C186	C	1.739879	0.363388	-0.034514
C187	C	1.073286	-0.303178	-1.015361
C188	C	1.406619	0.030155	-0.682027
C189	C	1.739952	0.363488	-0.348694
C190	C	1.073166	-0.303322	-0.164945
C191	C	1.406500	0.030012	0.168389
C192	C	1.739833	0.363345	0.501722
C193	C	1.073298	-0.303156	-0.082399
C194	C	1.406631	0.030177	0.250934
C195	C	1.739964	0.363511	0.584267
H196	H	0.619865	-0.225660	-0.266464
H197	H	0.953198	0.107673	0.066870
H198	H	1.286531	0.441006	0.400203
H199	H	0.987037	-0.943820	-0.444032
H200	H	1.320370	-0.610487	-0.110699
H201	H	1.653704	-0.277153	0.222634
H202	H	0.981660	-0.380875	-0.811894
H203	H	1.314994	-0.047542	-0.478561
H204	H	1.648327	0.285792	-0.145227
C205	C	1.112046	-0.426269	-0.912286
C206	C	1.445379	-0.092935	-0.578953
C207	C	1.778712	0.240398	-0.245619
N208	N	1.127629	-0.475675	-0.934365
N209	N	1.460962	-0.142342	-0.601031
N210	N	1.794295	0.190991	-0.267698
C211	C	0.973513	-1.072484	-0.457619
C212	C	1.306846	-0.739150	-0.124286
C213	C	1.640180	-0.405817	0.209047
N214	N	0.934148	-1.099727	-0.496936
N215	N	1.267482	-0.766394	-0.163603
N216	N	1.600815	-0.433060	0.169731
H217	H	0.527352	-0.381156	-0.449303
H218	H	0.860686	-0.047822	-0.115970
H219	H	1.194019	0.285511	0.217364
C220	C	1.218425	-0.336335	-0.804414
C221	C	1.551758	-0.003002	-0.471081
C222	C	1.885091	0.330332	-0.137747
N223	N	1.276723	-0.349641	-0.782438
N224	N	1.610057	-0.016307	-0.449104
N225	N	1.943390	0.317026	-0.115771
C226	C	1.179726	-0.213137	-0.912059
C227	C	1.513060	0.120196	-0.578726
C228	C	1.846393	0.453530	-0.245393
N229	N	1.222500	-0.176951	-0.933984
N230	N	1.555833	0.156383	-0.600650
N231	N	1.889167	0.489716	-0.267317
C232	C	1.034412	-0.180239	-0.804238
C233	C	1.367745	0.153095	-0.470905
C234	C	1.701079	0.486428	-0.137571
N235	N	1.018792	-0.130848	-0.782137
N236	N	1.352126	0.202486	-0.448804
N237	N	1.685459	0.535819	-0.115471
H238	H	0.527159	-0.197408	-0.391591
H239	H	0.860493	0.135926	-0.058257
H240	H	1.193826	0.469259	0.275076
C241	C	0.519409	-0.336134	-0.212673
C242	C	0.852742	-0.002801	0.120660
C243	C	1.186075	0.330532	0.453993
N244	N	0.497285	-0.349301	-0.154356
N245	N	0.830618	-0.015968	0.178977
N246	N	1.163952	0.317365	0.512311
C247	C	0.627335	-0.426383	-0.318609
C248	C	0.960668	-0.093050	0.014724
C249	C	1.294002	0.240283	0.348058
N250	N	0.649289	-0.475790	-0.302815
N251	N	0.982623	-0.142457	0.030518
N252	N	1.315956	0.190876	0.363851
C253	C	0.627675	-0.270528	-0.503076
C254	C	0.961009	0.062805	-0.169743
C255	C	1.294342	0.396139	0.163591
N256	N	0.649823	-0.257326	-0.561374
N257	N	0.983156	0.076007	-0.228040
N258	N	1.316489	0.409340	0.105293
H259	H	1.159302	-0.542953	-0.271778
H260	H	1.492635	-0.209619	0.061555
H261	H	1.825969	0.123714	0.394888
H262	H	0.948233	-0.274828	-0.904653
H263	H	1.281567	0.058505	-0.571319
H264	H	1.614900	0.391838	-0.237986
C265	C	0.973334	-0.671646	-0.457529
C266	C	1.306667	-0.338313	-0.124196
C267	C	1.640001	-0.004979	0.209137
N268	N	0.933966	-0.698890	-0.496842
N269	N	1.267299	-0.365557	-0.163509
N270	N	1.600632	-0.032223	0.169824
C271	C	1.172940	-0.671612	-0.258246
C272	C	1.506273	-0.338278	0.075088
C273	C	1.839606	-0.004945	0.408421
N274	N	1.212322	-0.698839	-0.218931
N275	N	1.545656	-0.365506	0.114402
N276	N	1.878989	-0.032172	0.447735
C277	C	1.173068	-0.934396	-0.258309
C278	C	1.506402	-0.601062	0.075024
C279	C	1.839735	-0.267729	0.408358
N280	N	1.212442	-0.907158	-0.218996
N281	N	1.545776	-0.573825	0.114338
N282	N	1.879109	-0.240491	0.447671
C283	C	0.973288	-0.533588	-0.457525
C284	C	1.306621	-0.200255	-0.124191
C285	C	1.639955	0.133078	0.209142
N286	N	0.933910	-0.506363	-0.496845
N287	N	1.267243	-0.173029	-0.163512
N288	N	1.600576	0.160304	0.169822
C289	C	1.173126	-1.072448	-0.258337
C290	C	1.506460	-0.739115	0.074996
C291	C	1.839793	-0.405781	0.408329
N292	N	1.212513	-1.099672	-0.219024
N293	N	1.545847	-0.766339	0.114309
N294	N	1.879180	-0.433006	0.447643
