data_functionalizedCrystal
_audit_creation_method	'MofGen! by Chris Wilmer'
_symmetry_space_group_name_H-M	'P1'
_symmetry_Int_Tables_number	1
_symmetry_cell_setting	triclinic
loop_
_symmetry_equiv_pos_as_xyz
  x,y,z
_cell_length_a	21.295417
_cell_length_b	19.077105
_cell_length_c	21.295420
_cell_angle_alpha	87.688020
_cell_angle_beta	90.017552
_cell_angle_gamma	92.273328
loop_
_atom_site_label
_atom_site_type_symbol
_atom_site_fract_x
_atom_site_fract_y
_atom_site_fract_z
Zn1	Zn	-0.289439	-1.075919	0.394522
Zn2	Zn	0.210561	-0.575919	0.894522
Zn3	Zn	-0.394680	-1.075829	0.289244
Zn4	Zn	0.105320	-0.575829	0.789244
Zn5	Zn	-0.285195	-0.958231	0.285043
Zn6	Zn	0.214805	-0.458231	0.785043
Zn7	Zn	-0.390436	-0.958178	0.390253
Zn8	Zn	0.109564	-0.458178	0.890253
O9	O	-0.339938	-1.017039	0.339766
O10	O	0.160062	-0.517039	0.839766
O11	O	-0.306952	-1.174397	0.384100
O12	O	0.193048	-0.674397	0.884100
O13	O	-0.380157	-1.060213	0.200597
O14	O	0.119843	-0.560213	0.700597
O15	O	-0.197671	-0.973902	0.299594
O16	O	0.302329	-0.473902	0.799594
O17	O	-0.384272	-1.174331	0.306753
O18	O	0.115728	-0.674331	0.806753
O19	O	-0.200789	-1.060367	0.380027
O20	O	0.299211	-0.560367	0.880027
O21	O	-0.299719	-0.973815	0.197511
O22	O	0.200281	-0.473815	0.697511
O23	O	-0.295603	-0.859733	0.295456
O24	O	0.204397	-0.359733	0.795456
O25	O	-0.377038	-0.973812	0.478910
O26	O	0.122962	-0.473812	0.978910
O27	O	-0.372923	-0.859695	0.372753
O28	O	0.127077	-0.359695	0.872753
O29	O	-0.302836	-1.060316	0.482045
O30	O	0.197164	-0.560316	0.982045
O31	O	-0.482205	-1.060162	0.302615
O32	O	0.017795	-0.560162	0.802615
O33	O	-0.479086	-0.973724	0.376826
O34	O	0.020914	-0.473724	0.876826
C35	C	-0.333343	-0.834177	0.333186
C36	C	0.166657	-0.334177	0.833186
C37	C	-0.330536	-0.755947	0.330386
C38	C	0.169464	-0.255947	0.830386
C39	C	-0.503486	-1.016947	0.339727
C40	C	-0.003486	-0.516947	0.839727
C41	C	-0.573455	-1.016972	0.339734
C42	C	-0.073455	-0.516972	0.839734
C43	C	-0.339937	-1.017068	0.503957
C44	C	0.160063	-0.517068	1.003957
C45	C	-0.339937	-1.017081	0.573925
C46	C	0.160063	-0.517081	1.073925
C47	C	-0.607926	-1.062020	0.301135
C48	C	-0.107926	-0.562020	0.801135
C49	C	-0.673670	-1.062053	0.301151
C50	C	-0.173670	-0.562053	0.801151
C51	C	-0.704939	-1.017025	0.339758
C52	C	-0.204939	-0.517025	0.839758
C53	C	-0.670461	-0.971974	0.378365
C54	C	-0.170461	-0.471974	0.878365
C55	C	-0.604718	-0.971947	0.378353
C56	C	-0.104718	-0.471947	0.878353
N57	N	-0.805990	-0.955455	0.342341
N58	N	-0.305990	-0.455455	0.842341
N59	N	-0.868442	-0.955483	0.342349
N60	N	-0.368442	-0.455483	0.842349
C61	C	-0.903017	-1.017104	0.339797
C62	C	-0.403017	-0.517104	0.839797
N63	N	-0.872780	-1.078698	0.337225
N64	N	-0.372780	-0.578698	0.837225
N65	N	-0.810322	-1.078670	0.337214
N66	N	-0.310322	-0.578670	0.837214
C67	C	-0.776226	-1.017049	0.339775
C68	C	-0.276226	-0.517049	0.839775
C69	C	-1.008775	-1.062191	0.301212
C70	C	-0.508775	-0.562191	0.801212
C71	C	-1.074520	-1.062226	0.301232
C72	C	-0.574520	-0.562226	0.801232
C73	C	-1.071309	-0.972141	0.378443
C74	C	-0.571309	-0.472141	0.878443
C75	C	-1.005566	-0.972113	0.378427
C76	C	-0.505566	-0.472113	0.878427
C77	C	-0.974302	-1.017137	0.339808
C78	C	-0.474302	-0.517137	0.839808
C79	C	-0.175752	-1.017151	0.339818
C80	C	0.324248	-0.517151	0.839818
C81	C	-0.105785	-1.017198	0.339841
C82	C	0.394215	-0.517198	0.839841
C83	C	-0.346559	-1.200615	0.346371
C84	C	0.153441	-0.700615	0.846371
C85	C	-0.349381	-1.278845	0.349187
C86	C	0.150619	-0.778845	0.849187
C87	C	-0.369535	-0.719193	0.369252
C88	C	0.130465	-0.219193	0.869252
C89	C	-0.366890	-0.645688	0.366624
C90	C	0.133110	-0.145688	0.866624
C91	C	-0.325249	-0.608939	0.325126
C92	C	0.174751	-0.108939	0.825126
C93	C	-0.286246	-0.645698	0.286259
C94	C	0.213754	-0.145698	0.786259
C95	C	-0.288889	-0.719202	0.288890
C96	C	0.211111	-0.219202	0.788890
C97	C	-0.313020	-0.389108	0.312951
C98	C	0.186980	0.110892	0.812951
C99	C	-0.310382	-0.315599	0.310321
C100	C	0.189618	0.184401	0.810321
C101	C	-0.391025	-0.315594	0.390687
C102	C	0.108975	0.184406	0.890687
C103	C	-0.393667	-0.389099	0.393312
C104	C	0.106333	0.110901	0.893312
C105	C	-0.354661	-0.425852	0.354447
C106	C	0.145339	0.074148	0.854447
N107	N	-0.322546	-0.533805	0.322438
N108	N	0.177454	-0.033805	0.822438
N109	N	-0.357362	-0.500984	0.357139
N110	N	0.142638	-0.000984	0.857139
C111	C	-0.298056	-0.972100	0.605175
C112	C	0.201944	-0.472100	1.105175
C113	C	-0.298059	-0.972087	0.670917
C114	C	0.201941	-0.472087	1.170917
C115	C	-0.339937	-1.017068	0.705407
C116	C	0.160063	-0.517068	1.205407
C117	C	-0.381825	-1.062052	0.674150
C118	C	0.118175	-0.562052	1.174150
C119	C	-0.381826	-1.062058	0.608409
C120	C	0.118174	-0.562058	1.108409
N121	N	-0.346985	-1.078662	0.810856
N122	N	0.153015	-0.578662	1.310856
N123	N	-0.346981	-1.078654	0.873307
N124	N	0.153019	-0.578654	1.373307
C125	C	-0.339939	-1.017050	0.903481
C126	C	0.160061	-0.517050	1.403481
N127	N	-0.332889	-0.955452	0.868845
N128	N	0.167111	-0.455452	1.368845
N129	N	-0.332890	-0.955461	0.806389
N130	N	0.167110	-0.455461	1.306389
C131	C	-0.339941	-1.017065	0.776693
C132	C	0.160059	-0.517065	1.276693
C133	C	-0.298059	-0.972051	1.006016
C134	C	0.201941	-0.472051	1.506016
C135	C	-0.298067	-0.972037	1.071760
C136	C	0.201933	-0.472037	1.571760
C137	C	-0.381830	-1.062008	1.074991
C138	C	0.118170	-0.562008	1.574991
C139	C	-0.381826	-1.062016	1.009249
C140	C	0.118174	-0.562016	1.509249
C141	C	-0.339937	-1.017038	0.974765
C142	C	0.160063	-0.517038	1.474765
C143	C	-0.339950	-1.017011	1.176213
C144	C	0.160050	-0.517011	1.676213
C145	C	-0.339945	-1.017017	1.106245
C146	C	0.160055	-0.517017	1.606245
H147	H	-0.582474	-1.098683	0.269691
H148	H	-0.082474	-0.598683	0.769691
Br149	Br	-0.253873	-0.265725	0.253992
Br150	Br	0.246127	0.234275	0.753992
Br151	Br	-0.260081	-0.438977	0.260208
Br152	Br	0.239919	0.061023	0.760208
Br153	Br	-0.958780	-0.910971	0.430813
Br154	Br	-0.458780	-0.410971	0.930813
H155	H	-0.263952	-0.935459	0.696366
H156	H	0.236048	-0.435459	1.196366
Br157	Br	-0.235956	-0.769084	0.236145
Br158	Br	0.264044	-0.269084	0.736145
H159	H	-0.403446	-0.749109	0.403041
H160	H	0.096554	-0.249109	0.903041
Br161	Br	-0.966342	-1.123292	0.248801
Br162	Br	-0.466342	-0.623292	0.748801
Br163	Br	-0.241215	-0.911009	0.959214
Br164	Br	0.258785	-0.411009	1.459214
Br165	Br	-0.241244	-0.910962	1.114171
Br166	Br	0.258756	-0.410962	1.614171
H167	H	-0.422780	-0.285662	0.422329
H168	H	0.077220	0.214338	0.922329
H169	H	-0.252339	-0.615771	0.252474
H170	H	0.247661	-0.115771	0.752474
Br171	Br	-0.438665	-1.123092	0.720955
Br172	Br	0.061335	-0.623092	1.220955
Br173	Br	-1.121304	-1.123375	0.248850
Br174	Br	-0.621304	-0.623375	0.748850
H175	H	-0.415930	-1.098690	0.582965
H176	H	0.084070	-0.598690	1.082965
H177	H	-0.398647	-0.615766	0.398272
H178	H	0.101353	-0.115766	0.898272
Br179	Br	-0.450185	-0.438968	0.449628
Br180	Br	0.049815	0.061032	0.949628
H181	H	-0.263949	-0.935473	0.577103
H182	H	0.236051	-0.435473	1.077103
H183	H	-0.415928	-1.098646	0.983805
H184	H	0.084072	-0.598646	1.483805
H185	H	-0.701741	-1.098739	0.269719
H186	H	-0.201741	-0.598739	0.769719
Br187	Br	-0.557933	-0.910807	0.430743
Br188	Br	-0.057933	-0.410807	0.930743
Br189	Br	-0.712896	-0.910870	0.430766
Br190	Br	-0.212896	-0.410870	0.930766
Br191	Br	-1.113740	-0.911038	0.430847
Br192	Br	-0.613740	-0.411038	0.930847
Br193	Br	-0.438671	-1.123048	1.121791
Br194	Br	0.061329	-0.623048	1.621791
