data_functionalizedCrystal
_audit_creation_method	'MofGen! by Chris Wilmer'
_symmetry_space_group_name_H-M	'P1'
_symmetry_Int_Tables_number	1
_symmetry_cell_setting	triclinic
loop_
_symmetry_equiv_pos_as_xyz
  x,y,z
_cell_length_a	12.827893
_cell_length_b	16.959453
_cell_length_c	12.827885
_cell_angle_alpha	89.966028
_cell_angle_beta	89.980728
_cell_angle_gamma	90.020149
loop_
_atom_site_label
_atom_site_type_symbol
_atom_site_fract_x
_atom_site_fract_y
_atom_site_fract_z
Zn1	Zn	1.597638	-0.314640	-0.590813
Zn2	Zn	1.597518	-0.446839	-0.416060
Zn3	Zn	1.422879	-0.314679	-0.416087
Zn4	Zn	1.422851	-0.446781	-0.590761
O5	O	1.510221	-0.380735	-0.503430
O6	O	1.743858	-0.332185	-0.567642
O7	O	1.574313	-0.429348	-0.269828
O8	O	1.446123	-0.204063	-0.439298
O9	O	1.743770	-0.429311	-0.439252
O10	O	1.574518	-0.204034	-0.567668
O11	O	1.446007	-0.332251	-0.269848
O12	O	1.276639	-0.332194	-0.439247
O13	O	1.446075	-0.429211	-0.737004
O14	O	1.276619	-0.429249	-0.567580
O15	O	1.574491	-0.332128	-0.737042
O16	O	1.574286	-0.557442	-0.439202
O17	O	1.445959	-0.557399	-0.567554
C18	C	1.238712	-0.380720	-0.503411
C19	C	1.122558	-0.380733	-0.503428
C20	C	0.950747	-0.428846	-0.566849
C21	C	1.070797	-0.428834	-0.566833
C22	C	1.510134	-0.586101	-0.503392
C23	C	1.510193	-0.673957	-0.503411
C24	C	1.577162	-1.045360	-0.570399
C25	C	1.443573	-1.045506	-0.436617
C26	C	1.443534	-0.962961	-0.436593
C27	C	1.510309	-0.921610	-0.503474
C28	C	1.577123	-0.962806	-0.570379
C29	C	1.376713	-0.921759	-0.369697
C30	C	1.376671	-0.839208	-0.369671
C31	C	1.443453	-0.797856	-0.436547
C32	C	1.510270	-0.839057	-0.503454
C33	C	1.577046	-0.797707	-0.570336
C34	C	1.643869	-0.838906	-0.637238
C35	C	1.643905	-0.921454	-0.637256
C36	C	1.443417	-0.715308	-0.436530
C37	C	1.577007	-0.715153	-0.570316
C38	C	1.782792	-0.380750	-0.503450
C39	C	1.898945	-0.380756	-0.503458
C40	C	1.510293	-0.380659	-0.776001
C41	C	1.510324	-0.380626	-0.892154
C42	C	1.510337	-0.174566	-0.503492
C43	C	1.510387	-0.086710	-0.503518
C44	C	1.573851	-0.428619	-1.063973
C45	C	1.573821	-0.428654	-0.943923
C46	C	1.510210	-0.380753	-0.231921
C47	C	1.510382	-0.380563	-0.115768
H48	H	1.115345	-0.470001	-0.621108
Br49	Br	0.876543	-0.497502	-0.657308
Br50	Br	1.048322	-0.312098	-0.412973
Br51	Br	1.352732	-0.659397	-0.345746
H52	H	1.322346	-0.955432	-0.315249
H53	H	1.456017	-0.339448	-1.071234
H54	H	1.322261	-0.805668	-0.315195
Br55	Br	1.667644	-0.659041	-0.661079
Br56	Br	1.734476	-0.782778	-0.728015
H57	H	1.628207	-0.469740	-1.108507
Br58	Br	1.664404	-0.497226	-0.869691
H59	H	1.698308	-0.955006	-0.691725
Br60	Br	1.667853	-1.101269	-0.661185
H61	H	0.943472	-0.339579	-0.449173
Br62	Br	1.352934	-1.101624	-0.345873
H63	H	1.455987	-0.339478	-0.936689
