data_functionalizedCrystal
_audit_creation_method	'MofGen! by Chris Wilmer'
_symmetry_space_group_name_H-M	'P1'
_symmetry_Int_Tables_number	1
_symmetry_cell_setting	triclinic
loop_
_symmetry_equiv_pos_as_xyz
  x,y,z
_cell_length_a	17.019282
_cell_length_b	17.000383
_cell_length_c	9.130307
_cell_angle_alpha	89.997669
_cell_angle_beta	93.879705
_cell_angle_gamma	79.503712
loop_
_atom_site_label
_atom_site_type_symbol
_atom_site_fract_x
_atom_site_fract_y
_atom_site_fract_z
O1	O	1.039652	0.101355	0.009381
O2	O	0.809088	0.114299	-0.019712
O3	O	0.938685	-0.008056	-0.003354
O4	O	0.910055	0.223710	-0.006978
O5	O	0.938681	-0.008057	0.240245
O6	O	0.809084	0.114298	0.223886
O7	O	1.039648	0.101354	0.252980
Cu8	Cu	0.924366	0.107826	0.260675
Cu9	Cu	0.924370	0.107827	-0.027408
O10	O	0.910051	0.223709	0.236621
C11	C	0.779731	0.113810	0.098383
C12	C	0.692262	0.112344	0.087345
C13	C	0.651171	0.111652	0.214949
C14	C	0.568987	0.110262	0.204583
C15	C	0.527894	0.109569	0.066611
C16	C	0.568991	0.110258	-0.061002
C17	C	0.651174	0.111642	-0.050634
C18	C	0.279754	0.105383	0.028664
C19	C	0.197564	0.104001	0.018306
C20	C	0.197567	0.104004	0.283891
C21	C	0.279751	0.105393	0.294247
C22	C	0.320841	0.106078	0.166634
C23	C	0.443889	0.108150	0.056012
C24	C	0.404847	0.107491	0.177235
C25	C	0.940221	-0.037712	0.118638
C26	C	0.944793	-0.126076	0.119210
C27	C	0.974317	-0.626328	0.122930
C28	C	0.970014	-0.543300	0.122396
C29	C	0.895338	-0.492216	0.112966
C30	C	0.824959	-0.524164	0.104084
C31	C	0.829262	-0.607191	0.104629
C32	C	0.878717	-0.241050	0.110873
C33	C	0.874419	-0.158019	0.110325
C34	C	1.019475	-0.177160	0.128639
C35	C	1.023772	-0.260187	0.129174
C36	C	0.953393	-0.292128	0.120300
C37	C	0.890938	-0.407348	0.112415
C38	C	0.957793	-0.376995	0.120861
C39	C	1.069005	0.101844	0.134882
C40	C	1.156474	0.103310	0.145909
C41	C	0.908515	0.253365	0.114626
C42	C	0.903943	0.341729	0.114044
N43	N	0.924368	0.107825	0.463299
N44	N	0.924374	0.107823	-0.230030
C45	C	1.039168	-0.000490	0.477780
C46	C	1.096572	-0.054645	0.561687
C47	C	1.096580	-0.054645	0.715022
C48	C	1.039176	-0.000487	0.784451
C49	C	0.981771	0.053668	0.700543
C50	C	0.981771	0.053665	0.547206
C51	C	0.866969	0.161977	0.686062
C52	C	0.866964	0.161983	0.532728
C53	C	0.809565	0.216136	0.755491
C54	C	0.752162	0.270296	0.671583
C55	C	0.752157	0.270295	0.518240
C56	C	0.809559	0.216138	0.448820
H57	H	0.684629	0.112207	-0.154543
H58	H	0.438309	0.108051	0.289571
C59	C	1.049329	-0.461030	0.007180
C60	C	1.047372	-0.508190	0.132154
H61	H	1.097088	-0.439353	0.013213
H62	H	1.047994	-0.493020	-0.077921
H63	H	1.004238	-0.418725	0.001510
H64	H	1.092461	-0.550498	0.137818
H65	H	1.048715	-0.476198	0.217278
H66	H	1.084582	-0.301775	0.136859
C67	C	0.642913	0.111504	0.476424
C68	C	0.696338	0.112410	0.366614
H69	H	0.670798	0.111964	0.570057
H70	H	0.601625	0.157359	0.465694
H71	H	0.620093	0.064565	0.468006
H72	H	0.719154	0.159352	0.375025
H73	H	0.737640	0.066551	0.377349
C74	C	0.753954	-0.388393	0.095103
C75	C	0.742872	-0.468014	0.093715
H76	H	0.703274	-0.353731	0.088689
H77	H	0.783038	-0.378720	0.183719
H78	H	0.783054	-0.378727	0.013823
H79	H	0.713776	-0.477682	0.175001
H80	H	0.713775	-0.477691	0.005089
C81	C	1.077291	-0.058386	0.135950
C82	C	1.096832	-0.142048	0.138413
H83	H	1.125051	-0.036712	0.141998
H84	H	1.046799	-0.040851	0.047153
H85	H	1.046779	-0.040857	0.217048
H86	H	1.127339	-0.159578	0.057308
H87	H	1.127337	-0.159590	0.227220
C88	C	1.147606	-0.102675	0.333070
C89	C	1.159711	-0.114130	0.485374
H90	H	1.186599	-0.139385	0.285966
H91	H	1.095589	-0.111342	0.301351
H92	H	1.152434	-0.049532	0.308603
H93	H	1.154876	-0.167271	0.509842
H94	H	1.211741	-0.105469	0.517104
H95	H	0.410421	0.107586	-0.056325
C96	C	1.210058	-0.161715	0.713951
C97	C	1.159676	-0.114176	0.807262
H98	H	1.249010	-0.198464	0.770900
H99	H	1.179210	-0.190330	0.650263
H100	H	1.236131	-0.128591	0.657425
H101	H	1.133598	-0.147300	0.863780
H102	H	1.190527	-0.085559	0.870976
H103	H	0.705424	0.314384	0.728122
C104	C	0.736371	0.200108	0.965922
C105	C	0.809571	0.216134	0.924038
H106	H	0.736379	0.200104	1.069977
H107	H	0.693976	0.240109	0.925893
H108	H	0.729122	0.149233	0.930318
H109	H	0.816818	0.267011	0.959633
H110	H	0.851978	0.176130	0.964084
C111	C	1.117264	-0.636900	0.140991
C112	C	1.056405	-0.682475	0.133297
H113	H	1.167943	-0.671563	0.147404
H114	H	1.112574	-0.604120	0.055455
H115	H	1.112557	-0.604117	0.225351
H116	H	1.061109	-0.715255	0.048932
H117	H	1.061097	-0.715269	0.218842
H118	H	0.535538	0.109686	0.308492
H119	H	1.039180	-0.000497	0.909304
H120	H	0.705408	0.314391	0.449929
C121	C	0.205812	0.104137	-0.243187
C122	C	0.152392	0.103243	-0.133364
H123	H	0.177923	0.103668	-0.336814
H124	H	0.228635	0.151066	-0.234788
H125	H	0.247101	0.058273	-0.232450
H126	H	0.111106	0.149111	-0.144095
H127	H	0.129556	0.056309	-0.141767
H128	H	0.313204	0.105954	0.406598
C129	C	0.731462	-0.147432	0.092288
C130	C	0.792328	-0.101865	0.099959
H131	H	0.680787	-0.112764	0.085893
H132	H	0.736158	-0.180215	0.007944
H133	H	0.736157	-0.180213	0.177842
H134	H	0.787637	-0.069089	0.014400
H135	H	0.787630	-0.069068	0.184312
H136	H	0.809562	0.216135	0.323968
H137	H	0.821409	-0.267046	0.103630
C138	C	0.118770	0.034047	0.428030
C139	C	0.152403	0.103240	0.424160
H140	H	0.090893	0.033572	0.514636
H141	H	0.082536	0.033444	0.344389
H142	H	0.160076	-0.011803	0.427714
H143	H	0.111096	0.149090	0.424465
H144	H	0.188640	0.103850	0.507823
C145	C	0.358551	0.175333	-0.115484
C146	C	0.324910	0.106145	-0.111609
H147	H	0.386433	0.175801	-0.202085
H148	H	0.317256	0.221181	-0.115171
H149	H	0.394790	0.175932	-0.031831
H150	H	0.288666	0.105549	-0.195257
H151	H	0.366210	0.060285	-0.111935
H152	H	0.771956	-0.633197	0.097405
H153	H	0.535527	0.109688	-0.173341
H154	H	1.018594	-0.418591	0.128546
H155	H	1.039173	-0.000488	0.352928
H156	H	0.830136	-0.365746	0.104732
