data_functionalizedCrystal
_audit_creation_method	'MofGen! by Chris Wilmer'
_symmetry_space_group_name_H-M	'P1'
_symmetry_Int_Tables_number	1
_symmetry_cell_setting	triclinic
loop_
_symmetry_equiv_pos_as_xyz
  x,y,z
_cell_length_a	14.472310
_cell_length_b	14.853567
_cell_length_c	14.853567
_cell_angle_alpha	83.634930
_cell_angle_beta	89.997263
_cell_angle_gamma	90.010060
loop_
_atom_site_label
_atom_site_type_symbol
_atom_site_fract_x
_atom_site_fract_y
_atom_site_fract_z
O1	O	-0.076769	-1.196377	-0.117698
O2	O	-0.076784	-0.933917	-0.131719
O3	O	-0.076779	-1.072158	0.006521
O4	O	-0.076774	-1.058136	-0.255939
O5	O	0.076903	-1.072122	0.006513
O6	O	0.076898	-0.933881	-0.131727
O7	O	0.076913	-1.196341	-0.117706
Cu8	Cu	0.090938	-1.065108	-0.124717
Cu9	Cu	-0.090809	-1.065150	-0.124708
O10	O	0.076908	-1.058101	-0.255946
C11	C	0.000055	-0.900311	-0.131088
C12	C	0.000049	-0.800227	-0.129184
N13	N	0.218769	-1.065085	-0.124724
N14	N	-0.218640	-1.065180	-0.124695
C15	C	0.592860	-1.065149	-0.124704
C16	C	0.553691	-0.990930	-0.198425
C17	C	0.446603	-0.991102	-0.198695
C18	C	0.407269	-1.065116	-0.124714
C19	C	0.446112	-1.159209	-0.145377
C20	C	0.553233	-1.158792	-0.145902
C21	C	0.553386	-1.046113	-0.030102
C22	C	0.446258	-1.043957	-0.030730
C23	C	0.302381	-1.065104	-0.124717
C24	C	0.697748	-1.065168	-0.124703
C25	C	0.000059	-1.071504	0.040106
C26	C	0.000051	-1.069601	0.140189
C27	C	0.000072	-1.229947	-0.118337
C28	C	0.000072	-1.330031	-0.120241
C29	C	0.000068	-0.387693	-0.039019
C30	C	0.000070	-0.366412	-0.203251
C31	C	0.000067	-0.460446	-0.205042
C32	C	0.000063	-0.518108	-0.123819
C33	C	0.000062	-0.481736	-0.040806
C34	C	0.000059	-0.496825	-0.288053
C35	C	0.000055	-0.590864	-0.289846
C36	C	0.000057	-0.648528	-0.208623
C37	C	0.000057	-0.612150	-0.125607
C38	C	0.000054	-0.669812	-0.044384
C39	C	0.000060	-0.633437	0.038633
C40	C	0.000065	-0.539399	0.040417
C41	C	0.000053	-0.742565	-0.210407
C42	C	0.000048	-0.763855	-0.046172
C43	C	0.000067	-1.058754	-0.289531
C44	C	0.000069	-1.060657	-0.389615
C45	C	0.000064	-0.979435	0.552723
C46	C	0.000073	-1.143668	0.574004
C47	C	0.000067	-1.145458	0.479971
C48	C	0.000062	-1.064235	0.422309
C49	C	0.000061	-0.981223	0.458680
C50	C	0.000077	-1.228469	0.443591
C51	C	0.000073	-1.230262	0.349552
C52	C	0.000061	-1.149039	0.291889
C53	C	0.000059	-1.066023	0.328266
C54	C	0.000053	-0.984800	0.270604
C55	C	0.000045	-0.901783	0.306979
C56	C	0.000048	-0.899999	0.401017
C57	C	0.000057	-1.150823	0.197851
C58	C	0.000051	-0.986588	0.176561
H59	H	0.420343	-0.921165	-0.186366
C60	C	0.000058	-0.696877	0.127975
N61	N	0.000059	-0.744663	0.195265
H62	H	0.000043	-0.832411	0.430643
H63	H	0.000048	-0.810798	0.019971
C64	C	0.000066	-1.242136	0.157842
N65	N	0.000070	-1.310918	0.127709
H66	H	0.000053	-0.911844	0.582344
C67	C	0.000075	-1.321582	0.309548
N68	N	0.000073	-1.390365	0.279416
C69	C	0.411971	-1.007546	-0.293531
N70	N	0.385888	-1.019937	-0.364965
H71	H	0.579475	-0.920767	-0.186298
C72	C	0.590046	-1.007141	-0.292730
N73	N	0.617429	-1.019353	-0.363760
C74	C	0.000062	-0.630868	-0.381166
N75	N	0.000073	-0.661000	-0.449948
H76	H	0.000049	-0.772178	-0.277998
H77	H	0.000065	-0.319459	-0.269379
C78	C	0.586980	-1.181412	-0.239119
N79	N	0.612393	-1.198442	-0.309335
C80	C	0.000065	-0.499379	0.131728
N81	N	0.000061	-0.469231	0.200502
H82	H	0.579141	-1.215752	-0.094330
C83	C	0.000090	-1.317807	0.507024
N84	N	0.000099	-1.385100	0.554806
H85	H	0.420631	-1.215762	-0.093116
H86	H	0.419277	-1.176363	-0.213588
H87	H	0.580449	-0.978984	-0.010262
H88	H	0.000077	-0.358072	0.028572
H89	H	0.420872	-0.974740	-0.015051
H90	H	0.419486	-1.094494	0.026709
H91	H	0.578714	-1.100236	0.024760
H92	H	0.000052	-0.449870	-0.354180
H93	H	0.000042	-0.920445	0.129618
H94	H	0.000047	-0.835652	0.260019
H95	H	0.000085	-1.209795	0.620958
