data_functionalizedCrystal
_audit_creation_method	'MofGen! by Chris Wilmer'
_symmetry_space_group_name_H-M	'P1'
_symmetry_Int_Tables_number	1
_symmetry_cell_setting	triclinic
loop_
_symmetry_equiv_pos_as_xyz
  x,y,z
_cell_length_a	23.532407
_cell_length_b	13.339070
_cell_length_c	12.376457
_cell_angle_alpha	104.398083
_cell_angle_beta	78.784102
_cell_angle_gamma	99.238986
loop_
_atom_site_label
_atom_site_type_symbol
_atom_site_fract_x
_atom_site_fract_y
_atom_site_fract_z
O1	O	0.782857	0.103169	-0.093856
O2	O	0.619856	0.120903	-0.093888
O3	O	0.682649	-0.035039	-0.093872
O4	O	0.720064	0.259112	-0.093872
O5	O	0.666950	0.003893	0.094136
O6	O	0.604157	0.159836	0.094120
O7	O	0.767158	0.142102	0.094152
Zn8	Zn	0.683165	0.157150	0.123987
Zn9	Zn	0.703849	0.105855	-0.123722
O10	O	0.704365	0.298044	0.094137
C11	C	0.668480	-0.053199	0.000129
C12	C	0.649642	-0.165314	0.000121
C13	C	0.590718	0.139917	0.000112
C14	C	0.527283	0.138556	0.000099
C15	C	0.796120	-0.531572	0.000150
C16	C	0.813821	-0.426235	0.000164
C17	C	0.772778	-0.360999	0.000153
C18	C	0.714031	-0.401112	0.000128
C19	C	0.696327	-0.506458	0.000123
C20	C	0.672985	-0.335885	0.000126
C21	C	0.614238	-0.375998	0.000101
C22	C	0.596538	-0.481334	0.000095
C23	C	0.637581	-0.546569	0.000107
C24	C	0.690688	-0.230539	0.000131
C25	C	0.590895	-0.205425	0.000104
C26	C	0.573195	-0.310762	0.000090
C27	C	0.141680	0.222333	0.000151
C28	C	0.082075	0.221073	0.000158
O29	O	0.057845	0.298733	0.000199
N30	N	0.044504	0.128362	0.000155
C31	C	0.066539	0.036909	0.000158
O32	O	0.029108	-0.042064	0.000158
C33	C	0.126141	0.038172	0.000159
C34	C	0.163711	0.130886	0.000150
C35	C	0.179248	0.315039	0.000142
C36	C	0.238849	0.316299	0.000133
C37	C	0.260880	0.224852	0.000133
C38	C	0.223311	0.132145	0.000141
C39	C	0.148174	-0.053278	0.000170
C40	C	0.207782	-0.052007	0.000172
C41	C	0.245351	0.040706	0.000162
C42	C	0.304943	0.041958	0.000131
N43	N	0.342514	0.134668	0.000133
C44	C	0.320483	0.226115	0.000134
C45	C	-0.058630	0.034264	0.000157
C46	C	-0.118231	0.032998	0.000148
C47	C	-0.102690	0.217163	0.000150
C48	C	-0.043088	0.218426	0.000151
C49	C	-0.021059	0.126974	0.000160
C50	C	0.445647	0.228753	0.000114
C51	C	0.505252	0.230003	0.000100
C52	C	0.489706	0.045840	0.000104
C53	C	0.430106	0.044588	0.000112
C54	C	0.408079	0.136053	0.000121
O55	O	0.329214	-0.035661	0.000094
O56	O	0.357918	0.305078	0.000149
C57	C	0.796297	0.123088	0.000150
C58	C	0.859732	0.124447	0.000155
C59	C	0.718535	0.316204	0.000133
C60	C	0.737374	0.428317	0.000134
N61	N	0.669053	0.192157	0.293041
N62	N	0.717965	0.070840	-0.292777
C63	C	0.750720	-0.010443	0.648047
C64	C	0.760594	-0.034945	0.529709
C65	C	0.737710	0.021828	0.470537
C66	C	0.704950	0.103108	0.529713
C67	C	0.695079	0.127617	0.648062
C68	C	0.682068	0.159889	0.470551
C69	C	0.649308	0.241169	0.529728
C70	C	0.639439	0.265673	0.648065
C71	C	0.662323	0.208900	0.707238
C72	C	0.691939	0.135380	0.352203
C73	C	0.636298	0.273440	0.352217
C74	C	0.626424	0.297942	0.470555
H75	H	0.787193	-0.275229	0.000165
H76	H	0.269433	0.391796	0.000125
O77	O	0.594569	0.376899	0.527869
C78	C	0.540446	0.511287	0.515404
C79	C	0.576501	0.421883	0.450356
H80	H	0.525838	0.547697	0.452764
H81	H	0.500500	0.479446	0.570781
H82	H	0.568347	0.572957	0.570839
H83	H	0.548648	0.360181	0.394860
H84	H	0.616450	0.453801	0.395051
H85	H	0.861652	-0.393582	0.000186
H86	H	0.617664	0.319672	0.304040
O87	O	0.424211	0.317613	0.000314
C88	C	0.357797	0.443234	0.097670
C89	C	0.382031	0.342610	0.097609
H90	H	0.323682	0.463463	0.176312
H91	H	0.394866	0.509756	0.097732
H92	H	0.336874	0.430935	0.018954
H93	H	0.402948	0.354807	0.176312
H94	H	0.344940	0.276124	0.097488
H95	H	0.548702	-0.513988	0.000084
H96	H	0.738520	-0.197890	0.000152
H97	H	0.117595	-0.128776	0.000178
O98	O	0.516158	-0.349884	-0.000078
C99	C	0.446394	-0.474373	-0.097539
C100	C	0.511009	-0.430181	-0.097476
H101	H	0.442208	-0.539286	-0.176288
H102	H	0.429027	-0.506852	-0.018915
H103	H	0.420103	-0.409634	-0.097490
H104	H	0.537346	-0.494863	-0.097564
H105	H	0.528329	-0.397673	-0.176092
H106	H	0.745750	0.001875	0.374181
H107	H	-0.120639	0.291625	0.000156
H108	H	0.612769	0.331863	0.696246
O109	O	0.157954	0.403960	0.000089
C110	C	0.179674	0.586766	0.000137
C111	C	0.203862	0.486128	0.000183
H112	H	0.216777	0.653230	0.000236
H113	H	0.158751	0.574556	-0.078567
H114	H	0.145573	0.607030	0.078796
H115	H	0.237983	0.465808	-0.078423
H116	H	0.224748	0.498391	0.078938
H117	H	0.829530	-0.584693	0.000169
O118	O	-0.037221	-0.054514	0.000346
C119	C	0.012950	-0.139809	0.097697
C120	C	-0.011276	-0.039212	0.097637
H121	H	0.033943	-0.127465	0.176336
H122	H	-0.024128	-0.206306	0.097765
H123	H	0.047009	-0.160111	0.018977
H124	H	-0.045327	-0.018814	0.176343
H125	H	0.025834	0.027225	0.097510
H126	H	0.769354	-0.056656	0.696233
H127	H	0.557474	-0.152308	0.000101
H128	H	0.623172	-0.632346	0.000091
H129	H	0.225713	-0.126480	0.000179
H130	H	0.535840	0.305505	0.000092
O131	O	-0.006681	0.308588	0.000200
C132	C	0.002432	0.491103	0.000128
C133	C	-0.038862	0.389067	0.000096
H134	H	-0.023568	0.556192	0.000020
H135	H	0.024146	0.512672	0.078830
H136	H	0.037302	0.479959	-0.078532
H137	H	-0.073764	0.400131	0.078703
H138	H	-0.060531	0.367531	-0.078658
O139	O	0.511104	-0.043054	-0.000097
C140	C	0.524171	-0.220260	-0.097449
C141	C	0.499922	-0.119649	-0.097385
H142	H	0.515129	-0.282220	-0.176086
H143	H	0.573232	-0.203495	-0.097525
H144	H	0.502068	-0.249569	-0.018727
H145	H	0.521981	-0.090287	-0.176093
H146	H	0.450858	-0.136473	-0.097250
O147	O	-0.154645	-0.057145	0.000194
C148	C	-0.163746	-0.239690	0.000123
C149	C	-0.122447	-0.137668	0.000090
H150	H	-0.137728	-0.304824	0.000015
H151	H	-0.198594	-0.228664	0.078826
H152	H	-0.185488	-0.261123	-0.078536
H153	H	-0.100663	-0.116177	0.078695
H154	H	-0.087633	-0.148748	-0.078666
H155	H	0.718612	0.069202	0.304032
O156	O	0.393601	-0.045487	-0.000087
C157	C	0.325380	-0.173925	-0.097425
C158	C	0.366709	-0.071925	-0.097369
H159	H	0.303617	-0.195320	-0.176057
H160	H	0.351343	-0.239127	-0.097505
H161	H	0.290551	-0.162799	-0.018698
H162	H	0.401546	-0.082949	-0.176082
H163	H	0.340706	-0.006760	-0.097230
H164	H	0.787267	-0.101121	0.481533
H165	H	0.654282	0.228846	0.803598
