data_functionalizedCrystal
_audit_creation_method	'MofGen! by Chris Wilmer'
_symmetry_space_group_name_H-M	'P1'
_symmetry_Int_Tables_number	1
_symmetry_cell_setting	triclinic
loop_
_symmetry_equiv_pos_as_xyz
  x,y,z
_cell_length_a	20.919287
_cell_length_b	14.395555
_cell_length_c	14.395555
_cell_angle_alpha	60.003134
_cell_angle_beta	86.845317
_cell_angle_gamma	58.209868
loop_
_atom_site_label
_atom_site_type_symbol
_atom_site_fract_x
_atom_site_fract_y
_atom_site_fract_z
Zr1	Zr	0.616710	1.016826	-0.171234
O2	O	0.514477	1.210622	-0.311379
O3	O	0.648056	0.823025	-0.128272
O4	O	0.648049	1.016819	-0.322064
O5	O	0.514484	1.016834	0.035280
O6	O	0.753406	1.016819	-0.330492
O7	O	0.514484	1.016828	-0.117587
O8	O	0.753419	0.670157	0.016166
O9	O	0.514471	1.363497	-0.311378
O10	O	0.740045	0.902740	-0.116239
O11	O	0.661417	0.902745	0.004134
O12	O	0.661409	1.130913	-0.224031
O13	O	0.582781	1.130918	-0.103658
Zr14	Zr	0.784742	1.016837	0.059130
Zr15	Zr	0.784743	1.016826	-0.184675
Zr16	Zr	0.616709	1.016837	0.072572
Zr17	Zr	0.616700	1.260644	-0.171232
Zr18	Zr	0.784752	0.773019	0.059129
O19	O	0.753396	1.210638	0.016169
O20	O	0.753398	1.210622	-0.330491
O21	O	0.514475	1.210638	0.035281
O22	O	0.886975	0.823041	0.199276
O23	O	0.886977	0.823025	-0.147385
O24	O	0.648054	0.823040	0.218388
O25	O	0.886968	1.016828	-0.147383
O26	O	0.753403	1.016844	0.209961
O27	O	0.648046	1.016844	0.218389
O28	O	0.886968	1.016835	0.005484
O29	O	0.648034	1.363497	-0.322062
O30	O	0.753418	0.670165	0.209959
O31	O	0.886981	0.670166	0.199275
O32	O	0.886982	0.670157	0.005482
O33	O	0.514470	1.363506	-0.117585
O34	O	0.648033	1.363506	-0.128269
O35	O	0.740043	0.902750	0.111928
O36	O	0.818671	0.902745	-0.008445
O37	O	0.740035	1.130918	-0.116237
O38	O	0.661407	1.130923	0.004135
C39	C	0.700739	0.711852	-0.056053
C40	C	0.700743	0.608345	-0.056054
C41	C	0.490543	1.016831	-0.039238
C42	C	0.419209	1.016831	-0.033532
C43	C	0.743597	0.485857	-0.121687
C44	C	0.669675	0.623982	-0.160867
C45	C	0.774652	0.471631	-0.016926
C46	C	0.626743	0.562143	-0.095287
C47	C	0.731773	0.409718	0.048709
C48	C	0.657807	0.547834	0.009560
C49	C	0.385696	1.016831	-0.115069
C50	C	0.318672	1.016824	-0.109702
C51	C	0.285159	1.016827	-0.022801
C52	C	0.318678	1.016823	0.058744
C53	C	0.385704	1.016820	0.053380
C54	C	0.082788	1.016826	-0.002390
C55	C	0.015756	1.016832	0.002966
C56	C	0.015755	1.016831	-0.165480
C57	C	0.082780	1.016836	-0.170839
C58	C	0.116295	1.016825	-0.089291
C59	C	0.216649	1.016824	-0.017315
C60	C	0.184808	1.016819	-0.094773
C61	C	0.910909	1.016832	-0.072865
C62	C	0.982243	1.016832	-0.078571
C63	C	0.700728	1.016818	-0.361015
C64	C	0.700728	1.016813	-0.464517
C65	C	0.700713	1.321811	-0.056050
C66	C	0.700709	1.425318	-0.056049
C67	C	0.743608	0.892403	-0.466333
C68	C	0.669673	0.954596	-0.553440
C69	C	0.774645	0.954625	-0.561837
C70	C	0.626750	1.079006	-0.550258
C71	C	0.731775	1.079018	-0.558644
C72	C	0.657796	1.141302	-0.645765
C73	C	0.700724	1.016845	0.248912
C74	C	0.700724	1.016850	0.352414
C75	C	0.910922	0.711852	-0.072867
C76	C	0.982261	0.608345	-0.078574
C77	C	0.700737	0.711866	0.248910
C78	C	0.700741	0.608363	0.352412
C79	C	0.910920	0.711866	0.232097
C80	C	0.982259	0.608364	0.329892
C81	C	0.490532	1.321797	-0.344200
C82	C	0.419193	1.425299	-0.441995
C83	C	0.490530	1.321811	-0.039236
C84	C	0.419191	1.425318	-0.033530
C85	C	0.700715	1.321797	-0.361014
C86	C	0.700711	1.425300	-0.464515
C87	C	0.974720	0.559734	-0.137531
C88	C	1.041744	0.462492	-0.142915
C89	C	1.116307	0.413855	-0.089335
C90	C	1.123847	0.462476	-0.030376
C91	C	1.056824	0.559723	-0.024999
C92	C	1.056809	0.559755	0.312984
C93	C	1.123846	0.462517	0.404863
C94	C	1.116329	0.413883	0.513649
C95	C	1.041770	0.462501	0.530556
C96	C	0.974736	0.559744	0.438678
C97	C	0.344643	1.473919	-0.425087
C98	C	0.277606	1.571188	-0.516966
C99	C	0.285123	1.619827	-0.625752
C100	C	0.359682	1.571203	-0.642659
C101	C	0.426716	1.473943	-0.550781
C102	C	0.426732	1.473939	0.025418
C103	C	0.359708	1.571208	0.030775
C104	C	0.285145	1.619848	-0.022808
C105	C	0.277605	1.571223	-0.081763
C106	C	0.344628	1.473962	-0.087127
C107	C	0.657872	0.547776	0.354227
C108	C	0.731812	0.409674	0.441329
C109	C	0.626834	0.562012	0.449734
C110	C	0.774725	0.471561	0.438148
C111	C	0.669693	0.623973	0.446543
C112	C	0.743678	0.485881	0.533659
H113	H	0.643412	0.715591	-0.249461
H114	H	0.643408	0.902016	-0.552271
O115	O	0.367066	1.618420	-0.748289
C116	C	0.408462	1.674614	-0.764169
H117	H	0.402851	1.703995	-0.702274
H118	H	0.383043	1.765308	-0.853162
H119	H	0.472964	1.599982	-0.749913
H120	H	0.365862	1.610782	0.078786
H121	H	0.564195	0.599548	-0.128485
H122	H	1.170875	0.334669	-0.093721
O123	O	0.849266	0.891893	-0.568739
C124	C	0.901660	0.846773	-0.474761
H125	H	0.869038	0.907617	-0.438273
H126	H	0.951152	0.857085	-0.501021
H127	H	0.927158	0.739136	-0.408998
H128	H	1.184565	0.422862	0.013246
O129	O	0.614578	0.580305	0.262502
C130	C	0.551857	0.714595	0.203033
H131	H	0.538580	0.749473	0.261887
H132	H	0.497719	0.729067	0.167258
H133	H	0.568555	0.773834	0.131867
H134	H	1.062974	0.599290	0.023017
O135	O	0.552305	0.606159	0.456938
C136	C	0.553410	0.507613	0.555759
H137	H	0.609277	0.407568	0.583886
H138	H	0.500186	0.508913	0.539199
H139	H	0.551658	0.526669	0.624097
H140	H	1.062944	0.599339	0.224412
H141	H	0.837265	0.434185	0.432320
H142	H	0.779808	0.787206	-0.389469
H143	H	1.184548	0.422942	0.391077
H144	H	1.035662	0.422888	0.619142
H145	H	0.779990	0.458854	0.610383
O146	O	1.181531	0.319374	0.602770
C147	C	1.248940	0.286930	0.564504
H148	H	1.233540	0.313737	0.475967
H149	H	1.296285	0.177012	0.622143
H150	H	1.271504	0.343802	0.564461
O151	O	0.902276	0.606926	0.454969
C152	C	0.861063	0.583111	0.405618
H153	H	0.886647	0.571021	0.337282
H154	H	0.796552	0.669476	0.367619
H155	H	0.866663	0.489583	0.472045
O156	O	0.337368	1.426487	-0.319398
C157	C	0.373691	1.290210	-0.262467
H158	H	0.376784	1.263577	-0.325809
H159	H	0.338143	1.262271	-0.205855
H160	H	0.435517	1.234587	-0.209703
O161	O	-0.016805	1.016651	0.087421
C162	C	-0.016562	0.903477	0.149030
H163	H	-0.013606	0.865757	0.094526
H164	H	-0.072465	0.928931	0.176423
H165	H	0.036578	0.824228	0.225959
H166	H	0.338478	1.434377	-0.135124
O167	O	0.638413	0.733176	0.448080
C168	C	0.682929	0.700962	0.542620
H169	H	0.715628	0.591320	0.609174
H170	H	0.642224	0.759026	0.577542
H171	H	0.726932	0.726491	0.517595
O172	O	0.115293	1.017043	-0.255329
C173	C	0.115092	1.130178	-0.316915
H174	H	0.067629	1.209291	-0.304893
H175	H	0.102776	1.168142	-0.409405
H176	H	0.174705	1.104588	-0.286250
H177	H	0.230576	1.699044	-0.018432
H178	H	0.412975	1.016837	-0.185837
O179	O	0.205113	1.618575	-0.133700
C180	C	0.147583	1.714862	-0.116334
H181	H	0.173722	1.698885	-0.037999
H182	H	0.095895	1.706975	-0.105358
H183	H	0.126611	1.816582	-0.191600
H184	H	0.758058	1.131553	-0.559771
H185	H	1.035590	0.422917	-0.190926
H186	H	0.230533	1.699022	-0.700555
H187	H	0.758086	0.318050	0.440154
O188	O	0.205245	1.618216	-0.500330
C189	C	0.212995	1.554432	-0.384609
H190	H	0.272812	1.455861	-0.337555
H191	H	0.164930	1.537661	-0.367202
H192	H	0.207507	1.618194	-0.355495
H193	H	0.487417	1.434357	-0.564562
O194	O	0.499099	1.426885	0.077498
C195	C	0.491366	1.490651	0.130691
H196	H	0.431553	1.589228	0.088759
H197	H	0.539438	1.507407	0.123641
H198	H	0.496856	1.426883	0.222683
H199	H	0.779791	0.458741	-0.177251
H200	H	0.758054	0.318085	0.137282
O201	O	0.614435	0.580358	0.075622
C202	C	0.552465	0.715128	0.011190
H203	H	0.568283	0.768659	-0.065482
H204	H	0.542139	0.757799	0.063625
H205	H	0.496865	0.727906	-0.016672
O206	O	0.902353	0.606867	-0.189689
C207	C	0.910085	0.543073	-0.242855
H208	H	0.969898	0.503002	-0.259429
H209	H	0.862013	0.616029	-0.325516
H210	H	0.904598	0.458605	-0.186613
H211	H	0.837171	0.434415	0.016165
H212	H	0.291387	1.016822	-0.176095
H213	H	0.110070	1.016820	0.064009
O214	O	-0.016746	1.016596	-0.244548
C215	C	-0.016535	0.903449	-0.193020
H216	H	0.030921	0.824360	-0.109477
H217	H	-0.004203	0.865457	-0.249499
H218	H	-0.076149	0.929037	-0.178417
O219	O	0.286017	1.017057	0.143028
C220	C	0.208242	1.130208	0.097708
H221	H	0.201184	1.209298	0.010935
H222	H	0.194392	1.168195	0.154312
H223	H	0.166260	1.104627	0.091230
O224	O	0.418133	1.016902	0.132638
C225	C	0.374190	1.016884	0.210500
H226	H	0.312159	1.058237	0.170094
H227	H	0.371687	1.080340	0.237869
H228	H	0.403191	0.912065	0.286497
O229	O	0.217410	1.016584	-0.179098
C230	C	0.240013	0.903443	-0.175594
H231	H	0.248843	0.824346	-0.087481
H232	H	0.297183	0.865458	-0.199375
H233	H	0.192291	0.929034	-0.237089
O234	O	0.184198	1.016609	0.067224
C235	C	0.239577	0.903472	0.170617
H236	H	0.285265	0.824367	0.157242
H237	H	0.208585	0.865496	0.230286
H238	H	0.269661	0.929066	0.207930
H239	H	0.564208	1.131549	-0.544433
H240	H	0.621482	1.246588	-0.722488
