data_functionalizedCrystal
_audit_creation_method	'MofGen! by Chris Wilmer'
_symmetry_space_group_name_H-M	'P1'
_symmetry_Int_Tables_number	1
_symmetry_cell_setting	triclinic
loop_
_symmetry_equiv_pos_as_xyz
  x,y,z
_cell_length_a	13.635800
_cell_length_b	19.590947
_cell_length_c	10.992469
_cell_angle_alpha	85.709116
_cell_angle_beta	71.234376
_cell_angle_gamma	102.205388
loop_
_atom_site_label
_atom_site_type_symbol
_atom_site_fract_x
_atom_site_fract_y
_atom_site_fract_z
V1	V	2.019768	0.217848	-0.179106
O2	O	1.999539	0.213711	0.007223
O3	O	2.008817	0.216348	-0.353806
O4	O	1.992271	0.312863	-0.176958
O5	O	2.016200	0.116528	-0.170849
V6	V	2.260293	0.205730	-0.156747
O7	O	2.153111	0.244429	-0.228152
O8	O	2.352049	0.179150	-0.107701
O9	O	2.159641	0.207230	0.017953
O10	O	2.339220	0.209867	-0.343075
O11	O	2.322559	0.307050	-0.165004
O12	O	2.176187	0.110715	-0.158895
V13	V	2.519768	0.217848	-0.179106
O14	O	2.499539	0.213711	0.007223
O15	O	2.508817	0.216348	-0.353806
O16	O	2.492271	0.312863	-0.176958
O17	O	2.516200	0.116528	-0.170849
V18	V	2.760293	0.205730	-0.156747
O19	O	2.653111	0.244429	-0.228152
O20	O	2.852049	0.179150	-0.107701
O21	O	2.659641	0.207230	0.017953
O22	O	2.839220	0.209867	-0.343075
O23	O	2.822559	0.307050	-0.165004
O24	O	2.676187	0.110715	-0.158895
C25	C	1.934647	0.212909	-0.396375
C26	C	1.966315	0.212316	-0.539198
C27	C	1.867886	0.207880	-0.585669
C28	C	1.900872	0.207537	-0.734303
C29	C	2.086979	0.280490	-0.766266
C30	C	2.053307	0.281126	-0.617625
C31	C	2.014355	0.147695	-0.578499
C32	C	2.044993	0.146129	-0.726710
C33	C	1.913540	0.336023	-0.170787
C34	C	1.931787	0.413698	-0.170187
C35	C	2.065482	0.210667	0.060515
C36	C	2.023434	0.211265	0.203337
C37	C	2.031785	0.453745	-0.176354
C38	C	2.048930	0.526730	-0.175790
C39	C	1.966078	0.559667	-0.169085
C40	C	1.866063	0.519610	-0.162910
C41	C	1.848918	0.446626	-0.163461
C42	C	1.941638	0.678975	-0.238942
C43	C	1.958789	0.751958	-0.238400
C44	C	2.018955	0.784774	-0.167380
C45	C	2.061989	0.744598	-0.096921
C46	C	2.044844	0.671614	-0.097472
C47	C	1.984659	0.638805	-0.168486
C48	C	2.137550	0.903959	-0.172935
C49	C	2.154690	0.976944	-0.172363
C50	C	1.971823	0.969823	-0.159496
C51	C	1.954683	0.896839	-0.160055
C52	C	2.037552	0.863911	-0.166781
C53	C	2.090075	1.087552	-0.165068
C54	C	2.071834	1.009875	-0.165656
C55	C	2.434647	0.212909	-0.396375
C56	C	2.466315	0.212316	-0.539198
C57	C	2.413540	0.336023	-0.170787
C58	C	2.431787	0.413698	-0.170187
C59	C	2.565482	0.210667	0.060515
C60	C	2.523434	0.211265	0.203337
C61	C	2.586590	0.087552	-0.165070
C62	C	2.557961	0.009876	-0.165664
C63	C	2.531789	0.453737	-0.176333
C64	C	2.548944	0.526720	-0.175752
C65	C	2.466098	0.559665	-0.169035
C66	C	2.366086	0.519621	-0.162884
C67	C	2.348930	0.446638	-0.163456
C68	C	2.458576	-0.023051	-0.172367
C69	C	2.431658	-0.096037	-0.172909
C70	C	2.504130	-0.136094	-0.166758
C71	C	2.603522	-0.103163	-0.160051
C72	C	2.630436	-0.030179	-0.159499
C73	C	2.400968	0.207537	-0.734455
C74	C	2.367867	0.207877	-0.585813
C75	C	2.512794	0.147155	-0.577431
C76	C	2.545032	0.146465	-0.725970
C77	C	2.587879	0.280041	-0.765376
C78	C	2.553107	0.281454	-0.616871
H79	H	1.851120	0.157789	-0.753633
H80	H	2.350724	-0.122838	-0.178370
F81	F	2.281823	0.142994	-0.516861
H82	H	2.380123	0.253808	-0.781162
F83	F	1.848254	0.854217	-0.153508
H84	H	1.831224	0.254301	-0.559284
H85	H	1.997540	0.094957	-0.744597
H86	H	2.205026	0.877148	-0.178407
F87	F	2.655393	0.569326	-0.182306
F88	F	2.204388	0.287359	-0.820910
H89	H	2.599261	0.426924	-0.181806
H90	H	2.079882	0.638906	-0.040099
H91	H	2.331321	0.254437	-0.560336
H92	H	2.576255	0.329346	-0.815197
F93	F	1.873995	0.268243	-0.795208
H94	H	2.132570	0.144811	-0.768352
H95	H	1.955023	0.095768	-0.523623
F96	F	2.484373	0.637342	-0.168431
H97	H	2.399552	0.009555	-0.177375
F98	F	2.736223	0.004857	-0.152381
H99	H	2.267497	0.414044	-0.158453
F100	F	2.475472	-0.213770	-0.167350
F101	F	2.680646	-0.145804	-0.153515
H102	H	2.298638	0.546455	-0.157416
H103	H	2.451276	0.095970	-0.522877
F104	F	2.607800	0.148134	-0.537917
H105	H	1.798604	0.546431	-0.157446
H106	H	2.127271	0.287209	-0.588287
F107	F	2.484219	0.078842	-0.748449
F108	F	1.781484	0.143200	-0.516531
F109	F	1.742483	0.404003	-0.156900
F110	F	2.336408	0.142708	-0.760926
H111	H	2.236120	1.009549	-0.177376
F112	F	2.649367	0.290967	-0.577452
F113	F	2.704650	0.284501	-0.819132
F114	F	2.012523	0.344995	-0.587906
F115	F	2.660215	0.146332	-0.779410
F116	F	2.068118	0.343727	-0.830498
H117	H	2.520340	0.329663	-0.593273
F118	F	2.119982	0.418706	-0.183507
F119	F	2.110290	0.151095	-0.539900
H120	H	2.110984	0.771315	-0.039094
H121	H	2.130366	0.559343	-0.180819
H122	H	1.904359	0.996639	-0.154025
H123	H	1.923753	0.784664	-0.295780
F124	F	1.877586	0.644056	-0.314520
