data_functionalizedCrystal
_audit_creation_method	'MofGen! by Chris Wilmer'
_symmetry_space_group_name_H-M	'P1'
_symmetry_Int_Tables_number	1
_symmetry_cell_setting	triclinic
loop_
_symmetry_equiv_pos_as_xyz
  x,y,z
_cell_length_a	15.298114
_cell_length_b	12.645330
_cell_length_c	15.296720
_cell_angle_alpha	99.648098
_cell_angle_beta	110.778933
_cell_angle_gamma	80.350376
loop_
_atom_site_label
_atom_site_type_symbol
_atom_site_fract_x
_atom_site_fract_y
_atom_site_fract_z
Zn1	Zn	1.330752	-0.749164	-0.279346
Zn2	Zn	1.357593	-0.900286	-0.123847
Zn3	Zn	1.202158	-0.696944	-0.150807
Zn4	Zn	1.175234	-0.900268	-0.306269
O5	O	1.266434	-0.811666	-0.215067
O6	O	1.464448	-0.791073	-0.236169
O7	O	1.359476	-0.851466	0.002715
O8	O	1.219251	-0.555534	-0.167874
O9	O	1.484168	-0.902102	-0.121924
O10	O	1.313729	-0.593900	-0.262312
O11	O	1.245278	-0.702071	-0.017092
O12	O	1.068451	-0.702053	-0.193980
O13	O	1.173362	-0.902071	-0.432836
O14	O	1.048670	-0.851435	-0.308196
O15	O	1.287621	-0.791056	-0.413056
O16	O	1.333368	-1.048621	-0.148029
O17	O	1.199389	-1.048608	-0.282054
C18	C	1.024818	-0.771076	-0.256935
C19	C	0.921449	-0.753741	-0.274869
C20	C	0.671201	-0.935609	-0.087123
C21	C	0.768322	-0.951894	-0.070266
C22	C	0.806609	-0.902358	-0.121416
C23	C	0.747765	-0.836533	-0.189424
C24	C	0.650635	-0.820239	-0.206277
C25	C	0.786043	-0.786988	-0.240570
C26	C	0.727199	-0.721163	-0.308578
C27	C	0.630079	-0.704873	-0.325428
C28	C	0.591793	-0.754410	-0.274279
C29	C	0.883173	-0.803281	-0.223717
C30	C	0.862607	-0.687911	-0.342871
C31	C	0.765486	-0.671627	-0.359727
C32	C	1.266391	-1.087084	-0.215053
C33	C	1.266453	-1.204929	-0.215064
C34	C	1.350649	-1.372413	-0.130623
C35	C	1.350852	-1.249921	-0.130759
C36	C	1.276057	-1.270258	-0.308488
C37	C	1.276692	-1.392888	-0.308008
C38	C	1.172458	-1.351532	-0.207051
C39	C	1.173310	-1.228637	-0.204771
C40	C	1.508994	-0.852415	-0.173036
C41	C	1.612359	-0.869779	-0.155125
C42	C	1.224494	-0.852386	-0.457633
C43	C	1.206622	-0.869739	-0.561000
C44	C	1.266499	-0.535180	-0.215097
C45	C	1.266527	-0.417358	-0.215110
C46	C	1.394205	-0.687464	-0.811180
C47	C	1.411002	-0.671163	-0.714061
C48	C	1.359909	-0.720805	-0.675791
C49	C	1.292015	-0.786752	-0.734650
C50	C	1.275220	-0.803061	-0.831778
C51	C	1.240924	-0.836402	-0.696388
C52	C	1.173030	-0.902349	-0.755247
C53	C	1.156239	-0.918655	-0.852366
C54	C	1.207332	-0.869013	-0.890636
C55	C	1.257719	-0.820093	-0.599260
C56	C	1.138734	-0.935690	-0.619858
C57	C	1.121937	-0.951991	-0.716977
C58	C	1.308264	-0.771036	0.026564
C59	C	1.326317	-0.753415	0.129962
H60	H	0.582171	-0.651266	-0.380799
H61	H	0.931074	-0.856877	-0.168344
H62	H	1.097131	-0.976115	-0.588699
H63	H	0.717562	-0.618031	-0.415100
O64	O	1.083012	-0.989787	-0.915845
H65	H	1.116969	-1.058149	-0.952868
O66	O	1.346097	-1.391711	-0.037638
H67	H	1.411030	-1.442569	-0.000398
O68	O	1.330944	-0.748969	-0.535788
H69	H	1.334049	-0.745973	-0.461821
H70	H	0.885690	-0.915621	-0.107687
H71	H	1.420870	-1.235546	-0.134737
O72	O	1.089639	-1.389741	-0.288766
H73	H	1.041549	-1.420582	-0.261664
H74	H	1.466284	-0.617472	-0.666144
H75	H	1.435803	-0.647059	-0.842349
O76	O	1.189215	-0.886589	-0.995390
H77	H	1.133420	-0.940783	-1.029892
O78	O	0.487037	-0.736851	-0.292460
H79	H	0.452548	-0.682760	-0.348344
O80	O	1.365583	-1.250339	-0.320380
H81	H	1.411211	-1.328089	-0.322982
O82	O	1.048710	-1.023119	-0.780462
H83	H	1.045622	-1.026119	-0.854424
H84	H	0.816227	-1.005487	-0.014893
H85	H	1.373590	-0.707529	-0.596711
O86	O	0.903897	-0.634480	-0.398041
H87	H	0.888006	-0.545468	-0.385441
O88	O	0.629910	-0.989021	-0.031951
H89	H	0.578483	-1.042587	-0.081163
O90	O	1.345517	-1.190279	-0.038288
H91	H	1.342771	-1.248867	0.006933
H92	H	1.420308	-1.418079	-0.134483
H93	H	1.344947	-1.437057	-0.316815
O94	O	1.197850	-1.433471	-0.393025
H95	H	1.159442	-1.365504	-0.434304
H96	H	1.215917	-1.241889	-0.372393
H97	H	1.160450	-1.366672	-0.141001
H98	H	1.165761	-1.184144	-0.136101
H99	H	1.108627	-1.196757	-0.263165
