data_functionalizedCrystal
_audit_creation_method	'MofGen! by Chris Wilmer'
_symmetry_space_group_name_H-M	'P1'
_symmetry_Int_Tables_number	1
_symmetry_cell_setting	triclinic
loop_
_symmetry_equiv_pos_as_xyz
  x,y,z
_cell_length_a	23.532355
_cell_length_b	23.532407
_cell_length_c	9.198806
_cell_angle_alpha	89.992171
_cell_angle_beta	90.001887
_cell_angle_gamma	82.838088
loop_
_atom_site_label
_atom_site_type_symbol
_atom_site_fract_x
_atom_site_fract_y
_atom_site_fract_z
O1	O	0.755278	0.068993	-0.120709
O2	O	0.589411	0.079027	-0.120758
O3	O	0.677346	-0.008923	-0.120705
O4	O	0.667343	0.156943	-0.120762
O5	O	0.677339	-0.008923	0.121080
O6	O	0.589404	0.079027	0.121027
O7	O	0.755271	0.068993	0.121076
Cu8	Cu	0.672337	0.074010	0.143128
Cu9	Cu	0.672345	0.074010	-0.142810
O10	O	0.667336	0.156942	0.121023
C11	C	0.568191	0.078776	0.000129
C12	C	0.504972	0.078022	0.000112
C13	C	0.112955	0.073284	0.131971
C14	C	0.053555	0.072566	0.131977
O15	O	0.022833	0.072176	0.244064
N16	N	0.023850	0.072211	0.000181
C17	C	0.053549	0.072567	-0.131630
O18	O	0.022829	0.072198	-0.243733
C19	C	0.112948	0.073280	-0.131635
C20	C	0.142649	0.073641	0.000171
C21	C	0.142656	0.073645	0.263766
C22	C	0.202051	0.074363	0.263759
C23	C	0.231745	0.074721	0.131958
C24	C	0.202044	0.074360	0.000164
C25	C	0.142646	0.073632	-0.263444
C26	C	0.202049	0.074345	-0.263437
C27	C	0.231750	0.074706	-0.131632
C28	C	0.291133	0.075436	-0.131643
N29	N	0.320838	0.075792	0.000153
C30	C	0.291144	0.075434	0.131954
C31	C	-0.071193	0.071068	-0.131611
C32	C	-0.130591	0.070358	-0.131608
C33	C	-0.130581	0.070357	0.132000
C34	C	-0.071182	0.071070	0.131995
C35	C	-0.041488	0.071423	0.000185
C36	C	0.415878	0.076943	0.131931
C37	C	0.475278	0.077664	0.131913
C38	C	0.475263	0.077663	-0.131694
C39	C	0.415867	0.076945	-0.131677
C40	C	0.386177	0.076583	0.000147
O41	O	0.321893	0.075825	-0.243673
O42	O	0.321872	0.075796	0.244038
C43	C	0.677088	-0.030139	0.000191
C44	C	0.676322	-0.093356	0.000202
C45	C	0.723557	-0.492468	0.000136
C46	C	0.722845	-0.551868	0.000125
O47	O	0.766632	-0.588620	0.000084
N48	N	0.670568	-0.574484	0.000110
C49	C	0.618998	-0.537697	0.000093
O50	O	0.574467	-0.562388	0.000078
C51	C	0.619710	-0.478298	0.000093
C52	C	0.671991	-0.455685	0.000122
C53	C	0.775834	-0.469854	0.000163
C54	C	0.776545	-0.410458	0.000177
C55	C	0.724979	-0.373676	0.000164
C56	C	0.672703	-0.396289	0.000136
C57	C	0.568141	-0.441512	0.000065
C58	C	0.568858	-0.382110	0.000065
C59	C	0.621139	-0.359497	0.000094
C60	C	0.621848	-0.300110	0.000137
N61	N	0.674126	-0.277494	0.000151
C62	C	0.725691	-0.314277	0.000164
C63	C	0.617507	-0.662439	0.000088
C64	C	0.616794	-0.721837	0.000098
C65	C	0.720642	-0.736004	0.000127
C66	C	0.721354	-0.676605	0.000128
C67	C	0.669784	-0.639823	0.000102
C68	C	0.727181	-0.189540	0.000195
C69	C	0.727888	-0.130138	0.000215
C70	C	0.624041	-0.115977	0.000178
C71	C	0.623334	-0.175373	0.000166
C72	C	0.674909	-0.212154	0.000169
O73	O	0.578084	-0.263323	0.000172
O74	O	0.770216	-0.289577	0.000160
C75	C	0.776492	0.069244	0.000186
C76	C	0.839710	0.069998	0.000193
C77	C	0.667594	0.178158	0.000124
C78	C	0.668360	0.241375	0.000104
N79	N	0.672335	0.074009	0.344242
N80	N	0.672351	0.074006	-0.343924
C81	C	0.709259	0.036921	0.416461
C82	C	0.709268	0.036919	0.583874
H83	H	0.391710	0.076654	0.239275
C84	C	0.383190	0.076552	-0.276657
C85	C	0.349112	0.026594	-0.312880
C86	C	0.316440	0.026195	-0.457861
C87	C	0.317845	0.075754	-0.566619
C88	C	0.351924	0.125715	-0.530399
C89	C	0.384596	0.126114	-0.385418
H90	H	0.348071	-0.010096	-0.232368
H91	H	0.291212	-0.010790	-0.484672
H92	H	0.293658	0.075458	-0.673942
H93	H	0.352965	0.162405	-0.610910
H94	H	0.409824	0.163100	-0.358606
C95	C	0.567321	-0.075508	0.000152
C96	C	0.524397	-0.077818	-0.125429
C97	C	0.467678	-0.037346	-0.125471
C98	C	0.453883	0.005435	0.000070
C99	C	0.496808	0.007747	0.125660
C100	C	0.553527	-0.032724	0.125702
H101	H	0.534608	-0.109489	-0.218370
H102	H	0.435902	-0.039058	-0.218442
H103	H	0.411896	0.035394	0.000039
H104	H	0.486597	0.039418	0.218601
H105	H	0.585303	-0.031013	0.218673
H106	H	0.640728	0.105758	0.406352
C107	C	0.507936	0.078057	-0.276668
C108	C	0.555524	0.029087	-0.312878
C109	C	0.588200	0.029477	-0.457850
C110	C	0.573287	0.078838	-0.566613
C111	C	0.525696	0.127811	-0.530406
C112	C	0.493020	0.127421	-0.385433
H113	H	0.566566	-0.007456	-0.232362
H114	H	0.623430	-0.006776	-0.484653
H115	H	0.597476	0.079127	-0.673930
H116	H	0.514654	0.164354	-0.610921
H117	H	0.457790	0.163675	-0.358631
H118	H	0.640740	0.105762	0.593980
H119	H	0.499457	0.077961	0.239249
H120	H	-0.154768	0.070065	0.239319
C121	C	0.510632	-0.466379	0.000038
C122	C	0.495863	-0.505258	-0.125521
C123	C	0.438352	-0.530126	-0.125545
C124	C	0.395609	-0.516115	-0.000011
C125	C	0.410377	-0.477235	0.125557
C126	C	0.467889	-0.452367	0.125581
H127	H	0.527505	-0.515631	-0.218458
H128	H	0.427420	-0.558908	-0.218500
H129	H	0.353035	-0.534524	-0.000029
H130	H	0.378735	-0.466862	0.218494
H131	H	0.478821	-0.423585	0.218536
H132	H	0.770463	-0.111731	0.000242
H133	H	0.740863	0.005168	0.354354
H134	H	0.740882	0.005168	0.645979
C135	C	-0.038512	0.071464	0.276980
C136	C	-0.053431	0.120828	0.385694
C137	C	-0.020764	0.121222	0.530685
C138	C	0.026821	0.072251	0.566962
C139	C	0.041742	0.022884	0.458246
C140	C	0.009075	0.022491	0.313255
H141	H	-0.088658	0.157082	0.358841
H142	H	-0.031810	0.157767	0.611163
H143	H	0.051002	0.072543	0.674293
H144	H	0.076969	-0.013370	0.485099
H145	H	0.020121	-0.014055	0.232777
C146	C	0.834057	-0.385591	0.000180
C147	C	0.876797	-0.399619	0.125728
C148	C	0.934313	-0.374758	0.125720
C149	C	0.949088	-0.335870	0.000163
C150	C	0.906346	-0.321840	-0.125394
C151	C	0.848831	-0.346701	-0.125386
H152	H	0.865861	-0.428408	0.218681
H153	H	0.965953	-0.385144	0.218666
H154	H	0.991664	-0.317467	0.000157
H155	H	0.917283	-0.293051	-0.218347
H156	H	0.817190	-0.336315	-0.218332
H157	H	0.817827	-0.499797	0.000169
C158	C	0.778863	-0.651733	0.000147
C159	C	0.821597	-0.665755	0.125712
C160	C	0.879109	-0.640888	0.125728
C161	C	0.893887	-0.601998	0.000178
C162	C	0.851152	-0.587974	-0.125397
C163	C	0.793640	-0.612841	-0.125412
H164	H	0.810658	-0.694546	0.218660
H165	H	0.910744	-0.651270	0.218687
H166	H	0.936460	-0.583589	0.000189
H167	H	0.862090	-0.559183	-0.218345
H168	H	0.762005	-0.602459	-0.218372
C169	C	0.777366	-0.776471	0.000129
C170	C	0.791152	-0.819267	0.125675
C171	C	0.847873	-0.859736	0.125678
C172	C	0.890809	-0.857408	0.000136
C173	C	0.877025	-0.814610	-0.125419
C174	C	0.820304	-0.774142	-0.125422
H175	H	0.759367	-0.820992	0.218617
H176	H	0.858076	-0.891417	0.218623
H177	H	0.932797	-0.887365	0.000139
H178	H	0.908809	-0.812886	-0.218361
H179	H	0.810100	-0.742460	-0.218367
C180	C	0.512130	-0.341649	0.000043
C181	C	0.498341	-0.298857	-0.125508
C182	C	0.441613	-0.258398	-0.125525
C183	C	0.398675	-0.260732	0.000009
C184	C	0.412463	-0.303526	0.125570
C185	C	0.469190	-0.343985	0.125587
H186	H	0.530127	-0.297128	-0.218444
H187	H	0.431407	-0.226719	-0.218474
H188	H	0.356682	-0.230782	-0.000004
H189	H	0.380676	-0.305255	0.218506
H190	H	0.479396	-0.375664	0.218536
H191	H	0.226228	0.074654	0.371089
H192	H	0.580762	-0.193785	0.000183
C193	C	0.559284	-0.746706	0.000084
C194	C	0.516543	-0.732697	0.125624
C195	C	0.459030	-0.757563	0.125601
C196	C	0.444258	-0.796438	0.000038
C197	C	0.486999	-0.810448	-0.125512
C198	C	0.544512	-0.785583	-0.125489
H199	H	0.527478	-0.703918	0.218582
H200	H	0.427390	-0.747191	0.218542
H201	H	0.401683	-0.814845	0.000020
H202	H	0.476065	-0.839227	-0.218470
H203	H	0.576152	-0.795955	-0.218429
C204	C	-0.038534	0.071466	-0.276615
C205	C	-0.039959	0.021910	-0.385338
C206	C	-0.007304	0.022307	-0.530340
C207	C	0.026776	0.072260	-0.566619
C208	C	0.028203	0.121820	-0.457893
C209	C	-0.004452	0.121422	-0.312891
H210	H	-0.065189	-0.015071	-0.358485
H211	H	-0.008361	-0.014380	-0.610826
H212	H	0.050949	0.072555	-0.673958
H213	H	0.053433	0.158801	-0.484746
H214	H	-0.003395	0.158110	-0.232404
H215	H	-0.154770	0.070073	-0.238937
H216	H	0.118485	0.073352	0.371100
H217	H	0.226222	0.074633	-0.370775
H218	H	0.118474	0.073337	-0.370774
H219	H	0.575510	-0.632494	0.000080
H220	H	0.769178	-0.219481	0.000192
