data_functionalizedCrystal
_audit_creation_method	'MofGen! by Chris Wilmer'
_symmetry_space_group_name_H-M	'P1'
_symmetry_Int_Tables_number	1
_symmetry_cell_setting	triclinic
loop_
_symmetry_equiv_pos_as_xyz
  x,y,z
_cell_length_a	27.732048
_cell_length_b	9.065218
_cell_length_c	26.210047
_cell_angle_alpha	90.017616
_cell_angle_beta	89.984034
_cell_angle_gamma	96.170730
loop_
_atom_site_label
_atom_site_type_symbol
_atom_site_fract_x
_atom_site_fract_y
_atom_site_fract_z
O1	O	0.642136	-0.175550	-0.042361
O2	O	0.501525	-0.202239	-0.042377
O3	O	0.574737	0.025933	-0.042368
O4	O	0.568924	-0.403722	-0.042370
O5	O	0.574709	0.025995	0.042490
O6	O	0.501497	-0.202176	0.042482
O7	O	0.642108	-0.175488	0.042497
Cu8	Cu	0.571800	-0.188826	0.050237
Cu9	Cu	0.571833	-0.188900	-0.050117
O10	O	0.568896	-0.403659	0.042488
C11	C	0.483500	-0.201647	0.000051
C12	C	0.429834	-0.199960	0.000045
C13	C	0.091866	-0.324175	0.000066
C14	C	-0.109836	-0.317916	0.000071
O15	O	-0.140316	-0.431501	0.000092
N16	N	-0.129883	-0.182619	0.000071
C17	C	-0.099501	-0.048878	0.000073
O18	O	-0.121181	0.066343	0.000078
C19	C	0.102200	-0.055139	0.000072
C20	C	0.122244	-0.190444	0.000067
C21	C	0.111911	-0.459468	0.000061
C22	C	0.162334	-0.461032	0.000058
C23	C	0.192712	-0.327301	0.000058
C24	C	0.172667	-0.192007	0.000063
C25	C	0.132581	0.078601	0.000078
C26	C	0.183009	0.077023	0.000079
C27	C	0.203053	-0.058282	0.000073
C28	C	0.253467	-0.059840	0.000059
N29	N	0.273514	-0.195136	0.000059
C30	C	0.243137	-0.328867	0.000059
C31	C	-0.205398	-0.045601	0.000072
C32	C	-0.255823	-0.044035	0.000072
C33	C	-0.266154	-0.313073	0.000070
C34	C	-0.215728	-0.314637	0.000067
C35	C	-0.185351	-0.180897	0.000072
C36	C	0.349028	-0.332139	0.000050
C37	C	0.399456	-0.333691	0.000044
C38	C	0.409782	-0.064654	0.000048
C39	C	0.359359	-0.063102	0.000051
C40	C	0.328983	-0.196856	0.000054
O41	O	0.283976	0.053684	0.000044
O42	O	0.264826	-0.444071	0.000065
C43	C	0.041444	-0.322611	0.000070
C44	C	0.021399	-0.187317	0.000074
C45	C	0.051777	-0.053587	0.000075
C46	C	-0.029026	-0.185752	0.000074
C47	C	-0.059404	-0.319482	0.000073
C48	C	-0.039357	-0.454779	0.000073
C49	C	0.011066	-0.456342	0.000069
C50	C	0.031730	0.081710	0.000075
C51	C	-0.018694	0.083262	0.000078
C52	C	-0.049071	-0.050469	0.000078
C53	C	0.574164	0.080915	0.000061
C54	C	0.572494	0.244652	0.000058
C55	C	0.660133	-0.176079	0.000068
C56	C	0.713799	-0.177766	0.000071
C57	C	0.569469	-0.458642	0.000058
C58	C	0.571139	-0.622378	0.000058
N59	N	0.571780	-0.188773	0.120821
C60	C	0.542117	-0.099981	0.526796
C61	C	0.542098	-0.099944	0.313137
O62	O	0.516850	-0.024330	0.285525
N63	N	0.571797	-0.188793	0.286405
C64	C	0.601505	-0.277651	0.313090
O65	O	0.626769	-0.353211	0.285450
C66	C	0.601527	-0.277680	0.526748
C67	C	0.571823	-0.188836	0.553478
C68	C	0.512415	-0.011143	0.553526
C69	C	0.512419	-0.011160	0.606937
C70	C	0.542124	-0.100014	0.633619
C71	C	0.571826	-0.188852	0.606889
C72	C	0.631238	-0.366529	0.553433
C73	C	0.631242	-0.366525	0.606850
C74	C	0.601537	-0.277681	0.633580
C75	C	0.601534	-0.277723	0.686982
N76	N	0.571835	-0.188873	0.713715
C77	C	0.542130	-0.100019	0.687033
C78	C	0.601491	-0.277632	0.200917
C79	C	0.601485	-0.277627	0.147503
C80	C	0.542078	-0.099917	0.147554
C81	C	0.542082	-0.099931	0.200969
C82	C	0.571792	-0.188783	0.227650
C83	C	0.542139	-0.100061	0.799201
C84	C	0.542143	-0.100090	0.852617
C85	C	0.601552	-0.277793	0.852562
C86	C	0.601546	-0.277771	0.799150
C87	C	0.571838	-0.188893	0.772471
O88	O	0.626773	-0.353284	0.714628
O89	O	0.516878	-0.024446	0.714682
C90	C	0.542114	-0.099965	0.473384
C91	C	0.571816	-0.188803	0.446655
C92	C	0.601521	-0.277657	0.473337
C93	C	0.571810	-0.188798	0.393241
C94	C	0.542105	-0.099944	0.366559
C95	C	0.512406	-0.011094	0.393291
C96	C	0.512409	-0.011111	0.446703
C97	C	0.631220	-0.366507	0.446604
C98	C	0.631214	-0.366485	0.393193
C99	C	0.601509	-0.277630	0.366511
N100	N	0.571849	-0.188944	0.879299
H101	H	0.056459	0.190612	0.000077
H102	H	0.625736	-0.350140	0.874296
Br103	Br	0.641788	-0.398244	0.111234
Br104	Br	0.641814	-0.398234	0.237119
H105	H	0.517893	-0.027587	0.222728
Br106	Br	0.671542	-0.487151	0.517170
Br107	Br	0.472092	0.109449	0.517325
Br108	Br	0.307811	-0.513665	0.000055
H109	H	0.116270	0.188780	0.000082
Br110	Br	0.501764	0.020670	0.111332
H111	H	-0.180668	0.063313	0.000076
Br112	Br	0.426655	-0.517331	0.000034
Br113	Br	0.671568	-0.487109	0.643057
H114	H	0.488220	0.061236	0.468461
Br115	Br	0.501823	0.020567	0.763002
H116	H	-0.272138	0.066143	0.000068
Br117	Br	0.501825	0.020485	0.888890
Br118	Br	0.641866	-0.398326	0.762873
H119	H	-0.199412	-0.424814	0.000066
H120	H	0.488216	0.061248	0.371558
H121	H	-0.290897	-0.421962	0.000070
Br122	Br	0.671524	-0.487095	0.356924
H123	H	0.207740	0.185934	0.000083
H124	H	0.434525	0.044226	0.000046
H125	H	0.488232	0.061192	0.628696
H126	H	0.343039	0.047075	0.000048
H127	H	0.178649	-0.571211	0.000053
H128	H	0.655411	-0.438862	0.468323
H129	H	0.027381	-0.566521	0.000066
H130	H	0.087182	-0.568374	0.000063
H131	H	-0.064099	-0.563667	0.000071
Br132	Br	-0.045889	0.266908	0.000077
