data_functionalizedCrystal
_audit_creation_method	'MofGen! by Chris Wilmer'
_symmetry_space_group_name_H-M	'P1'
_symmetry_Int_Tables_number	1
_symmetry_cell_setting	triclinic
loop_
_symmetry_equiv_pos_as_xyz
  x,y,z
_cell_length_a	19.077105
_cell_length_b	18.050590
_cell_length_c	19.076919
_cell_angle_alpha	87.729485
_cell_angle_beta	89.923776
_cell_angle_gamma	87.714864
loop_
_atom_site_label
_atom_site_type_symbol
_atom_site_fract_x
_atom_site_fract_y
_atom_site_fract_z
Zn1	Zn	1.058306	-0.359282	0.440410
Zn2	Zn	1.558306	0.140718	0.940410
Zn3	Zn	1.062957	-0.478691	0.322901
Zn4	Zn	1.562957	0.021309	0.822901
Zn5	Zn	0.945523	-0.349334	0.318204
Zn6	Zn	1.445523	0.150666	0.818204
Zn7	Zn	0.940779	-0.478243	0.435654
Zn8	Zn	1.440779	0.021757	0.935654
O9	O	1.001891	-0.416388	0.379292
O10	O	1.501891	0.083612	0.879292
O11	O	1.157255	-0.379473	0.428779
O12	O	1.657255	0.120527	0.928779
O13	O	1.051311	-0.457555	0.223947
O14	O	1.551311	0.042445	0.723947
O15	O	0.960522	-0.246732	0.334440
O16	O	1.460522	0.253268	0.834440
O17	O	1.160673	-0.467202	0.342445
O18	O	1.660673	0.032798	0.842445
O19	O	1.043383	-0.254041	0.424224
O20	O	1.543383	0.245959	0.924224
O21	O	0.965032	-0.362517	0.220496
O22	O	1.465032	0.137483	0.720496
O23	O	0.846561	-0.362083	0.329827
O24	O	1.346561	0.137917	0.829827
O25	O	0.952437	-0.466439	0.534616
O26	O	1.452437	0.033561	1.034616
O27	O	0.843076	-0.456792	0.416117
O28	O	1.343076	0.043208	0.916117
O29	O	1.038784	-0.379039	0.538111
O30	O	1.538784	0.120961	1.038111
O31	O	1.046712	-0.582553	0.337833
O32	O	1.546712	-0.082553	0.837833
O33	O	0.956948	-0.582224	0.420672
O34	O	1.456948	-0.082224	0.920672
C35	C	0.819322	-0.408310	0.371947
C36	C	1.319322	0.091690	0.871947
C37	C	0.741218	-0.404873	0.368821
C38	C	1.241218	0.095127	0.868821
C39	C	0.702731	-0.452637	0.412209
C40	C	1.202731	0.047363	0.912209
C41	C	0.629343	-0.449397	0.409275
C42	C	1.129343	0.050603	0.909275
C43	C	0.594444	-0.398397	0.362950
C44	C	1.094444	0.101603	0.862950
C45	C	0.632936	-0.350628	0.319561
C46	C	1.132936	0.149372	0.819561
C47	C	0.706322	-0.353864	0.322498
C48	C	1.206322	0.146136	0.822498
C49	C	0.375155	-0.383420	0.349358
C50	C	0.875155	0.116580	0.849358
C51	C	0.301764	-0.380189	0.346422
C52	C	0.801764	0.119811	0.846422
C53	C	0.298176	-0.478958	0.436137
C54	C	0.798176	0.021042	0.936137
C55	C	0.371564	-0.482193	0.439068
C56	C	0.871564	0.017807	0.939068
C57	C	0.410049	-0.434421	0.395681
C58	C	0.910049	0.065579	0.895681
N59	N	0.519430	-0.395087	0.359949
N60	N	1.019430	0.104913	0.859949
N61	N	0.485062	-0.437728	0.398687
N62	N	0.985062	0.062272	0.898687
C63	C	1.001838	-0.609336	0.379262
C64	C	1.501838	-0.109336	0.879262
C65	C	1.001879	-0.691884	0.379275
C66	C	1.501879	-0.191884	0.879275
C67	C	1.050788	-0.891494	0.334297
C68	C	1.550788	-0.391494	0.834297
C69	C	1.065373	-0.944195	0.399117
C70	C	1.565373	-0.444195	0.899117
C71	C	1.001918	-0.843017	0.379305
C72	C	1.501918	-0.343017	0.879305
C73	C	0.987403	-0.937403	0.314516
C74	C	1.487403	-0.437403	0.814516
C75	C	1.001957	-0.989005	0.379328
C76	C	1.501957	-0.489005	0.879328
C77	C	1.016535	-0.894634	0.444160
C78	C	1.516535	-0.394634	0.944160
C79	C	0.938536	-0.887835	0.359515
C80	C	1.438536	-0.387835	0.859515
C81	C	0.953096	-0.940514	0.424378
C82	C	1.453096	-0.440514	0.924378
C83	C	1.001897	-0.758918	0.379291
C84	C	1.501897	-0.258918	0.879291
C85	C	1.001977	-1.073103	0.379349
C86	C	1.501977	-0.573103	0.879349
C87	C	1.185173	-0.424497	0.386667
C88	C	1.685173	0.075503	0.886667
C89	C	1.263277	-0.427953	0.389809
C90	C	1.763277	0.072047	0.889809
C91	C	0.994562	-0.423799	0.562572
C92	C	1.494562	0.076201	1.062572
C93	C	0.991439	-0.426957	0.640675
C94	C	1.491439	0.073043	1.140675
C95	C	1.001963	-0.222687	0.379339
C96	C	1.501963	0.277313	0.879339
C97	C	1.001993	-0.140143	0.379358
C98	C	1.501993	0.359857	0.879358
C99	C	1.009232	-0.408953	0.196727
C100	C	1.509232	0.091047	0.696727
C101	C	1.012491	-0.405592	0.118630
C102	C	1.512491	0.094408	0.618630
C103	C	1.034926	-0.382938	0.679189
C104	C	1.534926	0.117062	1.179189
C105	C	1.031983	-0.385902	0.752575
C106	C	1.531983	0.114098	1.252575
C107	C	0.985556	-0.432890	0.787446
C108	C	1.485556	0.067110	1.287446
C109	C	0.942065	-0.476910	0.748927
C110	C	1.442065	0.023090	1.248927
C111	C	0.945005	-0.473941	0.675542
C112	C	1.445005	0.026059	1.175542
C113	C	0.971940	-0.446644	1.006726
C114	C	1.471940	0.053356	1.506726
C115	C	0.969005	-0.449611	1.080116
C116	C	1.469005	0.050389	1.580116
C117	C	1.058922	-0.358602	1.083759
C118	C	1.558922	0.141398	1.583759
C119	C	1.061860	-0.355641	1.010373
C120	C	1.561860	0.144359	1.510373
C121	C	1.018367	-0.399658	0.971860
C122	C	1.518367	0.100342	1.471860
N123	N	0.982549	-0.435922	0.862458
N124	N	1.482549	0.064078	1.362458
N125	N	1.021371	-0.396621	0.896850
N126	N	1.521371	0.103379	1.396850
H127	H	0.406482	-0.344527	0.314024
H128	H	0.906482	0.155473	0.814024
N129	N	0.595299	-0.295633	0.269582
N130	N	1.095299	0.204367	0.769582
H131	H	0.542969	-0.300837	0.274296
H132	H	1.042969	0.199163	0.774296
H133	H	0.610132	-0.305663	0.219898
H134	H	1.110132	0.194337	0.719898
N135	N	0.747837	-0.302343	0.275707
N136	N	1.247837	0.197657	0.775707
H137	H	0.714594	-0.269543	0.245915
H138	H	1.214594	0.230457	0.745915
H139	H	0.779576	-0.332540	0.244355
H140	H	1.279576	0.167460	0.744355
H141	H	0.884936	-0.863176	0.342744
H142	H	1.384936	-0.363176	0.842744
H143	H	0.975109	-0.956301	0.259716
H144	H	1.475109	-0.456301	0.759716
H145	H	1.092127	-0.869968	0.296277
H146	H	1.592127	-0.369968	0.796277
N147	N	1.085005	-0.332264	0.641581
N148	N	1.585005	0.167736	1.141581
H149	H	1.112105	-0.304827	0.677117
H150	H	1.612105	0.195173	1.177117
H151	H	1.057636	-0.295399	0.609988
H152	H	1.557636	0.204601	1.109988
H153	H	1.067396	-0.350060	0.783929
H154	H	1.567396	0.149940	1.283929
H155	H	1.099668	-0.317381	0.981986
H156	H	1.599668	0.182619	1.481986
N157	N	0.409194	-0.537204	0.489035
N158	N	0.909194	-0.037204	0.989035
H159	H	0.394427	-0.527220	0.538750
H160	H	0.894427	-0.027220	1.038750
H161	H	0.461515	-0.531986	0.484255
H162	H	0.961515	-0.031986	0.984255
H163	H	1.118990	-0.968837	0.415870
H164	H	1.618990	-0.468837	0.915870
N165	N	1.032900	-0.869737	0.516776
N166	N	1.532900	-0.369737	1.016776
H167	H	1.032804	-0.813762	0.516315
H168	H	1.532804	-0.313762	1.016315
H169	H	1.080619	-0.890820	0.531790
H170	H	1.580619	-0.390820	1.031790
H171	H	0.911783	-0.961907	0.462496
H172	H	1.411783	-0.461907	0.962496
N173	N	0.256663	-0.530477	0.482929
N174	N	0.756663	-0.030477	0.982929
H175	H	0.224925	-0.500327	0.514326
H176	H	0.724925	-0.000327	1.014326
H177	H	0.289952	-0.563266	0.512677
H178	H	0.789952	-0.063266	1.012677
H179	H	1.094331	-0.322764	1.115124
H180	H	1.594331	0.177236	1.615124
H181	H	0.931197	-0.487875	1.108506
H182	H	1.431197	0.012125	1.608506
H183	H	0.936534	-0.482497	0.975379
H184	H	1.436534	0.017503	1.475379
H185	H	0.904261	-0.515165	0.777324
H186	H	1.404261	-0.015165	1.277324
N187	N	0.898095	-0.521417	0.634006
N188	N	1.398095	-0.021417	1.134006
H189	H	0.908473	-0.575478	0.647201
H190	H	1.408473	-0.075478	1.147201
H191	H	0.907017	-0.512345	0.582239
H192	H	1.407017	-0.012345	1.082239
N193	N	0.740370	-0.507649	0.462169
N194	N	1.240370	-0.007649	0.962169
H195	H	0.704850	-0.537415	0.489210
H196	H	1.204850	-0.037415	0.989210
H197	H	0.769531	-0.480135	0.495958
H198	H	1.269531	0.019865	0.995958
H199	H	0.598010	-0.488293	0.444605
H200	H	1.098010	0.011707	0.944605
H201	H	0.273351	-0.338651	0.308703
H202	H	0.773351	0.161349	0.808703
