data_functionalizedCrystal
_audit_creation_method	'MofGen! by Chris Wilmer'
_symmetry_space_group_name_H-M	'P1'
_symmetry_Int_Tables_number	1
_symmetry_cell_setting	triclinic
loop_
_symmetry_equiv_pos_as_xyz
  x,y,z
_cell_length_a	10.654550
_cell_length_b	11.792241
_cell_length_c	9.130313
_cell_angle_alpha	89.998583
_cell_angle_beta	89.996220
_cell_angle_gamma	84.339159
loop_
_atom_site_label
_atom_site_type_symbol
_atom_site_fract_x
_atom_site_fract_y
_atom_site_fract_z
O1	O	1.667383	0.159415	-0.121920
O2	O	1.301862	0.174603	-0.121897
O3	O	1.493493	0.001859	-0.121899
O4	O	1.475752	0.332159	-0.121918
O5	O	1.493490	0.001864	0.121700
O6	O	1.301859	0.174608	0.121702
O7	O	1.667381	0.159419	0.121678
Cu8	Cu	1.484620	0.167014	0.143933
Cu9	Cu	1.484623	0.167008	-0.144151
O10	O	1.475750	0.332164	0.121680
C11	C	1.255066	0.173490	-0.000095
C12	C	1.115632	0.170154	-0.000085
C13	C	1.035858	0.271863	-0.000113
C14	C	0.904847	0.268721	-0.000138
C15	C	0.933394	0.062152	-0.000114
C16	C	1.064404	0.065295	-0.000079
C17	C	1.019376	0.391124	-0.000133
C18	C	0.888364	0.387982	-0.000158
C19	C	1.492377	-0.040432	-0.000100
C20	C	1.489042	-0.166454	-0.000101
C21	C	1.482908	-0.397180	-0.000125
C22	C	1.486316	-0.268787	-0.000112
C23	C	1.714177	0.160532	-0.000127
C24	C	1.853611	0.163869	-0.000146
C25	C	1.476865	0.374455	-0.000122
C26	C	1.480201	0.500476	-0.000130
N27	N	1.484627	0.167017	0.346555
N28	N	1.484625	0.166996	-0.346774
C29	C	1.569503	0.090552	0.423206
C30	C	1.569500	0.090539	0.576543
C31	C	1.399740	0.243465	0.576564
C32	C	1.399739	0.243472	0.423230
C33	C	1.667516	0.002265	0.423195
C34	C	1.667513	0.002251	0.576532
H35	H	1.330615	0.305726	0.360822
H36	H	1.330625	0.305712	0.639010
H37	H	0.846505	0.432916	-0.102114
H38	H	1.646320	-0.084976	0.381582
H39	H	1.129352	-0.017527	-0.000036
H40	H	1.048574	0.437769	0.101816
C41	C	1.788983	0.039324	0.359987
C42	C	1.804568	0.149920	0.407617
C43	C	1.916457	0.184101	0.349448
H44	H	1.784948	0.038173	0.256074
H45	H	1.858354	-0.011356	0.392157
H46	H	1.735215	0.200587	0.375439
H47	H	1.808626	0.151100	0.511522
H48	H	1.985828	0.133421	0.381619
H49	H	1.912411	0.182944	0.245537
H50	H	1.927052	0.259139	0.381768
H51	H	1.637233	-0.080191	0.624086
C52	C	0.877700	-0.051657	-0.000420
C53	C	0.803376	-0.059513	-0.125781
C54	C	0.752068	-0.164345	-0.126124
H55	H	0.827080	-0.057287	0.084418
H56	H	0.943942	-0.111816	-0.000480
H57	H	0.737143	0.000629	-0.125708
H58	H	0.853967	-0.053903	-0.210639
H59	H	0.818310	-0.224504	-0.126184
H60	H	0.701454	-0.169966	-0.041282
H61	H	0.701642	-0.169693	-0.211186
H62	H	1.763969	0.021698	0.618141
H63	H	1.054925	0.429096	-0.105307
H64	H	0.842589	0.424026	0.105008
