data_functionalizedCrystal
_audit_creation_method	'MofGen! by Chris Wilmer'
_symmetry_space_group_name_H-M	'P1'
_symmetry_Int_Tables_number	1
_symmetry_cell_setting	triclinic
loop_
_symmetry_equiv_pos_as_xyz
  x,y,z
_cell_length_a	13.032721
_cell_length_b	12.759401
_cell_length_c	12.759393
_cell_angle_alpha	89.979062
_cell_angle_beta	82.850774
_cell_angle_gamma	82.794169
loop_
_atom_site_label
_atom_site_type_symbol
_atom_site_fract_x
_atom_site_fract_y
_atom_site_fract_z
Zn1	Zn	-0.415945	-1.553113	0.647098
Zn2	Zn	-0.590725	-1.530669	0.493722
Zn3	Zn	-0.416001	-1.377404	0.471441
Zn4	Zn	-0.590652	-1.355078	0.669350
O5	O	-0.503331	-1.454066	0.570403
O6	O	-0.439137	-1.697156	0.626765
O7	O	-0.567601	-1.510289	0.343752
O8	O	-0.269756	-1.419449	0.476105
O9	O	-0.567547	-1.680666	0.514080
O10	O	-0.269715	-1.548541	0.605160
O11	O	-0.439232	-1.397686	0.327382
O12	O	-0.439161	-1.227423	0.497681
O13	O	-0.567423	-1.381397	0.813412
O14	O	-0.567477	-1.211019	0.643084
O15	O	-0.439067	-1.526892	0.797064
O16	O	-0.736953	-1.488640	0.535656
O17	O	-0.736899	-1.359634	0.664689
C18	C	-0.503318	-1.181100	0.570380
C19	C	-0.503338	-1.064321	0.570399
C20	C	-0.774844	-1.419307	0.605028
C21	C	-0.890999	-1.404533	0.619876
C22	C	-0.503230	-1.454157	0.844423
C23	C	-0.503188	-1.454196	0.961194
C24	C	-0.942776	-1.461832	0.562700
C25	C	-1.062828	-1.446564	0.578045
C26	C	-0.230757	-1.488989	0.535665
C27	C	-0.114602	-1.503872	0.520862
C28	C	-0.503344	-1.728097	0.570426
C29	C	-0.503350	-1.844873	0.570436
C30	C	-0.570253	-1.000932	0.646017
C31	C	-0.570257	-0.891208	0.646038
C32	C	-0.436427	-0.908271	0.494813
C33	C	-0.436419	-1.017994	0.494797
C34	C	-0.503355	-1.454045	0.297438
C35	C	-0.503104	-1.454247	0.180630
C36	C	-0.436342	-1.529962	1.007544
C37	C	-0.436297	-1.529986	1.117263
C38	C	-0.569952	-1.378473	1.134273
C39	C	-0.569991	-1.378446	1.024556
H40	H	-0.898229	-1.522197	0.502394
H41	H	-0.935548	-1.344178	0.680190
O42	O	-1.116122	-1.374564	0.649925
C43	C	-1.224123	-1.375361	0.649259
H44	H	-1.238955	-1.407940	0.570092
H45	H	-1.255001	-1.427380	0.715545
C46	C	-1.262132	-1.221943	0.763163
C47	C	-1.280350	-1.261948	0.665926
H48	H	-1.296818	-1.151985	0.773449
H49	H	-1.189371	-1.221407	0.763616
H50	H	-1.287865	-1.265301	0.818391
H51	H	-1.254606	-1.218597	0.610699
H52	H	-1.353109	-1.262473	0.665464
O53	O	-0.635030	-1.304798	0.979700
C54	C	-0.693973	-1.237935	1.059147
H55	H	-0.697571	-1.280520	1.137828
H56	H	-0.655694	-1.163050	1.065925
C57	C	-0.800787	-1.156227	0.933854
C58	C	-0.805214	-1.208534	1.030490
H59	H	-0.869405	-1.138086	0.916176
H60	H	-0.761074	-1.201271	0.880327
H61	H	-0.768884	-1.093829	0.939514
H62	H	-0.837104	-1.270937	1.024824
H63	H	-0.844935	-1.163499	1.084015
H64	H	-0.381922	-1.069608	0.433219
H65	H	-0.381863	-1.591680	1.154995
H66	H	-0.624745	-0.839601	0.707616
O67	O	-1.061426	-1.575743	0.448785
C68	C	-0.998372	-1.523927	0.372890
H69	H	-1.031405	-1.437011	0.370521
H70	H	-0.915670	-1.530739	0.394873
C71	C	-0.956020	-1.682287	0.266398
C72	C	-0.996596	-1.575537	0.263483
H73	H	-0.954919	-1.714124	0.198912
H74	H	-0.998497	-1.717198	0.317532
H75	H	-0.887105	-1.687949	0.284722
H76	H	-1.065514	-1.569877	0.245173
H77	H	-0.954130	-1.540626	0.212343
H78	H	-0.381946	-0.870537	0.433260
H79	H	-0.624740	-1.038649	0.707579
O80	O	-0.371346	-1.603583	0.946144
C81	C	-0.312355	-1.670475	1.010589
H82	H	-0.308708	-1.627923	1.088330
H83	H	-0.350622	-1.745367	1.027149
C84	C	-0.205626	-1.752119	0.858117
C85	C	-0.201141	-1.699853	0.953597
H86	H	-0.137026	-1.770245	0.822961
H87	H	-0.245372	-1.707055	0.814698
H88	H	-0.237521	-1.814523	0.871930
H89	H	-0.169259	-1.637444	0.939782
H90	H	-0.161387	-1.744906	0.997012
H91	H	-0.624344	-1.316802	1.185875
