data_functionalizedCrystal
_audit_creation_method	'MofGen! by Chris Wilmer'
_symmetry_space_group_name_H-M	'P1'
_symmetry_Int_Tables_number	1
_symmetry_cell_setting	triclinic
loop_
_symmetry_equiv_pos_as_xyz
  x,y,z
_cell_length_a	27.435584
_cell_length_b	27.434948
_cell_length_c	27.431174
_cell_angle_alpha	60.005483
_cell_angle_beta	60.011353
_cell_angle_gamma	59.993028
loop_
_atom_site_label
_atom_site_type_symbol
_atom_site_fract_x
_atom_site_fract_y
_atom_site_fract_z
O1	O	0.067437	-0.712144	0.595551
O2	O	0.567437	-0.212144	1.095551
O3	O	0.025356	-0.554453	0.479848
O4	O	0.525356	-0.054453	0.979848
O5	O	0.125206	-0.654236	0.479781
O6	O	0.625206	-0.154236	0.979781
O7	O	-0.032412	-0.612361	0.595618
O8	O	0.467588	-0.112361	1.095618
O9	O	0.158328	-0.621117	0.512835
O10	O	0.658328	-0.121117	1.012835
O11	O	0.058479	-0.521333	0.512902
O12	O	0.558479	-0.021333	1.012902
O13	O	0.100560	-0.679025	0.628605
O14	O	0.600560	-0.179025	1.128605
Zn15	Zn	0.084778	-0.594921	0.576001
Zn16	Zn	0.584778	-0.094921	1.076001
Zn17	Zn	0.041138	-0.638557	0.532452
Zn18	Zn	0.541138	-0.138557	1.032452
O19	O	0.000710	-0.579241	0.628672
O20	O	0.500710	-0.079241	1.128672
N21	N	0.114563	-0.565144	0.605726
N22	N	0.614563	-0.065144	1.105726
N23	N	0.011358	-0.668338	0.502727
N24	N	0.511358	-0.168338	1.002727
C25	C	0.156385	-0.523520	0.904506
C26	C	0.656385	-0.023520	1.404506
C27	C	0.413419	-0.523497	0.647322
C28	C	0.913419	-0.023497	1.147322
C29	C	0.156253	-0.523488	0.647384
C30	C	0.656253	-0.023488	1.147384
C31	C	0.156238	-0.266354	0.647407
C32	C	0.656238	0.233646	1.147407
C33	C	0.197637	-0.390463	0.688753
C34	C	0.697637	0.109537	1.188753
C35	C	0.197646	-0.482126	0.688741
C36	C	0.697646	0.017874	1.188741
C37	C	0.220575	-0.459215	0.711654
C38	C	0.720575	0.040785	1.211654
C39	C	0.320555	-0.441991	0.659023
C40	C	0.820555	0.058009	1.159023
C41	C	0.383051	-0.462825	0.638179
C42	C	0.883051	0.037175	1.138179
C43	C	0.383069	-0.563942	0.676737
C44	C	0.883069	-0.063942	1.176737
C45	C	0.320575	-0.543107	0.697583
C46	C	0.820575	-0.043107	1.197583
C47	C	0.212704	-0.359206	0.627313
C48	C	0.712704	0.140794	1.127313
C49	C	0.191849	-0.296705	0.606496
C50	C	0.691849	0.203295	1.106496
C51	C	0.140866	-0.296722	0.708562
C52	C	0.640866	0.203278	1.208562
C53	C	0.161721	-0.359223	0.729379
C54	C	0.661721	0.140777	1.229379
C55	C	0.136200	-0.467030	0.703858
C56	C	0.636200	0.032970	1.203858
C57	C	0.115361	-0.487857	0.683021
C58	C	0.615361	0.012143	1.183021
C59	C	0.217408	-0.538877	0.631968
C60	C	0.717408	-0.038877	1.131968
C61	C	0.238249	-0.518050	0.652796
C62	C	0.738249	-0.018050	1.152796
C63	C	0.136259	-0.467047	0.811668
C64	C	0.636259	0.032953	1.311668
C65	C	0.115461	-0.487892	0.874167
C66	C	0.615461	0.012108	1.374167
C67	C	0.217537	-0.538923	0.874131
C68	C	0.717537	-0.038923	1.374131
C69	C	0.238333	-0.518080	0.811631
C70	C	0.738333	-0.018080	1.311631
C71	C	0.197693	-0.482140	0.780401
C72	C	0.697693	0.017860	1.280401
C73	C	0.289320	-0.482131	0.688723
C74	C	0.789320	0.017869	1.188723
C75	C	0.132699	-0.546027	0.973247
C76	C	0.632699	-0.046027	1.473247
C77	C	0.482158	-0.545613	0.624075
C78	C	0.982158	-0.045613	1.124075
C79	C	0.132521	-0.546006	0.624886
C80	C	0.632521	-0.046006	1.124886
C81	C	0.132917	-0.197607	0.625310
C82	C	0.632917	0.302393	1.125310
C83	C	-0.098217	-0.686189	0.484419
C84	C	0.401783	-0.186189	0.984419
C85	C	-0.006438	-0.686322	0.392891
C86	C	0.493562	-0.186322	0.892891
C87	C	-0.006621	-0.777944	0.484592
C88	C	0.493379	-0.277944	0.984592
C89	C	-0.006606	-0.686315	0.484649
C90	C	0.493394	-0.186315	0.984649
C91	C	-0.029470	-0.709193	0.461638
C92	C	0.470530	-0.209193	0.961638
N93	N	0.538410	-0.565162	0.605628
N94	N	1.038410	-0.065162	1.105628
O95	O	0.742647	-0.575135	0.458625
O96	O	1.242647	-0.075135	0.958625
O97	O	0.742821	-0.691181	0.616169
O98	O	1.242821	-0.191181	1.116169
O99	O	0.742757	-0.690917	0.516248
O100	O	1.242757	-0.190917	1.016248
O101	O	0.742711	-0.575399	0.558546
O102	O	1.242711	-0.075399	1.058546
O103	O	0.643472	-0.657878	0.549405
O104	O	1.143472	-0.157878	1.049405
O105	O	0.643536	-0.658142	0.649326
O106	O	1.143536	-0.158142	1.149326
O107	O	0.643362	-0.542096	0.491782
O108	O	1.143362	-0.042096	0.991782
Zn109	Zn	0.627685	-0.594873	0.575818
Zn110	Zn	1.127685	-0.094873	1.075818
Zn111	Zn	0.758498	-0.638404	0.532133
Zn112	Zn	1.258498	-0.138404	1.032133
O113	O	0.643426	-0.542360	0.591702
O114	O	1.143426	-0.042360	1.091702
N115	N	0.847774	-0.668115	0.502317
N116	N	1.347774	-0.168115	1.002317
N117	N	0.114542	-0.141354	0.605766
N118	N	0.614542	0.358646	1.105766
O119	O	-0.032397	0.062987	0.595660
O120	O	0.467603	0.562987	1.095660
O121	O	0.125155	0.062987	0.479633
O122	O	0.625155	0.562987	0.979633
O123	O	0.025219	0.062974	0.479910
O124	O	0.525219	0.562974	0.979910
O125	O	0.067539	0.063001	0.595383
O126	O	0.567539	0.563001	1.095383
O127	O	0.058343	-0.036320	0.513009
O128	O	0.558343	0.463680	1.013009
O129	O	0.158279	-0.036306	0.512732
O130	O	0.658279	0.463694	1.012732
O131	O	0.000728	-0.036306	0.628759
O132	O	0.500728	0.463694	1.128759
Zn133	Zn	0.084763	-0.052071	0.576000
Zn134	Zn	0.584763	0.447929	1.076000
Zn135	Zn	0.041120	0.078752	0.532392
Zn136	Zn	0.541120	0.578752	1.032392
O137	O	0.100664	-0.036292	0.628482
O138	O	0.600664	0.463708	1.128482
N139	N	0.011333	0.168036	0.502628
N140	N	0.511333	0.668036	1.002628
N141	N	0.114782	-0.565197	1.029501
N142	N	0.614782	-0.065197	1.529501
O143	O	0.104681	-0.712124	1.233827
O144	O	0.604681	-0.212124	1.733827
O145	O	-0.011334	-0.554523	1.233839
O146	O	0.488666	-0.054523	1.733839
O147	O	-0.011066	-0.654443	1.233797
O148	O	0.488934	-0.154443	1.733797
O149	O	0.104414	-0.612204	1.233869
O150	O	0.604414	-0.112204	1.733869
O151	O	0.022028	-0.621336	1.134509
O152	O	0.522028	-0.121336	1.634509
O153	O	0.021760	-0.521417	1.134551
O154	O	0.521760	-0.021417	1.634551
O155	O	0.137775	-0.679018	1.134539
O156	O	0.637775	-0.179018	1.634539
Zn157	Zn	0.085022	-0.594961	1.118780
Zn158	Zn	0.585022	-0.094961	1.618780
Zn159	Zn	0.041420	-0.638580	1.249597
Zn160	Zn	0.541420	-0.138580	1.749597
O161	O	0.137508	-0.579098	1.134580
O162	O	0.637508	-0.079098	1.634580
N163	N	0.011658	-0.668350	1.338876
N164	N	0.511658	-0.168350	1.838876
C165	C	0.037974	-0.518023	0.480435
C166	C	0.537974	-0.018023	0.980435
C167	C	0.161625	-0.641592	0.480351
C168	C	0.661625	-0.141592	0.980351
C169	C	0.087941	-0.715455	0.628017
C170	C	0.587941	-0.215455	1.128017
C171	C	-0.035710	-0.591885	0.628101
C172	C	0.464290	-0.091885	1.128101
C173	C	0.693199	-0.690642	0.652596
C174	C	1.193199	-0.190642	1.152596
C175	C	0.693122	-0.690315	0.528855
C176	C	1.193122	-0.190315	1.028855
C177	C	0.692981	-0.542634	0.455356
C178	C	1.192981	-0.042634	0.955356
C179	C	0.693062	-0.542961	0.579095
C180	C	1.193062	-0.042961	1.079095
C181	C	0.161524	0.013463	0.480164
C182	C	0.661524	0.513463	0.980164
C183	C	0.037807	0.013324	0.480547
C184	C	0.537807	0.513324	0.980547
C185	C	-0.035683	0.013341	0.628188
C186	C	0.464317	0.513341	1.128188
C187	C	0.088076	0.013357	0.627845
C188	C	0.588076	0.513357	1.127845
C189	C	-0.010764	-0.518114	1.184196
C190	C	0.489236	-0.018114	1.684196
C191	C	-0.010426	-0.641846	1.184125
C192	C	0.489574	-0.141846	1.684125
C193	C	0.137205	-0.715426	1.184182
C194	C	0.637205	-0.215426	1.684182
C195	C	0.136875	-0.591687	1.184231
C196	C	0.636875	-0.091687	1.684231
H197	H	0.103160	-0.437777	0.786243
H198	H	0.603160	0.062223	1.286243
O199	O	0.215589	-0.652147	0.436877
O200	O	0.715589	-0.152147	0.936877
C201	C	0.215650	-0.600800	0.385441
C202	C	0.715650	-0.100800	0.885441
H203	H	0.167781	-0.572363	0.386084
H204	H	0.667781	-0.072363	0.886084
H205	H	0.242200	-0.614700	0.343934
H206	H	0.742200	-0.114700	0.843934
H207	H	0.237018	-0.573817	0.384713
H208	H	0.737018	-0.073817	0.884713
O209	O	0.257097	-0.573840	0.904371
O210	O	0.757097	-0.073840	1.404371
C211	C	0.315779	-0.582672	0.863369
C212	C	0.815779	-0.082672	1.363369
H213	H	0.315643	-0.575686	0.818824
H214	H	0.815643	-0.075686	1.318824
H215	H	0.345473	-0.630072	0.881410
H216	H	0.845473	-0.130072	1.381410
H217	H	0.333675	-0.549402	0.856719
H218	H	0.833675	-0.049402	1.356719
O219	O	0.098664	-0.769449	0.671425
O220	O	0.598664	-0.269449	1.171425
C221	C	0.091998	-0.761660	0.721745
C222	C	0.591998	-0.261660	1.221745
H223	H	0.098514	-0.717911	0.707406
H224	H	0.598514	-0.217911	1.207406
H225	H	0.126730	-0.800367	0.742991
H226	H	0.626730	-0.300367	1.242991
H227	H	0.045359	-0.760403	0.755529
H228	H	0.545359	-0.260403	1.255529
O229	O	-0.089707	0.013456	0.671593
O230	O	0.410293	0.513456	1.171593
C231	C	-0.134722	0.064873	0.651171
C232	C	0.365278	0.564873	1.151171
H233	H	-0.114384	0.100808	0.613988
H234	H	0.385616	0.600808	1.113988
H235	H	-0.170348	0.082148	0.689651
H236	H	0.329652	0.582148	1.189651
H237	H	-0.155836	0.053240	0.633363
H238	H	0.344164	0.553240	1.133363
O239	O	-0.054162	-0.464093	1.184225
O240	O	0.445838	0.035907	1.684225
C241	C	-0.032670	-0.426944	1.184234
C242	C	0.467330	0.073056	1.684234
H243	H	0.005651	-0.455658	1.203042
H244	H	0.505651	0.044342	1.703042
H245	H	-0.070188	-0.398338	1.213063
H246	H	0.429812	0.101662	1.713063
H247	H	-0.016094	-0.396795	1.136606
H248	H	0.483906	0.103205	1.636606
H249	H	0.028987	-0.472723	0.444098
H250	H	0.528987	0.027277	0.944098
O251	O	0.180144	-0.580975	1.184353
O252	O	0.680144	-0.080975	1.684353
C253	C	0.196223	-0.621915	1.235769
C254	C	0.696223	-0.121915	1.735769
H255	H	0.157980	-0.639408	1.271702
H256	H	0.657980	-0.139408	1.771702
H257	H	0.205897	-0.598656	1.253043
H258	H	0.705897	-0.098656	1.753043
H259	H	0.237794	-0.660786	1.224140
H260	H	0.737794	-0.160786	1.724140
O261	O	-0.089740	-0.581133	0.671444
O262	O	0.410260	-0.081133	1.171444
C263	C	-0.126839	-0.522474	0.649852
C264	C	0.373161	-0.022474	1.149852
H265	H	-0.098087	-0.494128	0.611514
H266	H	0.401913	0.005872	1.111514
H267	H	-0.155440	-0.502481	0.687315
H268	H	0.344560	-0.002481	1.187315
H269	H	-0.156987	-0.523379	0.633269
H270	H	0.343013	-0.023379	1.133269
H271	H	-0.046689	-0.650868	1.184063
H272	H	0.453311	-0.150868	1.684063
H273	H	0.693242	-0.727072	0.697844
H274	H	1.193242	-0.227072	1.197844
O275	O	0.693114	-0.733536	0.517971
O276	O	1.193114	-0.233536	1.017971
C277	C	0.693078	-0.711793	0.459289
C278	C	1.193078	-0.211793	0.959289
H279	H	0.674241	-0.660940	0.443599
H280	H	1.174241	-0.160940	0.943599
H281	H	0.664262	-0.729988	0.458438
H282	H	1.164262	-0.229988	0.958438
H283	H	0.740700	-0.726867	0.428381
H284	H	1.240700	-0.226867	0.928381
O285	O	0.693019	-0.499724	0.589997
O286	O	1.193019	0.000276	1.089997
C287	C	0.693088	-0.521478	0.648667
C288	C	1.193088	-0.021478	1.148667
H289	H	0.674331	-0.559820	0.676913
H290	H	1.174331	-0.059820	1.176913
H291	H	0.664254	-0.484097	0.668772
H292	H	1.164254	0.015903	1.168772
H293	H	0.740731	-0.538108	0.647761
H294	H	1.240731	-0.038108	1.147761
O295	O	0.026992	0.013416	0.437219
O296	O	0.526992	0.513416	0.937219
C297	C	0.033615	0.064828	0.386864
C298	C	0.533615	0.564828	0.886864
H299	H	0.027155	0.100780	0.401138
H300	H	0.527155	0.600780	0.901138
H301	H	-0.001176	0.082078	0.365699
H302	H	0.498824	0.582078	0.865699
H303	H	0.080221	0.053198	0.353036
H304	H	0.580221	0.553198	0.853036
O305	O	0.180588	-0.769465	1.184202
O306	O	0.680588	-0.269465	1.684202
C307	C	0.159107	-0.806602	1.184159
C308	C	0.659107	-0.306602	1.684159
H309	H	0.108256	-0.790425	1.202947
H310	H	0.608256	-0.290425	1.702947
H311	H	0.177412	-0.854432	1.212978
H312	H	0.677412	-0.354432	1.712978
H313	H	0.174282	-0.804981	1.136517
H314	H	0.674282	-0.304981	1.636517
O315	O	0.692940	-0.499239	0.401340
O316	O	1.192940	0.000761	0.901340
C317	C	0.692911	-0.520728	0.364192
C318	C	1.192911	-0.020728	0.864192
H319	H	0.711754	-0.571581	0.380336
H320	H	1.211754	-0.071581	0.880336
H321	H	0.721689	-0.502398	0.316361
H322	H	1.221689	-0.002398	0.816361
H323	H	0.645269	-0.505580	0.365838
H324	H	1.145269	-0.005580	0.865838
H325	H	0.065433	-0.475593	0.899616
H326	H	0.565433	0.024407	1.399616
O327	O	0.055654	-0.473166	0.697784
O328	O	0.555654	0.026834	1.197784
C329	C	0.024283	-0.436985	0.733969
C330	C	0.524283	0.063015	1.233969
H331	H	0.054107	-0.444962	0.756677
H332	H	0.554107	0.055038	1.256677
H333	H	-0.017405	-0.448711	0.769339
H334	H	0.482595	0.051289	1.269339
H335	H	0.010778	-0.388026	0.705152
H336	H	0.510778	0.111974	1.205152
H337	H	0.097136	0.013366	0.664120
H338	H	0.597136	0.513366	1.164120
O339	O	0.298001	-0.532638	0.781194
O340	O	0.798001	-0.032638	1.281194
C341	C	0.313087	-0.480125	0.745057
C342	C	0.813087	0.019875	1.245057
H343	H	0.271890	-0.440852	0.735710
H344	H	0.771890	0.059148	1.235710
H345	H	0.349314	-0.485712	0.701101
H346	H	0.849314	0.014288	1.201101
H347	H	0.330256	-0.471349	0.769138
H348	H	0.830256	0.028651	1.269138
H349	H	0.206679	0.013739	0.443646
H350	H	0.706679	0.513739	0.943646
H351	H	0.250475	-0.568133	0.602707
H352	H	0.750475	-0.068133	1.102707
O353	O	0.297957	-0.532772	0.638066
O354	O	0.797957	-0.032772	1.138066
C355	C	0.329328	-0.568924	0.601851
C356	C	0.829328	-0.068924	1.101851
H357	H	0.299535	-0.591663	0.609841
H358	H	0.799535	-0.091663	1.109841
H359	H	0.371065	-0.604272	0.613527
H360	H	0.871065	-0.104272	1.113527
H361	H	0.342753	-0.540071	0.552902
H362	H	0.842753	-0.040071	1.052902
O363	O	0.096814	-0.432060	0.738706
O364	O	0.596814	0.067940	1.238706
C365	C	0.105784	-0.376489	0.710296
C366	C	0.605784	0.123511	1.210296
H367	H	0.153201	-0.381521	0.677262
H368	H	0.653201	0.118479	1.177262
H369	H	0.098847	-0.360487	0.745190
H370	H	0.598847	0.139513	1.245190
H371	H	0.072560	-0.342523	0.685465
H372	H	0.572560	0.157477	1.185465
H373	H	0.295144	-0.575796	0.721768
H374	H	0.795144	-0.075796	1.221768
H375	H	0.408519	-0.613593	0.683941
H376	H	0.908519	-0.113593	1.183941
H377	H	0.408481	-0.430137	0.613993
H378	H	0.908481	0.069863	1.113993
H379	H	0.241946	-0.384640	0.594232
H380	H	0.741946	0.115360	1.094232
O381	O	0.290261	-0.382736	0.650313
O382	O	0.790261	0.117264	1.150313
C383	C	0.305494	-0.350491	0.588605
C384	C	0.805494	0.149509	1.088605
H385	H	0.350865	-0.377801	0.563989
H386	H	0.850865	0.122199	1.063989
H387	H	0.307630	-0.306433	0.580348
H388	H	0.807630	0.193567	1.080348
H389	H	0.270306	-0.341164	0.571581
H390	H	0.770306	0.158836	1.071581
O391	O	0.206456	-0.266403	0.546797
O392	O	0.706456	0.233597	1.046797
C393	C	0.185055	-0.281656	0.520848
C394	C	0.685055	0.218344	1.020848
H395	H	0.178949	-0.327039	0.550474
H396	H	0.678949	0.172961	1.050474
H397	H	0.218531	-0.283784	0.474870
H398	H	0.718531	0.216216	0.974870
H399	H	0.140381	-0.246482	0.516214
H400	H	0.640381	0.253518	1.016214
H401	H	0.149444	-0.384673	0.779411
H402	H	0.649444	0.115327	1.279411
O403	O	0.105967	-0.266465	0.748105
O404	O	0.605967	0.233535	1.248105
C405	C	0.097164	-0.307455	0.806800
C406	C	0.597164	0.192545	1.306800
H407	H	0.104151	-0.352008	0.806688
H408	H	0.604151	0.147992	1.306688
H409	H	0.049775	-0.289404	0.836487
H410	H	0.549775	0.210596	1.336487
H411	H	0.130446	-0.314100	0.824686
H412	H	0.630446	0.185900	1.324686
