data_functionalizedCrystal
_audit_creation_method	'MofGen! by Chris Wilmer'
_symmetry_space_group_name_H-M	'P1'
_symmetry_Int_Tables_number	1
_symmetry_cell_setting	triclinic
loop_
_symmetry_equiv_pos_as_xyz
  x,y,z
_cell_length_a	16.120530
_cell_length_b	21.295417
_cell_length_c	21.295411
_cell_angle_alpha	89.971282
_cell_angle_beta	87.086784
_cell_angle_gamma	87.125778
loop_
_atom_site_label
_atom_site_type_symbol
_atom_site_fract_x
_atom_site_fract_y
_atom_site_fract_z
Zn1	Zn	1.274467	-0.299502	-0.404643
Zn2	Zn	1.774467	0.200498	0.095357
Zn3	Zn	1.274358	-0.404762	-0.299364
Zn4	Zn	1.774358	0.095238	0.200636
Zn5	Zn	1.135059	-0.294170	-0.294058
Zn6	Zn	1.635059	0.205830	0.205942
Zn7	Zn	1.134999	-0.399390	-0.399268
Zn8	Zn	1.634999	0.100610	0.100732
O9	O	1.204721	-0.349456	-0.349333
O10	O	1.704721	0.150544	0.150667
O11	O	1.391117	-0.317945	-0.395148
O12	O	1.891117	0.182055	0.104852
O13	O	1.255859	-0.390109	-0.210570
O14	O	1.755859	0.109891	0.289430
O15	O	1.153623	-0.206791	-0.308756
O16	O	1.653623	0.293209	0.191244
O17	O	1.391037	-0.395279	-0.317801
O18	O	1.891037	0.104721	0.182199
O19	O	1.256046	-0.210708	-0.390003
O20	O	1.756046	0.289292	0.109997
O21	O	1.153517	-0.308858	-0.206672
O22	O	1.653517	0.191142	0.293328
O23	O	1.018387	-0.303648	-0.303543
O24	O	1.518387	0.196352	0.196457
O25	O	1.153521	-0.386122	-0.488071
O26	O	1.653521	0.113878	0.011929
O27	O	1.018342	-0.380952	-0.380841
O28	O	1.518342	0.119048	0.119159
O29	O	1.255987	-0.312735	-0.492020
O30	O	1.755987	0.187265	0.007980
O31	O	1.255800	-0.492136	-0.312588
O32	O	1.755800	0.007864	0.187412
O33	O	1.153414	-0.488189	-0.385986
O34	O	1.653414	0.011811	0.114014
C35	C	0.988115	-0.341139	-0.341033
C36	C	1.488115	0.158861	0.158967
C37	C	0.895450	-0.337596	-0.337497
C38	C	1.395450	0.162404	0.162503
C39	C	1.204612	-0.513003	-0.349294
C40	C	1.704612	-0.013003	0.150706
C41	C	1.204641	-0.582973	-0.349302
C42	C	1.704641	-0.082973	0.150698
C43	C	0.725790	-0.331113	-0.331047
C44	C	1.225790	0.168887	0.168953
C45	C	0.684493	-0.367845	-0.367665
C46	C	1.184493	0.132155	0.132335
C47	C	0.590088	-0.364238	-0.364076
C48	C	1.090088	0.135762	0.135924
C49	C	0.820203	-0.334719	-0.334635
C50	C	1.320203	0.165281	0.165365
C51	C	1.258001	-0.617876	-0.311126
C52	C	1.758001	-0.117876	0.188874
C53	C	1.258040	-0.683620	-0.311142
C54	C	1.758040	-0.183620	0.188858
C55	C	1.204704	-0.714458	-0.349326
C56	C	1.704704	-0.214458	0.150674
C57	C	1.151341	-0.679547	-0.387509
C58	C	1.651341	-0.179547	0.112491
C59	C	1.151309	-0.613804	-0.387497
C60	C	1.651309	-0.113804	0.112503
N61	N	1.131773	-0.814927	-0.351330
N62	N	1.631773	-0.314927	0.148670
N63	N	1.131806	-0.877380	-0.351338
N64	N	1.631806	-0.377380	0.148662
C65	C	1.204798	-0.912536	-0.349365
C66	C	1.704798	-0.412536	0.150635
N67	N	1.277758	-0.882880	-0.347372
N68	N	1.777758	-0.382880	0.152628
N69	N	1.277724	-0.820421	-0.347361
N70	N	1.777724	-0.320421	0.152639
C71	C	1.204733	-0.785744	-0.349343
C72	C	1.704733	-0.285744	0.150657
C73	C	1.258204	-1.018726	-0.311205
C74	C	1.758204	-0.518726	0.188795
C75	C	1.258245	-1.084471	-0.311225
C76	C	1.758245	-0.584471	0.188775
C77	C	1.151538	-1.080397	-0.387588
C78	C	1.651538	-0.580397	0.112412
C79	C	1.151505	-1.014653	-0.387572
C80	C	1.651505	-0.514653	0.112428
C81	C	1.204837	-0.983822	-0.349377
C82	C	1.704837	-0.483822	0.150623
C83	C	1.422173	-0.357806	-0.357666
C84	C	1.922173	0.142194	0.142334
C85	C	1.514838	-0.361364	-0.361217
C86	C	2.014838	0.138636	0.138783
C87	C	1.204759	-0.349424	-0.513525
C88	C	1.704759	0.150576	-0.013525
C89	C	1.204776	-0.349410	-0.583494
C90	C	1.704776	0.150590	-0.083494
C91	C	1.204853	-0.185271	-0.349387
C92	C	1.704853	0.314729	0.150613
C93	C	1.204910	-0.115305	-0.349410
C94	C	1.704910	0.384695	0.150590
C95	C	1.258158	-0.391591	-1.084986
C96	C	1.758158	0.108409	-0.584986
C97	C	1.258143	-0.391611	-1.019243
C98	C	1.758143	0.108389	-0.519243
C99	C	1.204854	-0.349315	-0.984337
C100	C	1.704854	0.150685	-0.484337
C101	C	1.151562	-0.307008	-1.015178
C102	C	1.651562	0.192992	-0.515178
C103	C	1.151572	-0.306994	-1.080919
C104	C	1.651572	0.193006	-0.580919
N105	N	1.198486	-0.293992	-0.880888
N106	N	1.698486	0.206008	-0.380888
N107	N	1.198481	-0.294007	-0.818436
N108	N	1.698481	0.205993	-0.318436
C109	C	1.204818	-0.349356	-0.786260
C110	C	1.704818	0.150644	-0.286260
N111	N	1.211176	-0.404691	-0.818896
N112	N	1.711176	0.095309	-0.318896
N113	N	1.211186	-0.404675	-0.881354
N114	N	1.711186	0.095325	-0.381354
C115	C	1.204837	-0.349326	-0.913050
C116	C	1.704837	0.150674	-0.413050
C117	C	1.258087	-0.391685	-0.684141
C118	C	1.758087	0.108315	-0.184141
C119	C	1.258066	-0.391705	-0.618396
C120	C	1.758066	0.108295	-0.118396
C121	C	1.151489	-0.307097	-0.614332
C122	C	1.651489	0.192903	-0.114332
C123	C	1.151505	-0.307082	-0.680075
C124	C	1.651505	0.192918	-0.180075
C125	C	1.204809	-0.349375	-0.714976
C126	C	1.704809	0.150625	-0.214976
C127	C	1.204731	-0.349444	-0.185782
C128	C	1.704731	0.150556	0.314218
C129	C	1.204876	-0.349287	-0.115820
C130	C	1.704876	0.150713	0.384180
H131	H	0.720038	-0.402001	-0.401711
H132	H	1.220038	0.097999	0.098289
C133	C	1.092950	-0.260479	-0.976779
C134	C	1.592950	0.239521	-0.476779
N135	N	1.048802	-0.225431	-0.947858
N136	N	1.548802	0.274569	-0.447858
H137	H	0.690247	-0.296959	-0.297004
H138	H	1.190247	0.203041	0.202996
H139	H	1.108183	-0.272543	-1.106024
H140	H	1.608183	0.227457	-0.606024
C141	C	1.092668	-0.713470	-0.429509
C142	C	1.592668	-0.213470	0.070491
N143	N	1.048475	-0.739020	-0.461145
N144	N	1.548475	-0.239020	0.038855
H145	H	1.301450	-0.426160	-0.593292
H146	H	1.801450	0.073840	-0.093292
C147	C	1.316713	-0.438214	-0.722533
C148	C	1.816713	0.061786	-0.222533
N149	N	1.360869	-0.473261	-0.751448
N150	N	1.860869	0.026739	-0.251448
H151	H	1.108098	-0.272661	-0.585912
H152	H	1.608098	0.227339	-0.085912
C153	C	1.092901	-0.260536	-0.713994
C154	C	1.592901	0.239464	-0.213994
N155	N	1.048758	-0.225474	-0.739541
N156	N	1.548758	0.274526	-0.239541
C157	C	1.316882	-0.984810	-0.269200
C158	C	1.816882	-0.484810	0.230800
N159	N	1.361082	-0.959266	-0.237563
N160	N	1.861082	-0.459266	0.262437
C161	C	1.316659	-0.583965	-0.269103
C162	C	1.816659	-0.083965	0.230897
N163	N	1.360837	-0.558422	-0.237448
N164	N	1.860837	-0.058422	0.262552
C165	C	1.316738	-0.722020	-0.269141
C166	C	1.816738	-0.222020	0.230859
N167	N	1.360947	-0.750942	-0.237504
N168	N	1.860947	-0.250942	0.262496
C169	C	1.092821	-0.976259	-0.429582
C170	C	1.592821	-0.476259	0.070418
N171	N	1.048627	-0.947341	-0.461234
N172	N	1.548627	-0.447341	0.038766
H173	H	1.107856	-0.585385	-0.418584
H174	H	1.607856	-0.085385	0.081416
C175	C	1.316948	-1.122865	-0.269226
C176	C	1.816948	-0.622865	0.230774
N177	N	1.361162	-1.151783	-0.237590
N178	N	1.861162	-0.651783	0.262410
H179	H	1.108115	-1.105505	-0.418681
H180	H	1.608115	-0.605505	0.081319
H181	H	1.301560	-0.426031	-1.113398
H182	H	1.801560	0.073969	-0.613398
C183	C	1.316759	-0.438151	-0.985319
C184	C	1.816759	0.061849	-0.485319
N185	N	1.360908	-0.473206	-0.959769
N186	N	1.860908	0.026794	-0.459769
