data_functionalizedCrystal
_audit_creation_method	'MofGen! by Chris Wilmer'
_symmetry_space_group_name_H-M	'P1'
_symmetry_Int_Tables_number	1
_symmetry_cell_setting	triclinic
loop_
_symmetry_equiv_pos_as_xyz
  x,y,z
_cell_length_a	8.559649
_cell_length_b	10.654562
_cell_length_c	9.130313
_cell_angle_alpha	89.996930
_cell_angle_beta	90.000859
_cell_angle_gamma	77.134384
loop_
_atom_site_label
_atom_site_type_symbol
_atom_site_fract_x
_atom_site_fract_y
_atom_site_fract_z
O1	O	0.224273	1.644658	-0.121887
O2	O	0.245610	1.276977	-0.121868
O3	O	0.002701	1.493211	-0.121877
O4	O	0.467183	1.428425	-0.121877
O5	O	0.002707	1.493208	0.121721
O6	O	0.245617	1.276974	0.121731
O7	O	0.224279	1.644655	0.121712
Cu8	Cu	0.234949	1.460814	0.143964
Cu9	Cu	0.234941	1.460818	-0.144120
O10	O	0.467189	1.428422	0.121722
C11	C	0.244043	1.230340	-0.000066
C12	C	0.239343	1.091383	-0.000059
C13	C	0.237154	1.026078	0.132715
C14	C	0.232750	0.895510	0.132691
C15	C	0.232731	0.895565	-0.132894
C16	C	0.237123	1.026132	-0.132868
C17	C	0.237172	1.026044	0.286049
C18	C	0.232768	0.895476	0.286024
C19	C	-0.056771	1.498119	-0.000081
C20	C	-0.233989	1.512733	-0.000090
C21	C	0.526661	1.423513	-0.000078
C22	C	0.703879	1.408899	-0.000079
C23	C	0.225847	1.691292	-0.000093
C24	C	0.230547	1.830249	-0.000109
N25	N	0.234953	1.460821	0.346587
N26	N	0.234924	1.460822	-0.346742
C27	C	0.127430	1.556587	0.423234
C28	C	0.127411	1.556586	0.576571
C29	C	0.342453	1.365047	0.576599
C30	C	0.342463	1.365044	0.423265
C31	C	0.003281	1.667174	0.423220
C32	C	0.003262	1.667173	0.576556
H33	H	0.116364	0.877912	0.333604
C34	C	0.460705	1.259696	0.660960
N35	N	0.549774	1.180343	0.724499
C36	C	-0.184828	1.273696	-0.000080
N37	N	-0.100992	1.171859	-0.000085
H38	H	0.343079	0.837795	0.344889
H39	H	0.230925	0.842421	-0.241022
C40	C	-0.345289	1.647943	-0.000089
N41	N	-0.429122	1.749782	-0.000090
C42	C	-0.153350	1.642114	0.640800
N43	N	-0.271303	1.623231	0.689190
C44	C	0.460870	1.259778	0.338958
N45	N	0.550108	1.180521	0.275458
H46	H	0.030615	1.760858	0.618168
H47	H	-0.119402	1.658404	0.381601
H48	H	0.126868	1.083697	0.344932
C49	C	0.239492	1.097972	-0.278929
N50	N	0.241270	1.152082	-0.388949
C51	C	0.394425	1.049760	0.350340
N52	N	0.512869	1.067624	0.398765
H53	H	0.042161	1.754341	0.375656
