data_functionalizedCrystal
_audit_creation_method	'MofGen! by Chris Wilmer'
_symmetry_space_group_name_H-M	'P1'
_symmetry_Int_Tables_number	1
_symmetry_cell_setting	triclinic
loop_
_symmetry_equiv_pos_as_xyz
  x,y,z
_cell_length_a	14.908783
_cell_length_b	14.908579
_cell_length_c	14.908308
_cell_angle_alpha	96.363296
_cell_angle_beta	90.211273
_cell_angle_gamma	83.206933
loop_
_atom_site_label
_atom_site_type_symbol
_atom_site_fract_x
_atom_site_fract_y
_atom_site_fract_z
Zn1	Zn	1.325971	0.317646	0.605045
Zn2	Zn	1.325865	0.460297	0.462416
Zn3	Zn	1.184345	0.316663	0.445963
Zn4	Zn	1.165832	0.477688	0.604980
O5	O	1.250503	0.393074	0.529601
O6	O	1.452203	0.329702	0.593037
O7	O	1.314795	0.433555	0.333993
O8	O	1.210924	0.189704	0.460207
O9	O	1.452125	0.434508	0.488249
O10	O	1.314977	0.190426	0.577083
O11	O	1.210821	0.328027	0.321905
O12	O	1.055643	0.344890	0.460144
O13	O	1.179371	0.464147	0.731228
O14	O	1.042042	0.463194	0.576973
O15	O	1.297025	0.346565	0.731276
O16	O	1.296844	0.589694	0.488186
O17	O	1.179268	0.602470	0.592927
C18	C	1.016108	0.405823	0.516767
C19	C	0.915830	0.411301	0.511299
C20	C	0.727456	0.312630	0.610326
C21	C	0.633236	0.317773	0.605191
C22	C	0.633169	0.426726	0.495890
C23	C	0.727389	0.421583	0.501025
C24	C	0.774529	0.364533	0.558246
C25	C	0.868750	0.359395	0.563385
C26	C	0.868682	0.468343	0.454080
C27	C	0.774462	0.473487	0.448945
C28	C	1.236059	0.629035	0.542356
C29	C	1.229961	0.729977	0.547847
C30	C	1.341046	0.906293	0.449198
C31	C	1.335319	1.001137	0.454355
C32	C	1.212785	1.014512	0.563322
C33	C	1.218512	0.919668	0.558165
C34	C	1.282644	0.865561	0.501100
C35	C	1.288366	0.770715	0.495939
C36	C	1.165837	0.784092	0.604910
C37	C	1.160110	0.878936	0.610067
C38	C	1.485814	0.380275	0.542485
C39	C	1.586089	0.374821	0.547976
C40	C	1.236145	0.407406	0.764900
C41	C	1.230027	0.413513	0.865171
C42	C	1.265020	1.156192	0.516828
C43	C	1.271190	1.055250	0.511414
C44	C	1.264861	0.378729	0.295216
C45	C	1.271170	0.372356	0.194942
C46	C	1.341041	0.302531	1.053640
C47	C	1.335295	0.308266	1.147853
C48	C	1.212785	0.430714	1.147811
C49	C	1.218531	0.424979	1.053598
C50	C	1.282662	0.360886	1.006516
C51	C	1.288412	0.355155	0.912301
C52	C	1.165898	0.477599	0.912261
C53	C	1.160152	0.483334	1.006474
H54	H	0.736068	0.519931	0.402355
Cl55	Cl	0.573893	0.498427	0.423951
H56	H	1.107937	0.535515	1.044821
H57	H	0.594913	0.275505	0.647598
H58	H	1.118364	0.525118	0.873883
H59	H	0.907018	0.510614	0.411680
H60	H	1.382878	1.034297	0.412093
Cl61	Cl	1.368984	0.702697	0.424198
H62	H	1.160573	0.482895	1.186162
H63	H	1.160578	1.058581	0.609787
Cl64	Cl	1.079495	0.946963	0.681804
H65	H	1.118279	0.750917	0.647170
Cl66	Cl	0.928011	0.287679	0.635320
H67	H	0.765838	0.266182	0.656921
H68	H	1.393258	0.862239	0.402727
H69	H	1.340631	0.302969	0.873968
H70	H	1.382831	0.260745	1.186217
Cl71	Cl	1.421669	0.221969	0.994448
