data_functionalizedCrystal
_audit_creation_method	'MofGen! by Chris Wilmer'
_symmetry_space_group_name_H-M	'P1'
_symmetry_Int_Tables_number	1
_symmetry_cell_setting	triclinic
loop_
_symmetry_equiv_pos_as_xyz
  x,y,z
_cell_length_a	15.944545
_cell_length_b	15.944551
_cell_length_c	13.330367
_cell_angle_alpha	89.994404
_cell_angle_beta	89.995231
_cell_angle_gamma	83.497455
loop_
_atom_site_label
_atom_site_type_symbol
_atom_site_fract_x
_atom_site_fract_y
_atom_site_fract_z
O1	O	1.114531	0.108306	-0.083361
O2	O	1.614531	0.608306	0.416639
O3	O	0.869981	0.121668	-0.083377
O4	O	1.369981	0.621668	0.416623
O5	O	0.998934	-0.007288	-0.083360
O6	O	1.498934	0.492712	0.416640
O7	O	0.985578	0.237262	-0.083378
O8	O	1.485578	0.737262	0.416622
O9	O	0.998915	-0.007291	0.083488
O10	O	1.498915	0.492709	0.583488
O11	O	0.869962	0.121665	0.083470
O12	O	1.369962	0.621665	0.583470
O13	O	1.114513	0.108304	0.083486
O14	O	1.614513	0.608304	0.583486
Cu15	Cu	0.992236	0.114984	0.098713
Cu16	Cu	1.492236	0.614984	0.598713
Cu17	Cu	0.992258	0.114988	-0.098603
Cu18	Cu	1.492258	0.614988	0.401397
O19	O	0.985559	0.237259	0.083469
O20	O	1.485559	0.737259	0.583469
C21	C	0.838677	0.121113	0.000044
C22	C	1.338677	0.621113	0.500044
C23	C	0.745431	0.119453	0.000038
C24	C	1.245431	0.619453	0.500038
C25	C	0.474798	0.034559	0.000055
C26	C	0.974798	0.534559	0.500055
C27	C	0.525371	0.075487	0.082319
C28	C	1.025371	0.575487	0.582319
C29	C	0.409787	0.113532	0.000056
C30	C	0.909787	0.613532	0.500056
C31	C	0.525370	0.075511	-0.082179
C32	C	1.025370	0.575511	0.417821
C33	C	0.574701	0.116437	0.000046
C34	C	1.074701	0.616437	0.500046
C35	C	0.459131	0.154438	0.082387
C36	C	0.959131	0.654438	0.582387
C37	C	0.459127	0.154451	-0.082185
C38	C	0.959127	0.654451	0.417815
C39	C	0.509667	0.195436	0.000099
C40	C	1.009667	0.695436	0.500099
C41	C	0.314785	0.111856	0.000063
C42	C	0.814785	0.611856	0.500063
C43	C	0.669700	0.118119	0.000046
C44	C	1.169700	0.618119	0.500046
C45	C	0.998370	-0.038583	0.000064
C46	C	1.498370	0.461417	0.500064
C47	C	0.996708	-0.131829	0.000065
C48	C	1.496708	0.368171	0.500065
C49	C	0.912803	-0.346684	0.000045
C50	C	1.412803	0.153316	0.500045
C51	C	0.951757	-0.407703	0.082314
C52	C	1.451757	0.092297	0.582314
C53	C	0.993701	-0.302555	0.000057
C54	C	1.493701	0.197445	0.500057
C55	C	0.951794	-0.407684	-0.082185
C56	C	1.451794	0.092316	0.417815
C57	C	0.990790	-0.467468	0.000045
C58	C	1.490790	0.032532	0.500045
C59	C	1.032676	-0.362346	0.082393
C60	C	1.532676	0.137654	0.582393
C61	C	1.032702	-0.362321	-0.082179
C62	C	1.532702	0.137679	0.417821
C63	C	1.071715	-0.423322	0.000109
C64	C	1.571715	0.076678	0.500109
C65	C	0.995375	-0.207553	0.000064
C66	C	1.495375	0.292447	0.500064
C67	C	0.989122	-0.562469	0.000044
C68	C	1.489122	-0.062469	0.500044
C69	C	1.145816	0.108859	0.000063
C70	C	1.645816	0.608859	0.500063
C71	C	1.239062	0.110519	0.000062
C72	C	1.739062	0.610519	0.500062
C73	C	0.986123	0.268555	0.000043
C74	C	1.486123	0.768555	0.500043
C75	C	0.987785	0.361801	0.000036
C76	C	1.487785	0.861801	0.500036
N77	N	0.992226	0.114981	0.237494
N78	N	1.492226	0.614981	0.737494
N79	N	0.992274	0.114984	-0.237385
N80	N	1.492274	0.614984	0.262615
C81	C	0.935155	0.172067	0.710109
C82	C	1.435155	0.672067	1.210109
C83	C	1.049383	0.057902	0.710093
C84	C	1.549383	0.557902	1.210093
C85	C	1.049374	0.057899	0.605074
C86	C	1.549374	0.557899	1.105074
C87	C	0.992255	0.114982	0.552569
C88	C	1.492255	0.614982	1.052569
C89	C	0.935145	0.172068	0.605081
C90	C	1.435145	0.672068	1.105081
C91	C	1.106488	0.000820	0.552554
C92	C	1.606488	0.500820	1.052554
C93	C	1.106482	0.000816	0.447529
C94	C	1.606482	0.500816	0.947529
C95	C	1.049358	0.057896	0.395022
C96	C	1.549358	0.557896	0.895022
C97	C	0.992245	0.114983	0.447541
C98	C	1.492245	0.614983	0.947541
C99	C	0.935126	0.172066	0.395035
C100	C	1.435126	0.672066	0.895035
C101	C	0.878009	0.229150	0.447552
C102	C	1.378009	0.729150	0.947552
C103	C	0.878021	0.229147	0.552573
C104	C	1.378021	0.729147	1.052573
C105	C	1.049345	0.057898	0.290000
C106	C	1.549345	0.557898	0.790000
C107	C	0.935117	0.172067	0.290007
C108	C	1.435117	0.672067	0.790007
H109	H	0.430189	0.187775	-0.151740
H110	H	0.930189	0.687775	0.348260
H111	H	0.831519	0.275624	0.595339
H112	H	1.331519	0.775624	1.095339
H113	H	0.525159	0.263501	0.000142
H114	H	1.025159	0.763501	0.500142
Cl115	Cl	0.863301	0.243828	0.224008
Cl116	Cl	1.363301	0.743828	0.724008
H117	H	1.066856	-0.342358	0.152021
H118	H	1.566856	0.157642	0.652021
H119	H	1.138922	-0.456483	0.000160
H120	H	1.638922	0.043517	0.500160
Cl121	Cl	0.806210	0.300914	0.381533
Cl122	Cl	1.306210	0.800914	0.881533
H123	H	0.917533	-0.427812	0.151860
H124	H	1.417533	0.072188	0.651860
H125	H	0.554295	0.042146	-0.151722
H126	H	1.054295	0.542146	0.348278
Cl127	Cl	0.809133	-0.295257	0.000158
Cl128	Cl	1.309133	0.204743	0.500158
H129	H	1.066897	-0.342190	-0.151730
H130	H	1.566897	0.157810	0.348270
Cl131	Cl	0.414645	0.205891	0.189881
Cl132	Cl	0.914645	0.705891	0.689881
Cl133	Cl	1.121193	-0.013852	0.776097
Cl134	Cl	1.621193	0.486148	1.276097
H135	H	0.917575	-0.427759	-0.151741
H136	H	1.417575	0.072241	0.348259
Cl137	Cl	0.863350	0.243823	0.776125
Cl138	Cl	1.363350	0.743823	1.276125
Cl139	Cl	0.450626	-0.070444	0.000183
Cl140	Cl	0.950626	0.429556	0.500183
H141	H	1.152997	-0.045651	0.595308
H142	H	1.652997	0.454349	1.095308
Cl143	Cl	1.178281	-0.070947	0.381515
Cl144	Cl	1.678281	0.429053	0.881515
H145	H	0.554294	0.042133	0.151872
H146	H	1.054294	0.542133	0.651872
Cl147	Cl	1.121149	-0.013854	0.223985
Cl148	Cl	1.621149	0.486146	0.723985
