data_functionalizedCrystal
_audit_creation_method	'MofGen! by Chris Wilmer'
_symmetry_space_group_name_H-M	'P1'
_symmetry_Int_Tables_number	1
_symmetry_cell_setting	triclinic
loop_
_symmetry_equiv_pos_as_xyz
  x,y,z
_cell_length_a	18.101395
_cell_length_b	18.101398
_cell_length_c	18.215399
_cell_angle_alpha	89.989569
_cell_angle_beta	89.973573
_cell_angle_gamma	90.026661
loop_
_atom_site_label
_atom_site_type_symbol
_atom_site_fract_x
_atom_site_fract_y
_atom_site_fract_z
Zn1	Zn	-0.294925	1.132126	-0.415939
Zn2	Zn	-0.044925	1.382126	-0.165939
Zn3	Zn	0.205075	1.632126	0.084061
Zn4	Zn	0.455075	1.882126	0.334061
Zn5	Zn	-0.418771	1.132020	-0.292876
Zn6	Zn	-0.168771	1.382020	-0.042876
Zn7	Zn	0.081229	1.632020	0.207124
Zn8	Zn	0.331229	1.882020	0.457124
Zn9	Zn	-0.294939	1.008283	-0.292907
Zn10	Zn	-0.044939	1.258283	-0.042907
Zn11	Zn	0.205061	1.508283	0.207093
Zn12	Zn	0.455061	1.758283	0.457093
Zn13	Zn	-0.418720	1.008236	-0.415921
Zn14	Zn	-0.168720	1.258236	-0.165921
Zn15	Zn	0.081280	1.508236	0.084079
Zn16	Zn	0.331280	1.758236	0.334079
O17	O	-0.356839	1.070166	-0.354411
O18	O	-0.106839	1.320166	-0.104411
O19	O	0.143161	1.570166	0.145589
O20	O	0.393161	1.820166	0.395589
O21	O	-0.311370	1.235745	-0.399609
O22	O	-0.061370	1.485745	-0.149609
O23	O	0.188630	1.735745	0.100391
O24	O	0.438630	1.985745	0.350391
O25	O	-0.402372	1.115582	-0.189896
O26	O	-0.152372	1.365582	0.060104
O27	O	0.097628	1.615582	0.310104
O28	O	0.347628	1.865582	0.560104
O29	O	-0.191304	1.024776	-0.309247
O30	O	0.058696	1.274776	-0.059247
O31	O	0.308696	1.524776	0.190753
O32	O	0.558696	1.774776	0.440753
O33	O	-0.402359	1.235667	-0.309195
O34	O	-0.152359	1.485667	-0.059195
O35	O	0.097641	1.735667	0.190805
O36	O	0.347641	1.985667	0.440805
O37	O	-0.191294	1.115762	-0.399639
O38	O	0.058706	1.365762	-0.149639
O39	O	0.308706	1.615762	0.100361
O40	O	0.558706	1.865762	0.350361
O41	O	-0.311393	1.024673	-0.189918
O42	O	-0.061393	1.274673	0.060082
O43	O	0.188607	1.524673	0.310082
O44	O	0.438607	1.774673	0.560082
O45	O	-0.311343	0.904644	-0.309230
O46	O	-0.061343	1.154644	-0.059230
O47	O	0.188657	1.404644	0.190770
O48	O	0.438657	1.654644	0.440770
O49	O	-0.402271	1.024694	-0.518908
O50	O	-0.152271	1.274694	-0.268908
O51	O	0.097729	1.524694	-0.018908
O52	O	0.347729	1.774694	0.231092
O53	O	-0.402284	0.904609	-0.399608
O54	O	-0.152284	1.154609	-0.149608
O55	O	0.097716	1.404609	0.100392
O56	O	0.347716	1.654609	0.350392
O57	O	-0.311319	1.115716	-0.518921
O58	O	-0.061319	1.365716	-0.268921
O59	O	0.188681	1.615716	-0.018921
O60	O	0.438681	1.865716	0.231079
O61	O	-0.522398	1.115536	-0.309178
O62	O	-0.272398	1.365536	-0.059178
O63	O	-0.022398	1.615536	0.190822
O64	O	0.227602	1.865536	0.440822
O65	O	-0.522359	1.024592	-0.399579
O66	O	-0.272359	1.274592	-0.149579
O67	O	-0.022359	1.524592	0.100421
O68	O	0.227641	1.774592	0.350421
C69	C	-0.356810	0.877756	-0.354421
C70	C	-0.106810	1.127756	-0.104421
C71	C	0.143190	1.377756	0.145579
C72	C	0.393190	1.627756	0.395579
C73	C	-0.356815	0.795442	-0.354443
C74	C	-0.106815	1.045442	-0.104443
C75	C	0.143185	1.295442	0.145557
C76	C	0.393185	1.545442	0.395557
C77	C	-0.356859	0.496351	-0.354412
C78	C	-0.106859	0.746351	-0.104412
C79	C	0.143141	0.996351	0.145588
C80	C	0.393141	1.246351	0.395588
C81	C	-0.414353	0.527679	-0.410995
C82	C	-0.164353	0.777679	-0.160995
C83	C	0.085647	1.027679	0.089005
C84	C	0.335647	1.277679	0.339005
C85	C	-0.414173	0.613297	-0.411227
C86	C	-0.164173	0.863297	-0.161227
C87	C	0.085827	1.113297	0.088773
C88	C	0.335827	1.363297	0.338773
C89	C	-0.356838	0.644733	-0.354427
C90	C	-0.106838	0.894733	-0.104427
C91	C	0.143162	1.144733	0.145573
C92	C	0.393162	1.394733	0.395573
C93	C	-0.278835	0.613679	-0.375619
C94	C	-0.028835	0.863679	-0.125619
C95	C	0.221165	1.113679	0.124381
C96	C	0.471165	1.363679	0.374381
C97	C	-0.279181	0.528034	-0.376022
C98	C	-0.029181	0.778034	-0.126022
C99	C	0.220819	1.028034	0.123978
C100	C	0.470819	1.278034	0.373978
C101	C	-0.376679	0.527897	-0.276501
C102	C	-0.126679	0.777897	-0.026501
C103	C	0.123321	1.027897	0.223499
C104	C	0.373321	1.277897	0.473499
C105	C	-0.378390	0.613547	-0.276917
C106	C	-0.128390	0.863547	-0.026917
C107	C	0.121610	1.113547	0.223083
C108	C	0.371610	1.363547	0.473083
C109	C	-0.356821	0.728593	-0.354435
C110	C	-0.106821	0.978593	-0.104435
C111	C	0.143179	1.228593	0.145565
C112	C	0.393179	1.478593	0.395565
C113	C	-0.356870	0.412491	-0.354406
C114	C	-0.106870	0.662491	-0.104406
C115	C	0.143130	0.912491	0.145594
C116	C	0.393130	1.162491	0.395594
C117	C	-0.549249	1.070067	-0.354389
C118	C	-0.299249	1.320067	-0.104389
C119	C	-0.049249	1.570067	0.145611
C120	C	0.200751	1.820067	0.395611
C121	C	-0.631563	1.070093	-0.354404
C122	C	-0.381563	1.320093	-0.104404
C123	C	-0.131563	1.570093	0.145596
C124	C	0.118437	1.820093	0.395596
C125	C	-0.930654	1.070255	-0.354444
C126	C	-0.680654	1.320255	-0.104444
C127	C	-0.430654	1.570255	0.145556
C128	C	-0.180654	1.820255	0.395556
C129	C	-0.899336	1.013168	-0.411463
C130	C	-0.649336	1.263168	-0.161463
C131	C	-0.399336	1.513168	0.088537
C132	C	-0.149336	1.763168	0.338537
C133	C	-0.813718	1.012897	-0.411285
C134	C	-0.563718	1.262897	-0.161285
C135	C	-0.313718	1.512897	0.088715
C136	C	-0.063718	1.762897	0.338715
C137	C	-0.782272	1.070174	-0.354425
C138	C	-0.532272	1.320174	-0.104425
C139	C	-0.282272	1.570174	0.145575
C140	C	-0.032272	1.820174	0.395575
C141	C	-0.813420	1.049044	-0.276867
C142	C	-0.563420	1.299044	-0.026867
C143	C	-0.313420	1.549044	0.223133
C144	C	-0.063420	1.799044	0.473133
C145	C	-0.899065	1.048676	-0.277209
C146	C	-0.649065	1.298676	-0.027209
C147	C	-0.399065	1.548676	0.222791
C148	C	-0.149065	1.798676	0.472791
C149	C	-0.899004	1.148597	-0.374300
C150	C	-0.649004	1.398597	-0.124300
C151	C	-0.399004	1.648597	0.125700
C152	C	-0.149004	1.898597	0.375700
C153	C	-0.813353	1.148136	-0.376001
C154	C	-0.563353	1.398136	-0.126001
C155	C	-0.313353	1.648136	0.123999
C156	C	-0.063353	1.898136	0.373999
C157	C	-0.698412	1.070130	-0.354409
C158	C	-0.448412	1.320130	-0.104409
C159	C	-0.198412	1.570130	0.145591
C160	C	0.051588	1.820130	0.395591
C161	C	-1.014514	1.070298	-0.354454
C162	C	-0.764514	1.320298	-0.104454
C163	C	-0.514514	1.570298	0.145546
C164	C	-0.264514	1.820298	0.395546
C165	C	-0.163677	1.070286	-0.354448
C166	C	0.086323	1.320286	-0.104448
C167	C	0.336323	1.570286	0.145552
C168	C	0.586323	1.820286	0.395552
C169	C	-0.081363	1.070337	-0.354465
C170	C	0.168637	1.320337	-0.104465
C171	C	0.418637	1.570337	0.145535
C172	C	0.668637	1.820337	0.395535
C173	C	-0.356788	1.070211	-0.546364
C174	C	-0.106788	1.320211	-0.296364
C175	C	0.143212	1.570211	-0.046364
C176	C	0.393212	1.820211	0.203636
C177	C	-0.356766	1.070231	-0.628163
C178	C	-0.106766	1.320231	-0.378163
C179	C	0.143234	1.570231	-0.128163
C180	C	0.393234	1.820231	0.121837
C181	C	-0.356869	1.263328	-0.354401
C182	C	-0.106869	1.513328	-0.104401
C183	C	0.143131	1.763328	0.145599
C184	C	0.393131	2.013328	0.395599
C185	C	-0.356881	1.345642	-0.354397
C186	C	-0.106881	1.595642	-0.104397
C187	C	0.143119	1.845642	0.145603
C188	C	0.393119	2.095642	0.395603
C189	C	-0.309363	1.117643	-0.816365
C190	C	-0.059363	1.367643	-0.566365
C191	C	0.190637	1.617643	-0.316365
C192	C	0.440637	1.867643	-0.066365
C193	C	-0.309342	1.117652	-0.893223
C194	C	-0.059342	1.367652	-0.643223
C195	C	0.190658	1.617652	-0.393223
C196	C	0.440658	1.867652	-0.143223
C197	C	-0.404054	1.022871	-0.893198
C198	C	-0.154054	1.272871	-0.643198
C199	C	0.095946	1.522871	-0.393198
C200	C	0.345946	1.772871	-0.143198
C201	C	-0.404071	1.022859	-0.816341
C202	C	-0.154071	1.272859	-0.566341
C203	C	0.095929	1.522859	-0.316341
C204	C	0.345929	1.772859	-0.066341
C205	C	-0.356727	1.070249	-0.777926
C206	C	-0.106727	1.320249	-0.527926
C207	C	0.143273	1.570249	-0.277926
C208	C	0.393273	1.820249	-0.027926
C209	C	-0.356688	1.070270	-0.931642
C210	C	-0.106688	1.320270	-0.681642
C211	C	0.143312	1.570270	-0.431642
C212	C	0.393312	1.820270	-0.181642
C213	C	-0.356665	1.070279	-1.014976
C214	C	-0.106665	1.320279	-0.764976
C215	C	0.143335	1.570279	-0.514976
C216	C	0.393335	1.820279	-0.264976
C217	C	-0.356749	1.070239	-0.694587
C218	C	-0.106749	1.320239	-0.444587
C219	C	0.143251	1.570239	-0.194587
C220	C	0.393251	1.820239	0.055413
C221	C	-0.356836	1.070164	-0.163204
C222	C	-0.106836	1.320164	0.086796
C223	C	0.143164	1.570164	0.336796
C224	C	0.393164	1.820164	0.586796
C225	C	-0.356649	1.070288	-0.081406
C226	C	-0.106649	1.320288	0.168594
C227	C	0.143351	1.570288	0.418594
C228	C	0.393351	1.820288	0.668594
H229	H	-0.472385	0.507063	-0.397861
H230	H	-0.222385	0.757063	-0.147861
H231	H	0.027615	1.007063	0.102139
H232	H	0.277615	1.257063	0.352139
H233	H	-0.234837	0.634043	-0.335693
H234	H	0.015163	0.884043	-0.085693
H235	H	0.265163	1.134043	0.164307
H236	H	0.515163	1.384043	0.414307
H237	H	-0.920918	0.955452	-0.398477
H238	H	-0.670918	1.205452	-0.148477
H239	H	-0.420918	1.455452	0.101523
H240	H	-0.170918	1.705452	0.351523
H241	H	-0.442640	0.984260	-0.785044
H242	H	-0.192640	1.234260	-0.535044
H243	H	0.057360	1.484260	-0.285044
H244	H	0.307360	1.734260	-0.035044
H245	H	-0.792656	1.026117	-0.468793
H246	H	-0.542656	1.276117	-0.218793
H247	H	-0.292656	1.526117	0.031207
H248	H	-0.042656	1.776117	0.281207
H249	H	-0.432585	0.506283	-0.257241
H250	H	-0.182585	0.756283	-0.007241
H251	H	0.067415	1.006283	0.242759
H252	H	0.317415	1.256283	0.492759
H253	H	-0.435788	0.633851	-0.260934
H254	H	-0.185788	0.883851	-0.010934
H255	H	0.064212	1.133851	0.239066
H256	H	0.314212	1.383851	0.489066
H257	H	-0.919257	1.191129	-0.332771
H258	H	-0.669257	1.441129	-0.082771
H259	H	-0.419257	1.691129	0.167229
H260	H	-0.169257	1.941129	0.417229
H261	H	-0.472016	0.634292	-0.397946
H262	H	-0.222016	0.884292	-0.147946
H263	H	0.027984	1.134292	0.102054
H264	H	0.277984	1.384292	0.352054
H265	H	-0.270810	1.156229	-0.785089
H266	H	-0.020810	1.406229	-0.535089
H267	H	0.229190	1.656229	-0.285089
H268	H	0.479190	1.906229	-0.035089
H269	H	-0.401406	0.506169	-0.468389
H270	H	-0.151406	0.756169	-0.218389
H271	H	0.098594	1.006169	0.031611
H272	H	0.348594	1.256169	0.281611
H273	H	-0.401059	0.633800	-0.468955
H274	H	-0.151059	0.883800	-0.218955
H275	H	0.098941	1.133800	0.031045
H276	H	0.348941	1.383800	0.281045
H277	H	-0.793290	0.954828	-0.398133
H278	H	-0.543290	1.204828	-0.148133
H279	H	-0.293290	1.454828	0.101867
H280	H	-0.043290	1.704828	0.351867
H281	H	-0.919886	1.026257	-0.469158
H282	H	-0.669886	1.276257	-0.219158
H283	H	-0.419886	1.526257	0.030842
H284	H	-0.169886	1.776257	0.280842
H285	H	-0.919104	0.991409	-0.260387
H286	H	-0.669104	1.241409	-0.010387
H287	H	-0.419104	1.491409	0.239613
H288	H	-0.169104	1.741409	0.489613
H289	H	-0.792992	1.164071	-0.433079
H290	H	-0.542992	1.414071	-0.183079
H291	H	-0.292992	1.664071	0.066921
H292	H	-0.042992	1.914071	0.316921
H293	H	-0.339555	0.634947	-0.232494
H294	H	-0.089555	0.884947	0.017506
H295	H	0.160445	1.134947	0.267506
H296	H	0.410445	1.384947	0.517506
H297	H	-0.262370	0.508073	-0.432978
H298	H	-0.012370	0.758073	-0.182978
H299	H	0.237630	1.008073	0.067022
H300	H	0.487630	1.258073	0.317022
H301	H	-0.792031	0.992383	-0.259744
H302	H	-0.542031	1.242383	-0.009744
H303	H	-0.292031	1.492383	0.240256
H304	H	-0.042031	1.742383	0.490256
H305	H	-0.234808	0.507312	-0.336699
H306	H	0.015192	0.757312	-0.086699
H307	H	0.265192	1.007312	0.163301
H308	H	0.515192	1.257312	0.413301
H309	H	-0.920555	1.167862	-0.429891
H310	H	-0.670555	1.417862	-0.179891
H311	H	-0.420555	1.667862	0.070109
H312	H	-0.170555	1.917862	0.320109
H313	H	-0.261721	0.635145	-0.431957
H314	H	-0.011721	0.885145	-0.181957
H315	H	0.238279	1.135145	0.068043
H316	H	0.488279	1.385145	0.318043
H317	H	-0.334800	0.507638	-0.234341
H318	H	-0.084800	0.757638	0.015659
H319	H	0.165200	1.007638	0.265659
H320	H	0.415200	1.257638	0.515659
H321	H	-0.919785	1.088452	-0.233277
H322	H	-0.669785	1.338452	0.016723
H323	H	-0.419785	1.588452	0.266723
H324	H	-0.169785	1.838452	0.516723
H325	H	-0.793052	1.089316	-0.233226
H326	H	-0.543052	1.339316	0.016774
H327	H	-0.293052	1.589316	0.266774
H328	H	-0.043052	1.839316	0.516774
H329	H	-0.791944	1.192919	-0.337498
H330	H	-0.541944	1.442919	-0.087498
H331	H	-0.291944	1.692919	0.162502
H332	H	-0.041944	1.942919	0.412502
H333	H	-0.442602	0.984289	-0.924485
H334	H	-0.192602	1.234289	-0.674485
H335	H	0.057398	1.484289	-0.424485
H336	H	0.307398	1.734289	-0.174485
H337	H	-0.270772	1.156243	-0.924517
H338	H	-0.020772	1.406243	-0.674517
H339	H	0.229228	1.656243	-0.424517
H340	H	0.479228	1.906243	-0.174517
