data_functionalizedCrystal
_audit_creation_method	'MofGen! by Chris Wilmer'
_symmetry_space_group_name_H-M	'P1'
_symmetry_Int_Tables_number	1
_symmetry_cell_setting	triclinic
loop_
_symmetry_equiv_pos_as_xyz
  x,y,z
_cell_length_a	15.944499
_cell_length_b	14.421503
_cell_length_c	15.995350
_cell_angle_alpha	90.006523
_cell_angle_beta	96.515008
_cell_angle_gamma	90.010221
loop_
_atom_site_label
_atom_site_type_symbol
_atom_site_fract_x
_atom_site_fract_y
_atom_site_fract_z
O1	O	1.114550	0.077163	-0.107771
O2	O	0.869994	0.077152	-0.121130
O3	O	0.998957	0.077157	0.007438
O4	O	0.985587	0.077158	-0.236339
O5	O	0.998936	-0.077067	0.007419
O6	O	0.869973	-0.077072	-0.121149
O7	O	1.114529	-0.077061	-0.107790
Cu8	Cu	0.992249	-0.091148	-0.114471
Cu9	Cu	0.992274	0.091239	-0.114449
O10	O	0.985566	-0.077066	-0.236358
C11	C	0.838689	0.000039	-0.120593
C12	C	0.745440	0.000035	-0.118953
C13	C	0.453900	0.000049	-0.193648
C14	C	0.514942	0.076090	-0.154810
C15	C	0.409804	0.000056	-0.112996
C16	C	0.514907	-0.075962	-0.154807
C17	C	0.574713	0.000044	-0.115927
C18	C	0.469618	0.076161	-0.074136
C19	C	0.469576	-0.075960	-0.074144
C20	C	0.530601	0.000100	-0.035248
C21	C	0.314804	0.000064	-0.111309
C22	C	0.669712	0.000043	-0.117607
N23	N	0.992237	-0.219429	-0.114487
C24	C	0.932594	-0.469085	-0.173910
C25	C	1.008495	-0.530885	-0.190152
C26	C	0.992258	-0.408591	-0.114467
C27	C	0.916376	-0.530885	-0.098245
C28	C	0.992271	-0.591312	-0.114449
C29	C	1.068197	-0.469029	-0.130746
C30	C	0.976028	-0.469025	-0.038806
C31	C	1.051984	-0.530796	-0.055016
C32	C	0.992249	-0.303330	-0.114479
C33	C	0.992288	-0.696571	-0.114437
C34	C	1.145834	0.000054	-0.108327
C35	C	1.239083	0.000064	-0.109967
C36	C	0.998394	0.000047	0.038623
C37	C	0.996737	0.000052	0.131573
N38	N	0.992292	0.219520	-0.114427
C39	C	0.986129	0.000046	-0.267543
C40	C	0.987786	0.000047	-0.360493
C41	C	0.990785	0.000048	0.469320
C42	C	0.898940	0.000390	0.421874
C43	C	0.900598	0.000043	0.325184
C44	C	0.993737	0.000051	0.301760
C45	C	1.039027	-0.088015	0.342832
C46	C	1.036719	-0.088089	0.439468
C47	C	1.038641	0.087292	0.439848
C48	C	1.038619	0.088456	0.342903
C49	C	0.995411	0.000049	0.207063
C50	C	0.989115	0.000044	0.564018
H51	H	0.563782	0.000140	0.031745
H52	H	0.962265	-0.441832	0.025150
N53	N	1.118890	-0.566481	0.011582
H54	H	1.107141	-0.542982	0.068588
H55	H	1.176127	-0.543850	-0.000850
N56	N	0.443175	0.161416	-0.028985
H57	H	0.494607	0.200002	-0.009643
H58	H	0.414462	0.142059	0.021373
N59	N	0.442918	-0.161114	-0.028999
H60	H	0.459200	-0.218526	-0.059525
H61	H	0.379739	-0.160068	-0.027738
N62	N	0.831372	-0.566886	-0.080076
H63	H	0.786347	-0.544440	-0.125024
H64	H	0.818718	-0.543413	-0.023352
H65	H	1.008622	0.154041	0.460392
H66	H	0.864997	0.063171	0.296765
N67	N	0.541490	-0.161112	-0.200019
H68	H	0.490055	-0.199458	-0.219895
H69	H	0.581570	-0.199144	-0.160351
H70	H	1.005507	0.153605	0.315658
N71	N	1.128592	0.095515	0.322574
H72	H	1.141593	0.041261	0.286246
H73	H	1.168213	0.094762	0.376517
N74	N	0.865820	-0.433195	-0.240541
H75	H	0.878198	-0.455702	-0.297666
H76	H	0.865951	-0.363171	-0.239652
H77	H	0.420566	0.000123	-0.260581
N78	N	1.126030	-0.093402	0.482210
H79	H	1.138388	-0.036954	0.518930
H80	H	1.166671	-0.095717	0.438203
H81	H	1.107453	-0.091284	0.328715
N82	N	1.026702	-0.566878	-0.274891
H83	H	0.981599	-0.544437	-0.319764
H84	H	1.027136	-0.636902	-0.274011
H85	H	1.132388	-0.441973	-0.144536
N86	N	0.850316	0.084038	0.446423
H87	H	0.887348	0.122525	0.488540
H88	H	0.798673	0.062941	0.472351
H89	H	0.862385	-0.062415	0.441456
N90	N	1.128342	0.088092	0.481919
H91	H	1.128046	0.090499	0.544991
H92	H	1.158719	0.144293	0.462674
H93	H	1.007553	-0.153556	0.314439
H94	H	0.864740	-0.063197	0.297307
H95	H	1.003676	-0.153925	0.457757
N96	N	0.541558	0.161258	-0.199973
H97	H	0.513368	0.161206	-0.259797
H98	H	0.604869	0.160899	-0.200230
