data_functionalizedCrystal
_audit_creation_method	'MofGen! by Chris Wilmer'
_symmetry_space_group_name_H-M	'P1'
_symmetry_Int_Tables_number	1
_symmetry_cell_setting	triclinic
loop_
_symmetry_equiv_pos_as_xyz
  x,y,z
_cell_length_a	10.489741
_cell_length_b	10.654550
_cell_length_c	9.730223
_cell_angle_alpha	90.004025
_cell_angle_beta	90.001061
_cell_angle_gamma	84.512052
loop_
_atom_site_label
_atom_site_type_symbol
_atom_site_fract_x
_atom_site_fract_y
_atom_site_fract_z
O1	O	-1.693967	-0.177191	-0.114205
O2	O	-1.322763	-0.193824	-0.114226
O3	O	-1.516900	-0.002772	-0.114206
O4	O	-1.499830	-0.368243	-0.114224
O5	O	-1.516885	-0.002768	0.114374
O6	O	-1.322749	-0.193819	0.114354
O7	O	-1.693952	-0.177187	0.114375
Zn8	Zn	-1.508348	-0.185502	0.150657
Zn9	Zn	-1.508367	-0.185508	-0.150507
O10	O	-1.499816	-0.368238	0.114356
C11	C	-1.275225	-0.192565	0.000061
C12	C	-1.133597	-0.188807	0.000053
C13	C	-1.515639	0.044029	0.000083
C14	C	-1.511889	0.183474	0.000081
C15	C	-1.741491	-0.178445	0.000085
C16	C	-1.883118	-0.182204	0.000084
C17	C	-1.065516	-0.067246	0.000072
C18	C	-0.973368	-0.124672	-0.112629
C19	C	-0.973388	-0.124697	0.112733
C20	C	-1.043315	-0.246283	-0.112741
C21	C	-1.043344	-0.246291	0.112722
C22	C	-0.951224	-0.303805	-0.000008
C23	C	-1.501076	-0.415039	0.000063
C24	C	-1.504826	-0.554484	0.000057
N25	N	-1.508345	-0.185498	0.356193
C26	C	-1.626194	0.262906	0.000087
C27	C	-1.622663	0.393928	0.000070
C28	C	-1.390513	0.366074	0.000047
C29	C	-1.394045	0.235054	0.000054
C30	C	-1.594337	-0.100937	0.428128
C31	C	-1.594349	-0.100938	0.572011
C32	C	-1.422371	-0.270072	0.572012
C33	C	-1.422354	-0.270064	0.428131
N34	N	-1.508373	-0.185507	0.643956
H35	H	-0.942385	-0.073239	-0.207907
N36	N	-1.745944	0.479608	0.000083
H37	H	-1.797318	0.462884	-0.084640
H38	H	-1.797189	0.462866	0.084885
N39	N	-1.084454	-0.314355	0.238929
H40	H	-1.127975	-0.390752	0.210211
H41	H	-1.006793	-0.341925	0.296689
H42	H	-1.074124	-0.297679	-0.208130
H43	H	-1.664354	-0.032076	0.369559
N44	N	-0.932371	-0.056546	0.238944
H45	H	-0.974356	0.032807	0.238840
H46	H	-0.959057	-0.101656	0.323995
H47	H	-1.300959	0.170376	0.000045
N48	N	-1.329636	-0.361278	0.649614
H49	H	-1.378874	-0.417361	0.709290
H50	H	-1.275173	-0.414761	0.582125
N51	N	-1.131350	0.065140	-0.000081
H52	H	-1.227230	0.061672	0.000782
H53	H	-1.104756	0.111490	0.084170
N54	N	-1.687115	-0.009750	0.649599
H55	H	-1.741589	0.043813	0.582189
H56	H	-1.743921	-0.058403	0.709270
N57	N	-1.329590	-0.361263	0.350532
H58	H	-1.275123	-0.414841	0.417934
H59	H	-1.378896	-0.417255	0.290812
H60	H	-0.901752	-0.403841	-0.000074
H61	H	-1.722150	0.220914	0.000106
H62	H	-1.294568	0.408087	0.000027
