data_functionalizedCrystal
_audit_creation_method	'MofGen! by Chris Wilmer'
_symmetry_space_group_name_H-M	'P1'
_symmetry_Int_Tables_number	1
_symmetry_cell_setting	triclinic
loop_
_symmetry_equiv_pos_as_xyz
  x,y,z
_cell_length_a	18.101395
_cell_length_b	17.077404
_cell_length_c	17.077396
_cell_angle_alpha	89.983895
_cell_angle_beta	89.971698
_cell_angle_gamma	90.029074
loop_
_atom_site_label
_atom_site_type_symbol
_atom_site_fract_x
_atom_site_fract_y
_atom_site_fract_z
Zn1	Zn	-0.294864	1.199992	-0.443824
Zn2	Zn	-0.418714	1.199886	-0.312561
Zn3	Zn	-0.294887	1.068729	-0.312575
Zn4	Zn	-0.418663	1.068673	-0.443787
O5	O	-0.356782	1.134320	-0.378187
O6	O	-0.311304	1.309825	-0.426422
O7	O	-0.402319	1.182466	-0.202716
O8	O	-0.191251	1.086210	-0.330007
O9	O	-0.402297	1.309747	-0.329983
O10	O	-0.191234	1.182648	-0.426435
O11	O	-0.311343	1.086106	-0.202726
O12	O	-0.311294	0.958875	-0.329971
O13	O	-0.402210	1.086114	-0.553639
O14	O	-0.402233	0.958834	-0.426372
O15	O	-0.311255	1.182594	-0.553666
O16	O	-0.522340	1.182412	-0.329946
O17	O	-0.522303	1.086011	-0.426358
C18	C	-0.356761	0.930372	-0.378169
C19	C	-0.356770	0.843122	-0.378180
C20	C	-0.309474	0.802174	-0.428473
C21	C	-0.309479	0.720193	-0.428476
C22	C	-0.356784	0.679163	-0.378191
C23	C	-0.404081	0.720117	-0.327893
C24	C	-0.404072	0.802096	-0.327886
C25	C	-0.404098	0.549247	-0.327912
C26	C	-0.404108	0.467263	-0.327920
C27	C	-0.309505	0.467344	-0.428503
C28	C	-0.309496	0.549323	-0.428496
C29	C	-0.356795	0.590272	-0.378199
C30	C	-0.549193	1.134215	-0.378164
C31	C	-0.631507	1.134242	-0.378180
C32	C	-0.930597	1.134414	-0.378222
C33	C	-0.899280	1.073902	-0.439032
C34	C	-0.813662	1.073614	-0.438842
C35	C	-0.782215	1.134329	-0.378202
C36	C	-0.813367	1.111935	-0.295473
C37	C	-0.899012	1.111545	-0.295837
C38	C	-0.898944	1.217453	-0.399413
C39	C	-0.813293	1.216965	-0.401227
C40	C	-0.698356	1.134282	-0.378185
C41	C	-1.014457	1.134459	-0.378233
C42	C	-0.163620	1.134447	-0.378227
C43	C	-0.081306	1.134501	-0.378244
C44	C	-0.356725	1.134360	-0.582931
C45	C	-0.356700	1.134376	-0.670181
C46	C	-0.356804	1.339064	-0.378205
C47	C	-0.356813	1.426314	-0.378213
C48	C	-0.309323	1.084217	-0.711176
C49	C	-0.309307	1.084230	-0.793156
C50	C	-0.356663	1.134407	-0.834140
C51	C	-0.404045	1.184568	-0.793140
C52	C	-0.404065	1.184551	-0.711161
C53	C	-0.403999	1.184602	-0.964010
C54	C	-0.403978	1.184621	-1.045994
C55	C	-0.309240	1.084281	-1.046006
C56	C	-0.309260	1.084264	-0.964027
C57	C	-0.356641	1.134427	-0.923031
C58	C	-0.356786	1.134326	-0.174239
C59	C	-0.356601	1.134461	-0.086989
H60	H	-0.270991	0.434000	-0.469455
O61	O	-0.924602	1.241948	-0.470127
C62	C	-0.895188	1.316458	-0.487342
H63	H	-0.878402	1.346767	-0.430602
H64	H	-0.844697	1.309689	-0.526687
C65	C	-0.974556	1.328823	-0.599334
C66	C	-0.953945	1.366052	-0.529644
H67	H	-1.010797	1.359414	-0.625431
H68	H	-0.994370	1.278623	-0.587738
H69	H	-0.932474	1.323184	-0.632113
H70	H	-0.996024	1.371681	-0.496863
H71	H	-0.934138	1.416253	-0.541235
O72	O	-0.788903	1.237015	-0.473852
C73	C	-0.743967	1.176596	-0.503765
H74	H	-0.720781	1.140580	-0.453230
H75	H	-0.778282	1.137195	-0.543518
C76	C	-0.708327	1.256710	-0.613075
C77	C	-0.679844	1.212479	-0.551006
H78	H	-0.668774	1.278843	-0.642219
H79	H	-0.738603	1.297415	-0.592924
H80	H	-0.736922	1.223869	-0.646194
H81	H	-0.651257	1.245323	-0.517883
H82	H	-0.649561	1.171780	-0.571153
O83	O	-0.263424	1.035436	-0.671280
C84	C	-0.305595	0.984686	-0.623862
H85	H	-0.361723	1.012333	-0.611568
H86	H	-0.313720	0.926516	-0.655450
C87	C	-0.195930	0.936524	-0.561099
C88	C	-0.264864	0.970484	-0.545994
H89	H	-0.170804	0.927760	-0.513068
H90	H	-0.167517	0.970713	-0.593048
H91	H	-0.202710	0.888053	-0.587425
H92	H	-0.258083	1.018959	-0.519678
H93	H	-0.293275	0.936303	-0.514039
O94	O	-0.450154	1.233227	-0.832913
C95	C	-0.523967	1.216031	-0.812848
H96	H	-0.527705	1.153313	-0.790309
H97	H	-0.543341	1.258092	-0.765259
C98	C	-0.568782	1.302184	-0.913342
C99	C	-0.573375	1.225151	-0.885666
H100	H	-0.599261	1.307813	-0.958258
H101	H	-0.519054	1.313772	-0.926859
H102	H	-0.584926	1.337226	-0.873678
H103	H	-0.557223	1.190111	-0.925327
H104	H	-0.623102	1.213557	-0.872158
O105	O	-0.450053	1.233383	-1.085686
C106	C	-0.491868	1.277663	-1.031926
H107	H	-0.494445	1.245499	-0.973485
H108	H	-0.464764	1.337300	-1.023218
C109	C	-0.567514	1.328427	-1.135689
C110	C	-0.570684	1.288919	-1.063912
H111	H	-0.616130	1.335373	-1.155419
H112	H	-0.539341	1.298597	-1.171909
H113	H	-0.544924	1.378120	-1.128422
H114	H	-0.593265	1.239223	-1.071181
H115	H	-0.598863	1.318741	-1.027694
H116	H	-0.270955	0.835575	-0.469423
O117	O	-0.787710	1.273499	-0.352152
C118	C	-0.740896	1.239417	-0.295679
H119	H	-0.754694	1.174575	-0.289437
H120	H	-0.680924	1.246176	-0.314958
C121	C	-0.735187	1.360289	-0.224049
C122	C	-0.752138	1.280649	-0.216377
H123	H	-0.742118	1.385724	-0.175133
H124	H	-0.766724	1.383252	-0.262097
H125	H	-0.685211	1.365910	-0.240118
H126	H	-0.802115	1.275029	-0.200319
H127	H	-0.720609	1.257686	-0.178325
O128	O	-0.263212	1.035483	-0.832857
C129	C	-0.221428	0.991183	-0.779105
H130	H	-0.218884	1.023327	-0.720671
H131	H	-0.248538	0.931544	-0.770373
C132	C	-0.145724	0.940454	-0.882887
C133	C	-0.142594	0.979937	-0.811120
H134	H	-0.097097	0.933513	-0.902636
H135	H	-0.173876	0.970297	-0.919102
H136	H	-0.168319	0.890759	-0.875601
H137	H	-0.120008	1.029635	-0.818409
H138	H	-0.114436	0.950102	-0.774907
H139	H	-0.270660	1.043438	-1.079388
O140	O	-0.923889	1.090529	-0.512397
C141	C	-0.969772	1.157172	-0.509852
H142	H	-0.993077	1.164345	-0.448244
H143	H	-0.936215	1.211320	-0.526051
C144	C	-1.005120	1.138325	-0.644081
C145	C	-1.033748	1.147131	-0.568414
H146	H	-1.044582	1.132133	-0.680207
H147	H	-0.974205	1.093427	-0.645797
H148	H	-0.977156	1.183450	-0.657569
H149	H	-1.061703	1.102002	-0.554924
H150	H	-1.064669	1.192020	-0.566697
O151	O	-0.450117	0.588905	-0.279032
C152	C	-0.491862	0.535113	-0.234640
H153	H	-0.494466	0.476685	-0.266790
H154	H	-0.464678	0.526388	-0.175070
C155	C	-0.567467	0.638832	-0.183700
C156	C	-0.570671	0.567071	-0.223190
H157	H	-0.616080	0.658545	-0.176634
H158	H	-0.539342	0.675073	-0.213605
H159	H	-0.544811	0.631550	-0.134063
H160	H	-0.593318	0.574355	-0.272830
H161	H	-0.598802	0.530832	-0.193293
O162	O	-0.789066	1.162752	-0.239848
C163	C	-0.748575	1.121515	-0.182656
H164	H	-0.765904	1.057329	-0.183025
H165	H	-0.687048	1.126113	-0.196200
C166	C	-0.742768	1.235796	-0.100931
C167	C	-0.764055	1.156963	-0.101381
H168	H	-0.752313	1.257663	-0.050797
H169	H	-0.770044	1.263579	-0.139464
H170	H	-0.691496	1.239617	-0.112222
H171	H	-0.815327	1.153144	-0.090100
H172	H	-0.736787	1.129180	-0.062844
H173	H	-0.920864	1.012726	-0.425172
O174	O	-0.450061	1.233204	-0.671214
C175	C	-0.439913	1.222442	-0.590070
H176	H	-0.415654	1.161877	-0.578876
H177	H	-0.400488	1.269025	-0.566817
C178	C	-0.544652	1.303961	-0.561712
C179	C	-0.514862	1.229571	-0.547963
H180	H	-0.590882	1.308362	-0.535737
H181	H	-0.551487	1.311214	-0.616380
H182	H	-0.511790	1.342771	-0.542335
H183	H	-0.547718	1.190763	-0.567349
H184	H	-0.508033	1.222312	-0.493297
H185	H	-0.442575	1.225457	-0.930634
H186	H	-0.270968	0.686857	-0.469431
H187	H	-0.270981	0.582728	-0.469447
H188	H	-0.270695	1.043409	-0.930660
O189	O	-0.923201	1.271149	-0.346536
C190	C	-0.968527	1.233906	-0.290618
H191	H	-0.991947	1.177622	-0.316540
H192	H	-0.934468	1.219384	-0.236394
C193	C	-1.003646	1.357999	-0.235933
C194	C	-1.032416	1.288874	-0.267772
H195	H	-1.043054	1.391907	-0.221837
H196	H	-0.973107	1.383091	-0.273603
H197	H	-0.975263	1.345887	-0.190749
H198	H	-1.060789	1.300985	-0.312960
H199	H	-1.062961	1.263785	-0.230108
O200	O	-0.787822	1.040259	-0.273807
C201	C	-0.741765	1.010203	-0.333222
H202	H	-0.756081	1.039293	-0.391353
H203	H	-0.681575	1.022745	-0.318096
C204	C	-0.735837	0.885408	-0.268632
C205	C	-0.753425	0.921131	-0.340031
H206	H	-0.743027	0.830463	-0.272831
H207	H	-0.766865	0.905657	-0.228601
H208	H	-0.685680	0.895867	-0.256035
H209	H	-0.803583	0.910680	-0.352622
H210	H	-0.722406	0.900878	-0.380065
H211	H	-0.442628	0.433858	-0.286974
O212	O	-0.450088	0.841755	-0.279010
C213	C	-0.491831	0.787964	-0.234615
H214	H	-0.494440	0.729537	-0.266767
H215	H	-0.464642	0.779235	-0.175049
C216	C	-0.567428	0.891683	-0.183663
C217	C	-0.570638	0.819924	-0.223156
H218	H	-0.616039	0.911398	-0.176591
H219	H	-0.539304	0.927924	-0.213570
H220	H	-0.544768	0.884399	-0.134029
H221	H	-0.593289	0.827211	-0.272793
H222	H	-0.598768	0.783685	-0.193257
O223	O	-0.789254	1.000170	-0.422230
C224	C	-0.745996	0.972316	-0.484989
H225	H	-0.761495	1.005027	-0.540808
H226	H	-0.685040	0.982373	-0.471551
C227	C	-0.741111	0.843940	-0.427735
C228	C	-0.760152	0.884112	-0.496294
H229	H	-0.749839	0.789531	-0.434708
H230	H	-0.770252	0.862706	-0.385451
H231	H	-0.690315	0.852330	-0.416544
H232	H	-0.810948	0.875730	-0.507479
H233	H	-0.731019	0.865342	-0.538581
H234	H	-0.442594	0.686704	-0.286946
H235	H	-0.792597	1.087625	-0.500185
O236	O	-0.923053	1.039182	-0.274410
C237	C	-1.000935	1.037878	-0.274486
H238	H	-1.022833	1.100049	-0.267379
H239	H	-1.021494	1.012451	-0.332224
C240	C	-1.001760	0.910459	-0.214904
C241	C	-1.028656	0.986818	-0.206168
H242	H	-1.018860	0.878960	-0.172765
H243	H	-0.949289	0.911336	-0.214855
H244	H	-1.018895	0.889280	-0.263021
H245	H	-1.011513	1.007999	-0.158057
H246	H	-1.081124	0.985944	-0.206207
O247	O	-0.923714	1.161744	-0.239844
C248	C	-0.897530	1.137503	-0.165973
H249	H	-0.883977	1.072349	-0.167888
H250	H	-0.845620	1.172000	-0.150488
C251	C	-0.974007	1.232461	-0.101259
C252	C	-0.957366	1.152436	-0.103610
H253	H	-1.010914	1.241675	-0.062789
H254	H	-0.991645	1.248795	-0.151027
H255	H	-0.930743	1.261199	-0.088358
H256	H	-1.000627	1.123701	-0.116520
H257	H	-0.939736	1.136098	-0.053842
