data_functionalizedCrystal
_audit_creation_method	'MofGen! by Chris Wilmer'
_symmetry_space_group_name_H-M	'P1'
_symmetry_Int_Tables_number	1
_symmetry_cell_setting	triclinic
loop_
_symmetry_equiv_pos_as_xyz
  x,y,z
_cell_length_a	14.044191
_cell_length_b	14.044220
_cell_length_c	13.448316
_cell_angle_alpha	90.007340
_cell_angle_beta	90.004141
_cell_angle_gamma	93.190327
loop_
_atom_site_label
_atom_site_type_symbol
_atom_site_fract_x
_atom_site_fract_y
_atom_site_fract_z
O1	O	1.277176	0.230202	0.082648
O2	O	1.610509	0.563536	0.415982
O3	O	1.943842	0.896869	0.749315
O4	O	1.000503	0.221890	0.082661
O5	O	1.333836	0.555223	0.415994
O6	O	1.667170	0.888556	0.749327
O7	O	1.134686	0.087710	0.082645
O8	O	1.468020	0.421044	0.415978
O9	O	1.801353	0.754377	0.749311
O10	O	1.142992	0.364382	0.082664
O11	O	1.476325	0.697715	0.415997
O12	O	1.809659	1.031049	0.749331
O13	O	1.134667	0.087700	-0.082739
O14	O	1.468001	0.421033	0.250594
O15	O	1.801334	0.754366	0.583928
O16	O	1.000484	0.221879	-0.082723
O17	O	1.333817	0.555212	0.250610
O18	O	1.667151	0.888546	0.583943
O19	O	1.277156	0.230192	-0.082736
O20	O	1.610490	0.563525	0.250598
O21	O	1.943823	0.896858	0.583931
Cu22	Cu	1.138818	0.226034	-0.097830
Cu23	Cu	1.472152	0.559368	0.235503
Cu24	Cu	1.805485	0.892701	0.568836
Cu25	Cu	1.138841	0.226047	0.097755
Cu26	Cu	1.472174	0.559380	0.431089
Cu27	Cu	1.805508	0.892714	0.764422
O28	O	1.142973	0.364371	-0.082720
O29	O	1.476306	0.697705	0.250614
O30	O	1.809640	1.031038	0.583947
C31	C	0.964872	0.218248	-0.000030
C32	C	1.298205	0.551581	0.333304
C33	C	1.631538	0.884914	0.666637
C34	C	0.858728	0.207401	-0.000025
C35	C	1.192062	0.540734	0.333308
C36	C	1.525395	0.874067	0.666641
C37	C	0.613270	0.264501	-0.000031
C38	C	0.946603	0.597834	0.333302
C39	C	1.279937	0.931168	0.666635
C40	C	0.664395	0.187585	-0.000035
C41	C	0.997729	0.520918	0.333298
C42	C	1.331062	0.854251	0.666632
C43	C	0.772532	0.198613	-0.000030
C44	C	1.105866	0.531946	0.333304
C45	C	1.439199	0.865280	0.666637
C46	C	0.505123	0.253474	-0.000037
C47	C	0.838457	0.586808	0.333297
C48	C	1.171790	0.920141	0.666630
C49	C	1.131041	0.052083	-0.000047
C50	C	1.464375	0.385416	0.333286
C51	C	1.797708	0.718750	0.666619
C52	C	1.120197	-0.054060	-0.000048
C53	C	1.453530	0.279273	0.333285
C54	C	1.786863	0.612607	0.666619
C55	C	1.100370	-0.248398	-0.000033
C56	C	1.433704	0.084935	0.333300
C57	C	1.767037	0.418268	0.666634
C58	C	1.177285	-0.299526	-0.000033
C59	C	1.510618	0.033807	0.333300
C60	C	1.843952	0.367140	0.666633
C61	C	1.166253	-0.407663	-0.000025
C62	C	1.499587	-0.074329	0.333308
C63	C	1.832920	0.259004	0.666642
C64	C	1.111400	-0.140252	-0.000041
C65	C	1.444734	0.193081	0.333292
C66	C	1.778067	0.526415	0.666625
C67	C	1.312788	0.233834	-0.000043
C68	C	1.646121	0.567167	0.333290
C69	C	1.979455	0.900500	0.666624
C70	C	1.418931	0.244681	-0.000041
C71	C	1.752264	0.578014	0.333292
C72	C	2.085598	0.911348	0.666626
C73	C	1.146618	0.399998	-0.000025
C74	C	1.479952	0.733332	0.333308
C75	C	1.813285	1.066665	0.666641
C76	C	1.157463	0.506142	-0.000018
C77	C	1.490796	0.839475	0.333315
C78	C	1.824130	1.172808	0.666649
N79	N	1.138809	0.226026	-0.235395
N80	N	1.472143	0.559359	0.097939
N81	N	1.805476	0.892692	0.431272
C82	C	1.198248	0.166639	-0.287442
C83	C	1.531581	0.499973	0.045891
C84	C	1.864915	0.833306	0.379225
C85	C	1.198254	0.166639	-0.391545
C86	C	1.531587	0.499972	-0.058212
C87	C	1.864921	0.833306	0.275121
C88	C	1.138825	0.226031	-0.443599
C89	C	1.472159	0.559364	-0.110266
C90	C	1.805492	0.892697	0.223068
C91	C	1.079380	0.285420	-0.391544
C92	C	1.412713	0.618753	-0.058211
C93	C	1.746047	0.952086	0.275122
C94	C	1.079370	0.285414	-0.287443
C95	C	1.412703	0.618748	0.045890
C96	C	1.746037	0.952081	0.379224
C97	C	1.079407	0.285428	-0.608525
C98	C	1.412740	0.618762	-0.275191
C99	C	1.746074	0.952095	0.058142
C100	C	1.079418	0.285435	-0.712633
C101	C	1.412752	0.618769	-0.379300
C102	C	1.746085	0.952102	-0.045966
C103	C	1.198291	0.166653	-0.712627
C104	C	1.531625	0.499986	-0.379293
C105	C	1.864958	0.833320	-0.045960
C106	C	1.198281	0.166648	-0.608525
C107	C	1.531614	0.499981	-0.275192
C108	C	1.864948	0.833314	0.058141
C109	C	1.138837	0.226038	-0.556478
C110	C	1.472170	0.559371	-0.223144
C111	C	1.805503	0.892705	0.110189
N112	N	1.138857	0.226049	0.235320
N113	N	1.472190	0.559382	0.568653
N114	N	1.805524	0.892716	0.901986
H115	H	1.251419	-0.262085	0.000030
H116	H	1.584752	0.071248	0.333363
H117	H	1.918085	0.404582	0.666697
H118	H	1.026242	-0.285837	-0.000027
H119	H	1.359576	0.047496	0.333306
H120	H	1.692909	0.380830	0.666639
Cl121	Cl	1.272968	0.091975	-0.222014
Cl122	Cl	1.606301	0.425309	0.111320
Cl123	Cl	1.939635	0.758642	0.444653
H124	H	1.246692	0.118295	-0.755010
H125	H	1.580026	0.451629	-0.421676
H126	H	1.913359	0.784962	-0.088343
Cl127	Cl	1.004663	0.360080	-0.456981
Cl128	Cl	1.337997	0.693413	-0.123648
Cl129	Cl	1.671330	1.026747	0.209685
H130	H	0.650711	0.338628	-0.000023
H131	H	0.984045	0.671961	0.333310
H132	H	1.317378	1.005294	0.666644
H133	H	1.246653	0.118282	-0.433922
H134	H	1.579986	0.451615	-0.100588
H135	H	1.913319	0.784948	0.232745
Cl136	Cl	1.272997	0.091990	-0.543084
Cl137	Cl	1.606331	0.425323	-0.209751
Cl138	Cl	1.939664	0.758657	0.123583
Cl139	Cl	1.004702	0.360100	-0.778064
Cl140	Cl	1.338035	0.693434	-0.444731
Cl141	Cl	1.671369	1.026767	-0.111398
H142	H	1.030998	0.333787	-0.566151
H143	H	1.364331	0.667120	-0.232818
H144	H	1.697664	1.000454	0.100516
Cl145	Cl	1.004639	0.360071	-0.222013
Cl146	Cl	1.337973	0.693405	0.111320
Cl147	Cl	1.671306	1.026738	0.444654
H148	H	0.626952	0.113452	0.000030
H149	H	0.960285	0.446786	0.333363
H150	H	1.293619	0.780119	0.666697
