data_functionalizedCrystal
_audit_creation_method	'MofGen! by Chris Wilmer'
_symmetry_space_group_name_H-M	'P1'
_symmetry_Int_Tables_number	1
_symmetry_cell_setting	triclinic
loop_
_symmetry_equiv_pos_as_xyz
  x,y,z
_cell_length_a	15.298709
_cell_length_b	29.839131
_cell_length_c	15.296720
_cell_angle_alpha	80.368922
_cell_angle_beta	72.673665
_cell_angle_gamma	99.731617
loop_
_atom_site_label
_atom_site_type_symbol
_atom_site_fract_x
_atom_site_fract_y
_atom_site_fract_z
Zn1	Zn	1.330582	-0.088165	0.280153
Zn2	Zn	1.357378	-0.147584	0.124650
Zn3	Zn	1.201998	-0.088194	0.151533
Zn4	Zn	1.175010	-0.179003	0.306946
O5	O	1.266242	-0.125736	0.215820
O6	O	1.464272	-0.082885	0.237061
O7	O	1.359276	-0.126570	-0.001904
O8	O	1.219136	-0.025320	0.168632
O9	O	1.483958	-0.126541	0.122814
O10	O	1.313606	-0.025298	0.263129
O11	O	1.245119	-0.082936	0.017847
O12	O	1.068284	-0.113401	0.194613
O13	O	1.173138	-0.180089	0.433512
O14	O	1.048455	-0.180118	0.308794
O15	O	1.287436	-0.113351	0.413827
O16	O	1.333106	-0.214623	0.148794
O17	O	1.199121	-0.237706	0.282727
C18	C	1.024627	-0.150173	0.257528
C19	C	0.921259	-0.160640	0.275393
C20	C	0.862417	-0.200326	0.343139
C21	C	0.765297	-0.210159	0.359933
C22	C	0.727009	-0.180308	0.308978
C23	C	0.785852	-0.140622	0.241226
C24	C	0.882981	-0.130787	0.224436
C25	C	0.747572	-0.110769	0.190275
C26	C	0.806415	-0.071083	0.122523
C27	C	0.903535	-0.061249	0.105735
C28	C	0.941823	-0.091100	0.156690
C29	C	0.650443	-0.120604	0.207065
C30	C	0.671006	-0.051065	0.088362
C31	C	0.768127	-0.041232	0.071568
C32	C	1.266114	-0.242465	0.215767
C33	C	1.266139	-0.292397	0.215760
C34	C	1.315405	-0.602000	0.265112
C35	C	1.315496	-0.789669	0.265150
O36	O	1.357255	-0.813908	0.307077
N37	N	1.266382	-0.813173	0.215896
C38	C	1.217237	-0.789758	0.166634
O39	O	1.175456	-0.814057	0.124750
C40	C	1.217141	-0.602091	0.166602
C41	C	1.266266	-0.578588	0.215851
C42	C	1.364525	-0.578498	0.314358
C43	C	1.364506	-0.531582	0.314344
C44	C	1.315367	-0.508170	0.265083
C45	C	1.266247	-0.531673	0.215837
C46	C	1.167990	-0.578678	0.117346
C47	C	1.167968	-0.531759	0.117344
C48	C	1.217094	-0.508256	0.166594
C49	C	1.217088	-0.461346	0.166562
N50	N	1.266202	-0.437842	0.215816
C51	C	1.315342	-0.461254	0.265077
C52	C	1.217292	-0.888285	0.166653
C53	C	1.217318	-0.935201	0.166660
C54	C	1.315576	-0.935109	0.265177
C55	C	1.315556	-0.888191	0.265165
C56	C	1.266406	-0.864781	0.215907
C57	C	1.315298	-0.362729	0.265042
C58	C	1.315278	-0.315809	0.265020
C59	C	1.217016	-0.315906	0.166507
C60	C	1.217040	-0.362821	0.166525
C61	C	1.266183	-0.386232	0.215799
O62	O	1.175342	-0.437080	0.124666
O63	O	1.357099	-0.436950	0.306972
C64	C	1.315424	-0.648915	0.265126
C65	C	1.266304	-0.672418	0.215880
C66	C	1.217165	-0.649006	0.166619
C67	C	1.266329	-0.719334	0.215887
C68	C	1.315469	-0.742747	0.265147
C69	C	1.364583	-0.719243	0.314401
C70	C	1.364564	-0.672328	0.314387
C71	C	1.168050	-0.672510	0.117365
C72	C	1.168074	-0.719425	0.117383
C73	C	1.217214	-0.742837	0.166643
C74	C	1.508801	-0.101205	0.173950
C75	C	1.612165	-0.090751	0.156107
C76	C	1.224288	-0.150221	0.458351
C77	C	1.206409	-0.160655	0.561704
C78	C	1.266393	-0.008551	0.215891
C79	C	1.266457	0.041386	0.215920
C80	C	1.308087	-0.101309	-0.025776
C81	C	1.326146	-0.090730	-0.129159
C82	C	1.394057	-0.051081	0.812039
C83	C	1.410861	-0.041278	0.714934
C84	C	1.359749	-0.071121	0.676621
C85	C	1.291831	-0.110770	0.735424
C86	C	1.275031	-0.120576	0.832538
C87	C	1.240723	-0.140616	0.697120
C88	C	1.172806	-0.180264	0.755923
C89	C	1.156008	-0.190068	0.853028
C90	C	1.207120	-0.160225	0.891340
C91	C	1.257523	-0.130810	0.600006
C92	C	1.138498	-0.200304	0.620505
C93	C	1.121694	-0.210107	0.717611
H94	H	0.717394	-0.242472	0.415096
H95	H	0.647928	-0.188317	0.322656
C96	C	0.648922	0.026560	0.048533
C97	C	0.628919	-0.018255	0.032348
H98	H	0.622926	0.046811	0.013960
H99	H	0.715178	0.038100	0.028829
H100	H	0.622213	0.025161	0.113786
H101	H	0.655634	-0.016857	-0.032905
H102	H	0.562651	-0.029797	0.052046
H103	H	0.816050	-0.008919	0.016405
H104	H	0.893601	-0.224625	0.384623
H105	H	0.602542	-0.152917	0.262230
C106	C	1.085031	-0.117328	0.108777
C107	C	1.048581	-0.080292	0.138240
H108	H	1.150938	-0.110657	0.097396
H109	H	1.073429	-0.121209	0.052544
H110	H	1.055453	-0.145234	0.156420
H111	H	1.078154	-0.052386	0.090594
H112	H	1.060191	-0.076405	0.194480
C113	C	1.461702	-0.714453	0.411794
C114	C	1.418590	-0.744984	0.368558
H115	H	1.495040	-0.730348	0.445226
H116	H	1.415002	-0.703848	0.454316
H117	H	1.504313	-0.688461	0.365155
H118	H	1.375973	-0.770975	0.415197
H119	H	1.465295	-0.755596	0.326032
C120	C	1.118248	-0.212106	1.041609
C121	C	1.188649	-0.171002	0.998084
H122	H	1.106845	-0.218756	1.107508
H123	H	1.138097	-0.237250	1.016851
H124	H	1.062052	-0.208184	1.029997
H125	H	1.244848	-0.174925	1.009690
H126	H	1.168804	-0.145852	1.022851
C127	C	1.408109	-0.459627	0.358092
C128	C	1.418495	-0.505753	0.368492
H129	H	1.441444	-0.443684	0.391521
H130	H	1.343274	-0.459653	0.382432
H131	H	1.432581	-0.444260	0.293267
H132	H	1.394016	-0.521121	0.433316
H133	H	1.483343	-0.505730	0.344156
C134	C	1.412400	-0.320439	0.362411
C135	C	1.369274	-0.289977	0.319166
H136	H	1.445727	-0.304493	0.395842
H137	H	1.455015	-0.331045	0.315786
H138	H	1.365702	-0.346437	0.404945
H139	H	1.415973	-0.263981	0.276626
H140	H	1.326655	-0.279364	0.365796
H141	H	1.355588	-0.954179	0.305286
C142	C	1.461656	-0.573679	0.411719
C143	C	1.418553	-0.604226	0.368505
H144	H	1.495022	-0.589560	0.445140
H145	H	1.414950	-0.563082	0.454250
H146	H	1.504243	-0.547683	0.365071
H147	H	1.375961	-0.630220	0.415155
H148	H	1.465265	-0.614830	0.325971
C149	C	1.040037	-0.257774	0.863535
C150	C	1.081356	-0.233651	0.917665
H151	H	0.993946	-0.284678	0.903441
H152	H	1.087082	-0.267039	0.818658
H153	H	1.011047	-0.237966	0.831809
H154	H	1.110352	-0.253458	0.949386
H155	H	1.034304	-0.224387	0.962559
H156	H	1.127987	-0.597806	0.077241
H157	H	1.177010	-0.296836	0.126396
H158	H	1.355308	-0.381786	0.305174
C159	C	1.412674	-0.892825	0.362550
C160	C	1.369542	-0.862362	0.319313
H161	H	1.445996	-0.876881	0.395987
H162	H	1.455292	-0.903426	0.315920
H163	H	1.365978	-0.918826	0.405078
H164	H	1.416238	-0.836363	0.276780
H165	H	1.326920	-0.851754	0.365949
H166	H	1.066394	-0.242389	0.765501
H167	H	1.466162	-0.008997	0.667063
C168	C	1.111389	-0.216130	0.480751
C169	C	1.082307	-0.233111	0.578403
H170	H	1.076699	-0.236381	0.454757
H171	H	1.176608	-0.214782	0.454054
H172	H	1.100569	-0.185712	0.467218
H173	H	1.093133	-0.263527	0.591936
H174	H	1.017073	-0.234464	0.605110
H175	H	1.312822	-0.098528	0.552138
C176	C	1.070932	-0.714794	0.020014
C177	C	1.114068	-0.745257	0.063245
H178	H	1.037582	-0.730743	-0.013397
H179	H	1.117619	-0.688802	-0.022528
H180	H	1.028327	-0.704184	0.066652
H181	H	1.156679	-0.755864	0.016606
H182	H	1.067376	-0.771257	0.105790
H183	H	0.951442	-0.028932	0.050573
C184	C	1.120187	-0.930569	0.069287
C185	C	1.163324	-0.961032	0.112517
H186	H	1.086845	-0.946517	0.035869
H187	H	1.166872	-0.904574	0.026752
H188	H	1.077575	-0.919963	0.115927
H189	H	1.205942	-0.971635	0.065876
H190	H	1.116633	-0.987035	0.155055
C191	C	1.094418	-0.846931	0.175196
C192	C	1.163267	-0.862557	0.112498
H193	H	1.061065	-0.831051	0.141759
H194	H	1.123660	-0.826215	0.204515
H195	H	1.051826	-0.872931	0.221828
H196	H	1.205863	-0.836556	0.065869
H197	H	1.134024	-0.883274	0.083163
C198	C	1.448612	-0.019240	0.526361
C199	C	1.378210	-0.060343	0.569883
H200	H	1.460003	-0.012583	0.460463
H201	H	1.504805	-0.023164	0.537959
H202	H	1.428765	0.005905	0.551135
H203	H	1.398061	-0.085489	0.545114
H204	H	1.322006	-0.056423	0.558277
H205	H	1.127942	-0.512701	0.077234
C206	C	1.045189	-0.631150	0.125903
C207	C	1.114034	-0.646780	0.063209
H208	H	1.011840	-0.615269	0.092463
H209	H	1.074435	-0.610434	0.155220
H210	H	1.002594	-0.657148	0.172538
H211	H	1.156634	-0.620781	0.016579
H212	H	1.084787	-0.667498	0.033878
C213	C	1.119911	-0.358197	0.069146
C214	C	1.163044	-0.388658	0.112388
H215	H	1.086566	-0.374148	0.035735
H216	H	1.166599	-0.332206	0.026604
H217	H	1.077303	-0.347586	0.115779
H218	H	1.205658	-0.399266	0.065754
H219	H	1.116350	-0.414658	0.154934
H220	H	1.404566	-0.653195	0.354490
C221	C	1.421148	-0.035264	0.951805
C222	C	1.450236	-0.018282	0.854154
H223	H	1.455833	-0.015012	0.977803
H224	H	1.431964	-0.065678	0.965339
H225	H	1.355921	-0.036611	0.978501
H226	H	1.515463	-0.016938	0.827457
H227	H	1.439428	0.012140	0.840612
