data_functionalizedCrystal
_audit_creation_method	'MofGen! by Chris Wilmer'
_symmetry_space_group_name_H-M	'P1'
_symmetry_Int_Tables_number	1
_symmetry_cell_setting	triclinic
loop_
_symmetry_equiv_pos_as_xyz
  x,y,z
_cell_length_a	10.654550
_cell_length_b	27.732048
_cell_length_c	9.130313
_cell_angle_alpha	89.993840
_cell_angle_beta	89.996220
_cell_angle_gamma	83.563778
loop_
_atom_site_label
_atom_site_type_symbol
_atom_site_fract_x
_atom_site_fract_y
_atom_site_fract_z
O1	O	1.664980	0.067884	-0.121937
O2	O	1.299230	0.074351	-0.121916
O3	O	1.493465	0.000792	-0.121899
O4	O	1.470746	0.141444	-0.121954
O5	O	1.493462	0.000794	0.121700
O6	O	1.299228	0.074353	0.121683
O7	O	1.664978	0.067886	0.121661
Cu8	Cu	1.482103	0.071120	0.143915
Cu9	Cu	1.482105	0.071117	-0.144169
O10	O	1.470743	0.141446	0.121645
C11	C	1.252451	0.073878	-0.000113
C12	C	1.113067	0.072457	-0.000103
C13	C	1.031761	0.115768	-0.000142
C14	C	0.900796	0.114430	-0.000166
C15	C	0.932457	0.026466	-0.000121
C16	C	1.063419	0.027805	-0.000086
C17	C	1.081409	0.160420	-0.000159
C18	C	1.000101	0.203734	-0.000199
C19	C	0.869136	0.202396	-0.000224
C20	C	0.819479	0.157744	-0.000209
C21	C	1.492987	-0.017217	-0.000096
C22	C	1.491551	-0.070881	-0.000084
C23	C	1.597290	-0.409038	-0.000165
C24	C	1.591962	-0.610731	-0.000185
O25	O	1.688653	-0.641384	-0.000255
N26	N	1.476789	-0.630572	-0.000177
C27	C	1.362940	-0.599986	-0.000173
O28	O	1.264856	-0.621490	-0.000182
C29	C	1.368269	-0.398294	-0.000164
C30	C	1.483449	-0.378456	-0.000157
C31	C	1.712461	-0.389199	-0.000160
C32	C	1.713792	-0.338779	-0.000147
C33	C	1.599951	-0.308197	-0.000139
C34	C	1.484780	-0.328036	-0.000144
C35	C	1.254421	-0.367709	-0.000171
C36	C	1.255764	-0.317284	-0.000172
C37	C	1.370944	-0.297446	-0.000165
C38	C	1.372271	-0.247034	-0.000123
N39	N	1.487444	-0.227193	-0.000131
C40	C	1.601284	-0.257775	-0.000139
C41	C	1.360150	-0.705877	-0.000175
C42	C	1.358817	-0.756300	-0.000175
C43	C	1.587840	-0.767041	-0.000190
C44	C	1.589171	-0.716618	-0.000180
C45	C	1.475323	-0.686036	-0.000184
C46	C	1.604070	-0.151888	-0.000111
C47	C	1.605391	-0.101463	-0.000092
C48	C	1.376369	-0.090726	-0.000085
C49	C	1.375047	-0.141147	-0.000096
C50	C	1.488908	-0.171727	-0.000114
O51	O	1.275631	-0.216352	-0.000070
O52	O	1.699354	-0.236261	-0.000163
C53	C	1.595959	-0.459458	-0.000178
C54	C	1.480788	-0.479296	-0.000183
C55	C	1.366948	-0.448715	-0.000175
C56	C	1.479455	-0.529719	-0.000183
C57	C	1.593296	-0.560301	-0.000191
C58	C	1.708469	-0.540460	-0.000199
C59	C	1.709800	-0.490040	-0.000186
C60	C	1.251774	-0.468556	-0.000167
C61	C	1.250453	-0.518976	-0.000178
C62	C	1.364293	-0.549558	-0.000186
C63	C	1.711757	0.068360	-0.000144
C64	C	1.851141	0.069780	-0.000164
C65	C	1.471221	0.159454	-0.000162
C66	C	1.472657	0.213118	-0.000183
N67	N	1.482110	0.071121	0.346538
N68	N	1.482108	0.071112	-0.346792
C69	C	1.568138	0.038560	0.423197
C70	C	1.568135	0.038554	0.576534
C71	C	1.396071	0.103675	0.576538
C72	C	1.396069	0.103678	0.423204
C73	C	1.654179	0.006003	0.346530
C74	C	1.740216	-0.026560	0.423189
C75	C	1.740212	-0.026566	0.576526
C76	C	1.654173	0.005991	0.653203
H77	H	1.188045	0.161514	-0.000146
C78	C	1.228767	-0.642947	0.125052
C79	C	1.234999	-0.672264	-0.000170
H80	H	1.151507	-0.622195	0.125052
H81	H	1.233010	-0.662844	0.209984
H82	H	1.297549	-0.623913	0.125030
H83	H	1.166222	-0.691300	-0.000142
H84	H	1.230744	-0.652364	-0.085124
C85	C	0.919073	-0.048920	0.125125
C86	C	0.877875	-0.022613	-0.000120
H87	H	0.885370	-0.079219	0.125122
H88	H	1.008695	-0.054322	0.125143
H89	H	0.891074	-0.031063	0.210051
H90	H	0.905883	-0.040468	-0.085046
H91	H	0.788235	-0.017213	-0.000151
H92	H	1.156652	-0.535123	-0.000171
C93	C	1.848165	-0.288309	-0.125388
C94	C	1.840403	-0.316977	-0.000163
H95	H	1.926332	-0.274851	-0.125395
H96	H	1.842874	-0.307754	-0.210318
H97	H	1.780562	-0.262876	-0.125361
H98	H	1.908001	-0.342414	-0.000195
H99	H	1.845707	-0.297532	0.084789
H100	H	1.265026	-0.772447	-0.000155
H101	H	1.326022	0.130182	0.638979
H102	H	1.040540	0.240088	-0.000199
C103	C	1.226005	0.168053	0.438599
C104	C	1.301513	0.139472	0.338929
H105	H	1.167633	0.190152	0.386567
H106	H	1.181230	0.147771	0.498407
H107	H	1.277945	0.185624	0.498402
H108	H	1.249573	0.121898	0.279132
H109	H	1.346291	0.159756	0.279096
H110	H	1.159070	-0.443660	-0.000164
C111	C	1.130780	-0.046756	-0.125285
C112	C	1.152808	-0.019801	-0.000059
H113	H	1.185973	-0.076145	-0.125267
H114	H	1.045692	-0.053946	-0.125294
H115	H	1.145758	-0.028459	-0.210223
H116	H	1.137820	-0.038097	0.084880
H117	H	1.237915	-0.012613	-0.000037
C118	C	1.831642	-0.117153	-0.000119
C119	C	1.732006	-0.079658	-0.000097
H120	H	1.909804	-0.103691	-0.000134
H121	H	1.826359	-0.136599	0.084821
H122	H	1.826343	-0.136592	-0.085076
H123	H	1.737300	-0.060221	0.084867
H124	H	1.737292	-0.060203	-0.085046
C125	C	0.851002	0.289478	-0.000277
C126	C	0.779761	0.250006	-0.000266
H127	H	0.795824	0.318870	-0.000317
H128	H	0.902716	0.288173	0.084679
H129	H	0.902765	0.288163	-0.085218
H130	H	0.728005	0.251319	0.084681
H131	H	0.728025	0.251311	-0.085231
C132	C	1.938964	-0.394738	-0.000148
C133	C	1.837610	-0.422810	-0.000156
H134	H	2.016230	-0.415486	-0.000128
H135	H	1.934719	-0.374848	-0.085096
H136	H	1.934689	-0.374847	0.084802
H137	H	1.841880	-0.442698	-0.085112
H138	H	1.841857	-0.442708	0.084800
H139	H	0.712838	0.156658	-0.000206
C140	C	1.120055	-0.418162	-0.125428
C141	C	1.127809	-0.389506	-0.000195
H142	H	1.041887	-0.431619	-0.125440
H143	H	1.125357	-0.398710	-0.210353
H144	H	1.187656	-0.443596	-0.125408
H145	H	1.060213	-0.364069	-0.000222
H146	H	1.122494	-0.408959	0.084751
H147	H	1.682961	-0.700469	-0.000176
H148	H	1.696787	-0.176781	-0.000131
H149	H	1.680533	-0.791950	-0.000196
H150	H	1.654192	0.006006	0.221675
H151	H	1.163052	-0.292386	-0.000177
C152	C	1.808095	-0.622527	-0.000236
C153	C	1.833605	-0.574082	-0.000219
H154	H	1.885346	-0.643285	-0.000264
H155	H	1.760839	-0.628584	0.084713
H156	H	1.760816	-0.628569	-0.085185
H157	H	1.880876	-0.568040	0.084737
H158	H	1.880881	-0.568023	-0.085176
H159	H	1.281258	-0.157300	-0.000061
C160	C	1.245038	-0.027782	-0.125314
C161	C	1.251239	-0.057104	-0.000086
H162	H	1.167784	-0.007026	-0.125324
H163	H	1.313822	-0.008756	-0.125295
H164	H	1.249282	-0.047678	-0.210251
H165	H	1.247004	-0.037208	0.084852
H166	H	1.182436	-0.076132	-0.000092
C167	C	1.815563	-0.109971	0.376043
C168	C	1.834781	-0.062358	0.338944
H169	H	1.873940	-0.132074	0.324037
H170	H	1.827858	-0.114622	0.478328
H171	H	1.731860	-0.115511	0.350898
H172	H	1.918481	-0.056817	0.364099
H173	H	1.822496	-0.057706	0.236636
C174	C	1.911296	-0.036447	0.748961
C175	C	1.834774	-0.062360	0.660797
H176	H	1.969673	-0.058545	0.800989
H177	H	1.956065	-0.016168	0.689140
H178	H	1.860045	-0.017061	0.816562
H179	H	1.886024	-0.081744	0.593188
H180	H	1.790001	-0.082647	0.720623
H181	H	1.803591	-0.473893	-0.000181
H182	H	1.654169	0.005981	0.778061
