data_functionalizedCrystal
_audit_creation_method	'MofGen! by Chris Wilmer'
_symmetry_space_group_name_H-M	'P1'
_symmetry_Int_Tables_number	1
_symmetry_cell_setting	triclinic
loop_
_symmetry_equiv_pos_as_xyz
  x,y,z
_cell_length_a	19.851628
_cell_length_b	14.560438
_cell_length_c	19.851628
_cell_angle_alpha	59.993483
_cell_angle_beta	90.001453
_cell_angle_gamma	59.998913
loop_
_atom_site_label
_atom_site_type_symbol
_atom_site_fract_x
_atom_site_fract_y
_atom_site_fract_z
Zr1	Zr	0.648976	1.005215	-0.088359
O2	O	0.541408	1.196853	-0.195944
O3	O	0.681951	0.813599	-0.055374
O4	O	0.681950	1.005224	-0.195921
O5	O	0.541410	1.005215	0.055463
O6	O	0.792812	1.005206	-0.195907
O7	O	0.541409	1.005228	-0.055398
O8	O	0.792814	0.662424	0.055505
O9	O	0.541408	1.347996	-0.195949
O10	O	0.778750	0.892392	-0.041302
O11	O	0.696016	0.892395	0.041422
O12	O	0.696014	1.118009	-0.124053
O13	O	0.613280	1.118012	-0.041329
Zr14	Zr	0.825789	1.005165	0.088472
Zr15	Zr	0.825788	1.005187	-0.088338
Zr16	Zr	0.648977	1.005193	0.088450
Zr17	Zr	0.648976	1.246271	-0.088367
Zr18	Zr	0.825789	0.764109	0.088480
O19	O	0.792814	1.196781	0.055487
O20	O	0.792812	1.196813	-0.195913
O21	O	0.541410	1.196822	0.055456
O22	O	0.933357	0.813527	0.196057
O23	O	0.933355	0.813559	-0.055344
O24	O	0.681953	0.813567	0.196026
O25	O	0.933355	1.005166	-0.055350
O26	O	0.792815	1.005157	0.196033
O27	O	0.681953	1.005174	0.196020
O28	O	0.933356	1.005152	0.055510
O29	O	0.681950	1.347974	-0.195932
O30	O	0.792815	0.662407	0.196045
O31	O	0.933357	0.662384	0.196062
O32	O	0.933356	0.662402	0.055522
O33	O	0.541409	1.347979	-0.055409
O34	O	0.681951	1.347956	-0.055392
O35	O	0.778751	0.892372	0.124166
O36	O	0.861485	0.892369	0.041442
O37	O	0.778750	1.117985	-0.041309
O38	O	0.696015	1.117988	0.041414
C39	C	0.737383	0.703666	0.000066
C40	C	0.737383	0.601332	0.000070
C41	C	0.676307	0.540411	-0.061037
C42	C	0.676306	0.636554	-0.061022
C43	C	0.798461	0.469956	0.061156
C44	C	0.798459	0.373816	0.061144
C45	C	0.615231	0.575644	-0.122138
C46	C	0.554152	0.707013	-0.183224
C47	C	0.554150	0.803156	-0.183209
C48	C	0.615227	0.767930	-0.122109
C49	C	0.516218	1.005226	0.000029
C50	C	0.441157	1.005238	0.000020
C51	C	0.214701	1.128224	-0.045072
C52	C	0.192339	1.066739	-0.077760
C53	C	0.303750	1.005204	0.000044
C54	C	0.192371	1.066697	0.032717
C55	C	0.171018	1.005181	0.000066
C56	C	0.282377	0.943719	-0.032689
C57	C	0.282407	0.943693	0.077830
C58	C	0.260098	0.882119	0.045161
C59	C	0.380212	1.005221	0.000029
C60	C	0.094561	1.005154	0.000080
C61	C	0.958547	1.005155	0.000083
C62	C	1.033608	1.005143	0.000092
C63	C	0.737381	1.005218	-0.221105
C64	C	0.737380	1.005227	-0.296166
C65	C	0.737382	1.306714	0.000046
C66	C	0.737382	1.409048	0.000043
C67	C	0.692269	1.128215	-0.567526
C68	C	0.659566	1.066753	-0.500067
C69	C	0.737383	1.005176	-0.566311
C70	C	0.770045	1.066702	-0.500055
C71	C	0.737380	1.005208	-0.433582
C72	C	0.704635	0.943713	-0.499841
C73	C	0.815157	0.943680	-0.499839
C74	C	0.782474	0.882128	-0.432368
C75	C	0.737382	1.005162	-0.642774
C76	C	0.737379	1.005213	-0.357117
C77	C	0.737384	1.005162	0.221218
C78	C	0.737385	1.005153	0.296278
C79	C	0.958547	0.703631	0.000093
C80	C	1.033609	0.601284	0.000106
C81	C	0.737385	0.703639	0.221228
C82	C	0.737385	0.601295	0.296292
C83	C	0.958549	0.703603	0.221255
C84	C	1.033611	0.601247	0.296328
C85	C	0.516216	1.306777	-0.221142
C86	C	0.441154	1.409133	-0.296215
C87	C	0.516218	1.306749	0.000019
C88	C	0.441157	1.409096	0.000007
C89	C	0.737381	1.306742	-0.221115
C90	C	0.737380	1.409086	-0.296179
C91	C	1.025671	0.553234	-0.043087
C92	C	1.096192	0.457082	-0.043092
C93	C	1.174650	0.408976	0.000101
C94	C	1.182586	0.457036	0.043296
C95	C	1.112066	0.553193	0.043295
C96	C	0.780573	0.553221	0.374741
C97	C	0.780570	0.457071	0.445278
C98	C	0.737385	0.408991	0.437364
C99	C	0.694192	0.457075	0.358906
C100	C	0.694190	0.553229	0.288371
C101	C	1.112055	0.553178	0.288402
C102	C	1.182590	0.457018	0.358934
C103	C	1.174680	0.408921	0.437391
C104	C	1.096228	0.456999	0.445316
C105	C	1.025694	0.553165	0.374784
C106	C	0.362710	1.457214	-0.288289
C107	C	0.292175	1.553404	-0.358821
C108	C	0.300085	1.601506	-0.437279
C109	C	0.378537	1.553422	-0.445203
C110	C	0.449071	1.457239	-0.374672
C111	C	0.449094	1.457157	0.043193
C112	C	0.378573	1.553335	0.043178
C113	C	0.300115	1.601445	-0.000018
C114	C	0.292179	1.553380	-0.043209
C115	C	0.362699	1.457210	-0.043199
C116	C	0.780574	1.457135	-0.288238
C117	C	0.780589	1.553285	-0.358762
C118	C	0.737406	1.601391	-0.437225
C119	C	0.694210	1.553331	-0.445165
C120	C	0.694200	1.457176	-0.374642
H121	H	0.848188	0.441287	0.110900
N122	N	0.806643	1.135591	-0.499195
H123	H	0.772517	1.228511	-0.549609
H124	H	0.865065	1.089961	-0.499504
N125	N	0.488277	0.944842	-0.249093
H126	H	0.497542	1.000405	-0.239816
H127	H	0.432233	0.964408	-0.246410
N128	N	0.615224	0.471958	-0.122160
H129	H	0.609830	0.416089	-0.068817
H130	H	0.668581	0.416194	-0.127575
N131	N	0.284740	0.744225	0.095706
H132	H	0.318139	0.697940	0.070939
H133	H	0.233558	0.745070	0.095820
N134	N	1.120609	0.605025	0.203790
H135	H	1.151761	0.644919	0.197187
H136	H	1.064004	0.673189	0.160350
H137	H	0.228289	1.592566	-0.078378
H138	H	1.246463	0.417882	0.352467
H139	H	0.961825	0.592290	0.381249
H140	H	0.815763	1.592405	-0.352282
N141	N	0.387062	1.605308	-0.529827
H142	H	0.330472	1.673528	-0.573298
H143	H	0.418239	1.531876	-0.536361
H144	H	1.246476	0.417854	0.078462
N145	N	0.827174	0.405205	0.529892
H146	H	0.820626	0.336998	0.573381
H147	H	0.804508	0.478647	0.536413
N148	N	0.615221	0.871624	-0.122084
H149	H	0.567259	0.960190	-0.170047
H150	H	0.668602	0.861975	-0.127432
H151	H	0.242645	1.679823	-0.494703
N152	N	0.224053	1.705164	-0.000025
H153	H	0.224026	1.784950	-0.024602
H154	H	0.224076	1.671570	0.058488
H155	H	0.356254	1.418054	-0.224412
N156	N	0.140934	1.135604	-0.164882
H157	H	0.123167	1.228534	-0.198928
H158	H	0.090561	1.134249	-0.164111
H159	H	1.089800	0.417825	0.509205
H160	H	0.737393	0.330696	0.494805
H161	H	0.659031	0.417913	0.352474
N162	N	0.647598	1.405370	-0.383208
H163	H	0.687195	1.308839	-0.355869
H164	H	0.620244	1.450535	-0.443631
H165	H	0.593791	1.118764	-0.499416
H166	H	0.321215	0.891739	0.143590
N167	N	0.864327	0.232126	0.127024
H168	H	0.903023	0.224393	0.165730
H169	H	0.896357	0.188611	0.100315
N170	N	1.250759	0.305199	0.513461
H171	H	1.301651	0.282050	0.496527
H172	H	1.250726	0.225469	0.547379
H173	H	0.196249	1.232244	-0.083279
H174	H	0.654073	1.232225	-0.625389
H175	H	0.228303	1.592538	-0.352353
N176	N	0.533680	1.405366	-0.383219
H177	H	0.540291	1.478725	-0.414376
H178	H	0.540216	1.365473	-0.414355
N179	N	0.533711	1.405280	0.089785
H180	H	0.528026	1.450337	0.117134
H181	H	0.564852	1.422011	0.050131
H182	H	0.321072	0.891768	-0.060388
H183	H	0.961793	0.592401	-0.078271
N184	N	0.354132	1.405377	-0.089780
H185	H	0.293727	1.450452	-0.117141
H186	H	0.381504	1.308847	-0.050120
H187	H	0.385051	1.592453	0.078352
H188	H	0.153570	1.118708	0.060340
N189	N	0.902258	0.874847	-0.500758
H190	H	0.936602	0.782407	-0.449811
H191	H	0.926821	0.921509	-0.501568
H192	H	0.815739	1.417983	-0.224356
H193	H	0.820615	0.778032	-0.374599
H194	H	0.676925	0.891772	-0.500428
N195	N	1.087622	0.405259	-0.089683
H196	H	1.027217	0.450322	-0.117037
H197	H	1.115005	0.308726	-0.050029
N198	N	1.250706	0.305250	0.000106
H199	H	1.301618	0.282057	0.034023
H200	H	1.250654	0.338805	-0.058412
N201	N	1.120633	0.605009	0.089888
H202	H	1.181038	0.559934	0.117250
H203	H	1.093262	0.588261	0.133309
H204	H	0.504421	0.735685	-0.232966
H205	H	0.815740	0.592357	0.381201
H206	H	0.737420	1.679687	-0.494643
H207	H	0.659024	0.592358	0.224496
H208	H	0.659051	1.592514	-0.509059
