data_functionalizedCrystal
_audit_creation_method	'MofGen! by Chris Wilmer'
_symmetry_space_group_name_H-M	'P1'
_symmetry_Int_Tables_number	1
_symmetry_cell_setting	triclinic
loop_
_symmetry_equiv_pos_as_xyz
  x,y,z
_cell_length_a	23.532407
_cell_length_b	16.109301
_cell_length_c	14.586319
_cell_angle_alpha	89.998390
_cell_angle_beta	90.000590
_cell_angle_gamma	83.155075
loop_
_atom_site_label
_atom_site_type_symbol
_atom_site_fract_x
_atom_site_fract_y
_atom_site_fract_z
O1	O	-0.755633	-0.100920	0.076106
O2	O	-0.589824	-0.115523	0.076138
O3	O	-0.677284	0.012846	0.076112
O4	O	-0.668174	-0.229288	0.076132
O5	O	-0.677273	0.012838	-0.076369
O6	O	-0.589813	-0.115530	-0.076343
O7	O	-0.755623	-0.100927	-0.076375
Cu8	Cu	-0.672717	-0.108230	-0.090281
Cu9	Cu	-0.672730	-0.108221	0.090045
O10	O	-0.668163	-0.229296	-0.076348
C11	C	-0.568601	-0.115155	-0.000098
C12	C	-0.505380	-0.114037	-0.000086
C13	C	-0.106531	-0.182990	-0.000110
C14	C	-0.047127	-0.181951	-0.000114
O15	O	-0.010619	-0.245872	-0.000140
N16	N	-0.024220	-0.105636	-0.000118
C17	C	-0.060719	-0.030355	-0.000127
O18	O	-0.035780	0.034652	-0.000132
C19	C	-0.120122	-0.031395	-0.000130
C20	C	-0.143027	-0.107715	-0.000117
C21	C	-0.129436	-0.259304	-0.000097
C22	C	-0.188836	-0.260342	-0.000092
C23	C	-0.225331	-0.185066	-0.000099
C24	C	-0.202427	-0.108753	-0.000111
C25	C	-0.156621	0.043886	-0.000146
C26	C	-0.216027	0.042840	-0.000150
C27	C	-0.238932	-0.033480	-0.000136
C28	C	-0.298322	-0.034516	-0.000112
N29	N	-0.321229	-0.110831	-0.000108
C30	C	-0.284734	-0.186106	-0.000101
C31	C	0.064031	-0.028178	-0.000123
C32	C	0.123433	-0.027138	-0.000114
C33	C	0.137021	-0.178734	-0.000102
C34	C	0.077618	-0.179774	-0.000105
C35	C	0.041123	-0.104493	-0.000119
C36	C	-0.409479	-0.188281	-0.000089
C37	C	-0.468885	-0.189312	-0.000079
C38	C	-0.482468	-0.037716	-0.000096
C39	C	-0.423067	-0.036684	-0.000101
C40	C	-0.386574	-0.111973	-0.000100
O41	O	-0.334865	0.029371	-0.000089
O42	O	-0.309682	-0.251102	-0.000109
C43	C	0.223154	-0.101295	-0.000129
C44	C	0.159933	-0.102414	-0.000112
C45	C	-0.676909	0.043814	-0.000129
C46	C	-0.675803	0.136100	-0.000130
C47	C	-0.668537	-0.260264	-0.000106
C48	C	-0.669644	-0.352550	-0.000099
N49	N	-0.672712	-0.108235	-0.217113
C50	C	-0.725127	0.358761	-0.000125
C51	C	-0.724083	0.445473	-0.000117
C52	C	-0.620315	0.424782	-0.000101
C53	C	-0.621360	0.338072	-0.000102
C54	C	-0.673768	0.305064	-0.000119
C55	C	-0.671679	0.478486	-0.000110
C56	C	-0.670547	0.572503	-0.000101
C57	C	-0.674900	0.211040	-0.000125
C58	C	-0.707251	-0.158392	-0.452122
C59	C	-0.707257	-0.158387	-0.548103
C60	C	-0.638198	-0.058045	-0.548108
C61	C	-0.638196	-0.058047	-0.452128
C62	C	-0.672721	-0.108226	-0.404138
C63	C	-0.672730	-0.108218	-0.596099
C64	C	-0.672736	-0.108211	-0.700166
C65	C	-0.672716	-0.108231	-0.300064
N66	N	-0.672739	-0.108208	0.216877
H67	H	-0.379772	-0.249588	-0.000091
F68	F	-0.778748	0.502618	-0.000122
H69	H	-0.207479	-0.322489	-0.000080
F70	F	-0.601442	-0.004651	-0.401057
H71	H	0.166747	-0.240028	-0.000101
H72	H	-0.245739	0.104144	-0.000162
H73	H	-0.099727	-0.320606	-0.000095
F74	F	-0.493257	-0.270546	-0.000062
F75	F	-0.564543	0.459920	-0.000082
H76	H	-0.735376	-0.199236	-0.587168
F77	F	-0.744000	-0.211792	-0.401050
H78	H	-0.610088	-0.017193	-0.587193
H79	H	-0.579534	0.294349	-0.000094
F80	F	0.053247	-0.261003	-0.000092
H81	H	-0.767801	0.331888	-0.000137
H82	H	-0.404418	0.025462	-0.000098
F83	F	-0.132258	0.125117	-0.000148
H84	H	0.142076	0.035010	-0.000111
F85	F	-0.521319	0.042393	-0.000105
F86	F	0.025195	0.051952	-0.000130
