data_functionalizedCrystal
_audit_creation_method	'MofGen! by Chris Wilmer'
_symmetry_space_group_name_H-M	'P1'
_symmetry_Int_Tables_number	1
_symmetry_cell_setting	triclinic
loop_
_symmetry_equiv_pos_as_xyz
  x,y,z
_cell_length_a	15.995350
_cell_length_b	11.792241
_cell_length_c	10.868271
_cell_angle_alpha	90.005281
_cell_angle_beta	90.000670
_cell_angle_gamma	83.842895
loop_
_atom_site_label
_atom_site_type_symbol
_atom_site_fract_x
_atom_site_fract_y
_atom_site_fract_z
O1	O	-1.111649	-0.146296	-0.102218
O2	O	-0.867956	-0.164362	-0.102244
O3	O	-0.995716	0.009891	-0.102222
O4	O	-0.983889	-0.320549	-0.102240
O5	O	-0.995706	0.009898	0.102423
O6	O	-0.867946	-0.164355	0.102401
O7	O	-1.111639	-0.146289	0.102426
Zn8	Zn	-0.989790	-0.155321	0.134905
Zn9	Zn	-0.989804	-0.155330	-0.134723
O10	O	-0.983878	-0.320542	0.102404
C11	C	-0.836753	-0.163612	0.000075
C12	C	-0.743792	-0.161372	0.000066
C13	C	-1.142842	-0.147040	0.000104
C14	C	-1.235803	-0.149279	0.000106
C15	C	-0.406008	-0.153331	0.000092
C16	C	-0.452879	-0.029232	0.000555
C17	C	-0.549579	-0.031471	0.000085
C18	C	-0.573587	-0.157320	0.000080
C19	C	-0.532784	-0.218534	-0.116781
C20	C	-0.436134	-0.215416	-0.116870
C21	C	-0.435794	-0.217973	0.115849
C22	C	-0.532740	-0.217943	0.117385
C23	C	-0.668295	-0.159581	0.000069
C24	C	-0.311300	-0.151074	0.000095
C25	C	-0.994968	0.052179	0.000100
C26	C	-0.992745	0.178174	0.000099
C27	C	-0.984627	-0.362830	0.000080
C28	C	-0.986850	-0.488825	0.000073
N29	N	-0.989787	-0.155314	0.318919
C30	C	-0.988655	0.408852	0.000078
C31	C	-0.990927	0.280486	0.000089
N32	N	-0.989814	-0.155328	-0.318737
C33	C	-0.989800	-0.155328	0.569925
C34	C	-0.989790	-0.155324	0.430248
H35	H	-0.577785	0.016646	0.083857
H36	H	-0.404448	-0.309470	0.116635
H37	H	-0.404299	-0.306528	-0.122178
H38	H	-0.560969	-0.176023	-0.203747
C39	C	-0.355883	-0.243734	0.302701
C40	C	-0.407830	-0.163097	0.235374
H41	H	-0.338618	-0.209813	0.376464
H42	H	-0.385983	-0.306534	0.322305
H43	H	-0.307809	-0.269525	0.254998
H44	H	-0.455907	-0.137312	0.283073
H45	H	-0.377729	-0.100276	0.215773
C46	C	-0.522140	0.075238	-0.180912
C47	C	-0.586903	0.033904	-0.113198
H48	H	-0.545183	0.115593	-0.250856
H49	H	-0.493866	0.125031	-0.130856
H50	H	-0.483456	0.013117	-0.206965
H51	H	-0.625583	0.096027	-0.087137
H52	H	-0.615190	-0.015892	-0.163263
H53	H	-0.417627	-0.170782	-0.204222
H54	H	-0.559849	-0.173257	0.203838
C55	C	-0.597369	-0.355970	0.236851
C56	C	-0.554042	-0.341835	0.126909
H57	H	-0.610525	-0.432457	0.242716
H58	H	-0.563130	-0.339489	0.304568
H59	H	-0.647846	-0.305559	0.237818
H60	H	-0.503562	-0.392240	0.125945
H61	H	-0.588282	-0.358329	0.059174
H62	H	-0.434127	0.020377	0.084361
H63	H	-0.433065	0.020143	-0.082783
C64	C	-0.639609	-0.346514	-0.127846
C65	C	-0.552420	-0.343347	-0.122672
H66	H	-0.651731	-0.423569	-0.131489
H67	H	-0.664856	-0.311117	-0.056512
H68	H	-0.661368	-0.307017	-0.199061
H69	H	-0.530662	-0.382837	-0.051452
H70	H	-0.527164	-0.378760	-0.194014
