data_functionalizedCrystal
_audit_creation_method	'MofGen! by Chris Wilmer'
_symmetry_space_group_name_H-M	'P1'
_symmetry_Int_Tables_number	1
_symmetry_cell_setting	triclinic
loop_
_symmetry_equiv_pos_as_xyz
  x,y,z
_cell_length_a	19.288864
_cell_length_b	14.519709
_cell_length_c	13.596369
_cell_angle_alpha	90.014408
_cell_angle_beta	89.980825
_cell_angle_gamma	96.591806
loop_
_atom_site_label
_atom_site_type_symbol
_atom_site_fract_x
_atom_site_fract_y
_atom_site_fract_z
O1	O	0.921763	-0.115045	-0.082125
O2	O	0.719558	-0.130564	-0.082060
O3	O	0.826022	0.011468	-0.082067
O4	O	0.815299	-0.257077	-0.082118
O5	O	0.826011	0.011475	0.081516
O6	O	0.719548	-0.130557	0.081523
O7	O	0.921752	-0.115038	0.081458
Zn8	Zn	0.820648	-0.122796	0.107463
Zn9	Zn	0.820662	-0.122806	-0.108065
O10	O	0.815289	-0.257070	0.081465
C11	C	0.693675	-0.130061	-0.000260
C12	C	0.616566	-0.128562	-0.000234
C13	C	0.825517	0.045828	-0.000270
C14	C	0.824019	0.148200	-0.000255
C15	C	0.572169	-0.211900	-0.000265
C16	C	0.499717	-0.210492	-0.000276
C17	C	0.471665	-0.125741	-0.000275
C18	C	0.516071	-0.042392	-0.000238
C19	C	0.588521	-0.043803	-0.000217
C20	C	0.363167	-0.059120	-0.057606
C21	C	0.290717	-0.057713	-0.057632
C22	C	0.248203	-0.121387	-0.000334
C23	C	0.278147	-0.186483	0.056979
C24	C	0.350597	-0.187894	0.056999
C25	C	0.393105	-0.124202	-0.000297
C26	C	0.125246	-0.203203	-0.000375
C27	C	0.052792	-0.201792	-0.000380
C28	C	0.069148	-0.033689	-0.000351
C29	C	0.141599	-0.035103	-0.000337
C30	C	0.169644	-0.119863	-0.000354
C31	C	0.818507	0.523061	-0.000226
C32	C	0.820037	0.418762	-0.000234
C33	C	0.821263	0.335633	-0.000240
C34	C	0.822794	0.231329	-0.000249
C35	C	0.947636	-0.115541	-0.000344
C36	C	1.024745	-0.117040	-0.000377
N37	N	0.820644	-0.122789	0.254554
C38	C	0.815794	0.708570	-0.000299
C39	C	0.817291	0.606198	-0.000217
N40	N	0.820672	-0.122806	-0.255157
C41	C	0.820661	-0.122807	0.655845
C42	C	0.820654	-0.122805	0.544194
C43	C	0.820653	-0.122799	0.455203
C44	C	0.820645	-0.122795	0.343545
H45	H	0.594998	-0.280918	-0.000281
H46	H	0.493226	0.026613	-0.000251
C47	C	0.637360	0.047880	-0.000189
N48	N	0.674146	0.116936	-0.000172
H49	H	0.016645	-0.269658	-0.000400
C50	C	0.190438	0.056576	-0.000314
N51	N	0.227223	0.125634	-0.000295
C52	C	0.383533	-0.259490	0.120052
N53	N	0.408340	-0.313414	0.167549
C54	C	0.450872	-0.302174	-0.000322
N55	N	0.414084	-0.371229	-0.000362
C56	C	0.231387	-0.256528	0.120016
N57	N	0.196164	-0.309284	0.167493
H58	H	0.148080	-0.272220	-0.000374
C59	C	0.038294	0.059538	-0.000349
N60	N	0.015052	0.129760	-0.000345
C61	C	0.409925	0.010927	-0.120647
N62	N	0.445142	0.063684	-0.168130
C63	C	0.257787	0.013900	-0.120670
N64	N	0.232986	0.067843	-0.168147
