data_functionalizedCrystal
_audit_creation_method	'MofGen! by Chris Wilmer'
_symmetry_space_group_name_H-M	'P1'
_symmetry_Int_Tables_number	1
_symmetry_cell_setting	triclinic
loop_
_symmetry_equiv_pos_as_xyz
  x,y,z
_cell_length_a	23.532407
_cell_length_b	27.732048
_cell_length_c	22.610064
_cell_angle_alpha	89.999096
_cell_angle_beta	89.997161
_cell_angle_gamma	82.745667
loop_
_atom_site_label
_atom_site_type_symbol
_atom_site_fract_x
_atom_site_fract_y
_atom_site_fract_z
O1	O	0.755138	0.058672	-0.049117
O2	O	0.589257	0.067162	-0.049135
O3	O	0.677349	-0.007472	-0.049114
O4	O	0.667046	0.133306	-0.049138
O5	O	0.677334	-0.007461	0.049255
O6	O	0.589241	0.067173	0.049234
O7	O	0.755123	0.058683	0.049252
Zn8	Zn	0.672179	0.062930	0.064861
Zn9	Zn	0.672200	0.062915	-0.064744
O10	O	0.667030	0.133317	0.049231
C11	C	0.568033	0.066952	0.000047
C12	C	0.504818	0.066302	0.000041
C13	C	0.105629	0.106391	0.000061
C14	C	0.046230	0.105787	0.000064
O15	O	0.009406	0.142951	0.000080
N16	N	0.023699	0.061418	0.000071
C17	C	0.060570	0.017649	0.000080
O18	O	0.035951	-0.020147	0.000086
C19	C	0.119967	0.018253	0.000080
C20	C	0.142495	0.062626	0.000068
C21	C	0.128158	0.150760	0.000049
C22	C	0.187552	0.151364	0.000044
C23	C	0.224419	0.107599	0.000051
C24	C	0.201890	0.063229	0.000063
C25	C	0.156837	-0.025515	0.000093
C26	C	0.216239	-0.024907	0.000094
C27	C	0.238766	0.019466	0.000082
C28	C	0.298151	0.020068	0.000065
N29	N	0.320683	0.064437	0.000059
C30	C	0.283817	0.108203	0.000052
C31	C	-0.064170	0.016383	0.000080
C32	C	-0.123567	0.015778	0.000075
C33	C	-0.137902	0.103917	0.000061
C34	C	-0.078505	0.104521	0.000061
C35	C	-0.041639	0.060753	0.000073
C36	C	0.408551	0.109467	0.000041
C37	C	0.467951	0.110067	0.000034
C38	C	0.482282	0.021928	0.000051
C39	C	0.422886	0.021328	0.000055
C40	C	0.386021	0.065102	0.000052
O41	O	0.335010	-0.017077	0.000052
O42	O	0.308444	0.145992	0.000053
C43	C	0.677125	-0.025473	0.000072
C44	C	0.676474	-0.079129	0.000077
C45	C	0.724431	-0.417871	0.000052
C46	C	0.722014	-0.619534	0.000043
O47	O	0.765867	-0.650722	0.000022
N48	N	0.669779	-0.638738	0.000038
C49	C	0.618144	-0.607523	0.000031
O50	O	0.573659	-0.628484	0.000020
C51	C	0.620561	-0.405860	0.000035
C52	C	0.672800	-0.386659	0.000046
C53	C	0.776665	-0.398669	0.000062
C54	C	0.777269	-0.348256	0.000067
C55	C	0.725638	-0.317045	0.000062
C56	C	0.673403	-0.336247	0.000052
C57	C	0.568927	-0.374646	0.000024
C58	C	0.569536	-0.324228	0.000024
C59	C	0.621775	-0.305027	0.000035
C60	C	0.622376	-0.254622	0.000052
N61	N	0.674611	-0.235418	0.000057
C62	C	0.726242	-0.266630	0.000062
C63	C	0.616879	-0.713399	0.000030
C64	C	0.616274	-0.763814	0.000030
C65	C	0.720145	-0.775822	0.000041
C66	C	0.720749	-0.725406	0.000045
C67	C	0.669114	-0.694195	0.000035
C68	C	0.727506	-0.160758	0.000074
C69	C	0.728105	-0.110341	0.000082
C70	C	0.624235	-0.098337	0.000068
C71	C	0.623635	-0.148751	0.000063
C72	C	0.675276	-0.179961	0.000064
O73	O	0.578547	-0.223406	0.000066
O74	O	0.770721	-0.245659	0.000060
C75	C	0.723827	-0.468283	0.000046
C76	C	0.671593	-0.487485	0.000036
C77	C	0.619962	-0.456274	0.000030
C78	C	0.670988	-0.537900	0.000036
C79	C	0.722619	-0.569112	0.000041
C80	C	0.774855	-0.549908	0.000046
C81	C	0.775458	-0.499495	0.000051
C82	C	0.567727	-0.475478	0.000025
C83	C	0.567127	-0.525891	0.000021
C84	C	0.618758	-0.557103	0.000026
C85	C	0.776346	0.058894	0.000068
C86	C	0.839562	0.059544	0.000071
C87	C	0.667254	0.151319	0.000044
C88	C	0.667905	0.204975	0.000035
N89	N	0.672170	0.062939	0.153314
N90	N	0.672214	0.062902	-0.153197
C91	C	0.711209	0.029873	0.561964
C92	C	0.711212	0.029869	0.623884
O93	O	0.744380	0.001762	0.655911
N94	N	0.672200	0.062905	0.654851
C95	C	0.633178	0.095944	0.623894
O96	O	0.599995	0.124044	0.655919
C97	C	0.633173	0.095945	0.561975
C98	C	0.672191	0.062910	0.531012
C99	C	0.750224	-0.003160	0.531001
C100	C	0.750222	-0.003156	0.469085
C101	C	0.711204	0.029881	0.438133
C102	C	0.672189	0.062914	0.469096
C103	C	0.594149	0.128981	0.531020
C104	C	0.594146	0.128979	0.469097
C105	C	0.633165	0.095944	0.438134
C106	C	0.633169	0.095955	0.376229
N107	N	0.672182	0.062919	0.345262
C108	C	0.711199	0.029882	0.376214
C109	C	0.633191	0.095939	0.753928
C110	C	0.633198	0.095941	0.815846
C111	C	0.711232	0.029865	0.815831
C112	C	0.711227	0.029866	0.753912
C113	C	0.672203	0.062903	0.722961
C114	C	0.711192	0.029894	0.246187
C115	C	0.711187	0.029902	0.184266
C116	C	0.633152	0.095976	0.184286
C117	C	0.633158	0.095969	0.246201
C118	C	0.672180	0.062924	0.277150
O119	O	0.600016	0.124047	0.344163
O120	O	0.744372	0.001783	0.344182
H121	H	0.246253	-0.060550	0.000104
C122	C	0.776938	-0.810160	0.000037
H123	H	0.769091	-0.842934	0.000029
H124	H	0.798380	-0.804372	0.034338
H125	H	0.798373	-0.804364	-0.034273
C126	C	0.793150	-0.039502	0.565039
H127	H	0.816385	-0.059169	0.537722
H128	H	0.772854	-0.059541	0.589199
H129	H	0.816709	-0.022212	0.589186
C130	C	0.567444	-0.064001	0.000058
H131	H	0.536244	-0.082654	0.000055
H132	H	0.565533	-0.044085	-0.034245
H133	H	0.565514	-0.044085	0.034366
H134	H	0.817996	-0.483866	0.000060
H135	H	0.781993	-0.030058	0.443879
H136	H	0.601391	0.122874	0.271412
C137	C	0.785570	-0.089222	0.000091
H138	H	0.816231	-0.115034	0.000086
H139	H	0.787962	-0.069807	0.034395
H140	H	0.787969	-0.069804	-0.034216
H141	H	0.512309	-0.013704	0.000054
H142	H	0.601432	0.122847	0.841052
C143	C	-0.178460	0.152060	0.000057
H144	H	-0.156540	0.178575	0.000048
H145	H	-0.201931	0.153657	0.034361
H146	H	-0.201928	0.153650	-0.034250
H147	H	0.601415	0.122846	0.728730
H148	H	0.562367	0.155881	0.443900
H149	H	0.742963	0.003001	0.159057
C150	C	0.212328	0.200173	0.000035
H151	H	0.252984	0.194271	0.000030
H152	H	0.199643	0.218184	0.034335
H153	H	0.199646	0.218175	-0.034276
H154	H	0.562376	0.155881	0.556222
H155	H	0.601386	0.122876	0.159075
H156	H	0.742966	0.002985	0.271379
H157	H	0.742999	0.002966	0.728706
H158	H	0.769556	-0.186164	0.000073
H159	H	0.138506	-0.061648	0.000104
C160	C	0.492729	0.158879	0.000023
H161	H	0.462262	0.184856	0.000026
H162	H	0.515602	0.160945	-0.034282
H163	H	0.515600	0.160950	0.034330
H164	H	0.743002	0.002964	0.841044
C165	C	0.398104	-0.027480	0.000062
H166	H	0.428570	-0.053458	0.000067
H167	H	0.375228	-0.029552	-0.034237
H168	H	0.375235	-0.029544	0.034375
H169	H	0.574829	-0.687991	0.000022
C170	C	0.368008	0.157617	0.000030
H171	H	0.389939	0.184124	0.000016
H172	H	0.344535	0.159225	0.034332
H173	H	0.344543	0.159208	-0.034279
H174	H	0.819807	-0.332628	0.000074
C175	C	0.833464	-0.432994	0.000073
H176	H	0.864655	-0.414331	0.000083
H177	H	0.835403	-0.452914	-0.034228
H178	H	0.835383	-0.452908	0.034383
H179	H	0.098146	0.186402	0.000045
H180	H	-0.141903	-0.020355	0.000076
H181	H	-0.060167	0.140653	0.000054
H182	H	-0.034156	-0.019261	0.000084
H183	H	0.581099	-0.164385	0.000070
C184	C	0.778210	-0.704289	0.000052
H185	H	0.808870	-0.730102	0.000052
H186	H	0.780603	-0.684870	0.034354
H187	H	0.780613	-0.684874	-0.034257
H188	H	0.573737	-0.779443	0.000031
C189	C	0.511464	-0.395756	0.000007
H190	H	0.480806	-0.369941	-0.000004
H191	H	0.509053	-0.415175	0.034307
H192	H	0.509075	-0.415170	-0.034305
C193	C	0.512736	-0.289899	0.000015
H194	H	0.481542	-0.308558	0.000012
H195	H	0.510818	-0.269980	-0.034287
H196	H	0.510805	-0.269985	0.034325
C197	C	0.831647	-0.584246	0.000047
H198	H	0.823800	-0.617020	0.000038
H199	H	0.853086	-0.578458	0.034351
H200	H	0.853087	-0.578451	-0.034260
H201	H	0.525681	-0.450070	0.000020
C202	C	0.509661	-0.547007	0.000006
H203	H	0.479001	-0.521194	-0.000002
H204	H	0.507252	-0.566428	0.034305
H205	H	0.507274	-0.566419	-0.034307
