data_functionalizedCrystal
_audit_creation_method	'MofGen! by Chris Wilmer'
_symmetry_space_group_name_H-M	'P1'
_symmetry_Int_Tables_number	1
_symmetry_cell_setting	triclinic
loop_
_symmetry_equiv_pos_as_xyz
  x,y,z
_cell_length_a	19.188933
_cell_length_b	19.188930
_cell_length_c	10.268362
_cell_angle_alpha	90.006464
_cell_angle_beta	90.003185
_cell_angle_gamma	83.145175
loop_
_atom_site_label
_atom_site_type_symbol
_atom_site_fract_x
_atom_site_fract_y
_atom_site_fract_z
O1	O	0.926144	0.087171	0.108271
O2	O	0.722833	0.098903	0.108285
O3	O	0.830356	-0.008619	0.108253
O4	O	0.818622	0.194693	0.108304
O5	O	0.830346	-0.008615	-0.108348
O6	O	0.722823	0.098907	-0.108315
O7	O	0.926134	0.087174	-0.108329
Cu8	Cu	0.824478	0.093041	-0.128100
Cu9	Cu	0.824490	0.093037	0.128056
O10	O	0.818611	0.194696	-0.108296
C11	C	0.696817	0.098525	-0.000013
C12	C	0.619313	0.097384	-0.000009
C13	C	0.066063	0.089237	0.118044
C14	C	0.138887	0.090305	0.118049
C15	C	0.175299	0.090844	-0.000019
C16	C	0.138882	0.090297	-0.118102
C17	C	0.066060	0.089222	-0.118104
N18	N	0.284314	0.132264	-0.087893
N19	N	0.353492	0.133287	-0.087883
C20	C	0.394707	0.094082	-0.000021
N21	N	0.364130	0.053824	0.087851
N22	N	0.294946	0.052804	0.087845
C23	C	0.254262	0.092009	-0.000030
C24	C	0.510080	0.095782	0.118060
C25	C	0.582906	0.096846	0.118060
C26	C	0.582899	0.096845	-0.118094
C27	C	0.510075	0.095774	-0.118091
C28	C	0.473669	0.095246	-0.000010
C29	C	0.829971	-0.034628	-0.000051
C30	C	0.828830	-0.112132	-0.000063
C31	C	0.891921	-0.157056	-0.000073
C32	C	0.890849	-0.229880	-0.000052
C33	C	0.826683	-0.257777	-0.000047
C34	C	0.763584	-0.212843	-0.000029
C35	C	0.764658	-0.140021	-0.000037
N36	N	0.777632	-0.365781	-0.073757
N37	N	0.776617	-0.434959	-0.073752
C38	C	0.823445	-0.477185	-0.000020
N39	N	0.871338	-0.447621	0.073690
N40	N	0.872355	-0.378436	0.073680
C41	C	0.825512	-0.336739	-0.000037
C42	C	0.885378	-0.601073	-0.000006
C43	C	0.884304	-0.673898	0.000023
C44	C	0.757037	-0.656860	0.000033
C45	C	0.758113	-0.584037	0.000017
C46	C	0.822286	-0.556148	-0.000009
C47	C	0.952150	0.087553	-0.000027
C48	C	1.029655	0.088694	-0.000023
C49	C	0.818997	0.220705	0.000011
C50	C	0.820137	0.298210	0.000030
N51	N	0.824474	0.093044	-0.308265
C52	C	0.824479	0.093044	-0.426108
C53	C	0.824488	0.093038	-0.573946
N54	N	0.824499	0.093028	0.308222
H55	H	0.944175	-0.134354	-0.000090
H56	H	0.704792	-0.679573	0.000044
C57	C	0.470031	0.095204	0.247940
H58	H	0.502148	0.095673	0.318260
H59	H	0.436179	0.135495	0.252845
H60	H	0.447067	0.054078	0.252851
C61	C	0.688712	-0.534619	0.000007
H62	H	0.650343	-0.561661	0.000001
H63	H	0.686487	-0.505848	0.075534
H64	H	0.686485	-0.505867	-0.075543
H65	H	0.935682	-0.710475	0.000021
H66	H	0.036427	0.088804	0.214194
C67	C	0.960252	-0.279304	-0.000073
H68	H	0.998623	-0.252265	-0.000098
H69	H	0.962486	-0.308064	0.075459
H70	H	0.962466	-0.308068	-0.075618
H71	H	0.480431	0.095335	-0.214234
H72	H	0.713280	-0.103444	-0.000029
C73	C	0.178944	0.090911	0.247927
H74	H	0.146831	0.090447	0.318250
H75	H	0.212805	0.050628	0.252842
H76	H	0.201896	0.132045	0.252824
H77	H	0.937631	-0.578365	-0.000021
H78	H	0.168533	0.090735	-0.214234
H79	H	0.711340	-0.235562	-0.000022
H80	H	0.036417	0.088783	-0.214251
C81	C	0.622958	0.097447	0.247938
H82	H	0.671544	0.098156	0.231030
H83	H	0.605575	0.137981	0.296447
H84	H	0.616474	0.056564	0.296454
C85	C	0.622942	0.097438	-0.247967
H86	H	0.671527	0.098160	-0.231058
H87	H	0.616455	0.056557	-0.296491
H88	H	0.605557	0.137974	-0.296471
