data_functionalizedCrystal
_audit_creation_method	'MofGen! by Chris Wilmer'
_symmetry_space_group_name_H-M	'P1'
_symmetry_Int_Tables_number	1
_symmetry_cell_setting	triclinic
loop_
_symmetry_equiv_pos_as_xyz
  x,y,z
_cell_length_a	15.297475
_cell_length_b	16.120484
_cell_length_c	15.296720
_cell_angle_alpha	78.013482
_cell_angle_beta	88.382886
_cell_angle_gamma	83.687474
loop_
_atom_site_label
_atom_site_type_symbol
_atom_site_fract_x
_atom_site_fract_y
_atom_site_fract_z
Zn1	Zn	1.212936	-0.646916	0.755054
Zn2	Zn	1.712936	-0.146916	1.255054
Zn3	Zn	1.230712	-0.766607	0.613834
Zn4	Zn	1.730712	-0.266607	1.113834
Zn5	Zn	1.094735	-0.600220	0.581241
Zn6	Zn	1.594735	-0.100220	1.081241
Zn7	Zn	1.059450	-0.758436	0.734603
Zn8	Zn	1.559450	-0.258436	1.234603
O9	O	1.149458	-0.693045	0.671183
O10	O	1.649458	-0.193045	1.171183
O11	O	1.336436	-0.685755	0.758520
O12	O	1.836436	-0.185755	1.258520
O13	O	1.234881	-0.728412	0.486227
O14	O	1.734881	-0.228412	0.986227
O15	O	1.117742	-0.490110	0.599215
O16	O	1.617742	0.009890	1.099215
O17	O	1.349496	-0.773691	0.654766
O18	O	1.849496	-0.273691	1.154766
O19	O	1.204584	-0.524417	0.726915
O20	O	1.704584	-0.024417	1.226915
O21	O	1.134979	-0.606169	0.462280
O22	O	1.634979	-0.106169	0.962280
O23	O	0.968913	-0.598246	0.579385
O24	O	1.468913	-0.098246	1.079385
O25	O	1.057604	-0.759766	0.860600
O26	O	1.557604	-0.259766	1.360600
O27	O	0.942989	-0.714486	0.692060
O28	O	1.442989	-0.214486	1.192060
O29	O	1.170370	-0.677833	0.875625
O30	O	1.670370	-0.177833	1.375625
O31	O	1.200666	-0.881827	0.634936
O32	O	1.700666	-0.381827	1.134936
O33	O	1.074840	-0.875825	0.723665
O34	O	1.574840	-0.375825	1.223665
C35	C	0.924540	-0.650413	0.629967
C36	C	1.424540	-0.150413	1.129967
C37	C	0.828314	-0.632198	0.612357
C38	C	1.328314	-0.132198	1.112357
C39	C	0.503218	-0.823238	0.797050
C40	C	1.003218	-0.323238	1.297050
C41	C	0.593627	-0.840358	0.813594
C42	C	1.093627	-0.340358	1.313594
C43	C	0.652303	-0.788320	0.763286
C44	C	1.152303	-0.288320	1.263286
C45	C	0.620561	-0.719158	0.696432
C46	C	1.120561	-0.219158	1.196432
C47	C	0.530143	-0.702040	0.679882
C48	C	1.030143	-0.202040	1.179882
C49	C	0.679229	-0.667122	0.646118
C50	C	1.179229	-0.167122	1.146118
C51	C	0.647487	-0.597960	0.579263
C52	C	1.147487	-0.097960	1.079263
C53	C	0.557078	-0.580845	0.562717
C54	C	1.057078	-0.080845	1.062717
C55	C	0.498402	-0.632884	0.613024
C56	C	0.998402	-0.132884	1.113024
C57	C	0.769646	-0.684239	0.662668
C58	C	1.269646	-0.184239	1.162668
C59	C	0.796572	-0.563041	0.545499
C60	C	1.296572	-0.063041	1.045499
C61	C	0.706162	-0.545921	0.528956
C62	C	1.206162	-0.045921	1.028956
C63	C	1.135873	-0.908989	0.680642
C64	C	1.635873	-0.408989	1.180642
C65	C	1.130135	-1.001390	0.684732
C66	C	1.630135	-0.501390	1.184732
C67	C	1.119661	-1.170572	0.692219
C68	C	1.619661	-0.670572	1.192219
C69	C	1.179408	-1.214709	0.650189
C70	C	1.679408	-0.714709	1.150189
C71	C	1.173580	-1.308847	0.654355
C72	C	1.673580	-0.808847	1.154355
C73	C	1.125488	-1.076425	0.688054
C74	C	1.625488	-0.576425	1.188054
C75	C	1.375255	-0.735844	0.712560
C76	C	1.875255	-0.235844	1.212560
C77	C	1.471476	-0.754082	0.730193
C78	C	1.971476	-0.254082	1.230193
C79	C	1.108068	-0.723097	0.900972
C80	C	1.608068	-0.223097	1.400972
C81	C	1.090430	-0.735903	0.998895
C82	C	1.590430	-0.235903	1.498895
C83	C	1.163116	-0.476264	0.661711
C84	C	1.663116	0.023736	1.161711
C85	C	1.168937	-0.383885	0.657674
C86	C	1.668937	0.116115	1.157674
C87	C	1.190741	-0.663059	0.442294
C88	C	1.690741	-0.163059	0.942294
C89	C	1.208562	-0.650051	0.344393
C90	C	1.708562	-0.150051	0.844393
C91	C	1.275562	-0.601377	1.306214
C92	C	1.775562	-0.101377	1.806214
C93	C	1.292140	-0.589347	1.214212
C94	C	1.792140	-0.089347	1.714212
C95	C	1.241714	-0.625985	1.160378
C96	C	1.741714	-0.125985	1.660378
C97	C	1.174707	-0.674655	1.198556
C98	C	1.674707	-0.174655	1.698556
C99	C	1.158133	-0.686691	1.290568
C100	C	1.658133	-0.186691	1.790568
C101	C	1.124284	-0.711299	1.144732
C102	C	1.624284	-0.211299	1.644732
C103	C	1.057278	-0.759969	1.182909
C104	C	1.557278	-0.259969	1.682909
C105	C	1.040706	-0.772003	1.274912
C106	C	1.540706	-0.272003	1.774912
C107	C	1.091132	-0.735365	1.328746
C108	C	1.591132	-0.235365	1.828746
C109	C	1.140858	-0.699263	1.052720
C110	C	1.640858	-0.199263	1.552720
C111	C	1.023429	-0.784577	1.037073
C112	C	1.523429	-0.284577	1.537073
C113	C	1.006852	-0.796607	1.129075
C114	C	1.506852	-0.296607	1.629075
H115	H	0.619465	-0.896671	0.868025
H116	H	1.119465	-0.396671	1.368025
H117	H	1.077639	-0.745157	1.403662
H118	H	1.577639	-0.245157	1.903662
H119	H	1.346698	-0.549722	1.183136
H120	H	1.846698	-0.049722	1.683136
H121	H	1.064138	-1.203483	0.731327
H122	H	1.564138	-0.703483	1.231327
N123	N	1.252957	-1.171116	0.598375
N124	N	1.752957	-0.671116	1.098375
H125	H	1.292019	-1.213690	0.570904
H126	H	1.792019	-0.713690	1.070904
H127	H	1.288715	-1.147316	0.640040
H128	H	1.788715	-0.647316	1.140040
N129	N	0.934590	-0.849101	1.170271
N130	N	1.434590	-0.349101	1.670271
H131	H	0.947169	-0.908941	1.159324
H132	H	1.447169	-0.408941	1.659324
H133	H	0.876464	-0.822304	1.142349
H134	H	1.376464	-0.322304	1.642349
H135	H	0.725918	-0.802263	0.776760
H136	H	1.225918	-0.302263	1.276760
N137	N	0.968441	-0.824503	1.316086
N138	N	1.468441	-0.324503	1.816086
H139	H	0.923577	-0.788117	1.345436
H140	H	1.423577	-0.288117	1.845436
H141	H	0.994391	-0.874675	1.362347
H142	H	1.494391	-0.374675	1.862347
H143	H	1.195415	-0.659634	1.021645
H144	H	1.695415	-0.159634	1.521645
N145	N	1.259589	-0.613012	1.061148
N146	N	1.759589	-0.113012	1.561148
H147	H	1.309687	-0.576620	1.045131
H148	H	1.809687	-0.076620	1.545131
H149	H	1.205116	-0.583603	1.027503
H150	H	1.705116	-0.083603	1.527503
H151	H	0.982369	-0.814412	0.993241
H152	H	1.482369	-0.314412	1.493241
N153	N	0.803872	-0.758831	0.734770
N154	N	1.303872	-0.258831	1.234770
H155	H	0.777611	-0.751275	0.794300
H156	H	1.277611	-0.251275	1.294300
H157	H	0.870050	-0.761745	0.737545
H158	H	1.370050	-0.261745	1.237545
N159	N	0.439937	-0.879367	0.851296
N160	N	0.939937	-0.379367	1.351296
H161	H	0.377846	-0.858029	0.830663
H162	H	0.877846	-0.358029	1.330663
H163	H	0.445214	-0.877755	0.916572
H164	H	0.945214	-0.377755	1.416572
H165	H	0.531238	-0.524537	0.508270
H166	H	1.031238	-0.024537	1.008270
H167	H	0.424782	-0.618947	0.599559
H168	H	0.924782	-0.118947	1.099559
H169	H	0.680305	-0.489610	0.474522
H170	H	1.180305	0.010390	0.974522
N171	N	0.859847	-0.506911	0.491229
N172	N	1.359847	-0.006911	0.991229
H173	H	0.921939	-0.528247	0.511859
H174	H	1.421939	-0.028247	1.011859
H175	H	0.845286	-0.446385	0.499551
H176	H	1.345286	0.053615	0.999551
N177	N	1.329951	-0.561872	1.364276
N178	N	1.829951	-0.061872	1.864276
H179	H	1.309284	-0.576886	1.428354
H180	H	1.809284	-0.076886	1.928354
H181	H	1.323118	-0.497857	1.343139
H182	H	1.823118	0.002143	1.843139
