data_functionalizedCrystal
_audit_creation_method	'MofGen! by Chris Wilmer'
_symmetry_space_group_name_H-M	'P1'
_symmetry_Int_Tables_number	1
_symmetry_cell_setting	triclinic
loop_
_symmetry_equiv_pos_as_xyz
  x,y,z
_cell_length_a	12.759401
_cell_length_b	29.839131
_cell_length_c	12.759393
_cell_angle_alpha	89.963184
_cell_angle_beta	89.979062
_cell_angle_gamma	90.042945
loop_
_atom_site_label
_atom_site_type_symbol
_atom_site_fract_x
_atom_site_fract_y
_atom_site_fract_z
Zn1	Zn	1.606071	-0.178813	-0.593974
Zn2	Zn	1.605880	-0.253950	-0.418275
Zn3	Zn	1.430370	-0.178837	-0.418309
Zn4	Zn	1.430280	-0.253919	-0.593912
O5	O	1.518150	-0.216380	-0.506117
O6	O	1.753067	-0.188784	-0.570679
O7	O	1.582556	-0.244010	-0.271258
O8	O	1.453795	-0.115967	-0.441652
O9	O	1.752927	-0.243986	-0.441593
O10	O	1.582882	-0.115949	-0.570712
O11	O	1.453610	-0.188824	-0.271283
O12	O	1.283337	-0.188794	-0.441592
O13	O	1.453641	-0.243933	-0.740941
O14	O	1.283271	-0.243956	-0.570606
O15	O	1.582794	-0.188753	-0.740987
O16	O	1.582469	-0.316813	-0.441533
O17	O	1.453456	-0.316790	-0.570573
C18	C	1.245183	-0.216375	-0.506097
C19	C	1.128406	-0.216383	-0.506113
C20	C	1.073538	-0.245150	-0.573185
C21	C	0.963813	-0.245151	-0.573206
C22	C	0.963837	-0.187618	-0.439073
C23	C	1.073559	-0.187615	-0.439058
C24	C	1.517961	-0.333103	-0.506065
C25	C	1.517976	-0.383037	-0.506078
C26	C	1.585450	-0.692680	-0.439024
C27	C	1.585579	-0.880353	-0.439065
O28	O	1.642798	-0.904617	-0.382014
N29	N	1.518368	-0.903822	-0.506197
C30	C	1.451125	-0.880370	-0.573327
O31	O	1.393969	-0.904638	-0.630435
C32	C	1.451001	-0.692698	-0.573291
C33	C	1.518209	-0.669231	-0.506148
C34	C	1.652653	-0.669213	-0.371888
C35	C	1.652616	-0.622297	-0.371874
C36	C	1.585375	-0.598849	-0.438997
C37	C	1.518172	-0.622316	-0.506134
C38	C	1.383764	-0.669247	-0.640427
C39	C	1.383741	-0.622326	-0.640413
C40	C	1.450949	-0.598859	-0.573270
C41	C	1.450895	-0.551952	-0.573244
N42	N	1.518106	-0.528482	-0.506113
C43	C	1.585346	-0.551931	-0.438989
C44	C	1.451193	-0.978901	-0.573340
C45	C	1.451223	-1.025819	-0.573348
C46	C	1.585679	-1.025798	-0.439087
C47	C	1.585643	-0.978879	-0.439075
C48	C	1.518404	-0.955431	-0.506209
C49	C	1.585262	-0.453405	-0.438965
C50	C	1.585216	-0.406486	-0.438955
C51	C	1.450764	-0.406510	-0.573219
C52	C	1.450806	-0.453426	-0.573226
C53	C	1.518064	-0.476872	-0.506096
O54	O	1.393715	-0.527659	-0.630274
O55	O	1.642510	-0.527655	-0.381907
C56	C	1.585487	-0.739595	-0.439038
C57	C	1.518284	-0.763062	-0.506175
C58	C	1.451043	-0.739613	-0.573298
C59	C	1.518313	-0.809980	-0.506183
C60	C	1.585553	-0.833428	-0.439060
C61	C	1.652764	-0.809959	-0.371928
C62	C	1.652727	-0.763044	-0.371915
C63	C	1.383832	-0.763083	-0.640430
C64	C	1.383874	-0.809998	-0.640437
C65	C	1.451114	-0.833447	-0.573314
C66	C	1.792184	-0.216386	-0.506139
C67	C	1.908960	-0.216388	-0.506148
C68	C	1.518229	-0.216337	-0.780151
C69	C	1.518263	-0.216318	-0.896928
C70	C	1.518370	-0.099202	-0.506193
C71	C	1.518463	-0.049267	-0.506225
C72	C	1.585518	-0.187582	-0.951815
C73	C	1.585535	-0.187562	-1.061539
C74	C	1.451040	-0.245020	-1.061479
C75	C	1.451018	-0.245037	-0.951757
C76	C	1.518133	-0.216391	-0.233150
C77	C	1.518303	-0.216282	-0.116374
H78	H	1.118191	-0.268573	-0.627787
H79	H	1.396294	-0.268403	-1.106134
C80	C	1.377025	-0.276650	-0.891377
N81	N	1.321293	-0.300459	-0.845899
H82	H	0.919144	-0.268576	-0.627824
H83	H	0.919167	-0.164197	-0.384478
H84	H	1.118234	-0.164187	-0.384440
C85	C	1.309771	-0.596536	-0.714269
N86	N	1.254056	-0.577113	-0.769895
C87	C	1.659148	-0.380675	-0.365084
N88	N	1.714831	-0.361236	-0.309445
H89	H	1.640270	-0.164196	-0.907176
H90	H	1.640032	-0.472490	-0.384304
C91	C	1.726542	-0.596490	-0.298002
N92	N	1.782224	-0.577055	-0.242355
C93	C	1.376871	-0.479240	-0.647083
N94	N	1.321189	-0.498680	-0.702722
C95	C	1.726624	-0.694999	-0.298034
N96	N	1.782336	-0.714418	-0.242395
H97	H	1.640370	-0.959775	-0.384402
H98	H	1.640300	-0.164161	-1.106224
H99	H	1.640429	-1.044898	-0.384433
H100	H	1.396485	-1.044921	-0.628013
C101	C	1.376808	-0.380708	-0.647056
N102	N	1.321109	-0.361272	-0.702676
H103	H	1.396437	-0.959813	-0.628010
H104	H	1.329031	-0.688346	-0.695097
C105	C	1.309933	-0.835806	-0.714304
N106	N	1.254248	-0.855244	-0.769945
C107	C	1.726728	-0.835762	-0.298091
N108	N	1.782438	-0.855198	-0.242484
C109	C	1.309887	-0.737296	-0.714304
N110	N	1.254193	-0.717875	-0.769957
H111	H	1.707454	-0.743940	-0.317241
