data_functionalizedCrystal
_audit_creation_method	'MofGen! by Chris Wilmer'
_symmetry_space_group_name_H-M	'P1'
_symmetry_Int_Tables_number	1
_symmetry_cell_setting	triclinic
loop_
_symmetry_equiv_pos_as_xyz
  x,y,z
_cell_length_a	15.944551
_cell_length_b	23.532407
_cell_length_c	15.021413
_cell_angle_alpha	89.999348
_cell_angle_beta	89.997174
_cell_angle_gamma	83.173708
loop_
_atom_site_label
_atom_site_type_symbol
_atom_site_fract_x
_atom_site_fract_y
_atom_site_fract_z
O1	O	1.113910	0.073442	-0.073949
O2	O	1.613910	0.573442	0.426051
O3	O	0.869284	0.082498	-0.073972
O4	O	1.369284	0.582498	0.426028
O5	O	0.998974	-0.004933	-0.073943
O6	O	1.498974	0.495067	0.426057
O7	O	0.984220	0.160873	-0.073977
O8	O	1.484220	0.660873	0.426023
O9	O	0.998953	-0.004921	0.074121
O10	O	1.498953	0.495079	0.574121
O11	O	0.869263	0.082510	0.074092
O12	O	1.369263	0.582510	0.574092
O13	O	1.113889	0.073455	0.074116
O14	O	1.613889	0.573455	0.574116
Zn15	Zn	0.991573	0.077985	0.097612
Zn16	Zn	1.491573	0.577985	0.597612
Zn17	Zn	0.991600	0.077968	-0.097469
Zn18	Zn	1.491600	0.577968	0.402531
O19	O	0.984200	0.160886	0.074087
O20	O	1.484200	0.660886	0.574087
C21	C	0.837983	0.082128	0.000057
C22	C	1.337983	0.582128	0.500057
C23	C	0.744746	0.081001	0.000049
C24	C	1.244746	0.581001	0.500049
C25	C	0.530369	0.024113	0.000078
C26	C	1.030369	0.524113	0.500078
C27	C	0.469137	0.050524	-0.072931
C28	C	0.969137	0.550524	0.427069
C29	C	0.574038	0.078962	0.000060
C30	C	1.074038	0.578962	0.500060
C31	C	0.469138	0.050549	0.073049
C32	C	0.969138	0.550549	0.573049
C33	C	0.409142	0.076989	0.000075
C34	C	0.909142	0.576989	0.500075
C35	C	0.514033	0.105388	-0.073009
C36	C	1.014033	0.605388	0.426991
C37	C	0.514041	0.105405	0.073036
C38	C	1.014041	0.605405	0.573036
C39	C	0.452826	0.131856	0.000010
C40	C	0.952826	0.631856	0.500010
C41	C	0.669030	0.080097	0.000051
C42	C	1.169030	0.580097	0.500051
C43	C	0.314150	0.075858	0.000077
C44	C	0.814150	0.575858	0.500077
C45	C	0.998588	-0.026144	0.000091
C46	C	1.498588	0.473856	0.500091
C47	C	0.997458	-0.089366	0.000098
C48	C	1.497458	0.410634	0.500098
C49	C	1.067121	-0.488199	0.000056
C50	C	1.567121	0.011801	0.500056
C51	C	1.066072	-0.547603	0.000049
C52	C	1.566072	-0.047603	0.500049
O53	O	1.130650	-0.584098	0.000022
O54	O	1.630650	-0.084098	0.500022
N55	N	0.988971	-0.570528	0.000042
N56	N	1.488971	-0.070528	0.500042
C57	C	0.912915	-0.534045	0.000033
C58	C	1.412915	-0.034045	0.500033
O59	O	0.847239	-0.558999	0.000026
O60	O	1.347239	-0.058999	0.500026
C61	C	0.913965	-0.474642	0.000034
C62	C	1.413965	0.025358	0.500034
C63	C	0.991071	-0.451721	0.000049
C64	C	1.491071	0.048279	0.500049
C65	C	1.144220	-0.465277	0.000070
C66	C	1.644220	0.034723	0.500070
C67	C	1.145269	-0.405877	0.000079
C68	C	1.645269	0.094123	0.500079
C69	C	1.069219	-0.369399	0.000073
C70	C	1.569219	0.130601	0.500073
C71	C	0.992120	-0.392320	0.000058
C72	C	1.492120	0.107680	0.500058
C73	C	0.837910	-0.438160	0.000018
C74	C	1.337910	0.061840	0.500018
C75	C	0.838967	-0.378754	0.000018
C76	C	1.338967	0.121246	0.500018
C77	C	0.916072	-0.355832	0.000034
C78	C	1.416072	0.144168	0.500034
C79	C	0.917118	-0.296442	0.000060
C80	C	1.417118	0.203558	0.500060
N81	N	0.994219	-0.273517	0.000067
N82	N	1.494219	0.226483	0.500067
C83	C	1.070269	-0.309995	0.000073
C84	C	1.570269	0.190005	0.500073
C85	C	0.910716	-0.658796	0.000031
C86	C	1.410716	-0.158796	0.500031
C87	C	0.909664	-0.718198	0.000037
C88	C	1.409664	-0.218198	0.500037
C89	C	1.062821	-0.731752	0.000050
C90	C	1.562821	-0.231752	0.500050
C91	C	1.063872	-0.672349	0.000051
C92	C	1.563872	-0.172349	0.500051
C93	C	0.987816	-0.635871	0.000037
C94	C	1.487816	-0.135871	0.500037
C95	C	1.072466	-0.185250	0.000092
C96	C	1.572466	0.314750	0.500092
C97	C	1.073508	-0.125844	0.000104
C98	C	1.573508	0.374156	0.500104
C99	C	0.920352	-0.112295	0.000085
C100	C	1.420352	0.387705	0.500085
C101	C	0.919309	-0.171696	0.000078
C102	C	1.419309	0.328304	0.500078
C103	C	0.995373	-0.208173	0.000078
C104	C	1.495373	0.291827	0.500078
O105	O	0.852574	-0.259913	0.000083
O106	O	1.352574	0.240087	0.500083
O107	O	1.135935	-0.285033	0.000069
O108	O	1.635935	0.214967	0.500069
C109	C	1.145190	0.073824	0.000084
C110	C	1.645190	0.573824	0.500084
C111	C	1.238427	0.074951	0.000087
C112	C	1.738427	0.574951	0.500087
C113	C	0.984586	0.182097	0.000051
C114	C	1.484586	0.682097	0.500051
C115	C	0.985715	0.245318	0.000038
C116	C	1.485715	0.745318	0.500038
N117	N	0.991561	0.077995	0.230750
N118	N	1.491561	0.577995	0.730750
N119	N	0.991619	0.077953	-0.230606
N120	N	1.491619	0.577953	0.269394
C121	C	0.931583	0.118404	0.470420
C122	C	1.431583	0.618404	0.970420
C123	C	1.007390	0.129461	0.529759
C124	C	1.507390	0.629461	1.029759
C125	C	0.991582	0.077981	0.412357
C126	C	1.491582	0.577981	0.912357
C127	C	0.915796	0.066938	0.529760
C128	C	1.415796	0.566938	1.029760
C129	C	0.991596	0.077969	0.587781
C130	C	1.491596	0.577969	1.087781
C131	C	1.067428	0.089063	0.470389
C132	C	1.567428	0.589063	0.970389
C133	C	0.975783	0.026518	0.470385
C134	C	1.475783	0.526518	0.970385
C135	C	1.051645	0.037552	0.529697
C136	C	1.551645	0.537552	1.029697
C137	C	0.991573	0.077990	0.311300
C138	C	1.491573	0.577990	0.811300
C139	C	0.991614	0.077960	0.688836
C140	C	1.491614	0.577960	1.188836
H141	H	0.449239	0.027346	0.134770
H142	H	0.949239	0.527346	0.634770
C143	C	0.407504	0.193413	-0.000059
C144	C	0.907504	0.693413	0.499941
N145	N	0.373364	0.239776	-0.000116
N146	N	0.873364	0.739776	0.499884
C147	C	0.824843	-0.743404	0.000030
C148	C	1.324843	-0.243404	0.500030
N149	N	0.760952	-0.762387	0.000020
N150	N	1.260952	-0.262387	0.500020
C151	C	1.230092	-0.380672	0.000087
C152	C	1.730092	0.119328	0.500087
N153	N	1.293985	-0.361691	0.000089
N154	N	1.793985	0.138309	0.500089
C155	C	0.575887	-0.037391	-0.000006
C156	C	1.075887	0.462609	0.499994
N157	N	0.610173	-0.083714	-0.000075
N158	N	1.110173	0.416286	0.499925
C159	C	0.827043	-0.618675	0.000027
C160	C	1.327043	-0.118675	0.500027
N161	N	0.764020	-0.588459	0.000024
N162	N	1.264020	-0.088459	0.500024
C163	C	1.158334	-0.100635	0.000119
C164	C	1.658334	0.399365	0.500119
N165	N	1.222223	-0.081649	0.000128
N166	N	1.722223	0.418351	0.500128
C167	C	0.753087	-0.463360	-0.000005
C168	C	1.253087	0.036640	0.499995
N169	N	0.689192	-0.482339	-0.000026
N170	N	1.189192	0.017661	0.499974
H171	H	1.134405	-0.214943	0.000089
H172	H	1.634405	0.285057	0.500089
H173	H	0.533834	0.128564	-0.134800
H174	H	1.033834	0.628564	0.365200
C175	C	1.146479	-0.771890	0.000048
C176	C	1.646479	-0.271890	0.500048
N177	N	1.209485	-0.802123	0.000045
N178	N	1.709485	-0.302123	0.500045
C179	C	1.227889	-0.505395	0.000087
C180	C	1.727889	-0.005395	0.500087
N181	N	1.290915	-0.535608	0.000109
N182	N	1.790915	-0.035608	0.500109
C183	C	1.148693	-0.647142	0.000060
C184	C	1.648693	-0.147142	0.500060
N185	N	1.212584	-0.628159	0.000064
N186	N	1.712584	-0.128159	0.500064
C187	C	0.442237	0.019176	-0.156300
C188	C	0.942237	0.519176	0.343700
N189	N	0.421979	-0.004440	-0.219091
N190	N	0.921979	0.495560	0.280909
C191	C	0.829203	0.054323	0.564987
C192	C	1.329203	0.554323	1.064987
N193	N	0.763978	0.044825	0.591517
N194	N	1.263978	0.544825	1.091517
C195	C	0.755297	-0.338631	0.000006
C196	C	1.255297	0.161369	0.500006
N197	N	0.692277	-0.308412	0.000001
N198	N	1.192277	0.191588	0.500001
C199	C	0.540971	0.136724	0.156415
C200	C	1.040971	0.636724	0.656415
N201	N	0.561258	0.160309	0.219223
N202	N	1.061258	0.660309	0.719223
H203	H	0.962383	-0.016985	0.444284
H204	H	1.462383	0.483015	0.944284
H205	H	0.856524	-0.190359	0.000090
H206	H	1.356524	0.309641	0.500090
H207	H	0.880895	0.152617	0.444393
H208	H	1.380895	0.652617	0.944393
C209	C	0.836701	-0.072158	0.000072
C210	C	1.336701	0.427842	0.500072
N211	N	0.773694	-0.041925	0.000054
N212	N	1.273694	0.458075	0.500054
C213	C	1.025456	0.188248	0.565002
C214	C	1.525456	0.688248	1.065002
N215	N	1.039055	0.232527	0.591547
N216	N	1.539055	0.732527	1.091547
C217	C	1.154038	0.101748	0.435309
C218	C	1.654038	0.601748	0.935309
N219	N	1.219270	0.111305	0.408885
N220	N	1.719270	0.611305	0.908885
H221	H	1.102446	0.003360	0.555561
H222	H	1.602446	0.503360	1.055561
