data_functionalizedCrystal
_audit_creation_method	'MofGen! by Chris Wilmer'
_symmetry_space_group_name_H-M	'P1'
_symmetry_Int_Tables_number	1
_symmetry_cell_setting	triclinic
loop_
_symmetry_equiv_pos_as_xyz
  x,y,z
_cell_length_a	10.723023
_cell_length_b	17.019294
_cell_length_c	9.798715
_cell_angle_alpha	86.117884
_cell_angle_beta	89.996449
_cell_angle_gamma	83.929658
loop_
_atom_site_label
_atom_site_type_symbol
_atom_site_fract_x
_atom_site_fract_y
_atom_site_fract_z
O1	O	1.655493	0.110633	-0.126487
O2	O	1.292178	0.121224	-0.127735
O3	O	1.483971	0.001151	-0.113615
O4	O	1.463700	0.230706	-0.140606
O5	O	1.483956	0.001151	0.113367
O6	O	1.292164	0.121224	0.099248
O7	O	1.655479	0.110633	0.100496
Zn8	Zn	1.473819	0.115928	0.135910
Zn9	Zn	1.473838	0.115929	-0.163149
O10	O	1.463686	0.230706	0.086376
C11	C	1.245683	0.120453	-0.014153
C12	C	1.107164	0.118148	-0.013884
C13	C	0.902241	0.114737	0.104096
C14	C	1.045408	0.117120	0.103820
C15	C	1.483195	-0.028243	0.003329
C16	C	1.480889	-0.115825	0.013618
C17	C	1.479816	-0.156967	-0.105275
C18	C	1.477642	-0.239260	-0.095603
C19	C	1.476549	-0.280410	0.032963
C20	C	1.477618	-0.239262	0.151865
C21	C	1.479784	-0.156970	0.142192
C22	C	1.470002	-0.528878	0.068360
C23	C	1.467840	-0.611176	0.078024
C24	C	1.467862	-0.611168	-0.169446
C25	C	1.470035	-0.528875	-0.179107
C26	C	1.471097	-0.487734	-0.060205
C27	C	1.474330	-0.364527	0.042852
C28	C	1.473307	-0.403618	-0.070096
C29	C	1.701973	0.111404	-0.013089
C30	C	1.840492	0.113709	-0.013367
C31	C	1.464462	0.260100	-0.030571
C32	C	1.466767	0.347682	-0.040869
N33	N	1.473815	0.115928	0.340010
N34	N	1.473851	0.115923	-0.367248
C35	C	1.554347	0.065290	0.413741
C36	C	1.554367	0.065287	0.570904
H37	H	1.480713	-0.123469	-0.209968
H38	H	0.849115	0.113857	0.204864
H39	H	1.623275	0.021936	0.360516
H40	H	1.623318	0.021937	0.634287
H41	H	1.098511	0.118000	0.204384
H42	H	1.054070	0.117262	-0.114453
H43	H	0.893617	0.114598	-0.114137
F44	F	1.383707	0.172588	0.409576
F45	F	1.476502	-0.283043	-0.222147
F46	F	1.471201	-0.485086	-0.315945
F47	F	1.466730	-0.654959	-0.295980
H48	H	1.404905	0.159281	0.569377
H49	H	1.466944	-0.644677	0.182724
F50	F	1.471116	-0.485101	0.194907
F51	F	1.476441	-0.283058	0.288696
H52	H	1.480639	-0.123472	0.239008
H53	H	1.474188	-0.370109	-0.174774
H54	H	1.473445	-0.398040	0.147532
