data_functionalizedCrystal
_audit_creation_method	'MofGen! by Chris Wilmer'
_symmetry_space_group_name_H-M	'P1'
_symmetry_Int_Tables_number	1
_symmetry_cell_setting	triclinic
loop_
_symmetry_equiv_pos_as_xyz
  x,y,z
_cell_length_a	10.908937
_cell_length_b	10.065918
_cell_length_c	8.559649
_cell_angle_alpha	100.806484
_cell_angle_beta	64.932310
_cell_angle_gamma	101.452402
loop_
_atom_site_label
_atom_site_type_symbol
_atom_site_fract_x
_atom_site_fract_y
_atom_site_fract_z
O1	O	1.744028	0.113542	-0.236587
O2	O	2.244028	0.613542	0.263413
O3	O	1.357530	0.113532	-0.108459
O4	O	1.857530	0.613532	0.391541
O5	O	1.584830	0.113536	-0.414173
O6	O	2.084830	0.613536	0.085827
O7	O	1.516729	0.113537	0.069126
O8	O	2.016729	0.613537	0.569126
O9	O	1.554429	-0.113453	-0.447803
O10	O	2.054429	0.386547	0.052197
O11	O	1.327129	-0.113458	-0.142090
O12	O	1.827129	0.386542	0.357910
O13	O	1.713627	-0.113448	-0.270217
O14	O	2.213627	0.386552	0.229783
Zn15	Zn	1.515551	-0.149492	-0.211493
Zn16	Zn	2.015551	0.350508	0.288507
Zn17	Zn	1.555606	0.149576	-0.167184
Zn18	Zn	2.055606	0.649576	0.332816
O19	O	1.486327	-0.113452	0.035496
O20	O	1.986327	0.386548	0.535496
C21	C	1.293308	0.000036	-0.113300
C22	C	1.793308	0.500036	0.386700
C23	C	1.147239	0.000032	-0.077641
C24	C	1.647239	0.500032	0.422359
N25	N	1.488224	-0.353598	-0.241737
N26	N	1.988224	0.146402	0.258263
C27	C	0.960099	0.000056	-0.170916
C28	C	1.460099	0.500056	0.329084
C29	C	1.111067	0.000039	-0.207777
C30	C	1.611067	0.500039	0.292223
C31	C	1.546090	-0.421376	-0.177703
C32	C	2.046090	0.078624	0.322297
C33	C	1.525071	-0.578544	-0.200998
C34	C	2.025071	-0.078544	0.299002
C35	C	1.777850	0.000051	-0.265376
C36	C	2.277850	0.500051	0.234624
C37	C	1.923920	0.000064	-0.301033
C38	C	2.423920	0.500064	0.198967
C39	C	1.574791	0.000044	-0.491889
C40	C	2.074791	0.500044	0.008111
C41	C	1.590154	0.000052	-0.673350
C42	C	2.090154	0.500052	-0.173350
N43	N	1.582945	0.353682	-0.136956
N44	N	2.082945	0.853682	0.363044
C45	C	1.496367	0.000043	0.113212
C46	C	1.996367	0.500043	0.613212
C47	C	1.481005	0.000044	0.294675
C48	C	1.981005	0.500044	0.794675
H49	H	0.879309	0.000071	-0.032226
H50	H	1.379309	0.500071	0.467774
H51	H	1.191856	0.000042	-0.346474
H52	H	1.691856	0.500042	0.153526
H53	H	1.375806	0.000037	-0.593877
H54	H	1.875806	0.500037	-0.093877
H55	H	1.611197	-0.363047	-0.105645
H56	H	2.111197	0.136953	0.394355
H57	H	1.066453	0.000042	0.061058
H58	H	1.566453	0.500042	0.561058
H59	H	1.004712	0.000066	-0.439720
H60	H	1.504712	0.500066	0.060280
F61	F	1.439981	-0.654771	-0.295213
F62	F	1.939981	-0.154771	0.204787
F63	F	1.668052	-0.570093	-0.042763
F64	F	2.168052	-0.070093	0.457237
H65	H	1.423127	-0.411927	-0.313809
H66	H	1.923127	0.088073	0.186191
H67	H	1.695358	0.000044	-0.784811
H68	H	2.195358	0.500044	-0.284811
