data_functionalizedCrystal
_audit_creation_method	'MofGen! by Chris Wilmer'
_symmetry_space_group_name_H-M	'P1'
_symmetry_Int_Tables_number	1
_symmetry_cell_setting	triclinic
loop_
_symmetry_equiv_pos_as_xyz
  x,y,z
_cell_length_a	29.839125
_cell_length_b	12.759401
_cell_length_c	29.839131
_cell_angle_alpha	89.966237
_cell_angle_beta	89.974637
_cell_angle_gamma	90.009620
loop_
_atom_site_label
_atom_site_type_symbol
_atom_site_fract_x
_atom_site_fract_y
_atom_site_fract_z
Zn1	Zn	-0.253953	-1.606008	-0.178934
Zn2	Zn	0.246047	-1.106008	0.321066
Zn3	Zn	-0.178813	-1.605868	-0.254046
Zn4	Zn	0.321187	-1.105868	0.245954
Zn5	Zn	-0.178839	-1.430338	-0.178929
Zn6	Zn	0.321161	-0.930338	0.321071
Zn7	Zn	-0.253918	-1.430235	-0.254036
Zn8	Zn	0.246082	-0.930235	0.245964
O9	O	-0.216381	-1.518112	-0.216486
O10	O	0.283619	-1.018112	0.283514
O11	O	-0.243990	-1.753010	-0.188904
O12	O	0.256010	-1.253010	0.311096
O13	O	-0.115949	-1.582568	-0.244084
O14	O	0.384051	-1.082568	0.255916
O15	O	-0.188828	-1.453743	-0.116062
O16	O	0.311172	-0.953743	0.383938
O17	O	-0.188784	-1.752907	-0.244089
O18	O	0.311216	-1.252907	0.255911
O19	O	-0.244015	-1.582806	-0.116066
O20	O	0.255985	-1.082806	0.383934
O21	O	-0.115968	-1.453608	-0.188895
O22	O	0.384032	-0.953608	0.311105
O23	O	-0.188794	-1.283304	-0.188885
O24	O	0.311206	-0.783304	0.311115
O25	O	-0.316789	-1.453567	-0.244071
O26	O	0.183211	-0.953567	0.255929
O27	O	-0.243954	-1.283228	-0.244066
O28	O	0.256046	-0.783228	0.255934
O29	O	-0.316815	-1.582706	-0.188894
O30	O	0.183185	-1.082706	0.311106
O31	O	-0.188750	-1.582468	-0.316912
O32	O	0.311250	-1.082468	0.183088
O33	O	-0.243929	-1.453432	-0.316904
O34	O	0.256071	-0.953432	0.183096
C35	C	-0.216373	-1.245145	-0.216474
C36	C	0.283627	-0.745145	0.283526
C37	C	-0.216381	-1.128368	-0.216480
C38	C	0.283619	-0.628368	0.283520
C39	C	-0.245060	-0.963763	-0.245261
C40	C	0.254940	-0.463763	0.254739
C41	C	-0.245056	-1.073487	-0.245258
C42	C	0.254944	-0.573487	0.254742
C43	C	-0.187705	-1.073520	-0.187708
C44	C	0.312295	-0.573520	0.312292
C45	C	-0.187708	-0.963798	-0.187714
C46	C	0.312292	-0.463798	0.312286
C47	C	-0.333559	-1.518141	-0.216482
C48	C	0.166441	-1.018141	0.283518
C49	C	-0.383493	-1.518153	-0.216480
C50	C	0.116507	-1.018153	0.283520
C51	C	-0.693153	-1.585466	-0.187674
C52	C	-0.193153	-1.085466	0.312326
C53	C	-0.880827	-1.585518	-0.187636
C54	C	-0.380827	-1.085518	0.312364
O55	O	-0.905106	-1.642673	-0.163187
O56	O	-0.405106	-1.142673	0.336813
N57	N	-0.904279	-1.518292	-0.216360
N58	N	-0.404279	-1.018292	0.283640
C59	C	-0.880810	-1.451043	-0.245093
C60	C	-0.380810	-0.951043	0.254907
O61	O	-0.905063	-1.393857	-0.269521
O62	O	-0.405063	-0.893857	0.230479
C63	C	-0.693137	-1.450987	-0.245129
C64	C	-0.193137	-0.950987	0.254871
C65	C	-0.669688	-1.518225	-0.216407
C66	C	-0.169688	-1.018225	0.283593
C67	C	-0.669704	-1.652698	-0.158954
C68	C	-0.169704	-1.152698	0.341046
C69	C	-0.622788	-1.652689	-0.158966
C70	C	-0.122788	-1.152689	0.341034
C71	C	-0.599323	-1.585447	-0.187698
C72	C	-0.099323	-1.085447	0.312302
C73	C	-0.622772	-1.518215	-0.216418
C74	C	-0.122772	-1.018215	0.283582
C75	C	-0.669669	-1.383733	-0.273860
C76	C	-0.169669	-0.883733	0.226140
C77	C	-0.622748	-1.383723	-0.273866
C78	C	-0.122748	-0.883723	0.226134
C79	C	-0.599298	-1.450961	-0.245143
C80	C	-0.099298	-0.950961	0.254857
C81	C	-0.552391	-1.450964	-0.245162
C82	C	-0.052391	-0.950964	0.254838
N83	N	-0.528939	-1.518190	-0.216438
N84	N	-0.028939	-1.018190	0.283562
C85	C	-0.552405	-1.585432	-0.187706
C86	C	-0.052405	-1.085432	0.312294
C87	C	-0.979340	-1.451079	-0.245073
C88	C	-0.479340	-0.951079	0.254927
C89	C	-1.026258	-1.451094	-0.245065
C90	C	-0.526258	-0.951094	0.254935
C91	C	-1.026272	-1.585569	-0.187607
C92	C	-0.526272	-1.085569	0.312393
C93	C	-0.979353	-1.585558	-0.187618
C94	C	-0.479353	-1.085558	0.312382
C95	C	-0.955888	-1.518305	-0.216349
C96	C	-0.455888	-1.018305	0.283651
C97	C	-0.453879	-1.585407	-0.187733
C98	C	0.046121	-1.085407	0.312267
C99	C	-0.406959	-1.585394	-0.187748
C100	C	0.093041	-1.085394	0.312252
C101	C	-0.406949	-1.450917	-0.245204
C102	C	0.093051	-0.950917	0.254796
C103	C	-0.453865	-1.450933	-0.245191
C104	C	0.046135	-0.950933	0.254809
C105	C	-0.477329	-1.518181	-0.216451
C106	C	0.022671	-1.018181	0.283549
O107	O	-0.528083	-1.393831	-0.269595
O108	O	-0.028083	-0.893831	0.230405
O109	O	-0.528143	-1.642593	-0.163275
O110	O	-0.028143	-1.142593	0.336725
C111	C	-0.740069	-1.585476	-0.187663
C112	C	-0.240069	-1.085476	0.312337
C113	C	-0.763519	-1.518244	-0.216383
C114	C	-0.263519	-1.018244	0.283617
C115	C	-0.740053	-1.451003	-0.245116
C116	C	-0.240053	-0.951003	0.254884
C117	C	-0.810436	-1.518259	-0.216375
C118	C	-0.310436	-1.018259	0.283625
C119	C	-0.833902	-1.585501	-0.187643
C120	C	-0.333902	-1.085501	0.312357
C121	C	-0.810450	-1.652727	-0.158919
C122	C	-0.310450	-1.152727	0.341081
C123	C	-0.763535	-1.652718	-0.158931
C124	C	-0.263535	-1.152718	0.341069
C125	C	-0.763505	-1.383776	-0.273839
C126	C	-0.263505	-0.883776	0.226161
C127	C	-0.810420	-1.383792	-0.273826
C128	C	-0.310420	-0.883792	0.226174
C129	C	-0.833886	-1.451034	-0.245094
C130	C	-0.333886	-0.951034	0.254906
C131	C	-0.099658	-1.518144	-0.216458
C132	C	0.400342	-1.018144	0.283542
C133	C	-0.049724	-1.518336	-0.216333
C134	C	0.450276	-1.018336	0.283667
C135	C	-0.216343	-1.517952	-0.333209
C136	C	0.283657	-1.017952	0.166791
C137	C	-0.216342	-1.517980	-0.383143
C138	C	0.283658	-1.017980	0.116857
C139	C	-0.216387	-0.792146	-0.216495
C140	C	0.283613	-0.292146	0.283505
C141	C	-0.216387	-0.908922	-0.216490
C142	C	0.283613	-0.408922	0.283510
C143	C	-0.245157	-1.585301	-0.692754
C144	C	0.254843	-1.085301	-0.192754
C145	C	-0.245184	-1.585415	-0.880427
C146	C	0.254816	-1.085415	-0.380427
O147	O	-0.269656	-1.642497	-0.904663
O148	O	0.230344	-1.142497	-0.404663
N149	N	-0.216430	-1.518291	-0.903928
N150	N	0.283570	-1.018291	-0.403928
C151	C	-0.187670	-1.451128	-0.880509
C152	C	0.312330	-0.951128	-0.380509
O153	O	-0.163217	-1.394030	-0.904804
O154	O	0.336783	-0.894030	-0.404804
C155	C	-0.187646	-1.451010	-0.692836
C156	C	0.312354	-0.951010	-0.192836
C157	C	-0.216398	-1.518146	-0.669337
C158	C	0.283602	-1.018146	-0.169337
C159	C	-0.273907	-1.652431	-0.669254
C160	C	0.226093	-1.152431	-0.169254
C161	C	-0.273898	-1.652406	-0.622339
C162	C	0.226102	-1.152406	-0.122339
C163	C	-0.245139	-1.585251	-0.598923
C164	C	0.254861	-1.085251	-0.098923
C165	C	-0.216389	-1.518121	-0.622422
C166	C	0.283611	-1.018121	-0.122422
C167	C	-0.158888	-1.383843	-0.669418
C168	C	0.341112	-0.883843	-0.169418
C169	C	-0.158885	-1.383817	-0.622497
C170	C	0.341115	-0.883817	-0.122497
C171	C	-0.187638	-1.450953	-0.598998
C172	C	0.312362	-0.950953	-0.098998
C173	C	-0.187621	-1.450941	-0.552090
C174	C	0.312379	-0.950941	-0.052090
N175	N	-0.216375	-1.518065	-0.528589
N176	N	0.283625	-1.018065	-0.028589
C177	C	-0.245134	-1.585220	-0.552005
C178	C	0.254866	-1.085220	-0.052005
C179	C	-0.187684	-1.451197	-0.979039
C180	C	0.312316	-0.951197	-0.479039
C181	C	-0.187690	-1.451228	-1.025957
C182	C	0.312310	-0.951228	-0.525957
C183	C	-0.245204	-1.585513	-1.025872
C184	C	0.254796	-1.085513	-0.525872
C185	C	-0.245196	-1.585487	-0.978953
C186	C	0.254804	-1.085487	-0.478953
C187	C	-0.216438	-1.518321	-0.955538
C188	C	0.283562	-1.018321	-0.455538
C189	C	-0.245113	-1.585163	-0.453479
C190	C	0.254887	-1.085163	0.046521
C191	C	-0.245100	-1.585135	-0.406559
C192	C	0.254900	-1.085135	0.093441
C193	C	-0.187588	-1.450846	-0.406649
C194	C	0.312412	-0.950846	0.093351
C195	C	-0.187599	-1.450877	-0.453564
C196	C	0.312401	-0.950877	0.046436
C197	C	-0.216365	-1.518039	-0.476978
C198	C	0.283635	-1.018039	0.023022
O199	O	-0.163166	-1.393880	-0.527824
O200	O	0.336834	-0.893880	-0.027824
O201	O	-0.269590	-1.642293	-0.527701
O202	O	0.230410	-1.142293	-0.027701
C203	C	-0.245166	-1.585326	-0.739669
C204	C	0.254834	-1.085326	-0.239669
C205	C	-0.216415	-1.518196	-0.763168
C206	C	0.283585	-1.018196	-0.263168
C207	C	-0.187657	-1.451041	-0.739752
C208	C	0.312343	-0.951041	-0.239752
C209	C	-0.216421	-1.518227	-0.810086
C210	C	0.283579	-1.018227	-0.310086
C211	C	-0.245180	-1.585382	-0.833502
C212	C	0.254820	-1.085382	-0.333502
C213	C	-0.273933	-1.652506	-0.810001
C214	C	0.226067	-1.152506	-0.310001
C215	C	-0.273925	-1.652481	-0.763085
C216	C	0.226075	-1.152481	-0.263085
C217	C	-0.158903	-1.383917	-0.763253
C218	C	0.341097	-0.883917	-0.263253
C219	C	-0.158914	-1.383948	-0.810169
C220	C	0.341086	-0.883948	-0.310169
C221	C	-0.187673	-1.451103	-0.833585
C222	C	0.312327	-0.951103	-0.333585
C223	C	-0.216428	-1.518302	-0.099308
C224	C	0.283572	-1.018302	0.400692
C225	C	-0.216449	-1.518383	-0.049373
C226	C	0.283551	-1.018383	0.450627
H227	H	-0.164357	-0.919145	-0.164284
H228	H	0.335643	-0.419145	0.335716
F229	F	-1.051210	-1.379545	-0.275642
F230	F	-0.551210	-0.879545	0.224358
H231	H	-0.164265	-1.396501	-0.959977
H232	H	0.335735	-0.896501	-0.459977
H233	H	-0.297337	-1.707149	-0.743956
H234	H	0.202663	-1.207149	-0.243956
H235	H	-0.268403	-1.118134	-0.268687
H236	H	0.231597	-0.618134	0.231313
H237	H	-0.387869	-1.640152	-0.164358
H238	H	0.112131	-1.140152	0.335642
H239	H	-0.135467	-1.329119	-0.603434
H240	H	0.364533	-0.829119	-0.103434
F241	F	-0.157186	-1.131931	-0.157082
F242	F	0.342814	-0.631931	0.342918
F243	F	-0.478844	-1.656976	-0.157143
F244	F	0.021156	-1.156976	0.342857
H245	H	-0.960239	-1.396315	-0.268473
H246	H	-0.460239	-0.896315	0.231527
H247	H	-0.135475	-1.329174	-0.688543
H248	H	0.364525	-0.829174	-0.188543
H249	H	-0.603700	-1.707439	-0.135576
H250	H	-0.103700	-1.207439	0.364424
H251	H	-0.744446	-1.707469	-0.135542
H252	H	-0.244446	-1.207469	0.364458
H253	H	-0.164171	-1.396172	-0.387576
H254	H	0.335829	-0.896172	0.112424
F255	F	-0.694671	-1.724281	-0.128374
F256	F	-0.194671	-1.224281	0.371626
F257	F	-0.381967	-1.379356	-0.275781
F258	F	0.118033	-0.879356	0.224219
F259	F	-0.954400	-1.657120	-0.157047
F260	F	-0.454400	-1.157120	0.342953
H261	H	-0.688754	-1.328980	-0.297249
H262	H	-0.188754	-0.828980	0.202751
H263	H	-0.603645	-1.328946	-0.297258
H264	H	-0.103645	-0.828946	0.202742
F265	F	-0.156992	-1.379437	-0.478575
F266	F	0.343008	-0.879437	0.021425
H267	H	-1.045386	-1.640320	-0.164212
H268	H	-0.545386	-1.140320	0.335788
H269	H	-0.268514	-1.639809	-0.387428
H270	H	0.231486	-1.139809	0.112572
H271	H	-0.268609	-1.640154	-0.959823
H272	H	0.231391	-1.140154	-0.459823
H273	H	-0.268413	-0.919087	-0.268693
H274	H	0.231587	-0.419087	0.231307
F275	F	-0.478823	-1.379378	-0.275763
F276	F	0.021177	-0.879378	0.224237
H277	H	-0.829564	-1.707481	-0.135526
H278	H	-0.329564	-1.207481	0.364474
F279	F	-0.835372	-1.312230	-0.304402
F280	F	-0.335372	-0.812230	0.195598
F281	F	-0.738537	-1.312203	-0.304421
F282	F	-0.238537	-0.812203	0.195579
H283	H	-0.297348	-1.707190	-0.829074
H284	H	0.202652	-1.207190	-0.329074
F285	F	-0.275729	-1.656645	-0.478391
F286	F	0.224271	-1.156645	0.021609
H287	H	-0.135496	-1.329280	-0.829298
H288	H	0.364504	-0.829280	-0.329298
F289	F	-0.275812	-1.656985	-1.050801
F290	F	0.224188	-1.156985	-0.550801
F291	F	-0.128294	-1.312433	-0.738338
F292	F	0.371706	-0.812433	-0.238338
F293	F	-0.157082	-1.379786	-1.050962
F294	F	0.342918	-0.879786	-0.550962
H295	H	-0.297312	-1.707070	-0.603209
H296	H	0.202688	-1.207070	-0.103209
H297	H	-0.297329	-1.707116	-0.688315
H298	H	0.202671	-1.207116	-0.188315
