data_functionalizedCrystal
_audit_creation_method	'MofGen! by Chris Wilmer'
_symmetry_space_group_name_H-M	'P1'
_symmetry_Int_Tables_number	1
_symmetry_cell_setting	triclinic
loop_
_symmetry_equiv_pos_as_xyz
  x,y,z
_cell_length_a	16.974885
_cell_length_b	16.992695
_cell_length_c	7.540329
_cell_angle_alpha	89.996072
_cell_angle_beta	93.649065
_cell_angle_gamma	87.023153
loop_
_atom_site_label
_atom_site_type_symbol
_atom_site_fract_x
_atom_site_fract_y
_atom_site_fract_z
O1	O	1.055447	0.099901	0.003862
O2	O	0.826048	0.112635	-0.029037
O3	O	0.939828	-0.007874	-0.012706
O4	O	0.941667	0.220410	-0.012470
O5	O	0.939820	-0.007875	0.282258
O6	O	0.826040	0.112634	0.265927
O7	O	1.055440	0.099899	0.298826
Cu8	Cu	0.940739	0.106266	0.309309
Cu9	Cu	0.940748	0.106268	-0.039520
O10	O	0.941660	0.220408	0.282494
C11	C	0.796555	0.112151	0.114216
C12	C	0.708688	0.110701	0.101615
C13	C	0.214090	0.102515	0.013305
C14	C	0.296651	0.103877	0.025168
C15	C	0.337919	0.104563	0.191887
C16	C	0.296623	0.103879	0.346752
C17	C	0.214064	0.102511	0.334886
C18	C	0.584833	0.108649	0.244615
C19	C	0.667397	0.110020	0.256468
C20	C	0.667420	0.110016	-0.065116
C21	C	0.584859	0.108653	-0.076967
C22	C	0.543570	0.107965	0.077898
N23	N	0.422309	0.105958	0.204017
N24	N	0.459182	0.106564	0.065765
C25	C	0.937458	-0.037084	0.134437
C26	C	0.930398	-0.124121	0.133424
C27	C	0.998513	-0.174436	0.143194
C28	C	0.991875	-0.256216	0.142226
C29	C	0.917122	-0.287678	0.131499
C30	C	0.849002	-0.237355	0.121723
C31	C	0.855641	-0.155578	0.122679
C32	C	0.889608	-0.531245	0.127529
C33	C	0.882974	-0.613029	0.126579
C34	C	1.025848	-0.631884	0.147078
C35	C	1.032480	-0.550104	0.148044
C36	C	0.964360	-0.499789	0.138259
N37	N	0.910335	-0.371269	0.130514
N38	N	0.971148	-0.416199	0.139231
C39	C	1.084932	0.100384	0.155569
C40	C	1.172799	0.101833	0.168158
C41	C	0.944029	0.249619	0.135348
C42	C	0.951089	0.336655	0.136349
N43	N	0.940739	0.106265	0.554657
N44	N	0.940754	0.106264	-0.284868
H45	H	0.700995	0.110584	0.392237
H46	H	1.081307	-0.672859	0.155042
H47	H	0.800174	-0.114611	0.114723
O48	O	0.823498	-0.482294	0.118279
C49	C	0.823047	-0.434442	0.270998
H50	H	0.886062	-0.430378	0.330968
H51	H	0.797482	-0.372944	0.232969
H52	H	0.785233	-0.461307	0.372547
O53	O	0.174071	0.101887	0.485486
C54	C	0.228198	0.102767	0.635182
H55	H	0.285344	0.128554	0.596256
H56	H	0.201714	0.140417	0.743827
H57	H	0.241302	0.040042	0.686514
H58	H	1.093352	-0.524494	0.156779
O59	O	0.336837	0.104650	-0.125136
C60	C	0.379909	0.173320	-0.128601
H61	H	0.390715	0.196150	0.012552
H62	H	0.439018	0.159017	-0.188170
H63	H	0.344826	0.220321	-0.212986
O64	O	0.707448	0.110574	-0.215668
C65	C	0.691967	0.042358	-0.315674
H66	H	0.633578	0.018737	-0.278332
H67	H	0.688100	0.057573	-0.463327
H68	H	0.741702	-0.004397	-0.286233
O69	O	0.810338	-0.643557	0.115826
C70	C	0.768504	-0.617825	-0.042929
H71	H	0.812133	-0.600853	-0.143434
H72	H	0.731747	-0.667333	-0.099487
H73	H	0.727805	-0.564483	-0.014241
O74	O	0.173960	0.101988	-0.148608
C75	C	0.121522	0.169058	-0.165766
H76	H	0.143129	0.216910	-0.071429
H77	H	0.119030	0.191820	-0.308341
H78	H	0.060004	0.152678	-0.131406
H79	H	0.551226	0.108077	0.370717
O80	O	0.544691	0.107876	-0.238813
C81	C	0.501621	0.039206	-0.254618
H82	H	0.490804	0.016375	-0.116561
H83	H	0.442517	0.053508	-0.331152
H84	H	0.536711	-0.007794	-0.328922
O85	O	0.336828	0.104582	0.508562
C86	C	0.418552	0.105919	0.485834
H87	H	0.428132	0.130913	0.349019
H88	H	0.447300	0.144489	0.592645
H89	H	0.446308	0.043438	0.497460
O90	O	0.776430	-0.268009	0.111072
C91	C	0.768313	-0.314729	-0.042878
H92	H	0.829343	-0.335165	-0.085055
H93	H	0.733411	-0.368246	-0.013525
H94	H	0.735621	-0.278557	-0.154540
H95	H	1.059385	-0.148827	0.151940
H96	H	1.047342	-0.297180	0.150186
