data_functionalizedCrystal
_audit_creation_method	'MofGen! by Chris Wilmer'
_symmetry_space_group_name_H-M	'P1'
_symmetry_Int_Tables_number	1
_symmetry_cell_setting	triclinic
loop_
_symmetry_equiv_pos_as_xyz
  x,y,z
_cell_length_a	16.959455
_cell_length_b	16.959454
_cell_length_c	16.959447
_cell_angle_alpha	90.025863
_cell_angle_beta	89.983056
_cell_angle_gamma	89.980118
loop_
_atom_site_label
_atom_site_type_symbol
_atom_site_fract_x
_atom_site_fract_y
_atom_site_fract_z
Zn1	Zn	1.208389	0.314730	-0.446934
Zn2	Zn	1.208298	0.446922	-0.314766
Zn3	Zn	1.076211	0.314755	-0.314771
Zn4	Zn	1.076175	0.446863	-0.446904
O5	O	1.142268	0.380817	-0.380844
O6	O	1.318987	0.332280	-0.429411
O7	O	1.190754	0.429425	-0.204155
O8	O	1.093797	0.204140	-0.332317
O9	O	1.318921	0.429401	-0.332308
O10	O	1.190908	0.204122	-0.429417
O11	O	1.093710	0.332322	-0.204159
O12	O	0.965595	0.332265	-0.332289
O13	O	1.093736	0.429300	-0.557519
O14	O	0.965569	0.429324	-0.429366
O15	O	1.190873	0.332222	-0.557541
O16	O	1.190719	0.557525	-0.332279
O17	O	1.093649	0.557482	-0.429361
C18	C	0.936902	0.380791	-0.380825
C19	C	0.849045	0.380799	-0.380836
C20	C	0.477559	0.330237	-0.330401
C21	C	0.477580	0.431463	-0.431332
C22	C	0.560126	0.431451	-0.431327
C23	C	0.601392	0.380833	-0.380857
C24	C	0.560113	0.330226	-0.330393
C25	C	0.601412	0.482063	-0.481785
C26	C	0.683963	0.482055	-0.481781
C27	C	0.725231	0.431432	-0.431315
C28	C	0.683946	0.380822	-0.380849
C29	C	0.725212	0.330203	-0.330380
C30	C	0.683929	0.279589	-0.279917
C31	C	0.601380	0.279603	-0.279927
C32	C	0.807779	0.431418	-0.431306
C33	C	0.807766	0.330192	-0.330372
C34	C	1.142192	0.586184	-0.380834
C35	C	1.142231	0.674040	-0.380856
C36	C	1.091764	1.045523	-0.431400
C37	C	1.192926	1.045509	-0.330390
C38	C	1.192903	0.962963	-0.330382
C39	C	1.142308	0.921693	-0.380882
C40	C	1.091737	0.962970	-0.431391
C41	C	1.243468	0.921680	-0.279868
C42	C	1.243445	0.839129	-0.279856
C43	C	1.192854	0.797858	-0.330361
C44	C	1.142282	0.839140	-0.380873
C45	C	1.091687	0.797870	-0.431373
C46	C	1.041118	0.839150	-0.481890
C47	C	1.041146	0.921699	-0.481896
C48	C	1.192826	0.715310	-0.330355
C49	C	1.091660	0.715317	-0.431365
C50	C	1.348436	0.380844	-0.380862
C51	C	1.436293	0.380856	-0.380870
C52	C	1.142354	1.174649	-0.380875
C53	C	1.142358	1.086793	-0.380899
C54	C	1.142311	0.380752	-0.587012
C55	C	1.142329	0.380724	-0.674869
C56	C	1.091872	0.330083	-1.046353
C57	C	1.192925	0.431198	-1.046336
C58	C	1.192911	0.431216	-0.963790
C59	C	1.142376	0.380668	-0.922522
C60	C	1.091855	0.330102	-0.963799
C61	C	1.243425	0.481787	-0.922506
C62	C	1.243413	0.481808	-0.839955
C63	C	1.192882	0.431256	-0.798685
C64	C	1.142359	0.380687	-0.839968
C65	C	1.091824	0.330139	-0.798700
C66	C	1.041305	0.279565	-0.839981
C67	C	1.041323	0.279549	-0.922529
C68	C	1.192863	0.431272	-0.716137
C69	C	1.091807	0.330157	-0.716146
C70	C	1.142272	0.380826	-0.175477
C71	C	1.142407	0.380631	-0.087621
H72	H	0.567807	0.523280	-0.522868
H73	H	1.050659	0.288991	-0.682551
O74	O	0.723930	0.230312	-0.230928
C75	C	0.749257	0.095811	-0.192809
C76	C	0.703891	0.151524	-0.248326
H77	H	0.733085	0.032098	-0.206867
H78	H	0.732980	0.109550	-0.129039
H79	H	0.815343	0.104545	-0.201456
H80	H	0.637794	0.142821	-0.239749
H81	H	0.720234	0.137771	-0.312076
O82	O	1.042585	0.675108	-0.480397
C83	C	0.997670	0.547943	-0.525115
C84	C	1.053299	0.593380	-0.469560
H85	H	1.006301	0.481858	-0.516360
H86	H	1.011521	0.564067	-0.588883
H87	H	0.933957	0.564275	-0.511190
H88	H	1.117031	0.577072	-0.483414
H89	H	1.039380	0.577252	-0.405808
O90	O	0.992290	0.230491	-0.799767
C91	C	0.947448	0.185759	-0.672593
C92	C	1.003009	0.241359	-0.718041
H93	H	0.956083	0.194538	-0.606510
H94	H	0.961364	0.122001	-0.688771
H95	H	0.883717	0.199615	-0.688863
H96	H	1.066758	0.227574	-0.701795
H97	H	0.989025	0.305100	-0.701859
O98	O	1.292524	0.961696	-0.230669
C99	C	1.330967	0.986862	-0.096222
C100	C	1.275347	0.941528	-0.151870
H101	H	1.317110	0.970560	-0.032502
H102	H	1.322330	1.052971	-0.104795
H103	H	1.394684	0.970572	-0.110182
H104	H	1.211609	0.957751	-0.137944
H105	H	1.284053	0.875430	-0.143287
H106	H	0.841388	0.472629	-0.472389
O107	O	1.292457	0.799000	-0.230707
C108	C	1.303139	0.705814	-0.124023
C109	C	1.247541	0.751226	-0.179620
H110	H	1.266847	0.667166	-0.082717
H111	H	1.339289	0.749457	-0.087874
H112	H	1.344452	0.667158	-0.160365
H113	H	1.206180	0.789883	-0.143339
H114	H	1.211447	0.707540	-0.215772
H115	H	0.443943	0.289026	-0.289318
H116	H	0.999919	0.805539	-0.523004
H117	H	1.284559	0.522949	-0.956113
H118	H	1.000193	0.238376	-0.956148
O119	O	1.042825	0.281033	-1.086570
C120	C	0.998100	0.236145	-1.213744
C121	C	1.053672	0.291748	-1.168296
H122	H	1.006862	0.244777	-1.279827
H123	H	0.934336	0.250022	-1.197565
H124	H	1.012000	0.172425	-1.197476
H125	H	1.039843	0.355487	-1.184540
H126	H	1.117419	0.277803	-1.184479
O127	O	0.992132	0.961886	-0.530996
C128	C	0.981461	1.055010	-0.637734
C129	C	1.037058	1.009557	-0.582171
H130	H	1.017762	1.093551	-0.679134
H131	H	0.940180	1.093755	-0.601448
H132	H	0.945276	1.011324	-0.673794
H133	H	1.073295	1.053186	-0.546099
H134	H	1.078287	0.970800	-0.618502
O135	O	1.241969	0.480285	-0.675952
C136	C	1.348698	0.490963	-0.582802
C137	C	1.293120	0.435364	-0.628245
H138	H	1.390079	0.454667	-0.544232
H139	H	1.312422	0.532282	-0.544087
H140	H	1.384777	0.527108	-0.626495
H141	H	1.257029	0.399168	-0.584609
H142	H	1.329441	0.394097	-0.666972
O143	O	1.241827	0.675174	-0.281206
C144	C	1.252489	0.581985	-0.174523
C145	C	1.196901	0.627403	-0.230125
H146	H	1.216189	0.543338	-0.133222
H147	H	1.288638	0.625624	-0.138368
H148	H	1.293803	0.543326	-0.210862
H149	H	1.155539	0.666062	-0.193848
H150	H	1.160807	0.583721	-0.266283
O151	O	0.561238	0.230553	-0.230831
C152	C	0.467946	0.219796	-0.124187
C153	C	0.513378	0.275433	-0.179721
H154	H	0.429228	0.256058	-0.082861
H155	H	0.511575	0.183620	-0.088055
H156	H	0.429357	0.178508	-0.160577
H157	H	0.551968	0.316769	-0.143391
H158	H	0.469706	0.311553	-0.215855
O159	O	1.242118	0.480259	-1.086336
C160	C	1.376559	0.518606	-1.111649
C161	C	1.320933	0.463006	-1.066281
H162	H	1.440293	0.504666	-1.095463
H163	H	1.362712	0.582357	-1.095387
H164	H	1.367847	0.509919	-1.177735
H165	H	1.329614	0.471622	-1.000184
H166	H	1.334794	0.399275	-1.082608
H167	H	1.284548	0.522989	-0.806351
H168	H	0.841359	0.288967	-0.289278
O169	O	1.042752	1.085705	-0.480507
C170	C	1.032088	1.178809	-0.587263
C171	C	1.087682	1.133366	-0.531687
H172	H	1.068392	1.217342	-0.628667
H173	H	0.990805	1.217561	-0.550986
H174	H	0.995905	1.135116	-0.623316
H175	H	1.123916	1.177002	-0.495622
H176	H	1.128913	1.094603	-0.568009
O177	O	1.242016	1.085716	-0.281381
C178	C	1.286784	1.212885	-0.236525
C179	C	1.231179	1.167444	-0.292101
H180	H	1.278030	1.278969	-0.245161
H181	H	1.350538	1.196689	-0.250424
H182	H	1.272908	1.196627	-0.172797
H183	H	1.244983	1.183677	-0.355847
H184	H	1.167441	1.183644	-0.278133
H185	H	0.443977	0.472679	-0.472417
H186	H	0.717569	0.523267	-0.522871
