data_functionalizedCrystal
_audit_creation_method	'MofGen! by Chris Wilmer'
_symmetry_space_group_name_H-M	'P1'
_symmetry_Int_Tables_number	1
_symmetry_cell_setting	triclinic
loop_
_symmetry_equiv_pos_as_xyz
  x,y,z
_cell_length_a	16.625545
_cell_length_b	16.625547
_cell_length_c	16.625525
_cell_angle_alpha	90.067621
_cell_angle_beta	89.907739
_cell_angle_gamma	89.975256
loop_
_atom_site_label
_atom_site_type_symbol
_atom_site_fract_x
_atom_site_fract_y
_atom_site_fract_z
Zn1	Zn	-0.320507	-1.232986	-0.456051
Zn2	Zn	0.179493	-0.732986	0.043949
Zn3	Zn	-0.455501	-1.232787	-0.321219
Zn4	Zn	0.044499	-0.732787	0.178781
Zn5	Zn	-0.320684	-1.098053	-0.321216
Zn6	Zn	0.179316	-0.598053	0.178784
Zn7	Zn	-0.455299	-1.098111	-0.455994
Zn8	Zn	0.044701	-0.598111	0.044006
O9	O	-0.387998	-1.165484	-0.388620
O10	O	0.112002	-0.665484	0.111380
O11	O	-0.338424	-1.345792	-0.438191
O12	O	0.161576	-0.845792	0.061809
O13	O	-0.437776	-1.214806	-0.208386
O14	O	0.062224	-0.714806	0.291614
O15	O	-0.207828	-1.116011	-0.339125
O16	O	0.292172	-0.616011	0.160875
O17	O	-0.437604	-1.345646	-0.339130
O18	O	0.062396	-0.845646	0.160870
O19	O	-0.207698	-1.215146	-0.438188
O20	O	0.292302	-0.715146	0.061812
O21	O	-0.338727	-1.115817	-0.208384
O22	O	0.161273	-0.615817	0.291616
O23	O	-0.338531	-0.985228	-0.339070
O24	O	0.161469	-0.485228	0.160930
O25	O	-0.437260	-1.116111	-0.568834
O26	O	0.062740	-0.616111	-0.068834
O27	O	-0.437432	-0.985271	-0.438090
O28	O	0.062568	-0.485271	0.061910
O29	O	-0.338229	-1.215203	-0.568876
O30	O	0.161771	-0.715203	-0.068876
O31	O	-0.568307	-1.214863	-0.339074
O32	O	-0.068307	-0.714863	0.160926
O33	O	-0.568159	-1.115917	-0.438092
O34	O	-0.068159	-0.615917	0.061908
C35	C	-0.597489	-1.165397	-0.388594
C36	C	-0.097489	-0.665397	0.111406
C37	C	-0.687110	-1.165433	-0.388611
C38	C	-0.187110	-0.665433	0.111389
C39	C	-0.387979	-0.955993	-0.388574
C40	C	0.112021	-0.455993	0.111426
C41	C	-0.387991	-0.866372	-0.388573
C42	C	0.112009	-0.366372	0.111427
C43	C	-0.759892	-1.165464	-0.388627
C44	C	-0.259892	-0.665464	0.111373
C45	C	-0.851201	-1.165511	-0.388644
C46	C	-0.351201	-0.665511	0.111356
C47	C	-0.923977	-1.165553	-0.388655
C48	C	-0.423977	-0.665553	0.111345
C49	C	-1.015291	-1.165599	-0.388671
C50	C	-0.515291	-0.665599	0.111329
C51	C	-0.387992	-0.793590	-0.388580
C52	C	0.112008	-0.293590	0.111420
C53	C	-0.387995	-0.702281	-0.388597
C54	C	0.112005	-0.202281	0.111403
C55	C	-0.388001	-0.629505	-0.388614
C56	C	0.111999	-0.129505	0.111386
C57	C	-0.388005	-0.538191	-0.388630
C58	C	0.111995	-0.038191	0.111370
C59	C	-0.177689	-1.165594	-0.388663
C60	C	0.322311	-0.665594	0.111337
C61	C	-0.088068	-1.165641	-0.388681
C62	C	0.411932	-0.665641	0.111319
C63	C	-0.387702	-1.165686	-0.598929
C64	C	0.112298	-0.665686	-0.098929
C65	C	-0.387576	-1.165771	-0.688551
C66	C	0.112424	-0.665771	-0.188551
C67	C	-0.388014	-0.375793	-0.388657
C68	C	0.111986	0.124207	0.111343
C69	C	-0.388012	-0.465414	-0.388648
C70	C	0.111988	0.034586	0.111352
C71	C	-0.388234	-1.165330	-0.179129
C72	C	0.111766	-0.665330	0.320871
C73	C	-0.388133	-1.165400	-0.089508
C74	C	0.111867	-0.665400	0.410492
C75	C	-0.388038	-1.165471	-0.016725
C76	C	0.111962	-0.665471	0.483275
C77	C	-0.387912	-1.165557	0.074583
C78	C	0.112088	-0.665557	0.574583
C79	C	-0.387807	-1.165622	0.147359
C80	C	0.112193	-0.665622	0.647359
C81	C	-0.387681	-1.165707	0.238673
C82	C	0.112319	-0.665707	0.738673
