data_functionalizedCrystal
_audit_creation_method	'MofGen! by Chris Wilmer'
_symmetry_space_group_name_H-M	'P1'
_symmetry_Int_Tables_number	1
_symmetry_cell_setting	triclinic
loop_
_symmetry_equiv_pos_as_xyz
  x,y,z
_cell_length_a	14.971486
_cell_length_b	22.010155
_cell_length_c	14.971486
_cell_angle_alpha	89.995312
_cell_angle_beta	96.385871
_cell_angle_gamma	90.010751
loop_
_atom_site_label
_atom_site_type_symbol
_atom_site_fract_x
_atom_site_fract_y
_atom_site_fract_z
O1	O	1.186959	0.050456	-0.116561
O2	O	1.686959	0.550456	0.383439
O3	O	0.926559	0.050472	-0.130519
O4	O	1.426559	0.550472	0.369481
O5	O	1.063739	0.050459	0.006660
O6	O	1.563739	0.550459	0.506660
O7	O	1.049780	0.050469	-0.253740
O8	O	1.549780	0.550469	0.246260
O9	O	1.063697	-0.050591	0.006660
O10	O	1.563697	0.449409	0.506660
O11	O	0.926518	-0.050578	-0.130519
O12	O	1.426518	0.449422	0.369481
O13	O	1.186918	-0.050595	-0.116560
O14	O	1.686918	0.449405	0.383440
Cu15	Cu	1.056714	-0.059813	-0.123540
Cu16	Cu	1.556714	0.440187	0.376460
Cu17	Cu	1.056763	0.059691	-0.123540
Cu18	Cu	1.556763	0.559691	0.376460
O19	O	1.049739	-0.050582	-0.253740
O20	O	1.549739	0.449418	0.246260
C21	C	0.893214	-0.000051	-0.129895
C22	C	1.393214	0.499949	0.370105
C23	C	0.793917	-0.000045	-0.128024
C24	C	1.293917	0.499955	0.371976
N25	N	1.056686	-0.143866	-0.123539
N26	N	1.556686	0.356134	0.376461
C27	C	0.736691	-0.000043	-0.208614
C28	C	1.236691	0.499957	0.291386
C29	C	0.643392	-0.000052	-0.206850
C30	C	1.143392	0.499948	0.293150
C31	C	0.607320	-0.000059	-0.124497
C32	C	1.107320	0.499941	0.375503
C33	C	0.664552	-0.000063	-0.043902
C34	C	1.164552	0.499937	0.456098
C35	C	0.757850	-0.000058	-0.045666
C36	C	1.257850	0.499942	0.454334
C37	C	0.470090	-0.000071	-0.040231
C38	C	0.970090	0.499929	0.459769
C39	C	0.376786	-0.000075	-0.038466
C40	C	0.876786	0.499925	0.461534
C41	C	0.355632	-0.000065	-0.201415
C42	C	0.855632	0.499935	0.298585
C43	C	0.448930	-0.000060	-0.203179
C44	C	0.948930	0.499940	0.296821
C45	C	0.506156	-0.000063	-0.122584
C46	C	1.006156	0.499937	0.377416
C47	C	1.111069	-0.563647	-0.177870
C48	C	1.611069	-0.063647	0.322130
C49	C	1.111080	-0.627254	-0.177867
C50	C	1.611080	-0.127254	0.322133
O51	O	1.157286	-0.660147	-0.224055
O52	O	1.657286	-0.160147	0.275945
N53	N	1.056781	-0.659073	-0.123530
N54	N	1.556781	-0.159073	0.376470
C55	C	1.002474	-0.627280	-0.069184
C56	C	1.502474	-0.127280	0.430816
O57	O	0.956290	-0.660185	-0.022965
O58	O	1.456290	-0.160185	0.477035
C59	C	1.002469	-0.563674	-0.069182
C60	C	1.502469	-0.063674	0.430818
C61	C	1.056765	-0.531859	-0.123530
C62	C	1.556765	-0.031859	0.376470
C63	C	1.165362	-0.531831	-0.232212
C64	C	1.665362	-0.031831	0.267788
C65	C	1.165350	-0.468228	-0.232216
C66	C	1.665350	0.031772	0.267784
C67	C	1.111045	-0.436440	-0.177876
C68	C	1.611045	0.063560	0.322124
C69	C	1.056753	-0.468256	-0.123533
C70	C	1.556753	0.031744	0.376467
C71	C	0.948168	-0.531883	-0.014832
C72	C	1.448168	-0.031883	0.485168
C73	C	0.948168	-0.468272	-0.014835
C74	C	1.448168	0.031728	0.485165
C75	C	1.002464	-0.436457	-0.069182
C76	C	1.502464	0.063543	0.430818
C77	C	1.002437	-0.372864	-0.069197
C78	C	1.502437	0.127136	0.430803
N79	N	1.056736	-0.341046	-0.123535
N80	N	1.556736	0.158954	0.376465
C81	C	1.111040	-0.372834	-0.177874
C82	C	1.611040	0.127166	0.322126
C83	C	1.002490	-0.760858	-0.069191
C84	C	1.502490	-0.260858	0.430809
C85	C	1.002490	-0.824463	-0.069197
C86	C	1.502490	-0.324463	0.430803
C87	C	1.111097	-0.824433	-0.177880
C88	C	1.611097	-0.324433	0.322120
C89	C	1.111092	-0.760827	-0.177878
C90	C	1.611092	-0.260827	0.322122
C91	C	1.056789	-0.729040	-0.123529
C92	C	1.556789	-0.229040	0.376471
C93	C	1.111010	-0.239262	-0.177877
C94	C	1.611010	0.260738	0.322123
C95	C	1.110991	-0.175654	-0.177879
C96	C	1.610991	0.324346	0.322121
C97	C	1.002387	-0.175690	-0.069193
C98	C	1.502387	0.324310	0.430807
C99	C	1.002403	-0.239293	-0.069195
C100	C	1.502403	0.260707	0.430805
C101	C	1.056722	-0.271078	-0.123540
C102	C	1.556722	0.228922	0.376460
O103	O	0.956257	-0.339931	-0.023030
O104	O	1.456257	0.160069	0.476970
O105	O	1.157226	-0.339921	-0.224077
O106	O	1.657226	0.160079	0.275923
C107	C	1.220263	-0.000070	-0.117185
C108	C	1.720263	0.499930	0.382815
C109	C	1.319561	-0.000073	-0.119056
C110	C	1.819561	0.499927	0.380944
C111	C	1.063094	-0.000066	0.039985
C112	C	1.563094	0.499934	0.539985
C113	C	1.061223	-0.000065	0.139282
C114	C	1.561223	0.499935	0.639282
N115	N	1.056798	0.143743	-0.123534
N116	N	1.556798	0.643743	0.376466
C117	C	1.050383	-0.000055	-0.287065
C118	C	1.550383	0.499945	0.212935
C119	C	1.052254	-0.000052	-0.386362
C120	C	1.552254	0.499948	0.113638
C121	C	1.141812	-0.000071	0.196507
C122	C	1.641812	0.499929	0.696507
C123	C	1.140049	-0.000065	0.289807
C124	C	1.640049	0.499935	0.789807
C125	C	1.057696	-0.000057	0.325879
C126	C	1.557696	0.499943	0.825879
C127	C	0.977101	-0.000050	0.268646
C128	C	1.477101	0.499950	0.768646
C129	C	0.978865	-0.000052	0.175349
C130	C	1.478865	0.499948	0.675349
C131	C	0.973430	-0.000047	0.463109
C132	C	1.473430	0.499953	0.963109
C133	C	0.971665	-0.000047	0.556413
C134	C	1.471665	0.499953	1.056413
C135	C	1.134614	-0.000060	0.577567
C136	C	1.634614	0.499940	1.077567
C137	C	1.136378	-0.000062	0.484269
C138	C	1.636378	0.499938	0.984269
C139	C	1.055782	-0.000056	0.427043
C140	C	1.555782	0.499944	0.927043
H141	H	0.766054	-0.000037	-0.275675
H142	H	1.266054	0.499963	0.224325
H143	H	0.958179	-0.265198	-0.024952
H144	H	1.458179	0.234802	0.475048
Cl145	Cl	1.245348	-0.000086	0.151169
Cl146	Cl	1.745348	0.499914	0.651169
H147	H	1.155242	-0.265134	-0.222130
H148	H	1.655242	0.234866	0.277870
Cl149	Cl	1.233598	-0.428242	-0.300556
Cl150	Cl	1.733598	0.071758	0.199444
H151	H	0.903955	-0.557776	0.029425
H152	H	1.403955	-0.057776	0.529425
Cl153	Cl	0.877548	-0.000042	0.103407
Cl154	Cl	1.377548	0.499958	0.603407
Cl155	Cl	1.241366	-0.000073	0.361744
Cl156	Cl	1.741366	0.499927	0.861744
H157	H	0.904606	-0.000050	0.585780
H158	H	1.404606	0.499950	1.085780
H159	H	0.309033	-0.000065	-0.267039
H160	H	0.809033	0.499935	0.232961
Cl161	Cl	0.571455	-0.000045	-0.308168
Cl162	Cl	1.071455	0.499955	0.191832
Cl163	Cl	1.239909	-0.000068	0.438922
Cl164	Cl	1.739909	0.499932	0.938922
H165	H	0.804443	-0.000059	0.019958
H166	H	1.304443	0.499941	0.519958
H167	H	0.958171	-0.149796	-0.024954
H168	H	1.458171	0.350204	0.475046
H169	H	0.903948	-0.442394	0.029425
H170	H	1.403948	0.057606	0.529425
Cl171	Cl	1.179371	-0.864407	-0.246188
Cl172	Cl	1.679371	-0.364407	0.253812
Cl173	Cl	0.873570	-0.000033	0.313995
Cl174	Cl	1.373570	0.499967	0.813995
H175	H	1.200238	-0.000063	0.624165
H176	H	1.700238	0.499937	1.124165
H177	H	0.478296	-0.000049	-0.270239
H178	H	0.978296	0.499951	0.229761
H179	H	0.907800	-0.000041	0.416517
H180	H	1.407800	0.499959	0.916517
Cl181	Cl	0.619204	-0.000075	0.059629
Cl182	Cl	1.119204	0.499925	0.559629
Cl183	Cl	0.331439	-0.000104	0.065065
Cl184	Cl	0.831439	0.499896	0.565065
Cl185	Cl	1.179248	-0.135661	-0.246213
Cl186	Cl	1.679248	0.364339	0.253787
H187	H	0.516682	-0.000074	0.025399
H188	H	1.016682	0.499926	0.525399
H189	H	1.209588	-0.557706	-0.276462
H190	H	1.709588	-0.057706	0.223538
H191	H	1.155304	-0.734927	-0.222133
H192	H	1.655304	-0.234927	0.277867
Cl193	Cl	0.934215	-0.864452	-0.000885
Cl194	Cl	1.434215	-0.364452	0.499115
H195	H	0.958262	-0.734981	-0.024937
H196	H	1.458262	-0.234981	0.475063
