data_functionalizedCrystal
_audit_creation_method	'MofGen! by Chris Wilmer'
_symmetry_space_group_name_H-M	'P1'
_symmetry_Int_Tables_number	1
_symmetry_cell_setting	triclinic
loop_
_symmetry_equiv_pos_as_xyz
  x,y,z
_cell_length_a	10.654550
_cell_length_b	10.489711
_cell_length_c	9.130313
_cell_angle_alpha	90.002424
_cell_angle_beta	89.996220
_cell_angle_gamma	84.505956
loop_
_atom_site_label
_atom_site_type_symbol
_atom_site_fract_x
_atom_site_fract_y
_atom_site_fract_z
O1	O	1.667899	0.179159	-0.121907
O2	O	1.302427	0.196228	-0.121882
O3	O	1.493499	0.002089	-0.121899
O4	O	1.476827	0.373298	-0.121890
O5	O	1.493496	0.002094	0.121700
O6	O	1.302425	0.196233	0.121717
O7	O	1.667897	0.179164	0.121692
Cu8	Cu	1.485160	0.187699	0.143947
Cu9	Cu	1.485163	0.187693	-0.144137
O10	O	1.476825	0.373303	0.121709
C11	C	1.255627	0.194978	-0.000080
C12	C	1.116183	0.191228	-0.000071
C13	C	1.036738	0.305534	-0.000089
C14	C	0.905716	0.302003	-0.000115
C15	C	0.933595	0.069850	-0.000109
C16	C	1.064615	0.073382	-0.000073
C17	C	1.088306	0.423379	-0.000087
C18	C	1.008861	0.537695	-0.000107
C19	C	0.877839	0.534164	-0.000132
C20	C	0.826262	0.416317	-0.000138
C21	C	1.714696	0.180414	-0.000114
C22	C	1.854141	0.184164	-0.000132
C23	C	1.492246	-0.045440	-0.000104
C24	C	1.488503	-0.187069	-0.000116
C25	C	1.603408	-0.369512	-0.000109
C26	C	1.546010	-0.277337	0.120001
C27	C	1.545981	-0.277366	-0.120168
C28	C	1.424373	-0.347229	0.120122
C29	C	1.424361	-0.347268	-0.120155
C30	C	1.366875	-0.255121	-0.000017
N31	N	1.485168	0.187703	0.346570
C32	C	1.478077	0.420832	-0.000090
C33	C	1.481821	0.562461	-0.000087
N34	N	1.485166	0.187679	-0.346760
C35	C	1.569796	0.101767	0.423214
C36	C	1.569793	0.101752	0.576551
C37	C	1.400528	0.273619	0.576585
C38	C	1.400527	0.273627	0.423251
C39	C	1.654437	0.015843	0.346532
C40	C	1.739074	-0.070098	0.423177
C41	C	1.739070	-0.070113	0.576514
C42	C	1.654430	0.015813	0.653206
H43	H	0.813157	0.627245	-0.000134
H44	H	1.129301	-0.019696	-0.000062
H45	H	1.703343	-0.419250	0.000003
H46	H	1.807976	-0.140098	0.638916
H47	H	1.372957	-0.378265	-0.221698
C48	C	1.354935	-0.388804	0.257457
H49	H	1.352980	-0.479158	0.256655
H50	H	1.271163	-0.348611	0.257808
H51	H	1.397849	-0.364311	0.342642
C52	C	1.654442	0.015864	0.177868
H53	H	1.591923	0.079357	0.143203
H54	H	1.636543	-0.065826	0.143158
H55	H	1.734868	0.034103	0.143190
H56	H	1.266850	-0.205608	0.000057
C57	C	1.615503	-0.235580	-0.257345
H58	H	1.699529	-0.275141	-0.257191
H59	H	1.616757	-0.145154	-0.256839
H60	H	1.573124	-0.260696	-0.342635
H61	H	1.597456	-0.246373	0.221538
C62	C	1.832174	-0.164603	0.338823
H63	H	1.820067	-0.152278	0.236525
H64	H	1.817792	-0.249874	0.363932
H65	H	1.916112	-0.149939	0.363958
C66	C	0.876863	-0.059768	-0.000136
H67	H	0.787454	-0.045500	-0.000175
H68	H	0.904036	-0.106888	0.084814
H69	H	0.904086	-0.106877	-0.085093
H70	H	1.654426	0.015784	0.778063
H71	H	1.331619	0.343577	0.639038
C72	C	1.307444	0.368160	0.338937
H73	H	1.257048	0.419345	0.406564
H74	H	1.254761	0.321781	0.279117
H75	H	1.353103	0.421693	0.279127
H76	H	1.194989	0.426268	-0.000073
H77	H	1.050863	0.633641	-0.000090
H78	H	0.719574	0.413451	-0.000135
