data_functionalizedCrystal
_audit_creation_method	'MofGen! by Chris Wilmer'
_symmetry_space_group_name_H-M	'P1'
_symmetry_Int_Tables_number	1
_symmetry_cell_setting	triclinic
loop_
_symmetry_equiv_pos_as_xyz
  x,y,z
_cell_length_a	14.519709
_cell_length_b	11.026607
_cell_length_c	9.482900
_cell_angle_alpha	78.599815
_cell_angle_beta	99.301351
_cell_angle_gamma	96.133081
loop_
_atom_site_label
_atom_site_type_symbol
_atom_site_fract_x
_atom_site_fract_y
_atom_site_fract_z
O1	O	-1.261291	-0.140186	-0.120696
O2	O	-0.995906	-0.158920	-0.120740
O3	O	-1.106603	0.027148	-0.120716
O4	O	-1.150594	-0.326254	-0.120720
O5	O	-1.084143	-0.010799	0.121071
O6	O	-0.973446	-0.196866	0.121048
O7	O	-1.238831	-0.178133	0.121091
Cu8	Cu	-1.104088	-0.190964	0.143147
Cu9	Cu	-1.130649	-0.146088	-0.142795
O10	O	-1.128134	-0.364200	0.121068
C11	C	-1.087258	0.053403	0.000174
C12	C	-1.063067	0.188171	0.000165
C13	C	-0.950173	-0.177018	0.000148
C14	C	-0.847362	-0.174399	0.000132
C15	C	-1.284565	-0.160033	0.000200
C16	C	-1.387377	-0.162652	0.000207
C17	C	-0.470873	-0.164774	0.000198
C18	C	-0.575623	-0.167447	0.000179
C19	C	-0.659114	-0.169586	0.000163
C20	C	-0.763871	-0.172260	0.000147
C21	C	-1.147479	-0.390455	0.000174
C22	C	-1.171672	-0.525222	0.000174
N23	N	-1.085413	-0.222527	0.344263
C24	C	-1.129865	0.261831	0.000174
C25	C	-1.104864	0.401121	0.000165
N26	N	-1.149330	-0.114516	-0.343911
C27	C	-1.125134	-0.155391	0.416471
C28	C	-1.109604	-0.181661	0.583885
H29	H	-1.205563	0.221771	0.000196
C30	C	-1.002591	0.455224	0.000150
N31	N	-0.925560	0.495977	0.000143
C32	C	-0.960799	0.242281	0.000151
N33	N	-0.883768	0.283033	0.000144
C34	C	-1.023934	-0.326448	0.428180
N35	N	-0.977627	-0.404724	0.491384
C36	C	-1.273945	0.420677	0.000192
N37	N	-1.350976	0.379926	0.000208
C38	C	-1.186589	-0.051445	0.332554
N39	N	-1.232874	0.026855	0.269349
H40	H	-1.064093	-0.258588	0.646000
H41	H	-1.194833	-0.037581	0.593974
