data_functionalizedCrystal
_audit_creation_method	'MofGen! by Chris Wilmer'
_symmetry_space_group_name_H-M	'P1'
_symmetry_Int_Tables_number	1
_symmetry_cell_setting	triclinic
loop_
_symmetry_equiv_pos_as_xyz
  x,y,z
_cell_length_a	29.839134
_cell_length_b	29.839131
_cell_length_c	12.759387
_cell_angle_alpha	89.962744
_cell_angle_beta	89.965041
_cell_angle_gamma	90.034165
loop_
_atom_site_label
_atom_site_type_symbol
_atom_site_fract_x
_atom_site_fract_y
_atom_site_fract_z
Zn1	Zn	0.686767	-0.178917	-0.594363
Zn2	Zn	0.686685	-0.254054	-0.418663
Zn3	Zn	0.611636	-0.178929	-0.418655
Zn4	Zn	0.611597	-0.254011	-0.594258
O5	O	0.649171	-0.216478	-0.506485
O6	O	0.749623	-0.188896	-0.571103
O7	O	0.676711	-0.244112	-0.271641
O8	O	0.621652	-0.116061	-0.442004
O9	O	0.749563	-0.244100	-0.442017
O10	O	0.676851	-0.116051	-0.571095
O11	O	0.621573	-0.188919	-0.271635
O12	O	0.548763	-0.188876	-0.441902
O13	O	0.621587	-0.244026	-0.741293
O14	O	0.548735	-0.244038	-0.570917
O15	O	0.676814	-0.188854	-0.741370
O16	O	0.676674	-0.316916	-0.441916
O17	O	0.621508	-0.316884	-0.570925
C18	C	0.532449	-0.216454	-0.506398
C19	C	0.482514	-0.216455	-0.506386
C20	C	0.125929	-0.187712	-0.439444
C21	C	0.313602	-0.187700	-0.439380
O22	O	0.337869	-0.163224	-0.382367
N23	N	0.337069	-0.216462	-0.506439
C24	C	0.313615	-0.245228	-0.573522
O25	O	0.337881	-0.269689	-0.630566
C26	C	0.125943	-0.245238	-0.573591
C27	C	0.102478	-0.216477	-0.506521
C28	C	0.102465	-0.158953	-0.372380
C29	C	0.055549	-0.158958	-0.372393
C30	C	0.032098	-0.187723	-0.439469
C31	C	0.055563	-0.216482	-0.506533
C32	C	0.102489	-0.274002	-0.640679
C33	C	0.055568	-0.274001	-0.640692
C34	C	0.032104	-0.245239	-0.573622
C35	C	-0.014804	-0.245252	-0.573622
N36	N	-0.038271	-0.216489	-0.506564
C37	C	-0.014819	-0.187725	-0.439488
C38	C	0.412145	-0.245222	-0.573480
C39	C	0.459063	-0.245220	-0.573462
C40	C	0.459048	-0.187691	-0.439321
C41	C	0.412129	-0.187695	-0.439335
C42	C	0.388679	-0.216459	-0.506422
C43	C	-0.113345	-0.187738	-0.439518
C44	C	-0.160265	-0.187747	-0.439534
C45	C	-0.160245	-0.245274	-0.573678
C46	C	-0.113330	-0.245267	-0.573659
C47	C	-0.089881	-0.216495	-0.506576
O48	O	-0.039099	-0.269712	-0.630615
O49	O	-0.039094	-0.163260	-0.382469
C50	C	0.172845	-0.187707	-0.439432
C51	C	0.196309	-0.216467	-0.506495
C52	C	0.172858	-0.245231	-0.573572
C53	C	0.243227	-0.216465	-0.506477
C54	C	0.266678	-0.187700	-0.439401
C55	C	0.243211	-0.158938	-0.372343
C56	C	0.196296	-0.158943	-0.372355
C57	C	0.196325	-0.273994	-0.640630
C58	C	0.243240	-0.273987	-0.640611
C59	C	0.266691	-0.245222	-0.573535
C60	C	0.649090	-0.333200	-0.506433
C61	C	0.649097	-0.383135	-0.506446
C62	C	0.677949	-0.692782	-0.439408
C63	C	0.678004	-0.880455	-0.439449
O64	O	0.702471	-0.904723	-0.382411
N65	N	0.649264	-0.903920	-0.506564
C66	C	0.620511	-0.880463	-0.573679
O67	O	0.596070	-0.904728	-0.630773
C68	C	0.620458	-0.692791	-0.573643
C69	C	0.649196	-0.669329	-0.506515
C70	C	0.706685	-0.669320	-0.372288
C71	C	0.706669	-0.622404	-0.372274
C72	C	0.677917	-0.598951	-0.439381
C73	C	0.649181	-0.622413	-0.506502
C74	C	0.591707	-0.669335	-0.640762
C75	C	0.591697	-0.622414	-0.640748
C76	C	0.620436	-0.598952	-0.573621
C77	C	0.620412	-0.552045	-0.573596
N78	N	0.649152	-0.528580	-0.506480
C79	C	0.677904	-0.552033	-0.439373
C80	C	0.620540	-0.978994	-0.573692
C81	C	0.620553	-1.025912	-0.573700
C82	C	0.678047	-1.025900	-0.439471
C83	C	0.678031	-0.978982	-0.439459
C84	C	0.649280	-0.955529	-0.506577
C85	C	0.677869	-0.453508	-0.439349
C86	C	0.677849	-0.406588	-0.439338
C87	C	0.620357	-0.406603	-0.573570
C88	C	0.620375	-0.453519	-0.573578
C89	C	0.649134	-0.476970	-0.506464
O90	O	0.595962	-0.527748	-0.630612
O91	O	0.702348	-0.527761	-0.382304
C92	C	0.677965	-0.739698	-0.439422
C93	C	0.649228	-0.763160	-0.506543
C94	C	0.620476	-0.739707	-0.573650
C95	C	0.649241	-0.810078	-0.506551
C96	C	0.677993	-0.833531	-0.439443
C97	C	0.706733	-0.810066	-0.372328
C98	C	0.706717	-0.763151	-0.372315
C99	C	0.591736	-0.763171	-0.640765
C100	C	0.591754	-0.810087	-0.640772
C101	C	0.620506	-0.833540	-0.573665
C102	C	0.766350	-0.216502	-0.506573
C103	C	0.816284	-0.216512	-0.506610
C104	C	0.649205	-0.216434	-0.780519
C105	C	0.649220	-0.216415	-0.897295
C106	C	0.649265	-0.099299	-0.506560
C107	C	0.649305	-0.049365	-0.506592
C108	C	0.706731	-0.158969	-0.897395
C109	C	0.735493	-0.130239	-0.952306
C110	C	0.735504	-0.130223	-1.062028
C111	C	0.706749	-0.158938	-1.116841
C112	C	0.677987	-0.187668	-1.061930
C113	C	0.677980	-0.187682	-0.952206
C114	C	0.620474	-0.245111	-1.061831
C115	C	0.620465	-0.245131	-0.952109
C116	C	0.591719	-0.273827	-1.116644
C117	C	0.562958	-0.302560	-1.061733
C118	C	0.562949	-0.302575	-0.952005
C119	C	0.591703	-0.273860	-0.897198
C120	C	0.649163	-0.216489	-0.233517
C121	C	0.649236	-0.216381	-0.116741
H122	H	0.121554	-0.135527	-0.317759
H123	H	0.706729	-0.158983	-0.808054
Cl124	Cl	0.706760	-0.158912	-1.254778
Cl125	Cl	0.488555	-0.281385	-0.657768
Cl126	Cl	0.742807	-0.592916	-0.287897
H127	H	0.262341	-0.297412	-0.695226
H128	H	0.596975	-0.472623	-0.628241
H129	H	0.730143	-0.829170	-0.317684
Cl130	Cl	0.555621	-0.839576	-0.725169
Cl131	Cl	0.591733	-0.273806	-1.254581
H132	H	0.539523	-0.325966	-0.907303
Cl133	Cl	-0.083874	-0.151568	-0.355181
Cl134	Cl	0.584390	-0.949517	-0.658075
H135	H	0.597147	-1.045011	-0.628351
H136	H	0.701288	-0.472596	-0.384701
H137	H	0.568323	-0.744079	-0.695413
H138	H	0.758922	-0.106825	-1.106736
H139	H	0.591700	-0.273872	-0.807857
H140	H	0.393027	-0.164273	-0.384724
H141	H	0.568303	-0.688430	-0.695419
H142	H	0.758904	-0.106859	-0.907665
Cl143	Cl	0.526811	-0.338653	-1.130646
H144	H	0.730101	-0.688410	-0.317640
H145	H	0.701433	-0.959881	-0.384799
H146	H	0.568284	-0.603322	-0.695407
Cl147	Cl	0.714192	-1.055393	-0.355107
H148	H	-0.179368	-0.164325	-0.384914
H149	H	0.478149	-0.164270	-0.384704
H150	H	0.036449	-0.135538	-0.317778
H151	H	0.393056	-0.268646	-0.628113
H152	H	0.121586	-0.297422	-0.695294
H153	H	0.036477	-0.297423	-0.695327
H154	H	-0.179347	-0.268695	-0.628286
Cl155	Cl	-0.083831	-0.281429	-0.657966
Cl156	Cl	0.166805	-0.122782	-0.288037
Cl157	Cl	0.272702	-0.122778	-0.288016
H158	H	0.701251	-0.387486	-0.384672
Cl159	Cl	0.166851	-0.310160	-0.724962
Cl160	Cl	0.584215	-0.377111	-0.657935
Cl161	Cl	0.742849	-0.733662	-0.287926
