data_functionalizedCrystal
_audit_creation_method	'MofGen! by Chris Wilmer'
_symmetry_space_group_name_H-M	'P1'
_symmetry_Int_Tables_number	1
_symmetry_cell_setting	triclinic
loop_
_symmetry_equiv_pos_as_xyz
  x,y,z
_cell_length_a	21.395362
_cell_length_b	19.077068
_cell_length_c	21.395356
_cell_angle_alpha	92.271626
_cell_angle_beta	89.964230
_cell_angle_gamma	92.343691
loop_
_atom_site_label
_atom_site_type_symbol
_atom_site_fract_x
_atom_site_fract_y
_atom_site_fract_z
Zn1	Zn	0.947810	-0.279939	-0.364584
Zn2	Zn	0.943524	-0.397635	-0.264011
Zn3	Zn	0.843039	-0.279987	-0.259787
Zn4	Zn	0.838791	-0.397635	-0.368715
O5	O	0.893291	-0.338799	-0.314274
O6	O	1.034921	-0.295532	-0.351282
O7	O	0.930178	-0.382049	-0.175773
O8	O	0.860508	-0.181488	-0.270193
O9	O	1.031771	-0.382003	-0.277391
O10	O	0.937484	-0.181453	-0.347186
O11	O	0.856352	-0.295613	-0.172670
O12	O	0.754797	-0.295613	-0.274198
O13	O	0.853269	-0.382003	-0.455845
O14	O	0.751676	-0.382048	-0.354227
O15	O	0.933365	-0.295532	-0.452810
O16	O	0.926060	-0.496128	-0.281396
O17	O	0.849113	-0.496128	-0.358323
C18	C	0.730502	-0.338836	-0.314203
C19	C	0.660860	-0.338869	-0.314188
C20	C	0.626536	-0.383936	-0.355801
C21	C	0.561101	-0.383919	-0.355829
C22	C	0.529992	-0.338842	-0.314232
C23	C	0.564324	-0.293766	-0.272615
C24	C	0.629758	-0.293780	-0.272594
C25	C	0.426478	-0.333180	-0.257624
C26	C	0.361045	-0.333171	-0.257645
C27	C	0.328173	-0.338796	-0.314299
C28	C	0.360741	-0.344444	-0.370935
C29	C	0.426175	-0.344458	-0.370913
C30	C	0.459041	-0.338822	-0.314251
C31	C	0.222897	-0.383847	-0.355946
C32	C	0.157462	-0.383824	-0.355974
C33	C	0.160686	-0.293676	-0.272755
C34	C	0.226121	-0.293694	-0.272732
C35	C	0.257222	-0.338783	-0.314327
C36	C	0.886677	-0.521666	-0.320780
C37	C	0.883905	-0.599897	-0.323584
C38	C	0.922696	-0.636626	-0.284883
C39	C	0.920092	-0.710133	-0.287524
C40	C	0.878694	-0.746908	-0.328863
C41	C	0.839901	-0.710173	-0.367568
C42	C	0.842509	-0.636668	-0.364930
C43	C	0.866600	-0.966747	-0.341047
C44	C	0.863994	-1.040257	-0.343681
C45	C	0.944186	-1.040212	-0.263638
C46	C	0.946787	-0.966706	-0.261001
C47	C	0.907997	-0.929977	-0.299708
N48	N	0.876030	-0.822043	-0.331562
N49	N	0.910664	-0.854843	-0.297012
C50	C	1.056716	-0.338762	-0.314347
C51	C	1.126358	-0.338746	-0.314377
C52	C	0.893321	-0.338762	-0.477697
C53	C	0.893334	-0.338746	-0.547337
C54	C	0.899948	-0.155218	-0.307758
C55	C	0.902785	-0.076987	-0.304980
C56	C	0.931851	-0.383606	-1.050745
C57	C	0.931839	-0.383628	-0.985310
C58	C	0.893398	-0.338635	-0.950972
C59	C	0.854954	-0.293628	-0.982074
C60	C	0.854962	-0.293612	-1.047508
C61	C	0.890736	-0.275249	-0.845051
C62	C	0.890732	-0.275264	-0.779618
C63	C	0.893368	-0.338685	-0.749153
C64	C	0.896021	-0.402092	-0.784128
C65	C	0.896029	-0.402076	-0.849561
C66	C	0.893384	-0.338647	-0.880020
C67	C	0.931793	-0.383716	-0.647107
C68	C	0.931776	-0.383739	-0.581671
C69	C	0.854895	-0.293733	-0.578436
C70	C	0.854908	-0.293716	-0.643871
C71	C	0.893360	-0.338706	-0.678202
C72	C	0.893299	-0.338785	-0.151486
C73	C	0.893415	-0.338602	-0.081839
H74	H	0.254068	-0.257000	-0.238843
Cl75	Cl	0.968862	-0.756304	-0.238871
Cl76	Cl	0.806551	-0.237187	-0.535275
H77	H	0.980496	-0.936765	-0.227339
Cl78	Cl	0.114311	-0.440481	-0.408296
Cl79	Cl	0.817833	-0.920584	-0.389707
H80	H	0.963148	-0.420267	-0.959988
Cl81	Cl	0.992951	-1.086389	-0.214985
Cl82	Cl	0.811938	-1.086488	-0.395646
Cl83	Cl	0.887402	-0.195552	-0.735657
Cl84	Cl	0.787861	-0.756405	-0.419541
Cl85	Cl	0.793743	-0.590493	-0.413586
H86	H	0.956404	-0.606689	-0.251218
Cl87	Cl	0.319425	-0.351512	-0.442162
Cl88	Cl	0.980131	-0.440275	-0.690269
Cl89	Cl	0.980184	-0.440173	-1.093901
Cl90	Cl	0.899359	-0.481785	-0.893527
H91	H	0.898168	-0.453735	-0.759324
H92	H	0.963072	-0.420393	-0.556355
Cl93	Cl	0.806629	-0.237063	-0.938907
Cl94	Cl	0.262000	-0.440524	-0.408238
Cl95	Cl	0.806576	-0.237147	-0.682963
H96	H	0.453237	-0.328596	-0.211487
H97	H	0.651855	-0.420650	-0.389672
H98	H	0.888631	-0.223597	-0.869850
H99	H	0.823662	-0.256963	-1.072824
Cl100	Cl	0.320109	-0.326070	-0.186448
Cl101	Cl	0.467116	-0.351554	-0.442108
Cl102	Cl	0.121584	-0.237003	-0.220465
Cl103	Cl	0.525217	-0.237095	-0.220325
Cl104	Cl	0.517942	-0.440579	-0.408146
H105	H	0.657704	-0.257079	-0.238707
