data_functionalizedCrystal
_audit_creation_method	'MofGen! by Chris Wilmer'
_symmetry_space_group_name_H-M	'P1'
_symmetry_Int_Tables_number	1
_symmetry_cell_setting	triclinic
loop_
_symmetry_equiv_pos_as_xyz
  x,y,z
_cell_length_a	18.215407
_cell_length_b	12.594516
_cell_length_c	18.215399
_cell_angle_alpha	89.975485
_cell_angle_beta	89.983176
_cell_angle_gamma	90.016501
loop_
_atom_site_label
_atom_site_type_symbol
_atom_site_fract_x
_atom_site_fract_y
_atom_site_fract_z
Zn1	Zn	1.125095	-0.423715	-0.416146
Zn2	Zn	1.375095	-0.173715	-0.166146
Zn3	Zn	1.625095	0.076285	0.083854
Zn4	Zn	1.875095	0.326285	0.333854
Zn5	Zn	1.125029	-0.601720	-0.293092
Zn6	Zn	1.375029	-0.351720	-0.043092
Zn7	Zn	1.625029	-0.101720	0.206908
Zn8	Zn	1.875029	0.148280	0.456908
Zn9	Zn	1.002034	-0.423757	-0.293093
Zn10	Zn	1.252034	-0.173757	-0.043093
Zn11	Zn	1.502034	0.076243	0.206907
Zn12	Zn	1.752034	0.326243	0.456907
Zn13	Zn	1.002013	-0.601653	-0.416117
Zn14	Zn	1.252013	-0.351653	-0.166117
Zn15	Zn	1.502013	-0.101653	0.083883
Zn16	Zn	1.752013	0.148347	0.333883
O17	O	1.063543	-0.512711	-0.354612
O18	O	1.313543	-0.262711	-0.104612
O19	O	1.563543	-0.012711	0.145388
O20	O	1.813543	0.237289	0.395388
O21	O	1.228071	-0.447338	-0.399834
O22	O	1.478071	-0.197338	-0.149834
O23	O	1.728071	0.052662	0.100166
O24	O	1.978071	0.302662	0.350166
O25	O	1.108695	-0.578158	-0.190108
O26	O	1.358695	-0.328158	0.059892
O27	O	1.608695	-0.078158	0.309892
O28	O	1.858695	0.171842	0.559892
O29	O	1.018395	-0.274806	-0.309429
O30	O	1.268395	-0.024806	-0.059429
O31	O	1.518395	0.225194	0.190571
O32	O	1.768395	0.475194	0.440571
O33	O	1.228022	-0.578117	-0.309427
O34	O	1.478022	-0.328117	-0.059427
O35	O	1.728022	-0.078117	0.190573
O36	O	1.978022	0.171883	0.440573
O37	O	1.108808	-0.274775	-0.399835
O38	O	1.358808	-0.024775	-0.149835
O39	O	1.608808	0.225225	0.100165
O40	O	1.858808	0.475225	0.350165
O41	O	1.018331	-0.447410	-0.190109
O42	O	1.268331	-0.197410	0.059891
O43	O	1.518331	0.052590	0.309891
O44	O	1.768331	0.302590	0.559891
O45	O	0.899047	-0.447345	-0.309401
O46	O	1.149047	-0.197345	-0.059401
O47	O	1.399047	0.052655	0.190599
O48	O	1.649047	0.302655	0.440599
O49	O	1.018359	-0.578004	-0.519105
O50	O	1.268359	-0.328004	-0.269105
O51	O	1.518359	-0.078004	-0.019105
O52	O	1.768359	0.171996	0.230895
O53	O	0.899031	-0.578045	-0.399786
O54	O	1.149031	-0.328045	-0.149786
O55	O	1.399031	-0.078045	0.100214
O56	O	1.649031	0.171955	0.350214
O57	O	1.108787	-0.447273	-0.519126
O58	O	1.358787	-0.197273	-0.269126
O59	O	1.608787	0.052727	-0.019126
O60	O	1.858787	0.302727	0.230874
O61	O	1.108674	-0.750657	-0.309399
O62	O	1.358674	-0.500657	-0.059399
O63	O	1.608674	-0.250657	0.190601
O64	O	1.858674	-0.000657	0.440601
O65	O	1.018294	-0.750608	-0.399785
O66	O	1.268294	-0.500608	-0.149785
O67	O	1.518294	-0.250608	0.100215
O68	O	1.768294	-0.000608	0.350215
C69	C	0.872337	-0.512693	-0.354591
C70	C	1.122337	-0.262693	-0.104591
C71	C	1.372337	-0.012693	0.145409
C72	C	1.622337	0.237307	0.395409
C73	C	0.790538	-0.512711	-0.354599
C74	C	1.040538	-0.262711	-0.104599
C75	C	1.290538	-0.012711	0.145401
C76	C	1.540538	0.237289	0.395401
C77	C	0.602355	-0.580873	-0.401604
C78	C	0.852355	-0.330873	-0.151604
C79	C	1.102355	-0.080873	0.098396
C80	C	1.352355	0.169127	0.348396
C81	C	0.525496	-0.580877	-0.401613
C82	C	0.775496	-0.330877	-0.151613
C83	C	1.025496	-0.080877	0.098387
C84	C	1.275496	0.169123	0.348387
C85	C	0.525483	-0.444569	-0.307636
C86	C	0.775483	-0.194569	-0.057636
C87	C	1.025483	0.055431	0.192364
C88	C	1.275483	0.305431	0.442364
C89	C	0.602340	-0.444561	-0.307631
C90	C	0.852340	-0.194561	-0.057631
C91	C	1.102340	0.055439	0.192369
C92	C	1.352340	0.305439	0.442369
C93	C	0.640774	-0.512719	-0.354614
C94	C	0.890774	-0.262719	-0.104614
C95	C	1.140774	-0.012719	0.145386
C96	C	1.390774	0.237281	0.395386
C97	C	0.487058	-0.512730	-0.354628
C98	C	0.737058	-0.262730	-0.104628
C99	C	0.987058	-0.012730	0.145372
C100	C	1.237058	0.237270	0.395372
C101	C	0.403724	-0.512734	-0.354638
C102	C	0.653724	-0.262734	-0.104638
C103	C	0.903724	-0.012734	0.145362
C104	C	1.153724	0.237266	0.395362
C105	C	0.724113	-0.512715	-0.354606
C106	C	0.974113	-0.262715	-0.104606
C107	C	1.224113	-0.012715	0.145394
C108	C	1.474113	0.237285	0.395394
C109	C	1.063495	-0.789252	-0.354605
C110	C	1.313495	-0.539252	-0.104605
C111	C	1.563495	-0.289252	0.145395
C112	C	1.813495	-0.039252	0.395395
C113	C	1.063541	-0.907558	-0.354626
C114	C	1.313541	-0.657558	-0.104626
C115	C	1.563541	-0.407558	0.145374
C116	C	1.813541	-0.157558	0.395374
C117	C	1.014379	-0.976823	-0.403753
C118	C	1.264379	-0.726823	-0.153753
C119	C	1.514379	-0.476823	0.096247
C120	C	1.764379	-0.226823	0.346247
C121	C	0.996453	-1.047686	-0.336600
C122	C	1.246453	-0.797686	-0.086600
C123	C	1.496453	-0.547686	0.163400
C124	C	1.746453	-0.297686	0.413400
C125	C	1.081534	-1.047494	-0.421791
C126	C	1.331534	-0.797494	-0.171791
C127	C	1.581534	-0.547494	0.078209
C128	C	1.831534	-0.297494	0.328209
C129	C	1.045580	-0.976862	-0.287438
C130	C	1.295580	-0.726862	-0.037438
C131	C	1.545580	-0.476862	0.212562
C132	C	1.795580	-0.226862	0.462562
C133	C	1.130692	-0.976664	-0.372674
C134	C	1.380692	-0.726664	-0.122674
C135	C	1.630692	-0.476664	0.127326
C136	C	1.880692	-0.226664	0.377326
C137	C	1.112792	-1.047495	-0.305475
C138	C	1.362792	-0.797495	-0.055475
C139	C	1.612792	-0.547495	0.194525
C140	C	1.862792	-0.297495	0.444525
C141	C	1.255496	-0.512730	-0.354634
C142	C	1.505496	-0.262730	-0.104634
C143	C	1.755496	-0.012730	0.145366
C144	C	2.005496	0.237270	0.395366
C145	C	1.337295	-0.512739	-0.354643
C146	C	1.587295	-0.262739	-0.104643
C147	C	1.837295	-0.012739	0.145357
C148	C	2.087295	0.237261	0.395357
C149	C	1.063578	-0.512626	-0.546565
C150	C	1.313578	-0.262626	-0.296565
C151	C	1.563578	-0.012626	-0.046565
C152	C	1.813578	0.237374	0.203435
C153	C	1.063592	-0.512590	-0.628364
C154	C	1.313592	-0.262590	-0.378364
C155	C	1.563592	-0.012590	-0.128364
C156	C	1.813592	0.237410	0.121636
C157	C	1.063611	-0.235091	-0.354635
C158	C	1.313611	0.014909	-0.104635
C159	C	1.563611	0.264909	0.145365
C160	C	1.813611	0.514909	0.395365
C161	C	1.063640	-0.116785	-0.354645
C162	C	1.313640	0.133215	-0.104645
C163	C	1.563640	0.383215	0.145355
C164	C	1.813640	0.633215	0.395355
C165	C	1.016580	-0.444463	-0.816559
C166	C	1.266580	-0.194463	-0.566559
C167	C	1.516580	0.055537	-0.316559
C168	C	1.766580	0.305537	-0.066559
C169	C	1.016593	-0.444442	-0.893418
C170	C	1.266593	-0.194442	-0.643418
C171	C	1.516593	0.055558	-0.393418
C172	C	1.766593	0.305558	-0.143418
C173	C	1.110693	-0.580590	-0.893406
C174	C	1.360693	-0.330590	-0.643406
C175	C	1.610693	-0.080590	-0.393406
C176	C	1.860693	0.169410	-0.143406
C177	C	1.110676	-0.580616	-0.816549
C178	C	1.360676	-0.330616	-0.566549
C179	C	1.610676	-0.080616	-0.316549
C180	C	1.860676	0.169384	-0.066549
C181	C	1.063620	-0.512547	-0.778127
C182	C	1.313620	-0.262547	-0.528127
C183	C	1.563620	-0.012547	-0.278127
C184	C	1.813620	0.237453	-0.028127
C185	C	1.063650	-0.512499	-0.931844
C186	C	1.313650	-0.262499	-0.681844
C187	C	1.563650	-0.012499	-0.431844
C188	C	1.813650	0.237501	-0.181844
C189	C	1.063664	-0.512476	-1.015177
C190	C	1.313664	-0.262476	-0.765177
C191	C	1.563664	-0.012476	-0.515177
C192	C	1.813664	0.237524	-0.265177
C193	C	1.063605	-0.512571	-0.694788
C194	C	1.313605	-0.262571	-0.444788
C195	C	1.563605	-0.012571	-0.194788
C196	C	1.813605	0.237429	0.055212
C197	C	1.063551	-0.512719	-0.163406
C198	C	1.313551	-0.262719	0.086594
C199	C	1.563551	-0.012719	0.336594
C200	C	1.813551	0.237281	0.586594
C201	C	1.063678	-0.512456	-0.081607
C202	C	1.313678	-0.262456	0.168393
C203	C	1.563678	-0.012456	0.418393
C204	C	1.813678	0.237544	0.668393
H205	H	0.494181	-0.389079	-0.269384
H206	H	0.744181	-0.139079	-0.019384
H207	H	0.994181	0.110921	0.230616
H208	H	1.244181	0.360921	0.480616
H209	H	1.030336	-0.945965	-0.230630
H210	H	1.280336	-0.695965	0.019370
H211	H	1.530336	-0.445965	0.269370
H212	H	1.780336	-0.195965	0.519370
H213	H	0.939711	-1.078905	-0.321350
H214	H	1.189711	-0.828905	-0.071350
H215	H	1.439711	-0.578905	0.178650
H216	H	1.689711	-0.328905	0.428650
H217	H	0.633645	-0.636369	-0.439862
H218	H	0.883645	-0.386369	-0.189862
H219	H	1.133645	-0.136369	0.060138
H220	H	1.383645	0.113631	0.310138
H221	H	0.494218	-0.636373	-0.439878
H222	H	0.744218	-0.386373	-0.189878
H223	H	0.994218	-0.136373	0.060122
H224	H	1.244218	0.113627	0.310122
H225	H	0.633622	-0.389055	-0.269367
H226	H	0.883622	-0.139055	-0.019367
H227	H	1.133622	0.110945	0.230633
H228	H	1.383622	0.360945	0.480633
H229	H	1.154409	-1.078331	-0.263891
H230	H	1.404409	-0.828331	-0.013891
H231	H	1.654409	-0.578331	0.236109
H232	H	1.904409	-0.328331	0.486109
H233	H	0.972730	-0.945791	-0.445237
H234	H	1.222730	-0.695791	-0.195237
H235	H	1.472730	-0.445791	0.054763
H236	H	1.722730	-0.195791	0.304763
H237	H	1.187421	-0.945448	-0.387956
H238	H	1.437421	-0.695448	-0.137956
H239	H	1.687421	-0.445448	0.112044
H240	H	1.937421	-0.195448	0.362044
H241	H	1.096713	-1.078520	-0.478583
H242	H	1.346713	-0.828520	-0.228583
H243	H	1.596713	-0.578520	0.021417
H244	H	1.846713	-0.328520	0.271417
H245	H	0.978264	-0.389037	-0.785279
H246	H	1.228264	-0.139037	-0.535279
H247	H	1.478264	0.110963	-0.285279
H248	H	1.728264	0.360963	-0.035279
H249	H	0.978287	-0.389003	-0.924706
H250	H	1.228287	-0.139003	-0.674706
H251	H	1.478287	0.110997	-0.424706
H252	H	1.728287	0.360997	-0.174706
H253	H	1.149005	-0.636009	-0.924699
H254	H	1.399005	-0.386009	-0.674699
H255	H	1.649005	-0.136009	-0.424699
H256	H	1.899005	0.113991	-0.174699
H257	H	1.148984	-0.636061	-0.785257
H258	H	1.398984	-0.386061	-0.535257
H259	H	1.648984	-0.136061	-0.285257
H260	H	1.898984	0.113939	-0.035257
