data_functionalizedCrystal
_audit_creation_method	'MofGen! by Chris Wilmer'
_symmetry_space_group_name_H-M	'P1'
_symmetry_Int_Tables_number	1
_symmetry_cell_setting	triclinic
loop_
_symmetry_equiv_pos_as_xyz
  x,y,z
_cell_length_a	23.532407
_cell_length_b	23.532407
_cell_length_c	22.010155
_cell_angle_alpha	90.003069
_cell_angle_beta	89.999577
_cell_angle_gamma	97.151322
loop_
_atom_site_label
_atom_site_type_symbol
_atom_site_fract_x
_atom_site_fract_y
_atom_site_fract_z
O1	O	0.069127	-0.755264	-0.050455
O2	O	0.402460	-0.421930	0.282878
O3	O	0.735794	-0.088597	0.616211
O4	O	0.079130	-0.589400	-0.050474
O5	O	0.412463	-0.256067	0.282859
O6	O	0.745797	0.077266	0.616193
O7	O	-0.008803	-0.677334	-0.050453
O8	O	0.324530	-0.344000	0.282880
O9	O	0.657863	-0.010667	0.616214
O10	O	0.157060	-0.667330	-0.050476
O11	O	0.490393	-0.333997	0.282857
O12	O	0.823727	-0.000664	0.616190
O13	O	-0.008790	-0.677318	0.050597
O14	O	0.324543	-0.343984	0.383931
O15	O	0.657877	-0.010651	0.717264
O16	O	0.079143	-0.589384	0.050576
O17	O	0.412477	-0.256051	0.383910
O18	O	0.745810	0.077282	0.717243
O19	O	0.069140	-0.755248	0.050595
O20	O	0.402473	-0.421914	0.383928
O21	O	0.735807	-0.088581	0.717262
Cu22	Cu	0.074143	-0.672315	0.059812
Cu23	Cu	0.407476	-0.338981	0.393146
Cu24	Cu	0.740810	-0.005648	0.726479
Cu25	Cu	0.074127	-0.672333	-0.059691
Cu26	Cu	0.407461	-0.339000	0.273642
Cu27	Cu	0.740794	-0.005667	0.606975
O28	O	0.157073	-0.667314	0.050574
O29	O	0.490407	-0.333981	0.383907
O30	O	0.823740	-0.000648	0.717241
C31	C	0.078882	-0.568176	0.000049
C32	C	0.412215	-0.234843	0.333382
C33	C	0.745549	0.098490	0.666715
C34	C	0.078116	-0.504959	0.000042
C35	C	0.411449	-0.171626	0.333375
C36	C	0.744783	0.161707	0.666709
N37	N	0.074153	-0.672305	0.143865
N38	N	0.407487	-0.338972	0.477198
N39	N	0.740820	-0.005639	0.810531
C40	C	-0.030013	-0.677071	0.000074
C41	C	0.303321	-0.343738	0.333407
C42	C	0.636654	-0.010404	0.666740
C43	C	-0.093230	-0.676305	0.000078
C44	C	0.240104	-0.342972	0.333412
C45	C	0.573437	-0.009638	0.666745
C46	C	-0.492333	-0.723539	0.000050
C47	C	-0.158999	-0.390205	0.333384
C48	C	0.174334	-0.056872	0.666717
C49	C	-0.551733	-0.722827	0.000046
C50	C	-0.218400	-0.389494	0.333379
C51	C	0.114934	-0.056160	0.666712
O52	O	-0.588478	-0.766613	0.000028
O53	O	-0.255144	-0.433280	0.333361
O54	O	0.078189	-0.099946	0.666695
N55	N	-0.574359	-0.670551	0.000040
N56	N	-0.241026	-0.337217	0.333373
N57	N	0.092307	-0.003884	0.666707
C58	C	-0.537582	-0.618983	0.000033
C59	C	-0.204248	-0.285649	0.333366
C60	C	0.129085	0.047684	0.666700
O61	O	-0.562281	-0.574452	0.000027
O62	O	-0.228948	-0.241119	0.333361
O63	O	0.104385	0.092215	0.666694
C64	C	-0.478182	-0.619695	0.000033
C65	C	-0.144849	-0.286361	0.333367
C66	C	0.188484	0.046972	0.666700
C67	C	-0.455560	-0.671974	0.000045
C68	C	-0.122227	-0.338641	0.333378
C69	C	0.211107	-0.005308	0.666712
C70	C	-0.469710	-0.775814	0.000061
C71	C	-0.136376	-0.442481	0.333394
C72	C	0.196957	-0.109147	0.666728
C73	C	-0.410313	-0.776525	0.000067
C74	C	-0.076980	-0.443192	0.333400
C75	C	0.256353	-0.109859	0.666734
C76	C	-0.373540	-0.724961	0.000062
C77	C	-0.040207	-0.391628	0.333395
C78	C	0.293126	-0.058294	0.666729
C79	C	-0.396164	-0.672685	0.000051
C80	C	-0.062830	-0.339352	0.333384
C81	C	0.270503	-0.006019	0.666718
C82	C	-0.441406	-0.568127	0.000022
C83	C	-0.108073	-0.234794	0.333356
C84	C	0.225261	0.098540	0.666689
C85	C	-0.382004	-0.568844	0.000022
C86	C	-0.048670	-0.235510	0.333355
C87	C	0.284663	0.097823	0.666689
C88	C	-0.359381	-0.621123	0.000034
C89	C	-0.026048	-0.287790	0.333367
C90	C	0.307286	0.045543	0.666700
C91	C	-0.299995	-0.621832	0.000052
C92	C	0.033339	-0.288499	0.333385
C93	C	0.366672	0.044834	0.666718
N94	N	-0.277368	-0.674109	0.000057
N95	N	0.055965	-0.340775	0.333390
N96	N	0.389298	-0.007442	0.666724
C97	C	-0.314141	-0.725673	0.000062
C98	C	0.019192	-0.392340	0.333396
C99	C	0.352525	-0.059006	0.666729
C100	C	-0.662324	-0.617491	0.000031
C101	C	-0.328991	-0.284158	0.333365
C102	C	0.004343	0.049176	0.666698
C103	C	-0.721722	-0.616778	0.000035
C104	C	-0.388389	-0.283445	0.333369
C105	C	-0.055055	0.049888	0.666702
C106	C	-0.735869	-0.720623	0.000047
C107	C	-0.402536	-0.387290	0.333380
C108	C	-0.069203	-0.053957	0.666713
C109	C	-0.676470	-0.721335	0.000047
C110	C	-0.343137	-0.388002	0.333380
C111	C	-0.009804	-0.054669	0.666714
C112	C	-0.639698	-0.669767	0.000037
C113	C	-0.306365	-0.336434	0.333370
C114	C	0.026969	-0.003101	0.666703
C115	C	-0.189405	-0.727163	0.000075
C116	C	0.143929	-0.393829	0.333408
C117	C	0.477262	-0.060496	0.666742
C118	C	-0.130003	-0.727869	0.000083
C119	C	0.203331	-0.394536	0.333417
C120	C	0.536664	-0.061203	0.666750
C121	C	-0.115860	-0.624025	0.000069
C122	C	0.217473	-0.290692	0.333402
C123	C	0.550806	0.042642	0.666736
C124	C	-0.175257	-0.623318	0.000064
C125	C	0.158076	-0.289985	0.333397
C126	C	0.491409	0.043349	0.666730
C127	C	-0.212029	-0.674891	0.000065
C128	C	0.121305	-0.341558	0.333398
C129	C	0.454638	-0.008225	0.666731
O130	O	-0.263215	-0.578070	0.000067
O131	O	0.070118	-0.244736	0.333400
O132	O	0.403451	0.088597	0.666733
O133	O	-0.289433	-0.770196	0.000060
O134	O	0.043900	-0.436863	0.333393
O135	O	0.377233	-0.103529	0.666727
C136	C	0.178283	-0.667577	0.000046
C137	C	0.511616	-0.334244	0.333379
C138	C	0.844949	-0.000910	0.666712
C139	C	0.241500	-0.668343	0.000037
C140	C	0.574833	-0.335010	0.333371
C141	C	0.908167	-0.001676	0.666704
C142	C	0.069388	-0.776472	0.000071
C143	C	0.402722	-0.443138	0.333404
C144	C	0.736055	-0.109805	0.666737
C145	C	0.070154	-0.839689	0.000073
C146	C	0.403487	-0.506355	0.333407
C147	C	0.736821	-0.173022	0.666740
C148	C	0.125350	-0.105856	0.000063
C149	C	0.458683	0.227477	0.333396
C150	C	0.792016	0.560810	0.666730
C151	C	0.124638	-0.046456	0.000067
C152	C	0.457971	0.286877	0.333400
C153	C	0.791305	0.620211	0.666733
O154	O	0.168424	-0.009711	0.000083
O155	O	0.501757	0.323622	0.333416
O156	O	0.835091	0.656955	0.666749
N157	N	0.072362	-0.023830	0.000073
N158	N	0.405695	0.309504	0.333407
N159	N	0.739028	0.642837	0.666740
C160	C	0.020794	-0.060607	0.000082
C161	C	0.354127	0.272726	0.333415
C162	C	0.687460	0.606059	0.666749
O163	O	-0.023737	-0.035908	0.000088
O164	O	0.309596	0.297426	0.333422
O165	O	0.642930	0.630759	0.666755
C166	C	0.021506	-0.120006	0.000082
C167	C	0.354839	0.213327	0.333416
C168	C	0.688172	0.546660	0.666749
C169	C	0.073785	-0.142629	0.000070
C170	C	0.407119	0.190704	0.333403
C171	C	0.740452	0.524038	0.666737
C172	C	0.177625	-0.128479	0.000051
C173	C	0.510958	0.204854	0.333385
C174	C	0.844292	0.538187	0.666718
C175	C	0.178336	-0.187876	0.000046
C176	C	0.511670	0.145458	0.333380
C177	C	0.845003	0.478791	0.666713
C178	C	0.126772	-0.224649	0.000053
C179	C	0.460105	0.108685	0.333386
C180	C	0.793439	0.442018	0.666720
C181	C	0.074497	-0.202025	0.000065
C182	C	0.407830	0.131308	0.333398
C183	C	0.741163	0.464641	0.666732
C184	C	-0.030062	-0.156783	0.000096
C185	C	0.303271	0.176550	0.333429
C186	C	0.636605	0.509884	0.666762
C187	C	-0.029345	-0.216185	0.000097
C188	C	0.303988	0.117148	0.333430
C189	C	0.637321	0.450481	0.666763
C190	C	0.022934	-0.238808	0.000084
C191	C	0.356268	0.094525	0.333417
C192	C	0.689601	0.427859	0.666751
C193	C	0.023643	-0.298194	0.000067
C194	C	0.356977	0.035139	0.333400
C195	C	0.690310	0.368472	0.666734
N196	N	0.075920	-0.320820	0.000061
N197	N	0.409253	0.012513	0.333394
N198	N	0.742586	0.345846	0.666727
C199	C	0.127484	-0.284048	0.000054
C200	C	0.460817	0.049286	0.333387
C201	C	0.794151	0.382619	0.666720
C202	C	0.019302	0.064135	0.000082
C203	C	0.352635	0.397468	0.333415
C204	C	0.685969	0.730802	0.666749
C205	C	0.018589	0.123533	0.000077
C206	C	0.351923	0.456866	0.333410
C207	C	0.685256	0.790200	0.666744
C208	C	0.122434	0.137680	0.000063
C209	C	0.455768	0.471014	0.333396
C210	C	0.789101	0.804347	0.666730
C211	C	0.123146	0.078281	0.000064
C212	C	0.456480	0.411615	0.333397
C213	C	0.789813	0.744948	0.666730
C214	C	0.071578	0.041509	0.000076
C215	C	0.404912	0.374842	0.333409
C216	C	0.738245	0.708176	0.666742
C217	C	0.128974	-0.408784	0.000043
C218	C	0.462307	-0.075451	0.333376
C219	C	0.795640	0.257882	0.666709
C220	C	0.129680	-0.468186	0.000035
C221	C	0.463014	-0.134853	0.333369
C222	C	0.796347	0.198480	0.666702
C223	C	0.025836	-0.482329	0.000052
C224	C	0.359169	-0.148995	0.333386
C225	C	0.692503	0.184338	0.666719
C226	C	0.025129	-0.422932	0.000057
C227	C	0.358462	-0.089598	0.333390
C228	C	0.691796	0.243735	0.666723
C229	C	0.076702	-0.386160	0.000054
C230	C	0.410036	-0.052827	0.333387
C231	C	0.743369	0.280506	0.666721
O232	O	-0.020119	-0.334974	0.000054
O233	O	0.313214	-0.001640	0.333387
O234	O	0.646547	0.331693	0.666720
O235	O	0.172007	-0.308755	0.000055
O236	O	0.505340	0.024578	0.333389
O237	O	0.838674	0.357911	0.666722
N238	N	0.074112	-0.672347	-0.143744
N239	N	0.407445	-0.339014	0.189589
N240	N	0.740779	-0.005680	0.522923
C241	C	0.035196	-0.711273	0.563653
C242	C	0.368529	-0.377939	0.896987
C243	C	0.701863	-0.044606	1.230320
C244	C	0.035192	-0.711275	0.627261
C245	C	0.368525	-0.377942	0.960594
C246	C	0.701859	-0.044609	1.293928
O247	O	0.002076	-0.744384	0.660160
O248	O	0.335410	-0.411050	0.993494
O249	O	0.668743	-0.077717	1.326827
N250	N	0.074115	-0.672333	0.659072
N251	N	0.407449	-0.339000	0.992405
N252	N	0.740782	-0.005667	1.325739
C253	C	0.113041	-0.633382	0.627272
C254	C	0.446375	-0.300049	0.960605
C255	C	0.779708	0.033285	1.293938
O256	O	0.146148	-0.600259	0.660170
O257	O	0.479481	-0.266925	0.993503
O258	O	0.812815	0.066408	1.326837
C259	C	0.113042	-0.633377	0.563665
C260	C	0.446375	-0.300044	0.896999
C261	C	0.779709	0.033289	1.230332
C262	C	0.074120	-0.672326	0.531858
C263	C	0.407453	-0.338992	0.865191
C264	C	0.740787	-0.005659	1.198524
C265	C	-0.003723	-0.750217	0.531846
C266	C	0.329610	-0.416884	0.865179
C267	C	0.662943	-0.083551	1.198513
C268	C	-0.003719	-0.750215	0.468243
C269	C	0.329615	-0.416882	0.801576
C270	C	0.662948	-0.083549	1.134909
C271	C	0.035205	-0.711268	0.436447
C272	C	0.368539	-0.377935	0.769780
C273	C	0.701872	-0.044602	1.103114
C274	C	0.074125	-0.672324	0.468255
C275	C	0.407458	-0.338990	0.801588
C276	C	0.740791	-0.005657	1.134921
C277	C	0.151965	-0.594424	0.531866
C278	C	0.485298	-0.261091	0.865200
C279	C	0.818632	0.072243	1.198533
C280	C	0.151962	-0.594422	0.468256
C281	C	0.485295	-0.261089	0.801589
C282	C	0.818629	0.072245	1.134922
C283	C	0.113040	-0.633370	0.436448
C284	C	0.446373	-0.300037	0.769781
C285	C	0.779707	0.033296	1.103115
C286	C	0.113054	-0.633374	0.372856
C287	C	0.446387	-0.300041	0.706189
C288	C	0.779720	0.033292	1.039522
N289	N	0.074130	-0.672317	0.341045
N290	N	0.407464	-0.338983	0.674378
N291	N	0.740797	-0.005650	1.007712
C292	C	0.035206	-0.711263	0.372841
C293	C	0.368540	-0.377930	0.706174
C294	C	0.701873	-0.044597	1.039507
C295	C	0.113036	-0.633395	0.760850
C296	C	0.446369	-0.300061	1.094183
C297	C	0.779703	0.033272	1.427516
C298	C	0.113039	-0.633402	0.824455
C299	C	0.446372	-0.300069	1.157788
C300	C	0.779705	0.033265	1.491122
C301	C	0.035188	-0.711294	0.824440
C302	C	0.368522	-0.377961	1.157773
C303	C	0.701855	-0.044628	1.491106
C304	C	0.035189	-0.711290	0.760833
C305	C	0.368522	-0.377956	1.094167
C306	C	0.701856	-0.044623	1.427500
C307	C	0.074113	-0.672337	0.729039
C308	C	0.407446	-0.339003	1.062372
C309	C	0.740779	-0.005670	1.395705
C310	C	0.035220	-0.711256	0.239269
C311	C	0.368553	-0.377923	0.572603
C312	C	0.701886	-0.044590	0.905936
C313	C	0.035229	-0.711252	0.175660
C314	C	0.368563	-0.377919	0.508994
C315	C	0.701896	-0.044586	0.842327
C316	C	0.113077	-0.633358	0.175681
C317	C	0.446411	-0.300025	0.509014
C318	C	0.779744	0.033309	0.842348
C319	C	0.113070	-0.633364	0.239284
C320	C	0.446403	-0.300031	0.572618
C321	C	0.779736	0.033303	0.905951
C322	C	0.074136	-0.672315	0.271077
C323	C	0.407469	-0.338982	0.604410
C324	C	0.740803	-0.005649	0.937744
O325	O	0.146151	-0.600282	0.339916
O326	O	0.479484	-0.266948	0.673249
O327	O	0.812818	0.066385	1.006583
O328	O	0.002100	-0.744376	0.339935
O329	O	0.335433	-0.411043	0.673268
O330	O	0.668767	-0.077710	1.006601
H331	H	-0.111587	-0.770443	0.000094
H332	H	0.221746	-0.437110	0.333428
H333	H	0.555080	-0.103777	0.666761
H334	H	0.003534	-0.742971	0.149765
H335	H	0.336868	-0.409638	0.483098
H336	H	0.670201	-0.076304	0.816431
H337	H	-0.219337	-0.769159	0.000073
H338	H	0.113996	-0.435826	0.333407
H339	H	0.447329	-0.102492	0.666740
C340	C	0.155889	-0.590522	0.274274
C341	C	0.489222	-0.257189	0.607607
C342	C	0.822556	0.076144	0.940940
N343	N	0.188138	-0.558249	0.300623
N344	N	0.521471	-0.224916	0.633957
N345	N	0.854804	0.108417	0.967290
H346	H	-0.391900	-0.819097	0.000074
H347	H	-0.058567	-0.485763	0.333407
H348	H	0.274767	-0.152430	0.666741
H349	H	-0.016146	-0.512280	0.000056
H350	H	0.317187	-0.178946	0.333389
H351	H	0.650520	0.154387	0.666722
C352	C	-0.087575	-0.131912	0.000121
C353	C	0.245759	0.201421	0.333455
C354	C	0.579092	0.534755	0.666788
N355	N	-0.130897	-0.113181	0.000146
N356	N	0.202437	0.220153	0.333479
N357	N	0.535770	0.553486	0.666812
H358	H	-0.765821	-0.762610	0.000048
H359	H	-0.432488	-0.429276	0.333382
H360	H	-0.099154	-0.095943	0.666715
H361	H	-0.740136	-0.574207	0.000036
H362	H	-0.406802	-0.240874	0.333370
H363	H	-0.073469	0.092460	0.666703
H364	H	0.144771	-0.601650	0.149783
H365	H	0.478104	-0.268316	0.483116
H366	H	0.811437	0.065017	0.816450
C367	C	0.185707	-0.368344	0.000036
C368	C	0.519041	-0.035011	0.333370
C369	C	0.852374	0.298322	0.666703
N370	N	0.228439	-0.337885	0.000027
N371	N	0.561773	-0.004552	0.333360
N372	N	0.895106	0.328782	0.666694
H373	H	0.183658	-0.562708	0.557755
H374	H	0.516992	-0.229375	0.891089
H375	H	0.850325	0.103958	1.224422
H376	H	-0.085909	-0.582043	0.000067
H377	H	0.247424	-0.248709	0.333400
H378	H	0.580757	0.084624	0.666734
C379	C	-0.086076	-0.256632	0.000107
C380	C	0.247257	0.076701	0.333440
C381	C	0.580591	0.410035	0.666774
N382	N	-0.128805	-0.287095	0.000113
N383	N	0.204528	0.046238	0.333446
N384	N	0.537862	0.379571	0.666779
H385	H	-0.017441	-0.404512	0.000058
H386	H	0.315892	-0.071178	0.333391
H387	H	0.649225	0.262155	0.666725
H388	H	-0.632386	-0.575496	0.000028
H389	H	-0.299053	-0.242162	0.333362
H390	H	0.034280	0.091171	0.666695
H391	H	0.220908	-0.206289	0.000036
H392	H	0.554241	0.127044	0.333369
H393	H	0.887574	0.460378	0.666702
C394	C	0.194788	-0.551576	0.433286
C395	C	0.528122	-0.218242	0.766619
C396	C	0.861455	0.115091	1.099952
N397	N	0.227048	-0.519307	0.406947
N398	N	0.560381	-0.185973	0.740281
N399	N	0.893715	0.147360	1.073614
H400	H	-0.023982	0.141947	0.000078
H401	H	0.309352	0.475280	0.333411
H402	H	0.642685	0.808613	0.666744
H403	H	-0.193677	-0.580748	0.000071
H404	H	0.139656	-0.247414	0.333404
H405	H	0.472989	0.085919	0.666738
C406	C	0.155860	-0.590560	0.859436
C407	C	0.489193	-0.257226	1.192769
C408	C	0.822526	0.076107	1.526103
N409	N	0.188112	-0.558286	0.885782
N410	N	0.521445	-0.224953	1.219115
N411	N	0.854778	0.108380	1.552448
C412	C	-0.007608	-0.754106	0.274232
C413	C	0.325725	-0.420773	0.607565
C414	C	0.659059	-0.087440	0.940898
N415	N	-0.039863	-0.786383	0.300565
N416	N	0.293470	-0.453050	0.633899
N417	N	0.626803	-0.119717	0.967232
C418	C	-0.046543	-0.793056	0.433263
C419	C	0.286791	-0.459723	0.766596
C420	C	0.620124	-0.126389	1.099929
N421	N	-0.078802	-0.825324	0.406920
N422	N	0.254531	-0.491990	0.740253
N423	N	0.587865	-0.158657	1.073586
H424	H	0.172255	-0.486602	0.000025
H425	H	0.505588	-0.153269	0.333358
H426	H	0.838921	0.180065	0.666691
H427	H	-0.459814	-0.525555	0.000009
H428	H	-0.126481	-0.192222	0.333342
H429	H	0.206852	0.141111	0.666676
C430	C	-0.510152	-0.832544	0.000073
C431	C	-0.176818	-0.499211	0.333407
C432	C	0.156515	-0.165877	0.666740
N433	N	-0.540609	-0.875277	0.000089
N434	N	-0.207276	-0.541944	0.333422
N435	N	0.126057	-0.208610	0.666756
H436	H	0.144737	-0.601676	0.734966
H437	H	0.478070	-0.268343	1.068299
H438	H	0.811404	0.064991	1.401632
C439	C	0.234355	-0.088037	0.000046
C440	C	0.567688	0.245296	0.333379
C441	C	0.901022	0.578629	0.666712
N442	N	0.277088	-0.057580	0.000038
N443	N	0.610421	0.275754	0.333372
N444	N	0.943755	0.609087	0.666705
C445	C	-0.046551	-0.793062	0.566811
C446	C	0.286782	-0.459728	0.900144
C447	C	0.620115	-0.126395	1.233478
N448	N	-0.078811	-0.825336	0.593143
N449	N	0.254522	-0.492003	0.926476
N450	N	0.587856	-0.158669	1.259809
C451	C	-0.007633	-0.754133	0.859427
C452	C	0.325700	-0.420800	1.192761
C453	C	0.659033	-0.087467	1.526094
N454	N	-0.039885	-0.786397	0.885782
N455	N	0.293449	-0.453064	1.219115
N456	N	0.626782	-0.119730	1.552448
C457	C	-0.651592	-0.778846	0.000054
C458	C	-0.318258	-0.445513	0.333388
C459	C	0.015075	-0.112180	0.666721
N460	N	-0.632856	-0.822166	0.000058
N461	N	-0.299523	-0.488833	0.333391
N462	N	0.033811	-0.155500	0.666724
C463	C	-0.341557	-0.512113	0.000013
C464	C	-0.008224	-0.178780	0.333346
C465	C	0.325110	0.154554	0.666680
N466	N	-0.311094	-0.469384	0.000009
N467	N	0.022240	-0.136050	0.333342
N468	N	0.355573	0.197283	0.666675
C469	C	0.180657	0.053403	0.000056
C470	C	0.513991	0.386736	0.333390
C471	C	0.847324	0.720069	0.666723
N472	N	0.223977	0.034667	0.000054
N473	N	0.557311	0.368000	0.333387
N474	N	0.890644	0.701334	0.666720
C475	C	-0.037431	0.023690	0.000085
C476	C	0.295903	0.357023	0.333418
C477	C	0.629236	0.690356	0.666752
N478	N	-0.080162	-0.006771	0.000087
N479	N	0.253172	0.326563	0.333420
N480	N	0.586505	0.659896	0.666754
H481	H	0.164421	0.167632	0.000060
H482	H	0.497754	0.500965	0.333394
H483	H	0.831087	0.834299	0.666727
H484	H	0.003495	-0.743004	0.734939
H485	H	0.336828	-0.409671	1.068273
H486	H	0.670162	-0.076338	1.401606
