data_functionalizedCrystal
_audit_creation_method	'MofGen! by Chris Wilmer'
_symmetry_space_group_name_H-M	'P1'
_symmetry_Int_Tables_number	1
_symmetry_cell_setting	triclinic
loop_
_symmetry_equiv_pos_as_xyz
  x,y,z
_cell_length_a	33.428889
_cell_length_b	33.428139
_cell_length_c	33.424847
_cell_angle_alpha	60.004234
_cell_angle_beta	60.008465
_cell_angle_gamma	59.994972
loop_
_atom_site_label
_atom_site_type_symbol
_atom_site_fract_x
_atom_site_fract_y
_atom_site_fract_z
O1	O	0.055565	-0.584504	0.488714
O2	O	0.020982	-0.455083	0.393778
O3	O	0.102943	-0.536959	0.393689
O4	O	-0.026396	-0.502628	0.488803
O5	O	0.130140	-0.509767	0.420792
O6	O	0.048179	-0.427891	0.420881
O7	O	0.082762	-0.557312	0.515817
Cu8	Cu	0.067954	-0.490119	0.470823
Cu9	Cu	0.035790	-0.522276	0.438771
O10	O	0.000801	-0.475436	0.515906
N11	N	0.090577	-0.467504	0.493370
N12	N	0.013171	-0.544895	0.416225
C13	C	0.143377	-0.280390	0.546067
C14	C	0.143515	-0.414755	0.680369
C15	C	0.143392	-0.414735	0.546069
C16	C	0.277766	-0.414702	0.545966
C17	C	0.158177	-0.324719	0.560828
C18	C	0.158255	-0.399967	0.636038
C19	C	0.233434	-0.399936	0.560773
C20	C	0.158186	-0.399955	0.560829
C21	C	0.124540	-0.223964	0.527278
C22	C	0.124565	-0.433545	0.527281
C23	C	0.177014	-0.381145	0.579617
C24	C	0.359814	-0.400540	0.502735
C25	C	0.411105	-0.417624	0.485606
C26	C	0.411136	-0.500620	0.517255
C27	C	0.359845	-0.483534	0.534385
C28	C	0.136887	-0.198305	0.476855
C29	C	0.119761	-0.147011	0.459777
C30	C	0.077945	-0.147038	0.543547
C31	C	0.095072	-0.198332	0.560625
C32	C	0.074134	-0.421169	0.539710
C33	C	0.057023	-0.438269	0.522625
C34	C	0.140770	-0.480120	0.480694
C35	C	0.157883	-0.463020	0.497773
C36	C	0.074339	-0.421208	0.762475
C37	C	0.057288	-0.438323	0.813768
C38	C	0.141075	-0.480183	0.813699
C39	C	0.158125	-0.463069	0.762404
C40	C	0.124756	-0.433580	0.736794
C41	C	0.334186	-0.433494	0.527123
C42	C	-0.173769	-0.597444	0.363037
C43	C	-0.039302	-0.597595	0.228856
C44	C	-0.039496	-0.597587	0.363300
C45	C	-0.039512	-0.731889	0.363237
C46	C	-0.129442	-0.612265	0.348329
C47	C	-0.054138	-0.612351	0.273187
C48	C	-0.054257	-0.687554	0.348440
C49	C	-0.054247	-0.612346	0.348477
C50	C	-0.230191	-0.578579	0.381758
C51	C	-0.020722	-0.578803	0.382168
C52	C	-0.073020	-0.631130	0.329609
C53	C	-0.053713	-0.813916	0.406386
C54	C	-0.036654	-0.865210	0.423504
C55	C	0.046338	-0.865293	0.391984
C56	C	0.029278	-0.813999	0.374865
C57	C	-0.255900	-0.590938	0.432169
C58	C	-0.307191	-0.573786	0.449185
C59	C	-0.307060	-0.531922	0.365377
C60	C	-0.255769	-0.549074	0.348360
C61	C	-0.033081	-0.528377	0.369764
C62	C	-0.016014	-0.511306	0.386922
C63	C	0.025770	-0.595083	0.428877
C64	C	0.008703	-0.612156	0.411725
C65	C	-0.032755	-0.528393	0.146761
C66	C	-0.015585	-0.511324	0.095468
C67	C	0.026262	-0.595106	0.095516
C68	C	0.009094	-0.612174	0.146811
C69	C	-0.020417	-0.578816	0.172432
C70	C	-0.020748	-0.788312	0.382068
N71	N	0.436037	-0.467415	0.493101
O72	O	0.592642	-0.471896	0.376066
O73	O	0.592838	-0.567146	0.505347
O74	O	0.592754	-0.566928	0.423360
O75	O	0.592727	-0.472113	0.458053
O76	O	0.511269	-0.539835	0.450606
O77	O	0.511353	-0.540052	0.532594
O78	O	0.511157	-0.444802	0.403312
Cu79	Cu	0.503815	-0.489954	0.470441
Cu80	Cu	0.600180	-0.521995	0.438219
O81	O	0.511242	-0.445020	0.485300
N82	N	0.667959	-0.544533	0.415554
N83	N	0.090544	-0.122107	0.493359
O84	O	-0.026406	0.034587	0.488773
O85	O	0.102877	0.034627	0.393499
O86	O	0.020848	0.034591	0.393771
O87	O	0.055623	0.034623	0.488500
O88	O	0.048051	-0.046899	0.420925
O89	O	0.130080	-0.046864	0.420653
O90	O	0.000796	-0.046903	0.515927
Cu91	Cu	0.067922	-0.054324	0.470769
Cu92	Cu	0.035752	0.042048	0.438656
O93	O	0.082825	-0.046867	0.515655
N94	N	0.013123	0.109830	0.416068
N95	N	0.090892	-0.467554	0.838649
O96	O	0.086330	-0.584488	0.995334
O97	O	-0.008902	-0.455160	0.995379
O98	O	-0.008679	-0.537172	0.995355
O99	O	0.086107	-0.502475	0.995358
O100	O	0.018452	-0.509990	0.913868
O101	O	0.018230	-0.427978	0.913891
O102	O	0.113461	-0.557306	0.913847
Cu103	Cu	0.068323	-0.490160	0.906429
Cu104	Cu	0.036237	-0.522306	1.002797
O105	O	0.113239	-0.475293	0.913870
N106	N	0.013667	-0.544916	1.070577
C107	C	0.031339	-0.425179	0.394250
C108	C	0.132837	-0.526572	0.394139
C109	C	0.072405	-0.587216	0.515344
C110	C	-0.029093	-0.485823	0.515455
C111	C	0.552119	-0.566716	0.535258
C112	C	0.552016	-0.566447	0.433726
C113	C	0.551873	-0.445232	0.373402
C114	C	0.551980	-0.445502	0.474933
C115	C	0.132731	-0.006013	0.393923
C116	C	0.031182	-0.006158	0.394293
C117	C	-0.029092	-0.006163	0.515469
C118	C	0.072491	-0.006119	0.515133
C119	C	-0.008451	-0.425276	0.954641
C120	C	-0.008170	-0.526833	0.954596
C121	C	0.113010	-0.587190	0.954585
C122	C	0.112735	-0.485627	0.954611
H123	H	0.047163	-0.397193	0.741627
O124	O	-0.044074	-0.380946	0.954678
C125	C	-0.026434	-0.350450	0.954672
H126	H	0.005027	-0.374009	0.970090
H127	H	-0.012844	-0.325700	0.915581
C128	C	-0.106662	-0.289810	0.967705
C129	C	-0.068024	-0.318745	0.986646
H130	H	-0.132316	-0.270251	0.987426
H131	H	-0.118547	-0.310355	0.967707
H132	H	-0.095331	-0.269189	0.935129
H133	H	-0.079354	-0.339369	1.019218
H134	H	-0.056142	-0.298203	0.986650
O135	O	-0.073387	-0.477049	0.551103
C136	C	-0.082154	-0.437387	0.562406
H137	H	-0.045773	-0.433444	0.551556
H138	H	-0.105808	-0.402266	0.541378
C139	C	-0.153605	-0.451678	0.631139
C140	C	-0.108921	-0.446837	0.617817
H141	H	-0.170118	-0.457505	0.665319
H142	H	-0.147700	-0.478397	0.623524
H143	H	-0.173310	-0.422408	0.613612
H144	H	-0.089214	-0.476108	0.635340
H145	H	-0.114823	-0.420122	0.625438
H146	H	-0.037935	-0.534246	0.954563
H147	H	0.552170	-0.596617	0.572390
H148	H	0.552029	-0.596233	0.426301
H149	H	0.079796	-0.624394	0.545162
O150	O	0.081424	-0.006204	0.550658
C151	C	0.121127	-0.048395	0.561879
H152	H	0.124980	-0.077893	0.551119
H153	H	0.156248	-0.038840	0.540724
C154	C	0.107115	-0.031309	0.630466
C155	C	0.111845	-0.067542	0.617254
H156	H	0.101392	-0.043120	0.664623
H157	H	0.080368	-0.002884	0.622905
H158	H	0.136385	-0.023351	0.612832
H159	H	0.082574	-0.075495	0.634883
H160	H	0.138588	-0.095969	0.624819
H161	H	0.169984	-0.533889	0.364272
O162	O	0.148620	-0.631533	0.954588
C163	C	0.130990	-0.662020	0.954566
H164	H	0.089256	-0.648755	0.970004
H165	H	0.143430	-0.660685	0.915468
C166	C	0.202558	-0.731337	0.967544
C167	C	0.151300	-0.715047	0.986508
H168	H	0.215088	-0.764047	0.987245
H169	H	0.214437	-0.710797	0.967557
H170	H	0.212919	-0.730221	0.934962
H171	H	0.140940	-0.716158	1.019086
H172	H	0.139420	-0.735588	0.986501
O173	O	0.148217	-0.476683	0.954583
C174	C	0.130364	-0.428523	0.954609
H175	H	0.098901	-0.405341	0.939195
H176	H	0.116713	-0.429249	0.993706
C177	C	0.210446	-0.434722	0.941580
C178	C	0.171806	-0.406248	0.922644
H179	H	0.236010	-0.420982	0.921865
H180	H	0.222474	-0.467169	0.941565
H181	H	0.199064	-0.435325	0.974160
H182	H	0.183187	-0.405651	0.890067
H183	H	0.159781	-0.373800	0.922654
H184	H	0.551974	-0.415718	0.482355
O185	O	0.551735	-0.409569	0.329113
C186	C	0.509504	-0.398215	0.320374
H187	H	0.495479	-0.430625	0.343238
H188	H	0.479937	-0.364638	0.330956
C189	C	0.539481	-0.347582	0.237567
C190	C	0.522259	-0.387390	0.265646
H191	H	0.547348	-0.340902	0.203808
H192	H	0.567933	-0.355229	0.243455
H193	H	0.514839	-0.319606	0.246391
H194	H	0.546902	-0.415367	0.256827
H195	H	0.493811	-0.379747	0.259756
O196	O	0.008295	-0.426231	0.838635
C197	C	-0.017496	-0.396542	0.805027
H198	H	0.006942	-0.377885	0.768455
H199	H	-0.028564	-0.420205	0.799581
C200	C	-0.093745	-0.380265	0.869994
C201	C	-0.063731	-0.357347	0.825077
H202	H	-0.122266	-0.356089	0.882362
H203	H	-0.076369	-0.400269	0.892637
H204	H	-0.102963	-0.399983	0.865450
H205	H	-0.054508	-0.337634	0.829623
H206	H	-0.081106	-0.337339	0.802435
H207	H	-0.057039	-0.501216	0.345698
H208	H	0.168250	-0.504186	0.834549
H209	H	0.199181	-0.473148	0.741498
O210	O	-0.073386	-0.006107	0.551170
C211	C	-0.095069	0.036107	0.564308
H212	H	-0.065355	0.050190	0.554352
H213	H	-0.121828	0.065651	0.543760
C214	C	-0.159241	0.005990	0.632096
C215	C	-0.122746	0.023284	0.619871
H216	H	-0.176315	-0.001919	0.666369
H217	H	-0.144634	-0.022450	0.623244
H218	H	-0.181535	0.030612	0.614968
H219	H	-0.100449	-0.001341	0.636994
H220	H	-0.137350	0.051720	0.628727
H221	H	0.047002	-0.397168	0.563734
H222	H	0.167905	-0.504126	0.456671
O223	O	0.206888	-0.475097	0.485667
C224	C	0.232625	-0.504765	0.455945
H225	H	0.208168	-0.523428	0.462513
H226	H	0.243636	-0.481084	0.415771
C227	C	0.308939	-0.521029	0.460808
C228	C	0.278902	-0.543954	0.468878
H229	H	0.337486	-0.545201	0.468784
H230	H	0.291600	-0.501039	0.480830
H231	H	0.318110	-0.501295	0.427330
H232	H	0.269727	-0.563682	0.502357
H233	H	0.296241	-0.563948	0.448862
H234	H	0.015959	-0.428182	0.532734
O235	O	-0.061353	-0.495967	0.171624
C236	C	-0.035452	-0.466336	0.159133
H237	H	0.005584	-0.486179	0.145098
H238	H	-0.046319	-0.430303	0.129326
C239	C	-0.098315	-0.431468	0.221950
C240	C	-0.047913	-0.455841	0.204715
H241	H	-0.106003	-0.424992	0.250066
H242	H	-0.115766	-0.451429	0.230364
H243	H	-0.107364	-0.401443	0.197107
H244	H	-0.038866	-0.485868	0.229556
H245	H	-0.030461	-0.435884	0.196306
O246	O	0.335028	-0.515611	0.558048
C247	C	0.368679	-0.563442	0.560790
H248	H	0.405224	-0.561478	0.530477
H249	H	0.374170	-0.583023	0.597950
C250	C	0.303770	-0.594302	0.591770
C251	C	0.348653	-0.591890	0.554536
H252	H	0.291417	-0.611852	0.587914
H253	H	0.281098	-0.562079	0.589924
H254	H	0.308352	-0.610619	0.622732
H255	H	0.344070	-0.575568	0.523574
H256	H	0.371324	-0.624112	0.556376
O257	O	0.436137	-0.549210	0.524247
C258	C	0.486904	-0.557224	0.503909
H259	H	0.493882	-0.521918	0.474507
H260	H	0.501490	-0.569044	0.533914
C261	C	0.504657	-0.641067	0.516988
C262	C	0.513228	-0.597704	0.480874
H263	H	0.520896	-0.666038	0.502781
H264	H	0.470455	-0.635668	0.530692
H265	H	0.516812	-0.650910	0.541990
H266	H	0.501067	-0.587858	0.455877
H267	H	0.547429	-0.603102	0.467165
H268	H	0.169783	-0.005775	0.363939
O269	O	0.022232	-0.006203	0.358852
C270	C	-0.025930	-0.006215	0.376721
H271	H	-0.038798	-0.021631	0.418456
H272	H	-0.051297	0.032871	0.364329
C273	C	-0.011087	-0.019270	0.305346
C274	C	-0.026890	-0.038208	0.356605
H275	H	-0.011680	-0.039003	0.292936
H276	H	0.021361	-0.019260	0.293306
H277	H	-0.032228	0.013301	0.295026
H278	H	-0.005745	-0.070776	0.366925
H279	H	-0.059334	-0.038224	0.368647
H280	H	0.085016	-0.219221	0.601683
H281	H	0.338923	-0.359792	0.496821
O282	O	0.435928	-0.385544	0.461903
C283	C	0.402283	-0.337714	0.459176
H284	H	0.365711	-0.335723	0.462566
H285	H	0.396857	-0.328139	0.490245
C286	C	0.467180	-0.303534	0.405486
C287	C	0.422264	-0.301088	0.409645
H288	H	0.479506	-0.280941	0.374934
H289	H	0.489848	-0.335758	0.407324
H290	H	0.462653	-0.295557	0.431379
H291	H	0.426793	-0.309071	0.383756
H292	H	0.399597	-0.268864	0.407801
H293	H	0.160882	-0.219171	0.449698
H294	H	0.053957	-0.126168	0.570702
O295	O	0.131814	-0.122157	0.410778
C296	C	0.161486	-0.155781	0.385008
H297	H	0.180167	-0.192344	0.409450
H298	H	0.137808	-0.161244	0.373974
C299	C	0.177705	-0.090829	0.308727
C300	C	0.200652	-0.135736	0.338746
H301	H	0.201863	-0.078464	0.280189
H302	H	0.157712	-0.068175	0.326088
H303	H	0.157974	-0.095388	0.299537
H304	H	0.220377	-0.131175	0.347940
H305	H	0.220649	-0.158388	0.321385
H306	H	-0.025639	-0.470264	0.074572
H307	H	0.050281	-0.622271	0.074658
H308	H	0.019144	-0.653235	0.167709
H309	H	0.049734	-0.622248	0.452940
O310	O	-0.028033	-0.462306	0.374800
C311	C	-0.057664	-0.436527	0.345033
H312	H	-0.051105	-0.460997	0.326384
H313	H	-0.097857	-0.425407	0.368630
C314	C	-0.052653	-0.360279	0.328741
C315	C	-0.044594	-0.390332	0.305832
H316	H	-0.044593	-0.331782	0.304561
H317	H	-0.032692	-0.377646	0.348797
H318	H	-0.086148	-0.351017	0.348404
H319	H	-0.011099	-0.399598	0.286175
H320	H	-0.064550	-0.372965	0.285772
H321	H	0.018765	-0.653217	0.421828
H322	H	0.056124	-0.793157	0.355062
H323	H	0.087072	-0.886205	0.386121
H324	H	-0.094449	-0.793002	0.412253
O325	O	-0.068713	-0.890032	0.447063
C326	C	-0.092672	-0.877493	0.415610
H327	H	-0.091449	-0.840263	0.386411
H328	H	-0.073502	-0.906373	0.397250
C329	C	-0.147894	-0.920801	0.481357
C330	C	-0.146396	-0.875073	0.445497
H331	H	-0.181033	-0.919311	0.499792
H332	H	-0.131752	-0.929251	0.502548
H333	H	-0.131917	-0.944863	0.466052
H334	H	-0.162368	-0.851013	0.460802
H335	H	-0.162542	-0.866619	0.424309
O336	O	-0.231130	-0.619575	0.464677
C337	C	-0.264822	-0.626810	0.512822
H338	H	-0.301362	-0.595856	0.512673
H339	H	-0.270304	-0.663332	0.527505
C340	C	-0.199980	-0.665211	0.545964
C341	C	-0.244858	-0.627190	0.545781
H342	H	-0.187666	-0.665447	0.566295
H343	H	-0.177281	-0.660338	0.513528
H344	H	-0.204555	-0.695641	0.558198
H345	H	-0.240282	-0.596760	0.533541
H346	H	-0.267557	-0.632057	0.578215
H347	H	-0.327887	-0.507903	0.338181
O348	O	-0.332188	-0.585709	0.498152
C349	C	-0.361863	-0.542595	0.510521
H350	H	-0.346366	-0.511807	0.481626
H351	H	-0.400720	-0.531763	0.512160
C352	C	-0.381755	-0.589538	0.596344
C353	C	-0.362719	-0.551725	0.560856
H354	H	-0.382285	-0.595170	0.627393
H355	H	-0.361764	-0.618585	0.588010
H356	H	-0.414134	-0.580506	0.597703
H357	H	-0.330338	-0.560760	0.559493
H358	H	-0.382704	-0.522680	0.569190
O359	O	-0.230873	-0.537040	0.299375
C360	C	-0.264450	-0.507308	0.273550
H361	H	-0.301033	-0.513813	0.297958
H362	H	-0.269880	-0.467139	0.262494
C363	C	-0.199444	-0.512314	0.197323
C364	C	-0.244375	-0.520307	0.227301
H365	H	-0.187060	-0.520331	0.168794
H366	H	-0.176822	-0.532344	0.214722
H367	H	-0.203975	-0.478840	0.188115
H368	H	-0.239842	-0.553782	0.236514
H369	H	-0.266996	-0.500283	0.209903
H370	H	0.023949	-0.388000	0.364433
