data_functionalizedCrystal
_audit_creation_method	'MofGen! by Chris Wilmer'
_symmetry_space_group_name_H-M	'P1'
_symmetry_Int_Tables_number	1
_symmetry_cell_setting	triclinic
loop_
_symmetry_equiv_pos_as_xyz
  x,y,z
_cell_length_a	25.639239
_cell_length_b	16.625548
_cell_length_c	16.625539
_cell_angle_alpha	90.020568
_cell_angle_beta	89.968745
_cell_angle_gamma	89.960246
loop_
_atom_site_label
_atom_site_type_symbol
_atom_site_fract_x
_atom_site_fract_y
_atom_site_fract_z
Zn1	Zn	-0.208135	-1.232590	-0.455893
Zn2	Zn	0.125198	-0.899256	-0.122559
Zn3	Zn	0.458532	-0.565923	0.210774
Zn4	Zn	-0.295573	-1.232455	-0.321053
Zn5	Zn	0.037760	-0.899121	0.012280
Zn6	Zn	0.371094	-0.565788	0.345614
Zn7	Zn	-0.208155	-1.097751	-0.321073
Zn8	Zn	0.125178	-0.764418	0.012260
Zn9	Zn	0.458512	-0.431085	0.345593
Zn10	Zn	-0.295543	-1.097684	-0.455843
Zn11	Zn	0.037791	-0.764350	-0.122510
Zn12	Zn	0.371124	-0.431017	0.210824
O13	O	-0.251851	-1.165120	-0.388466
O14	O	0.081482	-0.831786	-0.055132
O15	O	0.414815	-0.498453	0.278201
O16	O	-0.219738	-1.345404	-0.438018
O17	O	0.113595	-1.012071	-0.104685
O18	O	0.446929	-0.678737	0.228648
O19	O	-0.283998	-1.214558	-0.208223
O20	O	0.049336	-0.881225	0.125110
O21	O	0.382669	-0.547891	0.458443
O22	O	-0.134987	-1.115723	-0.338987
O23	O	0.198346	-0.782389	-0.005653
O24	O	0.531680	-0.449056	0.327680
O25	O	-0.283978	-1.345305	-0.338952
O26	O	0.049355	-1.011972	-0.005619
O27	O	0.382688	-0.678638	0.327714
O28	O	-0.134972	-1.214788	-0.438038
O29	O	0.198361	-0.881455	-0.104705
O30	O	0.531694	-0.548121	0.228629
O31	O	-0.219772	-1.115592	-0.208238
O32	O	0.113561	-0.782259	0.125095
O33	O	0.446895	-0.448925	0.458428
O34	O	-0.219743	-0.984910	-0.338938
O35	O	0.113590	-0.651577	-0.005605
O36	O	0.446924	-0.318243	0.327728
O37	O	-0.283927	-1.115607	-0.568682
O38	O	0.049406	-0.782274	-0.235349
O39	O	0.382740	-0.448941	0.097985
O40	O	-0.283946	-0.984860	-0.437953
O41	O	0.049387	-0.651527	-0.104620
O42	O	0.382720	-0.318194	0.228714
O43	O	-0.219709	-1.214722	-0.568719
O44	O	0.113624	-0.881389	-0.235385
O45	O	0.446958	-0.548056	0.097948
O46	O	-0.368734	-1.214492	-0.338904
O47	O	-0.035401	-0.881159	-0.005571
O48	O	0.297933	-0.547825	0.327763
O49	O	-0.368712	-1.115477	-0.437933
O50	O	-0.035379	-0.782143	-0.104600
O51	O	0.297955	-0.448810	0.228733
C52	C	-0.251844	-0.955629	-0.388443
C53	C	0.081489	-0.622296	-0.055110
C54	C	0.414823	-0.288962	0.278224
C55	C	-0.251853	-0.866008	-0.388452
C56	C	0.081480	-0.532675	-0.055119
C57	C	0.414813	-0.199341	0.278214
C58	C	-0.387694	-1.164984	-0.388429
C59	C	-0.054361	-0.831651	-0.055095
C60	C	0.278973	-0.498318	0.278238
C61	C	-0.445808	-1.165000	-0.388440
C62	C	-0.112475	-0.831667	-0.055106
C63	C	0.220859	-0.498333	0.278227
C64	C	-0.251812	-1.165172	-0.598775
C65	C	0.081521	-0.831839	-0.265441
C66	C	0.414854	-0.498506	0.067892
C67	C	-0.251796	-1.165195	-0.688396
C68	C	0.081538	-0.831861	-0.355062
C69	C	0.414871	-0.498528	-0.021729
C70	C	-0.806170	-1.216812	-0.336989
C71	C	-0.472837	-0.883478	-0.003655
C72	C	-0.139503	-0.550145	0.329678
C73	C	-0.860774	-1.216843	-0.337000
C74	C	-0.527441	-0.883510	-0.003666
C75	C	-0.194108	-0.550176	0.329667
O76	O	-0.889010	-1.260755	-0.293213
O77	O	-0.555677	-0.927421	0.040120
O78	O	-0.222343	-0.594088	0.373453
N79	N	-0.888090	-1.165262	-0.388519
N80	N	-0.554757	-0.831928	-0.055186
N81	N	-0.221424	-0.498595	0.278148
C82	C	-0.860799	-1.113651	-0.440037
C83	C	-0.527466	-0.780318	-0.106703
C84	C	-0.194133	-0.446985	0.226630
O85	O	-0.889048	-1.069780	-0.483860
O86	O	-0.555715	-0.736447	-0.150526
O87	O	-0.222381	-0.403114	0.182807
C88	C	-0.806196	-1.113625	-0.440029
C89	C	-0.472863	-0.780291	-0.106696
C90	C	-0.139529	-0.446958	0.226637
C91	C	-0.778883	-1.165204	-0.388501
C92	C	-0.445549	-0.831870	-0.055168
C93	C	-0.112216	-0.498537	0.278166
C94	C	-0.778857	-1.268387	-0.285465
C95	C	-0.445523	-0.935054	0.047868
C96	C	-0.112190	-0.601721	0.381202
C97	C	-0.724256	-1.268355	-0.285453
C98	C	-0.390923	-0.935022	0.047880
C99	C	-0.057589	-0.601688	0.381213
C100	C	-0.696969	-1.216747	-0.336965
C101	C	-0.363636	-0.883413	-0.003632
C102	C	-0.030302	-0.550080	0.329701
C103	C	-0.724282	-1.165171	-0.388489
C104	C	-0.390949	-0.831838	-0.055156
C105	C	-0.057616	-0.498505	0.278177
C106	C	-0.778906	-1.062019	-0.491551
C107	C	-0.445573	-0.728686	-0.158217
C108	C	-0.112240	-0.395352	0.175116
C109	C	-0.724299	-1.061997	-0.491539
C110	C	-0.390966	-0.728664	-0.158206
C111	C	-0.057632	-0.395331	0.175127
C112	C	-0.696986	-1.113576	-0.440011
C113	C	-0.363652	-0.780243	-0.106677
C114	C	-0.030319	-0.446910	0.226656
C115	C	-0.642395	-1.113531	-0.439990
C116	C	-0.309061	-0.780197	-0.106656
C117	C	0.024272	-0.446864	0.226677
N118	N	-0.615078	-1.165112	-0.388470
N119	N	-0.281745	-0.831779	-0.055137
N120	N	0.051588	-0.498445	0.278196
C121	C	-0.642366	-1.216720	-0.336958
C122	C	-0.309032	-0.883387	-0.003625
C123	C	0.024301	-0.550054	0.329709
C124	C	-0.975470	-1.113712	-0.440049
C125	C	-0.642137	-0.780379	-0.106716
C126	C	-0.308803	-0.447045	0.226617
C127	C	-1.030072	-1.113734	-0.440053
C128	C	-0.696739	-0.780401	-0.106720
C129	C	-0.363406	-0.447067	0.226614
C130	C	-1.030043	-1.216927	-0.337017
C131	C	-0.696710	-0.883594	-0.003683
C132	C	-0.363377	-0.550260	0.329650
C133	C	-0.975440	-1.216900	-0.337009
C134	C	-0.642107	-0.883567	-0.003676
C135	C	-0.308773	-0.550234	0.329657
C136	C	-0.948154	-1.165293	-0.388530
C137	C	-0.614821	-0.831960	-0.055196
C138	C	-0.281487	-0.498627	0.278137
C139	C	-0.527700	-1.216648	-0.336937
C140	C	-0.194367	-0.883314	-0.003604
C141	C	0.138966	-0.549981	0.329730
C142	C	-0.473095	-1.216608	-0.336928
C143	C	-0.139762	-0.883275	-0.003594
C144	C	0.193572	-0.549941	0.329739
C145	C	-0.473129	-1.113418	-0.439967
C146	C	-0.139796	-0.780085	-0.106633
C147	C	0.193538	-0.446752	0.226700
C148	C	-0.527729	-1.113454	-0.439973
C149	C	-0.194396	-0.780121	-0.106640
C150	C	0.138937	-0.446788	0.226693
C151	C	-0.555014	-1.165076	-0.388456
C152	C	-0.221681	-0.831742	-0.055123
C153	C	0.111653	-0.498409	0.278211
O154	O	-0.614124	-1.069644	-0.483756
O155	O	-0.280791	-0.736310	-0.150422
O156	O	0.052543	-0.402977	0.182911
O157	O	-0.614110	-1.260591	-0.293150
O158	O	-0.280777	-0.927258	0.040183
O159	O	0.052556	-0.593924	0.373517
C160	C	-0.115478	-1.165278	-0.388520
C161	C	0.217855	-0.831945	-0.055187
C162	C	0.551188	-0.498611	0.278146
C163	C	-0.057364	-1.165345	-0.388544
C164	C	0.275969	-0.832012	-0.055210
C165	C	0.609302	-0.498679	0.278123
C166	C	-0.251859	-1.375429	-0.388489
C167	C	0.081474	-1.042095	-0.055155
C168	C	0.414807	-0.708762	0.278178
C169	C	-0.251863	-1.465050	-0.388498
C170	C	0.081471	-1.131716	-0.055165
C171	C	0.414804	-0.798383	0.278168
C172	C	-0.251857	-0.537832	-0.388487
C173	C	0.081477	-0.204499	-0.055154
C174	C	0.414810	0.128834	0.278180
C175	C	-0.251854	-0.629141	-0.388475
C176	C	0.081479	-0.295807	-0.055141
C177	C	0.414812	0.037526	0.278192
C178	C	-0.251855	-0.701917	-0.388469
C179	C	0.081478	-0.368584	-0.055136
C180	C	0.414811	-0.035250	0.278198
C181	C	-0.251852	-0.793231	-0.388458
C182	C	0.081481	-0.459898	-0.055125
C183	C	0.414814	-0.126565	0.278208
C184	C	-0.251737	-1.165232	-1.016572
C185	C	0.081596	-0.831898	-0.683238
C186	C	0.414929	-0.498565	-0.349905
C187	C	-0.251755	-1.165219	-0.925263
C188	C	0.081578	-0.831886	-0.591930
C189	C	0.414911	-0.498553	-0.258596
C190	C	-0.251767	-1.165214	-0.852487
C191	C	0.081566	-0.831880	-0.519153
C192	C	0.414900	-0.498547	-0.185820
C193	C	-0.251784	-1.165200	-0.761172
C194	C	0.081549	-0.831867	-0.427839
C195	C	0.414883	-0.498534	-0.094506
C196	C	-0.251852	-1.165114	-0.178975
C197	C	0.081481	-0.831781	0.154359
C198	C	0.414814	-0.498447	0.487692
C199	C	-0.251722	-1.165248	-0.089354
C200	C	0.081612	-0.831915	0.243979
C201	C	0.414945	-0.498581	0.577313
H202	H	-0.549909	-1.258684	-0.294988
H203	H	-0.216576	-0.925351	0.038345
H204	H	0.116758	-0.592017	0.371678
C205	C	-0.694512	-1.324275	-0.229543
C206	C	-0.361178	-0.990941	0.103790
C207	C	-0.027845	-0.657608	0.437123
C208	C	-0.640850	-1.313201	-0.240535
C209	C	-0.307517	-0.979868	0.092798
C210	C	0.025817	-0.646535	0.426132
C211	C	-0.613438	-1.364698	-0.189036
C212	C	-0.280104	-1.031364	0.144297
C213	C	0.053229	-0.698031	0.477630
H214	H	-0.703360	-1.378478	-0.241348
H215	H	-0.370027	-1.045145	0.091985
H216	H	-0.036693	-0.711812	0.425318
H217	H	-0.703464	-1.312502	-0.175342
H218	H	-0.370131	-0.979169	0.157991
H219	H	-0.036797	-0.645836	0.491325
H220	H	-0.631901	-1.324979	-0.294724
H221	H	-0.298568	-0.991646	0.038609
H222	H	0.034765	-0.658313	0.371942
H223	H	-0.631986	-1.259008	-0.228724
H224	H	-0.298653	-0.925675	0.104609
H225	H	0.034681	-0.592342	0.437942
H226	H	-0.622390	-1.352925	-0.134835
H227	H	-0.289056	-1.019592	0.198498
H228	H	0.044277	-0.686259	0.531832
H229	H	-0.622290	-1.418898	-0.200846
H230	H	-0.288957	-1.085565	0.132488
H231	H	0.044377	-0.752231	0.465821
H232	H	-0.577025	-1.357186	-0.196482
H233	H	-0.243692	-1.023853	0.136851
H234	H	0.089641	-0.690519	0.470185
C235	C	-0.808382	-1.324452	-0.229440
C236	C	-0.475049	-0.991119	0.103893
C237	C	-0.141716	-0.657786	0.437226
C238	C	-0.772765	-1.369593	-0.184310
C239	C	-0.439431	-1.036259	0.149023
C240	C	-0.106098	-0.702926	0.482357
C241	C	-0.799940	-1.421239	-0.132676
C242	C	-0.466607	-1.087905	0.200658
C243	C	-0.133274	-0.754572	0.533991
H244	H	-0.829651	-1.359656	-0.260219
H245	H	-0.496317	-1.026322	0.073114
H246	H	-0.162984	-0.692989	0.406447
H247	H	-0.829704	-1.293657	-0.194236
H248	H	-0.496371	-0.960323	0.139097
H249	H	-0.163037	-0.626990	0.472431
H250	H	-0.751452	-1.400386	-0.219510
H251	H	-0.418119	-1.067053	0.113823
H252	H	-0.084785	-0.733720	0.447157
H253	H	-0.751495	-1.334411	-0.153515
H254	H	-0.418162	-1.001077	0.179818
H255	H	-0.084828	-0.667744	0.513152
H256	H	-0.821262	-1.390443	-0.097471
H257	H	-0.487929	-1.057110	0.235862
H258	H	-0.154595	-0.723776	0.569195
H259	H	-0.821208	-1.456437	-0.163461
H260	H	-0.487874	-1.123104	0.169872
H261	H	-0.154541	-0.789770	0.503206
H262	H	-0.775778	-1.451867	-0.102043
H263	H	-0.442445	-1.118534	0.231290
H264	H	-0.109111	-0.785201	0.564623
H265	H	-0.549969	-1.071457	-0.481935
H266	H	-0.216636	-0.738124	-0.148601
H267	H	0.116697	-0.404790	0.184732
H268	H	-0.450903	-1.071397	-0.481905
H269	H	-0.117570	-0.738064	-0.148572
H270	H	0.215763	-0.404730	0.184762
H271	H	-1.052270	-1.258952	-0.295075
H272	H	-0.718937	-0.925619	0.038258
H273	H	-0.385604	-0.592285	0.371591
C274	C	-0.443536	-1.272701	-0.280950
C275	C	-0.110202	-0.939368	0.052383
C276	C	0.223131	-0.606035	0.385716
C277	C	-0.479124	-1.317919	-0.235859
C278	C	-0.145791	-0.984586	0.097474
C279	C	0.187543	-0.651252	0.430807
C280	C	-0.451915	-1.369607	-0.184296
C281	C	-0.118582	-1.036273	0.149038
C282	C	0.214751	-0.702940	0.482371
H283	H	-0.422270	-1.241957	-0.245712
H284	H	-0.088937	-0.908624	0.087621
H285	H	0.244397	-0.575290	0.420954
H286	H	-0.422208	-1.307848	-0.311803
H287	H	-0.088875	-0.974515	0.021530
H288	H	0.244459	-0.641181	0.354863
H289	H	-0.500443	-1.282777	-0.205009
H290	H	-0.167109	-0.949444	0.128325
H291	H	0.166224	-0.616110	0.461658
H292	H	-0.500391	-1.348680	-0.271076
H293	H	-0.167057	-1.015347	0.062257
H294	H	0.166276	-0.682013	0.395590
H295	H	-0.430588	-1.404753	-0.215149
H296	H	-0.097254	-1.071420	0.118184
H297	H	0.236079	-0.738087	0.451518
H298	H	-0.430651	-1.338856	-0.149063
H299	H	-0.097317	-1.005522	0.184270
H300	H	0.236016	-0.672189	0.517604
H301	H	-0.476058	-1.400298	-0.153701
H302	H	-0.142724	-1.066965	0.179632
H303	H	0.190609	-0.733632	0.512966
C304	C	-0.945882	-1.272992	-0.281037
C305	C	-0.612549	-0.939659	0.052297
C306	C	-0.279216	-0.606326	0.385630
C307	C	-0.981473	-1.318202	-0.235942
C308	C	-0.648140	-0.984868	0.097392
C309	C	-0.314807	-0.651535	0.430725
C310	C	-0.954267	-1.369892	-0.184377
C311	C	-0.620934	-1.036559	0.148956
C312	C	-0.287600	-0.703225	0.482289
H313	H	-0.924614	-1.242250	-0.245801
H314	H	-0.591280	-0.908917	0.087532
H315	H	-0.257947	-0.575584	0.420866
H316	H	-0.924558	-1.308144	-0.311889
H317	H	-0.591225	-0.974811	0.021444
H318	H	-0.257892	-0.641477	0.354777
H319	H	-1.002788	-1.283054	-0.205091
H320	H	-0.669455	-0.949721	0.128242
H321	H	-0.336122	-0.616388	0.461576
H322	H	-1.002743	-1.348960	-0.271156
H323	H	-0.669410	-1.015627	0.062177
H324	H	-0.336077	-0.682293	0.395511
H325	H	-0.932943	-1.405044	-0.215230
H326	H	-0.599610	-1.071711	0.118103
H327	H	-0.266276	-0.738377	0.451436
H328	H	-0.932999	-1.339144	-0.149147
H329	H	-0.599666	-1.005810	0.184186
H330	H	-0.266332	-0.672477	0.517519
H331	H	-0.978411	-1.400578	-0.153780
H332	H	-0.645078	-1.067245	0.179554
H333	H	-0.311744	-0.733911	0.512887
C334	C	-1.059629	-1.057696	-0.496081
C335	C	-0.726296	-0.724362	-0.162747
C336	C	-0.392962	-0.391029	0.170586
C337	C	-1.024038	-1.012511	-0.541200
C338	C	-0.690705	-0.679177	-0.207867
C339	C	-0.357371	-0.345844	0.125467
C340	C	-1.051244	-0.960890	-0.592834
C341	C	-0.717911	-0.627556	-0.259501
C342	C	-0.384578	-0.294223	0.073833
H343	H	-1.080970	-1.022520	-0.465302
H344	H	-0.747637	-0.689186	-0.131969
H345	H	-0.414303	-0.355853	0.201364
H346	H	-1.080881	-1.088512	-0.531292
H347	H	-0.747548	-0.755179	-0.197959
H348	H	-0.414214	-0.421845	0.135374
H349	H	-1.002795	-0.981697	-0.505993
H350	H	-0.669462	-0.648363	-0.172660
H351	H	-0.336128	-0.315030	0.160674
H352	H	-1.002696	-1.047666	-0.571995
H353	H	-0.669363	-0.714332	-0.238662
H354	H	-0.336029	-0.380999	0.094672
H355	H	-1.072496	-0.991706	-0.628045
H356	H	-0.739163	-0.658373	-0.294712
H357	H	-0.405829	-0.325039	0.038621
H358	H	-1.072584	-0.925719	-0.562049
H359	H	-0.739251	-0.592386	-0.228715
H360	H	-0.405917	-0.259052	0.104618
H361	H	-1.027100	-0.930231	-0.623459
H362	H	-0.693767	-0.596898	-0.290125
H363	H	-0.360433	-0.263564	0.043208
H364	H	-0.953256	-1.071681	-0.482001
H365	H	-0.619923	-0.738347	-0.148668
H366	H	-0.286590	-0.405014	0.184666
H367	H	-0.801135	-1.020014	-0.533507
H368	H	-0.467802	-0.686680	-0.200174
H369	H	-0.134469	-0.353347	0.133160
H370	H	-0.702085	-1.019973	-0.533496
H371	H	-0.368752	-0.686640	-0.200163
H372	H	-0.035419	-0.353307	0.133170
