data_functionalizedCrystal
_audit_creation_method	'MofGen! by Chris Wilmer'
_symmetry_space_group_name_H-M	'P1'
_symmetry_Int_Tables_number	1
_symmetry_cell_setting	triclinic
loop_
_symmetry_equiv_pos_as_xyz
  x,y,z
_cell_length_a	8.597187
_cell_length_b	8.559649
_cell_length_c	16.053802
_cell_angle_alpha	87.795970
_cell_angle_beta	100.317184
_cell_angle_gamma	77.625088
loop_
_atom_site_label
_atom_site_type_symbol
_atom_site_fract_x
_atom_site_fract_y
_atom_site_fract_z
O1	O	2.077165	0.217220	0.218843
O2	O	1.614466	0.238646	0.185560
O3	O	1.886580	-0.004316	0.205133
O4	O	1.805052	0.460182	0.199270
O5	O	1.871609	0.009002	0.065197
O6	O	1.599495	0.251964	0.045625
O7	O	2.062194	0.230538	0.078907
Zn8	Zn	1.828468	0.243365	0.040048
Zn9	Zn	1.848193	0.225819	0.224419
O10	O	1.790081	0.473500	0.059335
C11	C	1.548294	0.243746	0.111371
C12	C	1.373426	0.239079	0.098793
C13	C	1.885273	-0.057133	0.135611
C14	C	1.903664	-0.234355	0.136939
C15	C	2.128367	0.225438	0.153098
C16	C	2.303235	0.230104	0.165682
C17	C	1.791388	0.526317	0.128858
C18	C	1.772997	0.703538	0.127536
N19	N	1.815018	0.255340	-0.085780
C20	C	1.930835	0.151996	-0.121143
C21	C	1.921440	0.160388	-0.209226
C22	C	1.796231	0.272131	-0.261943
C23	C	1.680402	0.375479	-0.226574
C24	C	1.689792	0.367079	-0.138494
C25	C	1.755218	0.308779	-0.526302
C26	C	1.745839	0.317175	-0.614388
C27	C	1.986876	0.102081	-0.597034
C28	C	1.996261	0.093697	-0.508952
C29	C	1.880427	0.197039	-0.473591
N30	N	1.786627	0.280715	-0.351977
N31	N	1.890026	0.188447	-0.383559
N32	N	1.861657	0.213832	0.350248
H33	H	1.647057	-0.214056	0.118475
C34	C	2.068573	0.029092	-0.063157
H35	H	2.057593	0.038899	-0.005633
H36	H	2.062839	-0.076224	-0.077901
H37	H	2.170273	0.048800	-0.070157
C38	C	1.273834	0.244879	0.008432
H39	H	1.165402	0.240975	0.011550
H40	H	1.274083	0.341559	-0.022594
H41	H	1.320540	0.155722	-0.019405
H42	H	1.595480	0.451230	-0.109702
C43	C	1.402768	0.224541	0.256045
H44	H	1.335282	0.218298	0.296321
H45	H	1.490533	0.133037	0.265462
H46	H	1.443873	0.318884	0.262102
H47	H	2.029611	-0.316769	0.145991
H48	H	2.081182	0.017943	-0.625833
H49	H	2.015747	0.076237	-0.238018
C50	C	2.133982	-0.029230	-0.450970
H51	H	2.201607	-0.089588	-0.484647
H52	H	2.196381	0.025516	-0.412371
H53	H	2.088916	-0.099481	-0.420128
C54	C	1.608105	0.440093	-0.672380
H55	H	1.619119	0.430304	-0.729901
H56	H	1.506399	0.420406	-0.665392
H57	H	1.613855	0.545411	-0.657632
C58	C	1.627817	0.422465	-0.487415
H59	H	1.551918	0.490228	-0.531428
H60	H	1.572737	0.361170	-0.457292
H61	H	1.680203	0.486165	-0.449540
H62	H	1.578447	0.466458	-0.269502
