data_functionalizedCrystal
_audit_creation_method	'MofGen! by Chris Wilmer'
_symmetry_space_group_name_H-M	'P1'
_symmetry_Int_Tables_number	1
_symmetry_cell_setting	triclinic
loop_
_symmetry_equiv_pos_as_xyz
  x,y,z
_cell_length_a	12.827893
_cell_length_b	19.121627
_cell_length_c	12.827885
_cell_angle_alpha	87.594616
_cell_angle_beta	89.980728
_cell_angle_gamma	92.401555
loop_
_atom_site_label
_atom_site_type_symbol
_atom_site_fract_x
_atom_site_fract_y
_atom_site_fract_z
Zn1	Zn	1.615250	0.279554	-0.608560
Zn2	Zn	1.622530	0.397012	-0.441262
Zn3	Zn	1.440493	0.279589	-0.433836
Zn4	Zn	1.447860	0.396960	-0.615959
O5	O	1.531533	0.338279	-0.524904
O6	O	1.762452	0.295142	-0.586379
O7	O	1.598347	0.381472	-0.294043
O8	O	1.457545	0.181308	-0.450809
O9	O	1.767801	0.381438	-0.463466
O10	O	1.585938	0.181282	-0.579178
O11	O	1.464605	0.295201	-0.288587
O12	O	1.295234	0.295151	-0.457983
O13	O	1.470100	0.381350	-0.761211
O14	O	1.300646	0.381383	-0.591788
O15	O	1.593081	0.295092	-0.755775
O16	O	1.605490	0.495282	-0.470640
O17	O	1.477160	0.495243	-0.598989
C18	C	1.260023	0.338266	-0.524883
C19	C	1.143870	0.338277	-0.524900
C20	C	0.974685	0.380924	-0.464010
C21	C	1.094734	0.380913	-0.463991
C22	C	1.542943	0.520744	-0.536446
C23	C	1.547919	0.598804	-0.541419
C24	C	1.579499	1.040290	-0.572919
C25	C	1.574812	0.966945	-0.568237
C26	C	1.505674	0.930351	-0.499017
C27	C	1.441227	0.967107	-0.434467
C28	C	1.445921	1.040451	-0.439144
C29	C	1.488166	0.708904	-0.481545
C30	C	1.483475	0.635555	-0.476875
C31	C	1.617062	0.635397	-0.610645
C32	C	1.621744	0.708743	-0.615320
C33	C	1.557302	0.745492	-0.550766
C34	C	1.500879	0.855381	-0.494233
C35	C	1.562103	0.820461	-0.555546
C36	C	1.804104	0.338292	-0.524926
C37	C	1.920258	0.338298	-0.524935
C38	C	1.531600	0.338211	-0.797470
C39	C	1.531629	0.338183	-0.913622
C40	C	1.520062	1.155100	-0.513331
C41	C	1.515055	1.077041	-0.508376
C42	C	1.592490	0.295491	-0.962716
C43	C	1.592521	0.295461	-1.082765
C44	C	1.531524	0.338295	-0.253395
C45	C	1.531685	0.338126	-0.137232
H46	H	1.097081	0.301784	-0.577067
Br47	Br	1.172724	0.441748	-0.377057
Br48	Br	1.662277	0.917071	-0.655835
H49	H	0.962537	0.301793	-0.577076
H50	H	1.644569	0.258962	-0.915872
Br51	Br	1.400703	0.758769	-0.393940
H52	H	1.635788	1.070079	-0.629296
H53	H	1.384938	0.937309	-0.378101
H54	H	1.678056	0.738532	-0.671675
H55	H	1.479581	0.374680	-1.095009
H56	H	1.479539	0.374705	-0.960465
Br57	Br	1.358465	1.090329	-0.351538
H58	H	0.932405	0.417423	-0.411859
Br59	Br	1.704514	0.585519	-0.698250
Br60	Br	1.389647	0.585893	-0.382919
H61	H	1.444583	0.825581	-0.437874
Br62	Br	1.679382	0.234544	-1.153144
H63	H	1.618398	0.850259	-0.611901
