data_functionalizedCrystal
_audit_creation_method	'MofGen! by Chris Wilmer'
_symmetry_space_group_name_H-M	'P1'
_symmetry_Int_Tables_number	1
_symmetry_cell_setting	triclinic
loop_
_symmetry_equiv_pos_as_xyz
  x,y,z
_cell_length_a	14.809374
_cell_length_b	14.395555
_cell_length_c	14.809374
_cell_angle_alpha	89.999658
_cell_angle_beta	60.797835
_cell_angle_gamma	67.427378
loop_
_atom_site_label
_atom_site_type_symbol
_atom_site_fract_x
_atom_site_fract_y
_atom_site_fract_z
Zr1	Zr	0.955241	1.026059	-0.203699
O2	O	1.113157	0.912267	-0.350855
O3	O	0.777475	1.044832	-0.145622
O4	O	0.926624	1.082830	-0.332163
O5	O	0.993504	0.862621	-0.031916
O6	O	0.926630	1.235698	-0.332167
O7	O	0.964008	0.874269	-0.164314
O8	O	0.659830	1.167727	0.001521
O9	O	1.260304	0.930593	-0.365603
O10	O	0.857949	1.186386	-0.136520
O11	O	0.879956	1.063609	-0.037710
O12	O	1.055560	1.108347	-0.257338
O13	O	1.077568	0.985570	-0.158528
Zr14	Zr	1.002292	1.251289	0.007455
Zr15	Zr	0.955251	1.269866	-0.203705
Zr16	Zr	1.002283	1.007481	0.007461
Zr17	Zr	1.189923	1.055286	-0.227221
Zr18	Zr	0.767610	1.222062	0.030977
O19	O	1.180058	1.232516	-0.050621
O20	O	1.113171	1.258930	-0.350864
O21	O	1.180045	0.885853	-0.050613
O22	O	0.844376	1.365080	0.154612
O23	O	0.777489	1.391495	-0.145631
O24	O	0.844362	1.018418	0.154620
O25	O	0.964029	1.414726	-0.164328
O26	O	1.030909	1.194517	0.135920
O27	O	1.030903	1.041649	0.135923
O28	O	0.993525	1.403078	-0.031929
O29	O	1.260312	1.124387	-0.365608
O30	O	0.697221	1.152960	0.169365
O31	O	0.697229	1.346755	0.169360
O32	O	0.659837	1.361521	0.001516
O33	O	1.297696	0.915826	-0.197759
O34	O	1.297703	1.109621	-0.197764
O35	O	0.901973	1.169000	0.061094
O36	O	0.879965	1.291777	-0.037716
O37	O	1.077577	1.213738	-0.158533
O38	O	1.099584	1.090962	-0.059723
C39	C	0.685215	1.102115	-0.068699
C40	C	0.585587	1.089707	-0.058714
C41	C	0.530252	1.145081	-0.103278
C42	C	0.427280	1.132259	-0.092959
C43	C	0.978755	0.833708	-0.098114
C44	C	0.978751	0.730205	-0.098112
C45	C	0.871004	0.712167	-0.032238
C46	C	0.939565	0.623171	0.000810
C47	C	0.910200	0.634771	-0.131132
C48	C	1.047325	0.642568	-0.065009
C49	C	1.017931	0.654185	-0.197001
C50	C	1.086575	0.565184	-0.163985
C51	C	1.272318	1.175232	-0.127544
C52	C	1.371946	1.187640	-0.137530
C53	C	0.919925	1.161911	-0.362251
C54	C	0.899954	1.169798	-0.451894
C55	C	0.978778	1.443640	-0.098129
C56	C	0.978782	1.547142	-0.098132
C57	C	0.989080	1.134601	-0.551793
C58	C	0.968441	1.142751	-0.644445
C59	C	1.037608	1.115436	0.166007
C60	C	1.057579	1.107550	0.255650
C61	C	0.685227	1.407081	-0.068707
C62	C	0.585603	1.498176	-0.058724
C63	C	0.744057	1.078878	0.195430
C64	C	0.664399	1.058584	0.295058
C65	C	0.744069	1.383844	0.195422
C66	C	0.664415	1.467052	0.295048
C67	C	1.213464	0.893504	-0.391666
C68	C	1.293118	0.810296	-0.491292
C69	C	1.272306	0.870267	-0.127536
C70	C	1.371931	0.779172	-0.137520
C71	C	1.213476	1.198470	-0.391673
C72	C	1.293134	1.218764	-0.491302
C73	C	0.527323	1.485943	-0.105620
C74	C	0.433724	1.571530	-0.096260
C75	C	0.398401	1.669348	-0.039999
C76	C	0.456689	1.681580	0.006897
C77	C	0.550292	1.595995	-0.002469
C78	C	0.638485	1.104066	0.393429
C79	C	0.563652	1.084994	0.487047
C80	C	0.514729	1.020445	0.482293
C81	C	0.540650	0.974958	0.383912
C82	C	0.615487	0.994024	0.290295
C83	C	0.615521	1.570226	0.290256
C84	C	0.540688	1.648421	0.383856
C85	C	0.514745	1.623439	0.482247
C86	C	0.563648	1.520255	0.487037
C87	C	0.638485	1.442063	0.393438
C88	C	1.342024	0.707123	-0.486500
C89	C	1.416885	0.628932	-0.580103
C90	C	1.442833	0.653915	-0.678495
C91	C	1.393924	0.757098	-0.683284
C92	C	1.319071	0.835288	-0.589683
C93	C	1.430217	0.791407	-0.090634
C94	C	1.523837	0.705825	-0.100019
C95	C	1.559164	0.608007	-0.156284
C96	C	1.500871	0.595774	-0.203175
C97	C	1.407258	0.681357	-0.193796
C98	C	1.342035	1.283317	-0.486513
C99	C	1.416872	1.302406	-0.580116
C100	C	1.442813	1.256934	-0.678506
C101	C	1.393903	1.192377	-0.683291
C102	C	1.319061	1.173296	-0.589690
H103	H	0.559104	1.201986	-0.149067
H104	H	0.636574	0.956988	0.210202
Cl105	Cl	1.478352	1.383557	-0.574076
H106	H	0.542558	1.122042	0.567144
H107	H	1.149168	1.071383	-0.761293
Cl108	Cl	1.597096	0.721225	-0.041056
Cl109	Cl	0.758553	1.225646	-0.425737
Cl110	Cl	0.699972	1.185219	0.399433
Cl111	Cl	1.257605	1.092127	-0.595729
H112	H	0.453793	1.004929	0.558530
H113	H	0.500805	0.922401	0.380058
H114	H	1.529649	0.516120	-0.248986
H115	H	0.556079	1.406304	-0.151446
Cl116	Cl	0.699937	1.312358	0.399482
H117	H	1.320902	0.686761	-0.406393
H118	H	1.320928	1.320349	-0.406408
Cl119	Cl	0.416478	1.275507	-0.208227
H120	H	0.500877	1.732432	0.379937
H121	H	1.080662	1.098440	-0.568728
Cl122	Cl	0.382732	1.044407	-0.022245
H123	H	1.177767	0.502185	-0.219696
H124	H	0.636630	1.590586	0.210149
Cl125	Cl	0.420658	1.721750	0.599908
H126	H	1.456696	0.544921	-0.576183
H127	H	0.386276	1.561550	-0.134450
H128	H	1.415036	1.155359	-0.763413
Cl129	Cl	0.531020	1.488865	0.610739
Cl130	Cl	1.536936	0.555605	-0.796157
H131	H	0.906454	0.609031	0.084431
Cl132	Cl	1.676850	0.500426	-0.168062
H133	H	1.105269	0.646782	-0.036994
Cl134	Cl	0.541034	1.001860	0.011997
Cl135	Cl	0.730363	0.809643	0.053856
Cl136	Cl	0.412264	1.804559	0.077629
H137	H	0.322181	1.739028	-0.032379
H138	H	0.597733	1.605969	0.035727
H139	H	1.415061	0.777428	-0.763407
H140	H	1.051003	0.668360	-0.280601
H141	H	0.852217	0.630458	-0.159052
Cl142	Cl	1.257588	0.964988	-0.595724
H143	H	0.876853	1.178924	-0.627503
Cl144	Cl	1.385834	0.914369	-0.019900
H145	H	1.359803	0.671379	-0.231975
H146	H	1.503756	1.272480	-0.754715
