data_functionalizedCrystal
_audit_creation_method	'MofGen! by Chris Wilmer'
_symmetry_space_group_name_H-M	'P1'
_symmetry_Int_Tables_number	1
_symmetry_cell_setting	triclinic
loop_
_symmetry_equiv_pos_as_xyz
  x,y,z
_cell_length_a	19.288864
_cell_length_b	19.288865
_cell_length_c	18.366186
_cell_angle_alpha	89.988521
_cell_angle_beta	89.977106
_cell_angle_gamma	83.136245
loop_
_atom_site_label
_atom_site_type_symbol
_atom_site_fract_x
_atom_site_fract_y
_atom_site_fract_z
O1	O	0.921353	0.086649	-0.060791
O2	O	0.719092	0.098337	-0.060743
O3	O	0.826067	-0.008637	-0.060754
O4	O	0.814378	0.193623	-0.060780
O5	O	0.826049	-0.008643	0.060345
O6	O	0.719074	0.098332	0.060357
O7	O	0.921335	0.086643	0.060308
Zn8	Zn	0.820201	0.092487	0.079559
Zn9	Zn	0.820225	0.092494	-0.079994
O10	O	0.814360	0.193618	0.060319
C11	C	0.693207	0.097959	-0.000187
C12	C	0.616103	0.096830	-0.000167
C13	C	0.571407	0.159598	-0.000187
C14	C	0.498960	0.158537	-0.000195
C15	C	0.471212	0.094705	-0.000198
C16	C	0.515918	0.031929	-0.000174
C17	C	0.588364	0.032991	-0.000159
C18	C	0.362956	0.044527	-0.042642
C19	C	0.290512	0.043468	-0.042662
C20	C	0.247767	0.091425	-0.000241
C21	C	0.277473	0.140454	0.042189
C22	C	0.349918	0.141517	0.042205
C23	C	0.392658	0.093546	-0.000214
C24	C	0.124514	0.153047	-0.000269
C25	C	0.052066	0.151984	-0.000272
C26	C	0.069026	0.025374	-0.000259
C27	C	0.141473	0.026439	-0.000248
C28	C	0.169212	0.090278	-0.000256
C29	C	0.825682	-0.034516	-0.000202
C30	C	0.824553	-0.111620	-0.000195
C31	C	0.887321	-0.156316	-0.000207
C32	C	0.886260	-0.228763	-0.000218
C33	C	0.822428	-0.256511	-0.000203
C34	C	0.759652	-0.211805	-0.000196
C35	C	0.760714	-0.139359	-0.000192
C36	C	0.772242	-0.364800	0.042227
C37	C	0.771182	-0.437245	0.042228
C38	C	0.819148	-0.479956	-0.000219
C39	C	0.868186	-0.450216	-0.042657
C40	C	0.869248	-0.377771	-0.042653
C41	C	0.821269	-0.335065	-0.000208
C42	C	0.880770	-0.603209	-0.000244
C43	C	0.879707	-0.675657	-0.000259
C44	C	0.753097	-0.658697	-0.000230
C45	C	0.754162	-0.586250	-0.000221
C46	C	0.818001	-0.558511	-0.000225
C47	C	0.947220	0.087022	-0.000250
C48	C	1.024324	0.088151	-0.000274
C49	C	0.814745	0.219497	-0.000234
C50	C	0.815874	0.296601	-0.000246
N51	N	0.820190	0.092482	0.188451
N52	N	0.820242	0.092493	-0.188885
C53	C	0.867574	0.045137	0.226546
C54	C	0.867578	0.045134	0.302774
C55	C	0.820206	0.092488	0.340903
C56	C	0.772813	0.139836	0.302799
C57	C	0.772805	0.139834	0.226572
C58	C	0.810907	0.155775	0.461657
C59	C	0.810920	0.155779	0.537882
C60	C	0.820225	0.092496	0.576011
C61	C	0.829533	0.029207	0.537905
C62	C	0.829525	0.029204	0.461679
C63	C	0.820208	0.092496	0.423558
C64	C	0.867617	0.045144	0.696761
C65	C	0.867616	0.045140	0.772990
C66	C	0.772854	0.139849	0.773014
C67	C	0.772851	0.139847	0.696786
C68	C	0.820236	0.092495	0.658664
H69	H	0.397755	0.005473	-0.077191
N70	N	0.154436	0.221899	-0.000273
H71	H	0.138099	0.249386	0.044615
H72	H	0.207108	0.212992	-0.000294
H73	H	0.701123	-0.681288	-0.000221
H74	H	0.930822	-0.712049	-0.000273
H75	H	0.937375	-0.265162	-0.000231
N76	N	0.922132	-0.345692	-0.088422
H77	H	0.952360	-0.383738	-0.115314
H78	H	0.897017	-0.312203	-0.124651
H79	H	0.906156	0.006579	0.195509
N80	N	0.690804	-0.241730	-0.000169
H81	H	0.651200	-0.202418	-0.000160
H82	H	0.687611	-0.271412	-0.045061
H83	H	0.734219	0.178388	0.195554
N84	N	0.693010	-0.091148	-0.000162
H85	H	0.703370	-0.041044	-0.000157
H86	H	0.665184	-0.100092	-0.045049
H87	H	0.907244	-0.484991	-0.077221
N88	N	0.601326	0.228449	-0.000201
H89	H	0.562013	0.268051	-0.000217
H90	H	0.630990	0.231653	0.044696
H91	H	0.906165	0.006578	0.333797
N92	N	0.721718	0.190915	0.343917
H93	H	0.672448	0.183036	0.330681
H94	H	0.728974	0.183709	0.397974
N95	N	0.918719	-0.005927	0.655637
H96	H	0.948735	-0.035925	0.691341
H97	H	0.892225	-0.036566	0.624029
N98	N	0.039103	-0.043472	-0.000261
H99	H	0.055442	-0.070962	-0.045146
H100	H	0.055401	-0.070908	0.044667
N101	N	0.003854	0.219687	-0.000235
H102	H	0.032423	0.260286	-0.000222
H103	H	-0.026576	0.222037	-0.045116
N104	N	0.686462	-0.538036	-0.000205
H105	H	0.645862	-0.566605	-0.000196
H106	H	0.684139	-0.507619	0.044691
H107	H	0.731250	-0.461452	0.076779
H108	H	0.242671	0.179506	0.076733
H109	H	0.932751	-0.580622	-0.000250
N110	N	0.720500	-0.318734	0.088007
H111	H	0.689279	-0.348566	0.114894
H112	H	0.746494	-0.292107	0.124241
H113	H	0.624756	-0.018124	-0.000144
N114	N	0.839561	-0.039051	0.420578
H115	H	0.845458	-0.079143	0.456294
H116	H	0.797376	-0.042999	0.388976
N117	N	0.839574	-0.039055	0.579018
H118	H	0.838164	-0.029453	0.633088
H119	H	0.801051	-0.067885	0.565718
N120	N	0.721747	0.190923	0.655700
H121	H	0.748187	0.221609	0.624052
H122	H	0.691086	0.164409	0.624139
H123	H	0.939303	-0.133736	-0.000212
H124	H	0.462561	0.209652	-0.000209
H125	H	0.906200	0.006582	0.804008
N126	N	0.381961	0.194390	0.087968
H127	H	0.343894	0.224612	0.114841
H128	H	0.415422	0.169266	0.124214
H129	H	0.734279	0.178402	0.804058
N130	N	0.800876	0.224037	0.578978
H131	H	0.839384	0.252906	0.565683
H132	H	0.754197	0.250443	0.565711
N133	N	0.485989	-0.036916	-0.000172
H134	H	0.456336	-0.040179	-0.045069
H135	H	0.525336	-0.076482	-0.000128
H136	H	0.803318	0.207311	0.430619
H137	H	0.177866	-0.024674	-0.000236
N138	N	0.258474	-0.009409	-0.088426
H139	H	0.296545	-0.039635	-0.115289
H140	H	0.232385	-0.039630	-0.055882
