data_functionalizedCrystal
_audit_creation_method	'MofGen! by Chris Wilmer'
_symmetry_space_group_name_H-M	'P1'
_symmetry_Int_Tables_number	1
_symmetry_cell_setting	triclinic
loop_
_symmetry_equiv_pos_as_xyz
  x,y,z
_cell_length_a	17.038278
_cell_length_b	17.038272
_cell_length_c	9.016244
_cell_angle_alpha	89.997742
_cell_angle_beta	89.992428
_cell_angle_gamma	91.111028
loop_
_atom_site_label
_atom_site_type_symbol
_atom_site_fract_x
_atom_site_fract_y
_atom_site_fract_z
O1	O	1.048757	0.170524	-0.123355
O2	O	1.548757	0.670524	0.376645
O3	O	0.820946	0.167818	-0.123355
O4	O	1.320946	0.667818	0.376645
O5	O	0.933498	0.055265	-0.123343
O6	O	1.433498	0.555265	0.376657
O7	O	0.936206	0.283077	-0.123367
O8	O	1.436206	0.783077	0.376633
O9	O	0.933480	0.055267	0.123338
O10	O	1.433480	0.555267	0.623338
O11	O	0.820929	0.167820	0.123326
O12	O	1.320929	0.667820	0.623326
O13	O	1.048740	0.170526	0.123326
O14	O	1.548740	0.670526	0.623326
Cu15	Cu	0.934833	0.169173	0.145850
Cu16	Cu	1.434833	0.669173	0.645850
Cu17	Cu	0.934853	0.169171	-0.145879
Cu18	Cu	1.434853	0.669171	0.354121
O19	O	0.936188	0.283079	0.123314
O20	O	1.436188	0.783079	0.623314
C21	C	0.791645	0.165356	-0.000015
C22	C	1.291645	0.665356	0.499985
C23	C	0.704361	0.158009	-0.000015
C24	C	1.204361	0.658009	0.499985
C25	C	0.210935	0.112872	-0.000016
C26	C	0.710935	0.612872	0.499984
C27	C	0.292947	0.119781	-0.000007
C28	C	0.792947	0.619781	0.499993
C29	C	0.329347	0.194155	-0.000022
C30	C	0.829347	0.694155	0.499978
C31	C	0.283730	0.261623	-0.000029
C32	C	0.783730	0.761623	0.499971
C33	C	0.201720	0.254713	-0.000027
C34	C	0.701720	0.754713	0.499973
C35	C	0.576734	0.218567	-0.000020
C36	C	1.076734	0.718567	0.499980
C37	C	0.658751	0.225473	-0.000027
C38	C	1.158751	0.725473	0.499973
C39	C	0.667962	0.083630	-0.000002
C40	C	1.167962	0.583630	0.499998
C41	C	0.585949	0.076726	-0.000008
C42	C	1.085949	0.576726	0.499992
C43	C	0.540340	0.144194	-0.000008
C44	C	1.040340	0.644194	0.499992
C45	C	0.413176	0.201219	-0.000018
C46	C	0.913176	0.701219	0.499982
C47	C	0.456513	0.137129	-0.000001
C48	C	0.956513	0.637129	0.499999
C49	C	0.931026	0.025974	-0.000003
C50	C	1.431026	0.525974	0.499997
C51	C	0.923678	-0.061310	-0.000003
C52	C	1.423678	0.438690	0.499997
C53	C	0.991142	-0.106920	-0.000002
C54	C	1.491142	0.393080	0.499998
C55	C	0.984233	-0.188932	-0.000016
C56	C	1.484233	0.311068	0.499984
C57	C	0.909859	-0.225332	-0.000021
C58	C	1.409859	0.274668	0.499979
C59	C	0.842391	-0.179716	-0.000027
C60	C	1.342391	0.320284	0.499973
C61	C	0.849300	-0.097706	-0.000024
C62	C	1.349300	0.402294	0.499976
C63	C	0.885449	-0.472720	-0.000041
C64	C	1.385449	0.027280	0.499959
C65	C	0.878544	-0.554736	-0.000040
C66	C	1.378544	-0.054736	0.499960
C67	C	1.020387	-0.563946	-0.000032
C68	C	1.520387	-0.063946	0.499968
C69	C	1.027290	-0.481934	-0.000019
C70	C	1.527290	0.018066	0.499981
C71	C	0.959821	-0.436325	-0.000033
C72	C	1.459821	0.063675	0.499967
C73	C	0.902796	-0.309161	-0.000031
C74	C	1.402796	0.190839	0.499969
C75	C	0.966886	-0.352497	-0.000034
C76	C	1.466886	0.147503	0.499966
C77	C	1.078041	0.172988	-0.000018
C78	C	1.578041	0.672988	0.499982
C79	C	1.165325	0.180335	-0.000028
C80	C	1.665325	0.680335	0.499972
C81	C	0.938660	0.312370	-0.000029
C82	C	1.438660	0.812370	0.499971
C83	C	0.946008	0.399654	-0.000039
C84	C	1.446008	0.899654	0.499961
N85	N	0.934824	0.169174	0.351036
N86	N	1.434824	0.669174	0.851036
N87	N	0.934868	0.169164	-0.351065
N88	N	1.434868	0.669164	0.148935
C89	C	0.874408	0.229157	0.586062
C90	C	1.374408	0.729157	1.086062
C91	C	0.874563	0.229404	0.414171
C92	C	1.374563	0.729404	0.914171
C93	C	1.017958	0.192523	0.413372
C94	C	1.517958	0.692523	0.913372
C95	C	1.017635	0.192953	0.585317
C96	C	1.517635	0.692953	1.085317
C97	C	0.912908	0.085681	0.585588
C98	C	1.412908	0.585681	1.085588
C99	C	0.911056	0.086108	0.413634
C100	C	1.411056	0.586108	0.913634
H101	H	0.539609	0.273505	-0.000027
H102	H	1.039609	0.773505	0.499973
Br103	Br	0.771393	0.204887	0.655011
Br104	Br	1.271393	0.704887	1.155011
H105	H	0.853312	0.064582	0.629038
H106	H	1.353312	0.564582	1.129038
H107	H	1.051704	-0.077289	0.000012
H108	H	1.551704	0.422711	0.500012
Br109	Br	0.986288	0.011163	0.653348
Br110	Br	1.486288	0.511163	1.153348
Br111	Br	0.354844	0.028219	0.000024
Br112	Br	0.854844	0.528219	0.500024
H113	H	1.036774	0.252912	0.370288
H114	H	1.536774	0.752912	0.870288
Br115	Br	0.898837	0.332481	0.345566
Br116	Br	1.398837	0.832481	0.845566
Br117	Br	0.708150	0.326415	-0.000050
Br118	Br	1.208150	0.826415	0.499950
H119	H	0.849874	0.068516	0.372893
H120	H	1.349874	0.568516	0.872893
H121	H	0.781834	-0.209360	-0.000041
H122	H	1.281834	0.290640	0.499959
H123	H	0.794364	-0.060571	-0.000025
H124	H	1.294364	0.439429	0.499975
H125	H	0.313374	0.322180	-0.000032
H126	H	0.813374	0.822180	0.499968
H127	H	1.036153	0.254003	0.625400
H128	H	1.536153	0.754003	1.125400
Br129	Br	0.139819	0.346274	-0.000026
Br130	Br	0.639819	0.846274	0.499974
Br131	Br	1.095255	0.123275	0.654642
Br132	Br	1.595255	0.623275	1.154642
H133	H	0.812944	0.214688	0.372028
H134	H	1.312944	0.714688	0.872028
H135	H	0.426872	0.076575	-0.000007
H136	H	0.926872	0.576575	0.499993
H137	H	0.442822	0.261775	-0.000034
H138	H	0.942822	0.761775	0.499966
H139	H	0.181305	0.052309	-0.000013
H140	H	0.681305	0.552309	0.499987
H141	H	1.064245	0.150218	0.372472
H142	H	1.564245	0.650218	0.872472
Br143	Br	0.536555	-0.024213	-0.000054
Br144	Br	1.036555	0.475787	0.499946
Br145	Br	0.978987	0.007508	0.342036
Br146	Br	1.478987	0.507508	0.842036
H147	H	0.888829	0.290641	0.629249
H148	H	1.388829	0.790641	1.129249
Br149	Br	0.729863	-0.007929	0.000006
Br150	Br	1.229863	0.492071	0.500006
H151	H	0.830511	-0.435595	-0.000052
H152	H	1.330511	0.064405	0.499948
H153	H	1.039169	-0.226064	-0.000011
H154	H	1.539169	0.273936	0.499989
H155	H	1.075316	-0.601089	-0.000023
H156	H	1.575316	-0.101089	0.499977
Br157	Br	1.128229	-0.432539	-0.000060
Br158	Br	1.628229	0.067461	0.499940
H159	H	1.027440	-0.322857	-0.000063
H160	H	1.527440	0.177143	0.499937
Br161	Br	0.777602	-0.604136	-0.000032
Br162	Br	1.277602	-0.104136	0.499968
H163	H	0.842240	-0.338808	-0.000032
H164	H	1.342240	0.161192	0.499968
