data_functionalizedCrystal
_audit_creation_method	'MofGen! by Chris Wilmer'
_symmetry_space_group_name_H-M	'P1'
_symmetry_Int_Tables_number	1
_symmetry_cell_setting	triclinic
loop_
_symmetry_equiv_pos_as_xyz
  x,y,z
_cell_length_a	13.339070
_cell_length_b	14.853567
_cell_length_c	11.804365
_cell_angle_alpha	101.851263
_cell_angle_beta	74.875130
_cell_angle_gamma	99.632112
loop_
_atom_site_label
_atom_site_type_symbol
_atom_site_fract_x
_atom_site_fract_y
_atom_site_fract_z
O1	O	1.363338	0.439029	-0.099032
O2	O	1.068727	0.379685	-0.099030
O3	O	1.223903	0.280086	-0.099035
O4	O	1.208162	0.538627	-0.099028
O5	O	1.183051	0.306270	0.099022
O6	O	1.027875	0.405869	0.099027
O7	O	1.322486	0.465213	0.099025
Cu8	Cu	1.171451	0.437931	0.117110
Cu9	Cu	1.219763	0.406966	-0.117116
O10	O	1.167310	0.564811	0.099029
C11	C	1.010598	0.382752	-0.000002
C12	C	0.898254	0.352872	-0.000001
C13	C	0.533790	0.585204	-0.000014
C14	C	0.639343	0.613280	-0.000018
C15	C	0.704076	0.548181	-0.000013
C16	C	0.663246	0.455000	-0.000006
C17	C	0.557684	0.426919	-0.000011
C18	C	0.727970	0.389896	-0.000010
C19	C	0.687140	0.296715	-0.000003
C20	C	0.581588	0.268640	-0.000007
C21	C	0.516855	0.333740	-0.000012
C22	C	0.833531	0.417977	-0.000005
C23	C	0.857425	0.259692	-0.000002
C24	C	0.751872	0.231616	0.000002
C25	C	1.202764	0.259411	-0.000010
C26	C	1.200629	0.158794	-0.000020
C27	C	1.099414	-0.278941	0.000003
C28	C	1.283765	-0.254314	0.000002
C29	C	1.285776	-0.159780	-0.000005
C30	C	1.194604	-0.124823	-0.000006
C31	C	1.101421	-0.184399	-0.000000
C32	C	1.378955	-0.100196	0.000001
C33	C	1.380969	-0.005657	-0.000005
C34	C	1.289798	0.029301	-0.000014
C35	C	1.196611	-0.030281	-0.000010
C36	C	1.105439	0.004677	-0.000011
C37	C	1.012254	-0.054905	-0.000015
C38	C	1.010250	-0.149441	-0.000010
C39	C	1.291802	0.123837	-0.000019
C40	C	1.107447	0.099219	-0.000014
C41	C	1.380616	0.462145	-0.000006
C42	C	1.492961	0.492024	-0.000015
C43	C	1.188449	0.585486	0.000002
C44	C	1.190586	0.686102	0.000004
N45	N	1.137478	0.459712	0.281852
N46	N	1.253743	0.385180	-0.281857
C47	C	1.335324	0.332860	0.655794
C48	C	1.361023	0.316378	0.531132
C49	C	1.305139	0.352210	0.468806
C50	C	1.223551	0.404526	0.531154
C51	C	1.197855	0.421015	0.655829
C52	C	1.167670	0.440366	0.468840
C53	C	1.086082	0.492682	0.531189
C54	C	1.060390	0.509168	0.655851
C55	C	1.116274	0.473336	0.718177
C56	C	1.193366	0.423877	0.344166
C57	C	1.055897	0.512033	0.344200
C58	C	1.030198	0.528514	0.468862
H59	H	0.430904	0.310884	-0.000008
C60	C	0.878430	0.520474	-0.000002
N61	N	0.912244	0.597682	0.000005
C62	C	1.283104	0.366324	0.275597
N63	N	1.350698	0.322969	0.223952
H64	H	1.367670	0.172345	-0.000008
H65	H	0.481078	0.638196	-0.000028
C66	C	1.450761	0.258827	0.462558
N67	N	1.518354	0.215473	0.410907
C68	C	0.684245	0.715778	-0.000010
N69	N	0.718064	0.792985	0.000002
C70	C	0.970645	0.566722	0.724431
N71	N	0.903048	0.610070	0.776083
C72	C	0.940451	0.586059	0.537462
N73	N	0.872852	0.629401	0.589132
H74	H	0.790022	0.571046	-0.000019
C75	C	1.087988	0.491440	0.855315
N76	N	1.066679	0.505067	0.958608
C77	C	0.994417	0.551449	0.275647
N78	N	0.948116	0.581135	0.224004
H79	H	0.548351	0.192765	-0.000014
H80	H	1.033203	0.127672	-0.000020
H81	H	0.718615	0.155745	-0.000002
C82	C	0.911968	-0.016439	-0.000016
N83	N	0.836435	0.012537	-0.000019
H84	H	0.910132	0.206682	-0.000004
C85	C	0.907749	-0.214983	0.000011
N86	N	0.830545	-0.264352	0.000037
C87	C	1.479235	-0.138655	0.000011
N88	N	1.554770	-0.167626	0.000016
H89	H	1.357991	-0.282781	0.000012
C90	C	1.483476	0.059873	-0.000010
N91	N	1.560686	0.109231	-0.000018
H92	H	1.023545	-0.327457	-0.000005
C93	C	1.396789	0.293453	0.724361
N94	N	1.443088	0.263769	0.776007
H95	H	1.326067	0.338789	0.367300
