data_functionalizedCrystal
_audit_creation_method	'MofGen! by Chris Wilmer'
_symmetry_space_group_name_H-M	'P1'
_symmetry_Int_Tables_number	1
_symmetry_cell_setting	triclinic
loop_
_symmetry_equiv_pos_as_xyz
  x,y,z
_cell_length_a	16.992695
_cell_length_b	10.654556
_cell_length_c	16.053810
_cell_angle_alpha	92.591495
_cell_angle_beta	87.247275
_cell_angle_gamma	87.577880
loop_
_atom_site_label
_atom_site_type_symbol
_atom_site_fract_x
_atom_site_fract_y
_atom_site_fract_z
O1	O	0.106929	1.682305	0.069398
O2	O	0.117421	1.317735	0.069407
O3	O	-0.001975	1.498558	0.069396
O4	O	0.226325	1.501482	0.069409
O5	O	0.004595	1.488648	-0.069462
O6	O	0.123991	1.307825	-0.069451
O7	O	0.113499	1.672395	-0.069460
Zn8	Zn	0.119788	1.488537	-0.091502
Zn9	Zn	0.111132	1.501593	0.091449
O10	O	0.232895	1.491572	-0.069449
C11	C	0.119935	1.265916	-0.000021
C12	C	0.117626	1.126274	-0.000018
C13	C	0.110795	0.934849	0.075667
C14	C	0.112959	1.066058	0.075672
C15	C	0.120122	1.055273	-0.075718
C16	C	0.117953	0.924066	-0.075723
C17	C	-0.027924	1.489843	-0.000033
C18	C	-0.115029	1.478624	-0.000032
C19	C	-0.164679	1.586874	-0.000036
C20	C	-0.246523	1.576326	-0.000028
C21	C	-0.278716	1.457525	-0.000022
C22	C	-0.229060	1.349267	-0.000016
C23	C	-0.147217	1.359817	-0.000018
C24	C	-0.522553	1.413799	-0.000009
C25	C	-0.604402	1.403257	-0.000010
C26	C	-0.621860	1.630317	-0.000020
C27	C	-0.540015	1.640856	-0.000027
C28	C	-0.490366	1.532598	-0.000017
N29	N	-0.362374	1.446740	-0.000016
N30	N	-0.406710	1.543385	-0.000016
C31	C	0.258843	1.500287	-0.000018
C32	C	0.345948	1.511507	-0.000013
C33	C	0.110985	1.724215	-0.000030
C34	C	0.113293	1.863857	-0.000028
N35	N	0.125695	1.479635	-0.216362
C36	C	0.156009	1.433543	-0.739991
C37	C	0.151892	1.439799	-0.652585
C38	C	0.096987	1.523023	-0.608880
C39	C	0.046191	1.599988	-0.652586
C40	C	0.050305	1.593725	-0.739991
C41	C	0.079013	1.550337	-0.347472
C42	C	0.074904	1.556597	-0.260062
C43	C	0.180605	1.396405	-0.260067
C44	C	0.184717	1.390155	-0.347473
C45	C	0.133918	1.467115	-0.391171
N46	N	0.092779	1.529422	-0.519537
N47	N	0.138123	1.460708	-0.480513
N48	N	0.105218	1.510504	0.216309
H49	H	0.119986	0.866263	-0.137366
H50	H	0.110924	1.123854	0.137311
H51	H	0.229425	1.322387	-0.383056
H52	H	0.001482	1.667746	-0.616996
H53	H	0.030192	1.624373	-0.224481
F54	F	0.125087	1.119362	-0.156274
H55	H	0.037652	1.613003	-0.383045
H56	H	0.107000	0.885831	0.137303
F57	F	-0.299362	1.691541	-0.000033
F58	F	-0.505760	1.767301	-0.000012
F59	F	-0.674705	1.745524	-0.000030
F60	F	-0.130425	1.713318	-0.000050
F61	F	-0.638661	1.276807	-0.000008
H62	H	-0.482138	1.325647	-0.000001
F63	F	-0.263324	1.222830	-0.000001
F64	F	-0.094376	1.244602	-0.000012
H65	H	0.200722	1.365779	-0.775570
H66	H	0.193249	1.377130	-0.617005
F67	F	-0.003757	1.675635	-0.786498
H68	H	0.221962	1.333747	-0.224479
