data_functionalizedCrystal
_audit_creation_method	'MofGen! by Chris Wilmer'
_symmetry_space_group_name_H-M	'P1'
_symmetry_Int_Tables_number	1
_symmetry_cell_setting	triclinic
loop_
_symmetry_equiv_pos_as_xyz
  x,y,z
_cell_length_a	15.944499
_cell_length_b	15.944493
_cell_length_c	14.421503
_cell_angle_alpha	90.010165
_cell_angle_beta	89.989779
_cell_angle_gamma	83.476327
loop_
_atom_site_label
_atom_site_type_symbol
_atom_site_fract_x
_atom_site_fract_y
_atom_site_fract_z
O1	O	1.114534	0.108117	-0.077155
O2	O	1.364534	0.358117	0.172845
O3	O	1.614534	0.608117	0.422845
O4	O	1.864534	0.858117	0.672845
O5	O	0.869975	0.121519	-0.077143
O6	O	1.119975	0.371519	0.172857
O7	O	1.369975	0.621519	0.422857
O8	O	1.619975	0.871519	0.672857
O9	O	0.998958	-0.007462	-0.077157
O10	O	1.248958	0.242538	0.172843
O11	O	1.498958	0.492538	0.422843
O12	O	1.748958	0.742538	0.672843
O13	O	0.985551	0.237097	-0.077141
O14	O	1.235551	0.487097	0.172859
O15	O	1.485551	0.737097	0.422859
O16	O	1.735551	0.987097	0.672859
O17	O	0.998937	-0.007443	0.077066
O18	O	1.248937	0.242557	0.327066
O19	O	1.498937	0.492557	0.577066
O20	O	1.748937	0.742557	0.827066
O21	O	0.869954	0.121538	0.077080
O22	O	1.119954	0.371538	0.327080
O23	O	1.369954	0.621538	0.577080
O24	O	1.619954	0.871538	0.827080
O25	O	1.114512	0.108136	0.077068
O26	O	1.364512	0.358136	0.327068
O27	O	1.614512	0.608136	0.577068
O28	O	1.864512	0.858136	0.827068
Cu29	Cu	0.992231	0.114839	0.091156
Cu30	Cu	1.242231	0.364839	0.341156
Cu31	Cu	1.492231	0.614839	0.591156
Cu32	Cu	1.742231	0.864839	0.841156
Cu33	Cu	0.992257	0.114816	-0.091231
Cu34	Cu	1.242257	0.364816	0.158769
Cu35	Cu	1.492257	0.614816	0.408769
Cu36	Cu	1.742257	0.864816	0.658769
O37	O	0.985530	0.237116	0.077082
O38	O	1.235530	0.487116	0.327082
O39	O	1.485530	0.737116	0.577082
O40	O	1.735530	0.987116	0.827082
C41	C	0.838670	0.120979	-0.000030
C42	C	1.088670	0.370979	0.249970
C43	C	1.338670	0.620979	0.499970
C44	C	1.588670	0.870979	0.749970
C45	C	0.745422	0.119334	-0.000026
C46	C	0.995422	0.369334	0.249974
C47	C	1.245422	0.619334	0.499974
C48	C	1.495422	0.869334	0.749974
C49	C	0.453871	0.194269	-0.000035
C50	C	0.703871	0.444269	0.249965
C51	C	0.953871	0.694269	0.499965
C52	C	1.203871	0.944269	0.749965
C53	C	0.514918	0.155307	-0.076080
C54	C	0.764918	0.405307	0.173920
C55	C	1.014918	0.655307	0.423920
C56	C	1.264918	0.905307	0.673920
C57	C	0.409787	0.113358	-0.000048
C58	C	0.659787	0.363358	0.249952
C59	C	0.909787	0.613358	0.499952
C60	C	1.159787	0.863358	0.749952
C61	C	0.514883	0.155304	0.075973
C62	C	0.764883	0.405304	0.325973
C63	C	1.014883	0.655304	0.575973
C64	C	1.264883	0.905304	0.825973
C65	C	0.574695	0.116299	-0.000036
C66	C	0.824695	0.366299	0.249964
C67	C	1.074695	0.616299	0.499964
C68	C	1.324695	0.866299	0.749964
C69	C	0.469607	0.074373	-0.076155
C70	C	0.719607	0.324373	0.173845
C71	C	0.969607	0.574373	0.423845
C72	C	1.219607	0.824373	0.673845
C73	C	0.469565	0.074382	0.075965
C74	C	0.719565	0.324382	0.325965
C75	C	0.969565	0.574382	0.575965
C76	C	1.219565	0.824382	0.825965
C77	C	0.530595	0.035361	-0.000098
C78	C	0.780595	0.285361	0.249902
C79	C	1.030595	0.535361	0.499902
C80	C	1.280595	0.785361	0.749902
C81	C	0.314787	0.111666	-0.000056
C82	C	0.564787	0.361666	0.249944
C83	C	0.814787	0.611666	0.499944
C84	C	1.064787	0.861666	0.749944
C85	C	0.669694	0.117984	-0.000035
C86	C	0.919694	0.367984	0.249965
C87	C	1.169694	0.617984	0.499965
C88	C	1.419694	0.867984	0.749965
C89	C	0.998400	-0.038747	-0.000049
C90	C	1.248400	0.211253	0.249951
C91	C	1.498400	0.461253	0.499951
C92	C	1.748400	0.711253	0.749951
C93	C	0.996757	-0.131995	-0.000061
C94	C	1.246757	0.118005	0.249939
C95	C	1.496757	0.368005	0.499939
C96	C	1.746757	0.618005	0.749939
C97	C	1.072679	-0.367769	-0.000047
C98	C	1.322679	-0.117769	0.249953
C99	C	1.572679	0.132231	0.499953
C100	C	1.822679	0.382231	0.749953
C101	C	1.031748	-0.418339	-0.076085
C102	C	1.281748	-0.168339	0.173915
C103	C	1.531748	0.081661	0.423915
C104	C	1.781748	0.331661	0.673915
C105	C	0.993713	-0.302716	-0.000050
C106	C	1.243713	-0.052716	0.249950
C107	C	1.493713	0.197284	0.499950
C108	C	1.743713	0.447284	0.749950
C109	C	1.031708	-0.418296	0.075967
C110	C	1.281708	-0.168296	0.325967
C111	C	1.531708	0.081704	0.575967
C112	C	1.781708	0.331704	0.825967
C113	C	0.990778	-0.467625	-0.000034
C114	C	1.240778	-0.217625	0.249966
C115	C	1.490778	0.032375	0.499966
C116	C	1.740778	0.282375	0.749966
C117	C	0.952802	-0.352057	-0.076150
C118	C	1.202802	-0.102057	0.173850
C119	C	1.452802	0.147943	0.423850
C120	C	1.702802	0.397943	0.673850
C121	C	0.952775	-0.352011	0.075971
C122	C	1.202775	-0.102011	0.325971
C123	C	1.452775	0.147989	0.575971
C124	C	1.702775	0.397989	0.825971
C125	C	0.911785	-0.402548	-0.000086
C126	C	1.161785	-0.152548	0.249914
C127	C	1.411785	0.097452	0.499914
C128	C	1.661785	0.347452	0.749914
C129	C	0.995405	-0.207716	-0.000059
C130	C	1.245405	0.042284	0.249941
C131	C	1.495405	0.292284	0.499941
C132	C	1.745405	0.542284	0.749941
C133	C	0.989079	-0.562622	-0.000031
C134	C	1.239079	-0.312622	0.249969
C135	C	1.489079	-0.062622	0.499969
C136	C	1.739079	0.187378	0.749969
C137	C	1.145818	0.108675	-0.000047
C138	C	1.395818	0.358675	0.249953
C139	C	1.645818	0.608675	0.499953
C140	C	1.895818	0.858675	0.749953
C141	C	1.239066	0.110320	-0.000057
C142	C	1.489066	0.360320	0.249943
C143	C	1.739066	0.610320	0.499943
C144	C	1.989066	0.860320	0.749943
C145	C	0.986088	0.268401	-0.000027
C146	C	1.236088	0.518401	0.249973
C147	C	1.486088	0.768401	0.499973
C148	C	1.736088	1.018401	0.749973
C149	C	0.987731	0.361650	-0.000022
C150	C	1.237731	0.611650	0.249978
C151	C	1.487731	0.861650	0.499978
C152	C	1.737731	1.111650	0.749978
N153	N	0.992220	0.114854	0.219437
N154	N	1.242220	0.364854	0.469437
N155	N	1.492220	0.614854	0.719437
N156	N	1.742220	0.864854	0.969437
N157	N	0.992275	0.114794	-0.219512
N158	N	1.242275	0.364794	0.030488
N159	N	1.492275	0.614794	0.280488
N160	N	1.742275	0.864794	0.530488
C161	C	0.932567	0.174468	0.469098
C162	C	1.182567	0.424468	0.719098
C163	C	1.432567	0.674468	0.969098
C164	C	1.682567	0.924468	1.219098
C165	C	1.008466	0.190761	0.530898
C166	C	1.258466	0.440761	0.780898
C167	C	1.508466	0.690761	1.030898
C168	C	1.758466	0.940761	1.280898
C169	C	0.992240	0.114834	0.408599
C170	C	1.242240	0.364834	0.658599
C171	C	1.492240	0.614834	0.908599
C172	C	1.742240	0.864834	1.158599
C173	C	0.916361	0.098560	0.530892
C174	C	1.166361	0.348560	0.780892
C175	C	1.416361	0.598560	1.030892
C176	C	1.666361	0.848560	1.280892
C177	C	0.992253	0.114816	0.591320
C178	C	1.242253	0.364816	0.841320
C179	C	1.492253	0.614816	1.091320
C180	C	1.742253	0.864816	1.341320
C181	C	1.068177	0.131165	0.469038
C182	C	1.318177	0.381165	0.719038
C183	C	1.568177	0.631165	0.969038
C184	C	1.818177	0.881165	1.219038
C185	C	0.976022	0.038931	0.469027
C186	C	1.226022	0.288931	0.719027
C187	C	1.476022	0.538931	0.969027
C188	C	1.726022	0.788931	1.219027
C189	C	1.051976	0.055192	0.530800
C190	C	1.301976	0.305192	0.780800
C191	C	1.551976	0.555192	1.030800
C192	C	1.801976	0.805192	1.280800
C193	C	0.992231	0.114846	0.303338
C194	C	1.242231	0.364846	0.553338
C195	C	1.492231	0.614846	0.803338
C196	C	1.742231	0.864846	1.053338
C197	C	0.992270	0.114804	0.696579
C198	C	1.242270	0.364804	0.946579
C199	C	1.492270	0.614804	1.196579
C200	C	1.742270	0.864804	1.446579
H201	H	0.449644	0.040175	-0.140517
H202	H	0.699644	0.290175	0.109483
H203	H	0.949644	0.540175	0.359483
H204	H	1.199644	0.790175	0.609483
H205	H	1.065105	-0.447299	-0.140373
H206	H	1.315105	-0.197299	0.109627
H207	H	1.565105	0.052701	0.359627
H208	H	1.815105	0.302701	0.609627
H209	H	1.140699	-0.352153	-0.000127
H210	H	1.390699	-0.102153	0.249873
H211	H	1.640699	0.147847	0.499873
H212	H	1.890699	0.397847	0.749873
Br213	Br	0.848544	0.258584	0.423936
Br214	Br	1.098544	0.508584	0.673936
Br215	Br	1.348544	0.758584	0.923936
Br216	Br	1.598544	1.008584	1.173936
H217	H	1.065064	-0.447226	0.140247
H218	H	1.315064	-0.197226	0.390247
H219	H	1.565064	0.052774	0.640247
H220	H	1.815064	0.302774	0.890247
H221	H	1.022195	0.254943	0.558074
H222	H	1.272195	0.504943	0.808074
H223	H	1.522195	0.754943	1.058074
H224	H	1.772195	1.004943	1.308074
H225	H	1.102499	0.004751	0.557722
H226	H	1.352499	0.254751	0.807722
H227	H	1.602499	0.504751	1.057722
H228	H	1.852499	0.754751	1.307722
H229	H	0.563787	-0.031847	-0.000143
H230	H	0.813787	0.218153	0.249857
H231	H	1.063787	0.468153	0.499857
H232	H	1.313787	0.718153	0.749857
H233	H	0.535018	0.189523	-0.140361
H234	H	0.785018	0.439523	0.109639
H235	H	1.035018	0.689523	0.359639
H236	H	1.285018	0.939523	0.609639
H237	H	0.962269	-0.025230	0.441830
H238	H	1.212269	0.224770	0.691830
H239	H	1.462269	0.474770	0.941830
H240	H	1.712269	0.724770	1.191830
H241	H	0.449446	0.040196	0.140252
H242	H	0.699446	0.290196	0.390252
H243	H	0.949446	0.540196	0.640252
H244	H	1.199446	0.790196	0.890252
H245	H	0.534943	0.189547	0.140260
H246	H	0.784943	0.439547	0.390260
H247	H	1.034943	0.689547	0.640260
H248	H	1.284943	0.939547	0.890260
Br249	Br	0.809401	0.075629	0.576183
Br250	Br	1.059401	0.325629	0.826183
Br251	Br	1.309401	0.575629	1.076183
Br252	Br	1.559401	0.825629	1.326183
Br253	Br	0.897242	-0.303693	0.183128
Br254	Br	1.147242	-0.053693	0.433128
Br255	Br	1.397242	0.196307	0.683128
Br256	Br	1.647242	0.446307	0.933128
Br257	Br	0.798328	-0.428309	-0.000143
Br258	Br	1.048328	-0.178309	0.249857
Br259	Br	1.298328	0.071691	0.499857
Br260	Br	1.548328	0.321691	0.749857
Br261	Br	0.897267	-0.304033	-0.183412
Br262	Br	1.147267	-0.054033	0.066588
Br263	Br	1.397267	0.195967	0.316588
Br264	Br	1.647267	0.445967	0.566588
H265	H	1.132366	0.144999	0.441983
H266	H	1.382366	0.394999	0.691983
H267	H	1.632366	0.644999	0.941983
H268	H	1.882366	0.894999	1.191983
H269	H	0.420527	0.261416	-0.000104
H270	H	0.670527	0.511416	0.249896
H271	H	0.920527	0.761416	0.499896
H272	H	1.170527	1.011416	0.749896
