data_functionalizedCrystal
_audit_creation_method	'MofGen! by Chris Wilmer'
_symmetry_space_group_name_H-M	'P1'
_symmetry_Int_Tables_number	1
_symmetry_cell_setting	triclinic
loop_
_symmetry_equiv_pos_as_xyz
  x,y,z
_cell_length_a	16.974813
_cell_length_b	10.654550
_cell_length_c	9.730223
_cell_angle_alpha	90.003749
_cell_angle_beta	86.344112
_cell_angle_gamma	96.061272
loop_
_atom_site_label
_atom_site_type_symbol
_atom_site_fract_x
_atom_site_fract_y
_atom_site_fract_z
O1	O	0.111052	-1.666105	-0.126752
O2	O	0.611052	-1.166105	0.373248
O3	O	0.121633	-1.300462	-0.127906
O4	O	0.621633	-0.800462	0.372094
O5	O	0.001295	-1.493478	-0.114527
O6	O	0.501295	-0.993478	0.385473
O7	O	0.231389	-1.473090	-0.140131
O8	O	0.731389	-0.973090	0.359869
O9	O	0.001298	-1.493475	0.114052
O10	O	0.501298	-0.993475	0.614052
O11	O	0.121636	-1.300460	0.100673
O12	O	0.621636	-0.800460	0.600673
O13	O	0.111055	-1.666103	0.101828
O14	O	0.611055	-1.166103	0.601828
Zn15	Zn	0.116346	-1.483281	0.137543
Zn16	Zn	0.616346	-0.983281	0.637543
Zn17	Zn	0.116342	-1.483284	-0.163621
Zn18	Zn	0.616342	-0.983284	0.336379
O19	O	0.231392	-1.473088	0.088449
O20	O	0.731392	-0.973088	0.588449
C21	C	0.120857	-1.253675	-0.013527
C22	C	0.620857	-0.753675	0.486473
C23	C	0.118533	-1.114268	-0.013260
C24	C	0.618533	-0.614268	0.486740
C25	C	-0.028166	-1.492701	0.003038
C26	C	0.471834	-0.992701	0.503038
C27	C	-0.115955	-1.490376	0.012798
C28	C	0.384045	-0.990376	0.512798
C29	C	0.111830	-1.712890	-0.012554
C30	C	0.611830	-1.212890	0.487446
C31	C	0.114155	-1.852297	-0.012830
C32	C	0.614155	-1.352297	0.487170
C33	C	-0.157196	-1.489287	-0.107214
C34	C	0.342804	-0.989287	0.392786
C35	C	-0.239683	-1.487094	-0.098039
C36	C	0.260317	-0.987094	0.401961
C37	C	-0.280928	-1.485999	0.031150
C38	C	0.219072	-0.985999	0.531150
C39	C	-0.239681	-1.487083	0.151171
C40	C	0.260319	-0.987083	0.651171
C41	C	-0.157195	-1.489267	0.141995
C42	C	0.342805	-0.989267	0.641995
C43	C	-0.527624	-1.479458	0.071956
C44	C	-0.027624	-0.979458	0.571956
C45	C	-0.610116	-1.477278	0.081124
C46	C	-0.110116	-0.977278	0.581124
C47	C	-0.610112	-1.477287	-0.168088
C48	C	-0.110112	-0.977287	0.331912
C49	C	-0.527625	-1.479478	-0.177253
C50	C	-0.027625	-0.979478	0.322747
C51	C	-0.486385	-1.480556	-0.057232
C52	C	0.013615	-0.980556	0.442768
N53	N	-0.365243	-1.483761	0.040532
N54	N	0.134757	-0.983761	0.540532
N55	N	-0.402071	-1.482785	-0.066615
N56	N	0.097929	-0.982785	0.433385
C57	C	0.260854	-1.473864	-0.029119
C58	C	0.760854	-0.973864	0.470881
C59	C	0.348643	-1.476190	-0.038889
C60	C	0.848643	-0.976190	0.461111
N61	N	0.116348	-1.483288	0.343079
N62	N	0.616348	-0.983288	0.843079
C63	C	0.189386	-1.033679	-0.021164
C64	C	0.689386	-0.533679	0.478836
C65	C	0.187197	-0.902693	-0.020944
C66	C	0.687197	-0.402693	0.479056
C67	C	0.043296	-0.932896	-0.004922
C68	C	0.543296	-0.432896	0.495078
C69	C	0.045486	-1.063880	-0.005132
C70	C	0.545486	-0.563880	0.494868
C71	C	0.272466	-1.016241	-0.030421
C72	C	0.772466	-0.516241	0.469579
C73	C	0.270277	-0.885254	-0.030201
C74	C	0.770277	-0.385254	0.469799
N75	N	0.116333	-1.483287	-0.369156
N76	N	0.616333	-0.983287	0.130844
C77	C	0.063081	-1.568777	0.420927
C78	C	0.563081	-1.068777	0.920927
C79	C	0.063071	-1.568774	0.564811
C80	C	0.563071	-1.068774	1.064811
C81	C	0.169603	-1.397789	0.552985
C82	C	0.669603	-0.897789	1.052985
C83	C	0.169608	-1.397787	0.409104
C84	C	0.669608	-0.897787	0.909104
C85	C	0.001578	-1.667498	0.427755
C86	C	0.501578	-1.167498	0.927755
C87	C	0.001568	-1.667495	0.571639
C88	C	0.501568	-1.167495	1.071639
H89	H	-0.123621	-1.490186	-0.212414
H90	H	0.376379	-0.990186	0.287586
H91	H	0.020835	-1.758382	0.380980
H92	H	0.520835	-1.258382	0.880980
Cl93	Cl	0.236555	-1.290307	0.635997
Cl94	Cl	0.736555	-0.790307	1.135997
H95	H	-0.273269	-1.486184	0.256360
H96	H	0.226731	-0.986184	0.756360
H97	H	-0.055863	-1.637876	0.622647
H98	H	0.444137	-1.137876	1.122647
H99	H	-0.059196	-1.647001	0.395465
H100	H	0.440804	-1.147001	0.895465
Cl101	Cl	0.022477	-1.816173	0.629605
Cl102	Cl	0.522477	-1.316173	1.129605
H103	H	-0.494049	-1.480372	-0.282452
H104	H	0.005951	-0.980372	0.217548
Cl105	Cl	-0.661961	-1.475929	-0.318962
Cl106	Cl	-0.161961	-0.975929	0.181038
Cl107	Cl	-0.291525	-1.485729	-0.248919
Cl108	Cl	0.208475	-0.985729	0.251081
H109	H	0.295386	-0.839191	0.065689
H110	H	0.795386	-0.339191	0.565689
H111	H	-0.643695	-1.476379	0.186330
H112	H	-0.143695	-0.976379	0.686330
Cl113	Cl	0.318601	-0.820062	-0.183277
Cl114	Cl	0.818601	-0.320062	0.316723
H115	H	0.212976	-1.328165	0.345722
H116	H	0.712976	-0.828165	0.845722
H117	H	-0.494058	-1.480361	0.169686
H118	H	0.005942	-0.980361	0.669686
H119	H	-0.123617	-1.490136	0.239722
H120	H	0.376383	-0.990136	0.739722
H121	H	-0.012209	-1.129492	0.001324
H122	H	0.487791	-0.629492	0.501324
H123	H	-0.016176	-0.891854	0.001675
H124	H	0.483824	-0.391854	0.501675
Cl125	Cl	0.322636	-1.060753	0.111689
Cl126	Cl	0.822636	-0.560753	0.611689
H127	H	0.298918	-1.051485	-0.132052
H128	H	0.798918	-0.551485	0.367948
