data_functionalizedCrystal
_audit_creation_method	'MofGen! by Chris Wilmer'
_symmetry_space_group_name_H-M	'P1'
_symmetry_Int_Tables_number	1
_symmetry_cell_setting	triclinic
loop_
_symmetry_equiv_pos_as_xyz
  x,y,z
_cell_length_a	10.723024
_cell_length_b	17.038272
_cell_length_c	9.798715
_cell_angle_alpha	89.996584
_cell_angle_beta	89.996609
_cell_angle_gamma	87.789713
loop_
_atom_site_label
_atom_site_type_symbol
_atom_site_fract_x
_atom_site_fract_y
_atom_site_fract_z
O1	O	1.667337	0.109720	-0.113484
O2	O	2.167337	0.609720	0.386516
O3	O	1.305156	0.120222	-0.113489
O4	O	1.805156	0.620222	0.386511
O5	O	1.484094	0.001144	-0.113475
O6	O	1.984094	0.501144	0.386525
O7	O	1.488399	0.228799	-0.113497
O8	O	1.988399	0.728799	0.386503
O9	O	1.484079	0.001144	0.113507
O10	O	1.984079	0.501144	0.613507
O11	O	1.305141	0.120222	0.113494
O12	O	1.805141	0.620222	0.613494
O13	O	1.667322	0.109720	0.113498
O14	O	2.167322	0.609720	0.613498
Zn15	Zn	1.486230	0.114971	0.149534
Zn16	Zn	1.986230	0.614971	0.649534
Zn17	Zn	1.486248	0.114971	-0.149525
Zn18	Zn	1.986248	0.614971	0.350475
O19	O	1.488384	0.228798	0.113485
O20	O	1.988384	0.728798	0.613485
C21	C	1.258578	0.119458	0.000002
C22	C	1.758578	0.619458	0.500002
C23	C	1.119813	0.117171	0.000000
C24	C	1.619813	0.617171	0.500000
C25	C	1.050993	0.183801	-0.000007
C26	C	1.550993	0.683801	0.499993
C27	C	0.907571	0.181440	-0.000008
C28	C	1.407571	0.681440	0.499992
C29	C	1.480171	-0.028006	0.000015
C30	C	1.980171	0.471994	0.500015
C31	C	1.468489	-0.114864	0.000015
C32	C	1.968489	0.385136	0.500015
C33	C	1.575744	-0.164385	0.000018
C34	C	2.075744	0.335615	0.500018
C35	C	1.564760	-0.245996	0.000005
C36	C	2.064760	0.254004	0.500005
C37	C	1.446520	-0.278084	-0.000002
C38	C	1.946520	0.221916	0.499998
C39	C	1.339256	-0.228557	-0.000009
C40	C	1.839256	0.271443	0.499991
C41	C	1.350241	-0.146947	-0.000005
C42	C	1.850241	0.353053	0.499995
C43	C	1.407711	-0.524057	-0.000021
C44	C	1.907711	-0.024057	0.499979
C45	C	1.396734	-0.605673	-0.000020
C46	C	1.896734	-0.105673	0.499980
C47	C	1.622239	-0.623107	-0.000009
C48	C	2.122239	-0.123107	0.499991
C49	C	1.633214	-0.541495	0.000002
C50	C	2.133214	-0.041495	0.500002
C51	C	1.525950	-0.491974	-0.000012
C52	C	2.025950	0.008026	0.499988
C53	C	1.435289	-0.361504	-0.000011
C54	C	1.935289	0.138496	0.499989
C55	C	1.537182	-0.408556	-0.000013
C56	C	2.037182	0.091444	0.499987
C57	C	1.713900	0.110484	0.000005
C58	C	2.213900	0.610484	0.500005
C59	C	1.852666	0.112771	-0.000003
C60	C	2.352666	0.612771	0.499997
C61	C	1.492307	0.257948	-0.000009
C62	C	1.992307	0.757948	0.499991
C63	C	1.503989	0.344806	-0.000017
C64	C	2.003989	0.844806	0.499983
N65	N	1.486226	0.114970	0.353634
N66	N	1.986226	0.614970	0.853634
N67	N	1.486261	0.114966	-0.353624
N68	N	1.986261	0.614966	0.146376
C69	C	1.561337	0.064752	0.421416
C70	C	2.061337	0.564752	0.921416
C71	C	1.561356	0.064749	0.578579
C72	C	2.061356	0.564749	1.078579
H73	H	1.672028	-0.138265	0.000031
H74	H	2.172028	0.361735	0.500031
H75	H	0.911814	0.055727	-0.000005
H76	H	1.411814	0.555727	0.499995
O77	O	1.113580	0.261685	0.000000
O78	O	1.613580	0.761685	0.500000
H79	H	1.085117	0.295435	-0.092510
H80	H	1.585117	0.795435	0.407490
O81	O	1.057231	0.039286	0.000016
O82	O	1.557231	0.539286	0.500016
H83	H	0.998178	0.034944	-0.092501
H84	H	1.498178	0.534944	0.407499
O85	O	1.680441	-0.299411	0.000030
O86	O	2.180441	0.200589	0.500030
H87	H	1.764506	-0.263388	0.000060
H88	H	2.264506	0.236612	0.500060
O89	O	1.401078	0.171923	0.569178
O90	O	1.901078	0.671923	1.069178
H91	H	1.346080	0.208711	0.642756
H92	H	1.846080	0.708711	1.142756
O93	O	1.646463	0.007785	0.344162
O94	O	2.146463	0.507785	0.844162
H95	H	1.710738	0.040969	0.279030
H96	H	2.210738	0.540969	0.779030
O97	O	0.829216	0.256999	-0.000008
O98	O	1.329216	0.756999	0.499992
H99	H	0.850657	0.291566	-0.092528
H100	H	1.350657	0.791566	0.407472
O101	O	1.646542	0.007793	0.655774
O102	O	2.146542	0.507793	1.155774
H103	H	1.633183	0.016725	0.767101
H104	H	2.133183	0.516725	1.267101
H105	H	1.729498	-0.515375	0.000007
H106	H	2.229498	-0.015375	0.500007
H107	H	1.709567	-0.663435	-0.000000
H108	H	2.209567	-0.163435	0.500000
H109	H	1.300443	-0.631796	-0.000003
H110	H	1.800443	-0.131796	0.499997
O111	O	1.292026	-0.470650	-0.000001
O112	O	1.792026	0.029350	0.499999
H113	H	1.207964	-0.506676	0.000018
H114	H	1.707964	-0.006676	0.500018
H115	H	1.421930	0.157959	0.411954
H116	H	1.921930	0.657959	0.911954
H117	H	1.262902	-0.106627	-0.000008
H118	H	1.762902	0.393373	0.499992
O119	O	1.211720	-0.263160	-0.000001
O120	O	1.711720	0.236840	0.499999
H121	H	1.222098	-0.328228	0.000017
H122	H	1.722098	0.171772	0.500017
O123	O	1.664713	-0.373954	-0.000012
O124	O	2.164713	0.126046	0.499988
H125	H	1.675101	-0.337197	0.092508
H126	H	2.175101	0.162803	0.592508
H127	H	1.339017	-0.387640	-0.000013
H128	H	1.839017	0.112360	0.499987
