data_functionalizedCrystal
_audit_creation_method	'MofGen! by Chris Wilmer'
_symmetry_space_group_name_H-M	'P1'
_symmetry_Int_Tables_number	1
_symmetry_cell_setting	triclinic
loop_
_symmetry_equiv_pos_as_xyz
  x,y,z
_cell_length_a	19.077105
_cell_length_b	16.625546
_cell_length_c	19.076919
_cell_angle_alpha	87.730083
_cell_angle_beta	89.923776
_cell_angle_gamma	87.718759
loop_
_atom_site_label
_atom_site_type_symbol
_atom_site_fract_x
_atom_site_fract_y
_atom_site_fract_z
Zn1	Zn	1.058283	-0.390077	0.440407
Zn2	Zn	1.062927	-0.519720	0.322896
Zn3	Zn	0.945500	-0.379275	0.318200
Zn4	Zn	0.940748	-0.519234	0.435649
O5	O	1.001864	-0.452076	0.379288
O6	O	1.157231	-0.411998	0.428775
O7	O	1.051282	-0.496773	0.223942
O8	O	0.960506	-0.267879	0.334437
O9	O	1.160642	-0.507246	0.342441
O10	O	1.043367	-0.275815	0.424222
O11	O	0.965009	-0.393589	0.220492
O12	O	0.846538	-0.393117	0.329824
O13	O	0.952407	-0.506418	0.534611
O14	O	0.843047	-0.495944	0.416113
O15	O	1.038759	-0.411527	0.538107
O16	O	1.046674	-0.632485	0.337827
O17	O	0.956910	-0.632127	0.420666
C18	C	0.819296	-0.443306	0.371943
C19	C	0.741192	-0.439575	0.368817
C20	C	0.702702	-0.491432	0.412204
C21	C	0.629314	-0.487916	0.409270
C22	C	0.594418	-0.432544	0.362946
C23	C	0.632913	-0.380681	0.319557
C24	C	0.706299	-0.384194	0.322495
C25	C	0.375130	-0.416284	0.349354
C26	C	0.301739	-0.412776	0.346418
C27	C	0.298145	-0.520010	0.436133
C28	C	0.371533	-0.523522	0.439063
C29	C	0.410021	-0.471655	0.395677
N30	N	0.519405	-0.428950	0.359945
N31	N	0.485034	-0.475247	0.398682
C32	C	1.001799	-0.661563	0.379256
C33	C	1.001834	-0.751186	0.379268
C34	C	1.001954	-1.079371	0.379346
C35	C	1.001918	-0.988060	0.379327
C36	C	1.001894	-0.915281	0.379307
C37	C	1.001859	-0.823965	0.379288
C38	C	1.185146	-0.460881	0.386662
C39	C	1.263249	-0.464634	0.389805
C40	C	0.994535	-0.460123	0.562568
C41	C	0.991412	-0.463552	0.640671
C42	C	1.001948	-0.241774	0.379336
C43	C	1.001984	-0.152155	0.379357
C44	C	1.009205	-0.444005	0.196723
C45	C	1.012465	-0.440356	0.118626
C46	C	1.034901	-0.415760	0.679185
C47	C	1.031958	-0.418978	0.752571
C48	C	0.985529	-0.469993	0.787441
C49	C	0.942035	-0.517786	0.748922
C50	C	0.944975	-0.514563	0.675537
C51	C	0.971911	-0.484926	1.006722
C52	C	0.968976	-0.488147	1.080112
C53	C	1.058898	-0.389338	1.083755
C54	C	1.061837	-0.386123	1.010369
C55	C	1.018341	-0.433913	0.971856
N56	N	0.982521	-0.473286	0.862453
N57	N	1.021346	-0.430616	0.896846
H58	H	0.597979	-0.530145	0.444600
H59	H	0.936503	-0.523853	0.975374
H60	H	0.909554	-0.553472	0.644180
O61	O	0.897031	-0.567433	0.782829
C62	C	0.935314	-0.623284	0.826890
H63	H	0.991541	-0.629954	0.807003
H64	H	0.909840	-0.684149	0.826683
H65	H	0.935519	-0.600914	0.882610
O66	O	0.736485	-0.545244	0.457267
C67	C	0.686773	-0.590273	0.494920
H68	H	0.634372	-0.554855	0.495309
H69	H	0.705770	-0.602416	0.551120
H70	H	0.679977	-0.649956	0.468780
H71	H	1.067373	-0.380063	0.783926
H72	H	1.072711	-0.374221	0.650799
H73	H	1.094310	-0.350429	1.115120
H74	H	0.406459	-0.374056	0.314021
O75	O	0.405317	-0.577333	0.484125
C76	C	0.355608	-0.622366	0.521779
H77	H	0.303206	-0.586950	0.522174
H78	H	0.374609	-0.634515	0.577976
H79	H	0.348811	-0.682047	0.495634
O80	O	0.260649	-0.570302	0.478253
C81	C	0.188394	-0.555345	0.465717
H82	H	0.179299	-0.491595	0.442399
H83	H	0.158410	-0.561882	0.517227
H84	H	0.169046	-0.600463	0.427390
H85	H	1.099647	-0.344584	0.981983
H86	H	0.273329	-0.367677	0.308699
O87	O	0.923907	-0.537811	1.113914
C88	C	0.939951	-0.618126	1.096599
H89	H	0.969089	-0.618764	1.044401
H90	H	0.889319	-0.651728	1.092046
H91	H	0.974416	-0.648832	1.139347
O92	O	0.598987	-0.327001	0.274484
C93	C	0.558319	-0.368793	0.227338
H94	H	0.580594	-0.433152	0.223777
H95	H	0.559641	-0.337118	0.173275
H96	H	0.501837	-0.369904	0.246835
O97	O	0.743585	-0.333791	0.280274
C98	C	0.697050	-0.284153	0.238767
H99	H	0.644827	-0.314560	0.234189
H100	H	0.720458	-0.274041	0.184265
H101	H	0.688237	-0.223721	0.264281
