data_functionalizedCrystal
_audit_creation_method	'MofGen! by Chris Wilmer'
_symmetry_space_group_name_H-M	'P1'
_symmetry_Int_Tables_number	1
_symmetry_cell_setting	triclinic
loop_
_symmetry_equiv_pos_as_xyz
  x,y,z
_cell_length_a	13.262522
_cell_length_b	11.804365
_cell_length_c	10.654541
_cell_angle_alpha	101.947126
_cell_angle_beta	95.543056
_cell_angle_gamma	117.340743
loop_
_atom_site_label
_atom_site_type_symbol
_atom_site_fract_x
_atom_site_fract_y
_atom_site_fract_z
O1	O	1.519383	0.591089	-0.018445
O2	O	1.191383	0.484866	-0.063923
O3	O	1.362924	0.540413	0.142213
O4	O	1.347842	0.535543	-0.224581
O5	O	1.317763	0.327733	0.087996
O6	O	1.146222	0.272187	-0.118139
O7	O	1.474222	0.378410	-0.072662
Cu8	Cu	1.306099	0.305879	-0.100351
Cu9	Cu	1.359506	0.557397	-0.036234
O10	O	1.302681	0.322863	-0.278797
C11	C	1.126804	0.364925	-0.093468
C12	C	1.001660	0.324397	-0.100716
C13	C	0.918256	0.189419	-0.133678
C14	C	0.800676	0.151331	-0.140477
C15	C	0.766488	0.248217	-0.114326
C16	C	0.849891	0.383198	-0.081372
C17	C	0.967484	0.421290	-0.074562
C18	C	0.815716	0.480089	-0.055210
C19	C	0.899119	0.615070	-0.022256
C20	C	1.016699	0.653155	-0.015448
C21	C	1.050888	0.556269	-0.041600
C22	C	0.698124	0.441997	-0.062020
C23	C	0.747351	0.673868	-0.002904
C24	C	0.864931	0.711956	0.003896
N25	N	1.268543	0.128978	-0.145446
C26	C	1.487256	-0.174150	0.117187
C27	C	1.515666	-0.040289	0.151307
C28	C	1.453887	0.002034	0.077122
C29	C	1.363695	-0.089517	-0.031190
C30	C	1.335288	-0.223389	-0.065319
C31	C	1.301919	-0.047204	-0.105384
C32	C	1.211727	-0.138756	-0.213695
C33	C	1.183324	-0.272614	-0.247818
C34	C	1.245103	-0.314938	-0.173633
C35	C	1.330326	0.086668	-0.071255
C36	C	1.178358	0.037429	-0.253760
C37	C	1.149948	-0.096432	-0.287880
C38	C	1.538802	0.498354	-0.043115
C39	C	1.663948	0.538890	-0.035866
C40	C	1.339237	0.433715	0.161806
C41	C	1.335925	0.432645	0.300961
N42	N	1.397071	0.734301	0.008872
C43	C	1.326369	0.429564	-0.298390
C44	C	1.329682	0.430643	-0.437542
C45	C	1.541047	0.499058	0.346858
C46	C	1.642047	0.531757	0.435179
C47	C	1.638929	0.530751	0.565925
C48	C	1.534800	0.497046	0.608352
C49	C	1.433801	0.464347	0.520032
C50	C	1.436929	0.465353	0.389284
C51	C	1.228683	0.397944	0.474137
C52	C	1.231796	0.398940	0.343388
C53	C	1.124554	0.364239	0.516565
C54	C	1.023550	0.331530	0.428241
C55	C	1.026672	0.332536	0.297488
C56	C	1.130797	0.366241	0.255068
H57	H	0.630226	0.332094	-0.088861
O58	O	0.954902	0.857539	0.039466
H59	H	1.000286	0.877409	-0.042276
H60	H	1.477022	0.111031	0.104907
H61	H	1.146628	0.587273	-0.036069
O62	O	0.917730	0.297266	0.202236
H63	H	0.937387	0.303631	0.104190
H64	H	0.946106	0.110549	-0.154956
O65	O	1.754355	0.568107	0.389422
H66	H	1.739560	0.563304	0.283665
O67	O	0.710508	0.778392	0.025337
H68	H	0.735512	0.838289	-0.045428
H69	H	1.589100	0.034247	0.239491
H70	H	1.543593	0.499864	0.240395
O71	O	1.052686	-0.195170	-0.404717
H72	H	0.984554	-0.274058	-0.371666
O73	O	1.106663	0.798739	0.020103
H74	H	1.063139	0.859713	0.037133
H75	H	1.122024	0.363430	0.623029
O76	O	1.427579	0.185407	0.045574
H77	H	1.510123	0.188234	0.029826
O78	O	1.553886	-0.219794	0.197192
H79	H	1.518976	-0.328260	0.155265
O80	O	1.134174	0.367327	0.114050
H81	H	1.072316	0.266570	0.047576
H82	H	1.128054	0.071887	-0.314171
H83	H	0.938778	0.304099	0.462800
O84	O	1.214465	-0.459320	-0.210449
H85	H	1.272581	-0.473361	-0.140668
O86	O	0.639670	0.207146	-0.121674
H87	H	0.587416	0.097010	-0.148997
H88	H	1.721174	0.557387	0.637840
O89	O	0.710719	0.005756	-0.176031
H90	H	0.754242	-0.055218	-0.193087
O91	O	1.086097	-0.371349	-0.364688
H92	H	1.047918	-0.319432	-0.410552
O93	O	1.531444	0.495977	0.749377
H94	H	1.442075	0.467054	0.764043
