data_functionalizedCrystal
_audit_creation_method	'MofGen! by Chris Wilmer'
_symmetry_space_group_name_H-M	'P1'
_symmetry_Int_Tables_number	1
_symmetry_cell_setting	triclinic
loop_
_symmetry_equiv_pos_as_xyz
  x,y,z
_cell_length_a	10.967819
_cell_length_b	11.026607
_cell_length_c	9.130313
_cell_angle_alpha	89.997484
_cell_angle_beta	77.867167
_cell_angle_gamma	96.381100
loop_
_atom_site_label
_atom_site_type_symbol
_atom_site_fract_x
_atom_site_fract_y
_atom_site_fract_z
O1	O	1.694026	0.170553	-0.549378
O2	O	1.334390	0.186868	-0.458606
O3	O	1.484402	0.001809	-0.496464
O4	O	1.544014	0.355612	-0.511520
O5	O	1.484387	0.001803	-0.252861
O6	O	1.334375	0.186863	-0.215003
O7	O	1.694012	0.170548	-0.305776
Cu8	Cu	1.514192	0.178705	-0.238147
Cu9	Cu	1.514209	0.178711	-0.526235
O10	O	1.544000	0.355607	-0.267918
C11	C	1.287626	0.185677	-0.325003
C12	C	1.148301	0.182120	-0.289838
C13	C	0.942203	0.176874	-0.364037
C14	C	1.086201	0.180541	-0.400373
C15	C	1.473397	-0.043497	-0.371888
C16	C	1.440613	-0.178484	-0.363619
C17	C	1.531135	-0.251534	-0.386469
C18	C	1.497253	-0.391051	-0.377922
C19	C	1.740776	0.171739	-0.439381
C20	C	1.880100	0.175295	-0.474556
C21	C	1.555005	0.400912	-0.392496
C22	C	1.587789	0.535900	-0.400775
N23	N	1.514189	0.178699	-0.035523
N24	N	1.514220	0.178707	-0.728860
C25	C	1.580651	0.096790	0.024356
C26	C	1.580663	0.096790	0.177690
C27	C	1.447750	0.260620	0.211252
C28	C	1.447732	0.260613	0.057922
H29	H	1.139634	0.181912	-0.521901
Br30	Br	1.702119	-0.183634	-0.429640
H31	H	1.634763	0.030089	-0.051724
H32	H	1.394664	-0.431793	-0.352038
Br33	Br	1.269629	-0.246385	-0.320484
Br34	Br	1.059259	0.179862	-0.087279
H35	H	1.690378	-0.423360	-0.426779
H36	H	0.933538	0.176666	-0.596076
H37	H	1.634780	0.030091	0.226438
Br38	Br	0.853153	0.174619	-0.161488
H39	H	1.393644	0.327314	0.287350
Br40	Br	1.357516	0.371774	-0.023350
