data_functionalizedCrystal
_audit_creation_method	'MofGen! by Chris Wilmer'
_symmetry_space_group_name_H-M	'P1'
_symmetry_Int_Tables_number	1
_symmetry_cell_setting	triclinic
loop_
_symmetry_equiv_pos_as_xyz
  x,y,z
_cell_length_a	8.559649
_cell_length_b	15.995350
_cell_length_c	7.681481
_cell_angle_alpha	84.260013
_cell_angle_beta	94.913240
_cell_angle_gamma	76.635520
loop_
_atom_site_label
_atom_site_type_symbol
_atom_site_fract_x
_atom_site_fract_y
_atom_site_fract_z
O1	O	2.105023	-0.019508	-0.146402
O2	O	1.639818	0.023734	-0.146408
O3	O	1.885137	-0.120592	-0.146403
O4	O	1.859704	0.124818	-0.146407
O5	O	1.915332	-0.138392	0.146455
O6	O	1.670013	0.005934	0.146450
O7	O	2.135218	-0.037308	0.146457
Zn8	Zn	1.907409	-0.018513	0.192951
Zn9	Zn	1.867627	0.004939	-0.192902
O10	O	1.889898	0.107018	0.146452
C11	C	1.595386	0.018111	0.000020
C12	C	1.418005	0.027866	0.000017
C13	C	1.899183	-0.160619	0.000023
C14	C	1.896030	-0.253366	0.000013
C15	C	1.884710	-0.590386	0.000019
C16	C	1.709930	-0.531678	-0.000641
C17	C	1.713151	-0.435230	0.000019
C18	C	1.890325	-0.423187	0.000015
C19	C	1.993741	-0.479970	0.167249
C20	C	1.989366	-0.576332	0.167389
C21	C	1.958639	-0.556680	-0.165646
C22	C	1.958369	-0.459598	-0.167856
C23	C	1.893508	-0.328694	0.000018
C24	C	1.881533	-0.684880	0.000027
C25	C	2.179650	-0.031685	0.000025
C26	C	2.357029	-0.041439	0.000016
C27	C	1.875853	0.147046	0.000022
C28	C	1.879005	0.239793	0.000020
N29	N	1.934572	-0.034520	0.456286
N30	N	1.840477	0.020939	-0.456237
H31	H	1.633053	-0.395166	-0.119861
H32	H	1.334498	0.094668	0.000007
H33	H	2.030642	-0.091125	0.531494
H34	H	1.657339	-0.410279	0.120102
H35	H	1.627735	-0.538430	-0.120568
O36	O	1.456864	-0.121072	0.000095
C37	C	1.617681	-0.113410	0.000051
H38	H	1.629632	-0.051401	0.055495
H39	H	1.651392	-0.111113	-0.140449
C40	C	1.716987	-0.268068	0.046801
C41	C	1.731668	-0.191912	0.114913
H42	H	1.787302	-0.316493	0.117646
H43	H	1.608642	-0.273231	0.046824
H44	H	1.745077	-0.266142	-0.070280
H45	H	1.703559	-0.193834	0.231983
H46	H	1.840012	-0.186751	0.114912
O47	O	1.868232	-0.413342	-0.315637
C48	C	1.930443	-0.446576	-0.465501
H49	H	2.001500	-0.516651	-0.427970
H50	H	2.013631	-0.406268	-0.518795
C51	C	1.702763	-0.356604	-0.654011
C52	C	1.790025	-0.442673	-0.607917
H53	H	1.616149	-0.354193	-0.741864
H54	H	1.660852	-0.334210	-0.553046
H55	H	1.772104	-0.323023	-0.698411
H56	H	1.720690	-0.476250	-0.563497
H57	H	1.831921	-0.465072	-0.708878
H58	H	1.652706	-0.554050	0.118616
O59	O	1.929579	-0.602480	0.316339
C60	C	1.787929	-0.629845	0.270675
H61	H	1.788674	-0.649269	0.131891
H62	H	1.677634	-0.574651	0.275618
C63	C	1.780271	-0.684201	0.572049
C64	C	1.781192	-0.708065	0.401598
H65	H	1.776108	-0.732448	0.652811
H66	H	1.875699	-0.665761	0.602816
H67	H	1.688357	-0.638205	0.576143
H68	H	1.873114	-0.754052	0.397501
H69	H	1.685778	-0.726514	0.370833
O70	O	2.111287	-0.450425	-0.179608
C71	C	2.160299	-0.410650	-0.035668
H72	H	2.086361	-0.421690	0.077281
H73	H	2.140216	-0.338172	-0.077147
C74	C	2.431656	-0.436637	-0.113707
C75	C	2.340853	-0.450203	0.025025
H76	H	2.543031	-0.461031	-0.076272
H77	H	2.398635	-0.463432	-0.210687
H78	H	2.414902	-0.376237	-0.148260
H79	H	2.357592	-0.510602	0.059560
H80	H	2.373881	-0.423420	0.122012
O81	O	1.725680	0.088437	0.454255
C82	C	1.572051	0.082350	0.499167
H83	H	1.585873	0.042000	0.633069
H84	H	1.511910	0.050135	0.395454
C85	C	1.449832	0.223280	0.342984
C86	C	1.466806	0.173728	0.507452
H87	H	1.384907	0.279646	0.348088
H88	H	1.553333	0.227381	0.312720
H89	H	1.399719	0.196425	0.256574
H90	H	1.516936	0.200578	0.593854
H91	H	1.363311	0.169634	0.537731
H92	H	2.124547	-0.474592	0.173465
O93	O	1.874686	-0.567632	-0.316701
C94	C	1.747802	-0.606011	-0.274928
H95	H	1.715990	-0.592653	-0.137624
H96	H	1.787442	-0.678901	-0.278269
C97	C	1.637695	-0.583923	-0.578899
C98	C	1.598615	-0.567510	-0.410265
H99	H	1.545671	-0.560178	-0.662385
H100	H	1.723183	-0.558069	-0.607045
H101	H	1.670731	-0.644665	-0.581658
H102	H	1.565599	-0.506770	-0.407503
H103	H	1.513118	-0.593353	-0.382122
O104	O	2.112122	-0.604480	-0.166783
C105	C	2.152635	-0.668057	-0.018597
H106	H	2.037474	-0.681503	0.029594
H107	H	2.222701	-0.643901	0.090707
C108	C	2.399249	-0.735457	-0.128667
C109	C	2.257806	-0.751977	-0.069487
H110	H	2.464130	-0.787222	-0.160053
H111	H	2.371959	-0.692622	-0.228500
H112	H	2.457618	-0.715326	-0.037570
H113	H	2.199431	-0.772098	-0.160591
H114	H	2.285089	-0.794817	0.030330
H115	H	2.118419	-0.617289	0.174974
H116	H	1.946720	-0.455304	0.291703
