data_functionalizedCrystal
_audit_creation_method	'MofGen! by Chris Wilmer'
_symmetry_space_group_name_H-M	'P1'
_symmetry_Int_Tables_number	1
_symmetry_cell_setting	triclinic
loop_
_symmetry_equiv_pos_as_xyz
  x,y,z
_cell_length_a	14.519709
_cell_length_b	14.519709
_cell_length_c	10.868271
_cell_angle_alpha	89.993918
_cell_angle_beta	90.001299
_cell_angle_gamma	83.680145
loop_
_atom_site_label
_atom_site_type_symbol
_atom_site_fract_x
_atom_site_fract_y
_atom_site_fract_z
O1	O	1.223867	0.120892	-0.102165
O2	O	0.955390	0.135128	-0.102203
O3	O	1.096747	-0.006228	-0.102172
O4	O	1.082510	0.262248	-0.102196
O5	O	1.096735	-0.006234	0.102473
O6	O	0.955379	0.135123	0.102442
O7	O	1.223856	0.120886	0.102480
Zn8	Zn	1.089615	0.128004	0.134953
Zn9	Zn	1.089631	0.128011	-0.134675
O10	O	1.082499	0.262243	0.102449
C11	C	0.921025	0.134462	0.000115
C12	C	0.818643	0.132474	0.000101
C13	C	0.443748	0.125154	0.000157
C14	C	0.548056	0.127187	0.000141
C15	C	0.631192	0.128814	0.000128
C16	C	0.735507	0.130847	0.000114
C17	C	1.096078	-0.040591	0.000151
C18	C	1.094090	-0.142972	0.000151
C19	C	1.086770	-0.517868	0.000118
C20	C	1.088803	-0.413560	0.000128
C21	C	1.090430	-0.330423	0.000136
C22	C	1.092463	-0.226109	0.000143
C23	C	1.258221	0.121553	0.000160
C24	C	1.360602	0.123541	0.000166
C25	C	1.083168	0.296605	0.000124
C26	C	1.085156	0.398987	0.000115
N27	N	1.089612	0.127998	0.318967
N28	N	1.089642	0.128009	-0.318690
C29	C	1.089626	0.128009	0.569973
C30	C	1.089615	0.128006	0.430295
