data_functionalizedCrystal
_audit_creation_method	'MofGen! by Chris Wilmer'
_symmetry_space_group_name_H-M	'P1'
_symmetry_Int_Tables_number	1
_symmetry_cell_setting	triclinic
loop_
_symmetry_equiv_pos_as_xyz
  x,y,z
_cell_length_a	16.120530
_cell_length_b	18.050588
_cell_length_c	16.120297
_cell_angle_alpha	87.127354
_cell_angle_beta	89.871860
_cell_angle_gamma	87.125117
loop_
_atom_site_label
_atom_site_type_symbol
_atom_site_fract_x
_atom_site_fract_y
_atom_site_fract_z
Zn1	Zn	1.247396	-0.376247	0.534565
Zn2	Zn	1.747396	0.123753	1.034565
Zn3	Zn	1.254332	-0.494471	0.395507
Zn4	Zn	1.754332	0.005529	0.895507
Zn5	Zn	1.115387	-0.363697	0.388483
Zn6	Zn	1.615387	0.136303	0.888483
Zn7	Zn	1.108289	-0.493787	0.527477
Zn8	Zn	1.608289	0.006213	1.027477
O9	O	1.181351	-0.432050	0.461508
O10	O	1.681351	0.067950	0.961508
O11	O	1.364681	-0.397467	0.522025
O12	O	1.864681	0.102533	1.022025
O13	O	1.241775	-0.472158	0.278210
O14	O	1.741775	0.027842	0.778210
O15	O	1.132966	-0.261442	0.407888
O16	O	1.632966	0.238558	0.907888
O17	O	1.369778	-0.484326	0.419860
O18	O	1.869778	0.015674	0.919860
O19	O	1.229952	-0.270661	0.515214
O20	O	1.729952	0.229339	1.015214
O21	O	1.139693	-0.376079	0.273049
O22	O	1.639693	0.123921	0.773049
O23	O	0.998080	-0.375416	0.401015
O24	O	1.498080	0.124584	0.901015
O25	O	1.120868	-0.483161	0.644782
O26	O	1.620868	0.016839	1.144782
O27	O	0.992865	-0.470992	0.503133
O28	O	1.492865	0.029008	1.003133
O29	O	1.223069	-0.396804	0.649990
O30	O	1.723069	0.103196	1.149990
O31	O	1.234892	-0.598300	0.412987
O32	O	1.734892	-0.098300	0.912987
O33	O	1.127594	-0.597798	0.509944
O34	O	1.627594	-0.097798	1.009944
C35	C	0.965300	-0.421768	0.450543
C36	C	1.465300	0.078232	0.950543
C37	C	0.872872	-0.417388	0.445871
C38	C	1.372872	0.082612	0.945871
C39	C	0.703643	-0.409375	0.437350
C40	C	1.203643	0.090625	0.937350
C41	C	0.659896	-0.454783	0.485727
C42	C	1.159896	0.045217	0.985727
C43	C	0.565732	-0.450324	0.480985
C44	C	1.065732	0.049676	0.980985
C45	C	0.797816	-0.413833	0.442090
C46	C	1.297816	0.086167	0.942090
C47	C	1.181247	-0.624996	0.461478
C48	C	1.681247	-0.124996	0.961478
C49	C	1.181277	-0.707544	0.461496
C50	C	1.681277	-0.207544	0.961496
C51	C	1.123016	-0.956128	0.514227
C52	C	1.623016	-0.456128	1.014227
C53	C	1.197806	-0.911136	0.538472
C54	C	1.697806	-0.411136	1.038472
C55	C	1.181447	-1.004675	0.461552
C56	C	1.681447	-0.504675	0.961552
C57	C	1.106575	-0.902582	0.437318
C58	C	1.606575	-0.402582	0.937318
C59	C	1.181360	-0.858685	0.461526
C60	C	1.681360	-0.358685	0.961526
C61	C	1.256276	-0.960774	0.485839
C62	C	1.756276	-0.460774	0.985839
C63	C	1.164996	-0.952220	0.384646
C64	C	1.664996	-0.452220	0.884646
C65	C	1.239840	-0.907252	0.408866
C66	C	1.739840	-0.407252	0.908866
C67	C	1.181497	-1.088776	0.461568
C68	C	1.681497	-0.588776	0.961568
C69	C	1.181319	-0.774586	0.461510
C70	C	1.681319	-0.274586	0.961510
C71	C	1.398246	-0.442373	0.472517
C72	C	1.898246	0.057627	0.972517
C73	C	1.490673	-0.446772	0.477208
C74	C	1.990673	0.053228	0.977208
C75	C	1.170403	-0.441306	0.678402
C76	C	1.670403	0.058694	1.178402
C77	C	1.165737	-0.445250	0.770830
C78	C	1.665737	0.054750	1.270830
C79	C	1.181477	-0.238353	0.461558
C80	C	1.681477	0.261647	0.961558
C81	C	1.181531	-0.155810	0.461579
C82	C	1.681531	0.344190	0.961579
C83	C	1.192305	-0.422779	0.245460
C84	C	1.692305	0.077221	0.745460
C85	C	1.197131	-0.418634	0.153041
C86	C	1.697131	0.081366	0.653041
C87	C	1.157189	-0.452433	0.940054
C88	C	1.657189	0.047567	1.440054
C89	C	1.205677	-0.411453	0.983822
C90	C	1.705677	0.088547	1.483822
C91	C	1.200921	-0.415449	1.077984
C92	C	1.700921	0.084551	1.577984
C93	C	1.161944	-0.448438	0.845883
C94	C	1.661944	0.051562	1.345883
H95	H	0.693164	-0.497006	0.530705
H96	H	1.193164	0.002994	1.030705
H97	H	1.073696	-0.977600	0.558822
H98	H	1.573696	-0.477600	1.058822
N99	N	1.100625	-0.500198	0.981762
N100	N	1.600625	-0.000198	1.481762
N101	N	1.045258	-0.473557	1.027557
N102	N	1.545258	0.026443	1.527557
H103	H	1.005311	-0.507289	1.057025
H104	H	1.505311	-0.007289	1.557025
N105	N	0.661917	-0.356401	0.380936
N106	N	1.161917	0.143599	0.880936
N107	N	0.611977	-0.308122	0.407893
N108	N	1.111977	0.191878	0.907893
H109	H	0.582498	-0.270710	0.368050
H110	H	1.082498	0.229290	0.868050
H111	H	1.043294	-0.877166	0.416833
H112	H	1.543294	-0.377166	0.916833
H113	H	1.250761	-0.373365	0.950574
H114	H	1.750761	0.126635	1.450574
N115	N	1.215218	-0.888332	0.620050
N116	N	1.715218	-0.388332	1.120050
N117	N	1.167971	-0.904685	0.679032
N118	N	1.667971	-0.404685	1.179032
H119	H	1.180264	-0.888583	0.736649
H120	H	1.680264	-0.388583	1.236649
N121	N	1.335687	-0.992539	0.511621
N122	N	1.835687	-0.492539	1.011621
N123	N	1.377431	-1.032299	0.463972
N124	N	1.877431	-0.532299	0.963972
H125	H	1.433514	-1.054734	0.482181
H126	H	1.933514	-0.554734	0.982181
H127	H	1.289270	-0.885922	0.364312
H128	H	1.789270	-0.385922	0.864312
N129	N	1.147544	-0.975045	0.303091
N130	N	1.647544	-0.475045	0.803091
N131	N	1.080275	-0.954727	0.268573
N132	N	1.580275	-0.454727	0.768573
H133	H	1.067941	-0.970847	0.210973
H134	H	1.567941	-0.470847	0.710973
