data_functionalizedCrystal
_audit_creation_method	'MofGen! by Chris Wilmer'
_symmetry_space_group_name_H-M	'P1'
_symmetry_Int_Tables_number	1
_symmetry_cell_setting	triclinic
loop_
_symmetry_equiv_pos_as_xyz
  x,y,z
_cell_length_a	16.120484
_cell_length_b	12.759401
_cell_length_c	12.759386
_cell_angle_alpha	90.044589
_cell_angle_beta	92.833193
_cell_angle_gamma	87.078528
loop_
_atom_site_label
_atom_site_type_symbol
_atom_site_fract_x
_atom_site_fract_y
_atom_site_fract_z
Zn1	Zn	-0.331684	-1.585226	-0.615231
Zn2	Zn	-0.471192	-1.576107	-0.448448
Zn3	Zn	-0.331792	-1.409451	-0.439567
Zn4	Zn	-0.471042	-1.400582	-0.624070
O5	O	-0.401427	-1.492841	-0.531829
O6	O	-0.350207	-1.731036	-0.593125
O7	O	-0.452808	-1.553895	-0.300256
O8	O	-0.215116	-1.440296	-0.455454
O9	O	-0.452703	-1.724336	-0.470590
O10	O	-0.215036	-1.569437	-0.584514
O11	O	-0.350392	-1.431454	-0.293731
O12	O	-0.350247	-1.261255	-0.464024
O13	O	-0.452448	-1.425180	-0.769912
O14	O	-0.452553	-1.254739	-0.599577
O15	O	-0.350062	-1.560837	-0.763418
O16	O	-0.587834	-1.545295	-0.479160
O17	O	-0.587724	-1.416337	-0.608189
C18	C	-0.401396	-1.219876	-0.531796
C19	C	-0.401403	-1.103099	-0.531808
C20	C	-0.348059	-1.051604	-0.461342
C21	C	-0.348074	-0.941879	-0.461352
C22	C	-0.454777	-0.935154	-0.602305
C23	C	-0.454766	-1.044876	-0.602288
C24	C	-0.318239	-0.793730	-0.335630
C25	C	-0.264882	-0.742232	-0.265172
C26	C	-0.183525	-0.783050	-0.244026
C27	C	-0.155508	-0.875365	-0.293353
C28	C	-0.208860	-0.926858	-0.363818
C29	C	-0.290229	-0.886041	-0.384945
C30	C	-0.484593	-1.193028	-0.728011
C31	C	-0.537941	-1.244523	-0.798483
C32	C	-0.619300	-1.203707	-0.819640
C33	C	-0.647314	-1.111388	-0.770332
C34	C	-0.593966	-1.059893	-0.699860
C35	C	-0.512608	-1.100717	-0.678702
C36	C	-0.618028	-1.478893	-0.545620
C37	C	-0.710690	-1.473021	-0.551555
C38	C	-0.880346	-1.462308	-0.562413
C39	C	-0.921669	-1.523563	-0.501263
C40	C	-1.016071	-1.517602	-0.507304
C41	C	-0.785935	-1.468268	-0.556373
C42	C	-0.183981	-1.506873	-0.518007
C43	C	-0.091319	-1.512853	-0.512117
C44	C	-0.401226	-1.493036	-0.805850
C45	C	-0.401140	-1.493119	-0.922621
C46	C	-0.401448	-0.766873	-0.531852
C47	C	-0.401428	-0.883651	-0.531835
C48	C	-0.401568	-1.492712	-0.258870
C49	C	-0.401419	-1.492847	-0.142085
C50	C	-0.348418	-1.428654	-0.083895
C51	C	-0.348276	-1.428792	0.025837
C52	C	-0.454144	-1.557320	0.019182
C53	C	-0.454281	-1.557187	-0.090549
C54	C	-0.249985	-1.396866	0.181800
C55	C	-0.196991	-1.332655	0.239992
C56	C	-0.184816	-1.230772	0.205313
C57	C	-0.225647	-1.193077	0.112443
C58	C	-0.278647	-1.257281	0.054256
C59	C	-0.290806	-1.359181	0.088934
C60	C	-0.552573	-1.589102	-0.246513
C61	C	-0.605578	-1.653302	-0.304703
C62	C	-0.617761	-1.755187	-0.270027
C63	C	-0.576945	-1.792877	-0.177154
C64	C	-0.523940	-1.728677	-0.118964
C65	C	-0.511755	-1.626793	-0.153648
H66	H	-0.186046	-1.002013	-0.403987
H67	H	-0.089256	-0.908588	-0.276136
H68	H	-0.215737	-1.110108	0.084221
H69	H	-0.886147	-1.580480	-0.444372
N70	N	-0.924911	-1.390916	-0.633773
N71	N	-1.002647	-1.386119	-0.638635
H72	H	-1.034131	-1.335697	-0.689031
H73	H	-0.490704	-1.759373	-0.043342
N74	N	-0.129031	-0.730431	-0.172060
N75	N	-0.154051	-0.648009	-0.128035
H76	H	-0.115568	-0.610843	-0.077206
N77	N	-0.294427	-1.362944	-0.136556
N78	N	-0.324211	-1.294274	-0.199455
H79	H	-0.286078	-1.247867	-0.236647
N80	N	-0.262402	-1.500950	0.217215
N81	N	-0.201977	-1.566041	0.228184
H82	H	-0.210748	-1.639552	0.253202
N83	N	-0.508134	-1.623030	0.071843
N84	N	-0.508007	-1.623139	0.169816
H85	H	-0.546141	-1.669546	0.207008
H86	H	-0.311892	-1.226591	-0.021357
H87	H	-0.141666	-1.178491	0.252701
N88	N	-0.155292	-1.371172	0.334852
N89	N	-0.166158	-1.462150	0.365802
H90	H	-0.136712	-1.489348	0.432799
N91	N	-0.589401	-1.896950	-0.141735
N92	N	-0.636727	-1.954260	-0.193697
H93	H	-0.645530	-2.027762	-0.168683
N94	N	-0.671919	-1.820747	-0.329470
N95	N	-0.708370	-1.787085	-0.412381
H96	H	-0.746618	-1.833387	-0.454360
H97	H	-0.638813	-1.622605	-0.380325
N98	N	-0.540111	-1.485030	-0.281942
N99	N	-0.510707	-1.471010	-0.369374
H100	H	-0.501907	-1.397509	-0.394396
N101	N	-0.293544	-1.111080	-0.389363
N102	N	-0.216623	-1.103769	-0.391600
H103	H	-0.178120	-1.145773	-0.340763
N104	N	-0.293535	-0.647913	-0.214863
N105	N	-0.317827	-0.569470	-0.268755
H106	H	-0.338073	-0.502848	-0.233251
N107	N	-0.401353	-0.752048	-0.357206
N108	N	-0.450302	-0.741405	-0.284520
H109	H	-0.509003	-0.711963	-0.299757
N110	N	-0.509290	-0.875678	-0.674287
N111	N	-0.562402	-0.811009	-0.640602
H112	H	-0.600903	-0.769005	-0.691442
N113	N	-0.622591	-0.965589	-0.649504
N114	N	-0.695235	-0.929149	-0.668403
H115	H	-0.715452	-0.862547	-0.632840
N116	N	-0.730421	-1.069697	-0.791957
N117	N	-0.778044	-1.115683	-0.854877
H118	H	-0.836739	-1.086239	-0.870157
H119	H	-0.662731	-1.245636	-0.877037
H120	H	-0.515118	-1.319679	-0.838653
H121	H	-0.418345	-1.226275	-0.710783
