data_functionalizedCrystal
_audit_creation_method	'MofGen! by Chris Wilmer'
_symmetry_space_group_name_H-M	'P1'
_symmetry_Int_Tables_number	1
_symmetry_cell_setting	triclinic
loop_
_symmetry_equiv_pos_as_xyz
  x,y,z
_cell_length_a	17.640280
_cell_length_b	11.169417
_cell_length_c	11.169409
_cell_angle_alpha	90.019824
_cell_angle_beta	78.765642
_cell_angle_gamma	101.198178
loop_
_atom_site_label
_atom_site_type_symbol
_atom_site_fract_x
_atom_site_fract_y
_atom_site_fract_z
Zn1	Zn	-0.314589	-1.931511	-0.582049
Zn2	Zn	-0.446792	-1.971974	-0.340816
Zn3	Zn	-0.314638	-1.730812	-0.381369
Zn4	Zn	-0.446728	-1.771358	-0.541481
O5	O	-0.380687	-1.851414	-0.461429
O6	O	-0.332133	-2.104830	-0.550056
O7	O	-0.429309	-1.939948	-0.178231
O8	O	-0.204024	-1.723532	-0.441939
O9	O	-0.429262	-2.134558	-0.372823
O10	O	-0.203988	-1.870985	-0.589378
O11	O	-0.332215	-1.762767	-0.208025
O12	O	-0.332153	-1.568238	-0.402602
O13	O	-0.429152	-1.792638	-0.714827
O14	O	-0.429199	-1.598028	-0.520235
O15	O	-0.332071	-1.910301	-0.744632
O16	O	-0.557391	-1.979264	-0.333485
O17	O	-0.557344	-1.831873	-0.480912
C18	C	-0.380675	-1.539585	-0.461417
C19	C	-0.380689	-1.406189	-0.461435
C20	C	-0.586047	-1.914392	-0.398422
C21	C	-0.673901	-1.941444	-0.371508
C22	C	-0.380599	-1.851479	-0.774498
C23	C	-0.380562	-1.851507	-0.907910
C24	C	-0.962856	-1.646394	-0.666331
C25	C	-1.045408	-1.671816	-0.641003
C26	C	-1.045391	-1.825390	-0.487642
C27	C	-0.962838	-1.799985	-0.512961
C28	C	-0.921576	-1.710485	-0.602306
C29	C	-0.921558	-1.864076	-0.448937
C30	C	-0.839012	-1.838668	-0.474250
C31	C	-0.797745	-1.749170	-0.563589
C32	C	-0.839030	-1.685077	-0.627620
C33	C	-0.962821	-1.953570	-0.359586
C34	C	-0.921542	-2.017661	-0.295561
C35	C	-0.838994	-1.992259	-0.320881
C36	C	-0.797727	-1.902761	-0.410219
C37	C	-0.797709	-2.056352	-0.256849
C38	C	-0.715162	-2.030944	-0.282163
C39	C	-0.715180	-1.877353	-0.435532
C40	C	-0.174525	-1.788222	-0.524708
C41	C	-0.086671	-1.761294	-0.551674
C42	C	-0.380699	-2.164460	-0.461441
C43	C	-0.380705	-2.297861	-0.461446
C44	C	-0.380717	-1.851400	-0.149595
C45	C	-0.380532	-1.851537	-0.016252
H46	H	-0.730530	-1.728476	-0.584189
H47	H	-0.805433	-1.612206	-0.700383
C48	C	-0.917906	-1.549313	-0.763339
C49	C	-0.836781	-1.540805	-0.771817
C50	C	-0.795350	-1.451403	-0.861172
H51	H	-0.931386	-1.472781	-0.741653
H52	H	-0.931344	-1.570987	-0.839899
H53	H	-0.823349	-1.519123	-0.695273
H54	H	-0.823278	-1.617313	-0.793519
H55	H	-0.808788	-1.473078	-0.937733
H56	H	-0.808836	-1.374878	-0.839478
H57	H	-0.740302	-1.445626	-0.866944
C58	C	-1.090265	-1.602090	-0.710314
C59	C	-1.137707	-1.539781	-0.627742
C60	C	-1.179032	-1.475523	-0.691544
H61	H	-1.122487	-1.657746	-0.752794
H62	H	-1.053889	-1.545088	-0.767117
H63	H	-1.174079	-1.596777	-0.570961
H64	H	-1.105505	-1.484105	-0.585259
H65	H	-1.142655	-1.418521	-0.748346
H66	H	-1.211248	-1.531188	-0.734021
H67	H	-1.211220	-1.433230	-0.635530
H68	H	-1.078998	-1.898258	-0.414894
C69	C	-1.052444	-1.981293	-0.332328
C70	C	-1.079690	-2.020281	-0.438254
C71	C	-1.162245	-2.045850	-0.413189
H72	H	-1.071273	-1.909692	-0.305815
H73	H	-1.071135	-2.043816	-0.269993
H74	H	-1.061008	-1.957763	-0.500569
H75	H	-1.060883	-2.091889	-0.464783
H76	H	-1.180936	-2.108373	-0.350854
H77	H	-1.181066	-1.974244	-0.386674
H78	H	-1.180742	-2.072316	-0.485051
H79	H	-0.681583	-1.804482	-0.508295
C80	C	-0.966486	-2.114810	-0.198632
C81	C	-1.047613	-2.123357	-0.190175
C82	C	-1.089038	-2.212844	-0.100901
H83	H	-0.953087	-2.093229	-0.122043
H84	H	-0.952962	-2.191309	-0.220415
H85	H	-1.061131	-2.046874	-0.168385
H86	H	-1.061036	-2.144954	-0.266741
H87	H	-1.075514	-2.289343	-0.122684
H88	H	-1.075632	-2.191254	-0.024319
H89	H	-1.144086	-2.218662	-0.095159
C90	C	-0.842415	-2.153673	-0.159943
C91	C	-0.822262	-2.266209	-0.192334
C92	C	-0.863422	-2.355884	-0.103084
H93	H	-0.897500	-2.159782	-0.153957
H94	H	-0.828909	-2.132064	-0.083411
H95	H	-0.835773	-2.287813	-0.268845
H96	H	-0.767184	-2.260139	-0.198311
H97	H	-0.849916	-2.334274	-0.026552
H98	H	-0.918505	-2.361981	-0.097104
H99	H	-0.849748	-2.432246	-0.125042
C100	C	-0.670437	-2.100484	-0.212428
C101	C	-0.690591	-2.080638	-0.087478
C102	C	-0.649413	-2.144686	-0.023194
H103	H	-0.615354	-2.072600	-0.240141
H104	H	-0.683928	-2.185290	-0.225852
H105	H	-0.677095	-1.995850	-0.074062
H106	H	-0.745667	-2.108527	-0.059730
H107	H	-0.662904	-2.229491	-0.036618
H108	H	-0.594332	-2.116796	-0.050917
H109	H	-0.663087	-2.131238	0.061592
