data_functionalizedCrystal
_audit_creation_method	'MofGen! by Chris Wilmer'
_symmetry_space_group_name_H-M	'P1'
_symmetry_Int_Tables_number	1
_symmetry_cell_setting	triclinic
loop_
_symmetry_equiv_pos_as_xyz
  x,y,z
_cell_length_a	16.120530
_cell_length_b	10.686285
_cell_length_c	10.685880
_cell_angle_alpha	90.361115
_cell_angle_beta	82.943149
_cell_angle_gamma	97.480717
loop_
_atom_site_label
_atom_site_type_symbol
_atom_site_fract_x
_atom_site_fract_y
_atom_site_fract_z
Zn1	Zn	1.347182	0.664491	-0.765896
Zn2	Zn	1.345476	0.858088	-0.539948
Zn3	Zn	1.195138	0.635978	-0.545439
Zn4	Zn	1.216570	0.863461	-0.740593
O5	O	1.276091	0.755504	-0.647969
O6	O	1.464534	0.699856	-0.744215
O7	O	1.315850	0.814443	-0.364443
O8	O	1.207051	0.463537	-0.587570
O9	O	1.463281	0.842091	-0.578212
O10	O	1.318757	0.484485	-0.749539
O11	O	1.205397	0.651260	-0.368477
O12	O	1.080402	0.656470	-0.563035
O13	O	1.243579	0.851249	-0.920183
O14	O	1.096148	0.823601	-0.706414
O15	O	1.339539	0.705066	-0.938773
O16	O	1.336632	1.035024	-0.553677
O17	O	1.241925	1.038972	-0.701090
C18	C	1.291443	1.082695	-0.624071
C19	C	1.298090	1.222678	-0.613895
C20	C	1.057788	0.737526	-0.632575
C21	C	0.964400	0.729867	-0.626018
C22	C	1.294140	0.781937	-0.976451
C23	C	1.301831	0.793201	-1.116430
C24	C	0.793419	0.715856	-0.614058
C25	C	0.759613	0.795253	-0.681965
C26	C	0.664474	0.787457	-0.675311
C27	C	0.888567	0.723650	-0.620711
C28	C	1.495247	0.773554	-0.663423
C29	C	1.588638	0.781246	-0.670009
C30	C	1.260704	0.427040	-0.671989
C31	C	1.254147	0.287069	-0.682225
C32	C	1.258157	0.729088	-0.320775
C33	C	1.250611	0.717482	-0.180834
H34	H	0.802123	0.869080	-0.745102
O35	O	1.349162	1.284522	-0.534885
C36	C	1.432894	1.261469	-0.570773
H37	H	1.432768	1.169956	-0.626195
H38	H	1.468192	1.342958	-0.632225
C39	C	1.477001	1.362223	-0.384028
C40	C	1.476846	1.249820	-0.452089
H41	H	1.504114	1.355043	-0.310820
H42	H	1.420590	1.377759	-0.359851
H43	H	1.506414	1.430119	-0.435252
H44	H	1.447423	1.181929	-0.400872
H45	H	1.533253	1.234272	-0.476255
O46	O	0.742751	0.627622	-0.538883
C47	C	0.759763	0.506094	-0.577205
H48	H	0.789207	0.509917	-0.679936
H49	H	0.805340	0.471728	-0.515631
C50	C	0.640840	0.409904	-0.437291
C51	C	0.676997	0.414598	-0.563471
H52	H	0.589788	0.353462	-0.428815
H53	H	0.629381	0.491779	-0.411469
H54	H	0.678829	0.381270	-0.385994
H55	H	0.639013	0.443247	-0.614763
H56	H	0.688449	0.332725	-0.589302
H57	H	1.211441	1.235106	-0.748513
H58	H	1.200869	0.644041	-1.128884
H59	H	1.351573	0.866652	-1.168386
