data_functionalizedCrystal
_audit_creation_method	'MofGen! by Chris Wilmer'
_symmetry_space_group_name_H-M	'P1'
_symmetry_Int_Tables_number	1
_symmetry_cell_setting	triclinic
loop_
_symmetry_equiv_pos_as_xyz
  x,y,z
_cell_length_a	18.215407
_cell_length_b	16.120484
_cell_length_c	18.215399
_cell_angle_alpha	92.869789
_cell_angle_beta	89.980167
_cell_angle_gamma	92.926015
loop_
_atom_site_label
_atom_site_type_symbol
_atom_site_fract_x
_atom_site_fract_y
_atom_site_fract_z
Zn1	Zn	1.110213	-0.331906	-0.430960
Zn2	Zn	1.103879	-0.471328	-0.314129
Zn3	Zn	0.987144	-0.331934	-0.307908
Zn4	Zn	0.980871	-0.471282	-0.437152
O5	O	1.045527	-0.401612	-0.372537
O6	O	1.212356	-0.350409	-0.415474
O7	O	1.088368	-0.452868	-0.210321
O8	O	1.008745	-0.215264	-0.319037
O9	O	1.207703	-0.452841	-0.329639
O10	O	1.099163	-0.215244	-0.409442
O11	O	1.002604	-0.350456	-0.205751
O12	O	0.883328	-0.350411	-0.325041
O13	O	0.998054	-0.452762	-0.539313
O14	O	0.878719	-0.452789	-0.419995
O15	O	1.093081	-0.350364	-0.534764
O16	O	1.082286	-0.587988	-0.335643
O17	O	0.991913	-0.587954	-0.426027
C18	C	0.854321	-0.401598	-0.372516
C19	C	0.772522	-0.401612	-0.372525
C20	C	0.581943	-0.455004	-0.421912
C21	C	0.505085	-0.455007	-0.421921
C22	C	0.509861	-0.348236	-0.323179
C23	C	0.586719	-0.348229	-0.323174
C24	C	0.622758	-0.401619	-0.372540
C25	C	0.469041	-0.401627	-0.372554
C26	C	0.385708	-0.401630	-0.372564
C27	C	0.706097	-0.401615	-0.372531
C28	C	1.035751	-0.618221	-0.382198
C29	C	1.031637	-0.710887	-0.386356
C30	C	1.024129	-0.880549	-0.393961
C31	C	1.067056	-0.921836	-0.351125
C32	C	1.062879	-1.016241	-0.355357
C33	C	1.028305	-0.786135	-0.389730
C34	C	1.237479	-0.401627	-0.372560
C35	C	1.319277	-0.401634	-0.372569
C36	C	1.045574	-0.401555	-0.564488
C37	C	1.045594	-0.401530	-0.646286
C38	C	1.055360	-0.184158	-0.362855
C39	C	1.059551	-0.091492	-0.358729
C40	C	1.095094	-0.348162	-0.832110
C41	C	1.095104	-0.348138	-0.908967
C42	C	0.996153	-0.454770	-0.913694
C43	C	0.996140	-0.454790	-0.836837
C44	C	1.045615	-0.401487	-0.796047
C45	C	1.045637	-0.401443	-0.949761
C46	C	1.045648	-0.401417	-1.033094
C47	C	1.045603	-0.401511	-0.712709
C48	C	1.045524	-0.401610	-0.181331
C49	C	1.045657	-0.401399	-0.099523
H50	H	0.480509	-0.304769	-0.282986
C51	C	0.970242	-0.928573	-0.447792
C52	C	0.966089	-1.024344	-0.451996
C53	C	0.912201	-1.072380	-0.505825
C54	C	0.862466	-1.024645	-0.555450
C55	C	0.866617	-0.928868	-0.551248
C56	C	0.920505	-0.880832	-0.497419
H57	H	1.002907	-1.059686	-0.415259
H58	H	0.909128	-1.143281	-0.508936
H59	H	0.822575	-1.060204	-0.595298
H60	H	0.829798	-0.893527	-0.587985
H61	H	0.923577	-0.809932	-0.494309
C62	C	1.120940	-0.873811	-0.297283
C63	C	1.170666	-0.921554	-0.247655
C64	C	1.224545	-0.873526	-0.193812
C65	C	1.228698	-0.777754	-0.189597
C66	C	1.178969	-0.730006	-0.239227
C67	C	1.125091	-0.778034	-0.293069
H68	H	1.167594	-0.992454	-0.250774
H69	H	1.261357	-0.908873	-0.157073
H70	H	1.268582	-0.742201	-0.149740
H71	H	1.182042	-0.659106	-0.236108
H72	H	1.088279	-0.742687	-0.329808
H73	H	1.135377	-0.304757	-0.798901
C74	C	1.149534	-0.289480	-0.948636
C75	C	1.232886	-0.296294	-0.938389
C76	C	1.287317	-0.237632	-0.978057
C77	C	1.258397	-0.172157	-1.027970
C78	C	1.175040	-0.165341	-1.038218
C79	C	1.120609	-0.224003	-0.998551
H80	H	1.254298	-0.344765	-0.901439
H81	H	1.349023	-0.242678	-0.970470
H82	H	1.298690	-0.128732	-1.057334
H83	H	1.153628	-0.116870	-1.075169
H84	H	1.058903	-0.218956	-1.006138
C85	C	0.941738	-0.513408	-0.958564
C86	C	0.941752	-0.513393	-1.043104
C87	C	0.887338	-0.572035	-1.087973
C88	C	0.832910	-0.630690	-1.048303
C89	C	0.832894	-0.630707	-0.963759
C90	C	0.887308	-0.572065	-0.918889
H91	H	0.982045	-0.469971	-1.072474
H92	H	0.887350	-0.572022	-1.150558
H93	H	0.792629	-0.674100	-1.081518
H94	H	0.792601	-0.674129	-0.934388
H95	H	0.887296	-0.572078	-0.856304
H96	H	0.611284	-0.498475	-0.462110
C97	C	0.941707	-0.513452	-0.797166
C98	C	0.858355	-0.506640	-0.807418
C99	C	0.803921	-0.565296	-0.767748
C100	C	0.832839	-0.630763	-0.717825
C101	C	0.916195	-0.637578	-0.707570
C102	C	0.970629	-0.578922	-0.747241
H103	H	0.836945	-0.458175	-0.844376
H104	H	0.742216	-0.560251	-0.775339
H105	H	0.792544	-0.674184	-0.688458
H106	H	0.937605	-0.686043	-0.670613
H107	H	1.032334	-0.583967	-0.739649
H108	H	0.471857	-0.498478	-0.462126
H109	H	0.619951	-0.304751	-0.282969
