data_functionalizedCrystal
_audit_creation_method	'MofGen! by Chris Wilmer'
_symmetry_space_group_name_H-M	'P1'
_symmetry_Int_Tables_number	1
_symmetry_cell_setting	triclinic
loop_
_symmetry_equiv_pos_as_xyz
  x,y,z
_cell_length_a	12.594517
_cell_length_b	12.594516
_cell_length_c	13.897441
_cell_angle_alpha	89.973623
_cell_angle_beta	89.984820
_cell_angle_gamma	90.016010
loop_
_atom_site_label
_atom_site_type_symbol
_atom_site_fract_x
_atom_site_fract_y
_atom_site_fract_z
Zn1	Zn	1.627276	-0.423709	-0.545267
Zn2	Zn	1.627164	-0.601720	-0.383980
Zn3	Zn	1.449277	-0.423756	-0.384001
Zn4	Zn	1.449262	-0.601646	-0.545248
O5	O	1.538245	-0.512708	-0.464624
O6	O	1.776207	-0.447334	-0.523871
O7	O	1.603527	-0.578163	-0.249001
O8	O	1.472942	-0.274804	-0.405409
O9	O	1.776125	-0.578118	-0.405374
O10	O	1.603717	-0.274770	-0.523891
O11	O	1.472834	-0.447414	-0.249016
O12	O	1.300329	-0.447342	-0.405391
O13	O	1.472917	-0.577992	-0.680232
O14	O	1.300318	-0.578037	-0.523859
O15	O	1.603703	-0.447263	-0.680246
O16	O	1.603512	-0.750656	-0.405356
O17	O	1.472808	-0.750602	-0.523839
C18	C	1.261704	-0.512687	-0.464626
C19	C	1.143399	-0.512704	-0.464650
C20	C	1.003407	-0.583918	-0.528965
C21	C	1.074176	-0.609826	-0.440932
C22	C	1.074201	-0.486844	-0.552673
C23	C	1.003382	-0.538697	-0.376541
C24	C	1.003401	-0.415669	-0.488342
C25	C	1.074138	-0.441540	-0.400248
C26	C	1.538175	-0.789249	-0.464614
C27	C	1.538243	-0.907554	-0.464643
C28	C	1.467146	-0.976817	-0.529040
C29	C	1.441211	-1.047682	-0.441026
C30	C	1.564275	-1.047488	-0.552672
C31	C	1.512257	-0.976862	-0.376581
C32	C	1.635365	-0.976661	-0.488287
C33	C	1.609467	-1.047495	-0.400212
C34	C	1.815866	-0.512729	-0.464622
C35	C	1.934171	-0.512739	-0.464621
C36	C	1.538320	-0.512614	-0.716217
C37	C	1.538353	-0.512574	-0.823431
C38	C	1.538344	-0.235087	-0.464654
C39	C	1.538386	-0.116782	-0.464667
C40	C	1.538381	-0.512502	-1.019726
C41	C	1.538362	-0.512545	-0.910494
C42	C	1.538231	-0.512725	-0.214009
C43	C	1.538405	-0.512465	-0.106796
H44	H	1.104999	-0.381331	-0.345784
N45	N	0.962256	-0.663732	-0.600927
H46	H	0.882070	-0.662703	-0.600840
H47	H	0.989197	-0.644896	-0.667229
N48	N	1.689190	-1.088346	-0.328009
H49	H	1.651702	-1.133578	-0.278504
H50	H	1.744522	-1.132378	-0.362259
N51	N	1.115350	-0.718539	-0.414349
H52	H	1.089625	-0.772273	-0.462977
H53	H	1.195532	-0.717457	-0.413924
H54	H	0.972405	-0.560684	-0.302068
N55	N	1.744049	-0.935309	-0.514805
H56	H	1.738625	-0.890004	-0.574586
H57	H	1.772988	-0.891243	-0.460065
N58	N	1.332503	-1.089018	-0.414544
H59	H	1.337657	-1.133178	-0.354045
H60	H	1.282962	-1.027238	-0.403176
N61	N	1.593371	-1.088579	-0.651268
H62	H	1.660173	-1.132645	-0.646729
H63	H	1.533518	-1.133829	-0.676901
N64	N	0.962219	-0.306965	-0.514922
H65	H	0.987945	-0.287474	-0.581467
H66	H	0.882037	-0.307661	-0.514037
H67	H	1.105309	-0.464956	-0.627126
H68	H	1.490202	-0.945967	-0.302125
N69	N	1.387373	-0.935702	-0.601077
H70	H	1.314080	-0.961542	-0.583095
H71	H	1.388451	-0.855519	-0.600964
