data_functionalizedCrystal
_audit_creation_method	'MofGen! by Chris Wilmer'
_symmetry_space_group_name_H-M	'P1'
_symmetry_Int_Tables_number	1
_symmetry_cell_setting	triclinic
loop_
_symmetry_equiv_pos_as_xyz
  x,y,z
_cell_length_a	12.837943
_cell_length_b	15.944551
_cell_length_c	11.892095
_cell_angle_alpha	93.888509
_cell_angle_beta	85.689438
_cell_angle_gamma	89.163839
loop_
_atom_site_label
_atom_site_type_symbol
_atom_site_fract_x
_atom_site_fract_y
_atom_site_fract_z
O1	O	1.382096	0.213524	-0.093988
O2	O	1.080290	0.202737	-0.093995
O3	O	1.239434	0.086515	-0.093981
O4	O	1.222952	0.329745	-0.094002
O5	O	1.226164	0.096189	0.094025
O6	O	1.067021	0.212411	0.094012
O7	O	1.368826	0.223198	0.094018
Zn8	Zn	1.215817	0.219340	0.123865
Zn9	Zn	1.233299	0.206594	-0.123842
O10	O	1.209683	0.339419	0.094005
C11	C	1.035034	0.203930	0.000008
C12	C	0.919957	0.193062	0.000006
C13	C	1.232115	0.060004	0.000022
C14	C	1.230063	-0.033407	0.000023
C15	C	0.679007	0.323714	0.000011
C16	C	0.570881	0.313507	0.000010
C17	C	0.595575	0.162440	0.000010
C18	C	0.703701	0.172648	0.000012
C19	C	0.745413	0.253287	0.000010
C20	C	0.853542	0.263494	0.000003
C21	C	0.878234	0.112428	0.000012
C22	C	0.770107	0.102221	0.000011
C23	C	1.126515	-0.256548	0.000005
C24	C	1.168058	-0.308949	0.092705
C25	C	1.226352	-0.204430	0.000014
C26	C	1.181163	-0.318468	-0.092655
C27	C	1.222761	-0.369631	0.000001
C28	C	1.267917	-0.255596	0.092790
C29	C	1.281014	-0.265115	-0.092653
C30	C	1.322628	-0.317491	0.000069
C31	C	1.228418	-0.109262	0.000023
C32	C	1.220702	-0.464796	0.000000
C33	C	1.414082	0.222005	0.000013
C34	C	1.529160	0.232872	0.000008
C35	C	1.217002	0.365931	-0.000001
C36	C	1.219054	0.459340	-0.000009
N37	N	1.203893	0.228039	0.292918
N38	N	1.245231	0.197890	-0.292895
C39	C	1.328203	0.137313	0.529576
C40	C	1.319876	0.143400	0.647918
C41	C	1.178907	0.246295	0.647944
C42	C	1.187234	0.240208	0.529603
C43	C	1.261886	0.185716	0.470423
C44	C	1.270217	0.179634	0.352080
C45	C	1.129244	0.282524	0.352108
C46	C	1.120917	0.288611	0.470449
H47	H	0.712969	0.389374	0.000008
H48	H	0.516815	0.370856	0.000013
H49	H	1.144455	-0.345956	-0.171031
H50	H	1.388994	0.092949	0.481392
N51	N	1.391411	0.091201	0.711721
H52	H	1.439966	0.055762	0.656270
H53	H	1.433782	0.129580	0.760802
N54	N	0.898532	0.350466	0.000013
H55	H	0.977107	0.346249	0.000012
H56	H	0.879157	0.378086	-0.069680
N57	N	0.550573	0.075473	0.000044
H58	H	0.471998	0.079698	0.000055
H59	H	0.579769	0.040676	-0.069646
H60	H	1.328737	-0.245642	-0.171025
N61	N	0.725114	0.015250	0.000027
H62	H	0.646539	0.019469	0.000031
H63	H	0.754319	-0.019535	-0.069669
N64	N	0.949858	0.036460	-0.000000
H65	H	1.024687	0.055159	-0.000005
H66	H	0.931437	0.005271	0.069694
H67	H	1.043639	-0.229864	0.000096
N68	N	1.104790	-0.334719	0.196505
H69	H	1.104439	-0.398078	0.196110
H70	H	1.136853	-0.310803	0.266464
N71	N	1.350733	0.120867	0.288245
H72	H	1.391479	0.091126	0.343681
H73	H	1.314500	0.078015	0.239155
N74	N	1.098384	0.305053	0.711782
H75	H	1.103171	0.301557	0.795726
H76	H	1.111811	0.364544	0.691103
H77	H	1.060134	0.332975	0.518647
N78	N	1.316475	-0.219309	0.196714
H79	H	1.317529	-0.156015	0.196096
H80	H	1.274087	-0.235655	0.266585
H81	H	1.405566	-0.344012	0.000124
H82	H	1.075247	0.321940	0.303932
