data_functionalizedCrystal
_audit_creation_method	'MofGen! by Chris Wilmer'
_symmetry_space_group_name_H-M	'P1'
_symmetry_Int_Tables_number	1
_symmetry_cell_setting	triclinic
loop_
_symmetry_equiv_pos_as_xyz
  x,y,z
_cell_length_a	27.731993
_cell_length_b	26.210047
_cell_length_c	12.837942
_cell_angle_alpha	89.997217
_cell_angle_beta	91.275334
_cell_angle_gamma	90.004884
loop_
_atom_site_label
_atom_site_type_symbol
_atom_site_fract_x
_atom_site_fract_y
_atom_site_fract_z
O1	O	0.647046	0.042290	-0.122979
O2	O	0.507180	0.042321	-0.141778
O3	O	0.574012	0.042303	0.018473
O4	O	0.580215	0.042308	-0.283231
O5	O	0.573989	-0.042555	0.018473
O6	O	0.507157	-0.042537	-0.141779
O7	O	0.647023	-0.042568	-0.122979
Cu8	Cu	0.577088	-0.050300	-0.132379
Cu9	Cu	0.577115	0.050054	-0.132379
O10	O	0.580191	-0.042550	-0.283231
C11	C	0.489142	-0.000104	-0.141393
C12	C	0.435428	-0.000092	-0.140231
N13	N	0.577072	-0.120884	-0.132378
C14	C	0.051864	0.046139	-0.131808
C15	C	0.253740	0.046153	-0.136237
O16	O	0.279851	0.085493	-0.136768
N17	N	0.278975	-0.000102	-0.136791
C18	C	0.253738	-0.046364	-0.136231
O19	O	0.279834	-0.085706	-0.136794
C20	C	0.051862	-0.046377	-0.131795
C21	C	0.026630	-0.000119	-0.131251
C22	C	0.026631	0.092394	-0.131263
C23	C	-0.023835	0.092390	-0.130161
C24	C	-0.049069	0.046131	-0.129605
C25	C	-0.023836	-0.000123	-0.130149
C26	C	0.026626	-0.092638	-0.131227
C27	C	-0.023846	-0.092638	-0.130115
C28	C	-0.049078	-0.046380	-0.129572
C29	C	-0.099536	-0.046385	-0.128491
N30	N	-0.124771	-0.000130	-0.127937
C31	C	-0.099538	0.046128	-0.128494
C32	C	0.359726	-0.046353	-0.138563
C33	C	0.410195	-0.046350	-0.139674
C34	C	0.410193	0.046167	-0.139678
C35	C	0.359724	0.046163	-0.138574
C36	C	0.334491	-0.000098	-0.138009
C37	C	-0.205521	0.046116	-0.126181
C38	C	-0.255991	0.046108	-0.125084
C39	C	-0.255986	-0.046408	-0.125075
C40	C	-0.205519	-0.046401	-0.126177
C41	C	-0.180288	-0.000134	-0.126727
O42	O	-0.125678	-0.085705	-0.127948
O43	O	-0.125642	0.085465	-0.127908
C44	C	0.102330	0.046143	-0.132909
C45	C	0.127562	-0.000111	-0.133454
C46	C	0.102329	-0.046369	-0.132897
C47	C	0.178031	-0.000108	-0.134565
C48	C	0.203265	0.046150	-0.135122
C49	C	0.178030	0.092405	-0.134568
C50	C	0.127563	0.092402	-0.133466
C51	C	0.127564	-0.092624	-0.133452
C52	C	0.178030	-0.092617	-0.134554
C53	C	0.203264	-0.046358	-0.135111
C54	C	0.609298	-0.473404	-0.194747
C55	C	0.609313	-0.687063	-0.194746
O56	O	0.636701	-0.714690	-0.247762
N57	N	0.577126	-0.713778	-0.132368
C58	C	0.544936	-0.687076	-0.069981
O59	O	0.517564	-0.714701	-0.016917
C60	C	0.544925	-0.473418	-0.069977
C61	C	0.577110	-0.446705	-0.132367
C62	C	0.641481	-0.446691	-0.257130
C63	C	0.641475	-0.393280	-0.257134
C64	C	0.609287	-0.366581	-0.194754
C65	C	0.577104	-0.393294	-0.132371
C66	C	0.512738	-0.446717	-0.007585
C67	C	0.512739	-0.393299	-0.007588
C68	C	0.544924	-0.366586	-0.069978
C69	C	0.544910	-0.313184	-0.069995
N70	N	0.577096	-0.286468	-0.132372
C71	C	0.609285	-0.313167	-0.194752
C72	C	0.544944	-0.799249	-0.069989
C73	C	0.544946	-0.852663	-0.069991
C74	C	0.609323	-0.852647	-0.194755
C75	C	0.609318	-0.799231	-0.194757
C76	C	0.577130	-0.772534	-0.132367
C77	C	0.609270	-0.200999	-0.194756
C78	C	0.609260	-0.147583	-0.194758
C79	C	0.544885	-0.147604	-0.069991
C80	C	0.544893	-0.201016	-0.069993
C81	C	0.577090	-0.227712	-0.132379
O82	O	0.517540	-0.285524	-0.016997
O83	O	0.636660	-0.285532	-0.247791
C84	C	0.609304	-0.526816	-0.194743
C85	C	0.577121	-0.553528	-0.132359
C86	C	0.544933	-0.526830	-0.069979
C87	C	0.577123	-0.606943	-0.132361
C88	C	0.609312	-0.633641	-0.194741
C89	C	0.641498	-0.606926	-0.257119
C90	C	0.641492	-0.553514	-0.257123
C91	C	0.512747	-0.553545	-0.007602
C92	C	0.512755	-0.606957	-0.007604
C93	C	0.544943	-0.633655	-0.069984
C94	C	0.665061	-0.000141	-0.123365
C95	C	0.718775	-0.000150	-0.124527
C96	C	0.571905	-0.000125	0.057059
C97	C	0.565655	-0.000123	0.172034
N98	N	0.577135	0.120638	-0.132371
C99	C	0.582298	-0.000120	-0.321817
C100	C	0.588548	-0.000119	-0.436791
C101	C	0.640785	-0.000129	0.414227
C102	C	0.634915	-0.000126	0.522256
C103	C	0.548047	-0.000113	0.496124
C104	C	0.553917	-0.000115	0.388094
C105	C	0.600287	-0.000123	0.347150
C106	C	0.606156	-0.000129	0.239119
C107	C	0.519288	-0.000112	0.212988
C108	C	0.513419	-0.000110	0.321018
H109	H	-0.276534	0.083779	-0.124644
H110	H	0.486541	-0.628702	0.043199
F111	F	0.678019	-0.000130	0.593641
H112	H	0.486312	-0.000112	0.158362
F113	F	-0.178675	0.095358	-0.126766
F114	F	0.655507	-0.000142	0.195545
H115	H	0.635469	-0.125836	-0.245568
F116	F	0.510634	-0.229446	-0.003602
F117	F	0.100715	0.141636	-0.132887
H118	H	0.635526	-0.777485	-0.245561
H119	H	0.047171	0.130065	-0.131713
F120	F	0.478482	-0.364888	0.058826
F121	F	0.690135	-0.000149	0.370649
F122	F	0.204894	0.141637	-0.135165
F123	F	0.204879	-0.141855	-0.135141
F124	F	0.510685	-0.881087	-0.003603
H125	H	0.510294	-0.000100	0.529480
H126	H	0.475665	-0.000100	0.354370
F127	F	0.643581	-0.881070	-0.261143
F128	F	0.332874	0.095397	-0.137994
F129	F	0.643537	-0.229404	-0.261154
F130	F	-0.050683	0.141624	-0.129575
H131	H	0.667685	-0.371535	-0.307934
H132	H	0.430747	0.083832	-0.140134
F133	F	0.510677	-0.770842	-0.003596
H134	H	0.486535	-0.531812	0.043198
H135	H	0.430734	-0.084018	-0.140133
H136	H	0.486530	-0.468457	0.043220
H137	H	0.667695	-0.468424	-0.307928
H138	H	0.339186	-0.084027	-0.138099
F139	F	0.053470	-0.141874	-0.131806
H140	H	-0.184974	-0.084068	-0.126641
F141	F	-0.050697	-0.141877	-0.129507
H142	H	0.518677	-0.125857	-0.019206
F143	F	0.100715	-0.141862	-0.132866
F144	F	0.675746	-0.525091	-0.323532
H145	H	-0.276540	-0.084071	-0.124625
H146	H	0.667705	-0.628673	-0.307916
