data_functionalizedCrystal
_audit_creation_method	'MofGen! by Chris Wilmer'
_symmetry_space_group_name_H-M	'P1'
_symmetry_Int_Tables_number	1
_symmetry_cell_setting	triclinic
loop_
_symmetry_equiv_pos_as_xyz
  x,y,z
_cell_length_a	16.109301
_cell_length_b	9.730223
_cell_length_c	16.109301
_cell_angle_alpha	89.998554
_cell_angle_beta	96.538519
_cell_angle_gamma	90.000099
loop_
_atom_site_label
_atom_site_type_symbol
_atom_site_fract_x
_atom_site_fract_y
_atom_site_fract_z
O1	O	1.103130	0.114207	-0.106862
O2	O	0.861069	0.114230	-0.120161
O3	O	0.988749	0.114204	0.007520
O4	O	0.975450	0.114233	-0.234542
O5	O	0.988741	-0.114376	0.007513
O6	O	0.861060	-0.114350	-0.120168
O7	O	1.103122	-0.114373	-0.106869
Zn8	Zn	0.982090	-0.150653	-0.113520
Zn9	Zn	0.982101	0.150511	-0.113510
O10	O	0.975442	-0.114347	-0.234549
C11	C	0.830090	-0.000057	-0.119626
C12	C	0.737794	-0.000049	-0.118011
N13	N	0.982089	-0.356190	-0.113525
C14	C	0.515522	-0.000057	-0.190018
C15	C	0.428801	-0.000066	-0.188494
C16	C	0.448676	-0.000078	-0.037006
C17	C	0.535394	-0.000079	-0.038530
C18	C	0.568815	-0.000061	-0.115039
C19	C	0.395376	-0.000069	-0.111990
C20	C	0.301350	-0.000079	-0.110337
C21	C	0.662847	-0.000054	-0.116693
C22	C	1.032496	-0.428127	-0.163963
C23	C	1.032509	-0.572010	-0.163947
C24	C	0.931699	-0.572005	-0.063054
C25	C	0.931692	-0.428125	-0.063066
C26	C	1.082893	-0.356192	-0.214422
C27	C	1.133304	-0.428130	-0.264864
C28	C	1.133316	-0.572013	-0.264848
C29	C	1.082918	-0.643958	-0.214390
C30	C	1.134101	-0.000082	-0.107404
C31	C	1.226397	-0.000081	-0.109019
C32	C	0.988206	-0.000087	0.038491
C33	C	0.986591	-0.000088	0.130786
N34	N	0.982109	0.356047	-0.113498
C35	C	0.975984	-0.000053	-0.265521
C36	C	0.977600	-0.000042	-0.357816
C37	C	1.058599	-0.000073	0.353059
C38	C	1.057075	-0.000062	0.439779
C39	C	0.905586	-0.000053	0.419905
C40	C	0.907111	-0.000055	0.333186
C41	C	0.983620	-0.000072	0.299766
C42	C	0.980571	-0.000059	0.473205
C43	C	0.978918	-0.000046	0.567231
C44	C	0.985273	-0.000082	0.205734
H45	H	0.385413	-0.000065	-0.249550
N46	N	1.137946	-0.000083	0.497258
H47	H	1.125375	-0.000076	0.557266
H48	H	1.171294	0.084647	0.486436
N49	N	1.083310	-0.799143	-0.213995
H50	H	1.043859	-0.833798	-0.174255
H51	H	1.141712	-0.832991	-0.195262
N52	N	0.877344	-0.649596	-0.008635
H53	H	0.884997	-0.751659	-0.016283
H54	H	0.816873	-0.624457	-0.025043
H55	H	1.120897	-0.000084	0.325851
N56	N	0.551563	-0.000040	-0.272538
H57	H	0.532127	-0.084774	-0.305386
H58	H	0.614581	0.000016	-0.262063
H59	H	0.890644	-0.369552	-0.021997
N60	N	0.823071	-0.000063	0.455955
H61	H	0.775803	-0.000061	0.409033
H62	H	0.819137	0.084672	0.491503
H63	H	0.421454	-0.000101	0.025285
N64	N	0.826237	-0.000044	0.275698
H65	H	0.777538	-0.000042	0.310026
H66	H	0.823570	-0.084779	0.239284
H67	H	1.082886	-0.239036	-0.214442
N68	N	0.592883	-0.000100	0.042343
H69	H	0.558554	-0.000104	0.091043
H70	H	0.629301	0.084632	0.045013
H71	H	1.174369	-0.630581	-0.305915
N72	N	1.187669	-0.350543	-0.319275
H73	H	1.180013	-0.248478	-0.311633
H74	H	1.171226	-0.375708	-0.379736
