data_functionalizedCrystal
_audit_creation_method	'MofGen! by Chris Wilmer'
_symmetry_space_group_name_H-M	'P1'
_symmetry_Int_Tables_number	1
_symmetry_cell_setting	triclinic
loop_
_symmetry_equiv_pos_as_xyz
  x,y,z
_cell_length_a	29.839131
_cell_length_b	29.839134
_cell_length_c	29.839111
_cell_angle_alpha	90.071095
_cell_angle_beta	89.880971
_cell_angle_gamma	89.963719
loop_
_atom_site_label
_atom_site_type_symbol
_atom_site_fract_x
_atom_site_fract_y
_atom_site_fract_z
Zn1	Zn	-0.178528	-0.686938	-0.254126
Zn2	Zn	0.154805	-0.353604	0.079207
Zn3	Zn	0.488138	-0.020271	0.412541
Zn4	Zn	-0.253773	-0.686805	-0.178996
Zn5	Zn	0.079560	-0.353472	0.154338
Zn6	Zn	0.412893	-0.020139	0.487671
Zn7	Zn	-0.178651	-0.611756	-0.178995
Zn8	Zn	0.154682	-0.278423	0.154338
Zn9	Zn	0.488015	0.054911	0.487672
Zn10	Zn	-0.253625	-0.611768	-0.254084
Zn11	Zn	0.079708	-0.278435	0.079249
Zn12	Zn	0.413041	0.054898	0.412582
O13	O	-0.216145	-0.649317	-0.216550
O14	O	0.117189	-0.315984	0.116783
O15	O	0.450522	0.017350	0.450116
O16	O	-0.188520	-0.749787	-0.244177
O17	O	0.144813	-0.416454	0.089156
O18	O	0.478146	-0.083121	0.422489
O19	O	-0.243922	-0.676789	-0.116128
O20	O	0.089412	-0.343456	0.217205
O21	O	0.422745	-0.010123	0.550539
O22	O	-0.115768	-0.621779	-0.188979
O23	O	0.217565	-0.288446	0.144355
O24	O	0.550899	0.044887	0.477688
O25	O	-0.243802	-0.749690	-0.188979
O26	O	0.089531	-0.416357	0.144354
O27	O	0.422864	-0.083023	0.477687
O28	O	-0.115678	-0.677015	-0.244177
O29	O	0.217656	-0.343682	0.089156
O30	O	0.550989	-0.010348	0.422490
O31	O	-0.188730	-0.621651	-0.116128
O32	O	0.144604	-0.288318	0.217205
O33	O	0.477937	0.045016	0.550539
O34	O	-0.188586	-0.548891	-0.188938
O35	O	0.144747	-0.215557	0.144395
O36	O	0.478080	0.117776	0.477728
O37	O	-0.243550	-0.621800	-0.316957
O38	O	0.089783	-0.288467	0.016376
O39	O	0.423116	0.044867	0.349710
O40	O	-0.243670	-0.548899	-0.244106
O41	O	0.089664	-0.215566	0.089227
O42	O	0.422997	0.117767	0.422561
O43	O	-0.188377	-0.677027	-0.316988
O44	O	0.144957	-0.343693	0.016346
O45	O	0.478290	-0.010360	0.349679
O46	O	-0.316621	-0.676801	-0.188939
O47	O	0.016712	-0.343468	0.144394
O48	O	0.350046	-0.010135	0.477728
O49	O	-0.316512	-0.621672	-0.244106
O50	O	0.016821	-0.288338	0.089227
O51	O	0.350154	0.044995	0.422560
C52	C	-0.216126	-0.532594	-0.216518
C53	C	0.117208	-0.199261	0.116816
C54	C	0.450541	0.134072	0.450149
C55	C	-0.216128	-0.482660	-0.216515
C56	C	0.117205	-0.149326	0.116819
C57	C	0.450538	0.184007	0.450152
C58	C	-0.332867	-0.649236	-0.216528
C59	C	0.000466	-0.315902	0.116805
C60	C	0.333799	0.017431	0.450139
C61	C	-0.382802	-0.649242	-0.216533
C62	C	-0.049468	-0.315909	0.116800
C63	C	0.283865	0.017425	0.450133
C64	C	-0.215933	-0.649430	-0.333729
C65	C	0.117400	-0.316096	-0.000396
C66	C	0.450733	0.017237	0.332938
C67	C	-0.215843	-0.649478	-0.383664
C68	C	0.117490	-0.316144	-0.050330
C69	C	0.450823	0.017189	0.283003
C70	C	-0.692489	-0.678075	-0.187867
C71	C	-0.359156	-0.344742	0.145467
C72	C	-0.025822	-0.011408	0.478800
C73	C	-0.880162	-0.678130	-0.187884
C74	C	-0.546829	-0.344797	0.145449
C75	C	-0.213495	-0.011464	0.478783
O76	O	-0.904464	-0.702581	-0.163493
O77	O	-0.571131	-0.369248	0.169840
O78	O	-0.237797	-0.035914	0.503173
N79	N	-0.903587	-0.649410	-0.216584
N80	N	-0.570253	-0.316077	0.116749
N81	N	-0.236920	0.017257	0.450083
C82	C	-0.880090	-0.620676	-0.245284
C83	C	-0.546757	-0.287342	0.088049
C84	C	-0.213424	0.045991	0.421383
O85	O	-0.904321	-0.596252	-0.269699
O86	O	-0.570987	-0.262918	0.063635
O87	O	-0.237654	0.070415	0.396968
C88	C	-0.692418	-0.620623	-0.245268
C89	C	-0.359085	-0.287290	0.088065
C90	C	-0.025751	0.046044	0.421398
C91	C	-0.668996	-0.649342	-0.216563
C92	C	-0.335662	-0.316009	0.116770
C93	C	-0.002329	0.017325	0.450103
C94	C	-0.669067	-0.706792	-0.159164
C95	C	-0.335733	-0.373459	0.174169
C96	C	-0.002400	-0.040126	0.507503
C97	C	-0.622151	-0.706776	-0.159158
C98	C	-0.288818	-0.373443	0.174175
C99	C	0.044516	-0.040110	0.507508
C100	C	-0.598658	-0.678043	-0.187855
C101	C	-0.265325	-0.344710	0.145478
C102	C	0.068009	-0.011377	0.478812
C103	C	-0.622080	-0.649326	-0.216557
C104	C	-0.288747	-0.315993	0.116776
C105	C	0.044586	0.017341	0.450109
C106	C	-0.668922	-0.591891	-0.273970
C107	C	-0.335589	-0.258558	0.059363
C108	C	-0.002256	0.074776	0.392696
C109	C	-0.622001	-0.591881	-0.273965
C110	C	-0.288668	-0.258548	0.059369
C111	C	0.044665	0.074785	0.392702
C112	C	-0.598579	-0.620600	-0.245259
C113	C	-0.265246	-0.287267	0.088074
C114	C	0.068087	0.046066	0.421407
C115	C	-0.551672	-0.620577	-0.245248
C116	C	-0.218338	-0.287244	0.088085
C117	C	0.114995	0.046089	0.421418
N118	N	-0.528247	-0.649298	-0.216548
N119	N	-0.194914	-0.315964	0.116785
N120	N	0.138420	0.017369	0.450118
C121	C	-0.551740	-0.678031	-0.187852
C122	C	-0.218407	-0.344697	0.145482
C123	C	0.114927	-0.011364	0.478815
C124	C	-0.978621	-0.620705	-0.245289
C125	C	-0.645287	-0.287372	0.088044
C126	C	-0.311954	0.045962	0.421377
C127	C	-1.025539	-0.620717	-0.245293
C128	C	-0.692205	-0.287384	0.088041
C129	C	-0.358872	0.045949	0.421374
C130	C	-1.025607	-0.678173	-0.187893
C131	C	-0.692274	-0.344840	0.145440
C132	C	-0.358940	-0.011506	0.478773
C133	C	-0.978688	-0.678158	-0.187888
C134	C	-0.645355	-0.344824	0.145445
C135	C	-0.312022	-0.011491	0.478779
C136	C	-0.955196	-0.649425	-0.216589
C137	C	-0.621863	-0.316092	0.116744
C138	C	-0.288529	0.017241	0.450077
C139	C	-0.453214	-0.677995	-0.187841
C140	C	-0.119881	-0.344662	0.145492
C141	C	0.213452	-0.011328	0.478825
C142	C	-0.406295	-0.677975	-0.187837
C143	C	-0.072961	-0.344642	0.145497
C144	C	0.260372	-0.011308	0.478830
C145	C	-0.406230	-0.620522	-0.245238
C146	C	-0.072897	-0.287188	0.088096
C147	C	0.260436	0.046145	0.421429
C148	C	-0.453146	-0.620539	-0.245241
C149	C	-0.119813	-0.287206	0.088093
C150	C	0.213521	0.046127	0.421426
C151	C	-0.476637	-0.649280	-0.216541
C152	C	-0.143303	-0.315946	0.116792
C153	C	0.190030	0.017387	0.450126
O154	O	-0.527341	-0.596143	-0.269630
O155	O	-0.194007	-0.262810	0.063704
O156	O	0.139326	0.070524	0.397037
O157	O	-0.527502	-0.702458	-0.163447
O158	O	-0.194168	-0.369125	0.169886
O159	O	0.139165	-0.035791	0.503219
C160	C	-0.739404	-0.678091	-0.187872
C161	C	-0.406071	-0.344758	0.145461
C162	C	-0.072738	-0.011424	0.478794
C163	C	-0.762827	-0.649374	-0.216575
C164	C	-0.429493	-0.316040	0.116758
C165	C	-0.096160	0.017293	0.450092
C166	C	-0.739334	-0.620641	-0.245272
C167	C	-0.406000	-0.287307	0.088062
C168	C	-0.072667	0.046026	0.421395
C169	C	-0.809744	-0.649386	-0.216578
C170	C	-0.476411	-0.316053	0.116755
C171	C	-0.143078	0.017280	0.450088
C172	C	-0.833238	-0.678119	-0.187882
C173	C	-0.499904	-0.344786	0.145452
C174	C	-0.166571	-0.011453	0.478785
C175	C	-0.809813	-0.706840	-0.159181
C176	C	-0.476479	-0.373506	0.174152
C177	C	-0.143146	-0.040173	0.507485
C178	C	-0.762897	-0.706824	-0.159176
C179	C	-0.429564	-0.373491	0.174158
C180	C	-0.096231	-0.040157	0.507491
C181	C	-0.762758	-0.591920	-0.273972
C182	C	-0.429425	-0.258587	0.059362
C183	C	-0.096092	0.074746	0.392695
C184	C	-0.809674	-0.591938	-0.273975
C185	C	-0.476340	-0.258605	0.059359
C186	C	-0.143007	0.074729	0.392692
C187	C	-0.833167	-0.620671	-0.245278
C188	C	-0.499834	-0.287338	0.088055
C189	C	-0.166500	0.045996	0.421389
C190	C	-0.098966	-0.649411	-0.216582
C191	C	0.234367	-0.316077	0.116751
C192	C	0.567700	0.017256	0.450084
C193	C	-0.049032	-0.649450	-0.216596
C194	C	0.284302	-0.316117	0.116737
C195	C	0.617635	0.017216	0.450071
C196	C	-0.216164	-0.766495	-0.216583
C197	C	0.117169	-0.433162	0.116750
C198	C	0.450503	-0.099829	0.450084
C199	C	-0.216172	-0.816430	-0.216597
C200	C	0.117161	-0.483096	0.116736
C201	C	0.450494	-0.149763	0.450070
C202	C	-0.244869	-0.173031	-0.245241
C203	C	0.088464	0.160303	0.088093
C204	C	0.421798	0.493636	0.421426
C205	C	-0.244882	0.014642	-0.245261
C206	C	0.088452	0.347976	0.088073
C207	C	0.421785	0.681309	0.421406
O208	O	-0.269297	0.038895	-0.269666
O209	O	0.064037	0.372229	0.063668
O210	O	0.397370	0.705562	0.397001
N211	N	-0.216161	0.038125	-0.216584
N212	N	0.117172	0.371459	0.116749
N213	N	0.450506	0.704792	0.450083
C214	C	-0.187433	0.014687	-0.187902
C215	C	0.145900	0.348020	0.145431
C216	C	0.479233	0.681353	0.478764
O217	O	-0.163002	0.038967	-0.163515
O218	O	0.170332	0.372300	0.169819
O219	O	0.503665	0.705633	0.503152
C220	C	-0.187419	-0.172985	-0.187885
C221	C	0.145915	0.160348	0.145448
C222	C	0.479248	0.493681	0.478782
C223	C	-0.216144	-0.196466	-0.216560
C224	C	0.117189	0.136868	0.116773
C225	C	0.450522	0.470201	0.450106
C226	C	-0.273592	-0.196511	-0.273914
C227	C	0.059741	0.136822	0.059419
C228	C	0.393075	0.470156	0.392753
C229	C	-0.273590	-0.243426	-0.273907
C230	C	0.059743	0.089907	0.059426
C231	C	0.393077	0.423240	0.392760
C232	C	-0.244865	-0.266861	-0.245227
C233	C	0.088468	0.066472	0.088107
C234	C	0.421801	0.399805	0.421440
C235	C	-0.216143	-0.243381	-0.216553
C236	C	0.117191	0.089952	0.116780
C237	C	0.450524	0.423286	0.450113
C238	C	-0.158689	-0.196423	-0.159206
C239	C	0.174644	0.136910	0.174127
C240	C	0.507978	0.470244	0.507461
C241	C	-0.158687	-0.243344	-0.159205
C242	C	0.174646	0.089989	0.174128
C243	C	0.507980	0.423323	0.507462
C244	C	-0.187413	-0.266824	-0.187880
C245	C	0.145921	0.066509	0.145453
C246	C	0.479254	0.399842	0.478786
C247	C	-0.187416	-0.313732	-0.187866
C248	C	0.145917	0.019602	0.145467
C249	C	0.479250	0.352935	0.478801
N250	N	-0.216137	-0.337214	-0.216543
N251	N	0.117197	-0.003881	0.116791
N252	N	0.450530	0.329452	0.450124
C253	C	-0.244861	-0.313779	-0.245223
C254	C	0.088472	0.019554	0.088110
C255	C	0.421805	0.352887	0.421444
C256	C	-0.187444	0.113217	-0.187913
C257	C	0.145890	0.446551	0.145420
C258	C	0.479223	0.779884	0.478754
C259	C	-0.187448	0.160135	-0.187917
C260	C	0.145886	0.493469	0.145417
C261	C	0.479219	0.826802	0.478750
C262	C	-0.244896	0.160088	-0.245276
C263	C	0.088438	0.493421	0.088058
C264	C	0.421771	0.826754	0.421391
C265	C	-0.244893	0.113169	-0.245269
C266	C	0.088440	0.446502	0.088064
C267	C	0.421773	0.779836	0.421397
C268	C	-0.216164	0.089735	-0.216590
C269	C	0.117169	0.423068	0.116744
C270	C	0.450503	0.756401	0.450077
C271	C	-0.244856	-0.412305	-0.245206
C272	C	0.088477	-0.078972	0.088127
C273	C	0.421811	0.254362	0.421461
C274	C	-0.244853	-0.459225	-0.245195
C275	C	0.088480	-0.125891	0.088138
C276	C	0.421814	0.207442	0.421472
C277	C	-0.187404	-0.459173	-0.187838
C278	C	0.145930	-0.125840	0.145496
C279	C	0.479263	0.207494	0.478829
C280	C	-0.187408	-0.412258	-0.187847
C281	C	0.145925	-0.078924	0.145487
C282	C	0.479259	0.254409	0.478820
C283	C	-0.216136	-0.388825	-0.216534
C284	C	0.117198	-0.055491	0.116799
C285	C	0.450531	0.277842	0.450132
O286	O	-0.163010	-0.338013	-0.163477
O287	O	0.170323	-0.004680	0.169856
O288	O	0.503656	0.328653	0.503189
O289	O	-0.269282	-0.338067	-0.269614
O290	O	0.064051	-0.004734	0.063719
O291	O	0.397384	0.328600	0.397053
C292	C	-0.244871	-0.126115	-0.245248
C293	C	0.088463	0.207218	0.088086
C294	C	0.421796	0.540552	0.421419
C295	C	-0.216148	-0.102635	-0.216574
C296	C	0.117186	0.230699	0.116759
C297	C	0.450519	0.564032	0.450092
C298	C	-0.187423	-0.126070	-0.187894
C299	C	0.145910	0.207263	0.145439
C300	C	0.479244	0.540597	0.478773
C301	C	-0.216152	-0.055717	-0.216578
C302	C	0.117181	0.277616	0.116755
C303	C	0.450515	0.610950	0.450089
C304	C	-0.244876	-0.032282	-0.245258
C305	C	0.088457	0.301052	0.088075
C306	C	0.421790	0.634385	0.421408
C307	C	-0.273597	-0.055765	-0.273935
C308	C	0.059736	0.277569	0.059398
C309	C	0.393070	0.610902	0.392731
C310	C	-0.273595	-0.102680	-0.273928
C311	C	0.059738	0.230653	0.059405
C312	C	0.393071	0.563987	0.392739
C313	C	-0.158703	-0.102587	-0.159217
C314	C	0.174631	0.230746	0.174116
C315	C	0.507964	0.564080	0.507449
C316	C	-0.158707	-0.055672	-0.159226
C317	C	0.174626	0.277662	0.174107
C318	C	0.507960	0.610995	0.507440
C319	C	-0.187432	-0.032237	-0.187907
C320	C	0.145902	0.301097	0.145427
C321	C	0.479235	0.634430	0.478760
C322	C	-0.216323	-0.649230	-0.099827
C323	C	0.117011	-0.315897	0.233506
C324	C	0.450344	0.017436	0.566839
C325	C	-0.216286	-0.649269	-0.049893
C326	C	0.117047	-0.315936	0.283440
C327	C	0.450380	0.017397	0.616774
C328	C	-0.187107	-0.677923	0.306561
C329	C	0.146227	-0.344590	0.639894
C330	C	0.479560	-0.011256	0.973228
C331	C	-0.187235	-0.677865	0.118888
C332	C	0.146099	-0.344531	0.452221
C333	C	0.479432	-0.011198	0.785555
O334	O	-0.162633	-0.702119	0.094511
O335	O	0.170701	-0.368786	0.427844
O336	O	0.504034	-0.035453	0.761177
N337	N	-0.216184	-0.649313	0.095552
N338	N	0.117149	-0.315980	0.428885
N339	N	0.450482	0.017353	0.762219
C340	C	-0.245102	-0.620772	0.119137
C341	C	0.088231	-0.287439	0.452470
C342	C	0.421564	0.045894	0.785804
O343	O	-0.269725	-0.596483	0.094982
O344	O	0.063608	-0.263149	0.428315
O345	O	0.396941	0.070184	0.761648
C346	C	-0.244972	-0.620829	0.306809
C347	C	0.088362	-0.287495	0.640142
C348	C	0.421695	0.045838	0.973475
C349	C	-0.216023	-0.649385	0.330143
C350	C	0.117310	-0.316052	0.663476
C351	C	0.450643	0.017281	0.996809
C352	C	-0.158160	-0.706477	0.329895
C353	C	0.175173	-0.373144	0.663228
C354	C	0.508506	-0.039810	0.996561
C355	C	-0.158130	-0.706493	0.376810
C356	C	0.175203	-0.373160	0.710144
C357	C	0.508536	-0.039826	1.043477
C358	C	-0.187047	-0.677955	0.400392
C359	C	0.146287	-0.344622	0.733725
C360	C	0.479620	-0.011289	1.067058
C361	C	-0.215993	-0.649401	0.377058
C362	C	0.117340	-0.316068	0.710391
C363	C	0.450673	0.017265	1.043725
C364	C	-0.273887	-0.592286	0.330393
C365	C	0.059447	-0.258952	0.663726
C366	C	0.392780	0.074381	0.997060
C367	C	-0.273851	-0.592302	0.377314
C368	C	0.059483	-0.258968	0.710647
C369	C	0.392816	0.074365	1.043980
C370	C	-0.244902	-0.620858	0.400648
C371	C	0.088431	-0.287525	0.733981
C372	C	0.421764	0.045809	1.067314
C373	C	-0.244880	-0.620879	0.447555
C374	C	0.088454	-0.287546	0.780888
C375	C	0.421787	0.045787	1.114222
N376	N	-0.215930	-0.649431	0.470891
N377	N	0.117403	-0.316098	0.804224
N378	N	0.450737	0.017236	1.137558
C379	C	-0.187013	-0.677969	0.447310
C380	C	0.146320	-0.344635	0.780643
C381	C	0.479653	-0.011302	1.113976
C382	C	-0.245169	-0.620745	0.020606
C383	C	0.088164	-0.287412	0.353940
C384	C	0.421497	0.045921	0.687273
C385	C	-0.245203	-0.620732	-0.026311
C386	C	0.088131	-0.287398	0.307022
C387	C	0.421464	0.045935	0.640355
C388	C	-0.187334	-0.677824	-0.026557
C389	C	0.145999	-0.344490	0.306776
C390	C	0.479332	-0.011157	0.640110
C391	C	-0.187304	-0.677839	0.020362
C392	C	0.146030	-0.344506	0.353695
C393	C	0.479363	-0.011173	0.687028
C394	C	-0.216220	-0.649297	0.043943
C395	C	0.117114	-0.315963	0.377276
C396	C	0.450447	0.017370	0.710609
C397	C	-0.186953	-0.678001	0.545835
C398	C	0.146380	-0.344667	0.879169
C399	C	0.479714	-0.011334	1.212502
C400	C	-0.186927	-0.678015	0.592755
C401	C	0.146407	-0.344682	0.926088
C402	C	0.479740	-0.011349	1.259422
C403	C	-0.244793	-0.620922	0.592996
C404	C	0.088540	-0.287589	0.926330
C405	C	0.421874	0.045745	1.259663
C406	C	-0.244821	-0.620909	0.546081
C407	C	0.088512	-0.287575	0.879414
C408	C	0.421846	0.045758	1.212747
C409	C	-0.215897	-0.649449	0.522501
C410	C	0.117436	-0.316116	0.855835
C411	C	0.450769	0.017217	1.189168
O412	O	-0.269465	-0.596634	0.471961
O413	O	0.063868	-0.263301	0.805295
O414	O	0.397201	0.070033	1.138628
O415	O	-0.162387	-0.702248	0.471473
O416	O	0.170946	-0.368914	0.804806
O417	O	0.504280	-0.035581	1.138139
C418	C	-0.187137	-0.677907	0.259646
C419	C	0.146197	-0.344574	0.592979
C420	C	0.479530	-0.011240	0.926312
C421	C	-0.216083	-0.649353	0.236312
C422	C	0.117250	-0.316020	0.569645
C423	C	0.450584	0.017314	0.902978
C424	C	-0.245000	-0.620815	0.259893
C425	C	0.088334	-0.287482	0.593227
C426	C	0.421667	0.045851	0.926560
C427	C	-0.216116	-0.649340	0.189394
C428	C	0.117217	-0.316006	0.522727
C429	C	0.450550	0.017327	0.856061
C430	C	-0.187200	-0.677877	0.165812
C431	C	0.146133	-0.344544	0.499146
C432	C	0.479467	-0.011211	0.832479
C433	C	-0.158250	-0.706429	0.189149
C434	C	0.175083	-0.373095	0.522482
C435	C	0.508416	-0.039762	0.855815
C436	C	-0.158220	-0.706445	0.236064
C437	C	0.175113	-0.373112	0.569397
C438	C	0.508446	-0.039778	0.902731
C439	C	-0.273949	-0.592264	0.236557
C440	C	0.059384	-0.258930	0.569891
C441	C	0.392717	0.074403	0.903224
C442	C	-0.273977	-0.592250	0.189642
C443	C	0.059356	-0.258917	0.522975
C444	C	0.392689	0.074416	0.856308
C445	C	-0.245061	-0.620788	0.166060
C446	C	0.088272	-0.287455	0.499393
C447	C	0.421606	0.045878	0.832727
H448	H	-0.472335	-0.701399	-0.164472
H449	H	-0.139002	-0.368066	0.168861
H450	H	0.194332	-0.034732	0.502194
O451	O	-0.301544	-0.125506	-0.301722
O452	O	0.031789	0.207827	0.031611
O453	O	0.365122	0.541161	0.364944
C454	C	-0.330562	-0.152603	-0.276095
C455	C	0.002771	0.180730	0.057238
C456	C	0.336105	0.514063	0.390572
H457	H	-0.333348	-0.138420	-0.240707
H458	H	-0.000015	0.194914	0.092627
H459	H	0.333319	0.528247	0.425960
H460	H	-0.365130	-0.153133	-0.292283
H461	H	-0.031797	0.180201	0.041050
H462	H	0.301536	0.513534	0.374384
H463	H	-0.316673	-0.188169	-0.274573
H464	H	0.016661	0.145164	0.058760
H465	H	0.349994	0.478498	0.392094
O466	O	-0.599471	-0.734721	-0.131264
O467	O	-0.266138	-0.401388	0.202069
O468	O	0.067195	-0.068055	0.535402
C469	C	-0.630276	-0.760075	-0.105934
C470	C	-0.296943	-0.426742	0.227399
C471	C	0.036391	-0.093409	0.560732
H472	H	-0.663678	-0.761635	-0.124343
H473	H	-0.330345	-0.428302	0.208990
H474	H	0.002989	-0.094968	0.542324
H475	H	-0.616704	-0.795470	-0.101183
H476	H	-0.283371	-0.462137	0.232150
H477	H	0.049963	-0.128803	0.565483
H478	H	-0.635355	-0.743624	-0.071795
H479	H	-0.302021	-0.410291	0.261538
H480	H	0.031312	-0.076957	0.594872
O481	O	-0.272804	-0.482053	-0.272989
O482	O	0.060529	-0.148720	0.060344
O483	O	0.393862	0.184613	0.393678
C484	C	-0.301821	-0.509149	-0.247358
C485	C	0.031513	-0.175815	0.085975
C486	C	0.364846	0.157518	0.419308
H487	H	-0.304607	-0.494961	-0.211972
H488	H	0.028727	-0.161628	0.121362
H489	H	0.362060	0.171706	0.454695
H490	H	-0.336389	-0.509681	-0.263546
H491	H	-0.003056	-0.176348	0.069788
H492	H	0.330277	0.156985	0.403121
H493	H	-0.287930	-0.544714	-0.245832
H494	H	0.045403	-0.211380	0.087501
H495	H	0.378736	0.121953	0.420834
H496	H	-0.135316	-0.036558	-0.135871
H497	H	0.198018	0.296775	0.197462
H498	H	0.531351	0.630109	0.530795
O499	O	-0.130862	-0.125397	-0.131331
O500	O	0.202471	0.207936	0.202002
O501	O	0.535805	0.541270	0.535335
C502	C	-0.156446	-0.152470	-0.102255
C503	C	0.176887	0.180863	0.231078
C504	C	0.510220	0.514197	0.564412
H505	H	-0.190486	-0.159506	-0.118038
H506	H	0.142848	0.173827	0.215295
H507	H	0.476181	0.507160	0.548628
H508	H	-0.138145	-0.185462	-0.096256
H509	H	0.195189	0.147871	0.237078
H510	H	0.528522	0.481204	0.570411
H511	H	-0.161396	-0.134334	-0.068959
H512	H	0.171937	0.198999	0.264374
H513	H	0.505270	0.532333	0.597707
H514	H	-0.268284	0.094054	-0.268620
H515	H	0.065050	0.427388	0.064713
H516	H	0.398383	0.760721	0.398047
H517	H	-0.268284	0.179177	-0.268628
H518	H	0.065049	0.512510	0.064705
H519	H	0.398382	0.845843	0.398038
H520	H	-0.387095	-0.597126	-0.268601
H521	H	-0.053762	-0.263793	0.064732
H522	H	0.279572	0.069541	0.398066
H523	H	-0.297555	-0.568997	0.170647
H524	H	0.035778	-0.235664	0.503981
H525	H	0.369112	0.097670	0.837314
H526	H	-0.163353	-0.701271	0.611751
H527	H	0.169980	-0.367938	0.945084
H528	H	0.503314	-0.034605	1.278418
O529	O	-0.130071	-0.734117	0.258774
O530	O	0.203263	-0.400784	0.592107
O531	O	0.536596	-0.067451	0.925440
C532	C	-0.101207	-0.708360	0.285860
C533	C	0.232126	-0.375026	0.619193
C534	C	0.565460	-0.041693	0.952527
H535	H	-0.117291	-0.674423	0.292995
H536	H	0.216042	-0.341089	0.626328
H537	H	0.549375	-0.007756	0.959661
H538	H	-0.095022	-0.726633	0.318803
H539	H	0.238312	-0.393300	0.652136
H540	H	0.571645	-0.059967	0.985470
H541	H	-0.067968	-0.703196	0.267686
H542	H	0.265365	-0.369862	0.601019
H543	H	0.598698	-0.036529	0.934352
H544	H	-0.743830	-0.730210	-0.135801
H545	H	-0.410497	-0.396876	0.197532
H546	H	-0.077164	-0.063543	0.530865
H547	H	-0.297460	-0.569032	0.311403
H548	H	0.035874	-0.235698	0.644736
H549	H	0.369207	0.097635	0.978069
O550	O	-0.301505	-0.266162	-0.301808
O551	O	0.031828	0.067171	0.031525
O552	O	0.365161	0.400504	0.364858
C553	C	-0.326863	-0.235409	-0.327113
C554	C	0.006471	0.097924	0.006220
C555	C	0.339804	0.431258	0.339554
H556	H	-0.308460	-0.201979	-0.328699
H557	H	0.024874	0.131355	0.004634
H558	H	0.358207	0.464688	0.337967
H559	H	-0.331644	-0.249004	-0.362501
H560	H	0.001689	0.084329	-0.029168
H561	H	0.335023	0.417662	0.304165
H562	H	-0.360988	-0.230377	-0.310601
H563	H	-0.027654	0.102957	0.022732
H564	H	0.305679	0.436290	0.356065
O565	O	-0.159569	0.182888	-0.159992
O566	O	0.173764	0.516221	0.173341
O567	O	0.507097	0.849555	0.506675
C568	C	-0.169410	0.171488	-0.115200
C569	C	0.163924	0.504822	0.218134
C570	C	0.497257	0.838155	0.551467
H571	H	-0.186683	0.137437	-0.114242
H572	H	0.146650	0.470770	0.219091
H573	H	0.479983	0.804103	0.552424
H574	H	-0.136993	0.169882	-0.095113
H575	H	0.196340	0.503215	0.238220
H576	H	0.529674	0.836548	0.571554
H577	H	-0.192509	0.197928	-0.100024
H578	H	0.140824	0.531261	0.233310
H579	H	0.474158	0.864595	0.566643
O580	O	-0.158844	-0.705768	0.523004
O581	O	0.174490	-0.372435	0.856337
O582	O	0.507823	-0.039102	1.189671
C583	C	-0.133284	-0.730963	0.553668
C584	C	0.200049	-0.397630	0.887001
C585	C	0.533382	-0.064297	1.220334
H586	H	-0.151656	-0.732642	0.587158
H587	H	0.181677	-0.399309	0.920491
H588	H	0.515011	-0.065975	1.253825
H589	H	-0.128252	-0.766326	0.540048
H590	H	0.205081	-0.432992	0.873381
H591	H	0.538415	-0.099659	1.206714
H592	H	-0.099277	-0.714296	0.558592
H593	H	0.234056	-0.380963	0.891926
H594	H	0.567389	-0.047630	1.225259
H595	H	-0.134557	-0.729746	0.395804
H596	H	0.198777	-0.396413	0.729138
H597	H	0.532110	-0.063079	1.062471
H598	H	-0.828740	-0.568548	-0.297350
H599	H	-0.495407	-0.235214	0.035984
H600	H	-0.162074	0.098119	0.369317
O601	O	-0.301540	-0.033065	-0.301813
O602	O	0.031793	0.300269	0.031521
O603	O	0.365126	0.633602	0.364854
C604	C	-0.326885	-0.063845	-0.327135
C605	C	0.006449	0.269488	0.006199
C606	C	0.339782	0.602822	0.339532
H607	H	-0.328452	-0.097265	-0.308729
H608	H	0.004882	0.236069	0.024604
H609	H	0.338215	0.569402	0.357938
H610	H	-0.362277	-0.050268	-0.331868
H611	H	-0.028944	0.283065	0.001465
H612	H	0.304389	0.616398	0.334798
H613	H	-0.310420	-0.068891	-0.361282
H614	H	0.022913	0.264442	-0.027948
H615	H	0.356247	0.597775	0.305385
O616	O	-0.301989	-0.564566	0.400150
O617	O	0.031344	-0.231233	0.733483
O618	O	0.364678	0.102101	1.066817
C619	C	-0.327538	-0.539356	0.369490
C620	C	0.005796	-0.206022	0.702824
C621	C	0.339129	0.127311	1.036157
H622	H	-0.328977	-0.557754	0.336020
H623	H	0.004356	-0.224421	0.669353
H624	H	0.337689	0.108912	1.002686
H625	H	-0.362961	-0.534801	0.383145
H626	H	-0.029627	-0.201468	0.716479
H627	H	0.303706	0.131865	1.049812
H628	H	-0.311335	-0.505127	0.364514
H629	H	0.021998	-0.171793	0.697847
H630	H	0.355332	0.161540	1.031180
H631	H	-1.044743	-0.701569	-0.164527
H632	H	-0.711410	-0.368235	0.168806
H633	H	-0.378076	-0.034902	0.502139
H634	H	-0.387226	-0.701362	-0.164460
H635	H	-0.053892	-0.368028	0.168873
H636	H	0.279441	-0.034695	0.502207
O637	O	-0.955889	-0.706079	-0.160069
O638	O	-0.622555	-0.372746	0.173265
O639	O	-0.289222	-0.039413	0.506598
C640	C	-0.928678	-0.735103	-0.185674
C641	C	-0.595345	-0.401770	0.147659
C642	C	-0.262012	-0.068437	0.480993
H643	H	-0.921587	-0.719263	-0.219702
H644	H	-0.588253	-0.385930	0.113631
H645	H	-0.254920	-0.052597	0.446965
H646	H	-0.895722	-0.741116	-0.167377
H647	H	-0.562388	-0.407783	0.165957
H648	H	-0.229055	-0.074449	0.499290
H649	H	-0.946723	-0.768400	-0.190648
H650	H	-0.613390	-0.435066	0.142685
H651	H	-0.280056	-0.101733	0.476018
H652	H	-0.163731	-0.701092	0.039357
H653	H	0.169603	-0.367758	0.372690
H654	H	0.502936	-0.034425	0.706024
H655	H	-1.044605	-0.597327	-0.268663
H656	H	-0.711272	-0.263994	0.064670
H657	H	-0.377938	0.069339	0.398003
O658	O	-0.955873	-0.592746	-0.273183
O659	O	-0.622540	-0.259413	0.060151
O660	O	-0.289206	0.073920	0.393484
C661	C	-0.986615	-0.567410	-0.298518
C662	C	-0.653281	-0.234076	0.034816
C663	C	-0.319948	0.099257	0.368149
H664	H	-1.020099	-0.565868	-0.280114
H665	H	-0.686766	-0.232535	0.053220
H666	H	-0.353432	0.100799	0.386553
H667	H	-0.973087	-0.532008	-0.303268
H668	H	-0.639753	-0.198675	0.030066
H669	H	-0.306420	0.134659	0.363399
H670	H	-0.991517	-0.583865	-0.332657
H671	H	-0.658184	-0.250531	0.000676
H672	H	-0.324850	0.082802	0.334009
H673	H	-0.134611	-0.729716	0.310700
H674	H	0.198723	-0.396383	0.644033
H675	H	0.532056	-0.063049	0.977366
H676	H	-0.268397	-0.597660	0.527081
H677	H	0.064936	-0.264326	0.860415
H678	H	0.398269	0.069007	1.193748
O679	O	-0.159228	-0.705586	-0.049399
O680	O	0.174106	-0.372253	0.283934
O681	O	0.507439	-0.038919	0.617268
C682	C	-0.133655	-0.730782	-0.018748
C683	C	0.199678	-0.397449	0.314586
C684	C	0.533012	-0.064116	0.647919
H685	H	-0.152018	-0.732474	0.014747
H686	H	0.181315	-0.399140	0.348080
H687	H	0.514648	-0.065807	0.681414
H688	H	-0.128617	-0.766140	-0.032377
H689	H	0.204716	-0.432807	0.300956
H690	H	0.538049	-0.099474	0.634289
H691	H	-0.099651	-0.714108	-0.013827
H692	H	0.233683	-0.380775	0.319506
H693	H	0.567016	-0.047442	0.652840
O694	O	-0.691598	-0.563980	-0.301899
O695	O	-0.358265	-0.230647	0.031434
O696	O	-0.024931	0.102686	0.364768
C697	C	-0.660792	-0.538616	-0.327217
C698	C	-0.327459	-0.205282	0.006117
C699	C	0.005874	0.128051	0.339450
H700	H	-0.627329	-0.557011	-0.328781
H701	H	-0.293996	-0.223678	0.004553
H702	H	0.039338	0.109655	0.337886
H703	H	-0.674269	-0.533835	-0.362612
H704	H	-0.340936	-0.200502	-0.029279
H705	H	-0.007602	0.132831	0.304055
H706	H	-0.655869	-0.504490	-0.310730
H707	H	-0.322536	-0.171157	0.022603
H708	H	0.010798	0.162176	0.355936
H709	H	-0.134707	-0.729667	0.169940
H710	H	0.198626	-0.396334	0.503274
H711	H	0.531960	-0.063000	0.836607
O712	O	-0.130777	-0.173563	-0.131406
O713	O	0.202557	0.159770	0.201927
O714	O	0.535890	0.493104	0.535261
C715	C	-0.101746	-0.146473	-0.157026
C716	C	0.231587	0.186860	0.176307
C717	C	0.564921	0.520194	0.509640
H718	H	-0.117571	-0.139483	-0.191050
H719	H	0.215762	0.193850	0.142283
H720	H	0.549095	0.527183	0.475617
H721	H	-0.095749	-0.113459	-0.138737
H722	H	0.237584	0.219875	0.194596
H723	H	0.570918	0.553208	0.527930
H724	H	-0.068444	-0.164570	-0.162010
H725	H	0.264890	0.168763	0.171324
H726	H	0.598223	0.502096	0.504657
H727	H	-0.268780	-0.597483	-0.045306
H728	H	0.064553	-0.264150	0.288028
H729	H	0.397886	0.069184	0.621361
O730	O	-0.273303	-0.593003	0.043440
O731	O	0.060030	-0.259670	0.376774
O732	O	0.393364	0.073664	0.710107
C733	C	-0.298850	-0.567795	0.012777
C734	C	0.034484	-0.234462	0.346110
C735	C	0.367817	0.098871	0.679443
H736	H	-0.300296	-0.586201	-0.020690
H737	H	0.033037	-0.252868	0.312644
H738	H	0.366371	0.080465	0.645977
H739	H	-0.334271	-0.563231	0.026434
H740	H	-0.000937	-0.229898	0.359767
H741	H	0.332396	0.103435	0.693101
H742	H	-0.282641	-0.533570	0.007791
H743	H	0.050692	-0.200237	0.341124
H744	H	0.384025	0.133096	0.674457
H745	H	-0.164048	0.094141	-0.164556
H746	H	0.169285	0.427475	0.168777
H747	H	0.502618	0.760808	0.502110
H748	H	-0.268338	-0.597689	0.612205
H749	H	0.064996	-0.264355	0.945538
H750	H	0.398329	0.068978	1.278871
O751	O	-0.599161	-0.564034	-0.301893
O752	O	-0.265827	-0.230700	0.031440
O753	O	0.067506	0.102633	0.364774
C754	C	-0.571925	-0.589607	-0.330926
C755	C	-0.238592	-0.256274	0.002407
C756	C	0.094742	0.077059	0.335741
H757	H	-0.586023	-0.624996	-0.333739
H758	H	-0.252690	-0.291662	-0.000406
H759	H	0.080643	0.041671	0.332928
H760	H	-0.571334	-0.573366	-0.365483
H761	H	-0.238000	-0.240032	-0.032149
H762	H	0.095333	0.093301	0.301184
H763	H	-0.536395	-0.591139	-0.317034
H764	H	-0.203062	-0.257806	0.016299
H765	H	0.130271	0.075527	0.349633
O766	O	-0.302082	-0.564526	0.259391
O767	O	0.031251	-0.231193	0.592725
O768	O	0.364584	0.102140	0.926058
C769	C	-0.327628	-0.539316	0.228728
C770	C	0.005705	-0.205983	0.562062
C771	C	0.339039	0.127350	0.895395
H772	H	-0.329071	-0.557720	0.195260
H773	H	0.004262	-0.224386	0.528594
H774	H	0.337595	0.108947	0.861927
H775	H	-0.363050	-0.534755	0.242384
H776	H	-0.029717	-0.201421	0.575717
H777	H	0.303617	0.131912	0.909050
H778	H	-0.311420	-0.505090	0.223746
H779	H	0.021913	-0.171757	0.557080
H780	H	0.355246	0.161576	0.890413
H781	H	-0.135289	-0.262422	-0.135853
H782	H	0.198044	0.070912	0.197481
H783	H	0.531378	0.404245	0.530814
H784	H	-0.688190	-0.730193	-0.135796
H785	H	-0.354856	-0.396859	0.197538
H786	H	-0.021523	-0.063526	0.530871
H787	H	-0.472217	-0.597155	-0.268616
H788	H	-0.138884	-0.263822	0.064717
H789	H	0.194449	0.069511	0.398050
O790	O	-0.159466	-0.389516	-0.159975
O791	O	0.173868	-0.056182	0.173358
O792	O	0.507201	0.277151	0.506692
C793	C	-0.134123	-0.420263	-0.134649
C794	C	0.199211	-0.086930	0.198684
C795	C	0.532544	0.246403	0.532017
H796	H	-0.132564	-0.453735	-0.153047
H797	H	0.200769	-0.120402	0.180286
H798	H	0.534102	0.212931	0.513619
H799	H	-0.098727	-0.406725	-0.129924
H800	H	0.234606	-0.073392	0.203409
H801	H	0.567940	0.259942	0.536742
H802	H	-0.150583	-0.425193	-0.100499
H803	H	0.182750	-0.091860	0.232835
H804	H	0.516083	0.241473	0.566168
O805	O	-0.159564	-0.481994	-0.159958
O806	O	0.173769	-0.148660	0.173376
O807	O	0.507102	0.184673	0.506709
C808	C	-0.185149	-0.509072	-0.130886
C809	C	0.148184	-0.175738	0.202447
C810	C	0.481518	0.157595	0.535781
H811	H	-0.219193	-0.516095	-0.146665
H812	H	0.114140	-0.182762	0.186668
H813	H	0.447474	0.150571	0.520001
H814	H	-0.166853	-0.542070	-0.124902
H815	H	0.166480	-0.208737	0.208431
H816	H	0.499814	0.124597	0.541765
H817	H	-0.190089	-0.490946	-0.097583
H818	H	0.143245	-0.157613	0.235750
H819	H	0.476578	0.175720	0.569084
O820	O	-0.832583	-0.734819	-0.131328
O821	O	-0.499250	-0.401486	0.202005
O822	O	-0.165917	-0.068153	0.535339
C823	C	-0.821058	-0.779590	-0.141209
C824	C	-0.487725	-0.446257	0.192124
C825	C	-0.154391	-0.112924	0.525458
H826	H	-0.786954	-0.780507	-0.158476
H827	H	-0.453620	-0.447174	0.174858
H828	H	-0.120287	-0.113840	0.508191
H829	H	-0.819503	-0.799735	-0.108811
H830	H	-0.486170	-0.466402	0.224522
H831	H	-0.152837	-0.133068	0.557855
H832	H	-0.847397	-0.794732	-0.164329
H833	H	-0.514064	-0.461399	0.169004
H834	H	-0.180731	-0.128066	0.502338
O835	O	-0.739991	-0.564027	-0.301909
O836	O	-0.406657	-0.230694	0.031424
O837	O	-0.073324	0.102640	0.364757
C838	C	-0.751341	-0.573859	-0.346698
C839	C	-0.418008	-0.240526	-0.013365
C840	C	-0.084675	0.092807	0.319969
H841	H	-0.785385	-0.591147	-0.347651
H842	H	-0.452052	-0.257813	-0.014318
H843	H	-0.118718	0.075520	0.319015
H844	H	-0.752941	-0.541438	-0.366803
H845	H	-0.419608	-0.208104	-0.033470
H846	H	-0.086274	0.125229	0.299864
H847	H	-0.724877	-0.596944	-0.361857
H848	H	-0.391544	-0.263610	-0.028523
H849	H	-0.058210	0.069723	0.304810
O850	O	-0.272803	-0.389616	-0.273087
O851	O	0.060530	-0.056283	0.060246
O852	O	0.393863	0.277050	0.393579
C853	C	-0.298142	-0.420409	-0.298399
C854	C	0.035191	-0.087076	0.034934
C855	C	0.368524	0.246257	0.368268
H856	H	-0.299698	-0.453825	-0.279986
H857	H	0.033636	-0.120492	0.053348
H858	H	0.366969	0.212841	0.386681
H859	H	-0.333540	-0.406843	-0.303131
H860	H	-0.000206	-0.073510	0.030202
H861	H	0.333127	0.259823	0.363536
H862	H	-0.281681	-0.425459	-0.332547
H863	H	0.051652	-0.092126	0.000786
H864	H	0.384986	0.241208	0.334119
O865	O	-0.301434	-0.173731	-0.301824
O866	O	0.031899	0.159603	0.031510
O867	O	0.365232	0.492936	0.364843
C868	C	-0.275861	-0.146634	-0.330887
C869	C	0.057472	0.186700	0.002446
C870	C	0.390806	0.520033	0.335779
H871	H	-0.240473	-0.160789	-0.333728
H872	H	0.092860	0.172544	-0.000394
H873	H	0.426193	0.505878	0.332939
H874	H	-0.292105	-0.146146	-0.365430
H875	H	0.041229	0.187188	-0.032096
H876	H	0.374562	0.520521	0.301237
H877	H	-0.274326	-0.111056	-0.317007
H878	H	0.059007	0.222277	0.016326
H879	H	0.392341	0.555611	0.349659
