data_functionalizedCrystal
_audit_creation_method	'MofGen! by Chris Wilmer'
_symmetry_space_group_name_H-M	'P1'
_symmetry_Int_Tables_number	1
_symmetry_cell_setting	triclinic
loop_
_symmetry_equiv_pos_as_xyz
  x,y,z
_cell_length_a	16.109301
_cell_length_b	9.798715
_cell_length_c	16.109301
_cell_angle_alpha	90.004570
_cell_angle_beta	83.461481
_cell_angle_gamma	90.000966
loop_
_atom_site_label
_atom_site_type_symbol
_atom_site_fract_x
_atom_site_fract_y
_atom_site_fract_z
O1	O	1.103131	0.113409	0.106865
O2	O	0.861069	0.113431	0.120165
O3	O	0.988750	0.113406	-0.007516
O4	O	0.975450	0.113435	0.234546
O5	O	0.988740	-0.113577	-0.007516
O6	O	0.861060	-0.113551	0.120164
O7	O	1.103122	-0.113573	0.106865
Zn8	Zn	0.982089	-0.149600	0.113515
Zn9	Zn	0.982102	0.149458	0.113515
O10	O	0.975441	-0.113547	0.234546
C11	C	0.830090	-0.000057	0.119626
C12	C	0.737794	-0.000049	0.118011
C13	C	0.515522	-0.000056	0.190018
C14	C	0.428801	-0.000065	0.188494
C15	C	0.448676	-0.000078	0.037006
C16	C	0.535394	-0.000078	0.038530
C17	C	0.568815	-0.000061	0.115039
C18	C	0.395376	-0.000069	0.111990
C19	C	0.301350	-0.000079	0.110337
C20	C	0.662847	-0.000054	0.116693
N21	N	0.982087	-0.353700	0.113514
C22	C	1.035698	-0.421488	0.059670
C23	C	1.035712	-0.578650	0.059667
C24	C	1.134101	-0.000082	0.107404
C25	C	1.226397	-0.000081	0.109019
N26	N	0.982111	0.353558	0.113509
C27	C	0.988206	-0.000086	-0.038491
C28	C	0.986591	-0.000088	-0.130786
C29	C	1.058599	-0.000073	-0.353059
C30	C	1.057075	-0.000061	-0.439779
C31	C	0.905586	-0.000053	-0.419905
C32	C	0.907111	-0.000055	-0.333186
C33	C	0.983620	-0.000071	-0.299766
C34	C	0.980571	-0.000058	-0.473205
C35	C	0.978918	-0.000046	-0.567231
C36	C	0.985273	-0.000081	-0.205734
C37	C	0.975984	-0.000053	0.265521
C38	C	0.977600	-0.000042	0.357816
H39	H	0.542730	-0.000052	0.252317
O40	O	1.141116	-0.000079	-0.317010
H41	H	1.145429	0.092429	-0.277966
H42	H	0.578788	-0.000086	-0.022530
O43	O	1.096486	-0.344272	-0.001403
H44	H	1.085731	-0.371642	-0.066179
H45	H	0.846050	-0.000049	-0.289792
H46	H	0.843295	-0.000042	-0.447127
H47	H	1.118130	-0.000060	-0.483168
H48	H	0.385413	-0.000064	0.249550
O49	O	1.096514	-0.655852	-0.001401
H50	H	1.086979	-0.767178	0.008175
O51	O	0.921298	-0.569234	0.174564
H52	H	0.956431	-0.504103	0.214833
O53	O	0.412631	-0.000087	-0.045513
H54	H	0.343376	-0.000073	-0.033979
O55	O	0.921302	-0.430918	0.174589
H56	H	0.880836	-0.496045	0.139675
