data_functionalizedCrystal
_audit_creation_method	'MofGen! by Chris Wilmer'
_symmetry_space_group_name_H-M	'P1'
_symmetry_Int_Tables_number	1
_symmetry_cell_setting	triclinic
loop_
_symmetry_equiv_pos_as_xyz
  x,y,z
_cell_length_a	16.956995
_cell_length_b	10.654551
_cell_length_c	9.130313
_cell_angle_alpha	90.002972
_cell_angle_beta	89.994076
_cell_angle_gamma	80.269917
loop_
_atom_site_label
_atom_site_type_symbol
_atom_site_fract_x
_atom_site_fract_y
_atom_site_fract_z
O1	O	1.058324	0.052009	-0.121897
O2	O	0.826410	0.096071	-0.121875
O3	O	0.947699	-0.109325	-0.121887
O4	O	0.937035	0.257406	-0.121885
O5	O	0.947690	-0.109313	0.121711
O6	O	0.826402	0.096084	0.121723
O7	O	1.058315	0.052022	0.121702
Cu8	Cu	0.942358	0.074054	0.143955
Cu9	Cu	0.942368	0.074039	-0.144129
O10	O	0.937027	0.257418	0.121714
C11	C	0.796711	0.098333	-0.000073
C12	C	0.708227	0.105041	-0.000065
C13	C	0.209204	0.155218	-0.000120
C14	C	0.292345	0.148906	-0.000119
C15	C	0.342777	0.030427	-0.000108
C16	C	0.310066	-0.081747	-0.000114
C17	C	0.226927	-0.075434	-0.000126
C18	C	0.592377	-0.000820	-0.000083
C19	C	0.675521	-0.007125	-0.000067
C20	C	0.657794	0.223529	-0.000074
C21	C	0.574654	0.229831	-0.000077
C22	C	0.541950	0.117658	-0.000090
N23	N	0.427760	0.023972	-0.000103
N24	N	0.456969	0.124114	-0.000107
C25	C	0.946911	-0.156025	-0.000091
C26	C	0.944568	-0.295193	-0.000101
C27	C	0.943474	-0.360583	-0.132884
C28	C	0.941265	-0.491343	-0.132877
C29	C	0.941250	-0.491315	0.132708
C30	C	0.943452	-0.360554	0.132699
C31	C	0.944590	-0.295221	-0.265684
C32	C	0.943496	-0.360611	-0.398478
C33	C	0.941288	-0.491372	-0.398471
C34	C	0.940173	-0.556743	-0.265670
C35	C	1.088015	0.049759	-0.000103
C36	C	1.176498	0.043052	-0.000121
C37	C	0.937814	0.304118	-0.000086
C38	C	0.940157	0.443286	-0.000086
N39	N	0.942357	0.074063	0.346578
N40	N	0.942375	0.074020	-0.346751
C41	C	0.991109	0.145208	0.423240
C42	C	0.991120	0.145183	0.576576
C43	C	0.893621	0.002866	0.576576
C44	C	0.893614	0.002884	0.423242
C45	C	1.039851	0.216386	0.346575
C46	C	1.088607	0.287538	0.423237
C47	C	1.088618	0.287514	0.576574
C48	C	1.039874	0.216337	0.653249
H49	H	0.533596	0.326310	-0.000090
C50	C	0.365540	-0.212071	-0.000099
H51	H	0.419739	-0.199769	-0.000075
H52	H	0.355567	-0.258435	-0.085044
H53	H	0.355543	-0.258406	0.084863
C54	C	0.840001	-0.075407	0.660915
H55	H	0.846981	-0.065218	0.763215
H56	H	0.854331	-0.162806	0.635769
H57	H	0.785600	-0.046463	0.635806
H58	H	0.940389	-0.544606	-0.506598
H59	H	0.938363	-0.663214	-0.265675
H60	H	0.565760	-0.092160	-0.000090
C61	C	0.839996	-0.075382	0.338902
H62	H	0.846983	-0.065190	0.236602
H63	H	0.785597	-0.046473	0.364040
H64	H	0.854346	-0.162789	0.364014
C65	C	0.153735	0.285546	-0.000139
H66	H	0.185125	0.351442	-0.000154
H67	H	0.120922	0.292821	0.084801
H68	H	0.120947	0.292787	-0.085107
H69	H	0.944327	-0.307308	0.240823
H70	H	0.940343	-0.544550	0.240828
H71	H	1.128296	0.345480	0.360798
C72	C	0.693770	0.346908	-0.000080
H73	H	0.750508	0.326185	-0.000085
H74	H	0.676495	0.395343	0.084859
H75	H	0.676512	0.395309	-0.085048
C76	C	0.944721	-0.288709	-0.544546
H77	H	0.946201	-0.201471	-0.525536
H78	H	0.897973	-0.295746	-0.599109
H79	H	0.990760	-0.324546	-0.599101
H80	H	1.039845	0.216417	0.221721
C81	C	0.328318	0.272288	-0.000099
H82	H	0.286375	0.343753	-0.000084
H83	H	0.360392	0.274625	-0.085040
H84	H	0.360372	0.274617	0.084867
C85	C	0.730996	-0.137457	-0.000083
H86	H	0.699612	-0.203361	-0.000112
H87	H	0.763792	-0.144719	0.084865
H88	H	0.763802	-0.144701	-0.085042
C89	C	1.142246	0.365774	0.660899
H90	H	1.171268	0.408172	0.593275
H91	H	1.178645	0.310567	0.720691
H92	H	1.109902	0.426892	0.720736
H93	H	0.200300	-0.166771	-0.000129
C94	C	1.039890	0.216298	0.821916
H95	H	1.003881	0.163716	0.856596
H96	H	1.023534	0.300733	0.856638
H97	H	1.092268	0.184395	0.856568
H98	H	0.946390	-0.188750	-0.265705
