data_functionalizedCrystal
_audit_creation_method	'MofGen! by Chris Wilmer'
_symmetry_space_group_name_H-M	'P1'
_symmetry_Int_Tables_number	1
_symmetry_cell_setting	triclinic
loop_
_symmetry_equiv_pos_as_xyz
  x,y,z
_cell_length_a	16.109301
_cell_length_b	19.188930
_cell_length_c	15.186229
_cell_angle_alpha	89.991143
_cell_angle_beta	89.999362
_cell_angle_gamma	83.303131
loop_
_atom_site_label
_atom_site_type_symbol
_atom_site_fract_x
_atom_site_fract_y
_atom_site_fract_z
O1	O	1.102833	0.089744	-0.073183
O2	O	1.602833	0.589744	0.426817
O3	O	0.860734	0.100912	-0.073198
O4	O	1.360734	0.600912	0.426802
O5	O	0.988770	-0.006311	-0.073173
O6	O	1.488770	0.493689	0.426827
O7	O	0.974797	0.196967	-0.073208
O8	O	1.474797	0.696967	0.426792
O9	O	0.988762	-0.006313	0.073284
O10	O	1.488762	0.493687	0.573284
O11	O	0.860726	0.100911	0.073259
O12	O	1.360726	0.600911	0.573259
O13	O	1.102825	0.089742	0.073274
O14	O	1.602825	0.589742	0.573274
Zn15	Zn	0.981774	0.095326	0.096520
Zn16	Zn	1.481774	0.595326	0.596520
Zn17	Zn	0.981785	0.095328	-0.096444
Zn18	Zn	1.481785	0.595328	0.403556
O19	O	0.974789	0.196966	0.073249
O20	O	1.474789	0.696966	0.573249
C21	C	0.829757	0.100459	0.000029
C22	C	1.329757	0.600459	0.500029
C23	C	0.737466	0.099103	0.000024
C24	C	1.237466	0.599103	0.500024
C25	C	0.514993	0.159573	0.000023
C26	C	1.014993	0.659573	0.500023
C27	C	0.428277	0.158294	0.000029
C28	C	0.928277	0.658294	0.500029
C29	C	0.448573	0.031076	0.000048
C30	C	0.948573	0.531076	0.500048
C31	C	0.535287	0.032357	0.000048
C32	C	1.035287	0.532357	0.500048
C33	C	0.568495	0.096608	0.000031
C34	C	1.068495	0.596608	0.500031
C35	C	0.395064	0.094047	0.000037
C36	C	0.895064	0.594047	0.500037
C37	C	0.301043	0.092659	0.000043
C38	C	0.801043	0.592659	0.500043
C39	C	0.662522	0.097996	0.000027
C40	C	1.162522	0.597996	0.500027
C41	C	0.988313	-0.032324	0.000058
C42	C	1.488313	0.467676	0.500058
C43	C	0.986955	-0.109832	0.000066
C44	C	1.486955	0.390168	0.500066
C45	C	1.062082	-0.154580	0.000075
C46	C	1.562082	0.345420	0.500075
C47	C	1.060806	-0.227407	0.000060
C48	C	1.560806	0.272593	0.500060
C49	C	0.984399	-0.255482	0.000055
C50	C	1.484399	0.244518	0.500055
C51	C	0.909261	-0.210724	0.000041
C52	C	1.409261	0.289276	0.500041
C53	C	0.910540	-0.137899	0.000046
C54	C	1.410540	0.362101	0.500046
N55	N	0.925991	-0.363624	0.049893
N56	N	1.425991	0.136376	0.549893
N57	N	0.924782	-0.432805	0.049890
N58	N	1.424782	0.067195	0.549890
C59	C	0.980543	-0.474900	0.000037
C60	C	1.480543	0.025100	0.500037
N61	N	1.037571	-0.445200	-0.049802
N62	N	1.537571	0.054800	0.450198
N63	N	1.038783	-0.376013	-0.049795
N64	N	1.538783	0.123987	0.450205
C65	C	0.983004	-0.334448	0.000049
C66	C	1.483004	0.165552	0.500049
C67	C	1.054292	-0.598616	0.000029
C68	C	1.554292	-0.098616	0.500029
C69	C	1.053012	-0.671443	0.000010
C70	C	1.553012	-0.171443	0.500010
C71	C	0.901465	-0.654759	-0.000001
C72	C	1.401465	-0.154759	0.499999
C73	C	0.902747	-0.581933	0.000010
C74	C	1.402747	-0.081933	0.500010
C75	C	0.979162	-0.553866	0.000029
C76	C	1.479162	-0.053866	0.500029
C77	C	1.133802	0.090196	0.000045
C78	C	1.633802	0.590196	0.500045
C79	C	1.226093	0.091552	0.000045
C80	C	1.726093	0.591552	0.500045
C81	C	0.975246	0.222979	0.000016
C82	C	1.475246	0.722979	0.500016
C83	C	0.976604	0.300486	0.000003
C84	C	1.476604	0.800486	0.500003
N85	N	0.981772	0.095325	0.228213
N86	N	1.481772	0.595325	0.728213
N87	N	0.981793	0.095325	-0.228137
N88	N	1.481793	0.595325	0.271863
C89	C	1.038486	0.047862	0.453947
C90	C	1.538486	0.547862	0.953947
C91	C	1.038488	0.047860	0.546136
C92	C	1.538488	0.547860	1.046136
C93	C	0.925074	0.142790	0.546123
C94	C	1.425074	0.642790	1.046123
C95	C	0.925068	0.142787	0.453935
C96	C	1.425068	0.642787	0.953935
C97	C	0.981779	0.095324	0.407849
C98	C	1.481779	0.595324	0.907849
C99	C	0.981787	0.095325	0.592227
C100	C	1.481787	0.595325	1.092227
C101	C	0.981790	0.095323	0.692183
C102	C	1.481790	0.595323	1.192183
C103	C	0.981775	0.095325	0.307887
C104	C	1.481775	0.595325	0.807887
H105	H	0.421524	-0.021234	0.000066
H106	H	0.921524	0.478766	0.500066
H107	H	1.084664	0.009211	0.583666
H108	H	1.584664	0.509211	1.083666
C109	C	1.145019	-0.124066	0.000264
C110	C	1.645019	0.375934	0.500264
C111	C	1.150186	-0.082769	0.075625
C112	C	1.650186	0.417231	0.575625
C113	C	1.226579	-0.054653	0.075832
C114	C	1.726579	0.445347	0.575832
H115	H	1.148752	-0.095949	-0.050748
H116	H	1.648752	0.404051	0.449252
H117	H	1.189607	-0.161131	0.000313
H118	H	1.689607	0.338869	0.500313
H119	H	1.105611	-0.045709	0.075568
H120	H	1.605611	0.454291	0.575568
H121	H	1.146468	-0.110870	0.126650
H122	H	1.646468	0.389130	0.626650
H123	H	1.271166	-0.091718	0.075881
H124	H	1.771166	0.408282	0.575881
H125	H	1.230305	-0.026540	0.024817
H126	H	1.730305	0.473460	0.524817
H127	H	1.230098	-0.026635	0.126967
H128	H	1.730098	0.473365	0.626967
H129	H	0.878886	0.181437	0.416400
H130	H	1.378886	0.681437	0.916400
C131	C	1.142288	-0.276119	0.000034
C132	C	1.642288	0.223881	0.500034
C133	C	1.124810	-0.345903	0.000007
C134	C	1.624810	0.154097	0.500007
C135	C	1.199849	-0.390793	-0.000027
C136	C	1.699849	0.109207	0.499973
H137	H	1.173681	-0.267709	0.051100
H138	H	1.673681	0.232291	0.551100
H139	H	1.173648	-0.267649	-0.051052
H140	H	1.673648	0.232351	0.448948
H141	H	1.093464	-0.354369	0.051088
H142	H	1.593464	0.145631	0.551088
H143	H	1.093429	-0.354335	-0.051056
H144	H	1.593429	0.145665	0.448944
H145	H	1.231210	-0.382323	-0.051113
H146	H	1.731210	0.117677	0.448887
H147	H	1.231237	-0.382377	0.051040
H148	H	1.731237	0.117623	0.551040
H149	H	1.188001	-0.438146	-0.000053
H150	H	1.688001	0.061854	0.499947
C151	C	1.100105	-0.003578	0.403840
C152	C	1.600105	0.496422	0.903840
C153	C	1.150879	0.033597	0.350890
C154	C	1.650879	0.533597	0.850890
C155	C	1.207642	-0.013776	0.304721
C156	C	1.707642	0.486224	0.804721
H157	H	1.070359	-0.032649	0.367831
H158	H	1.570359	0.467351	0.867831
H159	H	1.133927	-0.031853	0.444454
H160	H	1.633927	0.468147	0.944454
H161	H	1.117062	0.061860	0.310281
H162	H	1.617062	0.561860	0.810281
H163	H	1.180644	0.062665	0.386877
H164	H	1.680644	0.562665	0.886877
H165	H	1.241464	-0.042051	0.345335
H166	H	1.741464	0.457949	0.845335
H167	H	1.177889	-0.042844	0.268717
H168	H	1.677889	0.457156	0.768717
H169	H	1.242104	0.011440	0.268796
H170	H	1.742104	0.511440	0.768796
H171	H	0.847050	-0.233587	0.000035
H172	H	1.347050	0.266413	0.500035
H173	H	0.849360	-0.101464	0.000039
H174	H	1.349360	0.398536	0.500039
C175	C	1.137338	-0.568272	-0.000013
C176	C	1.637338	-0.068272	0.499987
C177	C	1.202861	-0.623053	-0.000044
C178	C	1.702861	-0.123053	0.499956
C179	C	1.279374	-0.595130	-0.000098
C180	C	1.779374	-0.095130	0.499902
H181	H	1.141109	-0.540229	0.051048
H182	H	1.641109	-0.040229	0.551048
H183	H	1.141028	-0.540221	-0.051104
H184	H	1.641028	-0.040221	0.448896
H185	H	1.199172	-0.651092	0.051042
H186	H	1.699172	-0.151092	0.551042
H187	H	1.199118	-0.651100	-0.051101
H188	H	1.699118	-0.151100	0.448899
H189	H	1.283065	-0.567078	-0.051190
H190	H	1.783065	-0.067078	0.448810
H191	H	1.283137	-0.567087	0.050963
H192	H	1.783137	-0.067087	0.550963
H193	H	1.323841	-0.632294	-0.000128
H194	H	1.823841	-0.132294	0.499872
H195	H	1.114193	-0.707878	0.000012
H196	H	1.614193	-0.207878	0.500012
C197	C	0.818591	-0.685366	0.000032
C198	C	1.318591	-0.185366	0.500032
C199	C	0.833549	-0.758722	0.000047
C200	C	1.333549	-0.258722	0.500047
C201	C	0.757224	-0.786945	0.000084
C202	C	1.257224	-0.286945	0.500084
H203	H	0.787610	-0.670071	-0.051029
H204	H	1.287610	-0.170071	0.448971
H205	H	0.787655	-0.670054	0.051124
H206	H	1.287655	-0.170054	0.551124
H207	H	0.864472	-0.774028	-0.051039
H208	H	1.364472	-0.274028	0.448961
H209	H	0.864518	-0.774037	0.051104
H210	H	1.364518	-0.274037	0.551104
H211	H	0.726287	-0.771632	0.051175
H212	H	1.226287	-0.271632	0.551175
H213	H	0.726248	-0.771644	-0.050978
H214	H	1.226248	-0.271644	0.449022
H215	H	0.767362	-0.836719	0.000102
H216	H	1.267362	-0.336719	0.500102
C217	C	0.863604	0.194293	0.596320
C218	C	1.363604	0.694293	1.096320
C219	C	0.875761	0.184152	0.686922
C220	C	1.375761	0.684152	1.186922
C221	C	0.819159	0.231593	0.733189
C222	C	1.319159	0.731593	1.233189
H223	H	0.808108	0.186745	0.581327
H224	H	1.308108	0.686745	1.081327
H225	H	0.872471	0.240907	0.581249
H226	H	1.372471	0.740907	1.081249
H227	H	0.866888	0.137549	0.701987
H228	H	1.366888	0.637549	1.201987
H229	H	0.931246	0.191706	0.701941
H230	H	1.431246	0.691706	1.201941
H231	H	0.828026	0.278207	0.718117
H232	H	1.328026	0.778207	1.218117
H233	H	0.763667	0.224040	0.718188
H234	H	1.263667	0.724040	1.218188
H235	H	0.827406	0.224723	0.794666
H236	H	1.327406	0.724723	1.294666
H237	H	0.841570	-0.545497	0.000008
H238	H	1.341570	-0.045497	0.500008
H239	H	0.384719	0.209567	0.000024
H240	H	0.884719	0.709567	0.500024
H241	H	0.578851	-0.018920	0.000057
H242	H	1.078851	0.481080	0.500057
H243	H	0.542027	0.211890	0.000016
H244	H	1.042027	0.711890	0.500016
