data_functionalizedCrystal
_audit_creation_method	'MofGen! by Chris Wilmer'
_symmetry_space_group_name_H-M	'P1'
_symmetry_Int_Tables_number	1
_symmetry_cell_setting	triclinic
loop_
_symmetry_equiv_pos_as_xyz
  x,y,z
_cell_length_a	13.897448
_cell_length_b	13.897449
_cell_length_c	14.908308
_cell_angle_alpha	93.279088
_cell_angle_beta	93.267188
_cell_angle_gamma	90.018972
loop_
_atom_site_label
_atom_site_type_symbol
_atom_site_fract_x
_atom_site_fract_y
_atom_site_fract_z
Zn1	Zn	-0.415437	1.443197	-0.510067
Zn2	Zn	-0.082104	1.776530	-0.176734
Zn3	Zn	0.251229	2.109864	0.156599
Zn4	Zn	-0.567447	1.452409	-0.359213
Zn5	Zn	-0.234113	1.785742	-0.025880
Zn6	Zn	0.099220	2.119076	0.307454
Zn7	Zn	-0.406172	1.291203	-0.359229
Zn8	Zn	-0.072839	1.624536	-0.025895
Zn9	Zn	0.260495	1.957870	0.307438
Zn10	Zn	-0.576693	1.281871	-0.510024
Zn11	Zn	-0.243360	1.615204	-0.176691
Zn12	Zn	0.089974	1.948537	0.156642
O13	O	-0.491437	1.367170	-0.434633
O14	O	-0.158104	1.700503	-0.101300
O15	O	0.175229	2.033837	0.232033
O16	O	-0.435610	1.579400	-0.490067
O17	O	-0.102276	1.912733	-0.156734
O18	O	0.231057	2.246067	0.176599
O19	O	-0.538306	1.438786	-0.232973
O20	O	-0.204973	1.772119	0.100360
O21	O	0.128360	2.105452	0.433693
O22	O	-0.272421	1.311416	-0.379262
O23	O	0.060912	1.644749	-0.045929
O24	O	0.394246	1.978083	0.287404
O25	O	-0.547290	1.586168	-0.379235
O26	O	-0.213957	1.919501	-0.045902
O27	O	0.119376	2.252834	0.287431
O28	O	-0.279228	1.423085	-0.490083
O29	O	0.054105	1.756419	-0.156750
O30	O	0.387439	2.089752	0.176584
O31	O	-0.419818	1.320348	-0.232985
O32	O	-0.086485	1.653682	0.100348
O33	O	0.246848	1.987015	0.433682
O34	O	-0.428784	1.154984	-0.379221
O35	O	-0.095451	1.488318	-0.045887
O36	O	0.237883	1.821651	0.287446
O37	O	-0.563049	1.295510	-0.636271
O38	O	-0.229716	1.628843	-0.302938
O39	O	0.103618	1.962177	0.030395
O40	O	-0.554065	1.148128	-0.490010
O41	O	-0.220732	1.481461	-0.156676
O42	O	0.112602	1.814794	0.176657
O43	O	-0.444575	1.414036	-0.636303
O44	O	-0.111242	1.747369	-0.302970
O45	O	0.222091	2.080702	0.030364
O46	O	-0.703653	1.429736	-0.379194
O47	O	-0.370320	1.763069	-0.045860
O48	O	-0.036987	2.096403	0.287473
O49	O	-0.710447	1.304442	-0.489994
O50	O	-0.377113	1.637776	-0.156661
O51	O	-0.043780	1.971109	0.176673
C52	C	-0.491423	1.116557	-0.434613
C53	C	-0.158090	1.449890	-0.101279
C54	C	0.175244	1.783223	0.232054
C55	C	-0.491442	1.009342	-0.434625
C56	C	-0.158108	1.342675	-0.101292
C57	C	0.175225	1.676009	0.232041
C58	C	-0.491446	0.813046	-0.434649
C59	C	-0.158113	1.146379	-0.101316
C60	C	0.175220	1.479712	0.232018
C61	C	-0.491441	0.922279	-0.434633
C62	C	-0.158107	1.255612	-0.101300
C63	C	0.175226	1.588946	0.232033
C64	C	-0.742050	1.367101	-0.434607
C65	C	-0.408717	1.700434	-0.101274
C66	C	-0.075383	2.033768	0.232059
C67	C	-0.849265	1.367158	-0.434626
C68	C	-0.515932	1.700491	-0.101293
C69	C	-0.182598	2.033825	0.232041
C70	C	-1.045564	1.367256	-0.434683
C71	C	-0.712230	1.700589	-0.101349
C72	C	-0.378897	2.033922	0.231984
C73	C	-0.936329	1.367199	-0.434654
C74	C	-0.602996	1.700532	-0.101321
C75	C	-0.269663	2.033865	0.232013
C76	C	-0.239847	1.367264	-0.434679
C77	C	0.093486	1.700597	-0.101346
C78	C	0.426820	2.033931	0.231987
C79	C	-0.132634	1.367304	-0.434699
C80	C	0.200699	1.700637	-0.101365
C81	C	0.534032	2.033971	0.231968
C82	C	-0.505877	1.352704	-0.669936
C83	C	-0.172544	1.686038	-0.336602
C84	C	0.160790	2.019371	-0.003269
C85	C	-0.512030	1.346540	-0.770207
C86	C	-0.178697	1.679873	-0.436874
C87	C	0.154636	2.013207	-0.103541
C88	C	-0.491452	1.618761	-0.434654
C89	C	-0.158119	1.952095	-0.101321
C90	C	0.175214	2.285428	0.232012
C91	C	-0.491459	1.725975	-0.434663
C92	C	-0.158125	2.059308	-0.101330
C93	C	0.175208	2.392642	0.232003
C94	C	-0.400204	1.458375	-0.958663
C95	C	-0.066871	1.791708	-0.625330
C96	C	0.266463	2.125041	-0.291997
C97	C	-0.405982	1.452586	-1.052878
C98	C	-0.072649	1.785919	-0.719544
C99	C	0.260684	2.119252	-0.386211
C100	C	-0.529360	1.329169	-1.052852
C101	C	-0.196026	1.662502	-0.719519
C102	C	0.137307	1.995835	-0.386185
C103	C	-0.523582	1.334958	-0.958638
C104	C	-0.190248	1.668291	-0.625304
C105	C	0.143085	2.001624	-0.291971
C106	C	-0.459002	1.399564	-0.911547
C107	C	-0.125669	1.732897	-0.578213
C108	C	0.207664	2.066230	-0.244880
C109	C	-0.453230	1.405357	-0.817331
C110	C	-0.119896	1.738690	-0.483997
C111	C	0.213437	2.072024	-0.150664
C112	C	-0.576602	1.281936	-0.817307
C113	C	-0.243268	1.615269	-0.483973
C114	C	0.090065	1.948603	-0.150640
C115	C	-0.582380	1.276147	-0.911521
C116	C	-0.249047	1.609480	-0.578188
C117	C	0.084287	1.942814	-0.244854
C118	C	-0.476984	1.381635	-0.200246
C119	C	-0.143651	1.714968	0.133087
C120	C	0.189683	2.048301	0.466420
C121	C	-0.470559	1.387986	-0.099975
C122	C	-0.137226	1.721319	0.233358
C123	C	0.196108	2.054653	0.566691
H124	H	-0.400647	1.457964	-0.778990
H125	H	-0.067314	1.791297	-0.445657
H126	H	0.266019	2.124631	-0.112324
H127	H	-0.347626	1.510984	-0.920321
H128	H	-0.014293	1.844318	-0.586988
H129	H	0.319041	2.177651	-0.253654
H130	H	-0.358100	1.500473	-1.091236
H131	H	-0.024767	1.833806	-0.757903
H132	H	0.308567	2.167140	-0.424570
Cl133	Cl	-0.610531	1.247950	-1.112067
Cl134	Cl	-0.277197	1.581284	-0.778734
Cl135	Cl	0.056136	1.914617	-0.445401
H136	H	-0.634956	1.223545	-0.949875
H137	H	-0.301623	1.556878	-0.616542
H138	H	0.031710	1.890212	-0.283209
H139	H	-0.624482	1.234050	-0.778934
H140	H	-0.291149	1.567384	-0.445601
H141	H	0.042184	1.900717	-0.112268
