data_functionalizedCrystal
_audit_creation_method	'MofGen! by Chris Wilmer'
_symmetry_space_group_name_H-M	'P1'
_symmetry_Int_Tables_number	1
_symmetry_cell_setting	triclinic
loop_
_symmetry_equiv_pos_as_xyz
  x,y,z
_cell_length_a	19.188930
_cell_length_b	19.188924
_cell_length_c	14.185569
_cell_angle_alpha	76.888872
_cell_angle_beta	103.095687
_cell_angle_gamma	83.143372
loop_
_atom_site_label
_atom_site_type_symbol
_atom_site_fract_x
_atom_site_fract_y
_atom_site_fract_z
O1	O	0.910195	0.103108	-0.083741
O2	O	0.706896	0.114829	-0.083672
O3	O	0.814417	0.007311	-0.083697
O4	O	0.802674	0.210626	-0.083716
O5	O	0.846179	-0.024448	0.083131
O6	O	0.738658	0.083071	0.083155
O7	O	0.941957	0.071349	0.083087
Cu8	Cu	0.843208	0.074310	0.098354
Cu9	Cu	0.805645	0.111868	-0.098939
O10	O	0.834436	0.178868	0.083111
C11	C	0.696768	0.098568	-0.000250
C12	C	0.619268	0.097422	-0.000223
C13	C	0.574339	0.160518	-0.000245
C14	C	0.501513	0.159448	-0.000256
C15	C	0.473616	0.095283	-0.000265
C16	C	0.518557	0.032179	-0.000238
C17	C	0.591383	0.033248	-0.000217
N18	N	0.354820	0.057052	-0.057080
N19	N	0.285637	0.056041	-0.057102
C20	C	0.254196	0.092057	-0.000326
N21	N	0.294547	0.129136	0.056459
N22	N	0.363735	0.130150	0.056477
C23	C	0.394649	0.094117	-0.000288
C24	C	0.130300	0.153996	-0.000359
C25	C	0.057474	0.152923	-0.000363
C26	C	0.074518	0.025654	-0.000355
C27	C	0.147344	0.026727	-0.000340
C28	C	0.175229	0.090901	-0.000347
C29	C	0.829919	-0.034580	-0.000282
C30	C	0.828781	-0.112085	-0.000279
C31	C	0.810935	-0.131173	-0.091217
C32	C	0.809854	-0.203994	-0.091224
C33	C	0.826633	-0.257728	-0.000288
C34	C	0.844477	-0.238634	0.090661
C35	C	0.845551	-0.165812	0.090666
N36	N	0.877564	-0.390273	0.067380
N37	N	0.876545	-0.459449	0.067369
C38	C	0.823397	-0.477136	-0.000297
N39	N	0.771314	-0.423030	-0.067967
N40	N	0.772337	-0.353848	-0.067960
C41	C	0.825470	-0.336693	-0.000283
C42	C	0.804378	-0.575183	-0.091249
C43	C	0.803293	-0.648006	-0.091252
C44	C	0.837923	-0.682645	0.090636
C45	C	0.839000	-0.609823	0.090637
C46	C	0.822230	-0.556096	-0.000308
C47	C	0.952085	0.087611	-0.000338
C48	C	1.029583	0.088758	-0.000371
C49	C	0.818934	0.220759	-0.000306
C50	C	0.820071	0.298265	-0.000316
N51	N	0.869633	0.047893	0.237119
N52	N	0.779226	0.138279	-0.237704
C53	C	0.701590	0.215862	0.604806
C54	C	0.721611	0.195856	0.709823
C55	C	0.816840	0.100683	0.709763
C56	C	0.796824	0.120679	0.604744
C57	C	0.739199	0.178269	0.552274
C58	C	0.834434	0.083086	0.552211
C59	C	0.814422	0.103083	0.447201
C60	C	0.756801	0.160672	0.394724
C61	C	0.719187	0.198265	0.447264
C62	C	0.892062	0.025500	0.604683
C63	C	0.929671	-0.012093	0.552151
C64	C	0.909656	0.007900	0.447139
C65	C	0.852035	0.065489	0.394661
C66	C	0.947269	-0.029693	0.394599
C67	C	0.927258	-0.009697	0.289589
C68	C	0.832023	0.085486	0.289651
H69	H	0.051793	-0.026578	-0.000425
F70	F	0.857994	-0.589508	0.187426
H71	H	0.690980	0.226474	0.752590
H72	H	0.788757	-0.663542	-0.165307
H73	H	0.495836	-0.020062	-0.000259
F74	F	0.855777	-0.739828	0.187417
F75	F	0.878169	0.039395	0.765614
F76	F	0.913360	0.004224	0.716446
H77	H	0.785094	0.132377	0.246928
H78	H	0.153008	0.206248	-0.000349
H79	H	0.654661	0.262752	0.562083
H80	H	0.976592	-0.058982	0.594884
H81	H	0.672258	0.245156	0.404541
F82	F	0.195162	-0.040427	-0.000322
F83	F	0.639202	-0.033909	-0.000194
H84	H	0.994193	-0.076579	0.437333
H85	H	0.020894	0.204304	-0.000375
F86	F	0.967289	-0.049706	0.233679
H87	H	0.795318	-0.219538	-0.165278
F88	F	0.735506	0.181956	0.282961
H89	H	0.597038	0.212773	-0.000253
F90	F	0.864543	-0.145499	0.187459
F91	F	0.793084	-0.073996	-0.188009
F92	F	0.862330	-0.295822	0.187442
F93	F	0.453687	0.226605	-0.000277
F94	F	0.786525	-0.518000	-0.188039
