data_functionalizedCrystal
_audit_creation_method	'MofGen! by Chris Wilmer'
_symmetry_space_group_name_H-M	'P1'
_symmetry_Int_Tables_number	1
_symmetry_cell_setting	triclinic
loop_
_symmetry_equiv_pos_as_xyz
  x,y,z
_cell_length_a	14.628931
_cell_length_b	14.560438
_cell_length_c	14.560438
_cell_angle_alpha	59.996693
_cell_angle_beta	90.000856
_cell_angle_gamma	60.001363
loop_
_atom_site_label
_atom_site_type_symbol
_atom_site_fract_x
_atom_site_fract_y
_atom_site_fract_z
Zr1	Zr	0.880622	1.005316	-0.120593
O2	O	0.734659	1.196926	-0.267253
O3	O	0.925367	0.813707	-0.075625
O4	O	0.925363	1.005318	-0.267241
O5	O	0.734666	1.005313	0.075504
O6	O	1.075795	1.005318	-0.267242
O7	O	0.734662	1.005315	-0.075637
O8	O	1.075801	0.662561	0.075526
O9	O	0.734660	1.348070	-0.267263
O10	O	1.056716	0.892518	-0.056457
O11	O	0.944454	0.892516	0.056338
O12	O	0.944450	1.118114	-0.169266
O13	O	0.832187	1.118112	-0.056471
Zr14	Zr	1.120550	1.005312	0.120459
Zr15	Zr	1.120544	1.005316	-0.120593
Zr16	Zr	0.880628	1.005312	0.120460
Zr17	Zr	0.880624	1.246373	-0.120608
Zr18	Zr	1.120548	0.764255	0.120475
O19	O	1.075805	1.196921	0.075491
O20	O	1.075796	1.196926	-0.267254
O21	O	0.734668	1.196921	0.075492
O22	O	1.266513	0.813701	0.267120
O23	O	1.266504	0.813707	-0.075625
O24	O	0.925375	0.813701	0.267120
O25	O	1.266506	1.005315	-0.075638
O26	O	1.075809	1.005309	0.267108
O27	O	0.925377	1.005309	0.267108
O28	O	1.266509	1.005313	0.075503
O29	O	0.925366	1.348070	-0.267263
O30	O	1.075806	0.662557	0.267130
O31	O	1.266512	0.662557	0.267129
O32	O	1.266507	0.662561	0.075525
O33	O	0.734665	1.348067	-0.075659
O34	O	0.925371	1.348067	-0.075659
O35	O	1.056722	0.892514	0.169132
O36	O	1.168985	0.892516	0.056338
O37	O	1.056718	1.118112	-0.056471
O38	O	0.944455	1.118110	0.056324
C39	C	1.000584	0.703788	-0.000047
C40	C	1.000583	0.601453	-0.000041
C41	C	0.917705	0.636669	-0.083323
C42	C	0.917709	0.540529	-0.083352
C43	C	1.083475	0.373959	0.083194
C44	C	1.083474	0.470098	0.083217
C45	C	0.700481	1.005314	-0.000066
C46	C	0.598628	1.005314	-0.000066
C47	C	0.553216	1.005315	-0.079196
C48	C	0.447946	1.005315	-0.079198
C49	C	1.300691	1.005314	-0.000067
C50	C	1.402544	1.005314	-0.000068
C51	C	1.000578	1.005319	-0.301586
C52	C	1.000576	1.005321	-0.403919
C53	C	1.000588	1.306839	-0.000086
C54	C	1.000589	1.409174	-0.000093
C55	C	0.941975	1.123077	-0.510880
C56	C	0.941988	1.123071	-0.607029
C57	C	1.059204	0.887541	-0.489242
C58	C	1.059197	0.887549	-0.393095
C59	C	1.000594	1.005309	0.301453
C60	C	1.000596	1.005307	0.403786
C61	C	1.300689	0.703788	-0.000048
C62	C	1.402541	0.601453	-0.000042
C63	C	1.000591	0.703783	0.301472
C64	C	1.000593	0.601446	0.403812
C65	C	1.300697	0.703783	0.301472
C66	C	1.402551	0.601446	0.403811
C67	C	0.700475	1.306844	-0.301605
C68	C	0.598620	1.409181	-0.403944
C69	C	0.700483	1.306839	-0.000085
C70	C	0.598631	1.409174	-0.000092
C71	C	1.000580	1.306844	-0.301606
C72	C	1.000579	1.409181	-0.403945
C73	C	1.391791	0.553375	-0.058914
C74	C	1.487496	0.457228	-0.058912
C75	C	1.604697	0.457243	0.058844
C76	C	1.508993	0.553395	0.058834
C77	C	1.059196	0.553366	0.510769
C78	C	1.059185	0.457218	0.606924
C79	C	0.941967	0.457238	0.489151
C80	C	0.941972	0.553390	0.392999
C81	C	1.509003	0.553367	0.393015
C82	C	1.604703	0.457219	0.489178
C83	C	1.487485	0.457235	0.606928
C84	C	1.391788	0.553387	0.510767
H85	H	0.850203	0.743621	-0.151111
H86	H	1.305104	0.592538	0.519565
H87	H	1.150962	0.267001	0.150981
O88	O	1.477193	0.410296	-0.115930
C89	C	1.529028	0.275566	-0.040323
H90	H	1.594251	0.234793	0.037170
H91	H	1.571519	0.225744	-0.083031
H92	H	1.463233	0.257216	-0.013970
H93	H	0.408891	1.005323	-0.146949
H94	H	1.106903	0.418077	0.694009
H95	H	1.106925	0.592495	0.519579
H96	H	1.150970	0.441413	0.151038
H97	H	0.850223	0.569214	-0.151170
H98	H	1.691380	0.418100	0.106780
H99	H	1.106923	0.791652	-0.305996
O100	O	1.288469	0.599964	-0.116208
C101	C	1.299510	0.536883	-0.168146
H102	H	1.384909	0.497268	-0.179800
H103	H	1.230872	0.609009	-0.253679
H104	H	1.291676	0.453366	-0.112959
H105	H	0.894242	1.218974	-0.519700
H106	H	0.592274	1.005309	-0.146939
H107	H	1.517755	0.592544	0.106775
H108	H	0.441586	1.005320	0.067680
O109	O	0.552057	1.005487	0.080730
C110	C	0.519671	1.117389	0.075448
H111	H	0.570622	1.154692	0.033209
H112	H	0.535370	1.092227	0.164211
H113	H	0.426836	1.195734	0.024658
H114	H	0.894271	1.218960	-0.694119
H115	H	1.517772	0.592497	0.305930
H116	H	0.894241	0.418096	0.480361
H117	H	0.894245	0.592541	0.305903
O118	O	1.708025	0.410614	0.478490
C119	C	1.696996	0.473680	0.363468
H120	H	1.611598	0.513298	0.312187
H121	H	1.765636	0.401542	0.350081
H122	H	1.704838	0.557193	0.335125
O123	O	1.116041	0.773258	-0.478929
C124	C	1.103440	0.798492	-0.586723
H125	H	1.024265	0.899682	-0.650446
H126	H	1.096739	0.723254	-0.585609
H127	H	1.179125	0.792944	-0.611278
O128	O	1.477181	0.410559	0.710886
C129	C	1.529010	0.434082	0.770014
H130	H	1.594228	0.446052	0.733296
H131	H	1.571504	0.348674	0.862553
H132	H	1.463209	0.526539	0.762007
