data_functionalizedCrystal
_audit_creation_method	'MofGen! by Chris Wilmer'
_symmetry_space_group_name_H-M	'P1'
_symmetry_Int_Tables_number	1
_symmetry_cell_setting	triclinic
loop_
_symmetry_equiv_pos_as_xyz
  x,y,z
_cell_length_a	6.394989
_cell_length_b	16.109301
_cell_length_c	14.586319
_cell_angle_alpha	90.005214
_cell_angle_beta	90.002985
_cell_angle_gamma	84.979596
loop_
_atom_site_label
_atom_site_type_symbol
_atom_site_fract_x
_atom_site_fract_y
_atom_site_fract_z
O1	O	-2.771399	-0.136204	-0.076235
O2	O	-2.163266	-0.143066	-0.076239
O3	O	-2.484039	-0.018781	-0.076227
O4	O	-2.450627	-0.260489	-0.076246
O5	O	-2.484017	-0.018778	0.076253
O6	O	-2.163244	-0.143063	0.076242
O7	O	-2.771377	-0.136202	0.076246
Cu8	Cu	-2.467308	-0.139632	0.090167
Cu9	Cu	-2.467335	-0.139635	-0.090160
O10	O	-2.450605	-0.260487	0.076234
C11	C	-2.482674	0.012210	0.000013
C12	C	-2.478617	0.104548	0.000015
C13	C	-2.451969	-0.291477	-0.000008
C14	C	-2.456027	-0.383815	-0.000016
N15	N	-2.467305	-0.139630	0.216998
C16	C	-2.085435	-0.141708	0.000006
C17	C	-1.849203	-0.137562	0.000010
N18	N	-2.467355	-0.139631	-0.216991
C19	C	-2.659522	0.324905	0.000001
C20	C	-2.655693	0.411666	-0.000006
C21	C	-2.275107	0.395821	-0.000005
C22	C	-2.278938	0.309061	-0.000004
C23	C	-2.471152	0.273606	0.000004
C24	C	-2.463492	0.447126	-0.000005
C25	C	-2.459339	0.541196	-0.000013
C26	C	-2.475306	0.179530	0.000010
C27	C	-2.609390	-0.084616	0.452010
C28	C	-2.609396	-0.084614	0.547991
C29	C	-2.325254	-0.194647	0.547990
C30	C	-2.325240	-0.194644	0.452011
C31	C	-2.467320	-0.139630	0.404023
C32	C	-2.467340	-0.139631	0.595984
C33	C	-2.467346	-0.139629	0.700051
C34	C	-2.467312	-0.139630	0.299949
H35	H	-2.809083	0.453431	-0.000010
O36	O	-2.096082	0.259137	0.000120
C37	C	-2.086883	0.208497	0.079101
H38	H	-2.252671	0.202384	0.105431
H39	H	-1.991486	0.238023	0.134399
C40	C	-1.778126	0.129058	0.022769
C41	C	-1.981751	0.121545	0.055104
H42	H	-1.713268	0.075423	0.007969
H43	H	-1.784317	0.163177	-0.030440
H44	H	-1.698655	0.153667	0.068857
H45	H	-2.061226	0.096947	0.009012
H46	H	-1.975571	0.087420	0.108305
O47	O	-2.186967	-0.248002	0.594569
C48	C	-1.980217	-0.232285	0.571114
H49	H	-1.979244	-0.165709	0.544737
H50	H	-1.918821	-0.277711	0.515401
C51	C	-1.839820	-0.325459	0.688780
C52	C	-1.838622	-0.243686	0.656390
H53	H	-1.752473	-0.332494	0.741380
H54	H	-1.979110	-0.336050	0.704580
H55	H	-1.788661	-0.363304	0.642344
H56	H	-1.889805	-0.205843	0.702821
H57	H	-1.699336	-0.233088	0.640599
H58	H	-2.118613	0.424699	-0.000010
O59	O	-2.747466	-0.031093	0.405536
C60	C	-2.872893	0.017450	0.468477
H61	H	-2.787268	0.019301	0.536899
H62	H	-3.028035	-0.011204	0.478673
C63	C	-3.021162	0.104408	0.346994
C64	C	-2.915988	0.106688	0.431028
H65	H	-3.047755	0.159454	0.323893
H66	H	-2.936666	0.071703	0.304588
H67	H	-3.150436	0.080527	0.355502
H68	H	-2.786706	0.130559	0.422517
H69	H	-3.000463	0.139400	0.473432
O70	O	-2.747121	-0.031091	0.594646
C71	C	-2.635317	0.021388	0.650192
H72	H	-2.470598	0.024556	0.621275
H73	H	-2.624358	-0.004514	0.722931
C74	C	-2.952810	0.105531	0.687183
C75	C	-2.750504	0.109428	0.651663
H76	H	-3.023865	0.159837	0.688096
H77	H	-3.028137	0.070174	0.649764
H78	H	-2.943650	0.083942	0.747796
H79	H	-2.759668	0.131006	0.591048
H80	H	-2.675181	0.144791	0.689072
O81	O	-2.187026	-0.247974	0.405348
C82	C	-2.058235	-0.202068	0.349824
H83	H	-2.054750	-0.136465	0.378762
H84	H	-2.123608	-0.198403	0.277083
C85	C	-1.838233	-0.326067	0.312804
C86	C	-1.833938	-0.245494	0.348350
H87	H	-1.699877	-0.352855	0.311891
H88	H	-1.925005	-0.356996	0.350208
H89	H	-1.892720	-0.323001	0.252189
H90	H	-1.779477	-0.248561	0.408968
H91	H	-1.747150	-0.214567	0.310956
H92	H	-2.816034	0.296041	0.000006
