data_functionalizedCrystal
_audit_creation_method	'MofGen! by Chris Wilmer'
_symmetry_space_group_name_H-M	'P1'
_symmetry_Int_Tables_number	1
_symmetry_cell_setting	triclinic
loop_
_symmetry_equiv_pos_as_xyz
  x,y,z
_cell_length_a	10.654546
_cell_length_b	17.038272
_cell_length_c	9.130313
_cell_angle_alpha	89.998262
_cell_angle_beta	89.998822
_cell_angle_gamma	87.797520
loop_
_atom_site_label
_atom_site_type_symbol
_atom_site_fract_x
_atom_site_fract_y
_atom_site_fract_z
O1	O	1.678038	0.109861	-0.121834
O2	O	1.313531	0.120333	-0.121830
O3	O	1.493618	0.001270	-0.121820
O4	O	1.497951	0.228925	-0.121843
O5	O	1.493616	0.001273	0.121779
O6	O	1.313529	0.120336	0.121769
O7	O	1.678036	0.109865	0.121765
Cu8	Cu	1.495782	0.115101	0.144010
Cu9	Cu	1.495785	0.115097	-0.144074
O10	O	1.497949	0.228928	0.121756
C11	C	1.266661	0.119566	-0.000030
C12	C	1.127004	0.117267	-0.000028
C13	C	1.489676	-0.027879	-0.000021
C14	C	1.477919	-0.114737	-0.000021
C15	C	1.061409	0.116178	-0.132820
C16	C	0.930187	0.114012	-0.132832
C17	C	0.930167	0.114022	0.132753
C18	C	1.061385	0.116193	0.132763
C19	C	1.061420	0.116169	-0.286154
C20	C	0.930198	0.114003	-0.286165
C21	C	1.585863	-0.164250	-0.000021
C22	C	1.574809	-0.245862	-0.000034
C23	C	1.455809	-0.277960	-0.000038
C24	C	1.347857	-0.228442	-0.000043
C25	C	1.358912	-0.146831	-0.000039
C26	C	1.416751	-0.523936	-0.000058
C27	C	1.405703	-0.605553	-0.000057
C28	C	1.632657	-0.622967	-0.000051
C29	C	1.643702	-0.541354	-0.000039
C30	C	1.535750	-0.491843	-0.000051
C31	C	1.444507	-0.361381	-0.000047
C32	C	1.547053	-0.408424	-0.000052
C33	C	1.724906	0.110631	-0.000038
C34	C	1.864563	0.112930	-0.000049
C35	C	1.501890	0.258076	-0.000047
C36	C	1.513648	0.344935	-0.000056
N37	N	1.495790	0.115103	0.346632
N38	N	1.495786	0.115088	-0.346697
C39	C	1.575556	0.062400	0.423289
C40	C	1.575551	0.062390	0.576625
C41	C	1.416012	0.167794	0.576636
C42	C	1.416010	0.167799	0.423302
C43	C	1.667669	0.001548	0.423284
C44	C	1.667664	0.001539	0.576620
H45	H	1.114787	0.117089	0.240895
H46	H	0.900255	0.058762	-0.345031
H47	H	1.682766	-0.138122	-0.000009
H48	H	1.107970	0.060455	-0.333715
H49	H	1.662709	-0.286172	-0.000031
O50	O	1.300324	-0.470538	-0.000063
H51	H	1.299939	-0.432936	0.099217
O52	O	1.772052	-0.506733	-0.000070
H53	H	1.845258	-0.554874	-0.000095
H54	H	1.091369	0.171405	-0.345032
H55	H	1.765421	0.014942	0.618234
O56	O	1.329967	0.224634	0.340613
H57	H	1.352479	0.285715	0.370031
H58	H	0.883660	0.169714	-0.333763
H59	H	1.351056	0.210697	0.639077
O60	O	1.277349	-0.640179	-0.000050
H61	H	1.266896	-0.676954	-0.099325
H62	H	1.720545	-0.663288	-0.000043
H63	H	1.271012	-0.106519	-0.000040
H64	H	1.250964	-0.254583	-0.000055
H65	H	1.643942	-0.382286	-0.000082
H66	H	1.347616	-0.387525	-0.000047
O67	O	1.631858	-0.078093	0.368139
H68	H	1.614313	-0.117086	0.462746
O69	O	1.790803	0.026769	0.360276
H70	H	1.809209	0.087198	0.397882
O71	O	0.859357	0.113235	0.275973
H72	H	0.757078	0.111676	0.253659
O73	O	1.620304	-0.073742	0.639600
H74	H	1.522566	-0.081769	0.601996
