data_functionalizedCrystal
_audit_creation_method	'MofGen! by Chris Wilmer'
_symmetry_space_group_name_H-M	'P1'
_symmetry_Int_Tables_number	1
_symmetry_cell_setting	triclinic
loop_
_symmetry_equiv_pos_as_xyz
  x,y,z
_cell_length_a	23.532355
_cell_length_b	23.532407
_cell_length_c	22.010155
_cell_angle_alpha	89.999577
_cell_angle_beta	89.997414
_cell_angle_gamma	82.838088
loop_
_atom_site_label
_atom_site_type_symbol
_atom_site_fract_x
_atom_site_fract_y
_atom_site_fract_z
O1	O	0.755283	0.068986	-0.050449
O2	O	1.005283	0.318986	0.199551
O3	O	1.255283	0.568986	0.449551
O4	O	1.505283	0.818986	0.699551
O5	O	0.589415	0.079020	-0.050469
O6	O	0.839415	0.329020	0.199531
O7	O	1.089415	0.579020	0.449531
O8	O	1.339415	0.829020	0.699531
O9	O	0.677351	-0.008929	-0.050447
O10	O	0.927351	0.241071	0.199553
O11	O	1.177351	0.491071	0.449553
O12	O	1.427351	0.741071	0.699553
O13	O	0.667347	0.156936	-0.050470
O14	O	0.917347	0.406936	0.199530
O15	O	1.167347	0.656936	0.449530
O16	O	1.417347	0.906936	0.699530
O17	O	0.677335	-0.008916	0.050603
O18	O	0.927335	0.241084	0.300603
O19	O	1.177335	0.491084	0.550603
O20	O	1.427335	0.741084	0.800603
O21	O	0.589399	0.079033	0.050582
O22	O	0.839399	0.329033	0.300582
O23	O	1.089399	0.579033	0.550582
O24	O	1.339399	0.829033	0.800582
O25	O	0.755267	0.068999	0.050602
O26	O	1.005267	0.318999	0.300602
O27	O	1.255267	0.568999	0.550602
O28	O	1.505267	0.818999	0.800602
Cu29	Cu	0.672332	0.074018	0.059818
Cu30	Cu	0.922332	0.324018	0.309818
Cu31	Cu	1.172332	0.574018	0.559818
Cu32	Cu	1.422332	0.824018	0.809818
Cu33	Cu	0.672351	0.074002	-0.059685
Cu34	Cu	0.922351	0.324002	0.190315
Cu35	Cu	1.172351	0.574002	0.440315
Cu36	Cu	1.422351	0.824002	0.690315
O37	O	0.667331	0.156949	0.050580
O38	O	0.917331	0.406949	0.300580
O39	O	1.167331	0.656949	0.550580
O40	O	1.417331	0.906949	0.800580
C41	C	0.568191	0.078776	0.000054
C42	C	0.818191	0.328776	0.250054
C43	C	1.068191	0.578776	0.500054
C44	C	1.318191	0.828776	0.750054
C45	C	0.504972	0.078022	0.000047
C46	C	0.754972	0.328022	0.250047
C47	C	1.004972	0.578022	0.500047
C48	C	1.254972	0.828022	0.750047
C49	C	0.112950	0.073291	0.055155
C50	C	0.362950	0.323291	0.305155
C51	C	0.612950	0.573291	0.555155
C52	C	0.862950	0.823291	0.805155
C53	C	0.053550	0.072574	0.055158
C54	C	0.303550	0.322574	0.305158
C55	C	0.553550	0.572574	0.555158
C56	C	0.803550	0.822574	0.805158
O57	O	0.022824	0.072189	0.102003
O58	O	0.272824	0.322189	0.352003
O59	O	0.522824	0.572189	0.602003
O60	O	0.772824	0.822189	0.852003
N61	N	0.023850	0.072211	0.000076
N62	N	0.273850	0.322211	0.250076
N63	N	0.523850	0.572211	0.500076
N64	N	0.773850	0.822211	0.750076
C65	C	0.053554	0.072559	-0.055013
C66	C	0.303554	0.322559	0.194987
C67	C	0.553554	0.572559	0.444987
C68	C	0.803554	0.822559	0.694987
O69	O	0.022838	0.072184	-0.101864
O70	O	0.272838	0.322184	0.148136
O71	O	0.522838	0.572184	0.398136
O72	O	0.772838	0.822184	0.648136
C73	C	0.112953	0.073273	-0.055015
C74	C	0.362953	0.323273	0.194985
C75	C	0.612953	0.573273	0.444985
C76	C	0.862953	0.823273	0.694985
C77	C	0.142649	0.073641	0.000071
C78	C	0.392649	0.323641	0.250071
C79	C	0.642649	0.573641	0.500071
C80	C	0.892649	0.823641	0.750071
C81	C	0.142646	0.073659	0.110237
C82	C	0.392646	0.323659	0.360237
C83	C	0.642646	0.573659	0.610237
C84	C	0.892646	0.823659	0.860237
C85	C	0.202041	0.074378	0.110234
C86	C	0.452041	0.324378	0.360234
C87	C	0.702041	0.574378	0.610234
C88	C	0.952041	0.824378	0.860234
C89	C	0.231740	0.074728	0.055150
C90	C	0.481740	0.324728	0.305150
C91	C	0.731740	0.574728	0.555150
C92	C	0.981740	0.824728	0.805150
C93	C	0.202044	0.074360	0.000069
C94	C	0.452044	0.324360	0.250069
C95	C	0.702044	0.574360	0.500069
C96	C	0.952044	0.824360	0.750069
C97	C	0.142656	0.073617	-0.110102
C98	C	0.392656	0.323617	0.139898
C99	C	0.642656	0.573617	0.389898
C100	C	0.892656	0.823617	0.639898
C101	C	0.202059	0.074330	-0.110099
C102	C	0.452059	0.324330	0.139901
C103	C	0.702059	0.574330	0.389901
C104	C	0.952059	0.824330	0.639901
C105	C	0.231755	0.074699	-0.055014
C106	C	0.481755	0.324699	0.194986
C107	C	0.731755	0.574699	0.444986
C108	C	0.981755	0.824699	0.694986
C109	C	0.291138	0.075429	-0.055018
C110	C	0.541138	0.325429	0.194982
C111	C	0.791138	0.575429	0.444982
C112	C	1.041138	0.825429	0.694982
N113	N	0.320838	0.075792	0.000064
N114	N	0.570838	0.325792	0.250064
N115	N	0.820838	0.575792	0.500064
N116	N	1.070838	0.825792	0.750064
C117	C	0.291139	0.075441	0.055148
C118	C	0.541139	0.325441	0.305148
C119	C	0.791139	0.575441	0.555148
C120	C	1.041139	0.825441	0.805148
C121	C	-0.071188	0.071060	-0.055005
C122	C	0.178812	0.321060	0.194995
C123	C	0.428812	0.571060	0.444995
C124	C	0.678812	0.821060	0.694995
C125	C	-0.130586	0.070351	-0.055004
C126	C	0.119414	0.320351	0.194996
C127	C	0.369414	0.570351	0.444996
C128	C	0.619414	0.820351	0.694996
C129	C	-0.130585	0.070364	0.055167
C130	C	0.119415	0.320364	0.305167
C131	C	0.369415	0.570364	0.555167
C132	C	0.619415	0.820364	0.805167
C133	C	-0.071187	0.071078	0.055165
C134	C	0.178813	0.321078	0.305165
C135	C	0.428813	0.571078	0.555165
C136	C	0.678813	0.821078	0.805165
C137	C	-0.041488	0.071423	0.000077
C138	C	0.208512	0.321423	0.250077
C139	C	0.458512	0.571423	0.500077
C140	C	0.708512	0.821423	0.750077
C141	C	0.415873	0.076951	0.055138
C142	C	0.665873	0.326951	0.305138
C143	C	0.915873	0.576951	0.555138
C144	C	1.165873	0.826951	0.805138
C145	C	0.475273	0.077672	0.055131
C146	C	0.725273	0.327672	0.305131
C147	C	0.975273	0.577672	0.555131
C148	C	1.225273	0.827672	0.805131
C149	C	0.475268	0.077655	-0.055040
C150	C	0.725268	0.327655	0.194960
C151	C	0.975268	0.577655	0.444960
C152	C	1.225268	0.827655	0.694960
C153	C	0.415872	0.076938	-0.055032
C154	C	0.665872	0.326938	0.194968
C155	C	0.915872	0.576938	0.444968
C156	C	1.165872	0.826938	0.694968
C157	C	0.386177	0.076583	0.000061
C158	C	0.636177	0.326583	0.250061
C159	C	0.886177	0.576583	0.500061
C160	C	1.136177	0.826583	0.750061
O161	O	0.321902	0.075811	-0.101839
O162	O	0.571902	0.325811	0.148161
O163	O	0.821902	0.575811	0.398161
O164	O	1.071902	0.825811	0.648161
O165	O	0.321863	0.075809	0.101992
O166	O	0.571863	0.325809	0.351992
O167	O	0.821863	0.575809	0.601992
O168	O	1.071863	0.825809	0.851992
C169	C	0.677088	-0.030139	0.000080
C170	C	0.927088	0.219861	0.250080
C171	C	1.177088	0.469861	0.500080
C172	C	1.427088	0.719861	0.750080
C173	C	0.676322	-0.093356	0.000084
C174	C	0.926322	0.156644	0.250084
C175	C	1.176322	0.406644	0.500084
C176	C	1.426322	0.656644	0.750084
C177	C	0.723557	-0.492468	0.000057
C178	C	0.973557	-0.242468	0.250057
C179	C	1.223557	0.007532	0.500057
C180	C	1.473557	0.257532	0.750057
C181	C	0.722845	-0.551868	0.000052
C182	C	0.972845	-0.301868	0.250052
C183	C	1.222845	-0.051868	0.500052
C184	C	1.472845	0.198132	0.750052
O185	O	0.766632	-0.588620	0.000035
O186	O	1.016632	-0.338620	0.250035
O187	O	1.266632	-0.088620	0.500035
O188	O	1.516632	0.161380	0.750035
N189	N	0.670568	-0.574484	0.000046
N190	N	0.920568	-0.324484	0.250046
N191	N	1.170568	-0.074484	0.500046
N192	N	1.420568	0.175516	0.750046
C193	C	0.618998	-0.537697	0.000039
C194	C	0.868998	-0.287697	0.250039
C195	C	1.118998	-0.037697	0.500039
C196	C	1.368998	0.212303	0.750039
O197	O	0.574467	-0.562388	0.000033
O198	O	0.824467	-0.312388	0.250033
O199	O	1.074467	-0.062388	0.500033
O200	O	1.324467	0.187612	0.750033
C201	C	0.619710	-0.478298	0.000039
C202	C	0.869710	-0.228298	0.250039
C203	C	1.119710	0.021702	0.500039
C204	C	1.369710	0.271702	0.750039
C205	C	0.671991	-0.455685	0.000051
C206	C	0.921991	-0.205685	0.250051
C207	C	1.171991	0.044315	0.500051
C208	C	1.421991	0.294315	0.750051
C209	C	0.775834	-0.469854	0.000068
C210	C	1.025834	-0.219854	0.250068
C211	C	1.275834	0.030146	0.500068
C212	C	1.525834	0.280146	0.750068
C213	C	0.776545	-0.410458	0.000074
C214	C	1.026545	-0.160458	0.250074
C215	C	1.276545	0.089542	0.500074
C216	C	1.526545	0.339542	0.750074
C217	C	0.724979	-0.373676	0.000068
C218	C	0.974979	-0.123676	0.250068
C219	C	1.224979	0.126324	0.500068
C220	C	1.474979	0.376324	0.750068
C221	C	0.672703	-0.396289	0.000057
C222	C	0.922703	-0.146289	0.250057
C223	C	1.172703	0.103711	0.500057
C224	C	1.422703	0.353711	0.750057
C225	C	0.568141	-0.441512	0.000027
C226	C	0.818141	-0.191512	0.250027
C227	C	1.068141	0.058488	0.500027
C228	C	1.318141	0.308488	0.750027
C229	C	0.568858	-0.382110	0.000027
C230	C	0.818858	-0.132110	0.250027
C231	C	1.068858	0.117890	0.500027
C232	C	1.318858	0.367890	0.750027
C233	C	0.621139	-0.359497	0.000039
C234	C	0.871139	-0.109497	0.250039
C235	C	1.121139	0.140503	0.500039
C236	C	1.371139	0.390503	0.750039
C237	C	0.621848	-0.300110	0.000057
C238	C	0.871848	-0.050110	0.250057
C239	C	1.121848	0.199890	0.500057
C240	C	1.371848	0.449890	0.750057
N241	N	0.674126	-0.277494	0.000063
N242	N	0.924126	-0.027494	0.250063
N243	N	1.174126	0.222506	0.500063
N244	N	1.424126	0.472506	0.750063
C245	C	0.725691	-0.314277	0.000069
C246	C	0.975691	-0.064277	0.250069
C247	C	1.225691	0.185723	0.500069
C248	C	1.475691	0.435723	0.750069
C249	C	0.617507	-0.662439	0.000037
C250	C	0.867507	-0.412439	0.250037
C251	C	1.117507	-0.162439	0.500037
C252	C	1.367507	0.087561	0.750037
C253	C	0.616794	-0.721837	0.000041
C254	C	0.866794	-0.471837	0.250041
C255	C	1.116794	-0.221837	0.500041
C256	C	1.366794	0.028163	0.750041
C257	C	0.720642	-0.736004	0.000053
C258	C	0.970642	-0.486004	0.250053
C259	C	1.220642	-0.236004	0.500053
C260	C	1.470642	0.013996	0.750053
C261	C	0.721354	-0.676605	0.000053
C262	C	0.971354	-0.426605	0.250053
C263	C	1.221354	-0.176605	0.500053
C264	C	1.471354	0.073395	0.750053
C265	C	0.669784	-0.639823	0.000043
C266	C	0.919784	-0.389823	0.250043
C267	C	1.169784	-0.139823	0.500043
C268	C	1.419784	0.110177	0.750043
C269	C	0.727181	-0.189540	0.000082
C270	C	0.977181	0.060460	0.250082
C271	C	1.227181	0.310460	0.500082
C272	C	1.477181	0.560460	0.750082
C273	C	0.727888	-0.130138	0.000090
C274	C	0.977888	0.119862	0.250090
C275	C	1.227888	0.369862	0.500090
C276	C	1.477888	0.619862	0.750090
C277	C	0.624041	-0.115977	0.000074
C278	C	0.874041	0.134023	0.250074
C279	C	1.124041	0.384023	0.500074
C280	C	1.374041	0.634023	0.750074
C281	C	0.623334	-0.175373	0.000069
C282	C	0.873334	0.074627	0.250069
C283	C	1.123334	0.324627	0.500069
C284	C	1.373334	0.574627	0.750069
C285	C	0.674909	-0.212154	0.000071
C286	C	0.924909	0.037846	0.250071
C287	C	1.174909	0.287846	0.500071
C288	C	1.424909	0.537846	0.750071
O289	O	0.578084	-0.263323	0.000072
O290	O	0.828084	-0.013323	0.250072
O291	O	1.078084	0.236677	0.500072
O292	O	1.328084	0.486677	0.750072
O293	O	0.770216	-0.289577	0.000067
O294	O	1.020216	-0.039577	0.250067
O295	O	1.270216	0.210423	0.500067
O296	O	1.520216	0.460423	0.750067
C297	C	0.776491	0.069244	0.000078
C298	C	1.026491	0.319244	0.250078
C299	C	1.276491	0.569244	0.500078
C300	C	1.526491	0.819244	0.750078
C301	C	0.839710	0.069998	0.000081
C302	C	1.089710	0.319998	0.250081
C303	C	1.339710	0.569998	0.500081
C304	C	1.589710	0.819998	0.750081
C305	C	0.667594	0.178158	0.000052
C306	C	0.917594	0.428158	0.250052
C307	C	1.167594	0.678158	0.500052
C308	C	1.417594	0.928158	0.750052
C309	C	0.668360	0.241375	0.000043
C310	C	0.918360	0.491375	0.250043
C311	C	1.168360	0.741375	0.500043
C312	C	1.418360	0.991375	0.750043
N313	N	0.672323	0.074028	0.143871
N314	N	0.922323	0.324028	0.393871
N315	N	1.172323	0.574028	0.643871
N316	N	1.422323	0.824028	0.893871
N317	N	0.672364	0.073987	-0.143738
N318	N	0.922364	0.323987	0.106262
N319	N	1.172364	0.573987	0.356262
N320	N	1.422364	0.823987	0.606262
C321	C	0.711291	0.035063	0.563660
C322	C	0.961291	0.285063	0.813660
C323	C	1.211291	0.535063	1.063660
C324	C	1.461291	0.785063	1.313660
C325	C	0.711293	0.035059	0.627267
C326	C	0.961293	0.285059	0.877267
C327	C	1.211293	0.535059	1.127267
C328	C	1.461293	0.785059	1.377267
O329	O	0.744402	0.001938	0.660167
O330	O	0.994402	0.251938	0.910167
O331	O	1.244402	0.501938	1.160167
O332	O	1.494402	0.751938	1.410167
N333	N	0.672350	0.073990	0.659078
N334	N	0.922350	0.323990	0.909078
N335	N	1.172350	0.573990	1.159078
N336	N	1.422350	0.823990	1.409078
C337	C	0.633398	0.112923	0.627277
C338	C	0.883398	0.362923	0.877277
C339	C	1.133398	0.612923	1.127277
C340	C	1.383398	0.862923	1.377277
O341	O	0.600274	0.146036	0.660175
O342	O	0.850274	0.396036	0.910175
O343	O	1.100274	0.646036	1.160175
O344	O	1.350274	0.896036	1.410175
C345	C	0.633393	0.112924	0.563671
C346	C	0.883393	0.362924	0.813671
C347	C	1.133393	0.612924	1.063671
C348	C	1.383393	0.862924	1.313671
C349	C	0.672343	0.073995	0.531864
C350	C	0.922343	0.323995	0.781864
C351	C	1.172343	0.573995	1.031864
C352	C	1.422343	0.823995	1.281864
C353	C	0.750236	-0.003863	0.531853
C354	C	1.000236	0.246137	0.781853
C355	C	1.250236	0.496137	1.031853
C356	C	1.500236	0.746137	1.281853
C357	C	0.750234	-0.003858	0.468249
C358	C	1.000234	0.246142	0.718249
C359	C	1.250234	0.496142	0.968249
C360	C	1.500234	0.746142	1.218249
C361	C	0.711286	0.035073	0.436453
C362	C	0.961286	0.285073	0.686453
C363	C	1.211286	0.535073	0.936453
C364	C	1.461286	0.785073	1.186453
C365	C	0.672341	0.074000	0.468261
C366	C	0.922341	0.324000	0.718261
C367	C	1.172341	0.574000	0.968261
C368	C	1.422341	0.824000	1.218261
C369	C	0.594439	0.151854	0.531872
C370	C	0.844439	0.401854	0.781872
C371	C	1.094439	0.651854	1.031872
C372	C	1.344439	0.901854	1.281872
C373	C	0.594437	0.151851	0.468261
C374	C	0.844437	0.401851	0.718261
C375	C	1.094437	0.651851	0.968261
C376	C	1.344437	0.901851	1.218261
C377	C	0.633387	0.112922	0.436454
C378	C	0.883387	0.362922	0.686454
C379	C	1.133387	0.612922	0.936454
C380	C	1.383387	0.862922	1.186454
C381	C	0.633391	0.112936	0.372861
C382	C	0.883391	0.362936	0.622861
C383	C	1.133391	0.612936	0.872861
C384	C	1.383391	0.862936	1.122861
N385	N	0.672334	0.074005	0.341051
N386	N	0.922334	0.324005	0.591051
N387	N	1.172334	0.574005	0.841051
N388	N	1.422334	0.824005	1.091051
C389	C	0.711282	0.035074	0.372847
C390	C	0.961282	0.285074	0.622847
C391	C	1.211282	0.535074	0.872847
C392	C	1.461282	0.785074	1.122847
C393	C	0.633411	0.112918	0.760855
C394	C	0.883411	0.362918	1.010855
C395	C	1.133411	0.612918	1.260855
C396	C	1.383411	0.862918	1.510855
C397	C	0.633418	0.112921	0.824461
C398	C	0.883418	0.362921	1.074461
C399	C	1.133418	0.612921	1.324461
C400	C	1.383418	0.862921	1.574461
C401	C	0.711313	0.035056	0.824446
C402	C	0.961313	0.285056	1.074446
C403	C	1.211313	0.535056	1.324446
C404	C	1.461313	0.785056	1.574446
C405	C	0.711308	0.035057	0.760840
C406	C	0.961308	0.285057	1.010840
C407	C	1.211308	0.535057	1.260840
C408	C	1.461308	0.785057	1.510840
C409	C	0.672354	0.073988	0.729045
C410	C	0.922354	0.323988	0.979045
C411	C	1.172354	0.573988	1.229045
C412	C	1.422354	0.823988	1.479045
C413	C	0.711275	0.035087	0.239276
C414	C	0.961275	0.285087	0.489276
C415	C	1.211275	0.535087	0.739276
C416	C	1.461275	0.785087	0.989276
C417	C	0.711270	0.035097	0.175667
C418	C	0.961270	0.285097	0.425667
C419	C	1.211270	0.535097	0.675667
C420	C	1.461270	0.785097	0.925667
C421	C	0.633374	0.112959	0.175687
C422	C	0.883374	0.362959	0.425687
C423	C	1.133374	0.612959	0.675687
C424	C	1.383374	0.862959	0.925687
C425	C	0.633380	0.112952	0.239290
C426	C	0.883380	0.362952	0.489290
C427	C	1.133380	0.612952	0.739290
C428	C	1.383380	0.862952	0.989290
C429	C	0.672332	0.074011	0.271083
C430	C	0.922332	0.324011	0.521083
C431	C	1.172332	0.574011	0.771083
C432	C	1.422332	0.824011	1.021083
O433	O	0.600297	0.146039	0.339921
O434	O	0.850297	0.396039	0.589921
O435	O	1.100297	0.646039	0.839921
O436	O	1.350297	0.896039	1.089921
O437	O	0.744395	0.001961	0.339941
O438	O	0.994395	0.251961	0.589941
O439	O	1.244395	0.501961	0.839941
O440	O	1.494395	0.751961	1.089941
H441	H	-0.154761	0.070060	-0.099860
H442	H	0.095239	0.320060	0.150140
H443	H	0.345239	0.570060	0.400140
H444	H	0.595239	0.820060	0.650140
H445	H	0.526863	-0.352164	0.000018
H446	H	0.776863	-0.102164	0.250018
H447	H	1.026863	0.147836	0.500018
H448	H	1.276863	0.397836	0.750018
Cl449	Cl	-0.167932	0.069921	0.124417
Cl450	Cl	0.082068	0.319921	0.374417
Cl451	Cl	0.332068	0.569921	0.624417
Cl452	Cl	0.582068	0.819921	0.874417
Cl453	Cl	0.793617	-0.101715	0.000104
Cl454	Cl	1.043617	0.148285	0.250104
Cl455	Cl	1.293617	0.398285	0.500104
Cl456	Cl	1.543617	0.648285	0.750104
H457	H	0.601669	0.144657	0.265188
H458	H	0.851669	0.394657	0.515188
H459	H	1.101669	0.644657	0.765188
H460	H	1.351669	0.894657	1.015188
H461	H	0.781953	-0.035568	0.557735
H462	H	1.031953	0.214432	0.807735
H463	H	1.281953	0.464432	1.057735
H464	H	1.531953	0.714432	1.307735
H465	H	0.118488	0.073317	-0.154959
H466	H	0.368488	0.323317	0.095041
H467	H	0.618488	0.573317	0.345041
H468	H	0.868488	0.823317	0.595041
H469	H	0.601691	0.144625	0.734971
H470	H	0.851691	0.394625	0.984971
H471	H	1.101691	0.644625	1.234971
H472	H	1.351691	0.894625	1.484971
H473	H	-0.047011	0.071347	-0.099867
H474	H	0.202989	0.321347	0.150133
H475	H	0.452989	0.571347	0.400133
H476	H	0.702989	0.821347	0.650133
Cl477	Cl	0.552670	-0.616204	0.000030
Cl478	Cl	0.802670	-0.366204	0.250030
Cl479	Cl	1.052670	-0.116204	0.500030
Cl480	Cl	1.302670	0.133796	0.750030
H481	H	0.781949	-0.035560	0.442356
H482	H	1.031949	0.214440	0.692356
H483	H	1.281949	0.464440	0.942356
H484	H	1.531949	0.714440	1.192356
Cl485	Cl	0.760273	-0.013886	0.720861
Cl486	Cl	1.010273	0.236114	0.970861
Cl487	Cl	1.260273	0.486114	1.220861
Cl488	Cl	1.510273	0.736114	1.470861
Cl489	Cl	0.557608	-0.203802	0.000066
Cl490	Cl	0.807608	0.046198	0.250066
Cl491	Cl	1.057608	0.296198	0.500066
Cl492	Cl	1.307608	0.546198	0.750066
H493	H	0.226236	0.074612	-0.154960
H494	H	0.476236	0.324612	0.095040
H495	H	0.726236	0.574612	0.345040
H496	H	0.976236	0.824612	0.595040
Cl497	Cl	0.378538	0.076483	-0.124284
Cl498	Cl	0.628538	0.326483	0.125716
Cl499	Cl	0.878538	0.576483	0.375716
Cl500	Cl	1.128538	0.826483	0.625716
H501	H	0.562723	0.183554	0.557760
H502	H	0.812723	0.433554	0.807760
H503	H	1.062723	0.683554	1.057760
H504	H	1.312723	0.933554	1.307760
Cl505	Cl	0.512615	0.078092	-0.124285
Cl506	Cl	0.762615	0.328092	0.125715
Cl507	Cl	1.012615	0.578092	0.375715
Cl508	Cl	1.262615	0.828092	0.625715
H509	H	0.769178	-0.219481	0.000080
H510	H	1.019178	0.030519	0.250080
H511	H	1.269178	0.280519	0.500080
H512	H	1.519178	0.530519	0.750080
Cl513	Cl	0.378550	0.076505	0.124400
Cl514	Cl	0.628550	0.326505	0.374400
Cl515	Cl	0.878550	0.576505	0.624400
Cl516	Cl	1.128550	0.826505	0.874400
Cl517	Cl	0.785467	-0.782256	0.000056
Cl518	Cl	1.035467	-0.532256	0.250056
Cl519	Cl	1.285467	-0.282256	0.500056
Cl520	Cl	1.535467	-0.032256	0.750056
Cl521	Cl	0.502412	-0.469924	0.000008
Cl522	Cl	0.752412	-0.219924	0.250008
Cl523	Cl	1.002412	0.030076	0.500008
Cl524	Cl	1.252412	0.280076	0.750008
H525	H	0.574222	-0.740243	0.000042
H526	H	0.824222	-0.490243	0.250042
H527	H	1.074222	-0.240243	0.500042
H528	H	1.324222	0.009757	0.750042
H529	H	0.819117	-0.392053	0.000081
H530	H	1.069117	-0.142053	0.250081
H531	H	1.319117	0.107947	0.500081
H532	H	1.569117	0.357947	0.750081
Cl533	Cl	0.545462	0.200796	0.428295
Cl534	Cl	0.795462	0.450796	0.678295
Cl535	Cl	1.045462	0.700796	0.928295
Cl536	Cl	1.295462	0.950796	1.178295
Cl537	Cl	0.840668	-0.516085	0.000076
Cl538	Cl	1.090668	-0.266085	0.250076
Cl539	Cl	1.340668	-0.016085	0.500076
Cl540	Cl	1.590668	0.233915	0.750076
H541	H	0.743025	0.003355	0.850346
H542	H	0.993025	0.253355	1.100346
H543	H	1.243025	0.503355	1.350346
H544	H	1.493025	0.753355	1.600346
H545	H	0.118471	0.073373	0.155095
H546	H	0.368471	0.323373	0.405095
H547	H	0.618471	0.573373	0.655095
H548	H	0.868471	0.823373	0.905095
Cl549	Cl	0.559219	-0.069725	0.000066
Cl550	Cl	0.809219	0.180275	0.250066
Cl551	Cl	1.059219	0.430275	0.500066
Cl552	Cl	1.309219	0.680275	0.750066
Cl553	Cl	-0.033861	0.071539	0.124419
Cl554	Cl	0.216139	0.321539	0.374419
Cl555	Cl	0.466139	0.571539	0.624419
Cl556	Cl	0.716139	0.821539	0.874419
H557	H	0.763925	-0.658198	0.000063
H558	H	1.013925	-0.408198	0.250063
H559	H	1.263925	-0.158198	0.500063
H560	H	1.513925	0.091802	0.750063
H561	H	0.742990	0.003396	0.149771
H562	H	0.992990	0.253396	0.399771
H563	H	1.242990	0.503396	0.649771
H564	H	1.492990	0.753396	0.899771
Cl565	Cl	0.584459	0.161870	0.864440
Cl566	Cl	0.834459	0.411870	1.114440
Cl567	Cl	1.084459	0.661870	1.364440
Cl568	Cl	1.334459	0.911870	1.614440
H569	H	0.742992	0.003377	0.265154
H570	H	0.992992	0.253377	0.515154
H571	H	1.242992	0.503377	0.765154
H572	H	1.492992	0.753377	1.015154
Cl573	Cl	0.584413	0.161900	0.135705
Cl574	Cl	0.834413	0.411900	0.385705
Cl575	Cl	1.084413	0.661900	0.635705
Cl576	Cl	1.334413	0.911900	0.885705
H577	H	0.499448	0.077974	0.099990
H578	H	0.749448	0.327974	0.349990
H579	H	0.999448	0.577974	0.599990
H580	H	1.249448	0.827974	0.849990
H581	H	0.226214	0.074674	0.155091
H582	H	0.476214	0.324674	0.405091
H583	H	0.726214	0.574674	0.655091
H584	H	0.976214	0.824674	0.905091
