data_functionalizedCrystal
_audit_creation_method	'MofGen! by Chris Wilmer'
_symmetry_space_group_name_H-M	'P1'
_symmetry_Int_Tables_number	1
_symmetry_cell_setting	triclinic
loop_
_symmetry_equiv_pos_as_xyz
  x,y,z
_cell_length_a	12.759401
_cell_length_b	18.050589
_cell_length_c	12.759393
_cell_angle_alpha	89.970454
_cell_angle_beta	89.979062
_cell_angle_gamma	90.029746
loop_
_atom_site_label
_atom_site_type_symbol
_atom_site_fract_x
_atom_site_fract_y
_atom_site_fract_z
Zn1	Zn	1.606168	-0.295593	-0.594027
Zn2	Zn	1.606017	-0.419801	-0.418350
Zn3	Zn	1.430466	-0.295633	-0.418362
Zn4	Zn	1.430417	-0.419749	-0.593987
O5	O	1.518267	-0.357694	-0.506182
O6	O	1.753169	-0.312075	-0.570735
O7	O	1.582688	-0.403368	-0.271331
O8	O	1.453857	-0.191703	-0.441686
O9	O	1.753058	-0.403330	-0.441666
O10	O	1.582944	-0.191674	-0.570746
O11	O	1.453711	-0.312142	-0.271339
O12	O	1.283439	-0.312092	-0.441648
O13	O	1.453773	-0.403241	-0.741014
O14	O	1.283402	-0.403280	-0.570679
O15	O	1.582896	-0.312025	-0.741043
O16	O	1.582640	-0.523719	-0.441627
O17	O	1.453627	-0.523681	-0.570667
C18	C	1.245300	-0.357685	-0.506161
C19	C	1.128523	-0.357699	-0.506177
C20	C	1.073670	-0.405253	-0.573257
C21	C	0.963946	-0.405256	-0.573278
C22	C	0.963938	-0.310149	-0.439129
C23	C	1.073660	-0.310143	-0.439114
C24	C	1.518140	-0.550646	-0.506164
C25	C	1.518182	-0.633192	-0.506192
C26	C	1.448094	-0.832649	-0.576339
C27	C	1.422478	-0.882097	-0.480470
C28	C	1.518285	-0.784322	-0.506206
C29	C	1.543953	-0.881956	-0.602085
C30	C	1.518383	-0.930307	-0.506227
C31	C	1.492619	-0.832683	-0.410286
C32	C	1.614139	-0.832538	-0.531966
C33	C	1.588559	-0.881964	-0.436031
C34	C	1.518226	-0.700224	-0.506194
C35	C	1.518442	-1.014404	-0.506228
C36	C	1.792300	-0.357704	-0.506203
C37	C	1.909077	-0.357708	-0.506212
C38	C	1.518346	-0.357623	-0.780215
C39	C	1.518379	-0.357592	-0.896992
C40	C	1.518423	-0.163989	-0.506222
C41	C	1.518489	-0.081443	-0.506239
C42	C	1.585619	-0.310088	-0.951871
C43	C	1.585637	-0.310056	-1.061595
C44	C	1.451172	-0.405039	-1.061552
C45	C	1.451150	-0.405067	-0.951829
C46	C	1.518249	-0.357712	-0.233214
C47	C	1.518419	-0.357533	-0.116438
H48	H	0.919255	-0.271432	-0.384527
H49	H	0.919289	-0.443978	-0.627904
H50	H	1.640358	-0.271430	-0.907225
H51	H	1.565624	-0.903600	-0.683161
C52	C	1.134005	-0.257832	-0.365315
C53	C	1.118977	-0.173415	-0.374090
C54	C	1.179321	-0.121105	-0.300296
C55	C	1.254693	-0.153214	-0.217727
C56	C	1.269724	-0.237636	-0.208949
C57	C	1.209380	-0.289946	-0.282743
H58	H	1.063179	-0.149642	-0.435215
H59	H	1.168194	-0.058610	-0.306795
H60	H	1.299363	-0.114492	-0.163101
H61	H	1.325522	-0.261409	-0.147824
H62	H	1.220508	-0.352441	-0.276244
C63	C	1.463214	-0.803568	-0.300727
C64	C	1.356495	-0.823808	-0.252089
C65	C	1.327088	-0.794690	-0.142535
C66	C	1.404401	-0.745332	-0.081618
C67	C	1.511127	-0.725089	-0.130255
C68	C	1.540534	-0.754207	-0.239810
H69	H	1.299257	-0.860348	-0.297184
H70	H	1.248082	-0.809675	-0.106531
H71	H	1.382633	-0.723776	-0.000519
H72	H	1.568365	-0.688549	-0.085160
H73	H	1.619540	-0.739222	-0.275814
C74	C	1.659603	-0.257802	-1.121962
C75	C	1.733547	-0.205583	-1.061638
C76	C	1.807515	-0.153325	-1.122004
C77	C	1.807539	-0.153285	-1.242694
C78	C	1.733592	-0.205506	-1.303025
C79	C	1.659624	-0.257764	-1.242659
H80	H	1.733531	-0.205610	-0.972290
H81	H	1.862255	-0.114667	-1.077343
H82	H	1.862294	-0.114600	-1.287381
H83	H	1.733608	-0.205478	-1.392373
H84	H	1.604884	-0.296421	-1.287320
C85	C	1.367794	-0.803387	-0.656349
C86	C	1.404361	-0.754523	-0.748338
C87	C	1.324060	-0.725260	-0.828341
C88	C	1.207191	-0.744861	-0.816356
C89	C	1.170619	-0.793728	-0.724364
C90	C	1.250920	-0.822991	-0.644360
H91	H	1.490879	-0.740010	-0.757213
H92	H	1.351134	-0.689085	-0.896440
H93	H	1.147748	-0.723199	-0.875579
H94	H	1.084100	-0.808241	-0.715488
H95	H	1.223845	-0.859166	-0.576262
H96	H	1.396439	-0.443693	-1.106214
H97	H	1.341464	-0.903882	-0.458702
H98	H	1.647959	-0.903481	-0.376662
H99	H	1.396388	-0.443750	-0.907146
C100	C	1.723556	-0.803102	-0.561433
C101	C	1.771723	-0.822471	-0.668645
C102	C	1.881140	-0.793033	-0.698126
C103	C	1.942392	-0.744226	-0.620394
C104	C	1.894225	-0.724854	-0.513175
C105	C	1.784808	-0.754292	-0.483694
H106	H	1.726381	-0.858604	-0.726193
H107	H	1.916796	-0.807374	-0.777498
H108	H	2.023389	-0.722434	-0.642218
H109	H	1.939568	-0.688722	-0.455627
H110	H	1.749152	-0.739952	-0.404322
H111	H	1.118336	-0.443974	-0.627867
