data_functionalizedCrystal
_audit_creation_method	'MofGen! by Chris Wilmer'
_symmetry_space_group_name_H-M	'P1'
_symmetry_Int_Tables_number	1
_symmetry_cell_setting	triclinic
loop_
_symmetry_equiv_pos_as_xyz
  x,y,z
_cell_length_a	10.540510
_cell_length_b	10.540510
_cell_length_c	12.996460
_cell_angle_alpha	89.996346
_cell_angle_beta	89.994188
_cell_angle_gamma	84.513311
loop_
_atom_site_label
_atom_site_type_symbol
_atom_site_fract_x
_atom_site_fract_y
_atom_site_fract_z
O1	O	1.685892	0.178725	-0.085567
O2	O	1.316472	0.195621	-0.085567
O3	O	1.509630	0.002463	-0.085567
O4	O	1.492734	0.371883	-0.085568
O5	O	1.509609	0.002452	0.085567
O6	O	1.316452	0.195610	0.085567
O7	O	1.685872	0.178714	0.085567
Cu8	Cu	1.501160	0.187161	0.101193
Cu9	Cu	1.501184	0.187174	-0.101193
O10	O	1.492714	0.371872	0.085566
C11	C	1.269159	0.194356	-0.000000
C12	C	1.128209	0.190589	-0.000001
C13	C	1.508361	-0.044846	-0.000002
C14	C	1.504594	-0.185795	-0.000008
C15	C	1.638780	-0.403265	0.000384
C16	C	1.642798	-0.256670	-0.000007
C17	C	1.433858	-0.230540	-0.097732
C18	C	1.430819	-0.377301	-0.097808
C19	C	1.427918	-0.377121	0.096803
C20	C	1.434473	-0.230781	0.098089
C21	C	0.910739	0.324775	-0.000394
C22	C	1.057334	0.328793	-0.000002
C23	C	1.083445	0.119836	0.097723
C24	C	0.936685	0.116797	0.097799
C25	C	0.936902	0.113931	-0.096813
C26	C	1.083242	0.120486	-0.098098
C27	C	1.733185	0.179979	-0.000002
C28	C	1.874135	0.183746	-0.000009
C29	C	1.493983	0.419181	-0.000001
C30	C	1.497750	0.560130	-0.000001
N31	N	1.501152	0.187151	0.243540
N32	N	1.501202	0.187174	-0.243540
C33	C	1.501182	0.187175	0.663354
C34	C	1.501170	0.187173	0.546549
C35	C	1.501168	0.187164	0.453450
C36	C	1.501154	0.187160	0.336638
H37	H	1.692614	-0.445231	0.070467
H38	H	1.471829	-0.419313	0.170878
N39	N	1.716117	-0.217831	0.092785
H40	H	1.792271	-0.174044	0.069452
H41	H	1.659016	-0.157478	0.136738
H42	H	1.482999	-0.199684	-0.170458
H43	H	1.479177	-0.417517	-0.170858
N44	N	1.709714	-0.460893	-0.091917
H45	H	1.650892	-0.510607	-0.133980
H46	H	1.740653	-0.390723	-0.135483
N47	N	0.853112	0.395691	0.091914
H48	H	0.757270	0.396434	0.089507
H49	H	0.886460	0.351907	0.156952
N50	N	1.299089	-0.167756	-0.102547
H51	H	1.300711	-0.072181	-0.105665
H52	H	1.255501	-0.197997	-0.165960
H53	H	1.114286	0.168964	0.170449
H54	H	1.698482	-0.228266	-0.070180
H55	H	1.085724	0.384472	0.070167
N56	N	1.148242	-0.013170	-0.105920
H57	H	1.198252	-0.022458	-0.172225
H58	H	1.207958	-0.030161	-0.045666
H59	H	0.868788	0.378622	-0.070478
H60	H	0.894358	0.157519	-0.170882
N61	N	1.121175	0.188649	-0.193868
H62	H	1.167294	0.264624	-0.173806
H63	H	1.179214	0.128439	-0.237207
H64	H	0.896454	0.165141	0.170848
H65	H	1.327451	-0.400285	-0.102236
N66	N	1.502629	-0.192889	0.193860
H67	H	1.593186	-0.234034	0.193239
H68	H	1.503183	-0.097155	0.195750
H69	H	0.913700	0.013429	0.102238
H70	H	1.333573	-0.181704	0.103990
N71	N	1.146233	-0.014932	0.102554
H72	H	1.204440	-0.031457	0.041295
H73	H	1.197556	-0.026782	0.168052
N74	N	1.290470	-0.406439	0.097683
H75	H	1.273463	-0.460097	0.035715
H76	H	1.273087	-0.454612	0.162558
N77	N	1.096223	0.402110	-0.092794
H78	H	1.018071	0.432105	-0.134321
H79	H	1.140040	0.478197	-0.069379
N80	N	0.907585	-0.023517	-0.097693
H81	H	0.853915	-0.040535	-0.035725
H82	H	0.859424	-0.040888	-0.162568
