data_functionalizedCrystal
_audit_creation_method	'MofGen! by Chris Wilmer'
_symmetry_space_group_name_H-M	'P1'
_symmetry_Int_Tables_number	1
_symmetry_cell_setting	triclinic
loop_
_symmetry_equiv_pos_as_xyz
  x,y,z
_cell_length_a	13.897448
_cell_length_b	16.959455
_cell_length_c	16.959447
_cell_angle_alpha	89.985678
_cell_angle_beta	89.970632
_cell_angle_gamma	90.014639
loop_
_atom_site_label
_atom_site_type_symbol
_atom_site_fract_x
_atom_site_fract_y
_atom_site_fract_z
Zn1	Zn	0.384074	-1.208397	0.446914
Zn2	Zn	0.545393	-1.208325	0.314738
Zn3	Zn	0.384105	-1.076225	0.314751
Zn4	Zn	0.545321	-1.076195	0.446876
O5	O	0.464723	-1.142286	0.380820
O6	O	0.405491	-1.318998	0.429390
O7	O	0.524040	-1.190784	0.204128
O8	O	0.249119	-1.093801	0.332305
O9	O	0.524011	-1.318945	0.332281
O10	O	0.249097	-1.190907	0.429404
O11	O	0.405543	-1.093731	0.204139
O12	O	0.405473	-0.965610	0.332268
O13	O	0.523888	-1.093750	0.557492
O14	O	0.523917	-0.965589	0.429340
O15	O	0.405421	-1.190878	0.557520
O16	O	0.680365	-1.190755	0.332244
O17	O	0.680312	-1.093680	0.429326
C18	C	0.464691	-0.936919	0.380802
C19	C	0.464701	-0.849063	0.380813
C20	C	0.715337	-1.142228	0.380797
C21	C	0.822551	-1.142276	0.380814
C22	C	0.213130	-1.142365	0.380860
C23	C	0.105916	-1.142399	0.380877
C24	C	1.018846	-1.142359	0.380863
C25	C	0.909614	-1.142310	0.380838
C26	C	0.464643	-1.142319	0.586988
C27	C	0.464609	-1.142333	0.674845
C28	C	0.464756	-1.348454	0.380838
C29	C	0.464770	-1.436310	0.380846
C30	C	0.402998	-0.477574	0.330380
C31	C	0.526527	-0.477600	0.431305
C32	C	0.526513	-0.560146	0.431300
C33	C	0.464742	-0.601410	0.380834
C34	C	0.402985	-0.560128	0.330372
C35	C	0.588276	-0.601434	0.481754
C36	C	0.588266	-0.683985	0.481751
C37	C	0.526489	-0.725251	0.431288
C38	C	0.464728	-0.683963	0.380825
C39	C	0.402957	-0.725227	0.330359
C40	C	0.341191	-0.683941	0.279900
C41	C	0.341208	-0.601393	0.279909
C42	C	0.526472	-0.807799	0.431279
C43	C	0.402944	-0.807781	0.330351
C44	C	0.464733	-1.142298	0.175454
C45	C	0.464495	-1.142437	0.087597
C46	C	0.526188	-1.091857	1.046309
C47	C	0.402827	-1.192997	1.046333
C48	C	0.402848	-1.192976	0.963787
C49	C	0.464540	-1.142395	0.922498
C50	C	0.526212	-1.091836	0.963755
C51	C	0.341184	-1.243540	0.922523
C52	C	0.341203	-1.243522	0.839972
C53	C	0.402891	-1.192937	0.798682
C54	C	0.464564	-1.142375	0.839944
C55	C	0.526257	-1.091794	0.798655
C56	C	0.587926	-1.041227	0.839916
C57	C	0.587900	-1.041251	0.922465
C58	C	0.402917	-1.192913	0.716134
C59	C	0.526281	-1.091773	0.716102
H60	H	0.290901	-0.717549	0.238807
H61	H	0.638559	-0.717593	0.522839
H62	H	0.576824	-0.443998	0.472387
H63	H	0.638161	-1.000048	0.806288
H64	H	0.290963	-1.284725	0.956147
C65	C	0.594407	-0.853214	0.486776
C66	C	0.704055	-0.841854	0.480164
C67	C	0.771993	-0.887270	0.535665
C68	C	0.730284	-0.944045	0.597778
C69	C	0.620631	-0.955408	0.604393
C70	C	0.552692	-0.909993	0.548892
H71	H	0.734936	-0.799823	0.434181
H72	H	0.853166	-0.878858	0.530768
H73	H	0.780576	-0.977664	0.638863
H74	H	0.589750	-0.997439	0.650375
H75	H	0.471520	-0.918404	0.553789
C76	C	0.656217	-0.556041	0.537264
C77	C	0.731893	-0.499261	0.502910
C78	C	0.799833	-0.453862	0.558424
C79	C	0.792097	-0.465243	0.648292
C80	C	0.716418	-0.522026	0.682650
C81	C	0.648478	-0.567425	0.627137
H82	H	0.737622	-0.490834	0.436381
H83	H	0.855855	-0.411828	0.532989
H84	H	0.842390	-0.431636	0.689386
H85	H	0.710689	-0.530453	0.749180
H86	H	0.592456	-0.609459	0.652572
H87	H	0.576511	-1.050577	0.682490
H88	H	0.576395	-1.050685	1.079907
H89	H	0.352709	-1.234086	0.682543
C90	C	0.655739	-0.985646	0.967861
C91	C	0.731448	-1.019909	1.024590
C92	C	0.799289	-0.964311	1.069994
C93	C	0.791422	-0.874450	1.058670
C94	C	0.715710	-0.840181	1.001939
C95	C	0.647868	-0.895779	0.956535
H96	H	0.737275	-1.086434	1.032975
H97	H	0.855337	-0.989679	1.111990
H98	H	0.841642	-0.833293	1.092281
H99	H	0.709883	-0.773656	0.993554
H100	H	0.591821	-0.870411	0.914538
H101	H	0.352606	-1.234182	1.079955
C102	C	0.273278	-0.555973	0.224406
C103	C	0.197620	-0.499234	0.258774
C104	C	0.129694	-0.453809	0.203271
C105	C	0.137425	-0.465122	0.113401
C106	C	0.213086	-0.521864	0.079029
C107	C	0.281012	-0.567289	0.134531
H108	H	0.191894	-0.490857	0.325306
H109	H	0.073684	-0.411805	0.228716
H110	H	0.087142	-0.431496	0.072314
H111	H	0.218812	-0.530241	0.012497
H112	H	0.337021	-0.609293	0.109086
C113	C	0.334993	-0.853168	0.274836
C114	C	0.225349	-0.841833	0.281446
C115	C	0.157398	-0.887220	0.225931
C116	C	0.199092	-0.943942	0.163806
C117	C	0.308742	-0.955279	0.157193
C118	C	0.376692	-0.909892	0.212708
H119	H	0.194479	-0.799842	0.327437
H120	H	0.076228	-0.878827	0.230826
H121	H	0.148791	-0.977540	0.122710
H122	H	0.339611	-0.997270	0.111202
H123	H	0.457862	-0.918285	0.207813
C124	C	0.335059	-0.432163	0.274878
C125	C	0.259390	-0.375435	0.309246
C126	C	0.191450	-0.330022	0.253744
C127	C	0.199180	-0.341337	0.163874
C128	C	0.274853	-0.398067	0.129501
C129	C	0.342793	-0.443480	0.185003
H130	H	0.253664	-0.367057	0.375778
H131	H	0.135432	-0.288026	0.279190
H132	H	0.148887	-0.307719	0.122788
H133	H	0.280578	-0.406445	0.062969
H134	H	0.398811	-0.485476	0.159557
C135	C	0.273361	-1.299137	0.794591
C136	C	0.163703	-1.292720	0.805972
C137	C	0.095858	-1.348334	0.760590
C138	C	0.137672	-1.410365	0.703827
C139	C	0.247336	-1.416785	0.692443
C140	C	0.315181	-1.361171	0.737825
H141	H	0.132745	-1.246799	0.847994
H142	H	0.014677	-1.343582	0.769018
H143	H	0.087449	-1.451534	0.670233
H144	H	0.278294	-1.462706	0.650422
H145	H	0.396362	-1.365923	0.729398
