data_functionalizedCrystal
_audit_creation_method	'MofGen! by Chris Wilmer'
_symmetry_space_group_name_H-M	'P1'
_symmetry_Int_Tables_number	1
_symmetry_cell_setting	triclinic
loop_
_symmetry_equiv_pos_as_xyz
  x,y,z
_cell_length_a	12.759401
_cell_length_b	13.031981
_cell_length_c	13.034296
_cell_angle_alpha	103.356786
_cell_angle_beta	97.201562
_cell_angle_gamma	97.193318
loop_
_atom_site_label
_atom_site_type_symbol
_atom_site_fract_x
_atom_site_fract_y
_atom_site_fract_z
Zn1	Zn	1.631871	-0.346552	0.546805
Zn2	Zn	1.965204	-0.013219	0.880139
Zn3	Zn	2.298537	0.320114	1.213472
Zn4	Zn	1.580627	-0.546802	0.346600
Zn5	Zn	1.913960	-0.213468	0.679933
Zn6	Zn	2.247293	0.119865	1.013266
Zn7	Zn	1.430596	-0.369173	0.369198
Zn8	Zn	1.763929	-0.035840	0.702531
Zn9	Zn	2.097263	0.297493	1.035864
Zn10	Zn	1.430598	-0.524167	0.524182
Zn11	Zn	1.763932	-0.190833	0.857515
Zn12	Zn	2.097265	0.142500	1.190848
O13	O	1.518423	-0.446674	0.446696
O14	O	1.851756	-0.113340	0.780029
O15	O	2.185090	0.219993	1.113363
O16	O	1.772095	-0.373122	0.520258
O17	O	2.105428	-0.039789	0.853592
O18	O	2.438761	0.293545	1.186925
O19	O	1.539278	-0.542179	0.200949
O20	O	1.872612	-0.208845	0.534283
O21	O	2.205945	0.124488	0.867616
O22	O	1.478740	-0.217502	0.411683
O23	O	1.812074	0.115831	0.745016
O24	O	2.145407	0.449164	1.078350
O25	O	1.734446	-0.520244	0.373168
O26	O	2.067779	-0.186911	0.706501
O27	O	2.401113	0.146422	1.039835
O28	O	1.626616	-0.200883	0.542171
O29	O	1.959949	0.132451	0.875504
O30	O	2.293283	0.465784	1.208837
O31	O	1.429051	-0.411676	0.217552
O32	O	1.762384	-0.078343	0.550885
O33	O	2.095718	0.254991	0.884219
O34	O	1.283575	-0.389728	0.389746
O35	O	1.616908	-0.056394	0.723079
O36	O	1.950241	0.276939	1.056413
O37	O	1.478744	-0.481666	0.675831
O38	O	1.812078	-0.148333	1.009164
O39	O	2.145411	0.185001	1.342498
O40	O	1.283576	-0.503601	0.503612
O41	O	1.616910	-0.170267	0.836945
O42	O	1.950243	0.163066	1.170279
O43	O	1.626618	-0.351174	0.692452
O44	O	1.959952	-0.017840	1.025786
O45	O	2.293285	0.315493	1.359119
O46	O	1.539280	-0.692470	0.351231
O47	O	1.872614	-0.359136	0.684564
O48	O	2.205947	-0.025803	1.017898
O49	O	1.429055	-0.675840	0.481700
O50	O	1.762388	-0.342506	0.815033
O51	O	2.095722	-0.009173	1.148366
C52	C	1.245454	-0.446663	0.446677
C53	C	1.578788	-0.113330	0.780010
C54	C	1.912121	0.220003	1.113343
C55	C	1.128677	-0.446681	0.446690
C56	C	1.462011	-0.113348	0.780024
C57	C	1.795344	0.219985	1.113357
C58	C	1.478639	-0.722700	0.411581
C59	C	1.811973	-0.389367	0.744915
C60	C	2.145306	-0.056034	1.078248
C61	C	1.461721	-0.840781	0.396595
C62	C	1.795054	-0.507448	0.729928
C63	C	2.128388	-0.174114	1.063261
C64	C	1.073813	-0.506092	0.505860
C65	C	1.407147	-0.172759	0.839194
C66	C	1.740480	0.160575	1.172527
C67	C	0.964092	-0.506093	0.505881
C68	C	1.297425	-0.172760	0.839214
C69	C	1.630758	0.160573	1.172548
C70	C	0.964107	-0.387272	0.387553
C71	C	1.297440	-0.053938	0.720886
C72	C	1.630773	0.279395	1.054219
C73	C	1.073828	-0.387265	0.387539
C74	C	1.407161	-0.053932	0.720872
C75	C	1.740494	0.279402	1.054205
C76	C	1.527312	-0.885111	0.454539
C77	C	1.860645	-0.551778	0.787872
C78	C	2.193978	-0.218444	1.121206
C79	C	1.509827	-1.007153	0.439051
C80	C	1.843161	-0.673820	0.772384
C81	C	2.176494	-0.340487	1.105718
C82	C	1.792457	-0.446685	0.446716
C83	C	2.125791	-0.113351	0.780049
C84	C	2.459124	0.219982	1.113383
C85	C	1.909234	-0.446689	0.446725
C86	C	2.242568	-0.113356	0.780058
C87	C	2.575901	0.219977	1.113391
C88	C	1.558398	-0.411372	0.723762
C89	C	1.891731	-0.078038	1.057095
C90	C	2.225064	0.255295	1.390429
C91	C	1.575432	-0.396328	0.841831
C92	C	1.908766	-0.062995	1.175164
C93	C	2.242099	0.270339	1.508498
C94	C	1.558394	-0.169566	0.481971
C95	C	1.891727	0.163767	0.815305
C96	C	2.225061	0.497101	1.148638
C97	C	1.575427	-0.051479	0.497003
C98	C	1.908761	0.281854	0.830337
C99	C	2.242094	0.615187	1.163670
C100	C	1.478675	-0.481762	0.170718
C101	C	1.812009	-0.148428	0.504051
C102	C	2.145342	0.184905	0.837384
C103	C	1.461887	-0.496506	0.052687
C104	C	1.795220	-0.163172	0.386021
C105	C	2.128554	0.170161	0.719354
C106	C	1.509862	-0.454186	0.886246
C107	C	1.843195	-0.120853	1.219579
C108	C	2.176529	0.212480	1.552913
C109	C	1.527467	-0.438639	1.008276
C110	C	1.860800	-0.105306	1.341610
C111	C	2.194133	0.228027	1.674943
H112	H	1.118469	-0.554470	0.554028
H113	H	1.451803	-0.221136	0.887362
H114	H	1.785136	0.112197	1.220695
F115	F	1.419451	-0.533980	0.817868
F116	F	1.752784	-0.200647	1.151202
F117	F	2.086118	0.132686	1.484535
H118	H	0.919427	-0.554470	0.554065
H119	H	1.252760	-0.221136	0.887398
H120	H	1.586094	0.112197	1.220731
F121	F	0.905722	-0.324042	0.324601
F122	F	1.239056	0.009292	0.657935
F123	F	1.572389	0.342625	0.991268
H124	H	1.596645	-0.377595	1.060590
H125	H	1.929978	-0.044261	1.393923
H126	H	2.263312	0.289072	1.727256
H127	H	1.118500	-0.338879	0.339356
H128	H	1.451833	-0.005546	0.672690
H129	H	1.785167	0.327788	1.006023
F130	F	1.617623	-0.816625	0.534380
F131	F	1.950956	-0.483292	0.867713
F132	F	2.284290	-0.149959	1.201047
F133	F	1.371475	-0.576310	0.984315
F134	F	1.704809	-0.242977	1.317648
F135	F	2.038142	0.090357	1.650981
F136	F	1.665850	-0.316542	0.910208
F137	F	1.999184	0.016791	1.243541
F138	F	2.332517	0.350125	1.576874
H139	H	1.440719	-1.059549	0.377977
H140	H	1.774053	-0.726215	0.711310
H141	H	2.107386	-0.392882	1.044644
F142	F	1.665752	-0.983000	0.576841
F143	F	1.999085	-0.649667	0.910174
F144	F	2.332418	-0.316334	1.243507
H145	H	1.392618	-0.893180	0.335525
H146	H	1.725951	-0.559846	0.668858
H147	H	2.059284	-0.226513	1.002192
