data_functionalizedCrystal
_audit_creation_method	'MofGen! by Chris Wilmer'
_symmetry_space_group_name_H-M	'P1'
_symmetry_Int_Tables_number	1
_symmetry_cell_setting	triclinic
loop_
_symmetry_equiv_pos_as_xyz
  x,y,z
_cell_length_a	8.559649
_cell_length_b	12.996460
_cell_length_c	8.597304
_cell_angle_alpha	97.700122
_cell_angle_beta	77.624695
_cell_angle_gamma	90.005408
loop_
_atom_site_label
_atom_site_type_symbol
_atom_site_fract_x
_atom_site_fract_y
_atom_site_fract_z
O1	O	2.119302	0.080838	-0.053153
O2	O	2.619302	0.580838	0.446847
O3	O	1.655363	0.088015	0.027746
O4	O	2.155363	0.588015	0.527746
O5	O	1.896461	0.064073	-0.242269
O6	O	2.396461	0.564073	0.257731
O7	O	1.878205	0.104780	0.216861
O8	O	2.378205	0.604780	0.716861
O9	O	1.896429	-0.107060	-0.242251
O10	O	2.396429	0.392940	0.257749
O11	O	1.655332	-0.083118	0.027764
O12	O	2.155332	0.416882	0.527764
O13	O	2.119271	-0.090294	-0.053136
O14	O	2.619271	0.409706	0.446864
Cu15	Cu	1.887298	-0.102332	-0.012684
Cu16	Cu	2.387298	0.397668	0.487316
Cu17	Cu	1.887336	0.100052	-0.012705
Cu18	Cu	2.387336	0.600052	0.487295
O19	O	1.878173	-0.066352	0.216879
O20	O	2.378173	0.433648	0.716879
C21	C	1.595913	0.002993	0.033886
C22	C	2.095913	0.502993	0.533886
C23	C	1.418819	0.004612	0.052135
C24	C	1.918819	0.504612	0.552135
N25	N	1.887284	-0.244678	-0.012672
N26	N	2.387284	0.255322	0.487328
C27	C	1.887291	-0.337783	-0.012669
C28	C	2.387291	0.162217	0.487331
C29	C	1.887306	-0.454589	-0.012681
C30	C	2.387306	0.045411	0.487319
C31	C	1.887326	-0.547689	-0.012701
C32	C	2.387326	-0.047689	0.487299
C33	C	1.887343	-0.664503	-0.012712
C34	C	2.387343	-0.164503	0.487288
C35	C	2.178721	-0.005270	-0.059275
C36	C	2.678721	0.494730	0.440725
C37	C	2.355816	-0.006882	-0.077524
C38	C	2.855816	0.493118	0.422476
C39	C	1.894483	-0.026655	-0.300494
C40	C	2.394483	0.473345	0.199506
C41	C	1.888619	-0.042032	-0.474013
C42	C	2.388619	0.457968	0.025987
N43	N	1.887362	0.242397	-0.012732
N44	N	2.387362	0.742397	0.487268
C45	C	1.880151	0.024377	0.275105
C46	C	2.380151	0.524377	0.775105
C47	C	1.886015	0.039762	0.448623
C48	C	2.386015	0.539762	0.948623
H49	H	1.337266	0.015698	0.177111
H50	H	1.837266	0.515698	0.677111
Br51	Br	1.889774	0.176105	-0.440524
Br52	Br	2.389774	0.676105	0.059476
Br53	Br	1.884822	-0.178381	-0.584861
Br54	Br	2.384822	0.321619	-0.084861
H55	H	1.437359	-0.017957	-0.202492
H56	H	1.937359	0.482043	0.297508
