data_functionalizedCrystal
_audit_creation_method	'MofGen! by Chris Wilmer'
_symmetry_space_group_name_H-M	'P1'
_symmetry_Int_Tables_number	1
_symmetry_cell_setting	triclinic
loop_
_symmetry_equiv_pos_as_xyz
  x,y,z
_cell_length_a	29.839134
_cell_length_b	29.839134
_cell_length_c	29.839126
_cell_angle_alpha	90.031345
_cell_angle_beta	89.989304
_cell_angle_gamma	89.998637
loop_
_atom_site_label
_atom_site_type_symbol
_atom_site_fract_x
_atom_site_fract_y
_atom_site_fract_z
Zn1	Zn	-0.178943	-0.686864	-0.254188
Zn2	Zn	-0.254064	-0.686833	-0.179075
Zn3	Zn	-0.178943	-0.611737	-0.179055
Zn4	Zn	-0.254041	-0.611741	-0.254161
O5	O	-0.216498	-0.649294	-0.216620
O6	O	-0.188918	-0.749727	-0.244243
O7	O	-0.244108	-0.676856	-0.116205
O8	O	-0.116076	-0.621714	-0.189024
O9	O	-0.244109	-0.749704	-0.189058
O10	O	-0.116076	-0.676910	-0.244224
O11	O	-0.188917	-0.621684	-0.116190
O12	O	-0.188895	-0.548870	-0.188998
O13	O	-0.244070	-0.621721	-0.317032
O14	O	-0.244069	-0.548873	-0.244179
O15	O	-0.188896	-0.676914	-0.317051
O16	O	-0.316928	-0.676860	-0.189033
O17	O	-0.316911	-0.621691	-0.244199
C18	C	-0.216480	-0.532571	-0.216584
C19	C	-0.216483	-0.482637	-0.216579
C20	C	-0.245274	-0.173004	-0.245303
C21	C	-0.245288	0.014669	-0.245317
O22	O	-0.269744	0.038924	-0.269727
N23	N	-0.216520	0.038148	-0.216633
C24	C	-0.187745	0.014707	-0.187945
O25	O	-0.163273	0.038984	-0.163551
C26	C	-0.187728	-0.172965	-0.187934
C27	C	-0.216501	-0.196443	-0.216616
C28	C	-0.274044	-0.196482	-0.273984
C29	C	-0.274042	-0.243397	-0.273978
C30	C	-0.245269	-0.266835	-0.245292
C31	C	-0.216499	-0.243358	-0.216611
C32	C	-0.158951	-0.196406	-0.159249
C33	C	-0.158949	-0.243327	-0.159249
C34	C	-0.187722	-0.266804	-0.187932
C35	C	-0.187725	-0.313712	-0.187919
N36	N	-0.216492	-0.337191	-0.216603
C37	C	-0.245265	-0.313753	-0.245289
C38	C	-0.187756	0.113238	-0.187953
C39	C	-0.187760	0.160155	-0.187955
C40	C	-0.245303	0.160114	-0.245328
C41	C	-0.245300	0.113195	-0.245323
C42	C	-0.216523	0.089758	-0.216637
C43	C	-0.245258	-0.412279	-0.245275
C44	C	-0.245255	-0.459199	-0.245266
C45	C	-0.187711	-0.459153	-0.187895
C46	C	-0.187716	-0.412237	-0.187903
C47	C	-0.216491	-0.388802	-0.216596
O48	O	-0.163278	-0.337996	-0.163525
O49	O	-0.269726	-0.338038	-0.269687
C50	C	-0.245276	-0.126089	-0.245308
C51	C	-0.216506	-0.102612	-0.216628
C52	C	-0.187733	-0.126050	-0.187941
C53	C	-0.216510	-0.055694	-0.216630
C54	C	-0.245282	-0.032256	-0.245316
C55	C	-0.274050	-0.055735	-0.274000
C56	C	-0.274048	-0.102651	-0.273995
C57	C	-0.158965	-0.102570	-0.159257
C58	C	-0.158970	-0.055655	-0.159265
C59	C	-0.187743	-0.032216	-0.187951
C60	C	-0.333220	-0.649285	-0.216625
C61	C	-0.383155	-0.649322	-0.216642
C62	C	-0.099319	-0.649315	-0.216624
C63	C	-0.049385	-0.649324	-0.216626
C64	C	0.260262	-0.620576	-0.187897
C65	C	0.447935	-0.620579	-0.187902
O66	O	0.472202	-0.596126	-0.163475
N67	N	0.471400	-0.649317	-0.216640
C68	C	0.447944	-0.678055	-0.245382
O69	O	0.472209	-0.702496	-0.269830
C70	C	0.260272	-0.678050	-0.245380
C71	C	0.236809	-0.649313	-0.216636
C72	C	0.236799	-0.591841	-0.159156
C73	C	0.189883	-0.591842	-0.159154
C74	C	0.166431	-0.620579	-0.187892
C75	C	0.189894	-0.649314	-0.216634
C76	C	0.236817	-0.706786	-0.274124
C77	C	0.189896	-0.706781	-0.274121
C78	C	0.166433	-0.678044	-0.245377
C79	C	0.119526	-0.678052	-0.245370
N80	N	0.096061	-0.649314	-0.216631
C81	C	0.119513	-0.620577	-0.187892
C82	C	0.546475	-0.678057	-0.245381
C83	C	0.593393	-0.678059	-0.245381
C84	C	0.593380	-0.620581	-0.187901
C85	C	0.546461	-0.620582	-0.187899
C86	C	0.523010	-0.649318	-0.216642
C87	C	0.020987	-0.620582	-0.187889
C88	C	-0.025932	-0.620587	-0.187888
C89	C	-0.025916	-0.678063	-0.245369
C90	C	0.021000	-0.678060	-0.245369
C91	C	0.044450	-0.649315	-0.216627
O92	O	0.095229	-0.702488	-0.269787
O93	O	0.095240	-0.596133	-0.163456
C94	C	0.307177	-0.620575	-0.187900
C95	C	0.330640	-0.649310	-0.216641
C96	C	0.307188	-0.678047	-0.245380
C97	C	0.377558	-0.649312	-0.216641
C98	C	0.401011	-0.620575	-0.187902
C99	C	0.377545	-0.591837	-0.159164
C100	C	0.330630	-0.591838	-0.159161
C101	C	0.330653	-0.706786	-0.274118
C102	C	0.377569	-0.706782	-0.274118
C103	C	0.401021	-0.678045	-0.245380
C104	C	-0.216480	-0.649322	-0.333798
C105	C	-0.216473	-0.649333	-0.383733
C106	C	-0.216518	0.233528	-0.216649
C107	C	-0.216533	0.183593	-0.216642
C108	C	-0.187690	-0.620614	-0.693371
C109	C	-0.187659	-0.620627	-0.881044
O110	O	-0.163231	-0.596186	-0.905305
N111	N	-0.216389	-0.649355	-0.904518
C112	C	-0.245131	-0.678079	-0.881070
O113	O	-0.269570	-0.702511	-0.905342
C114	C	-0.245164	-0.678064	-0.693398
C115	C	-0.216429	-0.649337	-0.669927
C116	C	-0.158958	-0.591889	-0.669900
C117	C	-0.158964	-0.591888	-0.622985
C118	C	-0.187703	-0.620612	-0.599540
C119	C	-0.216435	-0.649336	-0.623011
C120	C	-0.273908	-0.706786	-0.669951
C121	C	-0.273914	-0.706779	-0.623030
C122	C	-0.245179	-0.678052	-0.599559
C123	C	-0.245180	-0.678059	-0.552652
N124	N	-0.216450	-0.649331	-0.529178
C125	C	-0.187712	-0.620607	-0.552622
C126	C	-0.245111	-0.678086	-0.979601
C127	C	-0.245102	-0.678091	-1.026519
C128	C	-0.187631	-0.620637	-1.026490
C129	C	-0.187637	-0.620635	-0.979571
C130	C	-0.216381	-0.649358	-0.956127
C131	C	-0.187727	-0.620607	-0.454097
C132	C	-0.187734	-0.620610	-0.407177
C133	C	-0.245207	-0.678061	-0.407210
C134	C	-0.245198	-0.678061	-0.454126
C135	C	-0.216456	-0.649330	-0.477568
O136	O	-0.269599	-0.702483	-0.528362
O137	O	-0.163283	-0.596172	-0.528342
C138	C	-0.187684	-0.620615	-0.740287
C139	C	-0.216416	-0.649340	-0.763758
C140	C	-0.245155	-0.678063	-0.740313
C141	C	-0.216407	-0.649344	-0.810676
C142	C	-0.187669	-0.620621	-0.834120
C143	C	-0.158939	-0.591893	-0.810646
C144	C	-0.158945	-0.591892	-0.763731
C145	C	-0.273885	-0.706791	-0.763787
C146	C	-0.273876	-0.706790	-0.810703
C147	C	-0.245137	-0.678067	-0.834147
C148	C	-0.216482	-0.649292	-0.099897
C149	C	-0.216363	-0.649367	-0.049963
H150	H	-0.297478	-0.121762	-0.297351
O151	O	-0.301849	-0.734632	-0.740998
C152	C	-0.330863	-0.709056	-0.713834
H153	H	-0.333632	-0.673671	-0.727949
H154	H	-0.365438	-0.725302	-0.713314
H155	H	-0.316981	-0.707515	-0.678274
H156	H	0.040104	-0.701465	-0.268770
O157	O	-0.131008	-0.564043	-0.600167
C158	C	-0.102003	-0.589616	-0.573030
H159	H	-0.099227	-0.625002	-0.587181
H160	H	-0.067429	-0.573369	-0.572495
H161	H	-0.115897	-0.591155	-0.537471
H162	H	0.255914	-0.730186	-0.297530
O163	O	-0.302019	-0.173669	-0.301788
C164	C	-0.331012	-0.146527	-0.276166
H165	H	-0.315118	-0.139470	-0.242148
H166	H	-0.337070	-0.113549	-0.294461
H167	H	-0.364292	-0.164614	-0.271171
H168	H	-0.268729	0.094083	-0.268680
O169	O	-0.159701	-0.481874	-0.160050
C170	C	-0.114939	-0.470425	-0.169949
H171	H	-0.114032	-0.436370	-0.187222
H172	H	-0.094748	-0.468801	-0.137559
H173	H	-0.099840	-0.496845	-0.193069
O174	O	0.259596	-0.563876	-0.131300
C175	C	0.286750	-0.534869	-0.156860
H176	H	0.272625	-0.532100	-0.192244
H177	H	0.287272	-0.500293	-0.140597
H178	H	0.322311	-0.548756	-0.158406
O179	O	-0.273209	0.182955	-0.273182
C180	C	-0.267047	0.229399	-0.267022
H181	H	-0.232358	0.235813	-0.252358
H182	H	-0.270135	0.247213	-0.300668
H183	H	-0.293664	0.242728	-0.243059
H184	H	0.170784	-0.568440	-0.135749
O185	O	-0.273252	-0.482024	-0.273067
C186	C	-0.302226	-0.509156	-0.247444
H187	H	-0.304954	-0.494996	-0.212057
H188	H	-0.336821	-0.509698	-0.263639
H189	H	-0.288333	-0.544714	-0.245916
O190	O	-0.130982	-0.266024	-0.131338
C191	C	-0.105583	-0.235237	-0.106033
H192	H	-0.123984	-0.201792	-0.104455
H193	H	-0.100741	-0.248767	-0.070641
H194	H	-0.071486	-0.230258	-0.122539
O195	O	-0.131005	-0.032797	-0.131457
C196	C	-0.102017	-0.005679	-0.157079
H197	H	-0.117905	0.001326	-0.191103
H198	H	-0.095979	0.027326	-0.138791
H199	H	-0.068728	-0.023759	-0.162060
H200	H	-0.164335	0.179267	-0.164594
H201	H	-0.135555	-0.568497	-0.688983
O202	O	-0.159713	-0.592685	-0.956842
C203	C	-0.134339	-0.567345	-0.987602
H204	H	-0.152735	-0.565794	-1.021045
H205	H	-0.129544	-0.531947	-0.974034
H206	H	-0.100221	-0.583803	-0.992598
O207	O	0.400311	-0.563967	-0.131184
C208	C	0.388837	-0.573762	-0.086408
H209	H	0.375938	-0.609650	-0.084145
H210	H	0.419692	-0.569887	-0.064218
H211	H	0.361604	-0.549670	-0.074656
H212	H	-0.045034	-0.597185	-0.164479
O213	O	0.616202	-0.706025	-0.273235
C214	C	0.643346	-0.735032	-0.247672
H215	H	0.629204	-0.737799	-0.212288
H216	H	0.643877	-0.769609	-0.263933
H217	H	0.678905	-0.721145	-0.246123
H218	H	-0.297479	-0.036644	-0.297357
O219	O	-0.159787	0.090543	-0.160042
C220	C	-0.134393	0.121333	-0.134736
H221	H	-0.152800	0.154776	-0.133158
H222	H	-0.129549	0.107804	-0.099345
H223	H	-0.100297	0.126318	-0.151242
H224	H	-0.045019	-0.701461	-0.268766
H225	H	-0.135522	-0.177299	-0.135891
O226	O	-0.301802	-0.734755	-0.692691
C227	C	-0.291987	-0.779530	-0.681248
H228	H	-0.274713	-0.780456	-0.647188
H229	H	-0.324415	-0.799665	-0.679638
H230	H	-0.268896	-0.794676	-0.707665
O231	O	0.307820	-0.563983	-0.131196
C232	C	0.280666	-0.589546	-0.102190
H233	H	0.294801	-0.624930	-0.099423
H234	H	0.280133	-0.573286	-0.067613
H235	H	0.245109	-0.591093	-0.116077
O236	O	0.167163	-0.734672	-0.302107
C237	C	0.178628	-0.724850	-0.346878
H238	H	0.212694	-0.707581	-0.347802
H239	H	0.180236	-0.757274	-0.367038
H240	H	0.152225	-0.701753	-0.361999
H241	H	-0.268689	-0.393203	-0.268641
H242	H	0.527385	-0.701460	-0.268787
O243	O	-0.272946	-0.706050	-1.049334
C244	C	-0.247370	-0.735068	-1.076494
H245	H	-0.211988	-0.737844	-1.062359
H246	H	-0.263621	-0.769640	-1.077035
H247	H	-0.245818	-0.721187	-1.112048
O248	O	0.400288	-0.734715	-0.302084
C249	C	0.369522	-0.760084	-0.327440
H250	H	0.336077	-0.741682	-0.328981
H251	H	0.383077	-0.764881	-0.362840
H252	H	0.364532	-0.794201	-0.311001
H253	H	-0.297318	-0.730172	-0.603945
O254	O	-0.159791	-0.389474	-0.159980
C255	C	-0.169549	-0.400892	-0.115183
H256	H	-0.186816	-0.434957	-0.114212
H257	H	-0.137095	-0.402479	-0.095093
H258	H	-0.192624	-0.374473	-0.100021
O259	O	0.307825	-0.734726	-0.301972
C260	C	0.280694	-0.763745	-0.276400
H261	H	0.273656	-0.747890	-0.242351
H262	H	0.247706	-0.769776	-0.294700
H263	H	0.298781	-0.797033	-0.271471
H264	H	-0.164229	-0.597250	-1.045586
H265	H	0.527361	-0.597181	-0.164494
H266	H	-0.297471	-0.262508	-0.297335
O267	O	-0.159884	-0.592680	-0.384328
C268	C	-0.185460	-0.563650	-0.357182
H269	H	-0.219509	-0.579489	-0.350157
H270	H	-0.167164	-0.557629	-0.324188
H271	H	-0.190391	-0.530358	-0.375248
O272	O	0.616236	-0.592678	-0.160028
C273	C	0.662677	-0.598854	-0.166188
H274	H	0.669085	-0.613582	-0.200861
H275	H	0.680511	-0.565204	-0.163138
H276	H	0.675988	-0.622768	-0.139545
H277	H	-0.268592	-0.701457	-0.473237
O278	O	-0.131001	-0.125265	-0.131347
C279	C	-0.105605	-0.094475	-0.106043
H280	H	-0.124009	-0.061031	-0.104467
H281	H	-0.100763	-0.108002	-0.070650
H282	H	-0.071508	-0.089494	-0.122548
O283	O	-0.159764	-0.592686	-0.476794
C284	C	-0.134416	-0.567328	-0.446010
H285	H	-0.132874	-0.585732	-0.412576
H286	H	-0.099015	-0.562544	-0.459559
H287	H	-0.150861	-0.533205	-0.441000
H288	H	-0.297274	-0.730187	-0.829809
O289	O	0.043693	-0.592647	-0.159927
C290	C	0.012915	-0.567279	-0.134571
H291	H	-0.020527	-0.585685	-0.133024
H292	H	0.026461	-0.562478	-0.099172
H293	H	0.007924	-0.533164	-0.151011
O294	O	-0.273045	-0.706035	-0.956901
C295	C	-0.298404	-0.731382	-0.987685
H296	H	-0.279993	-0.732937	-1.021129
H297	H	-0.303202	-0.766778	-0.974151
H298	H	-0.332521	-0.714927	-0.992668
H299	H	-0.268604	-0.701449	-0.388113
O300	O	-0.131020	-0.563942	-0.741004
C301	C	-0.105649	-0.538601	-0.771765
H302	H	-0.124048	-0.537050	-0.805207
H303	H	-0.100852	-0.503203	-0.758198
H304	H	-0.071531	-0.555059	-0.776766
H305	H	-0.135537	-0.568507	-0.829743
