data_functionalizedCrystal
_audit_creation_method	'MofGen! by Chris Wilmer'
_symmetry_space_group_name_H-M	'P1'
_symmetry_Int_Tables_number	1
_symmetry_cell_setting	triclinic
loop_
_symmetry_equiv_pos_as_xyz
  x,y,z
_cell_length_a	10.654550
_cell_length_b	10.654550
_cell_length_c	9.730223
_cell_angle_alpha	90.001969
_cell_angle_beta	89.998978
_cell_angle_gamma	95.515070
loop_
_atom_site_label
_atom_site_type_symbol
_atom_site_fract_x
_atom_site_fract_y
_atom_site_fract_z
O1	O	-1.667841	0.176402	0.114173
O2	O	-1.167841	0.676402	0.614173
O3	O	-1.302362	0.193208	0.114197
O4	O	-0.802362	0.693208	0.614197
O5	O	-1.493504	0.002066	0.114190
O6	O	-0.993504	0.502066	0.614190
O7	O	-1.476698	0.367544	0.114180
O8	O	-0.976698	0.867544	0.614180
O9	O	-1.493489	0.002054	-0.114390
O10	O	-0.993489	0.502054	0.385610
O11	O	-1.302347	0.193196	-0.114383
O12	O	-0.802347	0.693196	0.385617
O13	O	-1.667825	0.176390	-0.114407
O14	O	-1.167825	0.676390	0.385593
Zn15	Zn	-1.485084	0.184791	-0.150687
Zn16	Zn	-0.985084	0.684791	0.349313
Zn17	Zn	-1.485104	0.184807	0.150477
Zn18	Zn	-0.985104	0.684807	0.650477
O19	O	-1.476683	0.367532	-0.114400
O20	O	-0.976683	0.867532	0.385600
C21	C	-1.255556	0.191968	-0.000090
C22	C	-0.755556	0.691968	0.499910
C23	C	-1.116113	0.188276	-0.000080
C24	C	-0.616113	0.688276	0.499920
C25	C	-1.492263	-0.044738	-0.000095
C26	C	-0.992263	0.455262	0.499905
C27	C	-1.488571	-0.184181	-0.000082
C28	C	-0.988571	0.315819	0.499918
C29	C	-1.714631	0.177630	-0.000117
C30	C	-1.214631	0.677630	0.499883
C31	C	-1.854074	0.181322	-0.000118
C32	C	-1.354074	0.681322	0.499882
N33	N	-1.485079	0.184780	-0.356223
N34	N	-0.985079	0.684780	0.143777
C35	C	-1.036628	0.300818	-0.000087
C36	C	-0.536628	0.800818	0.499913
C37	C	-0.905607	0.297341	-0.000111
C38	C	-0.405607	0.797341	0.499889
C39	C	-0.933570	0.068772	-0.000115
C40	C	-0.433570	0.568772	0.499885
C41	C	-1.064588	0.072250	-0.000101
C42	C	-0.564588	0.572250	0.499899
C43	C	-1.477925	0.414336	-0.000112
C44	C	-0.977925	0.914336	0.499888
C45	C	-1.481616	0.553779	-0.000116
C46	C	-0.981616	1.053779	0.499884
C47	C	-1.369075	0.633265	-0.000105
C48	C	-0.869075	1.133265	0.499895
C49	C	-1.372551	0.764286	-0.000083
C50	C	-0.872551	1.264286	0.499917
C51	C	-1.601121	0.736323	-0.000089
C52	C	-1.101121	1.236323	0.499911
C53	C	-1.597643	0.605304	-0.000101
C54	C	-1.097643	1.105304	0.499899
C55	C	-1.408281	0.107921	-0.572079
C56	C	-0.908281	0.607921	-0.072079
C57	C	-1.408265	0.107903	-0.428196
C58	C	-0.908265	0.607903	0.071804
C59	C	-1.561924	0.261671	-0.428141
C60	C	-1.061924	0.761671	0.071859
C61	C	-1.561947	0.261681	-0.572022
C62	C	-1.061947	0.761681	-0.072022
N63	N	-1.485118	0.184808	0.356013
N64	N	-0.985118	0.684808	0.856013
H65	H	-1.078574	0.395294	-0.000080
H66	H	-0.578574	0.895294	0.499920
F67	F	-1.252769	0.848876	-0.000066
F68	F	-0.752769	1.348876	0.499934
H69	H	-0.891602	-0.025693	-0.000140
H70	H	-0.391602	0.474307	0.499860
H71	H	-1.274599	0.591318	-0.000122
H72	H	-0.774599	1.091318	0.499878
H73	H	-1.345724	0.045325	-0.630668
H74	H	-0.845724	0.545325	-0.130668
F75	F	-0.821017	0.417124	-0.000121
F76	F	-0.321017	0.917124	0.499879
H77	H	-1.345698	0.045292	-0.369655
H78	H	-0.845698	0.545292	0.130345
F79	F	-1.149188	-0.047539	-0.000102
F80	F	-0.649188	0.452461	0.499898
H81	H	-1.695586	0.778291	-0.000090
H82	H	-1.195586	1.278291	0.499910
F83	F	-1.717432	0.520704	-0.000105
F84	F	-1.217432	1.020704	0.499895
H85	H	-1.624474	0.324259	-0.369530
H86	H	-1.124474	0.824259	0.130470
H87	H	-1.624523	0.324292	-0.630571
H88	H	-1.124523	0.824292	-0.130571
