data_functionalizedCrystal
_audit_creation_method	'MofGen! by Chris Wilmer'
_symmetry_space_group_name_H-M	'P1'
_symmetry_Int_Tables_number	1
_symmetry_cell_setting	triclinic
loop_
_symmetry_equiv_pos_as_xyz
  x,y,z
_cell_length_a	12.837943
_cell_length_b	12.837942
_cell_length_c	15.186229
_cell_angle_alpha	89.996774
_cell_angle_beta	89.997745
_cell_angle_gamma	94.828940
loop_
_atom_site_label
_atom_site_type_symbol
_atom_site_fract_x
_atom_site_fract_y
_atom_site_fract_z
O1	O	1.402334	0.272139	-0.073212
O2	O	1.099201	0.258696	-0.073217
O3	O	1.244046	0.113850	-0.073209
O4	O	1.257489	0.416984	-0.073220
O5	O	1.244035	0.113847	0.073248
O6	O	1.099190	0.258692	0.073240
O7	O	1.402323	0.272136	0.073245
Zn8	Zn	1.250755	0.265413	0.096496
Zn9	Zn	1.250769	0.265418	-0.096468
O10	O	1.257478	0.416981	0.073237
C11	C	1.060126	0.254153	0.000011
C12	C	0.943711	0.240608	0.000009
C13	C	0.718837	0.403437	0.000016
C14	C	0.609454	0.390716	0.000015
C15	C	0.615562	0.202445	0.000012
C16	C	0.724944	0.215166	0.000013
C17	C	0.776578	0.315666	0.000014
C18	C	0.885962	0.328386	0.000008
C19	C	0.892067	0.140116	0.000012
C20	C	0.782685	0.127395	0.000011
C21	C	1.239499	0.074780	0.000019
C22	C	1.225954	-0.041635	0.000017
C23	C	1.388784	-0.266510	0.000001
C24	C	1.376062	-0.375892	-0.000000
C25	C	1.187791	-0.369785	0.000006
C26	C	1.200513	-0.260402	0.000007
C27	C	1.301012	-0.208769	0.000007
C28	C	1.313732	-0.099384	0.000015
C29	C	1.125462	-0.093279	0.000014
C30	C	1.112741	-0.202661	0.000012
C31	C	1.441398	0.276679	0.000015
C32	C	1.557813	0.290223	0.000011
C33	C	1.262025	0.456052	0.000007
C34	C	1.275569	0.572467	0.000003
N35	N	1.250752	0.265410	0.228188
N36	N	1.250779	0.265413	-0.228161
C37	C	1.314916	0.201299	0.453915
C38	C	1.314919	0.201297	0.546105
C39	C	1.186608	0.329527	0.546107
C40	C	1.186600	0.329523	0.453919
C41	C	1.250760	0.265411	0.407825
C42	C	1.250771	0.265413	0.592203
C43	C	1.250774	0.265411	0.692159
C44	C	1.250756	0.265411	0.307863
H45	H	0.740630	0.045571	0.000020
C46	C	1.441737	0.074541	0.463176
C47	C	1.385429	0.130818	0.403248
H48	H	1.485262	0.031022	0.431896
H49	H	1.483699	0.121857	0.499122
H50	H	1.394431	0.032564	0.499142
H51	H	1.432735	0.172801	0.367286
H52	H	1.343463	0.083496	0.367287
H53	H	1.105969	-0.411844	-0.000003
C54	C	1.371898	0.144357	0.687419
C55	C	1.385442	0.130825	0.596768
H56	H	1.415433	0.100841	0.718693
H57	H	1.390169	0.215344	0.702518
H58	H	1.300907	0.126045	0.702523
H59	H	1.456432	0.149145	0.581662
H60	H	1.367178	0.059822	0.581662
H61	H	1.470614	-0.224469	0.000009
C62	C	1.059764	0.456263	0.536848
C63	C	1.116085	0.399998	0.596775
H64	H	1.016222	0.499764	0.568129
H65	H	1.107053	0.498248	0.500888
H66	H	1.017808	0.408932	0.500896
H67	H	1.158047	0.447329	0.632723
H68	H	1.068790	0.358009	0.632750
C69	C	1.129618	0.386453	0.312599
C70	C	1.116077	0.400002	0.403248
H71	H	1.086076	0.429957	0.281319
H72	H	1.200598	0.404761	0.297491
H73	H	1.111344	0.315453	0.297509
H74	H	1.134358	0.471001	0.418340
H75	H	1.045081	0.381702	0.418363
C76	C	0.914428	0.492788	-0.075272
C77	C	0.942718	0.438854	0.000011
H78	H	0.949459	0.560990	-0.075263
H79	H	0.933619	0.456206	-0.126337
H80	H	0.841017	0.497760	-0.075261
H81	H	1.016128	0.433875	-0.000002
H82	H	0.923533	0.475446	0.051090
C83	C	0.747316	0.567828	-0.075278
C84	C	0.775599	0.513902	0.000011
H85	H	0.782354	0.636027	-0.075277
H86	H	0.766505	0.531236	-0.126339
H87	H	0.673907	0.572808	-0.075270
H88	H	0.849008	0.508916	-0.000000
H89	H	0.756417	0.550504	0.051086
C90	C	0.482902	0.485629	0.075301
C91	C	0.545985	0.487198	0.000013
H92	H	0.443725	0.545200	0.075301
H93	H	0.436497	0.423968	0.075293
H94	H	0.525707	0.486675	0.126369
H95	H	0.503179	0.486144	-0.051055
H96	H	0.592395	0.548876	0.000013
H97	H	1.053992	-0.046254	0.000025
C98	C	0.450592	0.099360	0.000025
C99	C	0.558793	0.091983	0.000020
H100	H	0.415547	0.031163	0.000026
H101	H	0.431424	0.135949	0.051094
H102	H	0.431422	0.135956	-0.051052
H103	H	0.577964	0.055393	0.051100
H104	H	0.577968	0.055378	-0.051055
C105	C	1.018618	0.045205	-0.075282
C106	C	0.955538	0.043628	0.000008
H107	H	1.057805	-0.014359	-0.075283
H108	H	0.975818	0.044159	-0.126343
H109	H	1.065024	0.106879	-0.075271
H110	H	0.909127	-0.018043	-0.000006
H111	H	0.998343	0.044664	0.051082
H112	H	1.395564	-0.057346	0.000017
C113	C	1.009642	-0.367626	0.000018
C114	C	1.002276	-0.259423	0.000019
H115	H	0.941444	-0.402665	0.000030
H116	H	1.046224	-0.386795	-0.051056
H117	H	1.046243	-0.386801	0.051090
H118	H	0.965682	-0.240247	-0.051056
H119	H	0.965679	-0.240247	0.051099
H120	H	1.447536	-0.422901	-0.000007
