data_functionalizedCrystal
_audit_creation_method	'MofGen! by Chris Wilmer'
_symmetry_space_group_name_H-M	'P1'
_symmetry_Int_Tables_number	1
_symmetry_cell_setting	triclinic
loop_
_symmetry_equiv_pos_as_xyz
  x,y,z
_cell_length_a	14.908520
_cell_length_b	19.805407
_cell_length_c	14.908308
_cell_angle_alpha	86.722936
_cell_angle_beta	96.360765
_cell_angle_gamma	86.679227
loop_
_atom_site_label
_atom_site_type_symbol
_atom_site_fract_x
_atom_site_fract_y
_atom_site_fract_z
Zn1	Zn	-0.389877	-0.994811	-0.532596
Zn2	Zn	-0.532523	-0.994735	-0.389966
Zn3	Zn	-0.381179	-0.888556	-0.381250
Zn4	Zn	-0.541195	-0.874670	-0.541272
O5	O	-0.461194	-0.938193	-0.461271
O6	O	-0.408810	-1.089517	-0.513692
O7	O	-0.505177	-0.986429	-0.262150
O8	O	-0.255669	-0.908495	-0.394048
O9	O	-0.513611	-1.089460	-0.408903
O10	O	-0.262059	-0.986560	-0.505241
O11	O	-0.393986	-0.908420	-0.255746
O12	O	-0.402395	-0.791999	-0.402461
O13	O	-0.528392	-0.884828	-0.666781
O14	O	-0.519958	-0.781797	-0.520028
O15	O	-0.417220	-0.973095	-0.660407
O16	O	-0.660338	-0.972964	-0.417315
O17	O	-0.666709	-0.884754	-0.528479
C18	C	-0.696367	-0.927361	-0.474804
C19	C	-0.796978	-0.922788	-0.480624
C20	C	-0.461175	-0.762339	-0.461241
C21	C	-0.461190	-0.687106	-0.461250
C22	C	-0.474744	-0.927421	-0.697354
C23	C	-0.480518	-0.922831	-0.797958
C24	C	-0.979344	-1.006133	-0.375899
C25	C	-1.073876	-1.001838	-0.381364
C26	C	-1.080575	-0.909908	-0.497024
C27	C	-0.986043	-0.914202	-0.491559
C28	C	-0.935431	-0.962316	-0.430993
C29	C	-0.840897	-0.966607	-0.425524
C30	C	-0.847598	-0.874680	-0.541187
C31	C	-0.942130	-0.870385	-0.546653
C32	C	-0.225103	-0.949085	-0.447705
C33	C	-0.124495	-0.953726	-0.441924
C34	C	-0.461213	-1.114734	-0.461302
C35	C	-0.461222	-1.189965	-0.461315
C36	C	-0.522486	-0.646468	-0.522379
C37	C	-0.522489	-0.575779	-0.522392
C38	C	-0.461198	-0.545729	-0.461271
C39	C	-0.399895	-0.586373	-0.400140
C40	C	-0.399889	-0.657061	-0.400132
C41	C	-0.399916	-0.301298	-0.400171
C42	C	-0.399929	-0.230604	-0.400182
C43	C	-0.522516	-0.220016	-0.522431
C44	C	-0.522510	-0.290703	-0.522423
C45	C	-0.461204	-0.331341	-0.461295
C46	C	-0.461201	-0.407990	-0.461283
C47	C	-0.461204	-0.469082	-0.461278
C48	C	-0.375583	-1.006117	-0.980368
C49	C	-0.381005	-1.001806	-1.074895
C50	C	-0.496779	-0.909896	-1.081540
C51	C	-0.491357	-0.914207	-0.987013
C52	C	-0.430758	-0.962320	-0.936431
C53	C	-0.425341	-0.966633	-0.841902
C54	C	-0.541110	-0.874720	-0.848549
C55	C	-0.546532	-0.870410	-0.943076
C56	C	-0.447631	-0.948965	-0.226103
C57	C	-0.441602	-0.953698	-0.125484
H58	H	-0.938134	-1.045304	-0.326578
C59	C	-1.057754	-1.093133	-0.266486
C60	C	-1.122146	-1.049999	-0.320798
H61	H	-1.087556	-1.122864	-0.229091
H62	H	-1.023108	-1.118873	-0.303823
H63	H	-1.018938	-1.066913	-0.229699
H64	H	-1.160958	-1.076220	-0.357591
H65	H	-1.156807	-1.024257	-0.283458
C66	C	-0.644973	-0.719789	-0.541758
C67	C	-0.589861	-0.679494	-0.589566
H68	H	-0.686570	-0.740172	-0.583241
H69	H	-0.608469	-0.754108	-0.505360
H70	H	-0.677268	-0.692410	-0.504261
H71	H	-0.557561	-0.706874	-0.627058
H72	H	-0.626370	-0.645171	-0.625979
H73	H	-0.375999	-1.005810	-0.800719
C74	C	-0.576927	-0.462717	-0.576694
C75	C	-0.589868	-0.531108	-0.589585
H76	H	-0.618523	-0.435141	-0.618184
H77	H	-0.586589	-0.453295	-0.516624
H78	H	-0.516896	-0.453334	-0.586548
H79	H	-0.649898	-0.540493	-0.579725
H80	H	-0.580213	-0.540535	-0.649670
H81	H	-0.983352	-0.831215	-0.595966
H82	H	-0.336074	-1.037469	-1.110665
C83	C	-0.803019	-1.007995	-0.270620
C84	C	-0.785262	-1.019492	-0.358952
H85	H	-0.768677	-1.040649	-0.229524
H86	H	-0.786816	-0.963841	-0.256424
H87	H	-0.865606	-1.011709	-0.266004
H88	H	-0.722675	-1.015773	-0.363570
H89	H	-0.801458	-1.063657	-0.373152
C90	C	-0.583526	-0.759400	-0.821964
C91	C	-0.601758	-0.826571	-0.800249
H92	H	-0.620972	-0.729677	-0.792148
H93	H	-0.521827	-0.753011	-0.802971
H94	H	-0.595431	-0.749954	-0.885502
H95	H	-0.589846	-0.836018	-0.736712
H96	H	-0.663471	-0.832962	-0.819237
H97	H	-0.349970	-0.690148	-0.350360
C98	C	-0.643694	-0.216650	-0.643277
C99	C	-0.589897	-0.175345	-0.589637
H100	H	-0.685293	-0.189072	-0.684762
H101	H	-0.606298	-0.244458	-0.675688
H102	H	-0.675986	-0.244424	-0.605758
H103	H	-0.557600	-0.147574	-0.627155
H104	H	-0.627297	-0.147526	-0.557224
H105	H	-0.350013	-0.206141	-0.350410
C106	C	-0.346766	-0.573617	-0.244400
C107	C	-0.332520	-0.553344	-0.332956
H108	H	-0.305168	-0.553229	-0.202924
H109	H	-0.406790	-0.559838	-0.234559
H110	H	-0.337986	-0.621533	-0.235659
H111	H	-0.341307	-0.505428	-0.341699
H112	H	-0.272482	-0.567119	-0.342801
C113	C	-0.278741	-0.304654	-0.279334
C114	C	-0.332531	-0.345960	-0.332979
H115	H	-0.237141	-0.332231	-0.237848
H116	H	-0.246457	-0.276877	-0.316843
H117	H	-0.316148	-0.276849	-0.246916
H118	H	-0.295125	-0.373762	-0.365402
H119	H	-0.364817	-0.373749	-0.295465
H120	H	-0.326245	-1.045295	-0.939183
C121	C	-0.624613	-0.890019	-1.194864
C122	C	-0.563372	-0.857008	-1.137155
H123	H	-0.665724	-0.857365	-1.229196
H124	H	-0.592524	-0.915486	-1.234549
H125	H	-0.657136	-0.919586	-1.159982
H126	H	-0.530845	-0.827444	-1.172038
H127	H	-0.595465	-0.831530	-1.097466
C128	C	-1.228465	-0.862512	-0.556751
C129	C	-1.136219	-0.857024	-0.563592
H130	H	-1.262816	-0.829860	-0.597844
H131	H	-1.244653	-0.906668	-0.570954
H132	H	-1.240489	-0.854718	-0.496816
H133	H	-1.124194	-0.864823	-0.623525
H134	H	-1.120026	-0.812858	-0.549395
C135	C	-0.705664	-0.840441	-0.584171
C136	C	-0.799327	-0.826514	-0.601755
H137	H	-0.675866	-0.810707	-0.621565
H138	H	-0.686722	-0.834050	-0.522457
H139	H	-0.690885	-0.886010	-0.596581
H140	H	-0.814108	-0.780946	-0.589339
H141	H	-0.818277	-0.832899	-0.663484
H142	H	-0.572423	-0.315166	-0.572191
H143	H	-0.595868	-0.831236	-0.984273
