data_functionalizedCrystal
_audit_creation_method	'MofGen! by Chris Wilmer'
_symmetry_space_group_name_H-M	'P1'
_symmetry_Int_Tables_number	1
_symmetry_cell_setting	triclinic
loop_
_symmetry_equiv_pos_as_xyz
  x,y,z
_cell_length_a	23.204026
_cell_length_b	23.204034
_cell_length_c	23.204064
_cell_angle_alpha	59.996528
_cell_angle_beta	89.996411
_cell_angle_gamma	60.000543
loop_
_atom_site_label
_atom_site_type_symbol
_atom_site_fract_x
_atom_site_fract_y
_atom_site_fract_z
O1	O	-0.395337	0.412476	-0.903674
O2	O	-0.311533	0.294466	-0.701858
O3	O	-0.311532	0.412477	-0.819869
O4	O	-0.395338	0.294464	-0.785663
O5	O	-0.407383	0.508326	-0.819867
O6	O	-0.407383	0.390314	-0.701856
O7	O	-0.491187	0.508324	-0.903672
Cu8	Cu	-0.458037	0.458071	-0.802764
Cu9	Cu	-0.344683	0.344719	-0.802766
O10	O	-0.491188	0.390313	-0.785661
C11	C	-0.658528	0.694391	-1.248572
C12	C	-0.734545	0.765515	-1.284133
C13	C	-0.623527	0.659875	-1.179214
C14	C	-0.554169	0.590035	-1.248574
C15	C	-0.518607	0.549580	-1.284138
C16	C	-0.519328	0.555677	-1.179217
C17	C	-0.554171	0.590031	-1.144213
C18	C	-0.518610	0.549572	-1.068194
C19	C	-0.623526	0.659879	-1.283417
C20	C	-0.489881	0.516885	-1.006777
C21	C	-0.795960	0.822975	-1.312862
C22	C	-0.489876	0.516896	-1.312870
C23	C	-0.453839	0.475878	-0.929728
C24	C	-0.873007	0.895061	-1.348904
C25	C	-0.453832	0.475894	-1.348915
C26	C	-0.310646	0.516990	-0.827643
C27	C	-0.346210	0.476536	-0.822754
C28	C	-0.345489	0.586834	-0.828129
C29	C	-0.206285	0.516987	-0.827635
C30	C	-0.130265	0.476529	-0.822737
C31	C	-0.241286	0.586830	-0.828121
C32	C	-0.310644	0.621345	-0.827636
C33	C	-0.346207	0.692468	-0.822740
C34	C	-0.241287	0.482633	-0.828127
C35	C	-0.658536	0.212757	-0.766937
C36	C	-0.734553	0.253212	-0.771828
C37	C	-0.623535	0.142912	-0.766448
C38	C	-0.554177	0.212759	-0.766942
C39	C	-0.518615	0.253217	-0.771839
C40	C	-0.519335	0.142914	-0.766454
C41	C	-0.554178	0.108399	-0.766938
C42	C	-0.518617	0.037274	-0.771832
C43	C	-0.623534	0.247114	-0.766452
C44	C	-0.489888	-0.020186	-0.775787
C45	C	-0.795968	0.285897	-0.775782
C46	C	-0.489884	0.285904	-0.775797
C47	C	-0.453845	-0.092274	-0.780748
C48	C	-0.873016	0.326901	-0.780740
C49	C	-0.453840	0.326910	-0.780761
O50	O	0.100928	0.294455	-0.785643
O51	O	-0.100885	0.412469	-0.819850
O52	O	0.017111	0.294454	-0.701839
O53	O	-0.017067	0.412470	-0.903654
O54	O	0.017114	0.390300	-0.701832
O55	O	-0.100881	0.508315	-0.819843
O56	O	0.100932	0.390301	-0.785636
Cu57	Cu	0.000026	0.458060	-0.802739
Cu58	Cu	0.000021	0.344711	-0.802747
O59	O	-0.017063	0.508316	-0.903648
O60	O	-0.407381	0.390323	-1.491216
O61	O	-0.491182	0.508338	-1.407415
O62	O	-0.491178	0.390319	-1.407392
O63	O	-0.407385	0.508342	-1.491239
O64	O	-0.395324	0.294476	-1.311547
O65	O	-0.395328	0.412496	-1.311571
O66	O	-0.311526	0.294481	-1.395371
Cu67	Cu	-0.344675	0.344737	-1.344720
Cu68	Cu	-0.458033	0.458082	-1.458067
O69	O	-0.311530	0.412500	-1.395395
O70	O	-0.395342	0.886571	-0.785644
O71	O	-0.311528	0.718961	-0.819847
O72	O	-0.311540	0.718952	-0.701837
O73	O	-0.395329	0.886579	-0.903653
O74	O	-0.407392	0.718954	-0.701845
O75	O	-0.407380	0.718962	-0.819855
O76	O	-0.491194	0.886572	-0.785652
Cu77	Cu	-0.458039	0.802767	-0.802754
Cu78	Cu	-0.344683	0.802766	-0.802745
O79	O	-0.491181	0.886580	-0.903661
O80	O	-0.982867	1.083835	-1.491218
O81	O	-1.017063	0.916211	-1.407402
O82	O	-0.899060	0.916217	-1.407407
O83	O	-1.100869	1.083829	-1.491212
O84	O	-0.899063	0.916215	-1.311555
O85	O	-1.017066	0.916209	-1.311550
O86	O	-0.982870	1.083833	-1.395366
Cu87	Cu	-0.999968	1.000021	-1.344705
Cu88	Cu	-0.999964	1.000023	-1.458062
O89	O	-1.100872	1.083827	-1.395360
C90	C	-0.206287	0.181451	-0.492103
C91	C	-0.130269	0.110330	-0.456544
C92	C	-0.241288	0.215966	-0.457260
C93	C	-0.310647	0.285803	-0.596458
C94	C	-0.346211	0.326256	-0.672475
C95	C	-0.345490	0.320160	-0.561456
C96	C	-0.310645	0.285808	-0.492101
C97	C	-0.346207	0.326266	-0.456540
C98	C	-0.241290	0.215961	-0.561458
C99	C	0.024877	0.285769	-0.492070
C100	C	0.019982	0.326221	-0.456503
C101	C	0.025359	0.215926	-0.457231
C102	C	0.024885	0.285779	-0.596433
C103	C	0.019999	0.326240	-0.672453
C104	C	0.025367	0.215935	-0.561436
C105	C	0.024873	0.181417	-0.492078
C106	C	0.019973	0.110293	-0.456521
C107	C	0.025372	0.320129	-0.561427
C108	C	-0.206302	0.517034	-1.492168
C109	C	-0.130284	0.476584	-1.456616
C110	C	-0.241307	0.586877	-1.561529
C111	C	-0.310655	0.517022	-1.492146
C112	C	-0.346213	0.476559	-1.456569
C113	C	-0.345502	0.586865	-1.561507
C114	C	-0.310664	0.621384	-1.596521
C115	C	-0.346230	0.692507	-1.672543
C116	C	-0.241299	0.482673	-1.457312
C117	C	-0.035741	0.694385	-1.248548
C118	C	-0.030841	0.765509	-1.284108
C119	C	-0.036227	0.659874	-1.283394
C120	C	-0.035753	0.590025	-1.144191
C121	C	-0.030866	0.549566	-1.068172
C122	C	-0.036239	0.555672	-1.179195
C123	C	-0.035745	0.590030	-1.248553
C124	C	-0.030849	0.549576	-1.284117
C125	C	-0.036235	0.659869	-1.179191
C126	C	-0.026893	0.516893	-1.312849
C127	C	-0.026881	0.822968	-1.312837
C128	C	-0.026917	0.516879	-1.006755
C129	C	-0.021930	0.475891	-1.348896
C130	C	-0.021914	0.895055	-1.348878
C131	C	-0.021963	0.475872	-0.929706
O132	O	-0.017134	0.412433	-0.311521
O133	O	0.017087	0.294427	-0.395331
O134	O	-0.100926	0.412433	-0.395340
O135	O	0.100879	0.294427	-0.311511
O136	O	-0.100915	0.508287	-0.491187
O137	O	0.017098	0.390281	-0.491178
O138	O	-0.017123	0.508286	-0.407368
Cu139	Cu	-0.000011	0.458036	-0.458024
Cu140	Cu	-0.000025	0.344678	-0.344674
O141	O	0.100890	0.390281	-0.407358
C142	C	-0.554143	0.108393	-1.144138
C143	C	-0.518577	0.037271	-1.068116
C144	C	-0.623500	0.142901	-1.179130
C145	C	-0.554151	0.212756	-1.248512
C146	C	-0.518593	0.253218	-1.284088
C147	C	-0.623507	0.247105	-1.283347
C148	C	-0.658505	0.212745	-1.248491
C149	C	-0.734522	0.253195	-1.284044
C150	C	-0.519304	0.142912	-1.179152
C151	C	-0.795937	0.285875	-1.312767
C152	C	-0.489844	-0.020188	-1.006697
C153	C	-0.489866	0.285908	-1.312830
C154	C	-0.872985	0.326874	-1.348801
C155	C	-0.453796	-0.092274	-0.929645
C156	C	-0.453827	0.326918	-1.348887
H157	H	-0.213178	0.615705	-0.828892
H158	H	-0.213186	0.426425	-0.828903
C159	C	-0.661482	0.698887	-1.141242
C160	C	-0.672403	0.649383	-1.072822
C161	C	-0.710352	0.688388	-1.034847
C162	C	-0.737381	0.776898	-1.065292
C163	C	-0.726461	0.826407	-1.133716
C164	C	-0.688512	0.787401	-1.171690
H165	H	-0.652394	0.583858	-1.050281
H166	H	-0.718436	0.651738	-0.984195
H167	H	-0.765474	0.805772	-1.037181
H168	H	-0.746470	0.891932	-1.156256
H169	H	-0.680428	0.824052	-1.222342
H170	H	0.026138	0.187039	-0.400243
H171	H	-0.037035	0.499476	-1.151095
C172	C	-0.442351	0.103888	-0.765394
C173	C	-0.403863	0.026898	-0.764853
C174	C	-0.326882	-0.012129	-0.763793
C175	C	-0.288388	0.025834	-0.763272
C176	C	-0.326875	0.102828	-0.763813
C177	C	-0.403857	0.141855	-0.764873
H178	H	-0.432359	-0.001208	-0.765239
H179	H	-0.298391	-0.069125	-0.763393
H180	H	-0.231401	-0.003057	-0.762487
H181	H	-0.298379	0.130933	-0.763427
H182	H	-0.432347	0.198851	-0.765273
C183	C	-0.422477	0.625871	-0.829201
C184	C	-0.441411	0.633872	-0.768786
C185	C	-0.518397	0.672914	-0.769861
C186	C	-0.576449	0.703954	-0.831352
C187	C	-0.557517	0.695954	-0.891771
C188	C	-0.480531	0.656912	-0.890696
H189	H	-0.398435	0.610893	-0.723263
H190	H	-0.532411	0.678836	-0.725134
H191	H	-0.633439	0.732855	-0.832148
H192	H	-0.600493	0.718933	-0.937294
H193	H	-0.466516	0.650990	-0.935423
H194	H	-0.213185	0.187077	-0.400273
C195	C	-0.661495	0.103888	-0.765390
C196	C	-0.737951	0.141851	-0.764869
C197	C	-0.775909	0.102829	-0.763814
C198	C	-0.737412	0.025843	-0.763279
C199	C	-0.660951	-0.012125	-0.763800
C200	C	-0.622993	0.026897	-0.764855
H201	H	-0.766454	0.198845	-0.765265
H202	H	-0.832511	0.130935	-0.763428
H203	H	-0.765510	-0.003044	-0.762497
H204	H	-0.632449	-0.069119	-0.763404
H205	H	-0.566392	-0.001209	-0.765241
C206	C	-0.037290	0.698902	-1.360383
C207	C	-0.037815	0.775884	-1.398876
C208	C	-0.038883	0.814913	-1.475864
C209	C	-0.039428	0.776959	-1.514357
C210	C	-0.038904	0.699973	-1.475863
C211	C	-0.037835	0.660945	-1.398876
H212	H	-0.037411	0.803984	-1.370381
H213	H	-0.039271	0.871903	-1.504359
H214	H	-0.040219	0.805850	-1.571347
H215	H	-0.039307	0.671874	-1.504358
H216	H	-0.037447	0.603954	-1.370380
H217	H	-0.462336	0.114066	-1.151036
C218	C	-0.661477	0.323030	-1.360334
C219	C	-0.622999	0.361008	-1.398841
C220	C	-0.660970	0.436930	-1.475825
C221	C	-0.737419	0.474874	-1.514302
C222	C	-0.775903	0.436896	-1.475796
C223	C	-0.737932	0.360974	-1.398812
H224	H	-0.566402	0.332919	-1.370357
H225	H	-0.632481	0.465044	-1.504329
H226	H	-0.765528	0.531076	-1.571290
H227	H	-0.832499	0.464985	-1.504279
H228	H	-0.766420	0.332860	-1.370307
H229	H	-0.651636	0.303315	-0.765665
C230	C	-0.203358	0.625913	-1.599514
C231	C	-0.176330	0.656957	-1.569083
C232	C	-0.138386	0.695995	-1.607071
C233	C	-0.127470	0.703988	-1.675489
C234	C	-0.154499	0.672943	-1.705923
C235	C	-0.192443	0.633905	-1.667935
H236	H	-0.184410	0.651041	-1.518433
H237	H	-0.118377	0.718977	-1.584541
H238	H	-0.099381	0.732886	-1.703609
H239	H	-0.146419	0.678859	-1.756573
H240	H	-0.212451	0.610923	-1.690465
C241	C	-0.037303	0.698889	-1.141224
C242	C	-0.037823	0.775868	-1.179708
C243	C	-0.038893	0.814886	-1.141742
C244	C	-0.039443	0.776925	-1.065293
C245	C	-0.038923	0.699941	-1.026805
C246	C	-0.037852	0.660923	-1.064771
H247	H	-0.037416	0.803973	-1.236304
H248	H	-0.039278	0.871875	-1.170234
H249	H	-0.040235	0.805808	-1.037189
H250	H	-0.039330	0.671836	-0.970209
H251	H	-0.037467	0.603934	-1.036279
H252	H	-0.213191	0.426470	-1.400323
C253	C	-0.661460	0.103876	-1.141159
C254	C	-0.622972	0.026899	-1.064700
C255	C	-0.660932	-0.012124	-1.026732
C256	C	-0.737381	0.025830	-1.065223
C257	C	-0.775873	0.102811	-1.141686
C258	C	-0.737913	0.141834	-1.179654
H259	H	-0.566376	-0.001201	-1.036203
H260	H	-0.632437	-0.069111	-0.970128
H261	H	-0.765481	-0.003057	-1.037116
H262	H	-0.832469	0.130911	-1.170183
H263	H	-0.766408	0.198821	-1.236257
C264	C	-0.422464	0.396102	-0.599408
C265	C	-0.480532	0.392704	-0.568958
C266	C	-0.557499	0.468654	-0.606904
C267	C	-0.576397	0.548002	-0.675300
C268	C	-0.518327	0.551403	-0.705754
C269	C	-0.441361	0.475453	-0.667808
H270	H	-0.466544	0.333963	-0.518324
H271	H	-0.600485	0.466135	-0.584360
H272	H	-0.633372	0.604224	-0.703391
H273	H	-0.532316	0.610144	-0.756389
H274	H	-0.398374	0.477972	-0.690352
C275	C	-0.442342	0.479758	-1.141255
C276	C	-0.403847	0.441793	-1.179742
C277	C	-0.326863	0.365879	-1.141781
C278	C	-0.288375	0.327931	-1.065332
C279	C	-0.326870	0.365897	-1.026840
C280	C	-0.403854	0.441810	-1.064801
H281	H	-0.432338	0.469884	-1.236338
H282	H	-0.298366	0.337775	-1.170276
H283	H	-0.231387	0.271735	-1.037231
H284	H	-0.298379	0.337805	-0.970244
H285	H	-0.432350	0.469915	-1.036307
H286	H	0.026161	0.376330	-0.589522
C287	C	-0.661470	0.698902	-1.360407
C288	C	-0.688484	0.787411	-1.418462
C289	C	-0.726419	0.826432	-1.495452
C290	C	-0.737339	0.776945	-1.514386
C291	C	-0.710324	0.688431	-1.456329
C292	C	-0.672389	0.649410	-1.379340
H293	H	-0.680401	0.824049	-1.404448
H294	H	-0.746417	0.891957	-1.538429
H295	H	-0.765420	0.805831	-1.571378
H296	H	-0.718407	0.651793	-1.470344
H297	H	-0.652391	0.583886	-1.336362
C298	C	-0.203337	0.176944	-0.599428
C299	C	-0.134939	0.168975	-0.610391
C300	C	-0.096992	0.129963	-0.648362
C301	C	-0.127443	0.098921	-0.675371
C302	C	-0.195846	0.106889	-0.664408
C303	C	-0.233793	0.145901	-0.626437
H304	H	-0.112393	0.191955	-0.590397
H305	H	-0.046355	0.124065	-0.656477
H306	H	-0.099353	0.070042	-0.703479
H307	H	-0.218391	0.083909	-0.684402
H308	H	-0.284429	0.151799	-0.618322
H309	H	0.026149	0.187058	-0.589545
H310	H	-0.402492	0.615749	-1.589594
