data_functionalizedCrystal
_audit_creation_method	'MofGen! by Chris Wilmer'
_symmetry_space_group_name_H-M	'P1'
_symmetry_Int_Tables_number	1
_symmetry_cell_setting	triclinic
loop_
_symmetry_equiv_pos_as_xyz
  x,y,z
_cell_length_a	23.096457
_cell_length_b	17.917603
_cell_length_c	17.917603
_cell_angle_alpha	60.138055
_cell_angle_beta	90.000770
_cell_angle_gamma	63.033951
loop_
_atom_site_label
_atom_site_type_symbol
_atom_site_fract_x
_atom_site_fract_y
_atom_site_fract_z
Zr1	Zr	0.590802	0.806868	-0.129087
O2	O	0.507725	0.951899	-0.249619
O3	O	0.612299	0.654640	-0.087437
O4	O	0.622788	0.796492	-0.242846
O5	O	0.493477	0.820740	0.023032
O6	O	0.718069	0.796494	-0.242850
O7	O	0.497235	0.810047	-0.094210
O8	O	0.699306	0.542746	0.035148
O9	O	0.512241	1.074488	-0.254967
O10	O	0.697371	0.719920	-0.075356
O11	O	0.623460	0.727899	0.012144
O12	O	0.635810	0.894912	-0.170831
O13	O	0.561898	0.902891	-0.083331
Zr14	Zr	0.736770	0.823925	0.057893
Zr15	Zr	0.742763	0.806870	-0.129094
Zr16	Zr	0.584808	0.823922	0.057900
Zr17	Zr	0.598005	1.002383	-0.137616
Zr18	Zr	0.729567	0.628410	0.066422
O19	O	0.715273	0.976153	0.016243
O20	O	0.723794	0.951903	-0.249629
O21	O	0.499203	0.976149	0.016253
O22	O	0.819847	0.678894	0.178425
O23	O	0.828369	0.654644	-0.087447
O24	O	0.603777	0.678890	0.178435
O25	O	0.834094	0.810053	-0.094226
O26	O	0.704783	0.834300	0.171652
O27	O	0.609503	0.834299	0.171656
O28	O	0.830336	0.820746	0.023016
O29	O	0.633030	1.074490	-0.254972
O30	O	0.694542	0.556303	0.183778
O31	O	0.815331	0.556305	0.183773
O32	O	0.820095	0.542748	0.035143
O33	O	0.507477	1.088044	-0.106337
O34	O	0.628266	1.088046	-0.106342
O35	O	0.691762	0.735881	0.099637
O36	O	0.765673	0.727902	0.012137
O37	O	0.704112	0.902894	-0.083338
O38	O	0.630201	0.910873	0.004162
C39	C	0.654776	0.570836	-0.024929
C40	C	0.651718	0.487835	-0.021308
C41	C	0.646132	0.335868	-0.014697
C42	C	0.681438	0.294920	-0.056495
C43	C	0.678330	0.210360	-0.052816
C44	C	0.649239	0.420436	-0.018375
C45	C	0.473705	0.815393	-0.035588
C46	C	0.409193	0.815392	-0.035585
C47	C	0.411023	0.724050	0.014243
C48	C	0.350407	0.724049	0.014247
C49	C	0.287963	0.815393	-0.035595
C50	C	0.286137	0.906748	-0.085426
C51	C	0.346752	0.906747	-0.085421
N52	N	0.170169	0.879707	-0.113030
N53	N	0.112590	0.879702	-0.113033
C54	C	0.105331	0.815401	-0.035611
N55	N	0.157834	0.751091	0.041814
N56	N	0.215420	0.751093	0.041815
C57	C	0.222233	0.815405	-0.035605
C58	C	0.041436	0.724052	0.014226
C59	C	-0.019182	0.724055	0.014232
C60	C	-0.083451	0.906756	-0.085449
C61	C	-0.022834	0.906751	-0.085446
C62	C	0.039608	0.815396	-0.035611
C63	C	0.853867	0.815400	-0.035606
C64	C	0.918378	0.815401	-0.035609
C65	C	0.671283	0.794063	-0.269490
C66	C	0.673827	0.786823	-0.348871
C67	C	0.672796	1.059956	-0.046265
C68	C	0.675853	1.142958	-0.049886
C69	C	0.678489	0.773598	-0.494226
C70	C	0.649084	0.857190	-0.576971
C71	C	0.651678	0.849832	-0.657852
C72	C	0.675896	0.780955	-0.413336
C73	C	0.656289	0.836729	0.198296
C74	C	0.653745	0.843970	0.277677
C75	C	0.844857	0.570840	-0.024938
C76	C	0.906311	0.487840	-0.021320
C77	C	0.647279	0.592169	0.208964
C78	C	0.641677	0.516408	0.291965
C79	C	0.837360	0.592173	0.208955
C80	C	0.896270	0.516413	0.291953
C81	C	0.490212	1.038620	-0.280149
C82	C	0.431302	1.114380	-0.363147
C83	C	0.482715	1.059953	-0.046256
C84	C	0.421261	1.142953	-0.049874
C85	C	0.680292	1.038623	-0.280157
C86	C	0.685895	1.114384	-0.363159
C87	C	0.899517	0.444695	-0.065300
C88	C	0.957255	0.366716	-0.061918
C89	C	1.021785	0.331879	-0.014552
C90	C	1.028577	0.375032	0.029428
C91	C	0.970841	0.453014	0.026041
C92	C	0.674699	0.484997	0.376622
C93	C	0.669433	0.413823	0.454617
C94	C	0.631148	0.374056	0.447954
C95	C	0.598122	0.405474	0.363289
C96	C	0.603385	0.476652	0.285295
C97	C	0.962521	0.476670	0.285257
C98	C	1.017880	0.405496	0.363235
C99	C	1.006984	0.374060	0.447910
C100	C	0.940726	0.413810	0.454604
C101	C	0.885369	0.484989	0.376627
C102	C	0.365051	1.154132	-0.356451
C103	C	0.309693	1.225331	-0.434430
C104	C	0.320589	1.256770	-0.519105
C105	C	0.386847	1.217015	-0.525800
C106	C	0.442203	1.145823	-0.447821
C107	C	0.428055	1.186105	-0.005903
C108	C	0.370319	1.264103	-0.009305
C109	C	0.305789	1.298943	-0.056674
C110	C	0.298996	1.255787	-0.100651
C111	C	0.356732	1.177795	-0.097253
C112	C	0.724185	1.154129	-0.356467
C113	C	0.729462	1.225305	-0.434448
C114	C	0.696444	1.256740	-0.519121
C115	C	0.658153	1.216988	-0.525811
C116	C	0.652880	1.145808	-0.447830
H117	H	0.613572	0.307422	0.023847
H118	H	0.705609	0.696512	-0.484131
C119	C	0.352416	0.623561	0.069060
N120	N	0.353932	0.547874	0.110344
C121	C	0.949767	0.319254	-0.110294
N122	N	0.944126	0.283505	-0.146727
C123	C	0.479705	0.623557	0.069071
N124	N	0.531438	0.547865	0.110370
C125	C	0.398821	1.251600	-0.618951
N126	N	0.407837	1.277645	-0.689114
C127	C	0.928752	0.379212	0.547756
N128	N	0.919735	0.353144	0.617920
C129	C	0.217448	1.007227	-0.140255
N130	N	0.165710	1.082911	-0.181554
H131	H	0.480593	1.157746	0.032676
C132	C	0.612434	0.961340	-0.590613
N133	N	0.584827	1.039781	-0.600883
C134	C	0.344737	1.007234	-0.140247
N135	N	0.343220	1.082922	-0.181546
C136	C	0.978324	0.500456	0.074436
N137	N	0.983966	0.536185	0.110891
H138	H	0.846979	0.473057	-0.103881
H139	H	0.705874	0.517368	0.382064
H140	H	1.068792	0.268380	-0.011800
C141	C	-0.152136	1.007237	-0.140274
N142	N	-0.203874	1.082922	-0.181568
C143	C	0.377805	1.311554	0.039084
N144	N	0.383446	1.347289	0.075533
H145	H	0.092279	0.649667	0.054824
H146	H	1.081125	0.346656	0.067993
H147	H	0.696330	0.388251	0.523548
C148	C	-0.024847	1.007235	-0.140276
N149	N	-0.026365	1.082923	-0.181577
C150	C	0.625373	0.295748	0.533759
N151	N	0.621029	0.236762	0.598391
C152	C	0.259688	1.335076	-0.604875
N153	N	0.213814	1.394053	-0.669474
H154	H	0.621697	1.113455	-0.453292
H155	H	0.576496	0.502217	0.216367
C156	C	0.771582	1.269025	-0.427069
N157	N	0.803306	1.301954	-0.421509
C158	C	0.236815	1.269047	-0.427046
N159	N	0.181924	1.301972	-0.421482
C160	C	1.090758	0.361773	0.355851
N161	N	1.145648	0.328841	0.350287
C162	C	0.725425	0.333355	-0.108575
N163	N	0.758553	0.362310	-0.147803
H164	H	0.566951	0.373085	0.357877
H165	H	-0.017687	0.649671	0.054815
H166	H	0.971406	0.502254	0.216317
H167	H	0.496147	1.113457	-0.453284
H168	H	1.052065	0.316101	0.511397
H169	H	0.831425	0.517338	0.382092
H170	H	0.258782	1.362449	-0.059434
H171	H	0.356166	1.128538	-0.287511
H172	H	0.631271	1.242594	-0.594762
C173	C	0.228006	1.294109	-0.152740
N174	N	0.174534	1.322967	-0.191964
H175	H	0.351191	1.142662	-0.133058
H176	H	0.751072	1.128547	-0.287530
C177	C	0.702250	1.335043	-0.604894
N178	N	0.706624	1.394023	-0.669495
