data_functionalizedCrystal
_audit_creation_method	'MofGen! by Chris Wilmer'
_symmetry_space_group_name_H-M	'P1'
_symmetry_Int_Tables_number	1
_symmetry_cell_setting	triclinic
loop_
_symmetry_equiv_pos_as_xyz
  x,y,z
_cell_length_a	12.759401
_cell_length_b	16.625546
_cell_length_c	12.759393
_cell_angle_alpha	89.963602
_cell_angle_beta	89.982620
_cell_angle_gamma	90.022629
loop_
_atom_site_label
_atom_site_type_symbol
_atom_site_fract_x
_atom_site_fract_y
_atom_site_fract_z
Zn1	Zn	1.606187	-0.320949	-0.593948
Zn2	Zn	1.606061	-0.455806	-0.418253
Zn3	Zn	1.430492	-0.320992	-0.418287
Zn4	Zn	1.430454	-0.455744	-0.593895
O5	O	1.518299	-0.388373	-0.506096
O6	O	1.753191	-0.338846	-0.570649
O7	O	1.582735	-0.437967	-0.271237
O8	O	1.453868	-0.208154	-0.441625
O9	O	1.753099	-0.437925	-0.441568
O10	O	1.582950	-0.208122	-0.570682
O11	O	1.453745	-0.338919	-0.271261
O12	O	1.283466	-0.338859	-0.441574
O13	O	1.453802	-0.437819	-0.740923
O14	O	1.283438	-0.437860	-0.570592
O15	O	1.582912	-0.338786	-0.740962
O16	O	1.582697	-0.568630	-0.441517
O17	O	1.453680	-0.568584	-0.570560
C18	C	1.245331	-0.388358	-0.506081
C19	C	1.128555	-0.388371	-0.506100
C20	C	1.518199	-0.597864	-0.506052
C21	C	1.518253	-0.687485	-0.506068
C22	C	1.073705	-0.440004	-0.573169
C23	C	0.963981	-0.440014	-0.573180
C24	C	0.963965	-0.336756	-0.439045
C25	C	1.073688	-0.336743	-0.439040
C26	C	1.073714	-0.499621	-0.650608
C27	C	0.963989	-0.499631	-0.650619
C28	C	1.518436	-1.015660	-0.506177
C29	C	1.518382	-0.924352	-0.506150
C30	C	1.518344	-0.851575	-0.506122
C31	C	1.518291	-0.760261	-0.506096
C32	C	1.792332	-0.388388	-0.506111
C33	C	1.909109	-0.388395	-0.506117
C34	C	1.518367	-0.388291	-0.780129
C35	C	1.518396	-0.388256	-0.896906
C36	C	1.518427	-0.178064	-0.506163
C37	C	1.518482	-0.088443	-0.506191
C38	C	1.451260	-0.336672	-0.951787
C39	C	1.451291	-0.336648	-1.061511
C40	C	1.585605	-0.439793	-1.061464
C41	C	1.585567	-0.439821	-0.951742
C42	C	1.373718	-0.277119	-0.951815
C43	C	1.373750	-0.277095	-1.061539
C44	C	1.518291	-0.388396	-0.233128
C45	C	1.518466	-0.388204	-0.116352
H46	H	0.919279	-0.294722	-0.384448
H47	H	1.107718	-0.558909	-0.621317
C48	C	0.918056	-0.469521	-0.755112
H49	H	0.973527	-0.456110	-0.801641
H50	H	0.876163	-0.423269	-0.742742
H51	H	0.876151	-0.510618	-0.785425
H52	H	0.934183	-0.562064	-0.628680
C53	C	1.659413	-0.496565	-0.891376
H54	H	1.699428	-0.527264	-0.939751
H55	H	1.619186	-0.531702	-0.848558
H56	H	1.705202	-0.465732	-0.848587
C57	C	1.659494	-0.496505	-1.121786
H58	H	1.649906	-0.489099	-1.194993
H59	H	1.644081	-0.550684	-1.103781
H60	H	1.730089	-0.484707	-1.103808
H61	H	1.292326	-0.293841	-0.922036
C62	C	1.413123	-0.197002	-0.905862
H63	H	1.430692	-0.161303	-0.961325
H64	H	1.473358	-0.206599	-0.863950
H65	H	1.359617	-0.173669	-0.863972
C66	C	1.403269	-0.192733	-1.101810
H67	H	1.415398	-0.158056	-1.043914
H68	H	1.347609	-0.171967	-1.143179
H69	H	1.465030	-0.196132	-1.143169
H70	H	1.118342	-0.294693	-0.384433
C71	C	1.269325	-0.307282	-1.107511
H72	H	1.222797	-0.320738	-1.052057
H73	H	1.281786	-0.353518	-1.149396
H74	H	1.238961	-0.266203	-1.149430
C75	C	1.113992	-0.477119	-0.760575
H76	H	1.056099	-0.467865	-0.805803
H77	H	1.155349	-0.519876	-0.787507
H78	H	1.155365	-0.429718	-0.756255
