data_functionalizedCrystal
_audit_creation_method	'MofGen! by Chris Wilmer'
_symmetry_space_group_name_H-M	'P1'
_symmetry_Int_Tables_number	1
_symmetry_cell_setting	triclinic
loop_
_symmetry_equiv_pos_as_xyz
  x,y,z
_cell_length_a	17.038272
_cell_length_b	12.837942
_cell_length_c	11.892095
_cell_angle_alpha	94.302569
_cell_angle_beta	85.824810
_cell_angle_gamma	92.970248
loop_
_atom_site_label
_atom_site_type_symbol
_atom_site_fract_x
_atom_site_fract_y
_atom_site_fract_z
O1	O	1.058821	0.220377	-0.093859
O2	O	1.558821	0.720377	0.406141
O3	O	0.830924	0.216777	-0.093892
O4	O	1.330924	0.716777	0.406108
O5	O	0.939819	0.067229	-0.093869
O6	O	1.439819	0.567229	0.406131
O7	O	0.949926	0.369925	-0.093881
O8	O	1.449926	0.869925	0.406119
O9	O	0.930738	0.079678	0.094137
O10	O	1.430738	0.579678	0.594137
O11	O	0.821843	0.229226	0.094114
O12	O	1.321843	0.729226	0.594114
O13	O	1.049740	0.232826	0.094147
O14	O	1.549740	0.732826	0.594147
Zn15	Zn	0.934350	0.233002	0.123980
Zn16	Zn	1.434350	0.733002	0.623980
Zn17	Zn	0.946314	0.216601	-0.123725
Zn18	Zn	1.446314	0.716601	0.376275
O19	O	0.940845	0.382374	0.094124
O20	O	1.440845	0.882374	0.594124
C21	C	0.931864	0.034532	0.000133
C22	C	1.431864	0.534532	0.500133
C23	C	0.921681	-0.081444	0.000129
C24	C	1.421681	0.418556	0.500129
C25	C	0.797011	0.219729	0.000107
C26	C	1.297011	0.719729	0.500107
C27	C	0.709489	0.209964	0.000094
C28	C	1.209489	0.709964	0.500094
C29	C	1.044099	-0.311607	0.000124
C30	C	1.544099	0.188393	0.500124
C31	C	1.034535	-0.420576	0.000120
C32	C	1.534535	0.079424	0.500120
C33	C	0.892991	-0.408355	0.000111
C34	C	1.392991	0.091645	0.500111
C35	C	0.902555	-0.299385	0.000115
C36	C	1.402555	0.200615	0.500115
C37	C	0.978111	-0.251015	0.000123
C38	C	1.478111	0.248985	0.500123
C39	C	0.987674	-0.142043	0.000134
C40	C	1.487674	0.357957	0.500134
C41	C	0.846131	-0.129824	0.000117
C42	C	1.346131	0.370176	0.500117
C43	C	0.836567	-0.238794	0.000114
C44	C	1.336567	0.261206	0.500114
C45	C	0.666071	0.299604	0.000091
C46	C	1.166071	0.799604	0.500091
C47	C	0.583834	0.290425	0.000107
C48	C	1.083834	0.790425	0.500107
C49	C	0.545017	0.191605	0.000118
C50	C	1.045017	0.691605	0.500118
C51	C	0.588440	0.101959	0.000124
C52	C	1.088440	0.601959	0.500124
C53	C	0.670676	0.111139	0.000116
C54	C	1.170676	0.611139	0.500116
C55	C	0.296834	0.159172	0.000150
C56	C	0.796834	0.659172	0.500150
C57	C	0.214594	0.149998	0.000154
C58	C	0.714594	0.649998	0.500154
C59	C	0.209992	0.338466	0.000139
C60	C	0.709992	0.838466	0.500139
C61	C	0.292230	0.347637	0.000125
C62	C	0.792230	0.847637	0.500125
C63	C	0.335646	0.257991	0.000137
C64	C	0.835646	0.757991	0.500137
C65	C	0.460957	0.182220	0.000131
C66	C	0.960957	0.682220	0.500131
C67	C	0.419703	0.267378	0.000132
C68	C	0.919703	0.767378	0.500132
C69	C	1.083654	0.229874	0.000146
C70	C	1.583654	0.729874	0.500146
C71	C	1.171176	0.239638	0.000151
C72	C	1.671176	0.739638	0.500151
C73	C	0.948800	0.415071	0.000120
C74	C	1.448800	0.915071	0.500120
C75	C	0.958983	0.531046	0.000116
C76	C	1.458983	1.031046	0.500116
N77	N	0.926190	0.244196	0.293033
N78	N	1.426190	0.744196	0.793033
N79	N	0.954480	0.205400	-0.292777
N80	N	1.454480	0.705400	0.207223
C81	C	1.011255	0.127451	0.529698
C82	C	1.511255	0.627451	1.029698
C83	C	1.005558	0.135283	0.648039
C84	C	1.505558	0.635283	1.148039
C85	C	0.909094	0.267686	0.648057
C86	C	1.409094	0.767686	1.148057
C87	C	0.914791	0.259854	0.529716
C88	C	1.414791	0.759854	1.029716
C89	C	0.965875	0.189735	0.470541
C90	C	1.465875	0.689735	0.970541
C91	C	0.971576	0.181909	0.352198
C92	C	1.471576	0.681909	0.852198
C93	C	0.875108	0.314306	0.352218
C94	C	1.375108	0.814306	0.852218
C95	C	0.869411	0.322138	0.470559
C96	C	1.369411	0.822138	0.970559
H97	H	1.049195	-0.102662	0.000144
H98	H	1.549195	0.397338	0.500144
F99	F	0.815045	0.396757	0.533547
F100	F	1.315045	0.896757	1.033547
F101	F	0.826813	0.380601	0.289247
F102	F	1.326813	0.880601	0.789247
H103	H	0.451312	0.347837	0.000130
H104	H	0.951312	0.847837	0.500130
F105	F	1.053857	0.068990	0.710995
F106	F	1.553857	0.568990	1.210995
F107	F	0.812586	-0.459853	0.000075
F108	F	1.312586	0.040147	0.500075
H109	H	0.332174	0.086176	0.000160
H110	H	0.832174	0.586176	0.500160
H111	H	0.775051	-0.278192	0.000103
H112	H	1.275051	0.221808	0.500103
H113	H	0.792398	-0.080478	0.000125
H114	H	1.292398	0.419522	0.500125
H115	H	1.013172	0.124818	0.304019
H116	H	1.513172	0.624818	0.804019
F117	F	0.707376	0.404782	0.000072
F118	F	1.207376	0.904782	0.500072
H119	H	0.548486	0.363420	0.000104
H120	H	1.048486	0.863420	0.500104
F121	F	1.124509	-0.260123	0.000156
F122	F	1.624509	0.239877	0.500156
F123	F	1.104768	-0.485059	0.000118
F124	F	1.604768	0.014941	0.500118
F125	F	0.547126	-0.003214	0.000143
F126	F	1.047126	0.496786	0.500143
F127	F	0.716884	0.015732	0.000123
F128	F	1.216884	0.515732	0.500123
F129	F	0.419638	0.077050	0.000138
F130	F	0.919638	0.577050	0.500138
H131	H	0.323829	0.428106	0.000103
H132	H	0.823829	0.928106	0.500103
F133	F	0.163780	0.433867	0.000129
F134	F	0.663780	0.933867	0.500129
F135	F	0.173282	0.044817	0.000185
F136	F	0.673282	0.544817	0.500185
H137	H	1.052855	0.070365	0.481517
H138	H	1.552855	0.570365	0.981517
F139	F	0.854723	0.342297	0.711048
F140	F	1.354723	0.842297	1.211048
