data_functionalizedCrystal
_audit_creation_method	'MofGen! by Chris Wilmer'
_symmetry_space_group_name_H-M	'P1'
_symmetry_Int_Tables_number	1
_symmetry_cell_setting	triclinic
loop_
_symmetry_equiv_pos_as_xyz
  x,y,z
_cell_length_a	19.902436
_cell_length_b	14.446369
_cell_length_c	14.446369
_cell_angle_alpha	90.002030
_cell_angle_beta	60.001138
_cell_angle_gamma	59.993895
loop_
_atom_site_label
_atom_site_type_symbol
_atom_site_fract_x
_atom_site_fract_y
_atom_site_fract_z
Zr1	Zr	0.735455	-0.121545	0.891786
O2	O	0.875646	-0.269379	0.743972
O3	O	0.595271	-0.076214	0.937095
O4	O	0.735459	-0.269353	0.937089
O5	O	0.735453	0.076098	0.743987
O6	O	0.735453	-0.269348	1.089426
O7	O	0.735459	-0.076239	0.743979
O8	O	0.484682	0.076144	1.089437
O9	O	0.986223	-0.269394	0.743975
O10	O	0.652923	-0.056892	1.070110
O11	O	0.652923	0.056792	0.956429
O12	O	0.817976	-0.170605	0.956422
O13	O	0.817976	-0.056922	0.842740
Zr14	Zr	0.735435	0.121424	1.134759
Zr15	Zr	0.735445	-0.121536	1.134746
Zr16	Zr	0.735445	0.121415	0.891799
Zr17	Zr	0.911811	-0.121569	0.891791
Zr18	Zr	0.559079	0.121447	1.134754
O19	O	0.875619	0.076092	1.089449
O20	O	0.875633	-0.269366	1.089430
O21	O	0.875633	0.076079	0.743991
O22	O	0.595243	0.269257	1.282572
O23	O	0.595257	-0.076201	1.282553
O24	O	0.595257	0.269244	0.937114
O25	O	0.735437	-0.076220	1.282557
O26	O	0.735431	0.269231	1.089455
O27	O	0.735437	0.269226	0.937118
O28	O	0.735431	0.076118	1.282566
O29	O	0.986215	-0.269387	0.937096
O30	O	0.484675	0.269265	1.089448
O31	O	0.484667	0.269272	1.282569
O32	O	0.484675	0.076151	1.282558
O33	O	0.986215	-0.076273	0.743986
O34	O	0.986208	-0.076266	0.937107
O35	O	0.652914	0.170483	1.070123
O36	O	0.652914	0.056800	1.183804
O37	O	0.817967	-0.056914	1.070115
O38	O	0.817967	0.056770	0.956434
C39	C	0.514850	-0.000031	1.013266
C40	C	0.439982	-0.000021	1.013264
C41	C	0.735457	-0.000072	0.709366
C42	C	0.735461	-0.000076	0.606223
C43	C	0.735433	0.303845	1.013288
C44	C	0.735429	0.406988	1.013294
C45	C	0.167971	-0.000075	1.013275
C46	C	0.196210	0.071986	0.941910
C47	C	0.274329	0.071689	0.941523
C48	C	0.302918	-0.000047	1.013269
C49	C	0.338489	-0.123594	0.960960
C50	C	0.260651	-0.123214	0.960423
C51	C	0.133449	0.050421	1.136985
C52	C	0.210502	0.052936	1.136805
C53	C	0.379187	-0.000039	1.013267
C54	C	0.091707	-0.000091	1.013273
C55	C	0.956040	-0.000090	1.013278
C56	C	1.030908	-0.000100	1.013281
C57	C	0.735457	-0.303967	1.013256
C58	C	0.735461	-0.407110	1.013250
C59	C	0.631341	0.625374	1.084625
C60	C	0.631270	0.518142	1.085034
C61	C	0.787132	0.410315	1.065593
C62	C	0.786471	0.518084	1.066108
C63	C	0.788622	0.516697	0.889548
C64	C	0.786660	0.410729	0.889751
C65	C	0.839549	-0.071434	0.387853
C66	C	0.839619	-0.071835	0.495085
C67	C	0.683758	-0.052370	0.602895
C68	C	0.684419	-0.052893	0.495126
C69	C	0.682268	0.123667	0.496499
C70	C	0.684230	0.123472	0.602469
C71	C	0.735433	-0.000050	1.317178
C72	C	0.735429	-0.000046	1.420321
C73	C	0.514837	-0.000020	1.317172
C74	C	0.439965	-0.000006	1.420313
C75	C	0.514837	0.303875	1.013282
C76	C	0.439965	0.407028	1.013285
C77	C	0.514825	0.303886	1.317188
C78	C	0.439949	0.407043	1.420334
C79	C	0.956065	-0.304008	0.709356
C80	C	1.030941	-0.407164	0.606210
C81	C	0.956052	-0.000101	0.709372
C82	C	1.030925	-0.000115	0.606232
C83	C	0.956052	-0.303996	1.013262
C84	C	1.030925	-0.407149	1.013259
C85	C	0.404809	-0.059356	1.409402
C86	C	0.334469	-0.059366	1.506304
C87	C	0.299281	-0.000019	1.614116
C88	C	0.334444	0.059333	1.625025
C89	C	0.404788	0.059335	1.528124
C90	C	0.404800	0.514825	1.072634
C91	C	0.334459	0.611758	1.072633
C92	C	0.299281	0.600890	1.013289
C93	C	0.334453	0.493081	0.953933
C94	C	0.404797	0.396151	0.953928
C95	C	0.404786	0.396145	1.528124
C96	C	0.334442	0.493062	1.625050
C97	C	0.299257	0.600876	1.614184
C98	C	0.334426	0.611772	1.506384
C99	C	0.404774	0.514856	1.409460
C100	C	1.066112	-0.396266	0.498421
C101	C	1.136478	-0.493184	0.401494
C102	C	1.171667	-0.600998	0.412360
C103	C	1.136493	-0.611894	0.520161
C104	C	1.066133	-0.514977	0.617084
C105	C	1.066088	0.059224	0.617142
C106	C	1.136448	0.059207	0.520240
C107	C	1.171639	-0.000143	0.412428
C108	C	1.136472	-0.059490	0.401519
C109	C	1.066118	-0.059479	0.498421
C110	C	1.066081	-0.396245	1.072614
C111	C	1.136422	-0.493159	1.072633
C112	C	1.171610	-0.600976	1.013290
C113	C	1.136447	-0.611878	0.953933
C114	C	1.066102	-0.514965	0.953921
H115	H	0.247678	0.162664	0.976611
H116	H	0.305768	0.699567	1.497553
H117	H	1.037441	0.107562	0.704920
H118	H	1.037486	-0.523859	0.905582
H119	H	0.433424	0.308365	1.536992
H120	H	0.590444	0.520608	1.176290
H121	H	0.433420	0.308381	0.905604
Cl122	Cl	1.180718	-0.134092	0.265975
H123	H	0.433459	-0.107697	1.321624
H124	H	1.037441	-0.308464	1.120938
H125	H	0.433403	0.107671	1.537023
Cl126	Cl	1.021915	-0.134077	0.484684
Cl127	Cl	1.021919	-0.528698	0.752587
H128	H	1.228889	-0.679879	1.013308
H129	H	0.305848	-0.107696	1.497400
Cl130	Cl	1.180638	0.133826	0.533980
H131	H	0.131699	0.163190	0.976812
H132	H	1.165153	-0.699688	0.528994
H133	H	1.165044	-0.484260	1.120967
H134	H	0.880410	-0.036535	0.333900
Cl135	Cl	0.904092	0.288676	0.800836
H136	H	0.242002	0.679826	1.013302
Cl137	Cl	0.742416	0.183804	0.601703
Cl138	Cl	0.568546	0.710294	1.224660
H139	H	0.605568	0.177108	0.523939
H140	H	0.755306	0.566716	0.845856
Cl141	Cl	0.290239	0.479338	1.760556
Cl142	Cl	0.290193	0.133941	1.760569
Cl143	Cl	1.021889	-0.260740	0.484731
H144	H	1.228959	-0.679904	0.333429
Cl145	Cl	0.566481	0.022176	0.536271
H146	H	0.880392	-0.037031	0.493328
Cl147	Cl	0.729731	0.595839	1.206649
H148	H	1.165108	-0.699675	0.905617
H149	H	0.305800	0.484249	0.905617
H150	H	0.305830	0.699531	1.120971
H151	H	0.751215	0.408194	1.155762
H152	H	0.222175	0.037272	0.851195
Cl153	Cl	1.260083	-0.000143	0.290619
Cl154	Cl	0.373866	0.017623	0.800638
Cl155	Cl	0.902341	-0.211485	0.302960
Cl156	Cl	0.306266	-0.185620	0.819874
H157	H	0.748959	0.411250	0.850682
H158	H	0.880439	-0.163094	0.492635
H159	H	0.244704	-0.179822	1.009045
H160	H	0.181752	0.143953	1.175883
H161	H	0.241975	0.679783	1.693115
H162	H	0.433395	0.523745	1.321697
H163	H	0.359382	-0.179609	1.010443
H164	H	0.405498	-0.164295	0.870797
Cl165	Cl	0.234591	-0.019673	1.225821
Cl166	Cl	0.028414	0.188749	1.204436
H167	H	0.590704	0.519757	1.049958
Cl168	Cl	0.104338	-0.030228	1.219465
Cl169	Cl	0.568244	0.708690	1.030744
H170	H	0.862863	0.491418	1.017477
Cl171	Cl	0.905373	0.289459	0.989205
H172	H	0.865325	0.489236	0.836120
H173	H	0.433434	0.523696	1.120959
H174	H	1.165105	-0.484290	0.313728
H175	H	0.607174	-0.002877	0.681164
Cl176	Cl	0.739209	-0.191590	0.606182
Cl177	Cl	0.741165	-0.193446	0.417382
H178	H	0.242001	-0.000029	1.693010
H179	H	0.715580	0.167354	0.446479
H180	H	0.608240	0.181136	0.681628
