data_functionalizedCrystal
_audit_creation_method	'MofGen! by Chris Wilmer'
_symmetry_space_group_name_H-M	'P1'
_symmetry_Int_Tables_number	1
_symmetry_cell_setting	triclinic
loop_
_symmetry_equiv_pos_as_xyz
  x,y,z
_cell_length_a	14.853566
_cell_length_b	13.339070
_cell_length_c	11.804365
_cell_angle_alpha	105.112168
_cell_angle_beta	78.137799
_cell_angle_gamma	99.631854
loop_
_atom_site_label
_atom_site_type_symbol
_atom_site_fract_x
_atom_site_fract_y
_atom_site_fract_z
O1	O	1.242363	0.111727	-0.098942
O2	O	0.983826	0.127463	-0.098960
O3	O	1.083422	-0.027710	-0.098950
O4	O	1.142767	0.266900	-0.098952
O5	O	1.057192	0.013100	0.099103
O6	O	0.957595	0.168273	0.099093
O7	O	1.216133	0.152537	0.099112
Cu8	Cu	1.084469	0.164131	0.117186
Cu9	Cu	1.115489	0.115869	-0.117035
O10	O	1.116536	0.307710	0.099101
C11	C	1.060283	-0.045009	0.000075
C12	C	1.030404	-0.157354	0.000068
C13	C	0.936945	0.147155	0.000064
C14	C	0.836330	0.145017	0.000056
C15	C	1.262735	-0.521818	0.000085
C16	C	1.290810	-0.416263	0.000099
C17	C	1.225711	-0.351531	0.000090
C18	C	1.132532	-0.392363	0.000070
C19	C	1.104452	-0.497926	0.000066
C20	C	1.067428	-0.327639	0.000071
C21	C	0.974249	-0.368472	0.000050
C22	C	0.946175	-0.474025	0.000046
C23	C	1.011274	-0.538757	0.000054
C24	C	1.095508	-0.222076	0.000075
C25	C	0.937225	-0.198185	0.000055
C26	C	0.909150	-0.303739	0.000042
C27	C	0.425190	0.113739	-0.107882
C28	C	0.396614	0.158232	0.108044
C29	C	0.491148	0.160237	0.108040
C30	C	0.552708	0.138995	0.000074
C31	C	0.519734	0.115747	-0.107889
C32	C	0.524132	0.183495	0.216000
C33	C	0.618671	0.185503	0.216001
C34	C	0.680232	0.164253	0.108034
C35	C	0.647252	0.141003	0.000067
C36	C	0.708812	0.119760	-0.107899
C37	C	0.675833	0.096503	-0.215867
C38	C	0.581294	0.094497	-0.215856
C39	C	0.774770	0.166259	0.108022
C40	C	0.803355	0.121768	-0.107906
C41	C	1.263014	0.132845	0.000085
C42	C	1.363630	0.134981	0.000085
C43	C	1.139676	0.325008	0.000074
C44	C	1.169556	0.437351	0.000073
N45	N	1.062658	0.198076	0.281924
N46	N	1.137306	0.081916	-0.281773
C47	C	1.189679	0.000383	0.655887
C48	C	1.206177	-0.025300	0.531227
C49	C	1.170298	0.030541	0.468895
C50	C	1.117919	0.112071	0.531235
C51	C	1.101425	0.137762	0.655907
C52	C	1.082045	0.167921	0.468916
C53	C	1.029665	0.249450	0.531256
C54	C	1.013174	0.275137	0.655916
C55	C	1.049052	0.219295	0.718248
C56	C	1.098539	0.142229	0.344244
C57	C	1.010285	0.279609	0.344264
C58	C	0.993787	0.305292	0.468924
H59	H	1.171374	-0.188841	0.000092
H60	H	0.346488	0.175533	0.195945
H61	H	1.315727	-0.574529	0.000102
H62	H	0.951138	0.371676	0.519697
H63	H	1.248575	-0.265584	0.000101
H64	H	0.398333	0.094798	-0.195786
H65	H	1.183734	0.009626	0.367391
H66	H	0.474004	0.200797	0.303900
H67	H	0.645513	0.204439	0.303915
H68	H	1.366675	-0.383025	0.000117
H69	H	0.884215	-0.145478	0.000055
H70	H	0.801619	0.185205	0.195928
H71	H	0.853472	0.104467	-0.195827
H72	H	0.970532	0.341530	0.706674
H73	H	0.725968	0.079214	-0.303773
H74	H	0.981071	0.325082	0.293515
H75	H	0.870302	-0.507265	0.000038
H76	H	0.988420	-0.624711	0.000039
H77	H	0.554434	0.075560	-0.303758
H78	H	1.141186	0.075848	0.293497
H79	H	1.248825	-0.091680	0.480474
H80	H	0.833282	-0.337000	0.000026
H81	H	1.035617	0.240203	0.819756
H82	H	1.218893	-0.045071	0.706645
