data_functionalizedCrystal
_audit_creation_method	'MofGen! by Chris Wilmer'
_symmetry_space_group_name_H-M	'P1'
_symmetry_Int_Tables_number	1
_symmetry_cell_setting	triclinic
loop_
_symmetry_equiv_pos_as_xyz
  x,y,z
_cell_length_a	12.759400
_cell_length_b	12.759401
_cell_length_c	12.759401
_cell_angle_alpha	90.003996
_cell_angle_beta	90.007956
_cell_angle_gamma	90.016391
loop_
_atom_site_label
_atom_site_type_symbol
_atom_site_fract_x
_atom_site_fract_y
_atom_site_fract_z
Zn1	Zn	-0.418401	1.606096	0.594006
Zn2	Zn	-0.594048	1.606038	0.418326
Zn3	Zn	-0.418389	1.430445	0.418342
Zn4	Zn	-0.594044	1.430387	0.593964
O5	O	-0.506220	1.518241	0.506160
O6	O	-0.441708	1.753109	0.570712
O7	O	-0.570742	1.582745	0.271307
O8	O	-0.271369	1.453795	0.441669
O9	O	-0.570755	1.753066	0.441640
O10	O	-0.271379	1.582844	0.570728
O11	O	-0.441686	1.453738	0.271319
O12	O	-0.441683	1.283416	0.441629
O13	O	-0.570748	1.453695	0.740991
O14	O	-0.570736	1.283373	0.570658
O15	O	-0.441704	1.582788	0.741021
O16	O	-0.741068	1.582688	0.441601
O17	O	-0.741066	1.453638	0.570641
C18	C	-0.506208	1.245274	0.506141
C19	C	-0.506229	1.128497	0.506158
C20	C	-0.439151	0.963939	0.573481
C21	C	-0.439148	1.073663	0.573470
C22	C	-0.573323	1.073602	0.438861
C23	C	-0.573331	0.963880	0.438878
C24	C	-0.361683	0.963974	0.651194
C25	C	-0.361680	1.073698	0.651182
C26	C	-0.779188	1.518179	0.506138
C27	C	-0.895964	1.518248	0.506163
C28	C	-0.950793	1.585519	0.439046
C29	C	-1.060517	1.585584	0.439079
C30	C	-1.060574	1.451098	0.573348
C31	C	-0.950852	1.451039	0.573321
C32	C	-0.895905	1.652729	0.371889
C33	C	-0.950734	1.720004	0.304765
C34	C	-1.060458	1.720068	0.304798
C35	C	-1.115353	1.652858	0.371954
C36	C	-0.232187	1.518333	0.506205
C37	C	-0.115410	1.518371	0.506224
C38	C	-0.506227	1.518241	0.780193
C39	C	-0.506230	1.518241	0.896969
C40	C	-0.506233	1.792275	0.506179
C41	C	-0.506239	1.909051	0.506187
C42	C	-0.573426	1.585404	0.951822
C43	C	-0.573424	1.585407	1.061547
C44	C	-0.439029	1.451075	1.061555
C45	C	-0.439026	1.451078	0.951833
C46	C	-0.651021	1.662956	0.951819
C47	C	-0.651019	1.662959	1.061543
C48	C	-0.506236	1.518235	1.233192
C49	C	-0.506231	1.518240	1.116416
H50	H	-0.280276	1.103491	0.629514
H51	H	-0.621884	1.740268	1.095585
Br52	Br	-0.664375	1.148019	0.347521
H53	H	-0.732389	1.641134	1.091307
H54	H	-0.383602	0.934212	0.732532
H55	H	-0.806562	1.652681	0.371852
H56	H	-0.284346	0.929952	0.622186
Br57	Br	-0.410460	1.130447	0.779918
Br58	Br	-0.876237	1.811227	0.213643
Br59	Br	-1.134867	1.811381	0.213716
H60	H	-1.204698	1.652924	0.371983
H61	H	-1.105279	1.396377	0.628023
Br62	Br	-0.876435	1.359747	0.664415
H63	H	-0.384300	1.396396	0.907176
Br64	Br	-0.347824	1.359932	1.136019
H65	H	-0.629235	1.744335	0.922055
H66	H	-0.627969	0.919195	0.384090
Br67	Br	-0.779835	1.614322	0.895058
