data_functionalizedCrystal
_audit_creation_method	'MofGen! by Chris Wilmer'
_symmetry_space_group_name_H-M	'P1'
_symmetry_Int_Tables_number	1
_symmetry_cell_setting	triclinic
loop_
_symmetry_equiv_pos_as_xyz
  x,y,z
_cell_length_a	6.817900
_cell_length_b	11.102244
_cell_length_c	14.125465
_cell_angle_alpha	94.634221
_cell_angle_beta	100.398878
_cell_angle_gamma	108.604870
loop_
_atom_site_label
_atom_site_type_symbol
_atom_site_fract_x
_atom_site_fract_y
_atom_site_fract_z
V1	V	-4.017262	-0.174747	-0.299974
O2	O	-3.978095	0.009521	-0.294266
O3	O	-3.994678	-0.347574	-0.297920
O4	O	-3.952932	-0.171566	-0.430804
O5	O	-4.020130	-0.167706	-0.160462
V6	V	-4.499609	-0.152764	-0.283287
O7	O	-4.281100	-0.222967	-0.336577
O8	O	-4.685968	-0.104545	-0.246684
O9	O	-4.298986	0.020063	-0.285342
O10	O	-4.656173	-0.337032	-0.288995
O11	O	-4.614137	-0.159805	-0.422799
O12	O	-4.340732	-0.155945	-0.152457
C13	C	-3.846475	-0.389721	-0.293187
C14	C	-3.909191	-0.531006	-0.292380
C15	C	-3.906168	-0.579563	-0.203898
C16	C	-3.965107	-0.712318	-0.203151
C17	C	-4.030082	-0.747949	-0.379374
C18	C	-3.971157	-0.615196	-0.380121
C19	C	-3.868647	-0.558992	-0.102157
C20	C	-3.927587	-0.691747	-0.101409
C21	C	-3.793222	-0.165203	-0.462693
C22	C	-3.822079	-0.163746	-0.569647
C23	C	-3.874973	-0.161074	-0.765470
C24	C	-4.061266	-0.166434	-0.817791
C25	C	-4.090699	-0.164948	-0.926754
C26	C	-3.845532	-0.162561	-0.656497
C27	C	-4.110533	0.062203	-0.290072
C28	C	-4.027055	0.203487	-0.290885
C29	C	-4.163786	-0.162312	-0.120564
C30	C	-4.114166	-0.163763	-0.013608
H31	H	-3.978361	-0.520025	-0.066976
C32	C	-4.098231	-0.840555	-0.475883
H33	H	-4.091603	-0.792619	-0.528687
H34	H	-4.005823	-0.888957	-0.476187
H35	H	-4.239341	-0.897206	-0.482323
H36	H	-4.198659	-0.172153	-0.780753
C37	C	-3.689394	-0.153383	-0.815503
H38	H	-3.733849	-0.153394	-0.883238
H39	H	-3.574187	-0.076588	-0.788291
H40	H	-3.645692	-0.225448	-0.805869
C41	C	-3.974501	-0.561788	-0.477450
H42	H	-4.019826	-0.630944	-0.529595
H43	H	-4.069616	-0.514871	-0.484471
H44	H	-3.836096	-0.506614	-0.478338
C45	C	-3.632952	-0.487825	-0.054687
H46	H	-3.568770	-0.547994	-0.033026
H47	H	-3.563149	-0.444471	-0.100960
H48	H	-3.621534	-0.427113	-0.000774
H49	H	-4.078788	-0.731650	-0.073406
H50	H	-3.789061	-0.714922	-0.058465
