data_functionalizedCrystal
_audit_creation_method	'MofGen! by Chris Wilmer'
_symmetry_space_group_name_H-M	'P1'
_symmetry_Int_Tables_number	1
_symmetry_cell_setting	triclinic
loop_
_symmetry_equiv_pos_as_xyz
  x,y,z
_cell_length_a	19.851628
_cell_length_b	14.560438
_cell_length_c	19.851628
_cell_angle_alpha	60.005725
_cell_angle_beta	90.005228
_cell_angle_gamma	59.997979
loop_
_atom_site_label
_atom_site_type_symbol
_atom_site_fract_x
_atom_site_fract_y
_atom_site_fract_z
Zr1	Zr	0.648981	1.005157	-0.088303
O2	O	0.541418	1.196757	-0.195867
O3	O	0.681955	0.813556	-0.055330
O4	O	0.681959	1.005134	-0.195853
O5	O	0.541410	1.005197	0.055504
O6	O	0.792821	1.005116	-0.195839
O7	O	0.541413	1.005179	-0.055345
O8	O	0.792813	0.662418	0.055530
O9	O	0.541418	1.347895	-0.195865
O10	O	0.778753	0.892351	-0.041256
O11	O	0.696016	0.892377	0.041459
O12	O	0.696021	1.117936	-0.123988
O13	O	0.613283	1.117963	-0.041273
Zr14	Zr	0.825788	1.005157	0.088510
Zr15	Zr	0.825793	1.005128	-0.088281
Zr16	Zr	0.648976	1.005185	0.088488
Zr17	Zr	0.648982	1.246204	-0.088299
Zr18	Zr	0.825787	0.764109	0.088506
O19	O	0.792814	1.196757	0.055537
O20	O	0.792822	1.196717	-0.195837
O21	O	0.541410	1.196798	0.055507
O22	O	0.933351	0.813556	0.196074
O23	O	0.933358	0.813516	-0.055300
O24	O	0.681947	0.813596	0.196044
O25	O	0.933359	1.005116	-0.055297
O26	O	0.792809	1.005179	0.196060
O27	O	0.681948	1.005197	0.196046
O28	O	0.933355	1.005134	0.055552
O29	O	0.681960	1.347873	-0.195848
O30	O	0.792809	0.662441	0.196055
O31	O	0.933351	0.662418	0.196072
O32	O	0.933355	0.662396	0.055547
O33	O	0.541414	1.347918	-0.055340
O34	O	0.681956	1.347895	-0.055323
O35	O	0.778748	0.892377	0.124195
O36	O	0.861485	0.892351	0.041480
O37	O	0.778753	1.117936	-0.041253
O38	O	0.696016	1.117963	0.041463
C39	C	0.737384	0.703643	0.000099
C40	C	0.737384	0.601312	0.000098
C41	C	0.780570	0.553222	-0.043079
C42	C	0.780573	0.457063	-0.043071
C43	C	0.694197	0.457095	0.043291
C44	C	0.694199	0.553246	0.043288
C45	C	0.516220	1.005192	0.000077
C46	C	0.441159	1.005204	0.000067
C47	C	0.214705	1.128174	-0.045014
C48	C	0.192344	1.066682	-0.077701
C49	C	0.303752	1.005171	0.000091
C50	C	0.192372	1.066671	0.032763
C51	C	0.171020	1.005147	0.000114
C52	C	0.282380	0.943678	-0.032642
C53	C	0.282405	0.943684	0.077866
C54	C	0.260098	0.882102	0.045198
C55	C	0.380214	1.005188	0.000076
C56	C	0.094563	1.005120	0.000127
C57	C	0.958549	1.005121	0.000130
C58	C	1.033610	1.005109	0.000139
C59	C	0.737391	1.005121	-0.221035
C60	C	0.737393	1.005109	-0.296088
C61	C	0.737385	1.306671	0.000108
C62	C	0.737385	1.409002	0.000109
C63	C	0.782500	0.882140	-0.432345
C64	C	0.704706	0.943632	-0.499806
C65	C	0.737385	1.005143	-0.433519
C66	C	0.815163	0.943643	-0.499792
C67	C	0.737384	1.005166	-0.566268
C68	C	0.659546	1.066636	-0.499992
C69	C	0.770059	1.066629	-0.499968
C70	C	0.692219	1.128211	-0.567442
C71	C	0.737387	1.005126	-0.357044
C72	C	0.737374	1.005193	-0.642745
C73	C	0.737378	1.005192	0.221242
C74	C	0.737375	1.005204	0.296294
C75	C	0.958549	0.703608	0.000126
C76	C	1.033610	0.601264	0.000134
C77	C	0.737377	0.703678	0.221238
C78	C	0.737375	0.601359	0.296289
C79	C	0.958542	0.703643	0.221265
C80	C	1.033601	0.601312	0.296325
C81	C	0.516227	1.306671	-0.221058
C82	C	0.441168	1.409002	-0.296118
C83	C	0.516220	1.306706	0.000081
C84	C	0.441159	1.409049	0.000073
C85	C	0.737392	1.306635	-0.221031
C86	C	0.737394	1.408954	-0.296082
C87	C	1.025674	0.553203	-0.043057
C88	C	1.096195	0.457054	-0.043066
C89	C	1.174651	0.408962	0.000121
C90	C	1.182585	0.457033	0.043313
C91	C	1.112065	0.553187	0.043317
C92	C	0.780559	0.553309	0.374728
C93	C	0.780554	0.457183	0.445253
C94	C	0.737368	0.409102	0.437337
C95	C	0.694179	0.457162	0.358890
C96	C	0.694180	0.553293	0.288367
C97	C	1.112045	0.553242	0.288397
C98	C	1.182577	0.457105	0.358918
C99	C	1.174664	0.409032	0.437365
C100	C	1.096212	0.457111	0.445290
C101	C	1.025681	0.553253	0.374771
C102	C	0.362724	1.457083	-0.288191
C103	C	0.292192	1.553250	-0.358711
C104	C	0.300105	1.601328	-0.437158
C105	C	0.378557	1.553243	-0.445083
C106	C	0.449088	1.457084	-0.374564
C107	C	0.449095	1.457120	0.043256
C108	C	0.378574	1.553296	0.043246
C109	C	0.300118	1.601391	0.000057
C110	C	0.292183	1.553316	-0.043132
C111	C	0.362704	1.457149	-0.043126
C112	C	0.780588	1.457005	-0.288140
C113	C	0.780606	1.553131	-0.358651
C114	C	0.737425	1.601213	-0.437104
C115	C	0.694230	1.553153	-0.445045
C116	C	0.694217	1.457021	-0.374534
H117	H	0.815741	0.417909	-0.078228
H118	H	0.242702	1.679697	0.000059
H119	H	1.118538	0.592306	0.078493
H120	H	0.228320	1.592385	-0.352241
C121	C	0.865906	0.543690	0.467192
C122	C	0.828018	0.606167	0.383444
H123	H	0.895197	0.576332	0.472576
H124	H	0.903188	0.452925	0.492907
H125	H	0.825023	0.559462	0.492887
H126	H	0.868902	0.590387	0.357751
H127	H	0.790733	0.696953	0.357718
C128	C	0.391875	1.270497	-0.035623
C129	C	0.353972	1.404297	-0.090585
H130	H	0.386483	1.237874	-0.064926
H131	H	0.366157	1.254775	0.005232
H132	H	0.448694	1.228101	-0.009912
H133	H	0.297152	1.446695	-0.116292
H134	H	0.379687	1.420030	-0.131455
C135	C	0.527385	1.466794	0.128626
C136	C	0.535329	1.404269	0.090734
H137	H	0.580622	1.434175	0.157933
H138	H	0.498080	1.451046	0.165891
H139	H	0.498077	1.557565	0.087749
H140	H	0.564632	1.313498	0.131612
H141	H	0.564647	1.420006	0.053467
H142	H	0.659017	0.592403	0.224501
H143	H	1.246450	0.417969	0.352450
H144	H	0.880942	0.891630	-0.500437
C145	C	0.865979	1.466644	-0.209846
C146	C	0.828062	1.404160	-0.201909
H147	H	0.895295	1.434014	-0.156611
H148	H	0.825117	1.557410	-0.239147
H149	H	0.903251	1.450863	-0.239151
H150	H	0.790786	1.419949	-0.172609
H151	H	0.868929	1.313373	-0.172596
H152	H	0.153536	1.118660	-0.143466
H153	H	0.278703	0.778012	0.083343
C154	C	0.213853	1.543683	-0.128501
C155	C	0.205940	1.606179	-0.090595
H156	H	0.160608	1.576322	-0.157802
H157	H	0.243157	1.452920	-0.087639
H158	H	0.243152	1.559444	-0.165781
H159	H	0.176647	1.590410	-0.053310
H160	H	0.176624	1.696962	-0.131462
H161	H	0.153570	1.118688	0.060386
C162	C	0.608847	1.543543	-0.523379
C163	C	0.646767	1.606012	-0.531285
H164	H	0.579548	1.576178	-0.576622
H165	H	0.571568	1.559321	-0.494089
H166	H	0.649713	1.452765	-0.494075
H167	H	0.605900	1.696790	-0.560584
H168	H	0.684050	1.590245	-0.560588
H169	H	1.089718	0.417927	-0.078238
H170	H	0.659040	1.417909	-0.381012
H171	H	0.512959	1.417937	-0.381028
C172	C	0.947384	0.543559	-0.128448
C173	C	0.939440	0.606057	-0.090537
H174	H	0.894147	0.576195	-0.157768
H175	H	0.976684	0.452796	-0.087587
H176	H	0.976696	0.559320	-0.165712
H177	H	0.910132	0.590289	-0.053268
H178	H	0.910126	0.696841	-0.131402
C179	C	1.204512	0.543408	0.210125
C180	C	1.120758	0.605962	0.202174
H181	H	1.209894	0.575928	0.156895
H182	H	1.230218	0.452637	0.239494
H183	H	1.230221	0.559257	0.239368
H184	H	1.095050	0.590106	0.172936
H185	H	1.095041	0.696755	0.172792
C186	C	1.322718	0.271302	0.491341
C187	C	1.252198	0.303340	0.514876
H188	H	1.370585	0.206045	0.539192
H189	H	1.322705	0.346317	0.459447
H190	H	1.322696	0.239797	0.459433
H191	H	1.252218	0.334855	0.546779
H192	H	1.252212	0.228310	0.546784
C193	C	0.358545	0.745096	-0.023151
C194	C	0.334609	0.873543	-0.070039
H195	H	0.390792	0.701802	-0.046238
H196	H	0.310867	0.744643	-0.023353
H197	H	0.390220	0.701727	0.031937
H198	H	0.302928	0.916915	-0.125125
H199	H	0.382295	0.874003	-0.069845
C200	C	0.143597	1.332680	-0.178003
C201	C	0.189812	1.268568	-0.096575
H202	H	0.128237	1.419348	-0.209835
H203	H	0.095404	1.333639	-0.178741
H204	H	0.175816	1.288544	-0.200661
H205	H	0.157591	1.312699	-0.073915
H206	H	0.238013	1.267617	-0.095833
C207	C	0.288474	0.938196	0.200720
C208	C	0.334799	0.873575	0.166625
H209	H	0.320821	0.894923	0.255515
H210	H	0.240571	0.938364	0.201336
H211	H	0.272624	1.025123	0.168437
H212	H	0.350644	0.786650	0.198905
H213	H	0.382717	0.873393	0.166014
H214	H	0.815779	1.592252	-0.352170
C215	C	0.536420	1.072808	-0.498990
C216	C	0.570707	1.136769	-0.499203
H217	H	0.481574	1.116109	-0.498505
H218	H	0.568534	0.985680	-0.451317
H219	H	0.535885	1.073279	-0.547013
H220	H	0.571247	1.136290	-0.451177
H221	H	0.538584	1.223921	-0.546881
C222	C	0.833986	0.743181	-0.284258
C223	C	0.833919	0.741745	-0.354260
H224	H	0.865731	0.656510	-0.236053
H225	H	0.778962	0.787302	-0.284409
H226	H	0.857324	0.786689	-0.284831
H227	H	0.810575	0.698246	-0.353689
H228	H	0.888954	0.697606	-0.354108
C229	C	0.818914	0.309841	0.591714
C230	C	0.828034	0.404364	0.531476
H231	H	0.848223	0.277243	0.644942
H232	H	0.840238	0.240811	0.585539
H233	H	0.762094	0.347376	0.585520
H234	H	0.884854	0.366827	0.537666
H235	H	0.806714	0.473406	0.537654
H236	H	1.089781	0.417956	0.509171
C237	C	0.784471	1.738907	-0.491057
C238	C	0.737440	1.706890	-0.514607
H239	H	0.784476	1.804154	-0.538903
H240	H	0.839483	1.663882	-0.459155
H241	H	0.761340	1.770420	-0.459154
H242	H	0.760575	1.675368	-0.546505
H243	H	0.682417	1.781929	-0.546522
C244	C	1.311997	0.270340	0.151008
C245	C	1.268830	0.404145	0.090791
H246	H	1.365241	0.237685	0.180325
H247	H	1.317351	0.227980	0.125275
H248	H	1.282679	0.254615	0.188272
H249	H	1.298146	0.419870	0.053523
H250	H	1.263480	0.446518	0.116525
C251	C	0.818925	0.700604	-0.081435
C252	C	0.828044	0.606049	-0.090545
H253	H	0.848233	0.733216	-0.110743
H254	H	0.840251	0.663103	-0.024629
H255	H	0.762106	0.769631	-0.102770
H256	H	0.884863	0.537016	-0.069204
H257	H	0.806722	0.643549	-0.147362
H258	H	0.677066	0.891653	-0.500486
C259	C	0.608809	0.543639	0.128649
C260	C	0.646722	0.606118	0.090748
H261	H	0.579498	0.576285	0.157945
H262	H	0.649672	0.452875	0.165924
H263	H	0.571532	0.559405	0.087778
H264	H	0.684003	0.590345	0.131620
H265	H	0.605854	0.696903	0.053470
C266	C	0.655833	0.309727	0.081635
C267	C	0.646721	0.404271	0.090754
H268	H	0.626516	0.277127	0.110932
H269	H	0.712643	0.240702	0.102968
H270	H	0.634505	0.347244	0.024819
H271	H	0.668054	0.366752	0.147570
H272	H	0.589899	0.473309	0.069425
H273	H	0.654014	1.232301	-0.625186
H274	H	0.242668	1.679626	-0.494572
H275	H	0.797717	1.118563	-0.499257
H276	H	1.232066	0.330666	0.000112
C277	C	0.308768	1.700631	-0.591531
C278	C	0.387247	1.606088	-0.531317
H279	H	0.314133	1.733245	-0.644768
H280	H	0.279482	1.769648	-0.585341
H281	H	0.279471	1.663109	-0.585326
H282	H	0.416541	1.643612	-0.537518
H283	H	0.416545	1.537059	-0.537510
H284	H	0.961811	0.592379	0.381237
C285	C	0.608806	0.466763	0.266456
C286	C	0.646715	0.404297	0.350196
H287	H	0.579504	0.434124	0.261092
H288	H	0.649670	0.450989	0.240750
H289	H	0.571522	0.557541	0.240736
H290	H	0.684004	0.313519	0.375915
H291	H	0.605846	0.420061	0.375912
C292	C	0.690351	0.271363	0.491359
C293	C	0.737375	0.303429	0.514863
H294	H	0.690355	0.206129	0.539223
H295	H	0.713474	0.239829	0.459471
H296	H	0.635328	0.346386	0.459455
H297	H	0.792400	0.228408	0.546763
H298	H	0.714254	0.334959	0.546765
C299	C	0.432478	1.309691	-0.141731
C300	C	0.354012	1.404252	-0.201966
H301	H	0.427092	1.277080	-0.088502
H302	H	0.461781	1.347187	-0.147913
H303	H	0.461769	1.240663	-0.147920
H304	H	0.324723	1.473285	-0.195781
H305	H	0.324697	1.366757	-0.195782
H306	H	0.385051	1.592423	0.078419
