data_functionalizedCrystal
_audit_creation_method	'MofGen! by Chris Wilmer'
_symmetry_space_group_name_H-M	'P1'
_symmetry_Int_Tables_number	1
_symmetry_cell_setting	triclinic
loop_
_symmetry_equiv_pos_as_xyz
  x,y,z
_cell_length_a	17.699083
_cell_length_b	15.995350
_cell_length_c	16.176319
_cell_angle_alpha	89.995430
_cell_angle_beta	89.998611
_cell_angle_gamma	83.387695
loop_
_atom_site_label
_atom_site_type_symbol
_atom_site_fract_x
_atom_site_fract_y
_atom_site_fract_z
O1	O	1.004255	0.105885	-0.068627
O2	O	0.783899	0.119661	-0.068653
O3	O	0.900101	-0.009127	-0.068638
O4	O	0.888054	0.234673	-0.068641
O5	O	0.900085	-0.009135	0.068855
O6	O	0.783883	0.119653	0.068840
O7	O	1.004239	0.105877	0.068867
Cu8	Cu	0.894060	0.112764	0.081408
Cu9	Cu	0.894079	0.112774	-0.081194
O10	O	0.888038	0.234665	0.068852
C11	C	0.755694	0.119163	0.000090
C12	C	0.671673	0.117683	0.000080
C13	C	0.899595	-0.040324	0.000107
C14	C	0.898101	-0.133272	0.000102
C15	C	0.623178	0.193278	0.000079
C16	C	0.544232	0.191882	0.000090
C17	C	0.513783	0.114889	0.000095
C18	C	0.562285	0.039287	0.000098
C19	C	0.641229	0.040685	0.000094
C20	C	0.243912	0.033651	0.000119
C21	C	0.164962	0.032259	0.000121
C22	C	0.146916	0.184848	0.000115
C23	C	0.225860	0.186245	0.000110
C24	C	0.274354	0.110644	0.000118
C25	C	0.359956	0.112159	0.000108
C26	C	0.428183	0.113373	0.000099
C27	C	0.892739	-0.471008	0.000104
C28	C	0.809983	-0.423406	-0.000214
C29	C	0.811476	-0.326719	0.000096
C30	C	0.895399	-0.303453	0.000102
C31	C	0.936208	-0.344618	0.078621
C32	C	0.934129	-0.441250	0.078687
C33	C	0.935857	-0.441602	-0.077669
C34	C	0.935838	-0.344657	-0.078706
C35	C	0.896907	-0.208759	0.000104
C36	C	0.891234	-0.565703	0.000108
C37	C	1.032445	0.106375	0.000122
C38	C	1.116465	0.107856	0.000126
C39	C	0.888544	0.265863	0.000105
C40	C	0.890037	0.358810	0.000104
N41	N	0.894052	0.112757	0.195773
N42	N	0.894092	0.112775	-0.195559
C43	C	0.945521	0.055753	0.239043
C44	C	0.945525	0.055752	0.325591
C45	C	0.894063	0.112760	0.368865
C46	C	0.842588	0.169767	0.325589
C47	C	0.842581	0.169763	0.239043
C48	C	0.842614	0.169782	0.674617
C49	C	0.842626	0.169783	0.761168
C50	C	0.945558	0.055772	0.761164
C51	C	0.945551	0.055768	0.674619
C52	C	0.894074	0.112771	0.631350
C53	C	0.894069	0.112770	0.537505
C54	C	0.894070	0.112765	0.462708
H55	H	0.647962	0.255975	0.000074
N56	N	0.896384	-0.308414	-0.155660
H57	H	0.876614	-0.355029	-0.188461
H58	H	0.852526	-0.265471	-0.139489
N59	N	0.900031	-0.468733	-0.156501
H60	H	0.845212	-0.443051	-0.159100
H61	H	0.928628	-0.449215	-0.205569
H62	H	0.283388	-0.027909	0.000126
N63	N	0.787066	0.231250	0.192376
H64	H	0.815979	0.268283	0.156457
H65	H	0.753568	0.199236	0.156527
H66	H	0.504750	0.253440	0.000088
N67	N	1.001015	-0.005751	0.192375
H68	H	0.993201	0.002891	0.130982
H69	H	1.054710	0.003834	0.207489
N70	N	0.258693	0.269292	0.000097
H71	H	0.241011	0.302402	0.051065
H72	H	0.316057	0.258640	0.000060
H73	H	0.779397	-0.298228	-0.056190
N74	N	0.132118	-0.050787	0.000128
H75	H	0.174818	-0.098469	0.000135
H76	H	0.099755	-0.054685	0.051099
N77	N	0.529448	-0.043757	0.000118
H78	H	0.472078	-0.033173	0.000120
H79	H	0.547187	-0.076833	-0.050850
N80	N	1.014605	-0.484139	0.083418
H81	H	1.051272	-0.440247	0.085456
H82	H	1.020656	-0.520039	0.134881
H83	H	0.987435	0.009335	0.360821
N84	N	1.017887	-0.326108	0.082487
H85	H	1.029248	-0.290770	0.033261
H86	H	1.026306	-0.294480	0.135103
N87	N	0.766171	-0.447863	-0.074796
H88	H	0.719636	-0.473745	-0.056061
H89	H	0.750037	-0.396162	-0.109162
N90	N	0.766348	-0.449267	0.073943
H91	H	0.799954	-0.491685	0.107744
H92	H	0.749841	-0.398126	0.108939
H93	H	0.779168	-0.298792	0.056470
N94	N	1.001081	-0.005715	0.807833
H95	H	0.993278	0.002933	0.869226
H96	H	0.992344	-0.065104	0.792711
H97	H	0.107421	0.246406	0.000113
N98	N	0.693538	-0.040850	0.000101
H99	H	0.662272	-0.089838	0.000104
H100	H	0.726687	-0.043595	-0.050870
N101	N	1.016907	-0.324480	-0.084986
H102	H	1.028622	-0.288184	-0.036616
H103	H	1.052607	-0.378491	-0.084309
N104	N	0.894695	-0.465426	0.156424
H105	H	0.878822	-0.413334	0.190326
H106	H	0.848243	-0.493283	0.141139
N107	N	0.898649	-0.306943	0.156010
H108	H	0.843457	-0.317411	0.156785
H109	H	0.925365	-0.333849	0.206161
H110	H	0.987459	0.009350	0.639387
H111	H	0.800716	0.216208	0.796401
H112	H	0.996873	-0.473487	-0.078191
N113	N	0.787091	0.231257	0.627954
H114	H	0.754493	0.267370	0.668503
H115	H	0.816052	0.268236	0.592032
H116	H	0.800682	0.216181	0.360828
