data_functionalizedCrystal
_audit_creation_method	'MofGen! by Chris Wilmer'
_symmetry_space_group_name_H-M	'P1'
_symmetry_Int_Tables_number	1
_symmetry_cell_setting	triclinic
loop_
_symmetry_equiv_pos_as_xyz
  x,y,z
_cell_length_a	14.044220
_cell_length_b	14.044220
_cell_length_c	12.503572
_cell_angle_alpha	93.835250
_cell_angle_beta	93.843168
_cell_angle_gamma	86.811122
loop_
_atom_site_label
_atom_site_type_symbol
_atom_site_fract_x
_atom_site_fract_y
_atom_site_fract_z
O1	O	0.225116	-1.282200	-0.089210
O2	O	0.725116	-0.782200	0.410790
O3	O	0.216809	-1.005530	-0.089237
O4	O	0.716809	-0.505530	0.410763
O5	O	0.082627	-1.139712	-0.089213
O6	O	0.582627	-0.639712	0.410787
O7	O	0.359298	-1.148019	-0.089234
O8	O	0.859298	-0.648019	0.410766
O9	O	0.092737	-1.129622	0.089427
O10	O	0.592737	-0.629622	0.589427
O11	O	0.226918	-0.995440	0.089403
O12	O	0.726918	-0.495440	0.589403
O13	O	0.235226	-1.272110	0.089430
O14	O	0.735226	-0.772110	0.589430
Cu15	Cu	0.231995	-1.132854	0.105728
Cu16	Cu	0.731995	-0.632854	0.605728
Cu17	Cu	0.220040	-1.144786	-0.105535
Cu18	Cu	0.720040	-0.644786	0.394465
O19	O	0.369407	-1.137929	0.089406
O20	O	0.869407	-0.637929	0.589406
C21	C	0.218228	-0.964864	0.000080
C22	C	0.718228	-0.464864	0.500080
C23	C	0.207383	-0.858721	0.000070
C24	C	0.707383	-0.358721	0.500070
N25	N	0.240404	-1.124469	0.254319
N26	N	0.740404	-0.624469	0.754319
C27	C	0.052060	-1.131031	0.000107
C28	C	0.552060	-0.631031	0.500107
C29	C	-0.054082	-1.120187	0.000107
C30	C	0.445918	-0.620187	0.500107
C31	C	-0.248421	-1.100361	0.000090
C32	C	0.251579	-0.600361	0.500090
C33	C	-0.299551	-1.177275	0.000094
C34	C	0.200449	-0.677275	0.500094
C35	C	-0.407687	-1.166244	0.000084
C36	C	0.092313	-0.666244	0.500084
C37	C	-0.140274	-1.111391	0.000099
C38	C	0.359726	-0.611391	0.500099
C39	C	0.399974	-1.146609	0.000084
C40	C	0.899974	-0.646609	0.500084
C41	C	0.506117	-1.157454	0.000077
C42	C	1.006117	-0.657454	0.500077
C43	C	0.233807	-1.312777	0.000111
C44	C	0.733807	-0.812777	0.500111
C45	C	0.244651	-1.418920	0.000114
C46	C	0.744651	-0.918920	0.500114
C47	C	0.187558	-0.664382	0.000092
C48	C	0.687558	-0.164382	0.500092
C49	C	0.264472	-0.613253	0.000091
C50	C	0.764472	-0.113253	0.500091
C51	C	0.253441	-0.505116	0.000104
C52	C	0.753441	-0.005116	0.500104
C53	C	0.198587	-0.772529	0.000080
C54	C	0.698587	-0.272529	0.500080
N55	N	0.211624	-1.153179	-0.254126
N56	N	0.711624	-0.653179	0.245874
C57	C	0.252782	-1.112134	0.473432
C58	C	0.752782	-0.612134	0.973432
C59	C	0.199249	-1.165511	0.526768
C60	C	0.699249	-0.665511	1.026768
C61	C	0.206136	-1.158648	0.648690
C62	C	0.706136	-0.658648	1.148690
C63	C	0.245896	-1.118996	0.351499
C64	C	0.745896	-0.618996	0.851499
H65	H	-0.285859	-1.026234	0.000080
H66	H	0.214141	-0.526234	0.500080
C67	C	0.088792	-0.614296	0.000042
C68	C	0.588792	-0.114296	0.500042
C69	C	0.097348	-0.515446	0.000021
C70	C	0.597348	-0.015446	0.500021
C71	C	0.006386	-0.469265	-0.000044
C72	C	0.506386	0.030735	0.499956
H73	H	0.058524	-0.628615	0.062317
H74	H	0.558524	-0.128615	0.562317
H75	H	0.051554	-0.635694	-0.062282
H76	H	0.551554	-0.135694	0.437718
H77	H	0.134571	-0.494055	0.062339
H78	H	0.634571	0.005945	0.562339
H79	H	0.127599	-0.501098	-0.062249
H80	H	0.627599	-0.001098	0.437751
H81	H	-0.030851	-0.490663	-0.062368
H82	H	0.469149	0.009337	0.437632
H83	H	-0.023874	-0.483592	0.062232
H84	H	0.476126	0.016408	0.562232
H85	H	0.012179	-0.402191	-0.000068
H86	H	0.512179	0.097809	0.499932
H87	H	0.148245	-1.216364	0.480864
H88	H	0.648245	-0.716364	0.980864
C89	C	0.363236	-0.663348	-0.000010
C90	C	0.863236	-0.163348	0.499990
C91	C	0.354685	-0.762203	-0.000061
C92	C	0.854685	-0.262203	0.499939
C93	C	0.445640	-0.808387	-0.000184
C94	C	0.945640	-0.308387	0.499816
H95	H	0.400566	-0.642019	0.062256
H96	H	0.900566	-0.142019	0.562256
H97	H	0.393402	-0.648959	-0.062343
H98	H	0.893402	-0.148959	0.437657
H99	H	0.324534	-0.776585	0.062266
H100	H	0.824534	-0.276585	0.562266
H101	H	0.317372	-0.783560	-0.062323
H102	H	0.817372	-0.283560	0.437677
H103	H	0.475805	-0.793999	-0.062517
H104	H	0.975805	-0.293999	0.437483
H105	H	0.482963	-0.787050	0.062084
H106	H	0.982963	-0.287050	0.562084
H107	H	0.439850	-0.875465	-0.000228
H108	H	0.939850	-0.375465	0.499772
C109	C	0.320644	-1.044270	0.534770
C110	C	0.820644	-0.544270	1.034770
C111	C	0.268513	-0.977877	0.599363
C112	C	0.768513	-0.477877	1.099363
C113	C	0.330997	-0.915359	0.655909
C114	C	0.830997	-0.415359	1.155909
H115	H	0.353360	-1.011583	0.485401
H116	H	0.853360	-0.511583	0.985401
H117	H	0.365671	-1.079589	0.578698
H118	H	0.865671	-0.579589	1.078698
H119	H	0.223503	-0.942562	0.555439
H120	H	0.723503	-0.442562	1.055439
H121	H	0.235799	-1.010537	0.648752
H122	H	0.735799	-0.510537	1.148752
H123	H	0.376024	-0.950678	0.699837
H124	H	0.876024	-0.450678	1.199837
H125	H	0.363710	-0.882679	0.606532
H126	H	0.863710	-0.382679	1.106532
H127	H	0.295636	-0.870310	0.699749
H128	H	0.795636	-0.370310	1.199749
C129	C	-0.249522	-1.276078	-0.000049
C130	C	0.250478	-0.776078	0.499951
C131	C	-0.197657	-1.292058	-0.091933
C132	C	0.302343	-0.792058	0.408067
C133	C	-0.151545	-1.383055	-0.092089
C134	C	0.348455	-0.883055	0.407911
H135	H	-0.295722	-1.322978	-0.000099
H136	H	0.204278	-0.822978	0.499901
H137	H	-0.207207	-1.280058	0.062221
H138	H	0.292793	-0.780058	0.562221
H139	H	-0.239968	-1.288086	-0.154186
H140	H	0.260032	-0.788086	0.345814
H141	H	-0.151441	-1.245181	-0.091902
H142	H	0.348559	-0.745181	0.408098
H143	H	-0.109230	-1.387035	-0.029819
H144	H	0.390770	-0.887035	0.470181
H145	H	-0.197751	-1.429947	-0.092137
H146	H	0.302249	-0.929947	0.407863
H147	H	-0.116342	-1.393905	-0.154426
H148	H	0.383658	-0.893905	0.345574
