data_functionalizedCrystal
_audit_creation_method	'MofGen! by Chris Wilmer'
_symmetry_space_group_name_H-M	'P1'
_symmetry_Int_Tables_number	1
_symmetry_cell_setting	triclinic
loop_
_symmetry_equiv_pos_as_xyz
  x,y,z
_cell_length_a	12.759395
_cell_length_b	18.215406
_cell_length_c	18.215399
_cell_angle_alpha	89.980812
_cell_angle_beta	89.982699
_cell_angle_gamma	89.999303
loop_
_atom_site_label
_atom_site_type_symbol
_atom_site_fract_x
_atom_site_fract_y
_atom_site_fract_z
Zn1	Zn	1.606359	-0.292962	-0.416111
Zn2	Zn	1.606311	-0.416033	-0.293064
Zn3	Zn	1.430667	-0.292988	-0.293064
Zn4	Zn	1.430701	-0.415994	-0.416094
O5	O	1.518510	-0.354494	-0.354583
O6	O	1.753374	-0.309292	-0.399796
O7	O	1.582978	-0.399738	-0.190079
O8	O	1.453978	-0.190000	-0.309394
O9	O	1.753339	-0.399712	-0.309393
O10	O	1.583059	-0.189981	-0.399796
O11	O	1.453932	-0.309337	-0.190079
O12	O	1.283651	-0.309300	-0.309377
O13	O	1.454037	-0.399646	-0.519080
O14	O	1.283676	-0.399672	-0.399767
O15	O	1.583092	-0.309255	-0.519093
O16	O	1.583011	-0.519012	-0.309377
O17	O	1.453991	-0.518984	-0.399766
C18	C	1.245542	-0.354485	-0.354570
C19	C	1.128766	-0.354499	-0.354582
C20	C	1.518528	-0.545700	-0.354586
C21	C	1.518632	-0.627499	-0.354611
C22	C	1.518574	-0.354443	-0.546536
C23	C	1.518601	-0.354422	-0.628335
C24	C	1.128831	-0.448756	-0.448553
C25	C	1.074002	-0.495890	-0.495540
C26	C	0.964281	-0.495899	-0.495549
C27	C	0.909385	-0.448767	-0.448567
C28	C	0.964213	-0.401633	-0.401580
C29	C	1.073937	-0.401631	-0.401575
C30	C	0.964148	-0.307374	-0.307614
C31	C	1.073870	-0.307367	-0.307601
C32	C	0.909252	-0.260242	-0.260633
C33	C	0.964081	-0.213110	-0.213640
C34	C	1.073809	-0.213104	-0.213633
C35	C	1.128698	-0.260233	-0.260613
C36	C	1.792543	-0.354504	-0.354596
C37	C	1.909320	-0.354508	-0.354602
C38	C	1.518520	-0.162541	-0.354597
C39	C	1.518524	-0.080742	-0.354602
C40	C	1.451420	0.184334	-0.401672
C41	C	1.451399	0.107476	-0.401669
C42	C	1.585740	0.107429	-0.307537
C43	C	1.585755	0.184287	-0.307536
C44	C	1.518596	0.222737	-0.354608
C45	C	1.518560	0.069021	-0.354606
C46	C	1.518538	-0.014313	-0.354603
C47	C	1.518616	0.306076	-0.354610
C48	C	1.585824	-0.307311	-0.816537
C49	C	1.585837	-0.307289	-0.893396
C50	C	1.451452	-0.401419	-0.893371
C51	C	1.451435	-0.401436	-0.816514
C52	C	1.518627	-0.354383	-0.778099
C53	C	1.518657	-0.354345	-0.931815
C54	C	1.518670	-0.354322	-1.015148
C55	C	1.518613	-0.354405	-0.694760
C56	C	1.518506	-0.354492	-0.163377
C57	C	1.518683	-0.354306	-0.081578
H58	H	1.218172	-0.448759	-0.448545
H59	H	0.919640	-0.534276	-0.533814
F60	F	1.132153	-0.162933	-0.163625
H61	H	1.640419	0.076114	-0.269214
F62	F	0.792609	-0.448770	-0.448589
F63	F	0.792476	-0.260248	-0.260648
F64	F	1.379941	0.225254	-0.451767
F65	F	1.657255	0.225160	-0.257440
F66	F	1.657333	-0.257231	-0.775655
H67	H	1.118711	-0.534262	-0.533793
F68	F	1.379900	0.066608	-0.451761
H69	H	1.640553	-0.268957	-0.924688
H70	H	0.919376	-0.174736	-0.175395
H71	H	1.396749	-0.439729	-0.924658
H72	H	1.218039	-0.260235	-0.260609
F73	F	1.379906	-0.451536	-0.775603
