data_functionalizedCrystal
_audit_creation_method	'MofGen! by Chris Wilmer'
_symmetry_space_group_name_H-M	'P1'
_symmetry_Int_Tables_number	1
_symmetry_cell_setting	triclinic
loop_
_symmetry_equiv_pos_as_xyz
  x,y,z
_cell_length_a	33.359672
_cell_length_b	33.359674
_cell_length_c	33.359725
_cell_angle_alpha	90.002336
_cell_angle_beta	59.997790
_cell_angle_gamma	119.999824
loop_
_atom_site_label
_atom_site_type_symbol
_atom_site_fract_x
_atom_site_fract_y
_atom_site_fract_z
O1	O	0.353587	-0.274991	-0.011927
O2	O	0.271501	-0.216698	0.011867
O3	O	0.353584	-0.216698	-0.070218
O4	O	0.271504	-0.274991	0.070158
O5	O	0.286913	-0.283369	-0.070217
O6	O	0.204830	-0.283369	0.011868
O7	O	0.286915	-0.341662	-0.011926
Zn8	Zn	0.235287	-0.323101	-0.000029
Zn9	Zn	0.323130	-0.235259	-0.000030
O10	O	0.204833	-0.341662	0.070158
C11	C	0.117512	-0.073731	0.028809
C12	C	0.068931	-0.098077	0.029147
C13	C	0.117509	-0.146322	0.028814
C14	C	0.068928	-0.170558	0.029151
C15	C	0.044923	-0.146320	0.028809
C16	C	0.141407	-0.098079	0.029151
C17	C	0.196155	0.004722	0.022919
C18	C	0.222880	0.054297	0.019200
C19	C	0.199944	0.079161	0.017331
C20	C	0.228920	0.132913	0.013296
C21	C	0.150277	0.054455	0.019187
C22	C	0.123552	0.004883	0.022908
C23	C	0.146493	-0.019981	0.024772
C24	C	-0.027638	-0.146130	0.022914
C25	C	-0.073493	-0.168979	0.019194
C26	C	-0.096492	-0.216782	0.017330
C27	C	-0.146209	-0.241558	0.013295
C28	C	-0.073644	-0.241744	0.019190
C29	C	-0.027793	-0.218897	0.022912
C30	C	-0.004790	-0.171090	0.024771
C31	C	0.196149	-0.146136	0.022928
C32	C	0.222876	-0.168985	0.019206
C33	C	0.199936	-0.216787	0.017342
C34	C	0.228910	-0.241565	0.013312
C35	C	0.150274	-0.241745	0.019196
C36	C	0.123547	-0.218899	0.022915
C37	C	0.146487	-0.171094	0.024781
O38	O	-0.279069	-0.341655	-0.011947
O39	O	-0.162484	-0.283360	0.011844
O40	O	-0.162479	-0.283364	-0.070239
O41	O	-0.279074	-0.341650	0.070137
O42	O	-0.162476	-0.216692	-0.070243
O43	O	-0.162482	-0.216688	0.011840
O44	O	-0.279066	-0.274982	-0.011951
Zn45	Zn	-0.220774	-0.235249	-0.000056
Zn46	Zn	-0.220777	-0.323093	-0.000051
O47	O	-0.279072	-0.274978	0.070133
C48	C	0.440913	-0.146329	-0.367177
C49	C	0.489495	-0.098086	-0.391412
C50	C	0.440913	-0.146329	-0.294588
C51	C	0.489495	-0.098086	-0.318933
C52	C	0.513502	-0.073740	-0.367176
C53	C	0.417016	-0.170565	-0.318934
C54	C	0.362270	-0.219081	-0.366989
C55	C	0.335546	-0.242087	-0.389839
C56	C	0.358484	-0.217283	-0.437640
C57	C	0.329509	-0.242225	-0.462417
C58	C	0.408152	-0.169473	-0.462601
C59	C	0.434876	-0.146469	-0.439753
C60	C	0.411933	-0.171273	-0.391947
C61	C	0.586065	0.004714	-0.439927
C62	C	0.631921	0.054287	-0.462933
C63	C	0.654919	0.079151	-0.438129
C64	C	0.704637	0.132902	-0.463070
C65	C	0.632069	0.054444	-0.390319
C66	C	0.586218	0.004872	-0.367315
C67	C	0.563216	-0.019991	-0.392119
C68	C	0.362270	-0.219081	-0.216134
C69	C	0.335542	-0.242085	-0.166558
C70	C	0.358480	-0.217281	-0.141694
C71	C	0.329505	-0.242223	-0.087942
C72	C	0.408143	-0.169473	-0.166398
C73	C	0.434872	-0.146467	-0.215972
C74	C	0.411933	-0.171273	-0.240838
C75	C	0.513517	-0.412027	-0.028902
C76	C	0.489511	-0.460269	-0.029242
C77	C	0.440925	-0.412028	-0.028898
C78	C	0.417029	-0.460271	-0.029238
C79	C	0.440928	-0.484616	-0.028901
C80	C	0.489508	-0.387792	-0.029238
C81	C	0.586081	-0.339274	-0.023012
C82	C	0.631938	-0.316267	-0.019295
C83	C	0.654938	-0.341070	-0.017432
C84	C	0.704657	-0.316127	-0.013400
C85	C	0.632089	-0.388880	-0.019290
C86	C	0.586236	-0.411885	-0.023009
C87	C	0.563232	-0.387082	-0.024867
C88	C	0.435229	-0.563069	-0.023015
C89	C	0.408662	-0.612643	-0.019298
C90	C	0.358994	-0.637507	-0.017431
C91	C	0.330184	-0.691258	-0.013399
C92	C	0.335888	-0.612801	-0.019285
C93	C	0.362454	-0.563229	-0.023004
C94	C	0.412123	-0.538365	-0.024867
C95	C	0.435220	-0.339277	-0.023003
C96	C	0.408646	-0.316273	-0.019276
C97	C	0.358978	-0.341078	-0.017410
C98	C	0.330165	-0.316137	-0.013373
C99	C	0.335875	-0.388886	-0.019265
C100	C	0.362444	-0.411892	-0.022990
C101	C	0.412117	-0.387085	-0.024859
O102	O	0.286933	0.291016	-0.011949
O103	O	0.204848	0.150641	0.011842
O104	O	0.286934	0.232718	-0.070242
O105	O	0.204846	0.208939	0.070135
O106	O	0.353602	0.232716	-0.070238
O107	O	0.271516	0.150639	0.011846
O108	O	0.353601	0.291014	-0.011945
Zn109	Zn	0.323143	0.220826	-0.000049
Zn110	Zn	0.235305	0.220829	-0.000054
O111	O	0.271514	0.208937	0.070139
O112	O	0.837498	0.291002	-0.495832
O113	O	0.720911	0.150628	-0.437542
O114	O	0.720908	0.232707	-0.437536
O115	O	0.837501	0.208922	-0.495838
O116	O	0.720909	0.232709	-0.504208
O117	O	0.720912	0.150629	-0.504214
O118	O	0.837499	0.291004	-0.562504
Zn119	Zn	0.779206	0.220817	-0.543945
Zn120	Zn	0.779204	0.220814	-0.456101
O121	O	0.837502	0.208924	-0.562510
O122	O	0.271499	-0.274996	-0.562510
O123	O	0.353583	-0.216699	-0.504219
O124	O	0.271499	-0.216701	-0.504213
O125	O	0.353584	-0.274994	-0.562515
O126	O	0.204829	-0.283371	-0.437542
O127	O	0.286913	-0.283369	-0.437547
O128	O	0.204829	-0.341666	-0.495839
Zn129	Zn	0.235286	-0.323102	-0.456107
Zn130	Zn	0.323126	-0.235262	-0.543950
O131	O	0.286914	-0.341664	-0.495844
C132	C	0.044913	-0.484622	0.367117
C133	C	0.068919	-0.460277	0.391353
C134	C	0.117502	-0.412033	0.294528
C135	C	0.141398	-0.387798	0.318875
C136	C	0.117501	-0.412034	0.367118
C137	C	0.068920	-0.460276	0.318874
C138	C	-0.027650	-0.563076	0.366926
C139	C	-0.073506	-0.612649	0.389775
C140	C	-0.096504	-0.637513	0.437576
C141	C	-0.146222	-0.691265	0.462352
C142	C	-0.073655	-0.612807	0.462538
C143	C	-0.027803	-0.563235	0.439692
C144	C	-0.004801	-0.538372	0.391885
C145	C	0.123202	-0.412223	0.439871
C146	C	0.149770	-0.389374	0.462878
C147	C	0.199437	-0.341572	0.438075
C148	C	0.228247	-0.316796	0.463017
C149	C	0.222541	-0.316611	0.390264
C150	C	0.195974	-0.339458	0.367259
C151	C	0.146307	-0.387264	0.392063
C152	C	0.123205	-0.412221	0.216073
C153	C	0.149777	-0.389373	0.166497
C154	C	0.199444	-0.341571	0.141635
C155	C	0.228255	-0.316795	0.087883
C156	C	0.222548	-0.316613	0.166340
C157	C	0.195980	-0.339459	0.215914
C158	C	0.146308	-0.387263	0.240779
C159	C	0.117538	-0.073747	-0.367204
C160	C	0.141435	-0.098094	-0.391438
C161	C	0.044944	-0.146333	-0.294613
C162	C	0.068952	-0.170570	-0.318957
C163	C	0.117536	-0.146337	-0.367200
C164	C	0.068953	-0.098090	-0.318960
C165	C	0.123241	0.004709	-0.367018
C166	C	0.149810	0.054282	-0.389869
C167	C	0.199480	0.079143	-0.437671
C168	C	0.228292	0.132895	-0.462450
C169	C	0.222584	0.054435	-0.462631
C170	C	0.196015	0.004864	-0.439782
C171	C	0.146346	-0.019997	-0.391975
C172	C	0.196182	-0.146152	-0.439951
C173	C	0.222906	-0.169003	-0.462956
C174	C	0.199966	-0.216805	-0.438150
C175	C	0.228941	-0.241583	-0.463090
C176	C	0.150296	-0.241763	-0.390340
C177	C	0.123571	-0.218914	-0.367337
C178	C	0.146516	-0.171108	-0.392143
C179	C	-0.027622	-0.146140	-0.216160
C180	C	-0.073477	-0.168985	-0.166583
C181	C	-0.096477	-0.216787	-0.141718
C182	C	-0.146198	-0.241561	-0.087966
C183	C	-0.073627	-0.241747	-0.166421
C184	C	-0.027772	-0.218904	-0.215995
C185	C	-0.004772	-0.171100	-0.240863
C186	C	-0.559087	-0.412008	0.367094
C187	C	-0.582986	-0.460250	0.391332
C188	C	-0.486495	-0.412011	0.294506
C189	C	-0.510504	-0.460253	0.318854
C190	C	-0.559088	-0.484598	0.367097
C191	C	-0.510503	-0.387774	0.318851
C192	C	-0.564788	-0.339255	0.366903
C193	C	-0.591356	-0.316247	0.389752
C194	C	-0.641026	-0.341049	0.437554
C195	C	-0.669837	-0.316106	0.462329
C196	C	-0.664132	-0.388859	0.462516
C197	C	-0.637563	-0.411865	0.439670
C198	C	-0.587894	-0.387063	0.391863
C199	C	-0.637735	-0.563049	0.439851
C200	C	-0.664460	-0.612623	0.462858
C201	C	-0.641521	-0.637487	0.438055
C202	C	-0.670498	-0.691239	0.462998
C203	C	-0.591851	-0.612783	0.390245
C204	C	-0.565125	-0.563211	0.367239
C205	C	-0.588069	-0.538347	0.392042
C206	C	-0.413927	-0.339261	0.216051
C207	C	-0.368073	-0.316259	0.166474
C208	C	-0.345074	-0.341064	0.141612
C209	C	-0.295353	-0.316124	0.087860
C210	C	-0.367925	-0.388872	0.166317
C211	C	-0.413780	-0.411877	0.215892
C212	C	-0.436778	-0.387069	0.240756
C213	C	0.513514	0.249625	-0.367189
C214	C	0.489508	0.249961	-0.391427
C215	C	0.440928	0.249639	-0.294605
C216	C	0.417032	0.249974	-0.318952
C217	C	0.440927	0.249627	-0.367194
C218	C	0.489508	0.249973	-0.318948
C219	C	0.586074	0.243733	-0.366995
C220	C	0.631928	0.240010	-0.389841
C221	C	0.654924	0.238136	-0.437642
C222	C	0.704640	0.234097	-0.462414
C223	C	0.632075	0.239990	-0.462604
C224	C	0.586226	0.243715	-0.439760
C225	C	0.563225	0.245584	-0.391956
C226	C	0.435225	0.243725	-0.439945
C227	C	0.408657	0.240003	-0.462953
C228	C	0.358992	0.238143	-0.438152
C229	C	0.330182	0.234106	-0.463094
C230	C	0.335889	0.240008	-0.390343
C231	C	0.362457	0.243732	-0.367337
C232	C	0.412122	0.245588	-0.392139
C233	C	0.435227	0.243760	-0.216150
C234	C	0.408656	0.240045	-0.166575
C235	C	0.358990	0.238184	-0.141715
C236	C	0.330181	0.234160	-0.087964
C237	C	0.335887	0.240036	-0.166421
C238	C	0.362454	0.243749	-0.215994
C239	C	0.412123	0.245612	-0.240856
O240	O	0.353642	0.290996	-0.562541
O241	O	0.271549	0.150620	-0.504250
O242	O	0.353625	0.232694	-0.504240
O243	O	0.271565	0.208921	-0.562552
O244	O	0.286949	0.232697	-0.437571
O245	O	0.204872	0.150622	-0.437582
O246	O	0.286966	0.290998	-0.495873
Zn247	Zn	0.235333	0.220811	-0.456142
Zn248	Zn	0.323182	0.220807	-0.543981
O249	O	0.204889	0.208924	-0.495884
C250	C	0.117521	0.192028	0.367091
C251	C	0.068941	0.191695	0.391324
C252	C	0.117521	0.192017	0.294502
C253	C	0.068941	0.191683	0.318845
C254	C	0.044935	0.192031	0.367086
C255	C	0.141416	0.191681	0.318849
C256	C	0.196161	0.197916	0.366906
C257	C	0.222885	0.201637	0.389757
C258	C	0.199948	0.203511	0.437557
C259	C	0.228922	0.207547	0.462335
C260	C	0.150282	0.201659	0.462515
C261	C	0.123559	0.197936	0.439666
C262	C	0.146500	0.196067	0.391862
C263	C	-0.027624	0.197935	0.439833
C264	C	-0.073477	0.201659	0.462836
C265	C	-0.096474	0.203521	0.438030
C266	C	-0.146190	0.207561	0.462968
C267	C	-0.073626	0.201656	0.390221
C268	C	-0.027777	0.197931	0.367220
C269	C	-0.004776	0.196072	0.392026
C270	C	0.196160	0.197893	0.216052
C271	C	0.222888	0.201609	0.166476
C272	C	0.199950	0.203471	0.141611
C273	C	0.228924	0.207496	0.087861
C274	C	0.150289	0.201622	0.166313
C275	C	0.123561	0.197908	0.215886
C276	C	0.146499	0.196044	0.240753
H277	H	0.214835	-0.015521	0.024441
H278	H	-0.092379	-0.280672	0.017674
C279	C	-0.002322	-0.093557	-0.243517
C280	C	0.060309	-0.052304	-0.266418
C281	C	0.085612	0.000280	-0.293776
C282	C	0.048285	0.011611	-0.298233
C283	C	-0.014349	-0.029644	-0.275331
C284	C	-0.039653	-0.082228	-0.247973
H285	H	0.087944	-0.060690	-0.263119
H286	H	0.131979	0.030820	-0.310729
H287	H	0.067016	0.050537	-0.318485
H288	H	-0.041985	-0.021258	-0.278630
H289	H	-0.086020	-0.112768	-0.231020
H290	H	-0.008904	0.196415	0.460037
H291	H	0.295109	-0.281013	-0.369513
C292	C	0.516637	-0.071685	-0.444962
C293	C	0.522199	-0.024099	-0.458129
C294	C	0.549339	0.002299	-0.511676
C295	C	0.570919	-0.018888	-0.552057
C296	C	0.565358	-0.066477	-0.538891
C297	C	0.538217	-0.092875	-0.485344
H298	H	0.506224	-0.008412	-0.428235
H299	H	0.553456	0.037527	-0.521422
H300	H	0.591010	0.000653	-0.591696
H301	H	0.581333	-0.082163	-0.568784
H302	H	0.534101	-0.128103	-0.475598
C303	C	0.516644	0.250689	-0.444973
C304	C	0.522186	0.208653	-0.458130
C305	C	0.549319	0.209381	-0.511675
C306	C	0.570910	0.252145	-0.552062
C307	C	0.565369	0.294185	-0.538906
C308	C	0.538236	0.293457	-0.485362
H309	H	0.506202	0.176993	-0.428232
H310	H	0.553420	0.178260	-0.521413
H311	H	0.590996	0.252684	-0.591699
H312	H	0.581353	0.325845	-0.568805
H313	H	0.534134	0.324578	-0.475623
H314	H	0.343629	-0.450820	-0.024499
C315	C	-0.510495	-0.536033	0.314649
C316	C	-0.510968	-0.554116	0.272314
C317	C	-0.456338	-0.526937	0.219722
C318	C	-0.401237	-0.481675	0.209465
C319	C	-0.400762	-0.463590	0.251801
C320	C	-0.455391	-0.490769	0.304393
H321	H	-0.551759	-0.587624	0.279905
H322	H	-0.456690	-0.540325	0.188382
H323	H	-0.360797	-0.461555	0.170533
H324	H	-0.359971	-0.430082	0.244210
H325	H	-0.455040	-0.477381	0.335733
C326	C	0.280917	-0.294674	-0.139387
C327	C	0.225809	-0.304932	-0.094130
C328	C	0.171180	-0.357522	-0.066958
C329	C	0.171659	-0.399855	-0.085042
C330	C	0.226769	-0.389598	-0.130301
C331	C	0.281398	-0.337008	-0.157474
H332	H	0.225452	-0.273594	-0.080741
H333	H	0.130384	-0.365114	-0.033453
H334	H	0.131220	-0.438785	-0.064927
H335	H	0.227126	-0.420937	-0.143690
H336	H	0.322194	-0.329416	-0.190978
C337	C	0.068933	0.195873	0.243059
C338	C	0.013829	0.151033	0.288325
C339	C	-0.040799	0.148998	0.315497
C340	C	-0.040323	0.191803	0.297404
C341	C	0.014784	0.236646	0.252136
C342	C	0.069412	0.238680	0.224964
H343	H	0.013475	0.119343	0.301720
H344	H	-0.081592	0.115802	0.349008
H345	H	-0.080762	0.190296	0.317519
H346	H	0.015138	0.268335	0.238741
H347	H	0.110205	0.271876	0.191453
H348	H	-0.349468	-0.277331	0.146364
H349	H	0.650536	-0.277341	-0.017781
H350	H	0.048852	-0.210211	-0.299410
C351	C	0.124400	0.081461	-0.362418
C352	C	0.117481	0.085795	-0.313723
C353	C	0.092070	0.112976	-0.286275
C354	C	0.073578	0.135824	-0.307522
C355	C	0.080496	0.131491	-0.356219
C356	C	0.105907	0.104309	-0.383667
H357	H	0.131171	0.068881	-0.297993
H358	H	0.086949	0.116184	-0.250226
H359	H	0.054767	0.155945	-0.287203
H360	H	0.066806	0.148405	-0.371950
H361	H	0.111028	0.101102	-0.419716
C362	C	0.657369	0.081797	-0.363032
C363	C	0.720000	0.104698	-0.384407
C364	C	0.745297	0.132048	-0.357118
C365	C	0.707963	0.136496	-0.308454
C366	C	0.645329	0.113595	-0.287077
C367	C	0.620031	0.086245	-0.314366
H368	H	0.747640	0.101406	-0.420433
H369	H	0.791663	0.149001	-0.372943
H370	H	0.726690	0.156742	-0.288254
H371	H	0.617689	0.116887	-0.251051
H372	H	0.573665	0.069292	-0.298540
C373	C	0.337046	0.245766	-0.314745
C374	C	0.372049	0.290604	-0.304480
C375	C	0.346637	0.292629	-0.251883
C376	C	0.286222	0.249816	-0.209551
C377	C	0.251216	0.204974	-0.219815
C378	C	0.276628	0.202949	-0.272411
H379	H	0.416775	0.322300	-0.335817
H380	H	0.372551	0.325825	-0.244285
H381	H	0.267411	0.251315	-0.170616
H382	H	0.206490	0.173278	-0.188477
H383	H	0.250714	0.169753	-0.280009
H384	H	0.180492	-0.348160	0.299327
H385	H	0.650521	0.074397	-0.501861
C386	C	0.125048	0.081810	0.017128
C387	C	0.118172	0.086257	-0.024656
C388	C	0.092939	0.113608	-0.026714
C389	C	0.074583	0.136513	0.013013
C390	C	0.081458	0.132067	0.054800
C391	C	0.106690	0.104716	0.056858
H392	H	0.131761	0.069301	-0.054067
H393	H	0.087850	0.116899	-0.057647
H394	H	0.055904	0.156760	0.011490
H395	H	0.067869	0.149023	0.084211
H396	H	0.111780	0.101425	0.087792
H397	H	0.567625	0.245225	-0.460086
C398	C	0.041791	0.190973	0.444868
C399	C	0.036239	0.233010	0.458004
C400	C	0.009086	0.232292	0.511546
C401	C	-0.012514	0.189537	0.551950
C402	C	-0.006962	0.147498	0.538815
C403	C	0.020190	0.148216	0.485274
H404	H	0.052229	0.264662	0.428094
H405	H	0.004976	0.263412	0.521269
H406	H	-0.032615	0.189006	0.591585
H407	H	-0.022953	0.115845	0.568726
H408	H	0.024300	0.117095	0.475550
H409	H	0.048819	-0.479822	0.430995
C410	C	-0.483354	-0.334223	0.292451
C411	C	-0.421794	-0.293845	0.273670
C412	C	-0.394644	-0.240294	0.247274
C413	C	-0.429054	-0.227121	0.239659
C414	C	-0.490618	-0.267500	0.258441
C415	C	-0.517767	-0.321050	0.284837
H416	H	-0.396318	-0.303596	0.279306
H417	H	-0.349071	-0.210404	0.233370
H418	H	-0.408956	-0.187480	0.220119
H419	H	-0.516093	-0.257749	0.252805
H420	H	-0.563341	-0.350941	0.298741
C421	C	-0.002340	-0.093545	0.024967
C422	C	0.022502	-0.051133	-0.017832
C423	C	0.047803	0.001454	-0.015783
C424	C	0.048263	0.011629	0.029064
C425	C	0.023420	-0.030784	0.071865
C426	C	-0.001881	-0.083371	0.069817
H427	H	0.022163	-0.058665	-0.051033
H428	H	0.066193	0.032851	-0.047468
H429	H	0.066992	0.050557	0.030580
H430	H	0.023760	-0.023252	0.105066
H431	H	-0.020271	-0.114768	0.101501
H432	H	0.343591	-0.239283	-0.236379
H433	H	-0.092076	0.203175	0.501762
H434	H	0.262985	-0.277684	0.370072
H435	H	0.131619	-0.280689	-0.370145
H436	H	0.509580	-0.078539	-0.299382
C437	C	-0.098621	-0.141521	0.017148
C438	C	-0.061166	-0.092828	-0.024633
C439	C	-0.086299	-0.065373	-0.026680
C440	C	-0.148887	-0.086611	0.013054
C441	C	-0.186345	-0.135306	0.054839
C442	C	-0.161213	-0.162761	0.056885
H443	H	-0.014832	-0.077105	-0.054050
H444	H	-0.058570	-0.029326	-0.057611
H445	H	-0.167492	-0.066287	0.011539
H446	H	-0.232680	-0.151030	0.084255
H447	H	-0.188942	-0.198809	0.087817
H448	H	0.509599	-0.348154	-0.029780
C449	C	0.068564	-0.464807	0.467157
C450	C	0.013544	-0.474980	0.476870
C451	C	-0.041093	-0.527566	0.504156
C452	C	-0.040710	-0.569979	0.521729
C453	C	0.014312	-0.559808	0.512017
C454	C	0.068949	-0.507222	0.484731
H455	H	0.013259	-0.443582	0.463861
H456	H	-0.081824	-0.535095	0.511345
H457	H	-0.081155	-0.608906	0.541927
H458	H	0.014597	-0.591206	0.525026
H459	H	0.109679	-0.499692	0.477541
H460	H	-0.572540	-0.277321	0.369424
C461	C	0.041806	-0.224099	0.029868
C462	C	0.036274	-0.237242	-0.012175
C463	C	0.009164	-0.290778	-0.011469
C464	C	-0.012413	-0.331172	0.031281
C465	C	-0.006881	-0.318030	0.073328
C466	C	0.020229	-0.264494	0.072621
H467	H	0.052247	-0.207339	-0.043824
H468	H	0.005069	-0.300506	-0.042595
H469	H	-0.032481	-0.370803	0.031804
H470	H	-0.022854	-0.347933	0.104977
H471	H	0.024324	-0.254766	0.103747
C472	C	0.125035	-0.294332	0.017144
C473	C	0.106671	-0.335588	0.056878
C474	C	0.081432	-0.388175	0.054828
C475	C	0.074558	-0.399506	0.013044
C476	C	0.092922	-0.358249	-0.026693
C477	C	0.118161	-0.305662	-0.024643
H478	H	0.111760	-0.327202	0.087812
H479	H	0.067838	-0.418716	0.084244
H480	H	0.055875	-0.438434	0.011527
H481	H	0.087833	-0.366635	-0.057626
H482	H	0.131755	-0.275121	-0.054059
H483	H	0.083127	-0.239238	-0.328411
C484	C	0.281251	0.237989	-0.139075
C485	C	0.279732	0.277727	-0.116185
C486	C	0.225097	0.275683	-0.088838
C487	C	0.171982	0.233900	-0.084381
C488	C	0.173499	0.194159	-0.107272
C489	C	0.228133	0.196203	-0.134619
H490	H	0.319053	0.308660	-0.119483
H491	H	0.223974	0.305102	-0.071893
H492	H	0.131538	0.232386	-0.064138
H493	H	0.134178	0.163226	-0.103973
H494	H	0.229256	0.166784	-0.151564
C495	C	0.194216	-0.071680	0.029892
C496	C	0.249416	-0.024103	-0.012140
C497	C	0.302222	0.002292	-0.011399
C498	C	0.299829	-0.018890	0.031373
C499	C	0.244626	-0.066469	0.073408
C500	C	0.191820	-0.092864	0.072667
H501	H	0.251189	-0.008421	-0.043806
H502	H	0.343086	0.037513	-0.042516
H503	H	0.338919	0.000649	0.031922
H504	H	0.242853	-0.082151	0.105074
H505	H	0.150956	-0.128085	0.103785
H506	H	-0.092357	-0.280673	-0.146172
H507	H	0.083119	0.196425	0.459990
H508	H	0.377914	-0.210198	-0.299385
C509	C	0.125052	0.203723	0.515098
C510	C	0.064682	0.160932	0.557518
C511	C	0.039449	0.162995	0.610101
C512	C	0.074586	0.207850	0.620264
C513	C	0.134959	0.250645	0.577843
C514	C	0.160192	0.248582	0.525260
H515	H	0.038669	0.127724	0.549996
H516	H	-0.005244	0.131315	0.641504
H517	H	0.055907	0.209377	0.659189
H518	H	0.160973	0.283852	0.585365
H519	H	0.204885	0.280262	0.493857
H520	H	-0.524342	-0.319055	0.327978
H521	H	0.214829	-0.107212	0.024450
H522	H	0.567355	-0.319073	-0.024528
H523	H	-0.490409	-0.479799	0.299306
C524	C	0.489860	-0.311991	-0.025060
C525	C	0.491385	-0.333366	0.014669
C526	C	0.546023	-0.306082	0.012617
C527	C	0.599137	-0.257423	-0.029165
C528	C	0.597614	-0.236045	-0.068897
C529	C	0.542976	-0.263329	-0.066845
H530	H	0.452066	-0.369389	0.045601
H531	H	0.547150	-0.321908	0.042029
H532	H	0.639583	-0.237225	-0.030685
H533	H	0.636933	-0.200022	-0.099829
H534	H	0.541848	-0.247503	-0.096257
H535	H	0.131614	0.203142	0.146063
C536	C	0.068568	-0.464807	0.243423
C537	C	0.015453	-0.476142	0.247877
C538	C	-0.039180	-0.528731	0.275225
C539	C	-0.040698	-0.569983	0.298118
C540	C	0.012420	-0.558648	0.293665
C541	C	0.067053	-0.506060	0.266317
H542	H	0.016575	-0.445604	0.230930
H543	H	-0.078501	-0.537121	0.278522
H544	H	-0.081140	-0.608912	0.318363
H545	H	0.011298	-0.589186	0.310612
H546	H	0.106374	-0.497669	0.263020
H547	H	0.377933	-0.479817	-0.029780
H548	H	-0.092078	-0.148658	-0.146474
C549	C	0.337037	-0.246368	-0.314405
C550	C	0.330167	-0.295024	-0.303077
C551	C	0.304931	-0.322310	-0.250491
C552	C	0.286565	-0.300940	-0.209232
C553	C	0.293435	-0.252281	-0.220559
C554	C	0.318671	-0.224995	-0.273145
H555	H	0.343763	-0.310846	-0.333620
H556	H	0.299845	-0.358331	-0.242106
H557	H	0.267883	-0.321138	-0.170304
H558	H	0.279839	-0.236459	-0.190016
H559	H	0.323757	-0.188974	-0.281529
H560	H	0.180516	0.191143	0.299303
C561	C	0.277227	0.081786	-0.515217
C562	C	0.278760	0.104687	-0.556476
C563	C	0.333402	0.132034	-0.609061
C564	C	0.386511	0.136482	-0.620386
C565	C	0.384980	0.113580	-0.579125
C566	C	0.330338	0.086233	-0.526540
H567	H	0.239445	0.101395	-0.548094
H568	H	0.334535	0.148987	-0.639605
H569	H	0.426960	0.156726	-0.659313
H570	H	0.424296	0.116872	-0.587508
H571	H	0.329205	0.069280	-0.495996
H572	H	0.048839	-0.078529	0.029694
H573	H	0.567616	-0.015243	-0.328388
H574	H	0.427462	-0.277347	-0.017767
H575	H	0.048825	-0.479823	0.299329
C576	C	0.433383	-0.142186	-0.515186
C577	C	0.451741	-0.163558	-0.556446
C578	C	0.476975	-0.136269	-0.609031
C579	C	0.483852	-0.087608	-0.620355
C580	C	0.465495	-0.066234	-0.579094
C581	C	0.440260	-0.093523	-0.526510
H582	H	0.446650	-0.199581	-0.548064
H583	H	0.490564	-0.152092	-0.639574
H584	H	0.502533	-0.067408	-0.659281
H585	H	0.470586	-0.030211	-0.587477
H586	H	0.426671	-0.077700	-0.495966
C587	C	-0.098925	0.203707	0.362933
C588	C	-0.161556	0.163981	0.384309
C589	C	-0.186852	0.166030	0.357019
C590	C	-0.149517	0.207805	0.308352
C591	C	-0.086882	0.247534	0.286974
C592	C	-0.061585	0.245485	0.314264
H593	H	-0.189198	0.133053	0.420337
H594	H	-0.233219	0.136619	0.372845
H595	H	-0.168243	0.209322	0.288151
H596	H	-0.059240	0.278461	0.250946
H597	H	-0.015218	0.274895	0.298438
H598	H	-0.349197	-0.409071	0.146070
C599	C	0.657390	-0.416166	-0.017238
C600	C	0.720021	-0.394794	-0.056968
C601	C	0.745319	-0.422082	-0.054917
C602	C	0.707986	-0.470742	-0.013135
C603	C	0.645352	-0.492117	0.026598
C604	C	0.620054	-0.464829	0.024546
H605	H	0.747660	-0.358770	-0.087900
H606	H	0.791685	-0.406258	-0.084330
H607	H	0.726713	-0.490942	-0.011617
H608	H	0.617712	-0.528140	0.057530
H609	H	0.573687	-0.480652	0.053959
C610	C	0.489502	-0.093878	-0.243149
C611	C	0.542525	-0.082633	-0.247475
C612	C	0.597155	-0.030043	-0.274652
C613	C	0.598763	0.011300	-0.297503
C614	C	0.545739	0.000056	-0.293178
C615	C	0.491109	-0.052534	-0.266001
H616	H	0.541336	-0.113239	-0.230559
H617	H	0.636407	-0.021720	-0.277854
H618	H	0.639204	0.050230	-0.317621
H619	H	0.546928	0.030662	-0.310094
H620	H	0.451857	-0.060857	-0.262799
H621	H	0.475671	0.245279	-0.236392
C622	C	0.516636	0.250703	-0.292530
C623	C	0.522166	0.208662	-0.284904
C624	C	0.549285	0.209388	-0.258481
C625	C	0.570874	0.252154	-0.239684
C626	C	0.565344	0.294199	-0.247310
C627	C	0.538225	0.293473	-0.273732
H628	H	0.506184	0.177001	-0.298819
H629	H	0.553378	0.178263	-0.252837
H630	H	0.590949	0.252691	-0.220125
H631	H	0.581326	0.325860	-0.233395
H632	H	0.534132	0.324597	-0.279377
H633	H	0.082795	-0.015532	-0.328093
C634	C	0.434070	0.238013	-0.139399
C635	C	0.452552	0.277749	-0.116544
C636	C	0.477963	0.275715	-0.089363
C637	C	0.484893	0.233945	-0.085038
C638	C	0.466411	0.194206	-0.107895
C639	C	0.441000	0.196240	-0.135075
H640	H	0.447422	0.308672	-0.119744
H641	H	0.491645	0.305133	-0.072443
H642	H	0.503704	0.232440	-0.064918
H643	H	0.471540	0.163283	-0.104694
H644	H	0.427318	0.166822	-0.151995
C645	C	0.221423	-0.022319	-0.467230
C646	C	0.228350	-0.026645	-0.515929
C647	C	0.253758	-0.053829	-0.543376
C648	C	0.272239	-0.076687	-0.522125
C649	C	0.265313	-0.072361	-0.473423
C650	C	0.239905	-0.045177	-0.445976
H651	H	0.214669	-0.009724	-0.531663
H652	H	0.258885	-0.057032	-0.579428
H653	H	0.291047	-0.096810	-0.542443
H654	H	0.278994	-0.089282	-0.457690
H655	H	0.234778	-0.041975	-0.409924
H656	H	0.263311	-0.148659	0.017698
H657	H	0.475667	0.245239	-0.460144
H658	H	-0.009195	-0.239223	0.024430
H659	H	0.343637	0.245252	-0.236107
H660	H	-0.432385	-0.450805	0.236006
C661	C	0.124362	-0.416835	0.139327
C662	C	0.063944	-0.434450	0.157406
C663	C	0.038532	-0.461916	0.130233
C664	C	0.073538	-0.471769	0.084981
C665	C	0.133960	-0.454154	0.066900
C666	C	0.159372	-0.426687	0.094072
H667	H	0.038027	-0.427157	0.190906
H668	H	-0.006196	-0.474956	0.143618
H669	H	0.054727	-0.492101	0.064866
H670	H	0.159877	-0.461447	0.033399
H671	H	0.204100	-0.413647	0.080687
C672	C	0.657060	0.237970	-0.362386
C673	C	0.619609	0.196198	-0.313687
C674	C	0.644746	0.194161	-0.286234
C675	C	0.707334	0.233897	-0.307479
C676	C	0.744789	0.275672	-0.356180
C677	C	0.719652	0.277709	-0.383633
H678	H	0.573274	0.166780	-0.297958
H679	H	0.617019	0.163236	-0.250182
H680	H	0.725942	0.232389	-0.287156
H681	H	0.791124	0.305090	-0.371909
H682	H	0.747378	0.308634	-0.419685
C683	C	0.433381	-0.142184	-0.139048
C684	C	0.451741	-0.163557	-0.116154
C685	C	0.476977	-0.136270	-0.088803
C686	C	0.483854	-0.087611	-0.084348
C687	C	0.465493	-0.066236	-0.107243
C688	C	0.440257	-0.093522	-0.134593
H689	H	0.446651	-0.199579	-0.119451
H690	H	0.490569	-0.152094	-0.071855
H691	H	0.502535	-0.067412	-0.064102
H692	H	0.470583	-0.030213	-0.103946
H693	H	0.426665	-0.077698	-0.151542
H694	H	0.048852	0.191137	0.299295
H695	H	0.263317	0.074407	0.017690
C696	C	0.561098	-0.464472	-0.025056
C697	C	0.536368	-0.506813	0.017746
C698	C	0.511228	-0.559400	0.015697
C699	C	0.510817	-0.569646	-0.029153
C700	C	0.535547	-0.527303	-0.071958
C701	C	0.560688	-0.474716	-0.069910
H702	H	0.536672	-0.499230	0.050949
H703	H	0.492921	-0.590745	0.047384
H704	H	0.492206	-0.608574	-0.030670
H705	H	0.535244	-0.534886	-0.105162
H706	H	0.578995	-0.443371	-0.101597
H707	H	0.509606	-0.479813	-0.029789
H708	H	-0.009175	0.196412	0.328294
C709	C	-0.662969	-0.535697	0.467138
C710	C	-0.669843	-0.531238	0.515796
C711	C	-0.695081	-0.503888	0.543082
C712	C	-0.713445	-0.480996	0.521711
C713	C	-0.706570	-0.485454	0.473050
C714	C	-0.681333	-0.512804	0.445763
H715	H	-0.656250	-0.548185	0.531619
H716	H	-0.700170	-0.500588	0.579105
H717	H	-0.732127	-0.460749	0.541910
H718	H	-0.720164	-0.468507	0.457227
H719	H	-0.676244	-0.516104	0.409741
C720	C	-0.718775	-0.416144	0.515102
C721	C	-0.720307	-0.394770	0.556360
C722	C	-0.774949	-0.422057	0.608945
C723	C	-0.828058	-0.470718	0.620272
C724	C	-0.826527	-0.492094	0.579012
C725	C	-0.771886	-0.464807	0.526427
H726	H	-0.680991	-0.358747	0.547976
H727	H	-0.776081	-0.406233	0.639488
H728	H	-0.868507	-0.490918	0.659198
H729	H	-0.865844	-0.528118	0.587396
H730	H	-0.770753	-0.480632	0.495884
C731	C	-0.719094	-0.639795	0.515447
C732	C	-0.720707	-0.662644	0.556795
C733	C	-0.775341	-0.689820	0.609383
C734	C	-0.828363	-0.694147	0.620624
C735	C	-0.826752	-0.671297	0.579275
C736	C	-0.772117	-0.644121	0.526686
H737	H	-0.681456	-0.659442	0.548474
H738	H	-0.776534	-0.706735	0.639993
H739	H	-0.868806	-0.714264	0.659554
H740	H	-0.866003	-0.674499	0.587596
H741	H	-0.770925	-0.627205	0.496077
H742	H	-0.656382	-0.450794	0.459992
H743	H	0.475673	-0.542826	-0.024534
H744	H	0.083112	-0.015232	0.024421
H745	H	0.083107	-0.239224	0.024428
C746	C	0.281235	-0.416176	-0.017212
C747	C	0.228122	-0.464836	0.024569
C748	C	0.173485	-0.492123	0.026620
C749	C	0.171961	-0.470750	-0.013111
C750	C	0.225076	-0.422088	-0.054896
C751	C	0.279713	-0.394801	-0.056947
H752	H	0.229249	-0.480659	0.053983
H753	H	0.134166	-0.528146	0.057552
H754	H	0.131516	-0.490950	-0.011594
H755	H	0.223950	-0.406264	-0.084310
H756	H	0.319032	-0.358778	-0.087879
C757	C	0.434078	-0.639816	-0.017258
C758	C	0.399069	-0.685079	0.027586
C759	C	0.424481	-0.712257	0.029626
C760	C	0.484903	-0.694172	-0.013178
C761	C	0.519915	-0.648906	-0.058026
C762	C	0.494503	-0.621728	-0.060065
H763	H	0.354339	-0.698469	0.059275
H764	H	0.398562	-0.745766	0.062825
H765	H	0.503714	-0.714291	-0.011669
H766	H	0.564646	-0.635516	-0.089715
H767	H	0.520422	-0.588220	-0.093264
C768	C	0.281247	-0.640155	-0.017230
C769	C	0.226226	-0.685456	0.027621
C770	C	0.171587	-0.712807	0.029674
C771	C	0.171969	-0.694855	-0.013123
C772	C	0.226992	-0.649552	-0.057978
C773	C	0.281631	-0.622202	-0.060031
H774	H	0.225941	-0.698747	0.059305
H775	H	0.130856	-0.746343	0.062879
H776	H	0.131522	-0.715102	-0.011603
H777	H	0.227277	-0.636261	-0.089662
H778	H	0.322363	-0.588665	-0.093236
C779	C	0.657372	0.237925	-0.515188
C780	C	0.657816	0.193069	-0.525348
C781	C	0.683111	0.191006	-0.577931
C782	C	0.707961	0.233799	-0.620353
C783	C	0.707517	0.278658	-0.610194
C784	C	0.682223	0.280721	-0.557611
H785	H	0.639420	0.161389	-0.493944
H786	H	0.683438	0.157798	-0.585452
H787	H	0.726685	0.232271	-0.659278
H788	H	0.725914	0.310339	-0.641599
H789	H	0.681895	0.313930	-0.550091
C790	C	0.337045	-0.536049	-0.025045
C791	C	0.330122	-0.531727	-0.066820
C792	C	0.304714	-0.504545	-0.068861
C793	C	0.286229	-0.481686	-0.029128
C794	C	0.293152	-0.486008	0.012649
C795	C	0.318560	-0.513190	0.014690
H796	H	0.343806	-0.548649	-0.096235
H797	H	0.299590	-0.501346	-0.099788
H798	H	0.267421	-0.461565	-0.030640
H799	H	0.279468	-0.469086	0.042064
H800	H	0.323684	-0.516389	0.045617
C801	C	0.277509	0.203636	0.139310
C802	C	0.279113	0.163899	0.116457
C803	C	0.333737	0.165928	0.089288
C804	C	0.386758	0.207695	0.084971
C805	C	0.385156	0.247436	0.107824
C806	C	0.330531	0.245406	0.134993
H807	H	0.239862	0.132978	0.119653
H808	H	0.334923	0.136509	0.072371
H809	H	0.427194	0.209197	0.064858
H810	H	0.424406	0.278357	0.104628
H811	H	0.329345	0.274825	0.151910
H812	H	-0.009167	-0.239229	-0.236107
H813	H	-0.573175	-0.633035	0.370052
C814	C	0.434070	0.237951	-0.515539
C815	C	0.440980	0.196167	-0.526774
C816	C	0.466388	0.194115	-0.579360
C817	C	0.484887	0.233846	-0.620712
C818	C	0.477977	0.275632	-0.609478
C819	C	0.452569	0.277685	-0.556892
H820	H	0.427286	0.166754	-0.496162
H821	H	0.471503	0.163181	-0.587676
H822	H	0.503696	0.232326	-0.659640
H823	H	0.491671	0.305046	-0.640090
H824	H	0.447454	0.308618	-0.548576
C825	C	-0.098637	-0.639826	0.362319
C826	C	-0.123353	-0.621740	0.344702
C827	C	-0.148489	-0.648919	0.317249
C828	C	-0.148909	-0.694183	0.307413
C829	C	-0.124192	-0.712271	0.325031
C830	C	-0.099056	-0.685093	0.352484
H831	H	-0.123044	-0.588231	0.351982
H832	H	-0.166787	-0.635529	0.304207
H833	H	-0.167516	-0.714303	0.287091
H834	H	-0.124501	-0.745781	0.317750
H835	H	-0.080758	-0.698483	0.365526
C836	C	-0.098954	-0.640161	0.515123
C837	C	-0.099402	-0.685461	0.525289
C838	C	-0.124698	-0.712812	0.577873
C839	C	-0.149546	-0.694862	0.620292
C840	C	-0.149099	-0.649559	0.610128
C841	C	-0.123803	-0.622208	0.557543
H842	H	-0.081007	-0.698751	0.493887
H843	H	-0.125028	-0.746348	0.585398
H844	H	-0.168272	-0.715108	0.659219
H845	H	-0.167494	-0.636269	0.641530
H846	H	-0.123472	-0.588672	0.550019
C847	C	0.124355	-0.416832	0.515466
C848	C	0.117441	-0.465525	0.526706
C849	C	0.092031	-0.492979	0.579294
C850	C	0.073534	-0.471739	0.620642
C851	C	0.080447	-0.423043	0.609403
C852	C	0.105858	-0.395589	0.556815
H853	H	0.131134	-0.481251	0.496096
H854	H	0.086913	-0.529028	0.587614
H855	H	0.054723	-0.492062	0.659572
H856	H	0.066755	-0.407318	0.640013
H857	H	0.110976	-0.359541	0.548495
H858	H	0.214866	-0.107227	-0.460154
H859	H	0.214838	0.196372	0.236297
H860	H	0.475316	-0.107542	-0.460078
C861	C	0.221379	-0.312009	0.314672
C862	C	0.281796	-0.294397	0.272330
C863	C	0.307199	-0.266950	0.219742
C864	C	0.272185	-0.257113	0.209496
C865	C	0.211765	-0.274725	0.251839
C866	C	0.186362	-0.302173	0.304427
H867	H	0.307718	-0.301679	0.279914
H868	H	0.351926	-0.253912	0.188397
H869	H	0.290990	-0.236795	0.170567
H870	H	0.185843	-0.267444	0.244255
H871	H	0.141635	-0.315210	0.335772
C872	C	0.281252	0.237960	-0.363060
C873	C	0.281640	0.280764	-0.345498
C874	C	0.227004	0.278718	-0.318213
C875	C	0.171980	0.233867	-0.308489
C876	C	0.171590	0.191060	-0.326051
C877	C	0.226226	0.193106	-0.353336
H878	H	0.322374	0.313968	-0.352696
H879	H	0.227293	0.310407	-0.305212
H880	H	0.131536	0.232352	-0.288291
H881	H	0.130856	0.157855	-0.318853
H882	H	0.225937	0.161417	-0.366337
H883	H	-0.009205	-0.543119	0.460019
H884	H	0.567341	-0.015529	-0.460129
C885	C	0.277540	-0.141548	-0.515544
C886	C	0.277077	-0.123931	-0.557882
C887	C	0.331711	-0.096480	-0.610470
C888	C	0.386809	-0.086646	-0.620722
C889	C	0.387275	-0.104263	-0.578383
C890	C	0.332640	-0.131714	-0.525795
H891	H	0.236288	-0.131210	-0.550294
H892	H	0.331367	-0.083438	-0.641812
H893	H	0.427253	-0.066324	-0.659651
H894	H	0.428063	-0.096984	-0.585971
H895	H	0.332985	-0.144756	-0.494453
C896	C	0.221392	0.195853	0.314324
C897	C	0.228258	0.154063	0.303001
C898	C	0.253493	0.152004	0.250417
C899	C	0.271861	0.191735	0.209155
C900	C	0.264996	0.233528	0.220476
C901	C	0.239761	0.235587	0.273060
H902	H	0.214661	0.124649	0.333547
H903	H	0.258575	0.121066	0.242036
H904	H	0.290541	0.190210	0.170228
H905	H	0.278593	0.262941	0.189930
H906	H	0.234679	0.266525	0.281441
C907	C	0.277187	-0.264027	0.138991
C908	C	0.332209	-0.253855	0.093685
C909	C	0.386846	-0.201269	0.066336
C910	C	0.386461	-0.158855	0.084293
C911	C	0.331437	-0.169026	0.129602
C912	C	0.276800	-0.221612	0.156951
H913	H	0.332495	-0.285253	0.080390
H914	H	0.427578	-0.193740	0.032796
H915	H	0.426906	-0.119928	0.064048
H916	H	0.331150	-0.137628	0.142897
H917	H	0.236068	-0.229141	0.190491
C918	C	0.277512	0.203674	0.362306
C919	C	0.277037	0.160865	0.344695
C920	C	0.331664	0.162899	0.317246
C921	C	0.386767	0.207741	0.307408
C922	C	0.387244	0.250553	0.325019
C923	C	0.332617	0.248519	0.352468
H924	H	0.236245	0.127668	0.351977
H925	H	0.331310	0.131207	0.304209
H926	H	0.427205	0.209246	0.287088
H927	H	0.428036	0.283750	0.317736
H928	H	0.332971	0.280211	0.365504
H929	H	-0.008926	-0.542833	0.328001
H930	H	0.214794	-0.319135	0.236028
H931	H	0.180534	-0.078545	-0.431075
H932	H	-0.622080	-0.479793	0.430971
H933	H	0.048864	-0.078540	-0.299417
H934	H	0.567351	0.245258	-0.328072
H935	H	-0.432649	-0.319058	0.236294
H936	H	0.377938	0.250520	-0.299405
