data_functionalizedCrystal
_audit_creation_method	'MofGen! by Chris Wilmer'
_symmetry_space_group_name_H-M	'P1'
_symmetry_Int_Tables_number	1
_symmetry_cell_setting	triclinic
loop_
_symmetry_equiv_pos_as_xyz
  x,y,z
_cell_length_a	18.050589
_cell_length_b	18.215407
_cell_length_c	18.215399
_cell_angle_alpha	89.983140
_cell_angle_beta	90.023603
_cell_angle_gamma	89.975646
loop_
_atom_site_label
_atom_site_type_symbol
_atom_site_fract_x
_atom_site_fract_y
_atom_site_fract_z
Zn1	Zn	-0.295744	-1.125055	0.416080
Zn2	Zn	0.204256	-0.625055	0.916080
Zn3	Zn	-0.419939	-1.124956	0.293023
Zn4	Zn	0.080061	-0.624956	0.793023
Zn5	Zn	-0.295759	-1.001987	0.293033
Zn6	Zn	0.204241	-0.501987	0.793033
Zn7	Zn	-0.419888	-1.001946	0.416054
Zn8	Zn	0.080112	-0.501946	0.916054
O9	O	-0.357832	-1.063486	0.354547
O10	O	0.142168	-0.563486	0.854547
O11	O	-0.312233	-1.228026	0.399762
O12	O	0.187767	-0.728026	0.899762
O13	O	-0.403493	-1.108620	0.190040
O14	O	0.096507	-0.608620	0.690040
O15	O	-0.191832	-1.018371	0.309371
O16	O	0.308168	-0.518371	0.809371
O17	O	-0.403479	-1.227953	0.309353
O18	O	0.096521	-0.727953	0.809353
O19	O	-0.191821	-1.108788	0.399773
O20	O	0.308179	-0.608788	0.899773
O21	O	-0.312259	-1.018275	0.190048
O22	O	0.187741	-0.518275	0.690048
O23	O	-0.312210	-0.898998	0.309346
O24	O	0.187790	-0.398998	0.809346
O25	O	-0.403393	-1.018301	0.519042
O26	O	0.096607	-0.518301	1.019042
O27	O	-0.403407	-0.898967	0.399729
O28	O	0.096593	-0.398967	0.899729
O29	O	-0.312184	-1.108748	0.519061
O30	O	0.187816	-0.608748	1.019061
O31	O	-0.523857	-1.108580	0.309328
O32	O	-0.023857	-0.608580	0.809328
O33	O	-0.523819	-1.018205	0.399718
O34	O	-0.023819	-0.518205	0.899718
C35	C	-0.357805	-0.872280	0.354536
C36	C	0.142195	-0.372280	0.854536
C37	C	-0.357811	-0.790481	0.354549
C38	C	0.142189	-0.290481	0.854549
C39	C	-0.405384	-0.525427	0.401546
C40	C	0.094616	-0.025427	0.901546
C41	C	-0.405380	-0.602286	0.401542
C42	C	0.094620	-0.102286	0.901542
C43	C	-0.310274	-0.602287	0.307563
C44	C	0.189726	-0.102287	0.807563
C45	C	-0.310283	-0.525429	0.307563
C46	C	0.189717	-0.025429	0.807563
C47	C	-0.357837	-0.487001	0.354559
C48	C	0.142163	0.012999	0.854559
C49	C	-0.357823	-0.640717	0.354555
C50	C	0.142177	-0.140717	0.854555
C51	C	-0.357818	-0.724051	0.354551
C52	C	0.142182	-0.224051	0.854551
C53	C	-0.357843	-0.403662	0.354562
C54	C	0.142157	0.096338	0.854562
C55	C	-0.550784	-1.063397	0.354535
C56	C	-0.050784	-0.563397	0.854535
C57	C	-0.633330	-1.063427	0.354555
C58	C	-0.133330	-0.563427	0.854555
C59	C	-0.832788	-1.014329	0.403692
C60	C	-0.332788	-0.514329	0.903692
C61	C	-0.882227	-0.996389	0.336539
C62	C	-0.382227	-0.496389	0.836539
C63	C	-0.784461	-1.063499	0.354564
C64	C	-0.284461	-0.563499	0.854564
C65	C	-0.882103	-1.081475	0.421725
C66	C	-0.382103	-0.581475	0.921725
C67	C	-0.930446	-1.063567	0.354579
C68	C	-0.430446	-0.563567	0.854579
C69	C	-0.832812	-1.045524	0.287375
C70	C	-0.332812	-0.545524	0.787375
C71	C	-0.832684	-1.130641	0.372607
C72	C	-0.332684	-0.630641	0.872607
C73	C	-0.882101	-1.112726	0.305408
C74	C	-0.382101	-0.612726	0.805408
C75	C	-0.700362	-1.063458	0.354556
C76	C	-0.200362	-0.563458	0.854556
C77	C	-1.014542	-1.063609	0.354580
C78	C	-0.514542	-0.563609	0.854580
C79	C	-0.164127	-1.063595	0.354576
C80	C	0.335873	-0.563595	0.854576
C81	C	-0.081581	-1.063642	0.354588
C82	C	0.418419	-0.563642	0.854588
C83	C	-0.357781	-1.063531	0.546500
C84	C	0.142219	-0.563531	1.046500
C85	C	-0.357759	-1.063550	0.628299
C86	C	0.142241	-0.563550	1.128299
C87	C	-0.357854	-0.255439	0.354559
C88	C	0.142146	0.244561	0.854559
C89	C	-0.357849	-0.337238	0.354565
C90	C	0.142151	0.162762	0.854565
C91	C	-0.357830	-1.063484	0.163341
C92	C	0.142170	-0.563484	0.663341
C93	C	-0.357642	-1.063607	0.081543
C94	C	0.142358	-0.563607	0.581543
C95	C	-0.310223	-1.110663	0.816504
C96	C	0.189777	-0.610663	1.316504
C97	C	-0.310201	-1.110672	0.893363
C98	C	0.189799	-0.610672	1.393363
C99	C	-0.405181	-1.016489	0.893332
C100	C	0.094819	-0.516489	1.393332
C101	C	-0.405198	-1.016477	0.816475
C102	C	0.094802	-0.516477	1.316475
C103	C	-0.357720	-1.063568	0.778063
C104	C	0.142280	-0.563568	1.278063
C105	C	-0.357681	-1.063589	0.931779
C106	C	0.142319	-0.563589	1.431779
C107	C	-0.357658	-1.063598	1.015113
C108	C	0.142342	-0.563598	1.515113
C109	C	-0.357742	-1.063558	0.694724
C110	C	0.142258	-0.563558	1.194724
H111	H	-0.444106	-0.494141	0.439812
H112	H	0.055894	0.005859	0.939812
H113	H	-0.443876	-0.978122	0.785175
H114	H	0.056124	-0.478122	1.285175
H115	H	-0.444098	-0.633568	0.439802
H116	H	0.055902	-0.133568	0.939802
H117	H	-0.811134	-0.972687	0.445179
H118	H	-0.311134	-0.472687	0.945179
H119	H	-0.271556	-0.633584	0.269302
H120	H	0.228444	-0.133584	0.769302
H121	H	-0.271563	-0.494142	0.269298
H122	H	0.228437	0.005858	0.769298
H123	H	-0.443838	-0.978151	0.924617
H124	H	0.056162	-0.478151	1.424617
H125	H	-0.810909	-1.187375	0.387887
H126	H	-0.310909	-0.687375	0.887887
H127	H	-0.904004	-0.939642	0.321291
H128	H	-0.404004	-0.439642	0.821291
H129	H	-0.811250	-1.030281	0.230569
H130	H	-0.311250	-0.530281	0.730569
H131	H	-0.903618	-1.154337	0.263821
H132	H	-0.403618	-0.654337	0.763821
H133	H	-0.903755	-1.096652	0.478516
H134	H	-0.403755	-0.596652	0.978516
H135	H	-0.271561	-1.149006	0.785232
H136	H	0.228439	-0.649006	1.285232
H137	H	-0.271523	-1.149020	0.924659
H138	H	0.228477	-0.649020	1.424659
