data_functionalizedCrystal
_audit_creation_method	'MofGen! by Chris Wilmer'
_symmetry_space_group_name_H-M	'P1'
_symmetry_Int_Tables_number	1
_symmetry_cell_setting	triclinic
loop_
_symmetry_equiv_pos_as_xyz
  x,y,z
_cell_length_a	13.033808
_cell_length_b	13.032721
_cell_length_c	10.686551
_cell_angle_alpha	93.335252
_cell_angle_beta	93.339964
_cell_angle_gamma	103.361820
loop_
_atom_site_label
_atom_site_type_symbol
_atom_site_fract_x
_atom_site_fract_y
_atom_site_fract_z
Zn1	Zn	1.606156	-0.180236	-0.495142
Zn2	Zn	1.570626	-0.370746	-0.318779
Zn3	Zn	1.415683	-0.215724	-0.318763
Zn4	Zn	1.410319	-0.376033	-0.555087
O5	O	1.500696	-0.285685	-0.421943
O6	O	1.748246	-0.188442	-0.446667
O7	O	1.537447	-0.362821	-0.146066
O8	O	1.458065	-0.064198	-0.317066
O9	O	1.722141	-0.328409	-0.317094
O10	O	1.598004	-0.038125	-0.446651
O11	O	1.423612	-0.248927	-0.146054
O12	O	1.268169	-0.254055	-0.375192
O13	O	1.448922	-0.337421	-0.719846
O14	O	1.264228	-0.371833	-0.548818
O15	O	1.592803	-0.193569	-0.675805
O16	O	1.532246	-0.518266	-0.375220
O17	O	1.414470	-0.522150	-0.548834
C18	C	1.228135	-0.317369	-0.468509
C19	C	1.111531	-0.330947	-0.488463
C20	C	0.940972	-0.292647	-0.432178
C21	C	1.061487	-0.278615	-0.411550
C22	C	1.468951	-0.558271	-0.468556
C23	C	1.455469	-0.674871	-0.488521
C24	C	1.507792	-0.724887	-0.411568
C25	C	1.493859	-0.845399	-0.432202
C26	C	1.774322	-0.253877	-0.375196
C27	C	1.890925	-0.240323	-0.355275
C28	C	1.524228	-0.262126	-0.743860
C29	C	1.534256	-0.252087	-0.881042
C30	C	1.532596	-0.012028	-0.375170
C31	C	1.546190	0.104588	-0.355239
C32	C	1.477325	-0.309069	-0.101255
C33	C	1.467535	-0.318789	0.036011
H34	H	1.107857	-0.223430	-0.330429
C35	C	1.419400	-0.908071	-0.541851
N36	N	1.363316	-0.955278	-0.624434
H37	H	1.400363	-0.721267	-0.569684
H38	H	1.402744	-0.383578	-0.930055
C39	C	0.953571	-0.165764	-0.245698
N40	N	1.000755	-0.109602	-0.163164
H41	H	0.894596	-0.347837	-0.513285
C42	C	1.048892	-0.405506	-0.598051
N43	N	1.001712	-0.461661	-0.680593
H44	H	1.601309	-0.849019	-0.274079
C45	C	1.621795	-0.164555	-0.926886
N46	N	1.687726	-0.098625	-0.961418
C47	C	1.582246	-0.662212	-0.301923
N48	N	1.638324	-0.615006	-0.219335
