data_functionalizedCrystal
_audit_creation_method	'MofGen! by Chris Wilmer'
_symmetry_space_group_name_H-M	'P1'
_symmetry_Int_Tables_number	1
_symmetry_cell_setting	triclinic
loop_
_symmetry_equiv_pos_as_xyz
  x,y,z
_cell_length_a	14.519709
_cell_length_b	13.448316
_cell_length_c	14.971494
_cell_angle_alpha	89.999494
_cell_angle_beta	83.648851
_cell_angle_gamma	89.997103
loop_
_atom_site_label
_atom_site_type_symbol
_atom_site_fract_x
_atom_site_fract_y
_atom_site_fract_z
O1	O	1.223807	-0.082558	0.117246
O2	O	1.557140	0.250775	0.450580
O3	O	1.890474	0.584108	0.783913
O4	O	0.955322	-0.082588	0.131054
O5	O	1.288655	0.250745	0.464387
O6	O	1.621989	0.584078	0.797721
O7	O	1.096757	-0.082570	-0.006045
O8	O	1.430090	0.250763	0.327288
O9	O	1.763423	0.584096	0.660621
O10	O	1.082372	-0.082576	0.254346
O11	O	1.415706	0.250757	0.587679
O12	O	1.749039	0.584090	0.921012
O13	O	1.096733	0.082813	-0.006042
O14	O	1.430066	0.416147	0.327292
O15	O	1.763399	0.749480	0.660625
O16	O	0.955298	0.082795	0.131058
O17	O	1.288632	0.416129	0.464391
O18	O	1.621965	0.749462	0.797724
O19	O	1.223783	0.082825	0.117250
O20	O	1.557116	0.416159	0.450583
O21	O	1.890450	0.749492	0.783917
Cu22	Cu	1.089538	0.097911	0.124154
Cu23	Cu	1.422872	0.431245	0.457487
Cu24	Cu	1.756205	0.764578	0.790821
Cu25	Cu	1.089567	-0.097674	0.124150
Cu26	Cu	1.422900	0.235659	0.457483
Cu27	Cu	1.756233	0.568992	0.790817
O28	O	1.082349	0.082807	0.254349
O29	O	1.415682	0.416141	0.587683
O30	O	1.749015	0.749474	0.921016
C31	C	0.920951	0.000100	0.130412
C32	C	1.254284	0.333433	0.463746
C33	C	1.587617	0.666766	0.797079
C34	C	0.818571	0.000088	0.128484
C35	C	1.151904	0.333421	0.461817
C36	C	1.485237	0.666755	0.795151
C37	C	1.096100	0.000120	-0.039368
C38	C	1.429433	0.333453	0.293965
C39	C	1.762767	0.666787	0.627298
C40	C	1.094168	0.000115	-0.138666
C41	C	1.427501	0.333448	0.194667
C42	C	1.760835	0.666782	0.528000
N43	N	1.089525	0.235476	0.124156
N44	N	1.422859	0.568809	0.457490
N45	N	1.756192	0.902142	0.790823
C46	C	0.443679	0.000134	0.121385
C47	C	0.777012	0.333467	0.454718
C48	C	1.110346	0.666800	0.788052
C49	C	0.547986	0.000121	0.123356
C50	C	0.881319	0.333454	0.456690
C51	C	1.214652	0.666787	0.790023
C52	C	0.631121	0.000110	0.124934
C53	C	0.964455	0.333443	0.458268
C54	C	1.297788	0.666777	0.791601
C55	C	0.735435	0.000099	0.126906
C56	C	1.068768	0.333432	0.460240
C57	C	1.402102	0.666765	0.793573
C58	C	1.258154	0.000135	0.117892
C59	C	1.591488	0.333468	0.451225
C60	C	1.924821	0.666802	0.784558
C61	C	1.360534	0.000140	0.119820
C62	C	1.693868	0.333473	0.453153
C63	C	2.027201	0.666807	0.786487
N64	N	1.089587	-0.235239	0.124140
N65	N	1.422920	0.098095	0.457474
N66	N	1.756254	0.431428	0.790807
C67	C	1.152223	0.712702	0.063458
C68	C	1.485557	1.046035	0.396791
C69	C	1.818890	1.379369	0.730124
C70	C	1.152216	0.608599	0.063464
C71	C	1.485549	0.941932	0.396797
C72	C	1.818882	1.275265	0.730130
C73	C	1.089567	0.556557	0.124149
C74	C	1.422900	0.889890	0.457482
C75	C	1.756233	1.223223	0.790816
C76	C	1.026927	0.608624	0.184838
C77	C	1.360261	0.941957	0.518172
C78	C	1.693594	1.275290	0.851505
C79	C	1.026940	0.712725	0.184836
C80	C	1.360274	1.046058	0.518169
C81	C	1.693607	1.379392	0.851502
C82	C	1.026903	0.391644	0.184838
C83	C	1.360237	0.724977	0.518171
C84	C	1.693570	1.058310	0.851504
C85	C	1.026889	0.287535	0.184839
C86	C	1.360222	0.620868	0.518173
C87	C	1.693556	0.954202	0.851506
C88	C	1.152179	0.287517	0.063466
C89	C	1.485512	0.620851	0.396799
C90	C	1.818846	0.954184	0.730132
C91	C	1.152192	0.391619	0.063463
C92	C	1.485525	0.724952	0.396796
C93	C	1.818858	1.058285	0.730130
C94	C	1.089551	0.443678	0.124152
C95	C	1.422884	0.777012	0.457485
C96	C	1.756218	1.110345	0.790818
C97	C	1.093276	-0.090037	-0.185313
C98	C	1.426609	0.243296	0.148020
C99	C	1.759942	0.576630	0.481353
C100	C	1.091454	-0.090038	-0.278613
C101	C	1.424788	0.243295	0.054720
C102	C	1.758121	0.576628	0.388053
C103	C	1.090532	0.000113	-0.325265
C104	C	1.423866	0.333447	0.008068
C105	C	1.757199	0.666780	0.341401
C106	C	1.091422	0.090272	-0.278611
C107	C	1.424756	0.423606	0.054722
C108	C	1.758089	0.756939	0.388055
C109	C	1.093237	0.090273	-0.185312
C110	C	1.426570	0.423606	0.148021
C111	C	1.759903	0.756939	0.481354
C112	C	1.087642	0.090265	-0.473077
C113	C	1.420976	0.423598	-0.139743
C114	C	1.754309	0.756932	0.193590
C115	C	1.085830	0.090265	-0.566383
C116	C	1.419163	0.423598	-0.233049
C117	C	1.752496	0.756932	0.100284
C118	C	1.085860	-0.090046	-0.566378
C119	C	1.419193	0.243288	-0.233045
C120	C	1.752527	0.576621	0.100289
C121	C	1.087675	-0.090045	-0.473079
C122	C	1.421008	0.243288	-0.139745
C123	C	1.754341	0.576621	0.193588
C124	C	1.088566	0.000114	-0.426431
C125	C	1.421899	0.333447	-0.093098
C126	C	1.755233	0.666781	0.240235
C127	C	1.083005	0.000115	0.287672
C128	C	1.416338	0.333448	0.621006
C129	C	1.749672	0.666782	0.954339
C130	C	1.084937	0.000113	0.386970
C131	C	1.418270	0.333446	0.720304
C132	C	1.751604	0.666780	1.053637
H133	H	1.203235	0.755068	0.014037
H134	H	1.536569	1.088401	0.347370
H135	H	1.869902	1.421734	0.680704
H136	H	0.975920	0.566245	0.234254
H137	H	1.309254	0.899579	0.567587
H138	H	1.642587	1.232912	0.900921
H139	H	1.090732	-0.163449	-0.316590
H140	H	1.424065	0.169884	0.016743
H141	H	1.757398	0.503218	0.350077
H142	H	1.085071	0.163674	-0.604363
H143	H	1.418404	0.497008	-0.271030
H144	H	1.751738	0.830341	0.062303
H145	H	1.094031	-0.163449	-0.147337
H146	H	1.427365	0.169884	0.185997
H147	H	1.760698	0.503218	0.519330
H148	H	1.088432	-0.163455	-0.435098
H149	H	1.421766	0.169879	-0.101765
H150	H	1.755099	0.503212	0.231569
H151	H	0.975875	0.245168	0.234256
H152	H	1.309208	0.578501	0.567590
H153	H	1.642541	0.911834	0.900923
C154	C	0.958033	0.769990	0.251590
C155	C	1.291367	1.103323	0.584923
C156	C	1.624700	1.436657	0.918256
N157	N	0.906132	0.813121	0.301872
N158	N	1.239465	1.146454	0.635205
N159	N	1.572799	1.479787	0.968539
H160	H	1.085132	-0.163457	-0.604362
H161	H	1.418466	0.169877	-0.271029
H162	H	1.751799	0.503210	0.062304
C163	C	1.088627	0.189446	-0.421767
C164	C	1.421960	0.522779	-0.088434
C165	C	1.755293	0.856112	0.244899
N166	N	1.089374	0.264147	-0.383122
N167	N	1.422708	0.597480	-0.049788
N168	N	1.756041	0.930814	0.283545
H169	H	0.975898	0.434027	0.234260
H170	H	1.309231	0.767360	0.567593
H171	H	1.642564	1.100694	0.900926
C172	C	1.094221	0.189447	-0.134001
C173	C	1.427554	0.522780	0.199332
C174	C	1.760888	0.856113	0.532665
N175	N	1.094960	0.264148	-0.095355
N176	N	1.428294	0.597481	0.237979
N177	N	1.761627	0.930815	0.571312
H178	H	1.203219	0.566212	0.014052
H179	H	1.536553	0.899546	0.347385
H180	H	1.869886	1.232879	0.680719
H181	H	1.203201	0.433991	0.014045
H182	H	1.536534	0.767324	0.347378
H183	H	1.869867	1.100658	0.680711
C184	C	1.221097	0.230250	-0.003280
C185	C	1.554431	0.563583	0.330054
C186	C	1.887764	0.896916	0.663387
N187	N	1.273006	0.187111	-0.053549
N188	N	1.606340	0.520445	0.279785
N189	N	1.939673	0.853778	0.613118
H190	H	1.090666	0.163675	-0.316602
H191	H	1.423999	0.497009	0.016731
H192	H	1.757332	0.830342	0.350064
