data_functionalizedCrystal
_audit_creation_method	'MofGen! by Chris Wilmer'
_symmetry_space_group_name_H-M	'P1'
_symmetry_Int_Tables_number	1
_symmetry_cell_setting	triclinic
loop_
_symmetry_equiv_pos_as_xyz
  x,y,z
_cell_length_a	18.215407
_cell_length_b	13.032721
_cell_length_c	18.215399
_cell_angle_alpha	97.154738
_cell_angle_beta	89.980167
_cell_angle_gamma	97.205008
loop_
_atom_site_label
_atom_site_type_symbol
_atom_site_fract_x
_atom_site_fract_y
_atom_site_fract_z
Zn1	Zn	1.087881	-0.416041	-0.453320
Zn2	Zn	1.337881	-0.166041	-0.203320
Zn3	Zn	1.587881	0.083959	0.046680
Zn4	Zn	1.837881	0.333959	0.296680
Zn5	Zn	1.072167	-0.590804	-0.345882
Zn6	Zn	1.322167	-0.340804	-0.095882
Zn7	Zn	1.572167	-0.090804	0.154118
Zn8	Zn	1.822167	0.159196	0.404118
Zn9	Zn	0.964810	-0.416075	-0.330271
Zn10	Zn	1.214810	-0.166075	-0.080271
Zn11	Zn	1.464810	0.083925	0.169729
Zn12	Zn	1.714810	0.333925	0.419729
Zn13	Zn	0.949162	-0.590746	-0.468902
Zn14	Zn	1.199162	-0.340746	-0.218902
Zn15	Zn	1.449162	-0.090746	0.031098
Zn16	Zn	1.699162	0.159254	0.281098
O17	O	1.018505	-0.503417	-0.399594
O18	O	1.268505	-0.253417	-0.149594
O19	O	1.518505	-0.003417	0.100406
O20	O	1.768505	0.246583	0.350406
O21	O	1.188780	-0.439234	-0.439081
O22	O	1.438780	-0.189234	-0.189081
O23	O	1.688780	0.060766	0.060919
O24	O	1.938780	0.310766	0.310919
O25	O	1.057898	-0.567665	-0.240831
O26	O	1.307898	-0.317665	0.009169
O27	O	1.557898	-0.067665	0.259169
O28	O	1.807898	0.182335	0.509169
O29	O	0.994261	-0.269831	-0.333539
O30	O	1.244261	-0.019831	-0.083539
O31	O	1.494261	0.230169	0.166461
O32	O	1.744261	0.480169	0.416461
O33	O	1.177235	-0.567632	-0.360147
O34	O	1.427235	-0.317632	-0.110147
O35	O	1.677235	-0.067632	0.139853
O36	O	1.927235	0.182368	0.389853
O37	O	1.084681	-0.269806	-0.423943
O38	O	1.334681	-0.019806	-0.173943
O39	O	1.584681	0.230194	0.076057
O40	O	1.834681	0.480194	0.326057
O41	O	0.979024	-0.439292	-0.229361
O42	O	1.229024	-0.189292	0.020639
O43	O	1.479024	0.060708	0.270639
O44	O	1.729024	0.310708	0.520639
O45	O	0.859751	-0.439236	-0.348648
O46	O	1.109751	-0.189236	-0.098648
O47	O	1.359751	0.060764	0.151352
O48	O	1.609751	0.310764	0.401352
O49	O	0.967591	-0.567533	-0.569816
O50	O	1.217591	-0.317533	-0.319816
O51	O	1.467591	-0.067533	-0.069816
O52	O	1.717591	0.182467	0.180184
O53	O	0.848254	-0.567566	-0.450500
O54	O	1.098254	-0.317566	-0.200500
O55	O	1.348254	-0.067566	0.049500
O56	O	1.598254	0.182434	0.299500
O57	O	1.069507	-0.439177	-0.558368
O58	O	1.319507	-0.189177	-0.308368
O59	O	1.569507	0.060823	-0.058368
O60	O	1.819507	0.310823	0.191632
O61	O	1.042724	-0.737036	-0.375256
O62	O	1.292724	-0.487036	-0.125256
O63	O	1.542724	-0.237036	0.124744
O64	O	1.792724	0.012964	0.374744
O65	O	0.952353	-0.736993	-0.465638
O66	O	1.202353	-0.486993	-0.215638
O67	O	1.452353	-0.236993	0.034362
O68	O	1.702353	0.013007	0.284362
C69	C	0.827300	-0.503399	-0.399571
C70	C	1.077300	-0.253399	-0.149571
C71	C	1.327300	-0.003399	0.100429
C72	C	1.577300	0.246601	0.350429
C73	C	0.745500	-0.503416	-0.399581
C74	C	0.995500	-0.253416	-0.149581
C75	C	1.245500	-0.003416	0.100419
C76	C	1.495500	0.246584	0.350419
C77	C	0.551329	-0.570343	-0.452566
C78	C	0.801329	-0.320343	-0.202566
C79	C	1.051329	-0.070343	0.047434
C80	C	1.301329	0.179657	0.297434
C81	C	0.474470	-0.570346	-0.452575
C82	C	0.724470	-0.320346	-0.202575
C83	C	0.974470	-0.070346	0.047425
C84	C	1.224470	0.179654	0.297425
C85	C	0.486431	-0.436510	-0.346640
C86	C	0.736431	-0.186510	-0.096640
C87	C	0.986431	0.063490	0.153360
C88	C	1.236431	0.313490	0.403360
C89	C	0.563289	-0.436502	-0.346634
C90	C	0.813289	-0.186502	-0.096634
C91	C	1.063289	0.063498	0.153366
C92	C	1.313289	0.313498	0.403366
C93	C	0.595736	-0.503424	-0.399597
C94	C	0.845736	-0.253424	-0.149597
C95	C	1.095736	-0.003424	0.100403
C96	C	1.345736	0.246576	0.350403
C97	C	0.442019	-0.503435	-0.399612
C98	C	0.692019	-0.253435	-0.149612
C99	C	0.942019	-0.003435	0.100388
C100	C	1.192019	0.246565	0.350388
C101	C	0.358685	-0.503438	-0.399621
C102	C	0.608685	-0.253438	-0.149621
C103	C	0.858685	-0.003438	0.100379
C104	C	1.108685	0.246562	0.350379
C105	C	0.679075	-0.503420	-0.399588
C106	C	0.929075	-0.253420	-0.149588
C107	C	1.179075	-0.003420	0.100412
C108	C	1.429075	0.246580	0.350412
C109	C	0.994156	-0.774933	-0.423847
C110	C	1.244156	-0.524933	-0.173847
C111	C	1.494156	-0.274933	0.076153
C112	C	1.744156	-0.024933	0.326153
C113	C	0.983806	-0.891089	-0.434248
C114	C	1.233806	-0.641089	-0.184248
C115	C	1.483806	-0.391089	0.065752
C116	C	1.733806	-0.141089	0.315752
C117	C	1.023945	-0.942861	-0.394199
C118	C	1.273945	-0.692861	-0.144199
C119	C	1.523945	-0.442861	0.105801
C120	C	1.773945	-0.192861	0.355801
C121	C	1.013250	-1.062914	-0.404947
C122	C	1.263250	-0.812914	-0.154947
C123	C	1.513250	-0.562914	0.095053
C124	C	1.763250	-0.312914	0.345053
C125	C	1.210456	-0.503435	-0.399617
C126	C	1.460456	-0.253435	-0.149617
C127	C	1.710456	-0.003435	0.100383
C128	C	1.960456	0.246565	0.350383
C129	C	1.292254	-0.503443	-0.399627
C130	C	1.542254	-0.253443	-0.149627
C131	C	1.792254	-0.003443	0.100373
C132	C	2.042254	0.246557	0.350373
C133	C	1.018556	-0.503345	-0.591540
C134	C	1.268556	-0.253345	-0.341540
C135	C	1.518556	-0.003345	-0.091540
C136	C	1.768556	0.246655	0.158460
C137	C	1.018578	-0.503314	-0.673337
C138	C	1.268578	-0.253314	-0.423337
C139	C	1.518578	-0.003314	-0.173337
C140	C	1.768578	0.246686	0.076663
C141	C	1.042969	-0.230840	-0.375262
C142	C	1.292969	0.019160	-0.125262
C143	C	1.542969	0.269160	0.124738
C144	C	1.792969	0.519160	0.374738
C145	C	1.053395	-0.114684	-0.364893
C146	C	1.303395	0.135316	-0.114893
C147	C	1.553395	0.385316	0.135107
C148	C	1.803395	0.635316	0.385107
C149	C	1.071668	-0.436417	-0.855565
C150	C	1.321668	-0.186417	-0.605565
C151	C	1.571668	0.063583	-0.355565
C152	C	1.821668	0.313583	-0.105565
C153	C	1.071680	-0.436386	-0.932421
C154	C	1.321680	-0.186386	-0.682421
C155	C	1.571680	0.063614	-0.432421
C156	C	1.821680	0.313614	-0.182421
C157	C	0.965554	-0.570049	-0.944331
C158	C	1.215554	-0.320049	-0.694331
C159	C	1.465554	-0.070049	-0.444331
C160	C	1.715554	0.179951	-0.194331
C161	C	0.965540	-0.570074	-0.867476
C162	C	1.215540	-0.320074	-0.617476
C163	C	1.465540	-0.070074	-0.367476
C164	C	1.715540	0.179926	-0.117476
C165	C	1.018601	-0.503259	-0.823095
C166	C	1.268601	-0.253259	-0.573095
C167	C	1.518601	-0.003259	-0.323095
C168	C	1.768601	0.246741	-0.073095
C169	C	1.018627	-0.503204	-0.976807
C170	C	1.268627	-0.253204	-0.726807
C171	C	1.518627	-0.003204	-0.476807
C172	C	1.768627	0.246796	-0.226807
C173	C	1.018639	-0.503172	-1.060137
C174	C	1.268639	-0.253172	-0.810137
C175	C	1.518639	-0.003172	-0.560137
C176	C	1.768639	0.246828	-0.310137
C177	C	1.018589	-0.503290	-0.739759
C178	C	1.268589	-0.253290	-0.489759
C179	C	1.518589	-0.003290	-0.239759
C180	C	1.768589	0.246710	0.010241
C181	C	1.018503	-0.503413	-0.208387
C182	C	1.268503	-0.253413	0.041613
C183	C	1.518503	-0.003413	0.291613
C184	C	1.768503	0.246587	0.541613
C185	C	1.018650	-0.503149	-0.126565
C186	C	1.268650	-0.253149	0.123435
C187	C	1.518650	-0.003149	0.373435
C188	C	1.768650	0.246851	0.623435
H189	H	0.460003	-0.382025	-0.303519
H190	H	0.710003	-0.132025	-0.053519
H191	H	0.960003	0.117975	0.196481
H192	H	1.210003	0.367975	0.446481
H193	H	0.438318	-0.624836	-0.495709
H194	H	0.688318	-0.374836	-0.245709
H195	H	0.938318	-0.124836	0.004291
H196	H	1.188318	0.125164	0.254291
F197	F	0.585859	-0.641565	-0.508935
F198	F	0.835859	-0.391565	-0.258935
F199	F	1.085859	-0.141565	-0.008935
F200	F	1.335859	0.108435	0.241065
H201	H	0.599447	-0.382002	-0.303500
H202	H	0.849447	-0.132002	-0.053500
H203	H	1.099447	0.117998	0.196500
H204	H	1.349447	0.367998	0.446500
F205	F	0.957982	-1.121141	-0.460172
F206	F	1.207982	-0.871141	-0.210172
F207	F	1.457982	-0.621141	0.039828
F208	F	1.707982	-0.371141	0.289828
H209	H	1.114891	-0.381955	-0.958854
H210	H	1.364891	-0.131955	-0.708854
H211	H	1.614891	0.118045	-0.458854
H212	H	1.864891	0.368045	-0.208854
F213	F	0.909088	-0.641158	-0.991571
F214	F	1.159088	-0.391158	-0.741571
F215	F	1.409088	-0.141158	-0.491571
F216	F	1.659088	0.108842	-0.241571
F217	F	0.928542	-0.949319	-0.489470
F218	F	1.178542	-0.699319	-0.239470
F219	F	1.428542	-0.449319	0.010530
F220	F	1.678542	-0.199319	0.260530
H221	H	1.114872	-0.382009	-0.819432
H222	H	1.364872	-0.132009	-0.569432
H223	H	1.614872	0.117991	-0.319432
H224	H	1.864872	0.367991	-0.069432
H225	H	1.066232	-0.898309	-0.351957
H226	H	1.316232	-0.648309	-0.101957
H227	H	1.566232	-0.398309	0.148043
H228	H	1.816232	-0.148309	0.398043
F229	F	1.108670	-1.056460	-0.309674
F230	F	1.358670	-0.806460	-0.059674
F231	F	1.608670	-0.556460	0.190326
F232	F	1.858670	-0.306460	0.440326
H233	H	0.922321	-0.624504	-0.841039
H234	H	1.172321	-0.374504	-0.591039
H235	H	1.422321	-0.124504	-0.341039
H236	H	1.672321	0.125496	-0.091039
