data_functionalizedCrystal
_audit_creation_method	'MofGen! by Chris Wilmer'
_symmetry_space_group_name_H-M	'P1'
_symmetry_Int_Tables_number	1
_symmetry_cell_setting	triclinic
loop_
_symmetry_equiv_pos_as_xyz
  x,y,z
_cell_length_a	17.640112
_cell_length_b	12.594516
_cell_length_c	17.640968
_cell_angle_alpha	78.772174
_cell_angle_beta	92.139080
_cell_angle_gamma	101.240082
loop_
_atom_site_label
_atom_site_type_symbol
_atom_site_fract_x
_atom_site_fract_y
_atom_site_fract_z
Zn1	Zn	1.247781	-0.030581	-0.195081
Zn2	Zn	1.222032	-0.250168	-0.068109
Zn3	Zn	1.095120	-0.099815	-0.093731
Zn4	Zn	1.120772	-0.236158	-0.220690
O5	O	1.171426	-0.154181	-0.144403
O6	O	1.350633	-0.036598	-0.156798
O7	O	1.183686	-0.265062	0.034764
O8	O	1.115411	0.058327	-0.107180
O9	O	1.331715	-0.197928	-0.063512
O10	O	1.227571	0.109193	-0.181642
O11	O	1.090444	-0.154598	0.015940
O12	O	0.992255	-0.141013	-0.132012
O13	O	1.159131	-0.174050	-0.323565
O14	O	1.011102	-0.241184	-0.225289
O15	O	1.252445	-0.023013	-0.304750
O16	O	1.208559	-0.397268	-0.088344
O17	O	1.134164	-0.386975	-0.200445
C18	C	0.974125	-0.197091	-0.184210
C19	C	0.889722	-0.215468	-0.201258
C20	C	0.563040	-0.014551	-0.014899
C21	C	0.483733	-0.031838	-0.030928
C22	C	0.503379	-0.136388	-0.127890
C23	C	0.582690	-0.119106	-0.111871
C24	C	0.612514	-0.058188	-0.055374
C25	C	0.632163	-0.162742	-0.152347
C26	C	0.711466	-0.145466	-0.136326
C27	C	0.741296	-0.084554	-0.079830
C28	C	0.691817	-0.040912	-0.039354
C29	C	0.602336	-0.223666	-0.208839
C30	C	0.651810	-0.267303	-0.249315
C31	C	0.731115	-0.250020	-0.233299
C32	C	0.760946	-0.189108	-0.176803
C33	C	0.780595	-0.293662	-0.273775
C34	C	0.859898	-0.276386	-0.257755
C35	C	0.840249	-0.171832	-0.160783
C36	C	1.171375	-0.430735	-0.144405
C37	C	1.171428	-0.549023	-0.144418
C38	C	1.130952	-0.612729	-0.205355
C39	C	1.098441	-0.710300	-0.139790
C40	C	1.204011	-0.662232	-0.209981
C41	C	1.138872	-0.645055	-0.078824
C42	C	1.244484	-0.596959	-0.149055
C43	C	1.211989	-0.694508	-0.083437
C44	C	1.369498	-0.111103	-0.104440
C45	C	1.453905	-0.092746	-0.087411
C46	C	1.211522	-0.089246	-0.342483
C47	C	1.228608	-0.061575	-0.426893
C48	C	1.171502	0.123463	-0.144413
C49	C	1.171534	0.241779	-0.144417
C50	C	1.041915	-0.363754	-0.753480
C51	C	1.057987	-0.337736	-0.832792
C52	C	1.155145	-0.180474	-0.813192
C53	C	1.139080	-0.206477	-0.733876
C54	C	1.082465	-0.298118	-0.704027
C55	C	1.179629	-0.140841	-0.684423
C56	C	1.163567	-0.166845	-0.605114
C57	C	1.106956	-0.258484	-0.575258
C58	C	1.066403	-0.324122	-0.624718
C59	C	1.236247	-0.049204	-0.714274
C60	C	1.276797	0.016432	-0.664821
C61	C	1.260731	-0.009567	-0.585511
C62	C	1.204120	-0.101207	-0.555655
C63	C	1.301285	0.056071	-0.536051
C64	C	1.285223	0.030067	-0.456742
C65	C	1.188059	-0.127210	-0.476346
C66	C	1.131531	-0.218777	0.052915
C67	C	1.114592	-0.246116	0.137354
H68	H	0.716104	0.008713	0.006640
H69	H	0.587327	0.035074	0.031095
O70	O	1.102337	-0.634085	-0.005373
H71	H	1.084256	-0.717068	0.031130
O72	O	1.257382	-0.741592	-0.015117
H73	H	1.230219	-0.735337	0.039189
O74	O	1.337838	0.115288	-0.697034
H75	H	1.383780	0.087918	-0.725380
H76	H	0.995796	-0.438357	-0.729178
H77	H	1.201243	-0.105862	-0.837506
H78	H	0.805870	-0.070492	-0.066786
H79	H	0.627515	-0.316906	-0.295312
O80	O	1.326315	-0.532144	-0.154183
H81	H	1.353228	-0.538306	-0.208647
O82	O	0.430369	0.015238	0.012725
H83	H	0.464435	0.060506	0.054696
H84	H	1.231525	-0.670666	-0.265426
H85	H	1.096633	-0.577032	-0.256840
H86	H	1.141939	-0.201813	-0.452045
O87	O	0.516793	-0.242323	-0.226080
H88	H	0.492765	-0.332194	-0.214833
H89	H	1.093883	-0.279658	-0.510678
H90	H	0.756298	-0.343271	-0.319769
H91	H	1.249325	-0.028037	-0.778852
O92	O	1.016664	-0.775328	-0.134577
H93	H	0.983136	-0.742381	-0.185219
H94	H	0.479084	-0.185991	-0.173887
H95	H	0.900181	-0.311918	-0.290715
H96	H	1.020283	-0.398725	-0.600417
H97	H	1.024962	-0.391191	-0.873056
O98	O	1.362331	0.154920	-0.568265
H99	H	1.408271	0.127538	-0.596608
O100	O	0.872423	-0.106128	-0.099845
H101	H	0.859864	-0.021633	-0.116039
O102	O	1.328951	0.100858	-0.403396
H103	H	1.371011	0.168958	-0.437477
