data_functionalizedCrystal
_audit_creation_method	'MofGen! by Chris Wilmer'
_symmetry_space_group_name_H-M	'P1'
_symmetry_Int_Tables_number	1
_symmetry_cell_setting	triclinic
loop_
_symmetry_equiv_pos_as_xyz
  x,y,z
_cell_length_a	16.109301
_cell_length_b	17.666332
_cell_length_c	16.109301
_cell_angle_alpha	90.007897
_cell_angle_beta	83.461481
_cell_angle_gamma	90.006633
loop_
_atom_site_label
_atom_site_type_symbol
_atom_site_fract_x
_atom_site_fract_y
_atom_site_fract_z
O1	O	1.103138	0.062903	0.106869
O2	O	1.603138	0.562903	0.606869
O3	O	0.861076	0.062915	0.120168
O4	O	1.361076	0.562915	0.620168
O5	O	0.988756	0.062901	-0.007513
O6	O	1.488756	0.562901	0.492487
O7	O	0.975457	0.062917	0.234549
O8	O	1.475457	0.562917	0.734549
O9	O	0.988734	-0.062996	-0.007520
O10	O	1.488734	0.437004	0.492480
O11	O	0.861053	-0.062982	0.120161
O12	O	1.361053	0.437018	0.620161
O13	O	1.103115	-0.062994	0.106862
O14	O	1.603115	0.437006	0.606862
Cu15	Cu	0.982082	-0.074483	0.113511
Cu16	Cu	1.482082	0.425517	0.613511
Cu17	Cu	0.982109	0.074404	0.113519
Cu18	Cu	1.482109	0.574404	0.613519
O19	O	0.975435	-0.062980	0.234542
O20	O	1.475435	0.437020	0.734542
C21	C	0.830090	-0.000032	0.119626
C22	C	1.330090	0.499968	0.619626
C23	C	0.737794	-0.000027	0.118011
C24	C	1.237794	0.499973	0.618011
N25	N	0.982070	-0.179203	0.113505
N26	N	1.482070	0.320797	0.613505
C27	C	0.515522	-0.000031	0.190018
C28	C	1.015522	0.499969	0.690018
C29	C	0.428801	-0.000036	0.188494
C30	C	0.928801	0.499964	0.688494
C31	C	0.448676	-0.000043	0.037006
C32	C	0.948676	0.499957	0.537006
C33	C	0.535394	-0.000044	0.038530
C34	C	1.035394	0.499956	0.538530
C35	C	0.568815	-0.000034	0.115039
C36	C	1.068815	0.499966	0.615039
C37	C	0.395376	-0.000038	0.111990
C38	C	0.895376	0.499962	0.611990
C39	C	0.301350	-0.000044	0.110337
C40	C	0.801350	0.499956	0.610337
C41	C	0.662847	-0.000030	0.116693
C42	C	1.162847	0.499970	0.616693
C43	C	1.038625	-0.218819	0.056995
C44	C	1.538625	0.281181	0.556995
C45	C	1.038630	-0.298066	0.056991
C46	C	1.538630	0.201934	0.556991
C47	C	0.982087	-0.337695	0.113511
C48	C	1.482087	0.162305	0.613511
C49	C	0.925521	-0.298069	0.170025
C50	C	1.425521	0.201931	0.670025
C51	C	0.925512	-0.218823	0.170021
C52	C	1.425512	0.281177	0.670021
N53	N	0.971484	-0.462108	0.187080
N54	N	1.471484	0.037892	0.687080
N55	N	0.971497	-0.537389	0.187081
N56	N	1.471497	-0.037389	0.687081
C57	C	0.982109	-0.576459	0.113523
C58	C	1.482109	-0.076459	0.613523
N59	N	0.992723	-0.537404	0.039962
N60	N	1.492723	-0.037404	0.539962
N61	N	0.992714	-0.462117	0.039962
N62	N	1.492714	0.037883	0.539962
C63	C	0.982090	-0.423624	0.113520
C64	C	1.482090	0.076376	0.613520
C65	C	1.038673	-0.702004	0.057004
C66	C	1.538673	-0.202004	0.557004
C67	C	1.038672	-0.781253	0.056999
C68	C	1.538672	-0.281253	0.556999
C69	C	0.925567	-0.781254	0.170040
C70	C	1.425567	-0.281254	0.670040
C71	C	0.925564	-0.702007	0.170038
C72	C	1.425564	-0.202007	0.670038
C73	C	0.982121	-0.662386	0.113521
C74	C	1.482121	-0.162386	0.613521
C75	C	1.134101	-0.000045	0.107404
C76	C	1.634101	0.499955	0.607404
C77	C	1.226397	-0.000045	0.109019
C78	C	1.726397	0.499955	0.609019
C79	C	0.988206	-0.000048	-0.038491
C80	C	1.488206	0.499952	0.461509
C81	C	0.986591	-0.000049	-0.130786
C82	C	1.486591	0.499951	0.369214
N83	N	0.982128	0.179124	0.113518
N84	N	1.482128	0.679124	0.613518
C85	C	1.058599	-0.000040	-0.353059
C86	C	1.558599	0.499960	0.146941
C87	C	1.057075	-0.000034	-0.439779
C88	C	1.557075	0.499966	0.060221
C89	C	0.905586	-0.000029	-0.419905
C90	C	1.405586	0.499971	0.080095
C91	C	0.907111	-0.000030	-0.333186
C92	C	1.407111	0.499970	0.166814
C93	C	0.983620	-0.000040	-0.299766
C94	C	1.483620	0.499960	0.200234
C95	C	0.980571	-0.000032	-0.473205
C96	C	1.480571	0.499968	0.026795
C97	C	0.978918	-0.000026	-0.567231
C98	C	1.478918	0.499974	-0.067231
C99	C	0.985273	-0.000045	-0.205734
C100	C	1.485273	0.499955	0.294266
C101	C	0.975984	-0.000029	0.265521
C102	C	1.475984	0.499971	0.765521
C103	C	0.977600	-0.000023	0.357816
C104	C	1.477600	0.499977	0.857816
H105	H	0.542730	-0.000029	0.252317
H106	H	1.042730	0.499971	0.752317
C107	C	0.781634	-0.805668	0.218816
C108	C	1.281634	-0.305668	0.718816
C109	C	0.863411	-0.824805	0.232166
C110	C	1.363411	-0.324805	0.732166
H111	H	0.743260	-0.832561	0.257167
H112	H	1.243260	-0.332561	0.757167
H113	H	0.773543	-0.752808	0.226906
H114	H	1.273543	-0.252808	0.726906
H115	H	0.772637	-0.818670	0.163322
H116	H	1.272637	-0.318670	0.663322
H117	H	0.872411	-0.811798	0.287659
H118	H	1.372411	-0.311798	0.787659
H119	H	0.871506	-0.877677	0.224083
H120	H	1.371506	-0.377677	0.724083
H121	H	0.879515	-0.669749	0.216056
H122	H	1.379515	-0.169749	0.716056
H123	H	0.385413	-0.000036	0.249550
H124	H	0.885413	0.499964	0.749550
H125	H	1.120897	-0.000046	-0.325851
H126	H	1.620897	0.499954	0.174149
C127	C	1.206966	-0.000050	-0.450707
C128	C	1.706966	0.499950	0.049293
C129	C	1.139494	-0.000040	-0.498359
C130	C	1.639494	0.499960	0.001641
H131	H	1.257849	-0.000058	-0.486874
H132	H	1.757849	0.499942	0.013126
H133	H	1.204418	0.043849	-0.416465
H134	H	1.704418	0.543849	0.083535
H135	H	1.204393	-0.043957	-0.416476
H136	H	1.704393	0.456043	0.083524
H137	H	1.142063	0.043870	-0.532587
H138	H	1.642063	0.543870	-0.032587
H139	H	1.142043	-0.043944	-0.532616
H140	H	1.642043	0.456056	-0.032616
H141	H	1.084675	-0.186562	0.010974
H142	H	1.584675	0.313438	0.510974
H143	H	0.846050	-0.000027	-0.289792
H144	H	1.346050	0.499973	0.210208
C145	C	0.812394	-0.387215	0.188034
C146	C	1.312394	0.112785	0.688034
C147	C	0.863370	-0.341628	0.232152
C148	C	1.363370	0.158372	0.732152
H149	H	0.774025	-0.414109	0.226390
H150	H	1.274025	0.085891	0.726390
H151	H	0.782497	-0.356313	0.153423
H152	H	1.282497	0.143687	0.653423
H153	H	0.846088	-0.422149	0.154380
H154	H	1.346088	0.077851	0.654380
H155	H	0.829676	-0.306691	0.265802
H156	H	1.329676	0.193309	0.765802
H157	H	0.893269	-0.372533	0.266778
H158	H	1.393269	0.127467	0.766778
C159	C	0.324566	-0.000038	-0.032597
C160	C	0.824566	0.499962	0.467403
C161	C	0.411936	-0.000044	-0.047090
C162	C	0.911936	0.499956	0.452910
H163	H	0.301888	-0.000032	-0.084517
H164	H	0.801888	0.499968	0.415483
H165	H	0.306270	-0.043937	-0.001737
H166	H	0.806270	0.456063	0.498263
H167	H	0.306287	0.043869	-0.001719
H168	H	0.806287	0.543869	0.498281
H169	H	0.430216	-0.043954	-0.077963
H170	H	0.930216	0.456046	0.422037
H171	H	0.430240	0.043860	-0.077963
H172	H	0.930240	0.543860	0.422037
H173	H	1.084685	-0.330327	0.010973
H174	H	1.584685	0.169673	0.510973
C175	C	0.816000	0.064688	-0.505897
C176	C	1.316000	0.564688	-0.005897
C177	C	0.821492	-0.000028	-0.456647
C178	C	1.321492	0.499972	0.043353
H179	H	0.764085	0.064684	-0.528583
H180	H	1.264085	0.564684	-0.028583
H181	H	0.819743	0.108584	-0.472474
H182	H	1.319743	0.608584	0.027526
H183	H	0.860442	0.064679	-0.550045
H184	H	1.360442	0.564679	-0.050045
H185	H	0.777053	-0.000016	-0.412496
H186	H	1.277053	0.499984	0.087504
H187	H	0.817741	-0.043934	-0.490072
H188	H	1.317741	0.456066	0.009928
C189	C	0.546337	-0.000042	-0.111369
C190	C	1.046337	0.499958	0.388631
C191	C	0.593982	-0.000043	-0.043893
C192	C	1.093982	0.499957	0.456107
H193	H	0.582508	-0.000039	-0.162250
H194	H	1.082508	0.499961	0.337750
H195	H	0.512097	-0.043941	-0.108821
H196	H	1.012097	0.456059	0.391179
H197	H	0.512103	0.043865	-0.108805
H198	H	1.012103	0.543865	0.391195
H199	H	0.628211	-0.043953	-0.046454
H200	H	1.128211	0.456047	0.453546
H201	H	0.628236	0.043861	-0.046443
H202	H	1.128236	0.543861	0.453557
C203	C	0.813717	-0.226786	0.281757
C204	C	1.313717	0.273214	0.781757
C205	C	0.863348	-0.175272	0.232147
C206	C	1.363348	0.324728	0.732147
H207	H	0.775344	-0.199897	0.320115
H208	H	1.275344	0.300103	0.820115
H209	H	0.783825	-0.257701	0.247140
H210	H	1.283825	0.242299	0.747140
H211	H	0.848324	-0.257688	0.311673
H212	H	1.348324	0.242312	0.811673
H213	H	0.828742	-0.144374	0.202227
H214	H	1.328742	0.355626	0.702227
H215	H	0.893242	-0.144344	0.266769
H216	H	1.393242	0.355656	0.766769
H217	H	1.084723	-0.669744	0.010982
H218	H	1.584723	-0.169744	0.510982
H219	H	1.084723	-0.813509	0.010978
H220	H	1.584723	-0.313509	0.510978
