data_functionalizedCrystal
_audit_creation_method	'MofGen! by Chris Wilmer'
_symmetry_space_group_name_H-M	'P1'
_symmetry_Int_Tables_number	1
_symmetry_cell_setting	triclinic
loop_
_symmetry_equiv_pos_as_xyz
  x,y,z
_cell_length_a	19.288864
_cell_length_b	16.109301
_cell_length_c	17.766277
_cell_angle_alpha	89.992214
_cell_angle_beta	89.976791
_cell_angle_gamma	83.298863
loop_
_atom_site_label
_atom_site_type_symbol
_atom_site_fract_x
_atom_site_fract_y
_atom_site_fract_z
O1	O	0.921601	0.103716	-0.062838
O2	O	1.421601	0.603716	0.437162
O3	O	0.719373	0.117707	-0.062787
O4	O	1.219373	0.617707	0.437213
O5	O	0.826042	-0.010338	-0.062806
O6	O	1.326042	0.489662	0.437194
O7	O	0.814932	0.231761	-0.062819
O8	O	1.314932	0.731761	0.437181
O9	O	0.826024	-0.010345	0.062382
O10	O	1.326024	0.489655	0.562382
O11	O	0.719355	0.117701	0.062402
O12	O	1.219355	0.617701	0.562402
O13	O	0.921582	0.103710	0.062351
O14	O	1.421582	0.603710	0.562351
Cu15	Cu	0.820467	0.110704	0.073807
Cu16	Cu	1.320467	0.610704	0.573807
Cu17	Cu	0.820489	0.110712	-0.074243
Cu18	Cu	1.320489	0.610712	0.425757
O19	O	0.814913	0.231755	0.062370
O20	O	1.314913	0.731755	0.562370
C21	C	0.693487	0.117254	-0.000186
C22	C	1.193487	0.617254	0.499814
C23	C	0.616380	0.115902	-0.000166
C24	C	1.116380	0.615902	0.499834
C25	C	0.571863	0.191034	-0.000182
C26	C	1.071863	0.691034	0.499818
C27	C	0.499413	0.189764	-0.000190
C28	C	0.999413	0.689764	0.499810
C29	C	0.471483	0.113359	-0.000198
C30	C	0.971483	0.613359	0.499802
C31	C	0.516009	0.038218	-0.000178
C32	C	1.016009	0.538218	0.499822
C33	C	0.588458	0.039489	-0.000162
C34	C	1.088458	0.539489	0.499838
C35	C	0.363084	0.053298	-0.044079
C36	C	0.863084	0.553298	0.455921
C37	C	0.290636	0.052029	-0.044100
C38	C	0.790636	0.552029	0.455900
C39	C	0.248028	0.109433	-0.000243
C40	C	0.748028	0.609433	0.499757
C41	C	0.277874	0.168120	0.043624
C42	C	0.777874	0.668120	0.543624
C43	C	0.350323	0.169391	0.043640
C44	C	0.850323	0.669391	0.543640
C45	C	0.392925	0.111971	-0.000214
C46	C	0.892925	0.611971	0.499786
C47	C	0.124952	0.183193	-0.000267
C48	C	0.624952	0.683193	0.499733
C49	C	0.052501	0.181920	-0.000270
C50	C	0.552501	0.681920	0.499730
C51	C	0.069099	0.030372	-0.000266
C52	C	0.569099	0.530372	0.499734
C53	C	0.141548	0.031647	-0.000254
C54	C	0.641548	0.531647	0.499746
C55	C	0.169470	0.108060	-0.000259
C56	C	0.669470	0.608060	0.499741
C57	C	0.825583	-0.041315	-0.000211
C58	C	1.325583	0.458685	0.499789
C59	C	0.824234	-0.133606	-0.000210
C60	C	1.324234	0.366394	0.499790
C61	C	0.884391	-0.356084	-0.000237
C62	C	1.384391	0.143916	0.499763
C63	C	0.883118	-0.442800	-0.000243
C64	C	1.383118	0.057200	0.499757
C65	C	0.756559	-0.422493	-0.000208
C66	C	1.256559	0.077507	0.499792
C67	C	0.757833	-0.335778	-0.000208
C68	C	1.257833	0.164222	0.499792
C69	C	0.821751	-0.302577	-0.000218
C70	C	1.321751	0.197423	0.499782
C71	C	0.819204	-0.476007	-0.000225
C72	C	1.319204	0.023993	0.499775
C73	C	0.817823	-0.570028	-0.000231
C74	C	1.317823	-0.070028	0.499769
C75	C	0.823133	-0.208549	-0.000213
C76	C	1.323133	0.291451	0.499787
C77	C	0.947469	0.104163	-0.000252
C78	C	1.447469	0.604163	0.499748
C79	C	1.024576	0.105514	-0.000277
C80	C	1.524576	0.605514	0.499723
C81	C	0.815372	0.262732	-0.000227
C82	C	1.315372	0.762732	0.499773
C83	C	0.816722	0.355022	-0.000233
C84	C	1.316722	0.855022	0.499767
N85	N	0.820456	0.110699	0.177937
N86	N	1.320456	0.610699	0.677937
N87	N	0.820505	0.110711	-0.178373
N88	N	1.320505	0.610711	0.321627
C89	C	0.867704	0.054028	0.217315
C90	C	1.367704	0.554028	0.717315
C91	C	0.867708	0.054024	0.296117
C92	C	1.367708	0.554024	0.796117
C93	C	0.820471	0.110705	0.335538
C94	C	1.320471	0.610705	0.835538
C95	C	0.773214	0.167380	0.296150
C96	C	1.273214	0.667380	0.796150
C97	C	0.773206	0.167377	0.217350
C98	C	1.273206	0.667377	0.717350
C99	C	0.811353	0.186459	0.460373
C100	C	1.311353	0.686459	0.960373
C101	C	0.811365	0.186463	0.539172
C102	C	1.311365	0.686463	1.039172
C103	C	0.820489	0.110715	0.578584
C104	C	1.320489	0.610715	1.078584
C105	C	0.829616	0.034960	0.539188
C106	C	1.329616	0.534960	1.039188
C107	C	0.829609	0.034956	0.460387
C108	C	1.329609	0.534956	0.960387
C109	C	0.820473	0.110715	0.420983
C110	C	1.320473	0.610715	0.920983
C111	C	0.867745	0.054035	0.703408
C112	C	1.367745	0.554035	1.203408
C113	C	0.867744	0.054030	0.782212
C114	C	1.367744	0.554030	1.282212
C115	C	0.773252	0.167394	0.782243
C116	C	1.273252	0.667394	1.282243
C117	C	0.773250	0.167392	0.703441
C118	C	1.273250	0.667392	1.203441
C119	C	0.820500	0.110713	0.664028
C120	C	1.320500	0.610713	1.164028
H121	H	0.147687	0.245413	-0.000259
H122	H	0.647687	0.745413	0.499741
N123	N	0.687625	-0.458312	-0.000186
N124	N	1.187625	0.041688	0.499814
H125	H	0.660178	-0.438786	0.046230
H126	H	1.160178	0.061214	0.546230
H127	H	0.660241	-0.438769	-0.046615
H128	H	1.160241	0.061231	0.453385
H129	H	0.397771	0.006551	-0.079797
H130	H	0.897771	0.506551	0.420203
H131	H	0.734788	0.213542	0.814338
H132	H	1.234788	0.713542	1.314338
H133	H	0.734778	0.213542	0.671377
H134	H	1.234778	0.713542	1.171377
N135	N	0.690268	-0.278059	-0.000193
N136	N	1.190268	0.221941	0.499807
H137	H	0.649583	-0.312248	-0.000181
H138	H	1.149583	0.187752	0.499819
H139	H	0.688035	-0.241643	0.046216
H140	H	1.188035	0.258357	0.546216
N141	N	0.950679	-0.500515	-0.000254
N142	N	1.450679	-0.000515	0.499746
H143	H	0.952981	-0.536937	-0.046663
H144	H	1.452981	-0.036937	0.453337
H145	H	0.991322	-0.466263	-0.000231
H146	H	1.491322	0.033737	0.499769
N147	N	0.918662	-0.007104	0.174806
N148	N	1.418662	0.492896	0.674806
H149	H	0.948594	-0.043006	0.211715
H150	H	1.448594	0.456994	0.711715
H151	H	0.892080	-0.043783	0.142134
H152	H	1.392080	0.456217	0.642134
N153	N	0.451386	0.270801	-0.000209
N154	N	0.951386	0.770801	0.499791
H155	H	0.480068	0.319400	-0.000209
H156	H	0.980068	0.819400	0.499791
H157	H	0.420994	0.273566	-0.046627
H158	H	0.920994	0.773566	0.453373
N159	N	0.231928	0.230028	0.090941
N160	N	0.731928	0.730028	0.590941
H161	H	0.261828	0.267393	0.118734
H162	H	0.761828	0.767393	0.618734
H163	H	0.197977	0.265154	0.057301
H164	H	0.697977	0.765154	0.557301
N165	N	0.918669	-0.007104	0.338603
N166	N	1.418669	0.492896	0.838603
H167	H	0.948599	-0.043010	0.301678
H168	H	1.448599	0.456990	0.801678
H169	H	0.949364	0.024641	0.371275
H170	H	1.449364	0.524641	0.871275
N171	N	0.839452	-0.046744	0.417896
N172	N	1.339452	0.453256	0.917896
H173	H	0.797269	-0.051549	0.385222
H174	H	1.297269	0.448451	0.885222
H175	H	0.882468	-0.048634	0.385224
H176	H	1.382468	0.451366	0.885224
N177	N	0.839462	-0.046748	0.581683
N178	N	1.339462	0.453252	1.081683
H179	H	0.838079	-0.035255	0.637580
H180	H	1.338079	0.464745	1.137580
H181	H	0.800857	-0.081256	0.567932
H182	H	1.300857	0.418744	1.067932
N183	N	0.918720	-0.007086	0.824683
N184	N	1.418720	0.492914	1.324683
H185	H	0.910753	-0.066077	0.810983
H186	H	1.410753	0.433923	1.310983
H187	H	0.967980	0.002436	0.810915
H188	H	1.467980	0.502436	1.310915
H189	H	0.906216	0.007882	0.671317
H190	H	1.406216	0.507882	1.171317
N191	N	0.953329	-0.320274	-0.000250
N192	N	1.453329	0.179726	0.499750
H193	H	0.980778	-0.339794	-0.046666
H194	H	1.480778	0.160206	0.453334
H195	H	0.944575	-0.257227	-0.000215
H196	H	1.444575	0.242773	0.499785
H197	H	0.374621	0.217173	0.079360
H198	H	0.874621	0.717173	0.579360
H199	H	0.624704	-0.021694	-0.000150
H200	H	1.124704	0.478306	0.499850
H201	H	0.177795	-0.029534	-0.000246
H202	H	0.677795	0.470466	0.499754
H203	H	0.803938	0.248147	0.571243
H204	H	1.303938	0.748147	1.071243
H205	H	0.016255	0.243104	-0.000279
H206	H	0.516255	0.743104	0.499721
N207	N	0.722260	0.228512	0.338662
N208	N	1.222260	0.728512	0.838662
H209	H	0.729435	0.219916	0.394558
H210	H	1.229435	0.719916	0.894558
H211	H	0.730263	0.287469	0.324873
H212	H	1.230263	0.787469	0.824873
H213	H	0.046359	-0.031839	-0.000318
H214	H	0.546359	0.468161	0.499682
H215	H	0.803911	0.248146	0.428290
H216	H	1.303911	0.748146	0.928290
H217	H	0.734730	0.213526	0.185287
H218	H	1.234730	0.713526	0.685287
H219	H	0.594592	0.253255	-0.000187
H220	H	1.094592	0.753255	0.499813
H221	H	0.493264	-0.023992	-0.000194
H222	H	0.993264	0.476008	0.499806
N223	N	0.258447	-0.011262	-0.091412
N224	N	0.758447	0.488738	0.408588
H225	H	0.296432	-0.047441	-0.119184
H226	H	0.796432	0.452559	0.380816
H227	H	0.232272	-0.047435	-0.057771
H228	H	0.732272	0.452565	0.442229
