data_functionalizedCrystal
_audit_creation_method	'MofGen! by Chris Wilmer'
_symmetry_space_group_name_H-M	'P1'
_symmetry_Int_Tables_number	1
_symmetry_cell_setting	triclinic
loop_
_symmetry_equiv_pos_as_xyz
  x,y,z
_cell_length_a	17.699077
_cell_length_b	19.188930
_cell_length_c	16.176319
_cell_angle_alpha	89.998695
_cell_angle_beta	90.003161
_cell_angle_gamma	83.212679
loop_
_atom_site_label
_atom_site_type_symbol
_atom_site_fract_x
_atom_site_fract_y
_atom_site_fract_z
O1	O	1.003963	0.088262	0.068745
O2	O	1.503963	0.588262	0.568745
O3	O	0.783569	0.099753	0.068750
O4	O	1.283569	0.599753	0.568750
O5	O	0.900126	-0.007641	0.068731
O6	O	1.400126	0.492359	0.568731
O7	O	0.887406	0.195656	0.068764
O8	O	1.387406	0.695656	0.568764
O9	O	0.900115	-0.007622	-0.068762
O10	O	1.400115	0.492378	0.431238
O11	O	0.783558	0.099773	-0.068743
O12	O	1.283558	0.599773	0.431257
O13	O	1.003952	0.088281	-0.068748
O14	O	1.503952	0.588281	0.431252
Cu15	Cu	0.893754	0.094029	-0.081300
Cu16	Cu	1.393754	0.594029	0.418700
Cu17	Cu	0.893767	0.094006	0.081302
Cu18	Cu	1.393767	0.594006	0.581302
O19	O	0.887395	0.195675	-0.068729
O20	O	1.387395	0.695675	0.431271
C21	C	0.755367	0.099352	0.000004
C22	C	1.255367	0.599352	0.500004
C23	C	0.671350	0.098119	0.000005
C24	C	1.171350	0.598119	0.500005
C25	C	0.631877	0.097548	-0.074943
C26	C	1.131877	0.597548	0.425057
C27	C	0.552936	0.096378	-0.074944
C28	C	1.052936	0.596378	0.425056
C29	C	0.513469	0.095784	0.000004
C30	C	1.013469	0.595784	0.500004
C31	C	0.552947	0.096352	0.074958
C32	C	1.052947	0.596352	0.574958
C33	C	0.631888	0.097517	0.074959
C34	C	1.131888	0.597517	0.574959
C35	C	0.234590	0.091654	0.074959
C36	C	0.734590	0.591654	0.574959
C37	C	0.155644	0.090491	0.074953
C38	C	0.655644	0.590491	0.574953
C39	C	0.155639	0.090515	-0.074944
C40	C	0.655639	0.590515	0.425056
C41	C	0.234579	0.091680	-0.074943
C42	C	0.734579	0.591680	0.425057
C43	C	0.274051	0.092244	0.000010
C44	C	0.774051	0.592244	0.500010
C45	C	0.359648	0.093512	0.000011
C46	C	0.859648	0.593512	0.500011
C47	C	0.427872	0.094522	0.000005
C48	C	0.927872	0.594522	0.500005
C49	C	0.899708	-0.033643	-0.000018
C50	C	1.399708	0.466357	0.499982
C51	C	0.898472	-0.111149	-0.000025
C52	C	1.398472	0.388851	0.499975
C53	C	0.966864	-0.155998	-0.000030
C54	C	1.466864	0.344002	0.499970
C55	C	0.965702	-0.228823	-0.000017
C56	C	1.465702	0.271177	0.499983
C57	C	0.896145	-0.256796	-0.000015
C58	C	1.396145	0.243204	0.499985
C59	C	0.827744	-0.211937	-0.000005
C60	C	1.327744	0.288063	0.499995
C61	C	0.828907	-0.139114	-0.000010
C62	C	1.328907	0.360886	0.499990
N63	N	0.842972	-0.364853	-0.046805
N64	N	1.342972	0.135147	0.453195
N65	N	0.841872	-0.434033	-0.046802
N66	N	1.341872	0.065967	0.453198
C67	C	0.892634	-0.476208	0.000002
C68	C	1.392634	0.023792	0.500002
N69	N	0.944551	-0.446592	0.046793
N70	N	1.444551	0.053408	0.546793
N71	N	0.945654	-0.377406	0.046786
N72	N	1.445654	0.122594	0.546786
C73	C	0.894875	-0.335760	-0.000009
C74	C	1.394875	0.164240	0.499991
C75	C	0.959771	-0.600023	0.000012
C76	C	1.459771	-0.100023	0.500012
C77	C	0.958607	-0.672849	0.000030
C78	C	1.458607	-0.172849	0.500030
C79	C	0.820646	-0.655962	0.000035
C80	C	1.320646	-0.155962	0.500035
C81	C	0.821813	-0.583137	0.000024
C82	C	1.321813	-0.083137	0.500024
C83	C	0.891378	-0.555173	0.000009
C84	C	1.391378	-0.055173	0.500009
C85	C	1.032154	0.088682	-0.000000
C86	C	1.532154	0.588682	0.500000
C87	C	1.116171	0.089915	0.000004
C88	C	1.616171	0.589915	0.500004
C89	C	0.887812	0.221677	0.000021
C90	C	1.387812	0.721677	0.500021
C91	C	0.889049	0.299183	0.000034
C92	C	1.389049	0.799183	0.500034
N93	N	0.893750	0.094044	-0.195665
N94	N	1.393750	0.594044	0.304335
C95	C	0.848015	0.051697	-0.761061
C96	C	1.348015	0.551697	-0.261061
C97	C	0.848013	0.051703	-0.674514
C98	C	1.348013	0.551703	-0.174514
C99	C	0.893770	0.093999	-0.631240
C100	C	1.393770	0.593999	-0.131240
C101	C	0.939538	0.136288	-0.674518
C102	C	1.439538	0.636288	-0.174518
C103	C	0.939543	0.136278	-0.761064
C104	C	1.439543	0.636278	-0.261064
C105	C	0.939519	0.136327	-0.325490
C106	C	1.439519	0.636327	0.174510
C107	C	0.939508	0.136335	-0.238939
C108	C	1.439508	0.636335	0.261061
C109	C	0.847989	0.051752	-0.238940
C110	C	1.347989	0.551752	0.261060
C111	C	0.847994	0.051742	-0.325486
C112	C	1.347994	0.551742	0.174514
C113	C	0.893764	0.094028	-0.368756
C114	C	1.393764	0.594028	0.131244
C115	C	0.893767	0.094020	-0.462600
C116	C	1.393767	0.594020	0.037400
C117	C	0.893764	0.094011	-0.537398
C118	C	1.393764	0.594011	-0.037398
N119	N	0.893777	0.093984	0.195667
N120	N	1.393777	0.593984	0.695667
H121	H	0.266719	0.092111	0.135991
H122	H	0.766719	0.592111	0.635991
H123	H	1.023509	-0.133234	-0.000040
H124	H	1.523509	0.366766	0.499960
H125	H	0.810731	0.017302	-0.360715
H126	H	1.310731	0.517302	0.139285
H127	H	0.764011	-0.678737	0.000040
H128	H	1.264011	-0.178737	0.500040
C129	C	0.721293	0.024491	-0.212305
C130	C	1.221293	0.524491	0.287695
C131	C	0.797681	0.005264	-0.191375
C132	C	1.297681	0.505264	0.308625
H133	H	0.690236	-0.004204	-0.182938
H134	H	1.190236	0.495796	0.317062
H135	H	0.714754	0.018432	-0.270035
H136	H	1.214754	0.518432	0.229965
H137	H	0.707083	0.072282	-0.198124
H138	H	1.207083	0.572282	0.301876
H139	H	0.811893	-0.042526	-0.205562
H140	H	1.311893	0.457474	0.294438
H141	H	0.804224	0.011317	-0.133633
H142	H	1.304224	0.511317	0.366367
H143	H	0.664005	0.098038	-0.135975
H144	H	1.164005	0.598038	0.364025
C145	C	1.029994	0.219936	-0.247626
C146	C	1.529994	0.719936	0.252374
C147	C	0.989815	0.182826	-0.191370
C148	C	1.489815	0.682826	0.308630
H149	H	1.061051	0.248632	-0.218257
H150	H	1.561051	0.748632	0.281743
H151	H	0.995076	0.248588	-0.281390
H152	H	1.495076	0.748588	0.218610
H153	H	1.061114	0.187754	-0.281373
H154	H	1.561114	0.687754	0.218627
H155	H	0.958690	0.215008	-0.157627
H156	H	1.458690	0.715008	0.342373
H157	H	1.024737	0.154172	-0.157592
H158	H	1.524737	0.654172	0.342408
C159	C	0.140049	0.030181	-0.202734
C160	C	0.640049	0.530181	0.297266
C161	C	0.112253	0.089885	-0.157339
C162	C	0.612253	0.589885	0.342661
H163	H	0.113268	0.029797	-0.253601
H164	H	0.613268	0.529797	0.246399
H165	H	0.133018	-0.010708	-0.171948
H166	H	0.633018	0.489292	0.328052
H167	H	0.192712	0.030970	-0.213449
H168	H	0.692712	0.530970	0.286551
H169	H	0.059591	0.089094	-0.146618
H170	H	0.559591	0.589094	0.353382
H171	H	0.119277	0.130784	-0.188130
H172	H	0.619277	0.630784	0.311870
C173	C	1.025169	-0.347958	-0.000022
C174	C	1.525169	0.152042	0.499978
C175	C	1.040883	-0.278133	-0.000029
C176	C	1.540883	0.221867	0.499971
H177	H	1.071583	-0.378397	-0.000026
H178	H	1.571583	0.121603	0.499974
H179	H	0.996631	-0.356416	-0.047961
H180	H	1.496631	0.143584	0.452039
H181	H	0.996645	-0.356416	0.047933
H182	H	1.496645	0.143584	0.547933
H183	H	1.069402	-0.269673	-0.047988
H184	H	1.569402	0.230327	0.452012
H185	H	1.069433	-0.269671	0.047915
H186	H	1.569433	0.230329	0.547915
C187	C	0.058165	0.149163	0.161934
C188	C	0.558165	0.649163	0.661934
C189	C	0.112260	0.089834	0.157343
C190	C	0.612260	0.589834	0.657343
H191	H	0.031385	0.148759	0.212797
H192	H	0.531385	0.648759	0.712797
H193	H	0.023364	0.148655	0.117300
H194	H	0.523364	0.648655	0.617300
H195	H	0.083062	0.190311	0.158831
H196	H	0.583062	0.690311	0.658831
H197	H	0.087362	0.048685	0.160439
H198	H	0.587362	0.548685	0.660439
H199	H	0.147066	0.090335	0.201990
H200	H	0.647066	0.590335	0.701990
C201	C	0.431940	0.094563	0.141519
C202	C	0.931940	0.594563	0.641519
C203	C	0.509566	0.095701	0.157344
C204	C	1.009566	0.595701	0.657344
H205	H	0.405161	0.094167	0.192383
H206	H	0.905161	0.594167	0.692383
H207	H	0.424913	0.053680	0.110723
H208	H	0.924913	0.553680	0.610723
H209	H	0.413101	0.135079	0.110728
H210	H	0.913101	0.635079	0.610728
H211	H	0.528407	0.055182	0.188129
H212	H	1.028407	0.555182	0.688129
H213	H	0.516598	0.136588	0.188153
H214	H	1.016598	0.636588	0.688153
C215	C	0.623967	0.097390	0.223130
C216	C	1.123967	0.597390	0.723130
C217	C	0.675278	0.098152	0.157344
C218	C	1.175278	0.598152	0.657344
H219	H	0.650755	0.097785	0.273992
H220	H	1.150755	0.597785	0.773992
H221	H	0.599089	0.056238	0.220009
H222	H	1.099089	0.556238	0.720009
H223	H	0.587265	0.137638	0.220010
H224	H	1.087265	0.637638	0.720010
H225	H	0.711977	0.057901	0.160461
H226	H	1.211977	0.557901	0.660461
H227	H	0.700168	0.139308	0.160467
H228	H	1.200168	0.639308	0.660467
H229	H	0.771109	-0.234718	-0.000001
H230	H	1.271109	0.265282	0.499999
H231	H	0.976787	0.170760	-0.360711
H232	H	1.476787	0.670760	0.139289
H233	H	0.766121	-0.546620	0.000024
H234	H	1.266121	-0.046620	0.500024
H235	H	0.810751	0.017266	-0.639286
H236	H	1.310751	0.517266	-0.139286
H237	H	0.773213	-0.102597	-0.000005
H238	H	1.273213	0.397403	0.499995
H239	H	0.266709	0.092167	-0.135974
H240	H	0.766709	0.592167	0.364026
C241	C	1.096021	-0.624027	0.000029
C242	C	1.596021	-0.124027	0.500029
C243	C	1.036234	-0.569278	0.000015
C244	C	1.536234	-0.069278	0.500015
H245	H	1.143225	-0.605046	0.000038
H246	H	1.643225	-0.105046	0.500038
H247	H	1.092701	-0.652079	-0.047914
H248	H	1.592701	-0.152079	0.452086
H249	H	1.092690	-0.652078	0.047980
H250	H	1.592690	-0.152078	0.547980
H251	H	1.039562	-0.541229	-0.047940
H252	H	1.539562	-0.041229	0.452060
H253	H	1.039556	-0.541214	0.047963
H254	H	1.539556	-0.041214	0.547963
H255	H	0.976797	0.170723	-0.639278
H256	H	1.476797	0.670723	-0.139278
H257	H	1.014302	-0.709365	0.000030
H258	H	1.514302	-0.209365	0.500030
H259	H	0.976807	0.170713	-0.796295
H260	H	1.476807	0.670713	-0.296295
C261	C	0.560858	0.096535	-0.223114
C262	C	1.060858	0.596535	0.276886
C263	C	0.509547	0.095758	-0.157330
C264	C	1.009547	0.595758	0.342670
H265	H	0.534069	0.096156	-0.273977
H266	H	1.034069	0.596156	0.226023
H267	H	0.597555	0.056291	-0.220008
H268	H	1.097555	0.556291	0.279992
H269	H	0.585739	0.137691	-0.219977
H270	H	1.085739	0.637691	0.280023
H271	H	0.484670	0.054599	-0.160464
H272	H	0.984670	0.554599	0.339536
H273	H	0.472836	0.136005	-0.160438
H274	H	0.972836	0.636005	0.339562
C275	C	0.818694	-0.065234	-0.787694
C276	C	1.318694	0.434766	-0.287694
C277	C	0.797717	0.005203	-0.808625
C278	C	1.297717	0.505203	-0.308625
H279	H	0.787645	-0.093938	-0.817061
H280	H	1.287645	0.406062	-0.317061
H281	H	0.812139	-0.071275	-0.729964
H282	H	1.312139	0.428725	-0.229964
H283	H	0.870522	-0.078259	-0.801875
H284	H	1.370522	0.421741	-0.301875
H285	H	0.745890	0.018230	-0.794439
H286	H	1.245890	0.518230	-0.294439
H287	H	0.804265	0.011247	-0.866367
H288	H	1.304265	0.511247	-0.366367
