data_functionalizedCrystal
_audit_creation_method	'MofGen! by Chris Wilmer'
_symmetry_space_group_name_H-M	'P1'
_symmetry_Int_Tables_number	1
_symmetry_cell_setting	triclinic
loop_
_symmetry_equiv_pos_as_xyz
  x,y,z
_cell_length_a	16.959455
_cell_length_b	16.959453
_cell_length_c	16.959447
_cell_angle_alpha	90.031096
_cell_angle_beta	90.014701
_cell_angle_gamma	90.024249
loop_
_atom_site_label
_atom_site_type_symbol
_atom_site_fract_x
_atom_site_fract_y
_atom_site_fract_z
Zn1	Zn	1.208358	-0.314678	0.446912
Zn2	Zn	1.541691	0.018655	0.780246
Zn3	Zn	1.875024	0.351989	1.113579
Zn4	Zn	1.208269	-0.446870	0.314732
Zn5	Zn	1.541603	-0.113537	0.648065
Zn6	Zn	1.874936	0.219796	0.981399
Zn7	Zn	1.076186	-0.314709	0.314749
Zn8	Zn	1.409519	0.018625	0.648082
Zn9	Zn	1.742853	0.351958	0.981416
Zn10	Zn	1.076140	-0.446817	0.446870
Zn11	Zn	1.409473	-0.113484	0.780203
Zn12	Zn	1.742807	0.219850	1.113536
O13	O	1.142238	-0.380769	0.380816
O14	O	1.475572	-0.047435	0.714149
O15	O	1.808905	0.285898	1.047483
O16	O	1.318957	-0.332223	0.429389
O17	O	1.652290	0.001110	0.762723
O18	O	1.985624	0.334443	1.096056
O19	O	1.190731	-0.429374	0.204123
O20	O	1.524064	-0.096041	0.537457
O21	O	1.857397	0.237293	0.870790
O22	O	1.093775	-0.204094	0.332306
O23	O	1.427109	0.129240	0.665639
O24	O	1.760442	0.462573	0.998972
O25	O	1.318892	-0.429344	0.332277
O26	O	1.652225	-0.096011	0.665610
O27	O	1.985559	0.237322	0.998943
O28	O	1.190881	-0.204071	0.429406
O29	O	1.524215	0.129262	0.762739
O30	O	1.857548	0.462595	1.096072
O31	O	1.093690	-0.332275	0.204136
O32	O	1.427023	0.001058	0.537469
O33	O	1.760356	0.334391	0.870803
O34	O	0.965569	-0.332223	0.332264
O35	O	1.298902	0.001110	0.665598
O36	O	1.632236	0.334443	0.998931
O37	O	1.093697	-0.429254	0.557486
O38	O	1.427030	-0.095920	0.890820
O39	O	1.760363	0.237413	1.224153
O40	O	0.965535	-0.429283	0.429333
O41	O	1.298868	-0.095950	0.762666
O42	O	1.632202	0.237384	1.096000
O43	O	1.190836	-0.332171	0.557518
O44	O	1.524170	0.001162	0.890851
O45	O	1.857503	0.334495	1.224184
O46	O	1.190686	-0.557474	0.332235
O47	O	1.524019	-0.224141	0.665569
O48	O	1.857352	0.109192	0.998902
O49	O	1.093611	-0.557435	0.429317
O50	O	1.426944	-0.224102	0.762650
O51	O	1.760277	0.109232	1.095983
C52	C	0.936872	-0.380751	0.380796
C53	C	1.270205	-0.047418	0.714130
C54	C	1.603539	0.285915	1.047463
C55	C	0.849015	-0.380763	0.380807
C56	C	1.182349	-0.047430	0.714140
C57	C	1.515682	0.285904	1.047473
C58	C	0.807706	-0.431258	0.330173
C59	C	1.141039	-0.097924	0.663506
C60	C	1.474372	0.235409	0.996840
C61	C	0.807772	-0.330275	0.431447
C62	C	1.141105	0.003059	0.764780
C63	C	1.474438	0.336392	1.098113
C64	C	0.725226	-0.330281	0.431456
C65	C	1.058559	0.003052	0.764790
C66	C	1.391892	0.336386	1.098123
C67	C	0.683916	-0.380775	0.380822
C68	C	1.017249	-0.047442	0.714156
C69	C	1.350583	0.285891	1.047489
C70	C	0.725152	-0.431264	0.330179
C71	C	1.058486	-0.097930	0.663512
C72	C	1.391819	0.235403	0.996846
C73	C	0.683983	-0.279788	0.482093
C74	C	1.017317	0.053545	0.815426
C75	C	1.350650	0.386879	1.148760
C76	C	0.601432	-0.279792	0.482104
C77	C	0.934766	0.053542	0.815437
C78	C	1.268099	0.386875	1.148771
C79	C	0.560121	-0.330291	0.431473
C80	C	0.893454	0.003043	0.764807
C81	C	1.226788	0.336376	1.098140
C82	C	0.601362	-0.380782	0.380829
C83	C	0.934696	-0.047448	0.714162
C84	C	1.268029	0.285885	1.047495
C85	C	0.560053	-0.431276	0.330195
C86	C	0.893386	-0.097943	0.663528
C87	C	1.226719	0.235391	0.996862
C88	C	0.601293	-0.481772	0.279553
C89	C	0.934626	-0.148438	0.612887
C90	C	1.267959	0.184895	0.946220
C91	C	0.683841	-0.481763	0.279549
C92	C	1.017174	-0.148430	0.612882
C93	C	1.350508	0.184904	0.946215
C94	C	0.477573	-0.330299	0.431478
C95	C	0.810906	0.003034	0.764812
C96	C	1.144239	0.336367	1.098145
C97	C	0.477499	-0.431282	0.330201
C98	C	0.810833	-0.097949	0.663534
C99	C	1.144166	0.235384	0.996868
C100	C	1.142155	-0.586135	0.380787
C101	C	1.475488	-0.252802	0.714120
C102	C	1.808822	0.080532	1.047453
C103	C	1.142192	-0.673991	0.380801
C104	C	1.475525	-0.340658	0.714134
C105	C	1.808858	-0.007325	1.047467
C106	C	1.091624	-0.715274	0.431311
C107	C	1.424958	-0.381941	0.764644
C108	C	1.758291	-0.048607	1.097977
C109	C	1.192798	-0.715262	0.330308
C110	C	1.526132	-0.381929	0.663642
C111	C	1.859465	-0.048596	0.996975
C112	C	1.192838	-0.797808	0.330323
C113	C	1.526171	-0.464475	0.663656
C114	C	1.859504	-0.131142	0.996989
C115	C	1.142270	-0.839091	0.380833
C116	C	1.475604	-0.505757	0.714166
C117	C	1.808937	-0.172424	1.047499
C118	C	1.091664	-0.797828	0.431328
C119	C	1.424997	-0.464494	0.764662
C120	C	1.758330	-0.131161	1.097995
C121	C	1.243449	-0.839078	0.279834
C122	C	1.576782	-0.505744	0.613167
C123	C	1.910115	-0.172411	0.946501
C124	C	1.243491	-0.921629	0.279847
C125	C	1.576824	-0.588295	0.613180
C126	C	1.910157	-0.254962	0.946513
C127	C	1.192919	-0.962913	0.330353
C128	C	1.526252	-0.629579	0.663687
C129	C	1.859585	-0.296246	0.997020
C130	C	1.142310	-0.921644	0.380850
C131	C	1.475643	-0.588311	0.714184
C132	C	1.808976	-0.254978	1.047517
C133	C	1.091742	-0.962927	0.431360
C134	C	1.425076	-0.629594	0.764693
C135	C	1.758409	-0.296260	1.098027
C136	C	1.041129	-0.921660	0.481854
C137	C	1.374462	-0.588327	0.815187
C138	C	1.707795	-0.254993	1.148520
C139	C	1.041092	-0.839112	0.481835
C140	C	1.374425	-0.505778	0.815168
C141	C	1.707759	-0.172445	1.148501
C142	C	1.192955	-1.045461	0.330372
C143	C	1.526289	-0.712128	0.663706
C144	C	1.859622	-0.378794	0.997039
C145	C	1.091782	-1.045480	0.431378
C146	C	1.425115	-0.712147	0.764711
C147	C	1.758448	-0.378814	1.098044
C148	C	1.348406	-0.380786	0.380836
C149	C	1.681740	-0.047453	0.714169
C150	C	2.015073	0.285880	1.047503
C151	C	1.436263	-0.380794	0.380844
C152	C	1.769596	-0.047461	0.714178
C153	C	2.102930	0.285873	1.047511
C154	C	1.142271	-0.380703	0.586984
C155	C	1.475604	-0.047370	0.920317
C156	C	1.808938	0.285964	1.253651
C157	C	1.142285	-0.380675	0.674841
C158	C	1.475619	-0.047342	1.008174
C159	C	1.808952	0.285991	1.341507
C160	C	1.142343	-0.174600	0.380862
C161	C	1.475677	0.158733	0.714196
C162	C	1.809010	0.492066	1.047529
C163	C	1.142388	-0.086744	0.380882
C164	C	1.475721	0.246590	0.714215
C165	C	1.809055	0.579923	1.047549
C166	C	1.142251	-0.380777	0.175450
C167	C	1.475584	-0.047443	0.508783
C168	C	1.808918	0.285890	0.842116
C169	C	1.142390	-0.380582	0.087593
C170	C	1.475723	-0.047249	0.420927
C171	C	1.809057	0.286085	0.754260
C172	C	1.091803	-0.431138	1.046303
C173	C	1.425137	-0.097805	1.379636
C174	C	1.758470	0.235529	1.712969
C175	C	1.192956	-0.330046	1.046330
C176	C	1.526289	0.003288	1.379664
C177	C	1.859623	0.336621	1.712997
C178	C	1.192935	-0.330063	0.963785
C179	C	1.526268	0.003271	1.297118
C180	C	1.859602	0.336604	1.630451
C181	C	1.142348	-0.380619	0.922494
C182	C	1.475681	-0.047285	1.255827
C183	C	1.809015	0.286048	1.589161
C184	C	1.091782	-0.431158	0.963749
C185	C	1.425116	-0.097825	1.297083
C186	C	1.758449	0.235509	1.630416
C187	C	1.243505	-0.279530	0.922523
C188	C	1.576839	0.053804	1.255856
C189	C	1.910172	0.387137	1.589190
C190	C	1.243487	-0.279545	0.839972
C191	C	1.576820	0.053788	1.173305
C192	C	1.910154	0.387122	1.506639
C193	C	1.192896	-0.330098	0.798680
C194	C	1.526229	0.003236	1.132013
C195	C	1.859562	0.336569	1.465347
C196	C	1.142327	-0.380639	0.839940
C197	C	1.475660	-0.047305	1.173274
C198	C	1.808994	0.286028	1.506607
C199	C	1.091740	-0.431195	0.798650
C200	C	1.425074	-0.097861	1.131983
C201	C	1.758407	0.235472	1.465316
C202	C	1.041167	-0.481732	0.839909
C203	C	1.374501	-0.148399	1.173242
C204	C	1.707834	0.184935	1.506575
C205	C	1.041191	-0.481711	0.922457
C206	C	1.374524	-0.148377	1.255790
C207	C	1.707858	0.184956	1.589124
C208	C	1.192872	-0.330119	0.716131
C209	C	1.526205	0.003214	1.049465
C210	C	1.859539	0.336547	1.382798
C211	C	1.091719	-0.431215	0.716096
C212	C	1.425053	-0.097881	1.049429
C213	C	1.758386	0.235452	1.382763
H214	H	0.443871	-0.472405	0.288972
H215	H	0.777204	-0.139072	0.622305
H216	H	1.110537	0.194262	0.955638
H217	H	1.234169	-1.079057	0.289266
H218	H	1.567503	-0.745724	0.622599
H219	H	1.900836	-0.412390	0.955933
F220	F	0.727736	-0.535497	0.225656
F221	F	1.061070	-0.202163	0.558989
F222	F	1.394403	0.131170	0.892322
H223	H	1.284695	-0.238375	0.956148
H224	H	1.618029	0.094959	1.289481
H225	H	1.951362	0.428292	1.622815
F226	F	1.297356	-0.965540	0.226107
F227	F	1.630690	-0.632207	0.559440
F228	F	1.964023	-0.298874	0.892774
H229	H	1.233973	-0.681647	0.289189
H230	H	1.567306	-0.348314	0.622522
H231	H	1.900640	-0.014981	0.955855
H232	H	0.717624	-0.238675	0.523313
H233	H	1.050957	0.094658	0.856647
H234	H	1.384290	0.427992	1.189980
H235	H	1.234050	-0.288975	0.682542
H236	H	1.567383	0.044359	1.015875
H237	H	1.900717	0.377692	1.349209
H238	H	0.567862	-0.238676	0.523340
H239	H	0.901195	0.094657	0.856674
H240	H	1.234529	0.427991	1.190007
F241	F	0.557318	-0.535505	0.225662
F242	F	0.890652	-0.202171	0.558995
F243	F	1.223985	0.131162	0.892329
F244	F	1.037760	-0.671356	0.485046
F245	F	1.371093	-0.338022	0.818380
F246	F	1.704427	-0.004689	1.151713
F247	F	0.987236	-0.795187	0.535575
F248	F	1.320570	-0.461854	0.868908
F249	F	1.653903	-0.128521	1.202241
H250	H	1.000020	-0.522858	0.956057
H251	H	1.333353	-0.189525	1.289391
H252	H	1.666686	0.143809	1.622724
F253	F	0.851738	-0.276536	0.485329
F254	F	1.185071	0.056798	0.818662
F255	F	1.518405	0.390131	1.151996
F256	F	0.851595	-0.484999	0.276282
F257	F	1.184929	-0.151665	0.609616
F258	F	1.518262	0.181668	0.942949
H259	H	0.443999	-0.289181	0.472704
H260	H	0.777332	0.044152	0.806037
H261	H	1.110666	0.377486	1.139370
H262	H	1.050603	-1.079087	0.472510
H263	H	1.383936	-0.745754	0.805843
H264	H	1.717270	-0.412420	1.139176
H265	H	1.050626	-0.472282	1.079899
H266	H	1.383959	-0.138949	1.413233
H267	H	1.717292	0.194385	1.746566
H268	H	0.999960	-0.955283	0.522982
H269	H	1.333294	-0.621950	0.856316
H270	H	1.666627	-0.288616	1.189649
F271	F	1.297268	-0.795138	0.226088
F272	F	1.630602	-0.461805	0.559421
F273	F	1.963935	-0.128472	0.892755
F274	F	1.037873	-0.485021	0.672158
F275	F	1.371206	-0.151687	1.005491
F276	F	1.704539	0.181646	1.338825
F277	F	0.987335	-0.535540	0.795955
F278	F	1.320668	-0.202206	1.129288
F279	F	1.654002	0.131127	1.462621
F280	F	1.246796	-0.276249	1.090277
F281	F	1.580129	0.057084	1.423610
F282	F	1.913463	0.390418	1.756943
H283	H	1.284666	-0.238394	0.806386
H284	H	1.617999	0.094939	1.139719
H285	H	1.951333	0.428273	1.473053
