data_functionalizedCrystal
_audit_creation_method	'MofGen! by Chris Wilmer'
_symmetry_space_group_name_H-M	'P1'
_symmetry_Int_Tables_number	1
_symmetry_cell_setting	triclinic
loop_
_symmetry_equiv_pos_as_xyz
  x,y,z
_cell_length_a	16.992695
_cell_length_b	16.992695
_cell_length_c	7.681187
_cell_angle_alpha	83.880724
_cell_angle_beta	96.135631
_cell_angle_gamma	90.668223
loop_
_atom_site_label
_atom_site_type_symbol
_atom_site_fract_x
_atom_site_fract_y
_atom_site_fract_z
O1	O	0.173901	1.043876	0.146369
O2	O	0.507235	1.377210	0.479703
O3	O	0.840568	1.710543	0.813036
O4	O	0.172071	0.815475	0.146388
O5	O	0.505404	1.148809	0.479722
O6	O	0.838738	1.482142	0.813055
O7	O	0.058785	0.928761	0.146365
O8	O	0.392119	1.262094	0.479698
O9	O	0.725452	1.595428	0.813032
O10	O	0.287187	0.930591	0.146393
O11	O	0.620520	1.263924	0.479726
O12	O	0.953853	1.597257	0.813059
O13	O	0.044805	0.942705	-0.146508
O14	O	0.378139	1.276039	0.186825
O15	O	0.711472	1.609372	0.520158
O16	O	0.158091	0.829420	-0.146485
O17	O	0.491424	1.162753	0.186848
O18	O	0.824757	1.496086	0.520182
O19	O	0.159921	1.057821	-0.146504
O20	O	0.493254	1.391154	0.186830
O21	O	0.826588	1.724487	0.520163
Zn22	Zn	0.156786	0.945834	-0.192994
Zn23	Zn	0.490120	1.279167	0.140339
Zn24	Zn	0.823453	1.612501	0.473672
Zn25	Zn	0.175206	0.927462	0.192879
Zn26	Zn	0.508539	1.260795	0.526212
Zn27	Zn	0.841872	1.594129	0.859545
O28	O	0.273207	0.944535	-0.146481
O29	O	0.606540	1.277868	0.186853
O30	O	0.939873	1.611202	0.520186
C31	C	0.162725	0.793087	-0.000046
C32	C	0.496059	1.126421	0.333287
C33	C	0.829392	1.459754	0.666621
C34	C	0.155697	0.705602	-0.000039
C35	C	0.489030	1.038936	0.333294
C36	C	0.822363	1.372269	0.666627
C37	C	0.022435	0.933377	-0.000071
C38	C	0.355769	1.266711	0.333262
C39	C	0.689102	1.600044	0.666595
C40	C	-0.065049	0.926348	-0.000070
C41	C	0.268284	1.259682	0.333263
C42	C	0.601617	1.593015	0.666596
N43	N	0.144215	0.958378	-0.456342
N44	N	0.477549	1.291712	-0.123009
N45	N	0.810882	1.625045	0.210324
C46	C	-0.111041	0.994167	-0.000078
C47	C	0.222293	1.327500	0.333256
C48	C	0.555626	1.660833	0.666589
C49	C	-0.193240	0.987557	-0.000060
C50	C	0.140093	1.320890	0.333273
C51	C	0.473426	1.654224	0.666606
C52	C	-0.229448	0.913129	-0.000048
C53	C	0.103885	1.246462	0.333285
C54	C	0.437218	1.579795	0.666618
C55	C	-0.183451	0.845305	-0.000036
C56	C	0.149883	1.178639	0.333298
C57	C	0.483216	1.511972	0.666631
C58	C	-0.101252	0.851915	-0.000040
C59	C	0.232082	1.185248	0.333293
C60	C	0.565415	1.518582	0.666626
C61	C	-0.474761	0.885733	-0.000022
C62	C	-0.141428	1.219066	0.333311
C63	C	0.191905	1.552400	0.666645
C64	C	-0.556967	0.879128	-0.000022
C65	C	-0.223633	1.212462	0.333311
C66	C	0.109700	1.545795	0.666644
C67	C	-0.566751	1.021381	-0.000044
C68	C	-0.233417	1.354714	0.333289
C69	C	0.099916	1.688048	0.666623
C70	C	-0.484550	1.027985	-0.000059
C71	C	-0.151217	1.361318	0.333274
C72	C	0.182116	1.694651	0.666607
C73	C	-0.438559	0.960161	-0.000037
C74	C	-0.105226	1.293494	0.333296
C75	C	0.228107	1.626827	0.666629
N76	N	-0.313470	0.906371	-0.000036
N77	N	0.019863	1.239704	0.333297
N78	N	0.353197	1.573038	0.666630
N79	N	-0.354539	0.966919	-0.000037
N80	N	-0.021205	1.300252	0.333297
N81	N	0.312128	1.633585	0.666630
C82	C	0.309557	0.939919	-0.000040
C83	C	0.642890	1.273252	0.333293
C84	C	0.976224	1.606585	0.666626
C85	C	0.397042	0.946947	-0.000030
C86	C	0.730375	1.280280	0.333303
C87	C	1.063709	1.613613	0.666637
C88	C	0.169267	1.080209	-0.000066
C89	C	0.502600	1.413542	0.333268
C90	C	0.835934	1.746875	0.666601
C91	C	0.176296	1.167693	-0.000061
C92	C	0.509629	1.501026	0.333272
C93	C	0.842963	1.834360	0.666606
C94	C	0.108478	1.213684	-0.000063
C95	C	0.441811	1.547017	0.333270
C96	C	0.775145	1.880351	0.666603
C97	C	0.115087	1.295885	-0.000069
C98	C	0.448420	1.629218	0.333265
C99	C	0.781753	1.962552	0.666598
C100	C	0.189515	1.332093	-0.000059
C101	C	0.522848	1.665426	0.333274
C102	C	0.856181	1.998759	0.666607
C103	C	0.257338	1.286096	-0.000062
C104	C	0.590671	1.619429	0.333271
C105	C	0.924004	1.952763	0.666604
C106	C	0.250728	1.203897	-0.000069
C107	C	0.584061	1.537230	0.333264
C108	C	0.917394	1.870564	0.666597
C109	C	0.216910	1.577407	-0.000049
C110	C	0.550243	1.910740	0.333284
C111	C	0.883576	2.244073	0.666617
C112	C	0.223515	1.659611	-0.000037
C113	C	0.556848	1.992945	0.333296
C114	C	0.890182	2.326278	0.666630
C115	C	0.081263	1.669395	-0.000047
C116	C	0.414596	2.002728	0.333287
C117	C	0.747930	2.336062	0.666620
C118	C	0.074660	1.587193	-0.000043
C119	C	0.407993	1.920527	0.333290
C120	C	0.741327	2.253860	0.666624
C121	C	0.142483	1.541204	-0.000055
C122	C	0.475816	1.874538	0.333278
C123	C	0.809149	2.207871	0.666611
N124	N	0.196272	1.416115	-0.000060
N125	N	0.529605	1.749448	0.333274
N126	N	0.862939	2.082782	0.666607
N127	N	0.135724	1.457184	-0.000068
N128	N	0.469057	1.790517	0.333265
N129	N	0.802391	2.123851	0.666599
N130	N	0.187771	0.914923	0.456227
N131	N	0.521104	1.248257	0.789560
N132	N	0.854437	1.581590	1.122894
H133	H	-0.081567	1.054775	-0.000098
H134	H	0.251766	1.388108	0.333235
H135	H	0.585099	1.721441	0.666568
H136	H	0.232214	0.870578	0.531473
H137	H	0.565547	1.203911	0.864806
H138	H	0.898880	1.537244	1.198139
H139	H	0.099775	1.002733	0.468403
H140	H	0.433109	1.336067	0.801736
H141	H	0.766442	1.669400	1.135069
H142	H	-0.230684	1.042782	-0.000070
H143	H	0.102650	1.376116	0.333263
H144	H	0.435983	1.709449	0.666596
H145	H	-0.604205	1.076599	-0.000059
H146	H	-0.270872	1.409932	0.333275
H147	H	0.062462	1.743266	0.666608
Cl148	Cl	-0.439035	1.121553	-0.000017
Cl149	Cl	-0.105702	1.454886	0.333316
Cl150	Cl	0.227631	1.788219	0.666649
H151	H	-0.586445	0.818518	-0.000041
H152	H	-0.253112	1.151852	0.333292
H153	H	0.080221	1.485185	0.666626
Cl154	Cl	-0.416955	0.800467	0.000010
Cl155	Cl	-0.083621	1.133800	0.333344
Cl156	Cl	0.249712	1.467134	0.666677
Cl157	Cl	0.029824	1.353700	-0.000082
Cl158	Cl	0.363158	1.687033	0.333251
Cl159	Cl	0.696491	2.020366	0.666584
H160	H	-0.212937	0.784703	-0.000015
H161	H	0.120396	1.118037	0.333319
H162	H	0.453730	1.451370	0.666652
H163	H	0.026046	1.706848	-0.000039
H164	H	0.359379	2.040181	0.333294
H165	H	0.692713	2.373515	0.666628
Cl166	Cl	-0.043433	0.766654	-0.000024
Cl167	Cl	0.289900	1.099987	0.333309
Cl168	Cl	0.623233	1.433320	0.666642
H169	H	0.047871	1.184209	-0.000060
H170	H	0.381204	1.517543	0.333273
H171	H	0.714538	1.850876	0.666607
Cl172	Cl	0.317089	1.705129	-0.000027
Cl173	Cl	0.650422	2.038462	0.333306
Cl174	Cl	0.983755	2.371795	0.666639
H175	H	0.014053	1.557719	-0.000051
H176	H	0.347386	1.891052	0.333282
H177	H	0.680720	2.224386	0.666616
Cl178	Cl	0.302175	1.519601	-0.000040
Cl179	Cl	0.635508	1.852934	0.333294
Cl180	Cl	0.968841	2.186268	0.666627
Cl181	Cl	0.350905	1.331615	-0.000053
Cl182	Cl	0.684238	1.664948	0.333280
Cl183	Cl	1.017572	1.998281	0.666613
H184	H	0.305952	1.166452	-0.000074
H185	H	0.639286	1.499785	0.333260
H186	H	0.972619	1.833119	0.666593
