data_functionalizedCrystal
_audit_creation_method	'MofGen! by Chris Wilmer'
_symmetry_space_group_name_H-M	'P1'
_symmetry_Int_Tables_number	1
_symmetry_cell_setting	triclinic
loop_
_symmetry_equiv_pos_as_xyz
  x,y,z
_cell_length_a	19.805407
_cell_length_b	12.759394
_cell_length_c	19.805399
_cell_angle_alpha	89.976033
_cell_angle_beta	89.980427
_cell_angle_gamma	90.014837
loop_
_atom_site_label
_atom_site_type_symbol
_atom_site_fract_x
_atom_site_fract_y
_atom_site_fract_z
Zn1	Zn	1.034790	-0.418291	-0.382737
Zn2	Zn	1.034728	-0.593984	-0.269556
Zn3	Zn	0.921605	-0.418320	-0.269561
Zn4	Zn	0.921591	-0.593928	-0.382702
O5	O	0.978178	-0.506131	-0.326139
O6	O	1.129498	-0.441608	-0.367735
O7	O	1.019701	-0.570717	-0.174840
O8	O	0.936651	-0.271295	-0.284591
O9	O	1.129453	-0.570689	-0.284581
O10	O	1.019808	-0.271274	-0.367740
O11	O	0.936590	-0.441658	-0.174844
O12	O	0.826886	-0.441603	-0.284558
O13	O	0.936628	-0.570594	-0.477423
O14	O	0.826876	-0.570622	-0.367682
O15	O	1.019794	-0.441554	-0.477449
O16	O	1.019688	-0.740998	-0.284548
O17	O	0.936567	-0.740957	-0.367676
C18	C	0.802322	-0.506111	-0.326117
C19	C	0.727090	-0.506127	-0.326124
C20	C	0.978138	-0.779098	-0.326123
C21	C	0.978182	-0.895875	-0.326138
C22	C	0.691759	-0.573409	-0.369336
C23	C	0.621070	-0.573411	-0.369346
C24	C	0.585715	-0.506136	-0.326139
C25	C	0.621051	-0.438847	-0.282924
C26	C	0.691739	-0.438841	-0.282919
C27	C	0.335978	-0.438870	-0.282947
C28	C	0.265286	-0.438884	-0.282954
C29	C	0.265310	-0.573440	-0.369374
C30	C	0.335997	-0.573434	-0.369368
C31	C	0.371327	-0.506142	-0.326157
C32	C	0.447976	-0.506139	-0.326148
C33	C	0.509068	-0.506143	-0.326144
C34	C	1.064801	-0.895864	-0.239641
C35	C	1.108128	-0.950720	-0.196401
C36	C	1.108168	-1.060441	-0.196419
C37	C	1.064877	-1.115310	-0.239684
C38	C	1.021550	-1.060455	-0.282925
C39	C	1.021514	-0.950730	-0.282900
C40	C	0.934936	-1.060465	-0.369424
C41	C	0.934892	-0.950744	-0.369403
C42	C	0.891645	-1.115334	-0.412689
C43	C	0.848314	-1.060478	-0.455927
C44	C	0.848275	-0.950750	-0.455906
C45	C	0.891565	-0.895888	-0.412644
C46	C	1.154721	-0.506152	-0.326161
C47	C	1.229953	-0.506161	-0.326171
C48	C	0.978216	-0.506065	-0.502682
C49	C	0.978233	-0.506036	-0.577914
C50	C	0.978238	-0.232097	-0.326170
C51	C	0.978263	-0.115321	-0.326183
C52	C	1.021539	-0.438842	-0.613272
C53	C	1.021545	-0.438811	-0.683961
C54	C	0.978249	-0.505982	-0.719289
C55	C	0.934939	-0.573179	-0.683926
C56	C	0.934929	-0.573203	-0.613239
C57	C	0.934977	-0.573081	-0.969000
C58	C	0.934992	-0.573054	-1.039692
C59	C	1.021594	-0.438689	-1.039721
C60	C	1.021584	-0.438713	-0.969034
C61	C	0.978271	-0.505907	-0.933677
C62	C	0.978263	-0.505937	-0.857028
C63	C	0.978260	-0.505957	-0.795937
C64	C	0.978180	-0.506121	-0.150283
C65	C	0.978295	-0.505853	-0.075051
H66	H	0.720540	-0.628195	-0.404519
C67	C	0.874294	-0.738806	-0.348209
C68	C	0.891526	-0.775280	-0.412618
H69	H	0.874276	-0.664347	-0.348193
H70	H	0.830632	-0.763686	-0.336482
H71	H	0.906295	-0.763636	-0.316270
H72	H	0.859521	-0.750457	-0.444556
H73	H	0.935194	-0.750390	-0.424353
H74	H	0.891683	-1.204675	-0.412704
C75	C	0.243537	-0.751415	-0.402153
C76	C	0.226474	-0.647400	-0.416883
H77	H	0.219559	-0.797072	-0.431481
H78	H	0.290690	-0.761031	-0.408331
H79	H	0.231922	-0.766687	-0.356660
H80	H	0.238093	-0.632126	-0.462375
H81	H	0.179310	-0.637779	-0.410711
C82	C	0.809921	-1.228680	-0.494367
C83	C	0.800732	-1.120790	-0.503478
H84	H	0.780541	-1.265914	-0.523721
H85	H	0.855394	-1.246580	-0.504318
H86	H	0.800046	-1.246715	-0.448882
H87	H	0.810612	-1.102753	-0.548962
H88	H	0.755248	-1.102883	-0.493532
C89	C	0.896457	-0.632898	-0.504865
C90	C	0.887326	-0.647065	-0.574369
H91	H	0.867062	-0.678493	-0.480870
H92	H	0.941923	-0.648289	-0.493290
H93	H	0.886565	-0.562306	-0.493296
H94	H	0.897222	-0.717656	-0.585939
H95	H	0.841850	-0.631682	-0.585948
H96	H	0.236502	-0.384094	-0.247770
C97	C	0.849330	-0.705995	-0.676791
C98	C	0.887345	-0.647014	-0.722757
H99	H	0.819945	-0.751576	-0.700764
H100	H	0.878806	-0.746193	-0.649222
H101	H	0.823446	-0.660214	-0.649221
H102	H	0.913232	-0.692796	-0.750324
H103	H	0.857865	-0.606813	-0.750338
H104	H	1.143452	-1.105105	-0.161213
H105	H	1.056797	-0.384147	-0.584513
C106	C	0.896499	-0.632785	-0.860634
C107	C	0.887373	-0.646946	-0.930140
H108	H	0.867107	-0.678386	-0.836644
H109	H	0.941966	-0.648171	-0.849058
H110	H	0.886604	-0.562195	-0.849063
H111	H	0.897274	-0.717534	-0.941712
H112	H	0.841897	-0.631567	-0.941721
H113	H	0.812996	-0.906092	-0.491120
H114	H	1.056859	-0.383973	-1.068518
H115	H	1.064919	-1.204651	-0.239701
H116	H	1.056811	-0.384097	-0.712746
C117	C	1.054578	-0.260819	-0.947307
C118	C	1.069173	-0.364868	-0.930206
H119	H	1.083955	-0.215226	-0.923334
H120	H	1.060783	-0.251202	-0.994461
H121	H	1.009100	-0.245462	-0.935711
H122	H	1.114649	-0.380228	-0.941806
H123	H	1.062974	-0.374490	-0.883041
C124	C	0.628194	-0.706446	-0.454750
C125	C	0.582234	-0.647386	-0.416836
H126	H	0.604217	-0.752124	-0.484064
H127	H	0.655777	-0.660730	-0.480696
H128	H	0.655751	-0.746554	-0.425199
H129	H	0.554680	-0.607272	-0.446386
H130	H	0.554640	-0.693108	-0.390887
C131	C	0.357806	-0.624832	-0.483921
C132	C	0.374860	-0.647380	-0.416865
H133	H	0.381801	-0.670479	-0.513245
H134	H	0.310656	-0.634471	-0.490105
H135	H	0.369406	-0.554257	-0.493893
H136	H	0.363255	-0.717953	-0.406892
H137	H	0.422019	-0.637750	-0.410679
H138	H	1.064765	-0.806523	-0.239613
H139	H	0.364736	-0.384085	-0.247756
H140	H	0.899732	-0.627754	-1.068454
H141	H	0.720505	-0.384048	-0.247734
C142	C	0.512684	-0.379107	-0.244560
C143	C	0.582190	-0.364892	-0.235432
H144	H	0.488695	-0.333452	-0.215236
H145	H	0.501125	-0.363827	-0.290050
H146	H	0.501093	-0.449680	-0.234572
H147	H	0.593782	-0.294320	-0.245425
H148	H	0.593754	-0.380164	-0.189931
C149	C	1.146526	-0.782516	-0.157952
C150	C	1.155710	-0.890407	-0.148843
H151	H	1.175899	-0.745286	-0.128589
H152	H	1.156406	-0.764476	-0.203428
H153	H	1.101045	-0.764613	-0.148005
H154	H	1.201190	-0.908310	-0.158795
H155	H	1.145835	-0.908453	-0.103357
