data_functionalizedCrystal
_audit_creation_method	'MofGen! by Chris Wilmer'
_symmetry_space_group_name_H-M	'P1'
_symmetry_Int_Tables_number	1
_symmetry_cell_setting	triclinic
loop_
_symmetry_equiv_pos_as_xyz
  x,y,z
_cell_length_a	14.044191
_cell_length_b	16.992694
_cell_length_c	15.455313
_cell_angle_alpha	87.142206
_cell_angle_beta	87.087010
_cell_angle_gamma	88.070000
loop_
_atom_site_label
_atom_site_type_symbol
_atom_site_fract_x
_atom_site_fract_y
_atom_site_fract_z
O1	O	-0.198161	1.057686	-0.072010
O2	O	-0.195943	0.829247	-0.072036
O3	O	-0.058807	0.940035	-0.072025
O4	O	-0.335297	0.946898	-0.072021
O5	O	-0.066614	0.933697	0.072237
O6	O	-0.203750	0.822909	0.072226
O7	O	-0.205968	1.051349	0.072252
Cu8	Cu	-0.205572	0.936550	0.085411
Cu9	Cu	-0.196339	0.944046	-0.085195
O10	O	-0.343104	0.940561	0.072241
C11	C	-0.196995	0.796666	0.000092
C12	C	-0.188485	0.709027	0.000082
C13	C	-0.270582	0.664531	0.000083
C14	C	-0.262583	0.582184	0.000095
C15	C	-0.172484	0.544335	0.000099
C16	C	-0.090381	0.588838	0.000100
C17	C	-0.098382	0.671183	0.000094
C18	C	-0.139323	0.298417	0.000122
C19	C	-0.131328	0.216066	0.000125
C20	C	-0.303530	0.209417	0.000122
C21	C	-0.311523	0.291764	0.000111
C22	C	-0.229420	0.336259	0.000116
N23	N	-0.164305	0.460164	0.000108
N24	N	-0.237601	0.420429	0.000113
C25	C	-0.374742	0.946732	0.000111
C26	C	-0.480647	0.955688	0.000113
C27	C	-0.727361	0.908543	0.000100
C28	C	-0.674544	0.972050	0.000108
C29	C	-0.566650	0.962944	0.000111
C30	C	-0.835265	0.917647	0.000097
C31	C	-0.027169	0.933864	0.000103
C32	C	0.078736	0.924908	0.000096
C33	C	-0.204916	1.083930	0.000122
C34	C	-0.213425	1.171569	0.000127
N35	N	-0.212066	0.931284	0.205406
N36	N	-0.189838	0.949317	-0.205190
C37	C	-0.153830	0.978370	0.250805
C38	C	-0.158751	0.974396	0.341612
C39	C	-0.221913	0.923339	0.387019
C40	C	-0.280151	0.876248	0.341614
C41	C	-0.275225	0.880219	0.250808
C42	C	-0.243150	0.906197	0.658599
C43	C	-0.248074	0.902231	0.749411
C44	C	-0.126672	1.000379	0.749403
C45	C	-0.121755	1.004349	0.658595
C46	C	-0.179990	0.957255	0.613198
N47	N	-0.226946	0.919277	0.479839
N48	N	-0.174951	0.961313	0.520380
H49	H	-0.384890	0.322575	0.000098
C50	C	-0.393835	0.160471	0.000127
H51	H	-0.376171	0.106008	0.000139
H52	H	-0.427804	0.174801	-0.050178
H53	H	-0.433241	0.170398	0.050442
H54	H	-0.710352	1.033262	0.000053
H55	H	-0.102402	1.019950	0.213840
H56	H	-0.331576	0.834672	0.378590
C57	C	-0.678989	0.825860	0.000103
H58	H	-0.611767	0.830510	0.000115
H59	H	-0.694942	0.800233	-0.050202
H60	H	-0.700398	0.795830	0.050418
H61	H	-0.299511	0.860652	0.786378
H62	H	-0.031530	0.707412	0.000092
H63	H	-0.111330	1.012737	0.378575
C64	C	-0.339288	0.828427	0.200870
H65	H	-0.377618	0.797456	0.240916
H66	H	-0.300579	0.794766	0.165453
H67	H	-0.379207	0.861112	0.165440
C68	C	-0.052271	1.060507	0.608654
H69	H	-0.018285	1.087976	0.648698
H70	H	-0.087136	1.097266	0.573221
H71	H	-0.008511	1.030918	0.573241
H72	H	-0.079259	1.038720	0.786374
C73	C	-0.307230	0.854419	0.608669
H74	H	-0.295253	0.864091	0.548085
H75	H	-0.372284	0.866791	0.623554
H76	H	-0.293677	0.800428	0.623554
C77	C	-0.369691	0.706157	0.000079
H78	H	-0.417439	0.667859	0.000090
H79	H	-0.373671	0.740344	-0.050230
H80	H	-0.379115	0.735937	0.050391
H81	H	-0.057956	0.185252	0.000127
C82	C	-0.352890	0.533241	0.000095
H83	H	-0.407693	0.567576	0.000081
H84	H	-0.356077	0.498778	0.050405
H85	H	-0.350621	0.503182	-0.050216
H86	H	-0.017022	0.558015	0.000115
C87	C	-0.049013	0.347351	0.000122
H88	H	0.005790	0.313014	0.000115
H89	H	-0.051275	0.377408	0.050428
H90	H	-0.045829	0.381816	-0.050193
