data_functionalizedCrystal
_audit_creation_method	'MofGen! by Chris Wilmer'
_symmetry_space_group_name_H-M	'P1'
_symmetry_Int_Tables_number	1
_symmetry_cell_setting	triclinic
loop_
_symmetry_equiv_pos_as_xyz
  x,y,z
_cell_length_a	9.065215
_cell_length_b	9.065218
_cell_length_c	18.366186
_cell_angle_alpha	90.003213
_cell_angle_beta	90.008540
_cell_angle_gamma	85.015291
loop_
_atom_site_label
_atom_site_type_symbol
_atom_site_fract_x
_atom_site_fract_y
_atom_site_fract_z
O1	O	1.960414	0.216336	0.060538
O2	O	1.531128	0.234087	0.060541
O3	O	1.754644	0.010569	0.060538
O4	O	1.736898	0.439854	0.060541
O5	O	1.754605	0.010562	-0.060561
O6	O	1.531089	0.234080	-0.060558
O7	O	1.960374	0.216329	-0.060561
Zn8	Zn	1.745726	0.225204	-0.079787
Zn9	Zn	1.745777	0.225213	0.079767
O10	O	1.736859	0.439847	-0.060558
C11	C	1.476122	0.232379	-0.000008
C12	C	1.312279	0.227281	-0.000007
C13	C	1.752919	-0.044421	-0.000011
C14	C	1.747819	-0.208264	-0.000007
C15	C	2.015381	0.218038	-0.000011
C16	C	2.179224	0.223136	-0.000007
C17	C	1.738584	0.494837	-0.000008
C18	C	1.743683	0.658680	-0.000007
N19	N	1.745701	0.225197	-0.188678
C20	C	1.836374	0.315945	-0.226772
C21	C	1.836398	0.315941	-0.303000
C22	C	1.745722	0.225206	-0.341131
C23	C	1.655043	0.134440	-0.303027
C24	C	1.655032	0.134435	-0.226801
C25	C	1.612644	0.219282	-0.461911
C26	C	1.612651	0.219297	-0.538136
C27	C	1.745755	0.225212	-0.576238
C28	C	1.878854	0.231142	-0.538107
C29	C	1.878843	0.231138	-0.461880
C30	C	1.745724	0.225200	-0.423786
C31	C	1.836462	0.315960	-0.696988
C32	C	1.836489	0.315946	-0.773217
C33	C	1.655120	0.134453	-0.773243
C34	C	1.655107	0.134459	-0.697015
C35	C	1.745775	0.225221	-0.658892
N36	N	1.745813	0.225208	0.188658
H37	H	1.910210	0.389844	-0.195738
C38	C	1.936149	0.415775	-0.344913
N39	N	2.011281	0.490971	-0.376479
C40	C	1.555271	0.034610	-0.184896
N41	N	1.480125	-0.040576	-0.153332
H42	H	1.987217	0.235963	-0.430837
C43	C	1.555377	0.034641	-0.815182
N44	N	1.480250	-0.040543	-0.846774
C45	C	1.466240	0.212782	-0.580073
N46	N	1.355959	0.207874	-0.611659
H47	H	1.581264	0.060568	-0.665998
C48	C	1.466209	0.212780	-0.420006
N49	N	1.355918	0.207884	-0.388444
H50	H	1.987239	0.235966	-0.569128
C51	C	1.936213	0.415784	-0.655050
N52	N	2.011349	0.490969	-0.623464
H53	H	1.910336	0.389840	-0.804232
H54	H	1.581215	0.060561	-0.334078
