data_functionalizedCrystal
_audit_creation_method	'MofGen! by Chris Wilmer'
_symmetry_space_group_name_H-M	'P1'
_symmetry_Int_Tables_number	1
_symmetry_cell_setting	triclinic
loop_
_symmetry_equiv_pos_as_xyz
  x,y,z
_cell_length_a	10.654562
_cell_length_b	16.109301
_cell_length_c	15.186229
_cell_angle_alpha	90.005167
_cell_angle_beta	89.993826
_cell_angle_gamma	96.024208
loop_
_atom_site_label
_atom_site_type_symbol
_atom_site_fract_x
_atom_site_fract_y
_atom_site_fract_z
O1	O	1.666245	-0.116823	-0.073290
O2	O	1.300618	-0.127938	-0.073279
O3	O	1.493476	-0.001409	-0.073276
O4	O	1.473387	-0.243351	-0.073293
O5	O	1.493463	-0.001407	0.073182
O6	O	1.300605	-0.127936	0.073178
O7	O	1.666232	-0.116821	0.073168
Zn8	Zn	1.483417	-0.122378	0.096426
Zn9	Zn	1.483434	-0.122381	-0.096538
O10	O	1.473375	-0.243349	0.073164
C11	C	1.253825	-0.127118	-0.000049
C12	C	1.114416	-0.124670	-0.000044
C13	C	1.048893	-0.123527	0.079783
C14	C	0.917902	-0.121233	0.079768
C15	C	0.917967	-0.121229	-0.079908
C16	C	1.048956	-0.123517	-0.079892
C17	C	1.114353	-0.124680	0.159630
C18	C	1.048830	-0.123538	0.239464
C19	C	0.917839	-0.121245	0.239449
C20	C	0.852370	-0.120093	0.159601
C21	C	1.492656	0.029571	-0.000047
C22	C	1.490216	0.121881	-0.000045
C23	C	1.713025	-0.117640	-0.000064
C24	C	1.852435	-0.120089	-0.000075
C25	C	1.474195	-0.274330	-0.000067
C26	C	1.476634	-0.366640	-0.000074
N27	N	1.483414	-0.122376	0.228119
C28	C	1.598981	0.343504	-0.000062
C29	C	1.596679	0.430238	-0.000069
C30	C	1.367860	0.411731	-0.000059
C31	C	1.370164	0.324998	-0.000058
C32	C	1.485728	0.290887	-0.000055
C33	C	1.481122	0.464354	-0.000064
C34	C	1.478626	0.558395	-0.000071
C35	C	1.488225	0.196840	-0.000049
N36	N	1.483446	-0.122376	-0.228230
C37	C	1.568841	-0.066368	0.453843
C38	C	1.568845	-0.066367	0.546033
C39	C	1.398010	-0.178386	0.546039
C40	C	1.398001	-0.178384	0.453851
C41	C	1.483424	-0.122376	0.407756
C42	C	1.483437	-0.122376	0.592133
C43	C	1.483440	-0.122375	0.692089
C44	C	1.483419	-0.122376	0.307793
H45	H	0.745709	-0.118223	0.159596
N46	N	1.119444	-0.124781	0.325578
H47	H	1.086437	-0.175829	0.360472
H48	H	1.106811	-0.072900	0.360415
H49	H	1.693081	0.315734	-0.000062
H50	H	1.221012	-0.126551	0.159651
N51	N	1.718829	0.486991	-0.000066
H52	H	1.722983	0.523383	-0.054359
H53	H	1.792313	0.452162	-0.000029
H54	H	0.864651	-0.120294	-0.144916
H55	H	1.273772	0.439515	-0.000060
N56	N	1.660956	-0.005942	0.404138
H57	H	1.612971	0.031165	0.365905
H58	H	1.716533	-0.038099	0.365925
N59	N	0.847167	-0.120002	0.325549
H60	H	0.908516	-0.121078	0.376131
H61	H	0.782623	-0.170499	0.329015
N62	N	1.248006	0.268240	-0.000057
H63	H	1.174447	0.303008	-0.000053
H64	H	1.243977	0.231854	0.054235
N65	N	1.660990	-0.005971	0.595743
H66	H	1.715105	0.029504	0.552550
H67	H	1.716483	-0.038158	0.633975
N68	N	1.119639	-0.124746	-0.165989
H69	H	1.058295	-0.123674	-0.216574
H70	H	1.163802	-0.177143	-0.169465
H71	H	1.328463	-0.223988	0.583579
H72	H	1.328439	-0.223992	0.416324
