data_functionalizedCrystal
_audit_creation_method	'MofGen! by Chris Wilmer'
_symmetry_space_group_name_H-M	'P1'
_symmetry_Int_Tables_number	1
_symmetry_cell_setting	triclinic
loop_
_symmetry_equiv_pos_as_xyz
  x,y,z
_cell_length_a	26.210047
_cell_length_b	27.732048
_cell_length_c	27.732048
_cell_angle_alpha	82.642655
_cell_angle_beta	89.999521
_cell_angle_gamma	89.996535
loop_
_atom_site_label
_atom_site_type_symbol
_atom_site_fract_x
_atom_site_fract_y
_atom_site_fract_z
O1	O	0.042369	-0.640931	-0.057510
O2	O	0.042385	-0.500138	-0.066256
O3	O	0.042367	-0.574907	0.008514
O4	O	0.042387	-0.566162	-0.132279
O5	O	-0.042491	-0.574893	0.008502
O6	O	-0.042473	-0.500123	-0.066267
O7	O	-0.042489	-0.640917	-0.057522
Cu8	Cu	-0.050229	-0.570519	-0.061896
Cu9	Cu	0.050125	-0.570536	-0.061882
O10	O	-0.042471	-0.566147	-0.132291
C11	C	-0.000042	-0.482124	-0.066078
C12	C	-0.000036	-0.428469	-0.065525
N13	N	-0.120813	-0.570510	-0.061905
C14	C	-0.000064	-0.574716	0.026515
C15	C	-0.000068	-0.574164	0.080170
C16	C	-0.473336	-0.603640	-0.028781
C17	C	-0.686994	-0.603651	-0.028774
O18	O	-0.714623	-0.631801	-0.000614
N19	N	-0.713707	-0.570538	-0.061871
C20	C	-0.687003	-0.537419	-0.094970
O21	O	-0.714626	-0.509251	-0.123117
C22	C	-0.473345	-0.537406	-0.094974
C23	C	-0.446635	-0.570524	-0.061878
C24	C	-0.446625	-0.636755	0.004312
C25	C	-0.393214	-0.636754	0.004308
C26	C	-0.366513	-0.603638	-0.028789
C27	C	-0.393223	-0.570523	-0.061882
C28	C	-0.446641	-0.504284	-0.128070
C29	C	-0.393223	-0.504283	-0.128067
C30	C	-0.366513	-0.537401	-0.094971
C31	C	-0.313111	-0.537405	-0.094983
N32	N	-0.286397	-0.570518	-0.061886
C33	C	-0.313098	-0.603634	-0.028789
C34	C	-0.799176	-0.537428	-0.094966
C35	C	-0.852590	-0.537432	-0.094965
C36	C	-0.852578	-0.603664	-0.028769
C37	C	-0.799163	-0.603662	-0.028773
C38	C	-0.772463	-0.570541	-0.061869
C39	C	-0.200931	-0.603629	-0.028800
C40	C	-0.147514	-0.603626	-0.028808
C41	C	-0.147531	-0.537393	-0.095002
C42	C	-0.200943	-0.537397	-0.094996
C43	C	-0.227641	-0.570517	-0.061891
O44	O	-0.285449	-0.509267	-0.123125
O45	O	-0.285466	-0.631790	-0.000639
C46	C	-0.526747	-0.603641	-0.028777
C47	C	-0.553457	-0.570527	-0.061871
C48	C	-0.526756	-0.537410	-0.094968
C49	C	-0.606872	-0.570530	-0.061870
C50	C	-0.633573	-0.603646	-0.028773
C51	C	-0.606859	-0.636759	0.004323
C52	C	-0.553448	-0.636758	0.004320
C53	C	-0.553470	-0.504298	-0.128064
C54	C	-0.606881	-0.504302	-0.128058
C55	C	-0.633582	-0.537418	-0.094961
N56	N	0.120709	-0.570548	-0.061868
C57	C	-0.000061	-0.658931	-0.057699
C58	C	-0.000064	-0.712586	-0.058252
C59	C	-0.000053	-0.089654	-0.106229
C60	C	-0.000057	0.112006	-0.104178
O61	O	-0.000074	0.143262	-0.141398
N62	N	-0.000063	0.131130	-0.059843
C63	C	-0.000071	0.099835	-0.016017
O64	O	-0.000081	0.120728	0.021740
C65	C	-0.000069	-0.101824	-0.018068
C66	C	-0.000059	-0.120944	-0.062407
C67	C	-0.000043	-0.108775	-0.150563
C68	C	-0.000039	-0.159187	-0.151076
C69	C	-0.000045	-0.190477	-0.107253
C70	C	-0.000055	-0.171356	-0.062919
C71	C	-0.000081	-0.133117	0.025757
C72	C	-0.000082	-0.183535	0.025240
C73	C	-0.000071	-0.202655	-0.019098
C74	C	-0.000057	-0.253059	-0.019609
N75	N	-0.000051	-0.272183	-0.063944
C76	C	-0.000045	-0.240892	-0.107766
C77	C	-0.000070	0.205709	-0.014943
C78	C	-0.000070	0.256124	-0.014430
C79	C	-0.000057	0.268291	-0.102591
C80	C	-0.000054	0.217876	-0.103104
C81	C	-0.000065	0.186585	-0.059278
C82	C	-0.000036	-0.346761	-0.108839
C83	C	-0.000030	-0.397178	-0.109347
C84	C	-0.000045	-0.409341	-0.021186
C85	C	-0.000049	-0.358929	-0.020678
C86	C	-0.000046	-0.327639	-0.064508
O87	O	-0.000046	-0.284343	0.017592
O88	O	-0.000047	-0.261794	-0.145518
C89	C	-0.000057	-0.039242	-0.105716
C90	C	-0.000067	-0.020120	-0.061382
C91	C	-0.000073	-0.051411	-0.017560
C92	C	-0.000066	0.030294	-0.060869
C93	C	-0.000060	0.061585	-0.104691
C94	C	-0.000054	0.042461	-0.149026
C95	C	-0.000050	-0.007951	-0.149539
C96	C	-0.000078	-0.032287	0.026775
C97	C	-0.000082	0.018125	0.027284
C98	C	-0.000076	0.049416	-0.016538
C99	C	-0.000040	-0.566338	-0.150292
C100	C	-0.000032	-0.566891	-0.203947
C101	C	-0.000046	-0.614867	0.418985
C102	C	-0.000039	-0.612816	0.620645
O103	O	-0.000021	-0.650037	0.651900
N104	N	-0.000034	-0.568481	0.639768
C105	C	-0.000028	-0.524656	0.608474
O106	O	-0.000019	-0.486899	0.629367
C107	C	-0.000032	-0.526707	0.406815
C108	C	-0.000042	-0.571045	0.387694
C109	C	-0.000056	-0.659202	0.399864
C110	C	-0.000060	-0.659714	0.349452
C111	C	-0.000056	-0.615892	0.318161
C112	C	-0.000046	-0.571557	0.337282
C113	C	-0.000022	-0.482882	0.375521
C114	C	-0.000022	-0.483399	0.325104
C115	C	-0.000032	-0.527737	0.305983
C116	C	-0.000046	-0.528247	0.255580
N117	N	-0.000051	-0.572583	0.236456
C118	C	-0.000056	-0.616405	0.267747
C119	C	-0.000027	-0.523582	0.714348
C120	C	-0.000027	-0.523069	0.764762
C121	C	-0.000037	-0.611230	0.776930
C122	C	-0.000041	-0.611742	0.726514
C123	C	-0.000032	-0.567917	0.695224
C124	C	-0.000066	-0.617477	0.161878
C125	C	-0.000073	-0.617986	0.111461
C126	C	-0.000060	-0.529825	0.099298
C127	C	-0.000056	-0.529316	0.149710
C128	C	-0.000057	-0.573147	0.180999
O129	O	-0.000059	-0.491047	0.224296
O130	O	-0.000054	-0.654156	0.246844
C131	C	-0.000042	-0.614355	0.469397
C132	C	-0.000033	-0.570021	0.488518
C133	C	-0.000028	-0.526198	0.457228
C134	C	-0.000033	-0.569508	0.538933
C135	C	-0.000037	-0.613330	0.570223
C136	C	-0.000042	-0.657665	0.551100
C137	C	-0.000046	-0.658177	0.500688
C138	C	-0.000023	-0.481863	0.476351
C139	C	-0.000019	-0.481355	0.526764
C140	C	-0.000024	-0.525177	0.558054
H141	H	-0.125768	-0.630597	-0.001858
F142	F	-0.635303	-0.469053	-0.163288
F143	F	-0.881012	-0.502189	-0.130196
F144	F	-0.000053	-0.442651	0.025450
F145	F	-0.000087	0.038469	0.074478
F146	F	-0.475059	-0.469035	-0.163294
H147	H	-0.222662	-0.630598	-0.001842
F148	F	-0.000083	-0.665178	0.091114
H149	H	-0.000090	-0.117558	0.061861
F150	F	-0.119106	-0.502151	-0.130226
H151	H	-0.000079	0.180236	0.020747
H152	H	-0.000048	-0.693347	0.576585
F153	F	-0.000054	-0.705368	0.480345
H154	H	-0.000062	-0.493213	0.165279
F155	F	-0.000044	0.197531	-0.150294
H156	H	-0.371487	-0.477311	-0.155018
H157	H	-0.000030	-0.174750	-0.187180
H158	H	-0.874327	-0.630629	-0.001821
H159	H	-0.531734	-0.477330	-0.155015
H160	H	-0.000058	-0.494146	0.073812
H161	H	-0.000070	0.271687	0.021674
F162	F	-0.770765	-0.502175	-0.130195
H163	H	-0.000016	-0.445246	0.542327
F164	F	-0.000034	-0.313468	-0.155488
H165	H	-0.000091	-0.209009	0.060929
H166	H	-0.000018	-0.446177	0.450879
F167	F	-0.000060	-0.705848	0.433159
H168	H	-0.000039	-0.083302	-0.186251
F169	F	-0.000052	0.301601	-0.149230
H170	H	-0.000085	-0.057760	0.062462
F171	F	-0.000060	-0.338578	0.026511
F172	F	-0.229369	-0.502154	-0.130225
H173	H	-0.371469	-0.663720	0.031259
F174	F	-0.000041	-0.657869	0.810240
F175	F	-0.475035	-0.672004	0.039542
H176	H	-0.777418	-0.630629	-0.001823
F177	F	-0.000017	-0.417524	-0.156540
H178	H	-0.531704	-0.663725	0.031269
F179	F	-0.000011	-0.436752	0.291805
H180	H	-0.000042	-0.023514	-0.185643
F181	F	-0.000026	-0.475878	0.785106
H182	H	-0.628608	-0.663725	0.031271
F183	F	-0.000060	-0.706905	0.329109
F184	F	-0.000045	0.075772	-0.195665
H185	H	-0.000065	-0.653168	0.187348
F186	F	-0.000051	-0.658932	0.706169
F187	F	-0.000018	-0.476933	0.681052
H188	H	-0.000011	-0.446777	0.391080
