data_functionalizedCrystal
_audit_creation_method	'MofGen! by Chris Wilmer'
_symmetry_space_group_name_H-M	'P1'
_symmetry_Int_Tables_number	1
_symmetry_cell_setting	triclinic
loop_
_symmetry_equiv_pos_as_xyz
  x,y,z
_cell_length_a	16.120530
_cell_length_b	18.101395
_cell_length_c	16.120256
_cell_angle_alpha	87.125564
_cell_angle_beta	89.871735
_cell_angle_gamma	87.126665
loop_
_atom_site_label
_atom_site_type_symbol
_atom_site_fract_x
_atom_site_fract_y
_atom_site_fract_z
Zn1	Zn	1.247384	-0.375205	0.534567
Zn2	Zn	1.580717	-0.041871	0.867901
Zn3	Zn	1.914051	0.291462	1.201234
Zn4	Zn	1.254317	-0.493093	0.395509
Zn5	Zn	1.587650	-0.159760	0.728843
Zn6	Zn	1.920984	0.173574	1.062176
Zn7	Zn	1.115376	-0.362686	0.388485
Zn8	Zn	1.448710	-0.029353	0.721818
Zn9	Zn	1.782043	0.303980	1.055152
Zn10	Zn	1.108274	-0.492415	0.527479
Zn11	Zn	1.441607	-0.159081	0.860813
Zn12	Zn	1.774940	0.174252	1.194146
O13	O	1.181338	-0.430850	0.461510
O14	O	1.514671	-0.097516	0.794844
O15	O	1.848004	0.235817	1.128177
O16	O	1.364669	-0.396365	0.522027
O17	O	1.698002	-0.063032	0.855361
O18	O	2.031336	0.270301	1.188694
O19	O	1.241760	-0.470839	0.278212
O20	O	1.575094	-0.137506	0.611545
O21	O	1.908427	0.195827	0.944878
O22	O	1.132958	-0.260718	0.407890
O23	O	1.466292	0.072615	0.741223
O24	O	1.799625	0.405948	1.074556
O25	O	1.369763	-0.482978	0.419862
O26	O	1.703096	-0.149644	0.753195
O27	O	2.036429	0.183689	1.086529
O28	O	1.229944	-0.269915	0.515216
O29	O	1.563277	0.063418	0.848549
O30	O	1.896610	0.396751	1.181883
O31	O	1.139681	-0.375030	0.273051
O32	O	1.473014	-0.041697	0.606384
O33	O	1.806348	0.291637	0.939717
O34	O	0.998069	-0.374372	0.401017
O35	O	1.331402	-0.041039	0.734350
O36	O	1.664735	0.292294	1.067683
O37	O	1.120853	-0.481821	0.644785
O38	O	1.454186	-0.148488	0.978119
O39	O	1.787519	0.184845	1.311452
O40	O	0.992850	-0.469683	0.503135
O41	O	1.326184	-0.136350	0.836468
O42	O	1.659517	0.196984	1.169802
O43	O	1.223057	-0.395708	0.649993
O44	O	1.556390	-0.062374	0.983326
O45	O	1.889723	0.270959	1.316660
O46	O	1.234873	-0.596632	0.412989
O47	O	1.568207	-0.263298	0.746322
O48	O	1.901540	0.070035	1.079656
O49	O	1.127576	-0.596133	0.509947
O50	O	1.460909	-0.262800	0.843280
O51	O	1.794242	0.070533	1.176613
C52	C	0.965287	-0.420596	0.450545
C53	C	1.298620	-0.087263	0.783878
C54	C	1.631954	0.246070	1.117212
C55	C	0.872859	-0.416229	0.445874
C56	C	1.206192	-0.082895	0.779207
C57	C	1.539525	0.250438	1.112540
C58	C	0.703630	-0.408237	0.437352
C59	C	1.036964	-0.074904	0.770685
C60	C	1.370297	0.258430	1.104019
C61	C	0.659882	-0.453519	0.485729
C62	C	0.993216	-0.120186	0.819062
C63	C	1.326549	0.213147	1.152396
C64	C	0.565718	-0.449073	0.480988
C65	C	0.899051	-0.115740	0.814321
C66	C	1.232385	0.217594	1.147654
C67	C	0.797803	-0.412683	0.442092
C68	C	1.131137	-0.079349	0.775426
C69	C	1.464470	0.253984	1.108759
C70	C	1.181228	-0.623254	0.461480
C71	C	1.514561	-0.289921	0.794814
C72	C	1.847894	0.043413	1.128147
C73	C	1.181255	-0.705570	0.461499
C74	C	1.514589	-0.372237	0.794832
C75	C	1.847922	-0.038903	1.128166
C76	C	1.181435	-1.004672	0.461553
C77	C	1.514769	-0.671338	0.794886
C78	C	1.848102	-0.338005	1.128220
C79	C	1.114068	-0.973078	0.522723
C80	C	1.447401	-0.639744	0.856057
C81	C	1.780734	-0.306411	1.189390
C82	C	1.113773	-0.887437	0.522506
C83	C	1.447107	-0.554103	0.855840
C84	C	1.780440	-0.220770	1.189173
C85	C	1.181346	-0.856284	0.461527
C86	C	1.514679	-0.522951	0.794860
C87	C	1.848013	-0.189617	1.128194
C88	C	1.162064	-0.882558	0.372687
C89	C	1.495397	-0.549225	0.706021
C90	C	1.828731	-0.215892	1.039354
C91	C	1.161631	-0.968200	0.373052
C92	C	1.494965	-0.634867	0.706385
C93	C	1.828298	-0.301534	1.039718
C94	C	1.268265	-0.978145	0.488458
C95	C	1.601598	-0.644812	0.821792
C96	C	1.934931	-0.311478	1.155125
C97	C	1.267650	-0.892552	0.490354
C98	C	1.600983	-0.559219	0.823687
C99	C	1.934317	-0.225885	1.157021
C100	C	1.181297	-0.772421	0.461507
C101	C	1.514630	-0.439088	0.794840
C102	C	1.847964	-0.105755	1.128174
C103	C	1.181483	-1.088534	0.461567
C104	C	1.514816	-0.755200	0.794900
C105	C	1.848149	-0.421867	1.128234
C106	C	1.398232	-0.441144	0.472519
C107	C	1.731565	-0.107810	0.805852
C108	C	2.064898	0.225523	1.139186
C109	C	1.490659	-0.445530	0.477210
C110	C	1.823993	-0.112197	0.810544
C111	C	2.157326	0.221136	1.143877
C112	C	1.170389	-0.440085	0.678405
C113	C	1.503722	-0.106752	1.011739
C114	C	1.837056	0.226581	1.345072
C115	C	1.165723	-0.444021	0.770833
C116	C	1.499057	-0.110688	1.104166
C117	C	1.832390	0.222646	1.437500
C118	C	1.181470	-0.237696	0.461560
C119	C	1.514803	0.095637	0.794893
C120	C	1.848137	0.428971	1.128227
C121	C	1.181526	-0.155385	0.461581
C122	C	1.514860	0.177948	0.794914
C123	C	1.848193	0.511281	1.128248
C124	C	1.192292	-0.421599	0.245461
C125	C	1.525625	-0.088266	0.578795
C126	C	1.858958	0.245068	0.912128
C127	C	1.197118	-0.417462	0.153042
C128	C	1.530452	-0.084129	0.486376
C129	C	1.863785	0.249204	0.819709
C130	C	1.205667	-0.410307	0.983817
C131	C	1.539000	-0.076973	1.317150
C132	C	1.872334	0.256360	1.650484
C133	C	1.157177	-0.451174	0.940053
C134	C	1.490510	-0.117841	1.273387
C135	C	1.823844	0.215492	1.606720
C136	C	1.161934	-0.447193	0.845890
C137	C	1.495267	-0.113860	1.179224
C138	C	1.828600	0.219474	1.512557
C139	C	1.200912	-0.414287	1.077988
C140	C	1.534245	-0.080954	1.411322
C141	C	1.867578	0.252380	1.744655
H142	H	1.125322	-0.869858	0.588241
H143	H	1.458655	-0.536525	0.921574
H144	H	1.791989	-0.203192	1.254908
F145	F	1.286763	-0.870655	0.575841
F146	F	1.620097	-0.537322	0.909174
F147	F	1.953430	-0.203988	1.242508
H148	H	0.670366	-0.366134	0.392377
H149	H	1.003700	-0.032801	0.725711
H150	H	1.337033	0.300532	1.059044
F151	F	1.098247	-0.500816	0.983512
F152	F	1.431580	-0.167482	1.316846
F153	F	1.764913	0.165851	1.650179
F154	F	1.264585	-0.360662	0.940358
F155	F	1.597919	-0.027328	1.273691
F156	F	1.931252	0.306005	1.607024
F157	F	1.223292	-0.995270	0.311131
F158	F	1.556625	-0.661937	0.644464
F159	F	1.889958	-0.328603	0.977798
F160	F	1.128952	-1.004495	0.608910
F161	F	1.462286	-0.671162	0.942244
F162	F	1.795619	-0.337828	1.275577
F163	F	1.030334	-0.996470	0.499255
F164	F	1.363668	-0.663137	0.832588
F165	F	1.697001	-0.329803	1.165922
H166	H	1.049324	-0.863287	0.504333
H167	H	1.382657	-0.529953	0.837666
H168	H	1.715990	-0.196620	1.171000
F169	F	1.078842	-0.989353	0.343938
F170	F	1.412176	-0.656020	0.677272
F171	F	1.745509	-0.322686	1.010605
F172	F	0.703361	-0.508552	0.544524
F173	F	1.036694	-0.175219	0.877857
F174	F	1.370027	0.158114	1.211191
F175	F	1.292375	-1.011165	0.571996
F176	F	1.625709	-0.677831	0.905330
F177	F	1.959042	-0.344498	1.238663
H178	H	1.209784	-0.862220	0.325673
H179	H	1.543117	-0.528886	0.659007
H180	H	1.876450	-0.195553	0.992340
H181	H	1.099423	-0.857330	0.350107
H182	H	1.432756	-0.523996	0.683440
H183	H	1.766090	-0.190663	1.016773
H184	H	1.320141	-0.871660	0.449403
H185	H	1.653474	-0.538326	0.782736
H186	H	1.986808	-0.204993	1.116069
H187	H	1.318402	-0.998649	0.443960
H188	H	1.651735	-0.665316	0.777293
H189	H	1.985068	-0.331983	1.110627
