data_functionalizedCrystal
_audit_creation_method	'MofGen! by Chris Wilmer'
_symmetry_space_group_name_H-M	'P1'
_symmetry_Int_Tables_number	1
_symmetry_cell_setting	triclinic
loop_
_symmetry_equiv_pos_as_xyz
  x,y,z
_cell_length_a	12.759401
_cell_length_b	13.897441
_cell_length_c	12.759399
_cell_angle_alpha	89.970767
_cell_angle_beta	90.015542
_cell_angle_gamma	89.981179
loop_
_atom_site_label
_atom_site_type_symbol
_atom_site_fract_x
_atom_site_fract_y
_atom_site_fract_z
Zn1	Zn	1.606254	-0.545341	-0.418221
Zn2	Zn	1.939588	-0.212008	-0.084888
Zn3	Zn	2.272921	0.121326	0.248446
Zn4	Zn	1.606147	-0.384046	-0.593931
Zn5	Zn	1.939480	-0.050713	-0.260598
Zn6	Zn	2.272814	0.282620	0.072735
Zn7	Zn	1.430556	-0.384065	-0.418268
Zn8	Zn	1.763889	-0.050732	-0.084935
Zn9	Zn	2.097222	0.282602	0.248398
Zn10	Zn	1.430544	-0.545304	-0.593860
Zn11	Zn	1.763877	-0.211971	-0.260526
Zn12	Zn	2.097210	0.121362	0.072807
O13	O	1.518375	-0.464689	-0.506070
O14	O	1.851709	-0.131356	-0.172737
O15	O	2.185042	0.201977	0.160597
O16	O	1.753261	-0.523953	-0.441539
O17	O	2.086595	-0.190619	-0.108206
O18	O	2.419928	0.142714	0.225127
O19	O	1.582814	-0.249067	-0.570679
O20	O	1.916148	0.084266	-0.237346
O21	O	2.249481	0.417600	0.095988
O22	O	1.453913	-0.405482	-0.271241
O23	O	1.787246	-0.072148	0.062092
O24	O	2.120579	0.261185	0.395426
O25	O	1.753182	-0.405450	-0.570633
O26	O	2.086515	-0.072117	-0.237300
O27	O	2.419849	0.261217	0.096034
O28	O	1.582998	-0.523971	-0.271206
O29	O	1.916331	-0.190637	0.062127
O30	O	2.249664	0.142696	0.395461
O31	O	1.453808	-0.249081	-0.441620
O32	O	1.787142	0.084253	-0.108287
O33	O	2.120475	0.417586	0.225046
O34	O	1.283533	-0.405446	-0.441551
O35	O	1.616867	-0.072113	-0.108217
O36	O	1.950200	0.261221	0.225116
O37	O	1.453892	-0.680291	-0.570511
O38	O	1.787225	-0.346958	-0.237178
O39	O	2.120559	-0.013624	0.096156
O40	O	1.283524	-0.523908	-0.570557
O41	O	1.616858	-0.190575	-0.237224
O42	O	1.950191	0.142759	0.096110
O43	O	1.582986	-0.680318	-0.441470
O44	O	1.916319	-0.346985	-0.108137
O45	O	2.249653	-0.013651	0.225197
O46	O	1.582803	-0.405414	-0.740943
O47	O	1.916136	-0.072081	-0.407610
O48	O	2.249469	0.261252	-0.074276
O49	O	1.453788	-0.523890	-0.740890
O50	O	1.787121	-0.190557	-0.407557
O51	O	2.120455	0.142777	-0.074224
C52	C	1.245408	-0.464676	-0.506052
C53	C	1.578741	-0.131342	-0.172719
C54	C	1.912075	0.201991	0.160615
C55	C	1.128631	-0.464693	-0.506070
C56	C	1.461965	-0.131359	-0.172736
C57	C	1.795298	0.201974	0.160597
C58	C	1.073811	-0.526492	-0.438972
C59	C	1.407144	-0.193159	-0.105639
C60	C	1.740478	0.140175	0.227695
C61	C	0.964087	-0.526498	-0.438983
C62	C	1.297420	-0.193165	-0.105649
C63	C	1.630754	0.140168	0.227684
C64	C	0.964013	-0.402903	-0.573198
C65	C	1.297346	-0.069570	-0.239864
C66	C	1.630680	0.263763	0.093469
C67	C	1.073735	-0.402893	-0.573181
C68	C	1.407068	-0.069559	-0.239847
C69	C	1.740402	0.263774	0.093486
C70	C	1.518450	-0.716282	-0.505977
C71	C	1.851783	-0.382949	-0.172644
C72	C	2.185116	-0.049616	0.160689
C73	C	1.518482	-0.823496	-0.505938
C74	C	1.851815	-0.490163	-0.172604
C75	C	2.185148	-0.156830	0.160729
C76	C	1.518510	-1.019792	-0.505867
C77	C	1.851843	-0.686458	-0.172533
C78	C	2.185177	-0.353125	0.160800
C79	C	1.518491	-0.910559	-0.505909
C80	C	1.851824	-0.577226	-0.172576
C81	C	2.185158	-0.243892	0.160758
C82	C	1.792408	-0.464703	-0.506089
C83	C	2.125742	-0.131370	-0.172756
C84	C	2.459075	0.201963	0.160578
C85	C	1.909185	-0.464709	-0.506097
C86	C	2.242518	-0.131376	-0.172764
C87	C	2.575852	0.201957	0.160570
C88	C	1.518311	-0.464667	-0.779037
C89	C	1.851644	-0.131334	-0.445704
C90	C	2.184977	0.201999	-0.112371
C91	C	1.518379	-0.464690	-0.895814
C92	C	1.851713	-0.131357	-0.562481
C93	C	2.185046	0.201977	-0.229147
C94	C	1.518361	-0.214075	-0.506087
C95	C	1.851695	0.119258	-0.172753
C96	C	2.185028	0.452592	0.160580
C97	C	1.518533	-0.106861	-0.505830
C98	C	1.851867	0.226472	-0.172497
C99	C	2.185200	0.559805	0.160836
C100	C	1.585634	-0.403070	-0.950668
C101	C	1.918967	-0.069737	-0.617335
C102	C	2.252301	0.263597	-0.284002
C103	C	1.585702	-0.403102	-1.060392
C104	C	1.919035	-0.069769	-0.727059
C105	C	2.252368	0.263564	-0.393726
C106	C	1.451251	-0.526378	-1.060398
C107	C	1.784584	-0.193044	-0.727065
C108	C	2.117917	0.140289	-0.393731
C109	C	1.451189	-0.526349	-0.950676
C110	C	1.784523	-0.193016	-0.617343
C111	C	2.117856	0.140317	-0.284009
C112	C	1.518468	-0.464732	-0.232037
C113	C	1.851802	-0.131399	0.101297
C114	C	2.185135	0.201934	0.434630
C115	C	1.518508	-0.464751	-0.115260
C116	C	1.851842	-0.131417	0.218073
C117	C	2.185175	0.201916	0.551407
H118	H	0.919457	-0.576820	-0.384343
H119	H	1.252791	-0.243487	-0.051010
H120	H	1.586124	0.089846	0.282323
H121	H	1.396545	-0.576577	-1.105080
H122	H	1.729879	-0.243244	-0.771747
H123	H	2.063212	0.090090	-0.438413
Br124	Br	1.148141	-0.319002	-0.664234
Br125	Br	1.481474	0.014331	-0.330901
Br126	Br	1.814808	0.347664	0.002433
Br127	Br	1.676986	-0.319477	-1.134834
Br128	Br	2.010319	0.013857	-0.801501
Br129	Br	2.343652	0.347190	-0.468168
Br130	Br	1.676821	-0.319391	-0.876216
Br131	Br	2.010154	0.013943	-0.542883
Br132	Br	2.343487	0.347276	-0.209549
H133	H	1.396422	-0.576532	-0.906010
H134	H	1.729756	-0.243199	-0.572677
H135	H	2.063089	0.090134	-0.239344
H136	H	1.118504	-0.576810	-0.384322
H137	H	1.451838	-0.243477	-0.050989
H138	H	1.785171	0.089856	0.282344
H139	H	0.919303	-0.352589	-0.627838
H140	H	1.252636	-0.019256	-0.294505
H141	H	1.585970	0.314078	0.038828
