data_functionalizedCrystal
_audit_creation_method	'MofGen! by Chris Wilmer'
_symmetry_space_group_name_H-M	'P1'
_symmetry_Int_Tables_number	1
_symmetry_cell_setting	triclinic
loop_
_symmetry_equiv_pos_as_xyz
  x,y,z
_cell_length_a	16.120530
_cell_length_b	15.297327
_cell_length_c	15.297908
_cell_angle_alpha	69.244266
_cell_angle_beta	77.961292
_cell_angle_gamma	82.677776
loop_
_atom_site_label
_atom_site_type_symbol
_atom_site_fract_x
_atom_site_fract_y
_atom_site_fract_z
Zn1	Zn	1.295017	0.547256	-0.675703
Zn2	Zn	1.253782	0.673134	-0.544358
Zn3	Zn	1.135047	0.509754	-0.509610
Zn4	Zn	1.134989	0.692092	-0.691934
O5	O	1.204709	0.605559	-0.605401
O6	O	1.406210	0.571715	-0.666029
O7	O	1.220799	0.627833	-0.408478
O8	O	1.173549	0.385739	-0.510307
O9	O	1.375915	0.664197	-0.569531
O10	O	1.291078	0.413291	-0.632335
O11	O	1.133566	0.507798	-0.382948
O12	O	1.018377	0.526180	-0.526046
O13	O	1.173449	0.696508	-0.821052
O14	O	1.018334	0.660144	-0.659999
O15	O	1.291021	0.590097	-0.809127
O16	O	1.220743	0.804639	-0.585270
O17	O	1.133466	0.818567	-0.693693
C18	C	1.172649	0.845054	-0.645035
C19	C	1.159014	0.947521	-0.662027
C20	C	0.988106	0.591150	-0.591014
C21	C	0.895442	0.585013	-0.584884
C22	C	1.236828	0.649600	-0.850078
C23	C	1.250515	0.668368	-0.954345
C24	C	0.725788	0.573787	-0.573699
C25	C	0.684470	0.637412	-0.637183
C26	C	0.590069	0.631165	-0.630960
C27	C	0.820198	0.580031	-0.579921
C28	C	1.422158	0.620024	-0.619846
C29	C	1.514821	0.626189	-0.626001
C30	C	1.236919	0.365134	-0.565634
C31	C	1.250646	0.262679	-0.548688
C32	C	1.302546	1.207270	-0.484299
C33	C	1.315356	1.110996	-0.468329
C34	C	1.276272	1.070123	-0.516753
C35	C	1.224375	1.125533	-0.581148
C36	C	1.211559	1.221816	-0.597114
C37	C	1.185284	1.084668	-0.629567
C38	C	1.133387	1.140078	-0.693963
C39	C	1.120574	1.236351	-0.709926
C40	C	1.159658	1.277225	-0.661503
C41	C	1.198101	0.988385	-0.613602
C42	C	1.107113	1.002930	-0.726416
C43	C	1.094303	1.099205	-0.742386
C44	C	1.107433	0.471292	-1.195097
C45	C	1.094575	0.453650	-1.097132
C46	C	1.133559	0.507328	-1.061430
C47	C	1.185403	0.578651	-1.123704
C48	C	1.198267	0.596290	-1.221678
C49	C	1.224393	0.632326	-1.088011
C50	C	1.276237	0.703649	-1.150284
C51	C	1.289098	0.721286	-1.248249
C52	C	1.250114	0.667607	-1.283950
C53	C	1.211529	0.614687	-0.990037
C54	C	1.302363	0.739685	-1.016618
C55	C	1.315220	0.757327	-1.114583
C56	C	1.172771	0.561626	-0.361668
C57	C	1.159280	0.542609	-0.257370
H58	H	0.719995	0.696573	-0.696210
H59	H	1.169319	0.556614	-0.939343
O60	O	1.120947	0.490101	-0.966245
C61	C	1.066845	0.415626	-0.918935
H62	H	1.027284	0.409635	-0.970025
H63	H	1.106628	0.347487	-0.892628
C64	C	1.056037	0.441771	-0.771028
C65	C	1.007442	0.434418	-0.833775
H66	H	1.019397	0.453359	-0.718495
H67	H	1.092489	0.491944	-0.802900
H68	H	1.089187	0.384986	-0.749116
H69	H	0.974302	0.491206	-0.855695
H70	H	0.970983	0.384254	-0.801905
H71	H	1.075285	0.969652	-0.765845
O72	O	1.069437	0.419174	-1.229677
C73	C	0.980503	0.429493	-1.203581
H74	H	0.964678	0.452002	-1.138191
H75	H	0.953316	0.484943	-1.264693
C76	C	0.960894	0.307811	-1.261166
C77	C	0.941457	0.335449	-1.180848
H78	H	0.936807	0.249802	-1.247147
H79	H	1.020810	0.300860	-1.278750
H80	H	0.938237	0.354027	-1.312085
H81	H	0.964123	0.289239	-1.129934
H82	H	0.881543	0.342389	-1.163254
H83	H	1.052364	0.395579	-1.046436
O84	O	1.365640	1.057110	-0.405668
C85	C	1.317668	0.987408	-0.332676
H86	H	1.247372	1.011067	-0.327286
H87	H	1.328298	0.919459	-0.349380
C88	C	1.432202	0.942041	-0.244277
C89	C	1.345865	0.971102	-0.237652
H90	H	1.449597	0.931978	-0.185663
H91	H	1.464524	0.988998	-0.293455
H92	H	1.441050	0.885420	-0.258201
H93	H	1.337020	1.027728	-0.223741
H94	H	1.313542	0.924154	-0.188470
H95	H	0.690266	0.514630	-0.514678
H96	H	1.334357	1.240558	-0.444874
H97	H	1.331320	0.779355	-1.298950
O98	O	1.248441	0.934642	-0.550940
C99	C	1.214859	0.940165	-0.460129
H100	H	1.173242	1.007613	-0.467627
H101	H	1.175074	0.877488	-0.416673
C102	C	1.339251	0.856914	-0.400299
C103	C	1.288142	0.939759	-0.409508
H104	H	1.384454	0.856659	-0.369071
H105	H	1.361875	0.853190	-0.461478
H106	H	1.306087	0.804692	-0.364088
H107	H	1.321304	0.991978	-0.445729
H108	H	1.265525	0.943492	-0.348334
H109	H	1.286704	0.991731	-0.503745
H110	H	1.052048	1.144333	-0.794817
O111	O	1.340140	0.791775	-0.981794
C112	C	1.317684	0.760900	-0.881970
H113	H	1.255635	0.724022	-0.859328
H114	H	1.370060	0.710099	-0.849333
C115	C	1.382429	0.890911	-0.875408
C116	C	1.306216	0.845623	-0.847600
H117	H	1.375359	0.943171	-0.854206
H118	H	1.397562	0.911711	-0.942661
H119	H	1.426069	0.848567	-0.848208
H120	H	1.262582	0.887964	-0.874809
H121	H	1.291076	0.824833	-0.780350
H122	H	1.149234	1.355619	-0.674504
H123	H	1.078305	1.281462	-0.762349
H124	H	1.260574	0.681973	-1.363721
H125	H	1.357433	0.815399	-1.165299
