data_functionalizedCrystal
_audit_creation_method	'MofGen! by Chris Wilmer'
_symmetry_space_group_name_H-M	'P1'
_symmetry_Int_Tables_number	1
_symmetry_cell_setting	triclinic
loop_
_symmetry_equiv_pos_as_xyz
  x,y,z
_cell_length_a	19.188930
_cell_length_b	23.532407
_cell_length_c	17.666332
_cell_angle_alpha	89.988854
_cell_angle_beta	89.976766
_cell_angle_gamma	82.996728
loop_
_atom_site_label
_atom_site_type_symbol
_atom_site_fract_x
_atom_site_fract_y
_atom_site_fract_z
O1	O	0.925923	0.071102	-0.063199
O2	O	0.722581	0.080673	-0.063148
O3	O	0.830384	-0.007031	-0.063161
O4	O	0.818120	0.158806	-0.063186
O5	O	0.830365	-0.007036	0.062735
O6	O	0.722562	0.080669	0.062748
O7	O	0.925904	0.071097	0.062697
Cu8	Cu	0.824231	0.075883	0.074218
Cu9	Cu	0.824253	0.075888	-0.074669
O10	O	0.818101	0.158802	0.062711
C11	C	0.696561	0.080361	-0.000193
C12	C	0.619060	0.079431	-0.000173
C13	C	0.573972	0.130893	-0.000193
C14	C	0.501151	0.130019	-0.000201
C15	C	0.473421	0.077680	-0.000205
C16	C	0.518519	0.026211	-0.000181
C17	C	0.591339	0.027086	-0.000165
N18	N	0.365575	0.037674	-0.043078
N19	N	0.296399	0.036846	-0.043094
C20	C	0.254021	0.075038	-0.000251
N21	N	0.283431	0.114099	0.042600
N22	N	0.352613	0.114929	0.042614
C23	C	0.394462	0.076724	-0.000222
C24	C	0.129971	0.125556	-0.000278
C25	C	0.057149	0.124680	-0.000282
C26	C	0.074520	0.020870	-0.000269
C27	C	0.147340	0.021748	-0.000258
C28	C	0.175061	0.074092	-0.000266
C29	C	0.830062	-0.028250	-0.000211
C30	C	0.829123	-0.091469	-0.000205
C31	C	0.887029	-0.490449	-0.000261
C32	C	0.886157	-0.549851	-0.000267
O33	O	0.939837	-0.586482	-0.000308
N34	N	0.822068	-0.572613	-0.000250
C35	C	0.758848	-0.535970	-0.000236
O36	O	0.704255	-0.560786	-0.000223
C37	C	0.759721	-0.476569	-0.000235
C38	C	0.823814	-0.453810	-0.000244
C39	C	0.951117	-0.467690	-0.000271
C40	C	0.951989	-0.408292	-0.000264
C41	C	0.888773	-0.371653	-0.000247
C42	C	0.824685	-0.394412	-0.000237
C43	C	0.696501	-0.439927	-0.000226
C44	C	0.697379	-0.380523	-0.000227
C45	C	0.761472	-0.357764	-0.000236
C46	C	0.762342	-0.298376	-0.000214
N47	N	0.826430	-0.275614	-0.000230
C48	C	0.889646	-0.312252	-0.000247
C49	C	0.757019	-0.660717	-0.000237
C50	C	0.756146	-0.720116	-0.000232
C51	C	0.883455	-0.733993	-0.000264
C52	C	0.884328	-0.674592	-0.000264
C53	C	0.821108	-0.637954	-0.000254
C54	C	0.891472	-0.187512	-0.000232
C55	C	0.892339	-0.128108	-0.000222
C56	C	0.765029	-0.114236	-0.000193
C57	C	0.764163	-0.173634	-0.000199
C58	C	0.827390	-0.210272	-0.000221
O59	O	0.708690	-0.261710	-0.000176
O60	O	0.944230	-0.287428	-0.000270
C61	C	0.951923	0.071410	-0.000259
C62	C	1.029425	0.072340	-0.000284
C63	C	0.818423	0.180021	-0.000241
C64	C	0.819362	0.243240	-0.000252
N65	N	0.824221	0.075878	0.178938
N66	N	0.824270	0.075888	-0.179389
C67	C	0.871971	0.037062	0.218542
C68	C	0.871975	0.037059	0.297789
C69	C	0.824236	0.075883	0.337430
C70	C	0.776476	0.114702	0.297816
C71	C	0.776469	0.114700	0.218570
N72	N	0.814998	0.126298	0.461842
N73	N	0.815010	0.126298	0.537123
C74	C	0.824254	0.075891	0.576194
N75	N	0.833500	0.025481	0.537141
N76	N	0.833493	0.025482	0.461853
C77	C	0.824238	0.075889	0.423359
C78	C	0.872011	0.037068	0.701727
C79	C	0.872010	0.037064	0.780976
C80	C	0.776515	0.114713	0.781002
C81	C	0.776512	0.114711	0.701754
C82	C	0.824264	0.075889	0.662122
H83	H	0.628050	-0.014822	-0.000150
H84	H	0.942958	-0.217335	-0.000252
H85	H	0.737605	0.146312	0.330096
H86	H	0.944533	-0.109581	-0.000227
H87	H	1.004180	-0.389768	-0.000274
C88	C	0.953894	-0.649854	-0.000126
C89	C	0.958120	-0.616177	0.064651
C90	C	1.022201	-0.593389	0.064807
H91	H	0.956960	-0.626928	-0.043980
H92	H	0.991435	-0.680172	-0.000094
H93	H	0.920590	-0.585863	0.064612
H94	H	0.955067	-0.639090	0.108516
H95	H	1.059741	-0.623707	0.064839
H96	H	1.025260	-0.570465	0.020951
H97	H	1.025079	-0.570541	0.108761
H98	H	0.737642	0.146321	0.813277
C99	C	0.923879	-0.005148	0.658828
C100	C	0.965682	-0.039158	0.710478
C101	C	1.013463	-0.078059	0.670990
H102	H	0.952865	0.015213	0.627891
H103	H	0.898944	-0.028836	0.627950
H104	H	0.990615	-0.015473	0.741343
H105	H	0.936716	-0.059532	0.741417
H106	H	0.988529	-0.101747	0.640111
H107	H	1.042444	-0.057694	0.640054
H108	H	1.041828	-0.101143	0.706028
H109	H	1.002598	-0.497516	-0.000287
C110	C	0.724642	0.156925	0.658887
C111	C	0.682845	0.190936	0.710561
C112	C	0.635058	0.229835	0.671100
H113	H	0.695653	0.136563	0.627992
H114	H	0.749572	0.180613	0.627969
H115	H	0.657917	0.167251	0.741466
H116	H	0.711815	0.211310	0.741458
H117	H	0.659987	0.253522	0.640182
H118	H	0.606073	0.209468	0.640207
H119	H	0.606697	0.252919	0.706155
H120	H	0.596537	0.173516	-0.000201
C121	C	0.724595	0.156913	0.175704
C122	C	0.682795	0.190923	0.227376
C123	C	0.635008	0.229822	0.187914
H124	H	0.695608	0.136551	0.144806
H125	H	0.749525	0.180602	0.144788
H126	H	0.657866	0.167237	0.258279
H127	H	0.711763	0.211297	0.258275
H128	H	0.659939	0.253510	0.156998
H129	H	0.606026	0.209455	0.157018
H130	H	0.606645	0.252905	0.222968
H131	H	0.713561	-0.084394	-0.000177
C132	C	0.488456	-0.030633	-0.000032
C133	C	0.511355	-0.061729	0.064757
C134	C	0.483669	-0.114095	0.064928
H135	H	0.503966	-0.051882	-0.043878
H136	H	0.438627	-0.023808	-0.000006
H137	H	0.561174	-0.068555	0.064724
H138	H	0.495846	-0.040497	0.108613
H139	H	0.433840	-0.107270	0.064954
H140	H	0.499181	-0.135339	0.021080
H141	H	0.499197	-0.135198	0.108890
C142	C	0.159939	0.182443	-0.000239
C143	C	0.104862	0.227326	-0.000230
C144	C	0.132439	0.279737	-0.000184
H145	H	0.187996	0.185026	-0.044126
H146	H	0.187943	0.184970	0.043686
H147	H	0.076870	0.224800	-0.044151
H148	H	0.076801	0.224761	0.043653
H149	H	0.160443	0.282265	0.043741
H150	H	0.160495	0.282315	-0.044072
H151	H	0.095074	0.310197	-0.000171
C152	C	0.686487	-0.744711	-0.000252
C153	C	0.631317	-0.699904	-0.000254
C154	C	0.567135	-0.722536	-0.000288
H155	H	0.683390	-0.767594	0.043637
H156	H	0.683465	-0.767569	-0.044175
H157	H	0.634336	-0.677055	0.043664
H158	H	0.634391	-0.677017	-0.044140
H159	H	0.564114	-0.745394	-0.044211
H160	H	0.564045	-0.745419	0.043602
H161	H	0.529695	-0.692138	-0.000296
H162	H	0.910892	0.005452	0.813222
C163	C	0.688396	-0.620913	-0.000370
C164	C	0.685170	-0.586405	-0.065148
C165	C	0.621962	-0.549739	-0.065303
H166	H	0.686014	-0.597404	0.043483
H167	H	0.650087	-0.642961	-0.000400
H168	H	0.723468	-0.564358	-0.065111
H169	H	0.687540	-0.609897	-0.109012
H170	H	0.583652	-0.571788	-0.065333
H171	H	0.619585	-0.526235	-0.021447
H172	H	0.619761	-0.526325	-0.109257
C173	C	0.626840	-0.464515	-0.000260
C174	C	0.571675	-0.419704	-0.000270
C175	C	0.507490	-0.442331	-0.000312
H176	H	0.623736	-0.487397	0.043629
H177	H	0.623822	-0.487374	-0.044182
H178	H	0.574692	-0.396856	0.043649
H179	H	0.574757	-0.396818	-0.044155
H180	H	0.504472	-0.465190	-0.044235
H181	H	0.504393	-0.465213	0.043578
H182	H	0.470053	-0.411931	-0.000326
H183	H	0.910860	0.005449	0.330041
H184	H	0.464433	0.171927	-0.000215
C185	C	0.044520	-0.035999	-0.000390
C186	C	0.067522	-0.067103	-0.065144
C187	C	0.039907	-0.119498	-0.065272
H188	H	-0.005303	-0.029233	-0.000439
H189	H	0.060021	-0.057213	0.043495
H190	H	0.052018	-0.045893	-0.109018
H191	H	0.117342	-0.073883	-0.065108
H192	H	0.055407	-0.140712	-0.021387
H193	H	-0.009916	-0.112726	-0.065320
H194	H	0.055515	-0.140610	-0.109203
H195	H	0.645897	-0.350694	-0.000220
H196	H	0.020438	0.166588	-0.000293
C197	C	0.196379	-0.034084	-0.000367
C198	C	0.238738	-0.036603	-0.065120
C199	C	0.283927	-0.088026	-0.065239
H200	H	0.169524	-0.065428	-0.000410
H201	H	0.225165	-0.035908	0.043519
H202	H	0.209955	-0.034785	-0.108995
H203	H	0.265608	-0.005271	-0.065090
H204	H	0.312713	-0.089850	-0.021353
H205	H	0.257067	-0.119366	-0.065280
H206	H	0.312678	-0.089739	-0.109169
H207	H	0.934929	-0.763836	-0.000281
H208	H	0.711973	-0.192165	-0.000171
H209	H	0.910852	0.005450	0.186275
