data_functionalizedCrystal
_audit_creation_method	'MofGen! by Chris Wilmer'
_symmetry_space_group_name_H-M	'P1'
_symmetry_Int_Tables_number	1
_symmetry_cell_setting	triclinic
loop_
_symmetry_equiv_pos_as_xyz
  x,y,z
_cell_length_a	21.295418
_cell_length_b	29.839131
_cell_length_c	21.295411
_cell_angle_alpha	89.979636
_cell_angle_beta	89.956262
_cell_angle_gamma	90.057233
loop_
_atom_site_label
_atom_site_type_symbol
_atom_site_fract_x
_atom_site_fract_y
_atom_site_fract_z
Zn1	Zn	0.962308	-0.178715	-0.356239
Zn2	Zn	1.462308	0.321285	0.143761
Zn3	Zn	0.962190	-0.253830	-0.250967
Zn4	Zn	1.462190	0.246170	0.249033
Zn5	Zn	0.857031	-0.178736	-0.250949
Zn6	Zn	1.357031	0.321264	0.249051
Zn7	Zn	0.856981	-0.253839	-0.356163
Zn8	Zn	1.356981	0.246161	0.143837
O9	O	0.909628	-0.216280	-0.303580
O10	O	1.409628	0.283720	0.196420
O11	O	1.050382	-0.188667	-0.342314
O12	O	1.550382	0.311333	0.157686
O13	O	0.948213	-0.243874	-0.162875
O14	O	1.448213	0.256126	0.337125
O15	O	0.871067	-0.115866	-0.264940
O16	O	1.371067	0.384134	0.235060
O17	O	1.050295	-0.243854	-0.264971
O18	O	1.550295	0.256146	0.235029
O19	O	0.948413	-0.115851	-0.342296
O20	O	1.448413	0.384149	0.157704
O21	O	0.870953	-0.188703	-0.162862
O22	O	1.370953	0.311297	0.337138
O23	O	0.768935	-0.188711	-0.264867
O24	O	1.268935	0.311289	0.235133
O25	O	0.870981	-0.243869	-0.444263
O26	O	1.370981	0.256131	0.055737
O27	O	0.768898	-0.243889	-0.342167
O28	O	1.268898	0.256111	0.157833
O29	O	0.948364	-0.188675	-0.444319
O30	O	1.448364	0.311325	0.055681
O31	O	0.948164	-0.316699	-0.264897
O32	O	1.448164	0.183301	0.235103
O33	O	0.870866	-0.316705	-0.342185
O34	O	1.370866	0.183295	0.157815
C35	C	0.746076	-0.216304	-0.303507
C36	C	1.246076	0.283696	0.196493
C37	C	0.676108	-0.216325	-0.303491
C38	C	1.176108	0.283675	0.196509
C39	C	0.643238	-0.245094	-0.343681
C40	C	1.143238	0.254906	0.156319
C41	C	0.577496	-0.245083	-0.343710
C42	C	1.077496	0.254917	0.156290
C43	C	0.544625	-0.216307	-0.303536
C44	C	1.044625	0.283693	0.196464
C45	C	0.577503	-0.187532	-0.263343
C46	C	1.077503	0.312468	0.236657
C47	C	0.643244	-0.187541	-0.263321
C48	C	1.143244	0.312459	0.236679
N49	N	0.441350	-0.212791	-0.248479
N50	N	0.941350	0.287209	0.251521
N51	N	0.378899	-0.212785	-0.248502
N52	N	0.878899	0.287215	0.251498
C53	C	0.346551	-0.216279	-0.303603
C54	C	0.846551	0.283721	0.196397
N55	N	0.379013	-0.219787	-0.358681
N56	N	0.879013	0.280213	0.141319
N57	N	0.441470	-0.219795	-0.358657
N58	N	0.941470	0.280205	0.141343
C59	C	0.473340	-0.216294	-0.303557
C60	C	0.973340	0.283706	0.196443
C61	C	0.242396	-0.245037	-0.343827
C62	C	0.742396	0.254963	0.156173
C63	C	0.176652	-0.245023	-0.343857
C64	C	0.676652	0.254977	0.156143
C65	C	0.176660	-0.187475	-0.263485
C66	C	0.676660	0.312525	0.236515
C67	C	0.242403	-0.187487	-0.263461
C68	C	0.742403	0.312513	0.236539
C69	C	0.275266	-0.216271	-0.303632
C70	C	0.775266	0.283729	0.196368
C71	C	0.909514	-0.333003	-0.303548
C72	C	1.409514	0.166997	0.196452
C73	C	0.909523	-0.382937	-0.303556
C74	C	1.409523	0.117063	0.196444
C75	C	0.949949	-0.692564	-0.263395
C76	C	1.449949	-0.192564	0.236605
C77	C	0.950027	-0.880238	-0.263419
C78	C	1.450027	-0.380238	0.236581
O79	O	0.984309	-0.904489	-0.229249
O80	O	1.484309	-0.404489	0.270751
N81	N	0.909758	-0.903722	-0.303627
N82	N	1.409758	-0.403722	0.196373
C83	C	0.869470	-0.880286	-0.343835
C84	C	1.369470	-0.380286	0.156165
O85	O	0.835225	-0.904567	-0.378039
O86	O	1.335225	-0.404567	0.121961
C87	C	0.869396	-0.692614	-0.343813
C88	C	1.369396	-0.192614	0.156187
C89	C	0.909663	-0.669131	-0.303598
C90	C	1.409663	-0.169131	0.196402
C91	C	0.990214	-0.669082	-0.223184
C92	C	1.490214	-0.169082	0.276816
C93	C	0.990192	-0.622167	-0.223176
C94	C	1.490192	-0.122167	0.276824
C95	C	0.949905	-0.598734	-0.263379
C96	C	1.449905	-0.098734	0.236621
C97	C	0.909641	-0.622216	-0.303590
C98	C	1.409641	-0.122216	0.196410
C99	C	0.829111	-0.669178	-0.384023
C100	C	1.329111	-0.169178	0.115977
C101	C	0.829097	-0.622257	-0.384015
C102	C	1.329097	-0.122257	0.115985
C103	C	0.869364	-0.598775	-0.343800
C104	C	1.369364	-0.098775	0.156200
C105	C	0.869332	-0.551867	-0.343785
C106	C	1.369332	-0.051867	0.156215
N107	N	0.909601	-0.528383	-0.303577
N108	N	1.409601	-0.028383	0.196423
C109	C	0.949887	-0.551816	-0.263374
C110	C	1.449887	-0.051816	0.236626
C111	C	0.869511	-0.978816	-0.343842
C112	C	1.369511	-0.478816	0.156158
C113	C	0.869528	-1.025734	-0.343847
C114	C	1.369528	-0.525734	0.156153
C115	C	0.950087	-1.025683	-0.263432
C116	C	1.450087	-0.525683	0.236568
C117	C	0.950065	-0.978764	-0.263425
C118	C	1.450065	-0.478764	0.236575
C119	C	0.909780	-0.955332	-0.303634
C120	C	1.409780	-0.455332	0.196366
C121	C	0.949837	-0.453290	-0.263359
C122	C	1.449837	0.046710	0.236641
C123	C	0.949810	-0.406370	-0.263353
C124	C	1.449810	0.093630	0.236647
C125	C	0.869254	-0.406426	-0.343770
C126	C	1.369254	0.093574	0.156230
C127	C	0.869279	-0.453341	-0.343774
C128	C	1.369279	0.046659	0.156226
C129	C	0.909576	-0.476772	-0.303567
C130	C	1.409576	0.023228	0.196433
O131	O	0.835073	-0.527587	-0.377942
O132	O	1.335073	-0.027587	0.122058
O133	O	0.984137	-0.527526	-0.229185
O134	O	1.484137	-0.027526	0.270815
C135	C	0.949972	-0.739480	-0.263403
C136	C	1.449972	-0.239480	0.236597
C137	C	0.909707	-0.762962	-0.303614
C138	C	1.409707	-0.262962	0.196386
C139	C	0.869421	-0.739529	-0.343817
C140	C	1.369421	-0.239529	0.156183
C141	C	0.909725	-0.809880	-0.303619
C142	C	1.409725	-0.309880	0.196381
C143	C	0.950012	-0.833313	-0.263416
C144	C	1.450012	-0.333313	0.236584
C145	C	0.990281	-0.809829	-0.223208
C146	C	1.490281	-0.309829	0.276792
C147	C	0.990258	-0.762913	-0.223200
C148	C	1.490258	-0.262913	0.276800
C149	C	0.829152	-0.763014	-0.384025
C150	C	1.329152	-0.263014	0.115975
C151	C	0.829177	-0.809929	-0.384029
C152	C	1.329177	-0.309929	0.115971
C153	C	0.869463	-0.833362	-0.343826
C154	C	1.369463	-0.333362	0.156174
C155	C	1.073818	-0.216257	-0.303653
C156	C	1.573818	0.283743	0.196347
C157	C	1.143786	-0.216247	-0.303684
C158	C	1.643786	0.283753	0.196316
C159	C	0.909680	-0.216271	-0.467770
C160	C	1.409680	0.283729	0.032230
C161	C	0.909702	-0.216267	-0.537738
C162	C	1.409702	0.283733	-0.037738
C163	C	0.909759	-0.099102	-0.303625
C164	C	1.409759	0.400898	0.196375
C165	C	0.909815	-0.049167	-0.303644
C166	C	1.409815	0.450833	0.196356
C167	C	0.949994	-0.187526	-0.570635
C168	C	1.449994	0.312474	-0.070635
C169	C	0.949993	-0.187507	-0.636377
C170	C	1.449993	0.312493	-0.136377
C171	C	0.909707	-0.216236	-0.669221
C172	C	1.409707	0.283764	-0.169221
C173	C	0.869407	-0.244978	-0.636316
C174	C	1.369407	0.255022	-0.136316
C175	C	0.869405	-0.244994	-0.570575
C176	C	1.369405	0.255006	-0.070575
N177	N	0.904840	-0.255537	-0.772436
N178	N	1.404840	0.244463	-0.272436
N179	N	0.904846	-0.255521	-0.834887
N180	N	1.404846	0.244479	-0.334887
C181	C	0.909711	-0.216190	-0.867295
C182	C	1.409711	0.283810	-0.367295
N183	N	0.914582	-0.176875	-0.834893
N184	N	1.414582	0.323125	-0.334893
N185	N	0.914580	-0.176891	-0.772436
N186	N	1.414580	0.323109	-0.272436
C187	C	0.909705	-0.216222	-0.740506
C188	C	1.409705	0.283778	-0.240506
C189	C	0.950004	-0.187426	-0.971478
C190	C	1.450004	0.312574	-0.471478
C191	C	0.949999	-0.187406	-1.037221
C192	C	1.449999	0.312594	-0.537221
C193	C	0.869416	-0.244882	-1.037159
C194	C	1.369416	0.255118	-0.537159
C195	C	0.869418	-0.244898	-0.971417
C196	C	1.369418	0.255102	-0.471417
C197	C	0.909716	-0.216171	-0.938580
C198	C	1.409716	0.283829	-0.438580
C199	C	0.909612	-0.216257	-0.140028
C200	C	1.409612	0.283743	0.359972
C201	C	0.909712	-0.216135	-0.070060
C202	C	1.409712	0.283865	0.429940
H203	H	0.550728	-0.268510	-0.376440
H204	H	1.050728	0.231490	0.123560
O205	O	0.789992	-0.832758	-0.423008
O206	O	1.289992	-0.332758	0.076992
C207	C	0.749369	-0.859959	-0.387134
C208	C	1.249369	-0.359959	0.112866
H209	H	0.745492	-0.845846	-0.337546
H210	H	1.245492	-0.345846	0.162454
H211	H	0.700917	-0.860527	-0.409848
H212	H	1.200917	-0.360527	0.090152
H213	H	0.768849	-0.895500	-0.385001
H214	H	1.268849	-0.395500	0.114999
O215	O	0.830355	-0.272938	-0.538546
O216	O	1.330355	0.227062	-0.038546
C217	C	0.866164	-0.301966	-0.500559
C218	C	1.366164	0.198034	-0.000559
H219	H	0.913887	-0.286117	-0.490750
H220	H	1.413887	0.213883	0.009250
H221	H	0.840519	-0.308002	-0.454309
H222	H	1.340519	0.191998	0.045691
H223	H	0.873042	-0.335251	-0.525900
H224	H	1.373042	0.164749	-0.025900
O225	O	0.988959	-0.383511	-0.224375
O226	O	1.488959	0.116489	0.275625
C227	C	1.029598	-0.356329	-0.260259
C228	C	1.529598	0.143671	0.239741
H229	H	1.007370	-0.349302	-0.307934
H230	H	1.507370	0.150698	0.192066
H231	H	1.038033	-0.323338	-0.234621
H232	H	1.538033	0.176662	0.265379
H233	H	1.076252	-0.374365	-0.267239
H234	H	1.576252	0.125635	0.232761
O235	O	0.790042	-0.740305	-0.423165
O236	O	1.290042	-0.240305	0.076835
C237	C	0.803779	-0.751729	-0.485924
C238	C	1.303779	-0.251729	0.014076
H239	H	0.828001	-0.785768	-0.487264
H240	H	1.328001	-0.285768	0.012736
H241	H	0.758332	-0.753375	-0.514088
H242	H	1.258332	-0.253375	-0.014088
H243	H	0.836111	-0.725282	-0.507170
H244	H	1.336111	-0.225282	-0.007170
H245	H	0.982813	-0.164032	-0.944741
H246	H	1.482813	0.335968	-0.444741
H247	H	0.836608	-0.268269	-1.063899
H248	H	1.336608	0.231731	-0.563899
O249	O	0.830142	-0.476085	-0.382895
O250	O	1.330142	0.023915	0.117105
C251	C	0.794567	-0.445339	-0.418364
C252	C	1.294567	0.054661	0.081636
H253	H	0.820331	-0.411868	-0.420563
H254	H	1.320331	0.088132	0.079437
H255	H	0.787838	-0.458881	-0.467957
H256	H	1.287838	0.041119	0.032043
H257	H	0.746765	-0.440407	-0.395253
H258	H	1.246765	0.059593	0.104747
H259	H	0.982807	-0.164134	-0.543903
H260	H	1.482807	0.335866	-0.043903
O261	O	0.274238	-0.159529	-0.224356
O262	O	0.774238	0.340471	0.275644
C263	C	0.231132	-0.134119	-0.188915
C264	C	0.731132	0.365881	0.311085
H265	H	0.184236	-0.152512	-0.186703
H266	H	0.684236	0.347488	0.313297
H267	H	0.250080	-0.129277	-0.139323
H268	H	0.750080	0.370723	0.360677
H269	H	0.224222	-0.100023	-0.212057
H270	H	0.724222	0.399977	0.287943
H271	H	0.982652	-0.472362	-0.230620
H272	H	1.482652	0.027638	0.269380
H273	H	0.836612	-0.268304	-0.944632
H274	H	1.336612	0.231696	-0.444632
H275	H	0.836704	-0.959741	-0.376586
H276	H	1.336704	-0.459741	0.123414
O277	O	0.144718	-0.159592	-0.224378
O278	O	0.644718	0.340408	0.275622
C279	C	0.106601	-0.185129	-0.183680
C280	C	0.606601	0.314871	0.316320
H281	H	0.126348	-0.220513	-0.179717
H282	H	0.626348	0.279487	0.320283
H283	H	0.105845	-0.168842	-0.135269
H284	H	0.605845	0.331158	0.364731
H285	H	0.056790	-0.186684	-0.203142
H286	H	0.556790	0.313316	0.296858
O287	O	0.989200	-0.159471	-1.069082
O288	O	1.489200	0.340529	-0.569082
C289	C	1.024753	-0.134113	-1.025999
C290	C	1.524753	0.365887	-0.525999
H291	H	1.026910	-0.152527	-0.979138
H292	H	1.526910	0.347473	-0.479138
H293	H	1.074356	-0.129313	-1.045032
H294	H	1.574356	0.370687	-0.545032
H295	H	1.001744	-0.099997	-1.018989
H296	H	1.501744	0.400003	-0.518989
H297	H	1.022982	-0.603050	-0.190431
H298	H	1.522982	-0.103050	0.309569
O299	O	0.989196	-0.159574	-0.668245
O300	O	1.489196	0.340426	-0.168245
C301	C	1.024749	-0.134213	-0.625165
C302	C	1.524749	0.365787	-0.125165
H303	H	1.026904	-0.152623	-0.578301
H304	H	1.526904	0.347377	-0.078301
H305	H	1.074353	-0.129415	-0.644198
H306	H	1.574353	0.370585	-0.144198
H307	H	1.001741	-0.100096	-0.618161
H308	H	1.501741	0.399904	-0.118161
H309	H	0.982855	-0.959647	-0.230679
H310	H	1.482855	-0.459647	0.269321
O311	O	0.675064	-0.273065	-0.382765
O312	O	1.175064	0.226935	0.117235
C313	C	0.631949	-0.298463	-0.418233
C314	C	1.131949	0.201537	0.081767
H315	H	0.585119	-0.280058	-0.420475
H316	H	1.085119	0.219942	0.079525
H317	H	0.650988	-0.303312	-0.467812
H318	H	1.150988	0.196688	0.032188
H319	H	0.624876	-0.332558	-0.395094
H320	H	1.124876	0.167442	0.104906
O321	O	0.545549	-0.159646	-0.224248
O322	O	1.045549	0.340354	0.275752
C323	C	0.507426	-0.185177	-0.183547
C324	C	1.007426	0.314823	0.316453
H325	H	0.527176	-0.220558	-0.179565
H326	H	1.027176	0.279442	0.320435
H327	H	0.506657	-0.168879	-0.135143
H328	H	1.006657	0.331121	0.364857
H329	H	0.457620	-0.186738	-0.203019
H330	H	0.957620	0.313262	0.296981
H331	H	0.796318	-0.688289	-0.416767
H332	H	1.296318	-0.188289	0.083233
O333	O	0.675079	-0.159581	-0.224215
O334	O	1.175079	0.340419	0.275785
C335	C	0.631974	-0.134170	-0.188775
C336	C	1.131974	0.365830	0.311225
H337	H	0.585076	-0.152560	-0.186566
H338	H	1.085076	0.347440	0.313434
H339	H	0.650920	-0.129329	-0.139183
H340	H	1.150920	0.370671	0.360817
H341	H	0.625068	-0.100073	-0.211916
H342	H	1.125068	0.399927	0.288084
H343	H	0.836604	-0.268368	-0.663061
H344	H	1.336604	0.231632	-0.163061
H345	H	0.269155	-0.268472	-0.376540
H346	H	0.769155	0.231528	0.123460
H347	H	1.023023	-0.688157	-0.190445
H348	H	1.523023	-0.188157	0.309555
O349	O	0.144818	-0.273014	-0.382919
O350	O	0.644818	0.226986	0.117081
C351	C	0.187925	-0.298412	-0.418376
C352	C	0.687925	0.201588	0.081624
H353	H	0.234756	-0.299945	-0.392571
H354	H	0.734756	0.200055	0.107429
H355	H	0.168878	-0.333813	-0.425001
H356	H	0.668878	0.166187	0.074999
H357	H	0.194998	-0.282017	-0.466228
H358	H	0.694998	0.217983	0.033772
H359	H	0.982890	-1.044770	-0.230698
H360	H	1.482890	-0.544770	0.269302
H361	H	0.796292	-0.603181	-0.416761
H362	H	1.296292	-0.103181	0.083239
O363	O	0.830388	-1.048473	-0.382966
O364	O	1.330388	-0.548473	0.117034
C365	C	0.794819	-1.017723	-0.418436
C366	C	1.294819	-0.517723	0.081564
H367	H	0.820592	-0.984255	-0.420639
H368	H	1.320592	-0.484255	0.079361
H369	H	0.788084	-1.031266	-0.468028
H370	H	1.288084	-0.531266	0.031972
H371	H	0.747020	-1.012783	-0.395324
H372	H	1.247020	-0.512783	0.104676
O373	O	0.830215	-0.383636	-0.382890
O374	O	1.330215	0.116364	0.117110
C375	C	0.866034	-0.356443	-0.423568
C376	C	1.366034	0.143557	0.076432
H377	H	0.915614	-0.370541	-0.427516
H378	H	1.415614	0.129459	0.072484
H379	H	0.843250	-0.355909	-0.471987
H380	H	1.343250	0.144091	0.028013
H381	H	0.868204	-0.320892	-0.404097
H382	H	1.368204	0.179108	0.095903
H383	H	1.023048	-0.743797	-0.190453
H384	H	1.523048	-0.243797	0.309547
H385	H	1.023082	-0.828916	-0.190472
H386	H	1.523082	-0.328916	0.309528
