data_functionalizedCrystal
_audit_creation_method	'MofGen! by Chris Wilmer'
_symmetry_space_group_name_H-M	'P1'
_symmetry_Int_Tables_number	1
_symmetry_cell_setting	triclinic
loop_
_symmetry_equiv_pos_as_xyz
  x,y,z
_cell_length_a	16.974800
_cell_length_b	23.532407
_cell_length_c	15.455313
_cell_angle_alpha	92.643560
_cell_angle_beta	90.973911
_cell_angle_gamma	83.120189
loop_
_atom_site_label
_atom_site_type_symbol
_atom_site_fract_x
_atom_site_fract_y
_atom_site_fract_z
O1	O	1.048507	0.072597	0.001490
O2	O	0.819006	0.081294	-0.014629
O3	O	0.940676	-0.005947	-0.006068
O4	O	0.926836	0.159837	-0.007072
O5	O	0.933719	-0.000979	0.137705
O6	O	0.812049	0.086262	0.129143
O7	O	1.041549	0.077565	0.145262
Cu8	Cu	0.926164	0.082367	0.150330
Cu9	Cu	0.934392	0.076491	-0.019697
O10	O	0.919879	0.164805	0.136701
C11	C	0.786171	0.083356	0.055195
C12	C	0.698699	0.082092	0.049052
C13	C	0.653817	0.084205	0.124539
C14	C	0.571630	0.083009	0.118770
C15	C	0.534325	0.079703	0.037513
C16	C	0.579214	0.077588	-0.037979
C17	C	0.661401	0.078781	-0.032209
C18	C	0.288931	0.075843	0.011851
C19	C	0.206738	0.074653	0.006087
C20	C	0.199160	0.080072	0.162836
C21	C	0.281348	0.081268	0.168599
C22	C	0.326230	0.079150	0.093107
N23	N	0.450317	0.078482	0.031614
N24	N	0.410238	0.080367	0.099007
C25	C	0.936845	-0.024681	0.065796
C26	C	0.935785	-0.087903	0.065728
C27	C	1.001143	-0.486636	0.070271
C28	C	1.000159	-0.546042	0.070195
O29	O	1.060746	-0.582443	0.074419
N30	N	0.927825	-0.569080	0.065116
C31	C	0.856472	-0.532709	0.060102
O32	O	0.794856	-0.557759	0.055774
C33	C	0.857457	-0.473304	0.060172
C34	C	0.929795	-0.450269	0.065261
C35	C	1.073475	-0.463601	0.075359
C36	C	1.074458	-0.404199	0.075436
C37	C	1.003110	-0.367832	0.070426
C38	C	0.930778	-0.390867	0.065338
C39	C	0.786105	-0.436934	0.055153
C40	C	0.787096	-0.377526	0.055222
C41	C	0.859434	-0.354491	0.060311
C42	C	0.860414	-0.295098	0.060405
N43	N	0.932747	-0.272061	0.065485
C44	C	1.004095	-0.308427	0.070495
C45	C	0.854408	-0.657463	0.059955
C46	C	0.853422	-0.716866	0.059892
C47	C	0.997109	-0.730196	0.069983
C48	C	0.998094	-0.670791	0.070053
C49	C	0.926742	-0.634425	0.065035
C50	C	1.006156	-0.183678	0.070658
C51	C	1.007133	-0.124270	0.070738
C52	C	0.863446	-0.110946	0.060643
C53	C	0.862468	-0.170349	0.060567
C54	C	0.933830	-0.206714	0.065572
O55	O	0.799859	-0.258663	0.056181
O56	O	1.065701	-0.283369	0.074812
C57	C	1.074384	0.075502	0.075436
C58	C	1.161856	0.076766	0.081573
C59	C	0.923710	0.183539	0.064835
C60	C	0.924771	0.246761	0.064897
N61	N	0.920382	0.086499	0.269919
N62	N	0.940179	0.072355	-0.139286
C63	C	0.972090	0.049450	0.318952
C64	C	0.967725	0.052580	0.409452
C65	C	0.911655	0.092763	0.450919
C66	C	0.859942	0.129813	0.401880
C67	C	0.864304	0.126680	0.311381
C68	C	0.892828	0.106272	0.721176
C69	C	0.888472	0.109404	0.811682
C70	C	0.996254	0.032170	0.819248
C71	C	1.000614	0.029042	0.728747
C72	C	0.948898	0.066091	0.679715
N73	N	0.907194	0.095964	0.543426
N74	N	0.953356	0.062886	0.587211
H75	H	0.176368	0.071963	-0.060086
Br76	Br	0.349832	0.072968	-0.090603
Br77	Br	0.528592	0.073077	-0.148258
Br78	Br	0.764295	-0.201611	0.053680
Br79	Br	0.722315	0.075908	-0.134659
Br80	Br	0.766622	-0.061580	0.053844
H81	H	1.066041	-0.105519	0.074885
Br82	Br	0.783841	0.184344	0.458152
H83	H	0.794517	-0.735615	0.055763
Br84	Br	1.170318	-0.512946	0.082158
H85	H	0.728991	-0.347919	0.051135
Br86	Br	0.812374	0.163944	0.867953
Br87	Br	0.794121	0.176959	0.244836
H88	H	1.064265	-0.213281	0.074730
Br89	Br	1.172637	-0.372948	0.082318
Br90	Br	0.331968	0.085760	0.278880
H91	H	1.056998	-0.652041	0.074196
H92	H	1.055205	-0.759817	0.074059
H93	H	1.017750	0.016732	0.285196
H94	H	0.162609	0.081796	0.224297
Br95	Br	0.757562	-0.608114	0.053152
Br96	Br	0.687926	-0.468180	0.048243
H97	H	1.009828	0.022412	0.449375
H98	H	0.535092	0.084720	0.180239
Br99	Br	0.704435	0.088697	0.234821
Br100	Br	1.076711	-0.025489	0.672469
H101	H	1.038357	0.002006	0.859178
Br102	Br	0.822646	0.156552	0.654638
