data_functionalizedCrystal
_audit_creation_method	'MofGen! by Chris Wilmer'
_symmetry_space_group_name_H-M	'P1'
_symmetry_Int_Tables_number	1
_symmetry_cell_setting	triclinic
loop_
_symmetry_equiv_pos_as_xyz
  x,y,z
_cell_length_a	23.532407
_cell_length_b	23.532357
_cell_length_c	16.776229
_cell_angle_alpha	89.987808
_cell_angle_beta	89.998190
_cell_angle_gamma	82.838485
loop_
_atom_site_label
_atom_site_type_symbol
_atom_site_fract_x
_atom_site_fract_y
_atom_site_fract_z
O1	O	0.755249	0.069138	-0.066198
O2	O	0.589384	0.079141	-0.066223
O3	O	0.677333	-0.008794	-0.066193
O4	O	0.667300	0.157073	-0.066228
O5	O	0.677321	-0.008799	0.066383
O6	O	0.589372	0.079136	0.066354
O7	O	0.755238	0.069132	0.066378
Zn8	Zn	0.672303	0.074133	0.087415
Zn9	Zn	0.672318	0.074140	-0.087260
O10	O	0.667288	0.157068	0.066349
C11	C	0.568162	0.078884	0.000062
C12	C	0.504945	0.078118	0.000054
C13	C	0.105834	0.125353	0.000080
C14	C	0.046434	0.124641	0.000085
O15	O	0.009681	0.168428	0.000105
N16	N	0.023817	0.072364	0.000094
C17	C	0.060604	0.020794	0.000107
O18	O	0.035912	-0.023737	0.000116
C19	C	0.120003	0.021506	0.000108
C20	C	0.142616	0.073787	0.000090
C21	C	0.128448	0.177629	0.000063
C22	C	0.187844	0.178341	0.000057
C23	C	0.224626	0.126775	0.000067
C24	C	0.202012	0.074498	0.000084
C25	C	0.156788	-0.030063	0.000126
C26	C	0.216191	-0.029346	0.000127
C27	C	0.238804	0.022935	0.000110
C28	C	0.298190	0.023644	0.000087
N29	N	0.320807	0.075922	0.000078
C30	C	0.284025	0.127487	0.000068
C31	C	-0.064139	0.019303	0.000107
C32	C	-0.123536	0.018590	0.000101
C33	C	-0.137702	0.122437	0.000080
C34	C	-0.078303	0.123149	0.000081
C35	C	-0.041522	0.071580	0.000098
C36	C	0.408761	0.128977	0.000053
C37	C	0.468163	0.129684	0.000043
C38	C	0.482324	0.025836	0.000068
C39	C	0.422927	0.025130	0.000074
C40	C	0.386147	0.076704	0.000069
O41	O	0.334977	-0.020120	0.000071
O42	O	0.308725	0.172011	0.000069
C43	C	0.677076	-0.030013	0.000097
C44	C	0.676322	-0.093232	0.000105
C45	C	0.671591	-0.485240	-0.072207
C46	C	0.670874	-0.544640	-0.072211
O47	O	0.670489	-0.575354	-0.133672
N48	N	0.670512	-0.574354	0.000055
C49	C	0.670862	-0.544665	0.072331
O50	O	0.670487	-0.575393	0.133799
C51	C	0.671575	-0.485266	0.072335
C52	C	0.671943	-0.455556	0.000064
C53	C	0.671958	-0.455530	-0.144472
C54	C	0.672677	-0.396135	-0.144467
C55	C	0.673028	-0.366450	-0.072197
C56	C	0.672661	-0.396160	0.000069
C57	C	0.671920	-0.455577	0.144610
C58	C	0.672633	-0.396174	0.144607
C59	C	0.673001	-0.366464	0.072336
C60	C	0.673730	-0.307080	0.072344
N61	N	0.674092	-0.277366	0.000077
C62	C	0.673741	-0.307051	-0.072193
C63	C	0.669363	-0.669406	0.072317
C64	C	0.668654	-0.728805	0.072314
C65	C	0.668665	-0.728776	-0.072228
C66	C	0.669379	-0.669377	-0.072224
C67	C	0.669725	-0.639692	0.000051
C68	C	0.675250	-0.182317	-0.072177
C69	C	0.675971	-0.122917	-0.072166
C70	C	0.675956	-0.122951	0.072376
C71	C	0.675238	-0.182346	0.072365
C72	C	0.674883	-0.212027	0.000082
O73	O	0.674113	-0.276328	0.133773
O74	O	0.674108	-0.276314	-0.133650
C75	C	0.776459	0.069390	0.000091
C76	C	0.839676	0.070156	0.000095
C77	C	0.667545	0.178287	0.000056
C78	C	0.668300	0.241506	0.000044
N79	N	0.672297	0.074128	0.206626
N80	N	0.672329	0.074141	-0.206471
C81	C	0.711252	0.035206	0.248357
C82	C	0.711256	0.035206	0.331809
C83	C	0.672305	0.074130	0.373529
C84	C	0.633346	0.113054	0.331793
C85	C	0.633340	0.113052	0.248343
C86	C	0.633366	0.113065	0.668341
C87	C	0.633376	0.113066	0.751797
C88	C	0.711282	0.035220	0.751807
C89	C	0.711276	0.035217	0.668356
C90	C	0.672315	0.074138	0.626627
C91	C	0.672311	0.074138	0.536139
C92	C	0.672311	0.074134	0.464016
H93	H	-0.034193	-0.022694	0.000114
O94	O	0.092803	0.227777	0.000015
C95	C	0.125513	0.274063	0.000022
H96	H	0.169931	0.259338	-0.025068
H97	H	0.103406	0.310174	-0.038483
H98	H	0.129651	0.290104	0.063621
H99	H	0.742976	0.003512	0.365785
O100	O	-0.056408	0.173971	-0.000037
C101	C	-0.075222	0.205378	-0.068718
H102	H	-0.116331	0.190091	-0.091609
H103	H	-0.083743	0.252853	-0.053287
H104	H	-0.040806	0.198587	-0.116795
O105	O	0.134901	-0.080886	0.000043
C106	C	0.153720	-0.112295	-0.068617
H107	H	0.194826	-0.097005	-0.091521
H108	H	0.162246	-0.159769	-0.053153
H109	H	0.119305	-0.105511	-0.116696
H110	H	0.742995	0.003523	0.634390
H111	H	0.669677	-0.645190	-0.131074
O112	O	-0.173520	0.172478	0.000109
C113	C	-0.230794	0.160632	0.000094
H114	H	-0.232811	0.115910	0.025202
H115	H	-0.257897	0.193517	0.038579
H116	H	-0.247986	0.162893	-0.063509
O117	O	-0.145404	-0.032246	0.000143
C118	C	-0.100195	-0.077602	0.000129
H119	H	-0.059932	-0.061869	0.025221
H120	H	-0.112397	-0.114126	0.038628
H121	H	-0.091700	-0.093487	-0.063472
O122	O	0.749203	-0.002541	0.792306
C123	C	0.805521	0.006422	0.771886
H124	H	0.805530	0.052021	0.748937
H125	H	0.834145	-0.000278	0.826763
H126	H	0.822429	-0.025229	0.723450
O127	O	0.209828	0.229115	-0.000106
C128	C	0.243768	0.232636	-0.068765
H129	H	0.229897	0.202948	-0.116741
H130	H	0.238159	0.278565	-0.091831
H131	H	0.290692	0.219243	-0.053243
H132	H	0.601618	0.144745	0.214367
O133	O	0.251978	-0.079405	0.000034
C134	C	0.286749	-0.082108	-0.068641
H135	H	0.289498	-0.036921	-0.091546
H136	H	0.331516	-0.103586	-0.053197
H137	H	0.267349	-0.108003	-0.116712
O138	O	0.595479	0.150898	0.792202
C139	C	0.561097	0.185259	0.737478
H140	H	0.560587	0.161911	0.677999
H141	H	0.515568	0.194172	0.761600
H142	H	0.579331	0.227478	0.728584
O143	O	0.595604	0.150904	0.627729
C144	C	0.625895	0.185895	0.579458
H145	H	0.670587	0.162980	0.566947
H146	H	0.602065	0.195034	0.520781
H147	H	0.629527	0.227964	0.611612
H148	H	0.672906	-0.372007	0.203464
H149	H	0.486571	0.172259	0.000029
H150	H	0.601629	0.144746	0.365767
H151	H	0.378821	0.170974	0.000052
H152	H	0.676245	-0.098771	0.131217
O153	O	0.401052	-0.025705	0.000115
C154	C	0.446257	-0.071065	0.000095
H155	H	0.486524	-0.055336	0.025185
H156	H	0.434054	-0.107588	0.038595
H157	H	0.454748	-0.086949	-0.063507
H158	H	0.676271	-0.098730	-0.131020
O159	O	0.518141	-0.024200	0.000116
C160	C	0.575415	-0.012354	0.000092
H161	H	0.577432	0.032368	0.025173
H162	H	0.602517	-0.045239	0.038595
H163	H	0.592609	-0.014615	-0.063511
H164	H	0.668378	-0.752955	-0.131075
O165	O	0.674922	-0.211058	-0.142463
C166	C	0.675380	-0.172085	-0.206237
H167	H	0.693931	-0.132217	-0.185038
H168	H	0.702820	-0.193010	-0.256791
H169	H	0.629759	-0.159515	-0.228450
H170	H	0.668363	-0.752991	0.131165
O171	O	0.672906	-0.367315	-0.214715
C172	C	0.623399	-0.375146	-0.258640
H173	H	0.588740	-0.386757	-0.216311
H174	H	0.607288	-0.333843	-0.291468
H175	H	0.634133	-0.411169	-0.303659
O176	O	0.671518	-0.484372	-0.214661
C177	C	0.621785	-0.512012	-0.219006
H178	H	0.587512	-0.489422	-0.177999
H179	H	0.605229	-0.510407	-0.282930
H180	H	0.632397	-0.558558	-0.199604
H181	H	0.669647	-0.645241	0.131176
O182	O	0.749111	-0.002661	0.207956
C183	C	0.783504	-0.037005	0.262688
H184	H	0.760162	-0.037527	0.322178
H185	H	0.792458	-0.082534	0.238593
H186	H	0.825701	-0.018727	0.271549
O187	O	0.671535	-0.484336	0.214886
C188	C	0.672008	-0.445388	0.278664
H189	H	0.654491	-0.400584	0.257461
H190	H	0.644136	-0.458774	0.329203
H191	H	0.717776	-0.445311	0.300901
H192	H	0.674944	-0.206538	0.131215
