data_functionalizedCrystal
_audit_creation_method	'MofGen! by Chris Wilmer'
_symmetry_space_group_name_H-M	'P1'
_symmetry_Int_Tables_number	1
_symmetry_cell_setting	triclinic
loop_
_symmetry_equiv_pos_as_xyz
  x,y,z
_cell_length_a	29.839131
_cell_length_b	12.759401
_cell_length_c	12.759393
_cell_angle_alpha	90.020120
_cell_angle_beta	89.962110
_cell_angle_gamma	89.962610
loop_
_atom_site_label
_atom_site_type_symbol
_atom_site_fract_x
_atom_site_fract_y
_atom_site_fract_z
Zn1	Zn	-0.178875	-1.606060	-0.593981
Zn2	Zn	-0.254014	-1.605873	-0.418281
Zn3	Zn	-0.178893	-1.430362	-0.418315
Zn4	Zn	-0.253974	-1.430269	-0.593918
O5	O	-0.216439	-1.518141	-0.506124
O6	O	-0.188852	-1.753056	-0.570686
O7	O	-0.244073	-1.582551	-0.271265
O8	O	-0.116024	-1.453786	-0.441658
O9	O	-0.244056	-1.752919	-0.441600
O10	O	-0.116010	-1.582871	-0.570719
O11	O	-0.188882	-1.453605	-0.271289
O12	O	-0.188844	-1.283329	-0.441597
O13	O	-0.243987	-1.453628	-0.740947
O14	O	-0.244005	-1.283260	-0.570611
O15	O	-0.188813	-1.582781	-0.740993
O16	O	-0.316875	-1.582461	-0.441539
O17	O	-0.316846	-1.453446	-0.570579
C18	C	-0.216422	-1.245174	-0.506102
C19	C	-0.216426	-1.128397	-0.506117
C20	C	-0.187734	-1.073600	-0.573435
C21	C	-0.187740	-0.963876	-0.573438
C22	C	-0.245133	-0.963756	-0.438804
C23	C	-0.245125	-1.073478	-0.438796
C24	C	-0.154600	-1.073668	-0.651168
C25	C	-0.154606	-0.963944	-0.651172
C26	C	-0.333161	-1.517951	-0.506072
C27	C	-0.383096	-1.517966	-0.506084
C28	C	-0.692742	-1.585441	-0.439031
C29	C	-0.880415	-1.585571	-0.439072
O30	O	-0.904682	-1.642790	-0.382021
N31	N	-0.903881	-1.518359	-0.506203
C32	C	-0.880426	-1.451114	-0.573333
O33	O	-0.904691	-1.393957	-0.630441
C34	C	-0.692754	-1.450991	-0.573297
C35	C	-0.669290	-1.518200	-0.506154
C36	C	-0.669278	-1.652646	-0.371894
C37	C	-0.622363	-1.652609	-0.371881
C38	C	-0.598911	-1.585367	-0.439004
C39	C	-0.622375	-1.518163	-0.506141
C40	C	-0.669299	-1.383752	-0.640432
C41	C	-0.622378	-1.383729	-0.640419
C42	C	-0.598915	-1.450938	-0.573276
C43	C	-0.552007	-1.450884	-0.573250
N44	N	-0.528541	-1.518096	-0.506119
C45	C	-0.551993	-1.585338	-0.438996
C46	C	-0.978956	-1.451182	-0.573346
C47	C	-1.025874	-1.451212	-0.573354
C48	C	-1.025860	-1.585670	-0.439094
C49	C	-0.978941	-1.585635	-0.439081
C50	C	-0.955490	-1.518395	-0.506215
C51	C	-0.453467	-1.585254	-0.438972
C52	C	-0.406548	-1.585208	-0.438961
C53	C	-0.406566	-1.450754	-0.573225
C54	C	-0.453481	-1.450796	-0.573232
C55	C	-0.476931	-1.518054	-0.506102
O56	O	-0.527711	-1.393703	-0.630280
O57	O	-0.527720	-1.642503	-0.381913
C58	C	-0.739657	-1.585479	-0.439045
C59	C	-0.763121	-1.518274	-0.506181
C60	C	-0.739669	-1.451032	-0.573304
C61	C	-0.810039	-1.518303	-0.506189
C62	C	-0.833491	-1.585545	-0.439066
C63	C	-0.810025	-1.652757	-0.371935
C64	C	-0.763109	-1.652720	-0.371921
C65	C	-0.763135	-1.383820	-0.640435
C66	C	-0.810050	-1.383862	-0.640443
C67	C	-0.833502	-1.451104	-0.573320
C68	C	-0.099261	-1.518360	-0.506199
C69	C	-0.049326	-1.518453	-0.506231
C70	C	-0.216394	-1.518215	-0.780157
C71	C	-0.216374	-1.518246	-0.896934
C72	C	-0.216450	-0.792174	-0.506139
C73	C	-0.216440	-0.908951	-0.506129
C74	C	-0.187642	-1.585505	-0.951822
C75	C	-0.187626	-1.585530	-1.061546
C76	C	-0.245078	-1.451034	-1.061485
C77	C	-0.245091	-1.451004	-0.951763
C78	C	-0.154474	-1.663159	-0.951858
C79	C	-0.154458	-1.663184	-1.061582
C80	C	-0.216452	-1.518128	-0.233156
C81	C	-0.216344	-1.518300	-0.116380
H82	H	-0.121539	-0.929939	-0.622180
H83	H	-0.688368	-1.707408	-0.317234
C84	C	-0.479255	-1.659236	-0.365119
N85	N	-0.498678	-1.714953	-0.309487
C86	C	-1.051679	-1.377267	-0.647207
N87	N	-1.071113	-1.321573	-0.702839
C88	C	-0.107473	-1.633794	-0.911665
N89	N	-0.072073	-1.611673	-0.881392
C90	C	-0.596559	-1.726536	-0.298009
N91	N	-0.577127	-1.782220	-0.242362
H92	H	-0.163968	-0.934189	-0.732504
C93	C	-0.953136	-1.659573	-0.365223
N94	N	-0.933702	-1.715267	-0.309591
C95	C	-0.171315	-1.767541	-0.905870
N96	N	-0.183996	-1.846165	-0.871232
H97	H	-1.044963	-1.640421	-0.384440
H98	H	-0.744044	-1.329065	-0.695097
H99	H	-0.268457	-1.396286	-1.106140
H100	H	-0.121399	-1.634107	-1.095637
H101	H	-0.268484	-1.118090	-0.383970
C102	C	-0.276702	-0.903335	-0.364758
N103	N	-0.300482	-0.857826	-0.308987
H104	H	-0.387464	-1.396003	-0.627873
C105	C	-0.737306	-1.726653	-0.298054
N106	N	-0.717873	-1.782342	-0.242413
H107	H	-0.268486	-1.396232	-0.907077
H108	H	-0.472586	-1.396072	-0.627909
H109	H	-0.167100	-1.107720	-0.728404
C110	C	-0.596585	-1.309758	-0.714274
N111	N	-0.577158	-1.254041	-0.769900
H112	H	-0.119792	-1.103473	-0.629524
H113	H	-0.387445	-1.639937	-0.384282
C114	C	-0.953166	-1.377236	-0.647232
N115	N	-0.933743	-1.321546	-0.702891
H116	H	-0.829127	-1.707505	-0.317278
H117	H	-0.688395	-1.329018	-0.695102
C118	C	-0.835855	-1.309920	-0.714309
N119	N	-0.855289	-1.254234	-0.769950
H120	H	-0.163779	-1.744545	-1.091360
