data_functionalizedCrystal
_audit_creation_method	'MofGen! by Chris Wilmer'
_symmetry_space_group_name_H-M	'P1'
_symmetry_Int_Tables_number	1
_symmetry_cell_setting	triclinic
loop_
_symmetry_equiv_pos_as_xyz
  x,y,z
_cell_length_a	6.817900
_cell_length_b	24.067834
_cell_length_c	17.110486
_cell_angle_alpha	84.606775
_cell_angle_beta	80.939561
_cell_angle_gamma	102.960917
loop_
_atom_site_label
_atom_site_type_symbol
_atom_site_fract_x
_atom_site_fract_y
_atom_site_fract_z
V1	V	-3.973284	-0.078533	0.244953
O2	O	-3.965555	0.003948	0.242112
O3	O	-3.921570	-0.155885	0.241526
O4	O	-3.903201	-0.077248	0.352585
O5	O	-3.984051	-0.075233	0.130284
V6	V	-4.460151	-0.068676	0.231451
O7	O	-4.227207	-0.100154	0.274572
O8	O	-4.656425	-0.047055	0.201832
O9	O	-4.288659	0.008676	0.234878
O10	O	-4.585276	-0.151157	0.234292
O11	O	-4.566780	-0.071976	0.346120
O12	O	-4.307027	-0.069960	0.123819
C13	C	-3.766466	-0.174744	0.237209
C14	C	-3.805325	-0.237980	0.235124
C15	C	-3.743034	-0.074434	0.378876
C16	C	-3.766995	-0.073896	0.466854
C17	C	-4.046381	0.091953	0.241332
C18	C	-4.107106	0.027530	0.239199
C19	C	-4.004758	-0.270582	0.238027
C20	C	-4.041261	-0.329999	0.236072
C21	C	-3.878326	-0.356812	0.231210
C22	C	-3.678878	-0.324205	0.228310
C23	C	-3.642380	-0.264790	0.230270
C24	C	-3.979464	-0.536064	0.225102
C25	C	-4.015977	-0.595483	0.223140
C26	C	-4.378359	-0.601274	0.230904
C27	C	-4.341842	-0.541856	0.232859
C28	C	-4.142400	-0.509255	0.229963
C29	C	-3.915632	-0.417545	0.229209
C30	C	-4.105098	-0.448523	0.231969
V31	V	-4.208550	0.196749	0.237563
O32	O	-4.170098	0.280673	0.232795
O33	O	-4.187294	0.116187	0.238435
O34	O	-4.168269	0.194802	0.349523
O35	O	-4.189255	0.201514	0.120938
V36	V	-4.662460	0.222724	0.202428
O37	O	-4.464198	0.182658	0.257069
O38	O	-4.832976	0.251420	0.163317
O39	O	-4.472425	0.296045	0.211275
O40	O	-4.812042	0.142608	0.202083
O41	O	-4.792885	0.221768	0.313940
O42	O	-4.491450	0.217430	0.100187
C43	C	-4.130537	-0.072776	0.097524
C44	C	-4.085815	-0.073312	0.009545
C45	C	-4.294668	0.309353	0.223039
C46	C	-4.215410	0.371914	0.226042
C47	C	-4.022095	0.192236	0.383033
C48	C	-4.066268	0.192758	0.471025
C49	C	-3.959417	-0.076482	0.512154
C50	C	-3.981919	-0.075976	0.594819
C51	C	-3.811999	-0.072888	0.632183
C52	C	-3.619560	-0.070300	0.586877
C53	C	-3.597058	-0.070802	0.504213
C54	C	-3.870874	-0.071226	0.881575
C55	C	-3.893393	-0.070726	0.964245
C56	C	-4.255750	-0.076401	0.972181
C57	C	-4.233233	-0.076906	0.889516
C58	C	-4.040796	-0.074315	0.844217
C59	C	-3.834996	-0.072372	0.716680
C60	C	-4.017798	-0.074827	0.759721
C61	C	-4.318938	0.209072	0.081334
C62	C	-4.255111	0.207879	-0.005755
C63	C	-4.260546	0.195955	0.508552
C64	C	-4.302070	0.196454	0.591227
C65	C	-4.149317	0.193752	0.636376
C66	C	-3.955021	0.190558	0.598843
C67	C	-3.913496	0.190063	0.516168
C68	C	-4.062860	0.198762	-0.035012
C69	C	-4.002854	0.197646	-0.116840
C70	C	-4.135109	0.205642	-0.169410
C71	C	-4.327375	0.214762	-0.140149
C72	C	-4.387372	0.215882	-0.058323
H73	H	-4.137441	-0.248755	0.241978
H74	H	-4.460288	0.199053	0.621775
H75	H	-4.543927	0.223303	-0.034509
O76	O	-4.572076	-0.632903	0.233585
C77	C	-4.649434	-0.612466	0.167761
H78	H	-4.516632	-0.589078	0.118024
H79	H	-4.747586	-0.650279	0.145183
H80	H	-4.746638	-0.581517	0.186849
H81	H	-4.203656	-0.356542	0.238437
O82	O	-3.816056	0.188840	-0.145335
C83	C	-3.701473	0.236522	-0.200815
H84	H	-3.762419	0.275919	-0.188922
H85	H	-3.533748	0.245286	-0.194426
H86	H	-3.715593	0.226917	-0.263957
O87	O	-4.168995	-0.078509	0.638707
C88	C	-4.314133	-0.081326	0.588000
H89	H	-4.257327	-0.098953	0.531434
H90	H	-4.466274	-0.110897	0.620058
H91	H	-4.336160	-0.036410	0.571505
H92	H	-4.183157	0.194156	0.703695
O93	O	-4.076870	0.204443	-0.248870
C94	C	-4.037835	0.150497	-0.260997
H95	H	-4.124255	0.117133	-0.207893
H96	H	-4.091108	0.137020	-0.317806
H97	H	-3.866582	0.153714	-0.267098
H98	H	-4.474529	-0.520031	0.236824
O99	O	-3.683947	-0.068834	0.837677
C100	C	-3.613105	-0.116478	0.865160
H101	H	-3.748976	-0.152570	0.896900
H102	H	-3.527365	-0.132152	0.812265
H103	H	-3.505690	-0.103239	0.908537
O104	O	-3.806480	0.188032	0.642654
C105	C	-3.638153	0.235587	0.615156
H106	H	-3.691486	0.271764	0.583475
H107	H	-3.569136	0.251179	0.668036
H108	H	-3.517726	0.222273	0.571724
H109	H	-3.883291	-0.617314	0.219199
H110	H	-4.237758	-0.426691	0.235932
O111	O	-3.724842	0.186838	0.479801
C112	C	-3.682101	0.135686	0.511989
H113	H	-3.831846	0.102978	0.539187
H114	H	-3.593698	0.117397	0.462603
H115	H	-3.586200	0.145319	0.560204
H116	H	-4.371604	-0.079420	0.859100
O117	O	-3.785644	-0.504411	0.222137
C118	C	-3.660369	-0.509512	0.150625
H119	H	-3.759675	-0.522174	0.104359
H120	H	-3.546113	-0.466552	0.127098
H121	H	-3.574020	-0.543933	0.162590
O122	O	-3.728193	-0.067617	1.000488
C123	C	-3.578731	-0.016531	0.968246
H124	H	-3.654979	0.016255	0.941116
H125	H	-3.500052	0.001699	1.017585
H126	H	-3.460303	-0.026236	0.919968
O127	O	-3.934434	0.191080	0.016110
C128	C	-3.889324	0.240105	0.055320
H129	H	-4.015849	0.263994	0.054535
H130	H	-3.878563	0.226281	0.119769
H131	H	-3.737087	0.269682	0.023364
H132	H	-3.546218	-0.346041	0.224355
H133	H	-3.479985	-0.238245	0.227910
H134	H	-3.782975	-0.439383	0.225248
H135	H	-4.097791	-0.079001	0.481739
H136	H	-4.435039	0.221274	-0.182964
H137	H	-3.481207	-0.067782	0.617304
O138	O	-4.442615	-0.078988	1.016287
C139	C	-4.500232	-0.128361	1.073948
H140	H	-4.357547	-0.142322	1.086089
H141	H	-4.585140	-0.118079	1.131596
H142	H	-4.604597	-0.164606	1.050787
H143	H	-4.156143	-0.077339	0.729295
O144	O	-3.410294	-0.068374	0.460140
C145	C	-3.420166	-0.117988	0.421724
H146	H	-3.585345	-0.137022	0.415992
H147	H	-3.320068	-0.106013	0.359752
H148	H	-3.363067	-0.151048	0.458362
H149	H	-3.696652	-0.069860	0.747111
O150	O	-4.408699	0.198656	0.464605
C151	C	-4.342509	0.248035	0.406956
H152	H	-4.168101	0.261893	0.394662
H153	H	-4.398602	0.237811	0.349373
H154	H	-4.407299	0.284331	0.430216
