data_functionalizedCrystal
_audit_creation_method	'MofGen! by Chris Wilmer'
_symmetry_space_group_name_H-M	'P1'
_symmetry_Int_Tables_number	1
_symmetry_cell_setting	triclinic
loop_
_symmetry_equiv_pos_as_xyz
  x,y,z
_cell_length_a	23.532361
_cell_length_b	23.532407
_cell_length_c	16.053802
_cell_angle_alpha	92.544672
_cell_angle_beta	87.439726
_cell_angle_gamma	82.839173
loop_
_atom_site_label
_atom_site_type_symbol
_atom_site_fract_x
_atom_site_fract_y
_atom_site_fract_z
O1	O	0.757690	0.066599	-0.069353
O2	O	1.257690	0.566599	0.430647
O3	O	0.591824	0.076630	-0.069375
O4	O	1.091824	0.576630	0.430625
O5	O	0.679758	-0.011318	-0.069348
O6	O	1.179758	0.488682	0.430652
O7	O	0.669756	0.154546	-0.069380
O8	O	1.169756	0.654546	0.430620
O9	O	0.674918	-0.006497	0.069509
O10	O	1.174918	0.493503	0.569509
O11	O	0.586984	0.081451	0.069483
O12	O	1.086984	0.581451	0.569483
O13	O	0.752850	0.071420	0.069504
O14	O	1.252850	0.571420	0.569504
Zn15	Zn	0.669149	0.077201	0.091540
Zn16	Zn	1.169149	0.577201	0.591540
Zn17	Zn	0.675526	0.070849	-0.091411
Zn18	Zn	1.175526	0.570849	0.408589
O19	O	0.664916	0.159367	0.069478
O20	O	1.164916	0.659367	0.569478
C21	C	0.568187	0.078789	0.000052
C22	C	1.068187	0.578789	0.500052
C23	C	0.504969	0.078033	0.000044
C24	C	1.004969	0.578033	0.500044
C25	C	0.234364	0.072102	-0.075641
C26	C	0.734364	0.572102	0.424359
C27	C	0.293763	0.072817	-0.075644
C28	C	0.793763	0.572817	0.424356
O29	O	0.326733	0.070932	-0.140015
O30	O	0.826733	0.570932	0.359985
N31	N	0.320831	0.075806	0.000048
N32	N	0.820831	0.575806	0.500048
C33	C	0.288496	0.078075	0.075747
C34	C	0.788496	0.578075	0.575747
O35	O	0.316973	0.080682	0.140128
O36	O	0.816973	0.580682	0.640128
C37	C	0.229098	0.077356	0.075748
C38	C	0.729098	0.577356	0.575748
C39	C	0.202033	0.074372	0.000051
C40	C	0.702033	0.574372	0.500051
C41	C	0.207299	0.069118	-0.151332
C42	C	0.707299	0.569118	0.348668
C43	C	0.147903	0.068404	-0.151329
C44	C	0.647903	0.568404	0.348671
C45	C	0.115572	0.070675	-0.075636
C46	C	0.615572	0.570675	0.424364
C47	C	0.142637	0.073658	0.000054
C48	C	0.642637	0.573658	0.500054
C49	C	0.196764	0.079620	0.151446
C50	C	0.696764	0.579620	0.651446
C51	C	0.137363	0.078900	0.151440
C52	C	0.637363	0.578900	0.651440
C53	C	0.110298	0.075917	0.075744
C54	C	0.610298	0.575917	0.575744
C55	C	0.050910	0.075215	0.075749
C56	C	0.550910	0.575215	0.575749
N57	N	0.023843	0.072226	0.000058
N58	N	0.523843	0.572226	0.500058
C59	C	0.056174	0.069956	-0.075635
C60	C	0.556174	0.569956	0.424365
C61	C	0.413236	0.079583	0.075738
C62	C	0.913236	0.579583	0.575738
C63	C	0.472633	0.080306	0.075738
C64	C	0.972633	0.580306	0.575738
C65	C	0.477896	0.075048	-0.075653
C66	C	0.977896	0.575048	0.424347
C67	C	0.418498	0.074329	-0.075652
C68	C	0.918498	0.574329	0.424348
C69	C	0.386169	0.076594	0.000047
C70	C	0.886169	0.576594	0.500047
C71	C	-0.068562	0.068457	-0.075624
C72	C	0.431438	0.568457	0.424376
C73	C	-0.127964	0.067746	-0.075615
C74	C	0.372036	0.567746	0.424385
C75	C	-0.133222	0.073002	0.075775
C76	C	0.366778	0.573002	0.575775
C77	C	-0.073826	0.073716	0.075766
C78	C	0.426174	0.573716	0.575766
C79	C	-0.041497	0.071442	0.000060
C80	C	0.458503	0.571442	0.500060
O81	O	0.017904	0.077096	0.140087
O82	O	0.517904	0.577096	0.640087
O83	O	0.027690	0.067341	-0.140005
O84	O	0.527690	0.567341	0.359995
C85	C	0.677083	-0.030123	0.000083
C86	C	1.177083	0.469877	0.500083
C87	C	0.676317	-0.093340	0.000089
C88	C	1.176317	0.406660	0.500089
C89	C	0.723553	-0.492452	0.000049
C90	C	1.223553	0.007548	0.500049
C91	C	0.722842	-0.551852	0.000043
C92	C	1.222842	-0.051852	0.500043
O93	O	0.766630	-0.588605	0.000018
O94	O	1.266630	-0.088605	0.500018
N95	N	0.670565	-0.574470	0.000037
N96	N	1.170565	-0.074470	0.500037
C97	C	0.618996	-0.537684	0.000029
C98	C	1.118996	-0.037684	0.500029
O99	O	0.574464	-0.562376	0.000022
O100	O	1.074464	-0.062376	0.500022
C101	C	0.619708	-0.478285	0.000029
C102	C	1.119708	0.021715	0.500029
C103	C	0.671988	-0.455671	0.000044
C104	C	1.171988	0.044329	0.500044
C105	C	0.775829	-0.469837	0.000063
C106	C	1.275829	0.030163	0.500063
C107	C	0.776540	-0.410441	0.000071
C108	C	1.276540	0.089559	0.500071
C109	C	0.724975	-0.373659	0.000065
C110	C	1.224975	0.126341	0.500065
C111	C	0.672699	-0.396274	0.000052
C112	C	1.172699	0.103726	0.500052
C113	C	0.568139	-0.441501	0.000015
C114	C	1.068139	0.058499	0.500015
C115	C	0.568856	-0.382098	0.000015
C116	C	1.068856	0.117902	0.500015
C117	C	0.621136	-0.359484	0.000029
C118	C	1.121136	0.140516	0.500029
C119	C	0.621845	-0.300097	0.000054
C120	C	1.121845	0.199903	0.500054
N121	N	0.674122	-0.277479	0.000060
N122	N	1.174122	0.222521	0.500060
C123	C	0.725687	-0.314260	0.000066
C124	C	1.225687	0.185740	0.500066
C125	C	0.617504	-0.662426	0.000026
C126	C	1.117504	-0.162426	0.500026
C127	C	0.616791	-0.721824	0.000032
C128	C	1.116791	-0.221824	0.500032
C129	C	0.720638	-0.735988	0.000044
C130	C	1.220638	-0.235988	0.500044
C131	C	0.721350	-0.676589	0.000045
C132	C	1.221350	-0.176589	0.500045
C133	C	0.669782	-0.639809	0.000032
C134	C	1.169782	-0.139809	0.500032
C135	C	0.727176	-0.189523	0.000083
C136	C	1.227176	0.310477	0.500083
C137	C	0.727883	-0.130121	0.000095
C138	C	1.227883	0.369879	0.500095
C139	C	0.624036	-0.115962	0.000078
C140	C	1.124036	0.384038	0.500078
C141	C	0.623330	-0.175359	0.000071
C142	C	1.123330	0.324641	0.500071
C143	C	0.674904	-0.212139	0.000071
C144	C	1.174904	0.287861	0.500071
O145	O	0.578080	-0.263309	0.000076
O146	O	1.078080	0.236691	0.500076
O147	O	0.770212	-0.289560	0.000061
O148	O	1.270212	0.210440	0.500061
C149	C	0.776487	0.069261	0.000076
C150	C	1.276487	0.569261	0.500076
C151	C	0.839705	0.070016	0.000078
C152	C	1.339705	0.570016	0.500078
C153	C	0.667591	0.178173	0.000045
C154	C	1.167591	0.678173	0.500045
C155	C	0.668357	0.241389	0.000033
C156	C	1.168357	0.741389	0.500033
N157	N	0.664801	0.081535	0.216399
N158	N	1.164801	0.581535	0.716399
N159	N	0.679878	0.066510	-0.216270
N160	N	1.179878	0.566510	0.283730
C161	C	0.702230	0.044127	0.260104
C162	C	1.202230	0.544127	0.760104
C163	C	0.699194	0.047165	0.347510
C164	C	1.199194	0.547165	0.847510
C165	C	0.658731	0.087614	0.391209
C166	C	1.158731	0.587614	0.891209
C167	C	0.621297	0.125024	0.347498
C168	C	1.121297	0.625024	0.847498
C169	C	0.624331	0.121983	0.260094
C170	C	1.124331	0.621983	0.760094
C171	C	0.645478	0.100879	0.652615
C172	C	1.145478	0.600879	1.152615
C173	C	0.642448	0.103918	0.740025
C174	C	1.142448	0.603918	1.240025
C175	C	0.720345	0.026058	0.740031
C176	C	1.220345	0.526058	1.240031
C177	C	0.723378	0.023023	0.652626
C178	C	1.223378	0.523023	1.152626
C179	C	0.685942	0.060431	0.608922
C180	C	1.185942	0.560431	1.108922
N181	N	0.655627	0.090721	0.480552
N182	N	1.155627	0.590721	0.980552
N183	N	0.689043	0.057321	0.519581
N184	N	1.189043	0.557321	1.019581
H185	H	0.386916	0.081436	0.137384
H186	H	0.886916	0.581436	0.637384
O187	O	0.566944	-0.199756	0.000058
O188	O	1.066944	0.300244	0.500058
H189	H	0.531207	-0.164198	0.000051
H190	H	1.031207	0.335802	0.500051
H191	H	0.575508	-0.632482	0.000023
H192	H	1.075508	-0.132482	0.500023
H193	H	0.770457	-0.111712	0.000109
H194	H	1.270457	0.388288	0.500109
O195	O	0.782801	-0.229189	0.000096
O196	O	1.282801	0.270811	0.500096
H197	H	0.819266	-0.203475	0.000116
H198	H	1.319266	0.296525	0.500116
O199	O	0.605106	0.141232	0.605488
O200	O	1.105106	0.641232	1.105488
H201	H	0.614006	0.132322	0.537368
H202	H	1.114006	0.632322	1.037368
H203	H	0.504231	0.073199	-0.137286
H204	H	1.004231	0.573199	0.362714
O205	O	0.767027	-0.020605	0.605507
O206	O	1.267027	0.479395	1.105507
H207	H	0.795955	0.001844	0.565684
H208	H	1.295955	0.501844	1.065684
H209	H	-0.159557	0.074853	0.137402
H210	H	0.340443	0.574853	0.637402
O211	O	0.777740	-0.652203	0.000044
O212	O	1.277740	-0.152203	0.500044
H213	H	0.800531	-0.665045	0.056638
H214	H	1.300531	-0.165045	0.556638
H215	H	0.218790	0.082048	0.213086
H216	H	0.718790	0.582048	0.713086
H217	H	-0.149997	0.065318	-0.137259
H218	H	0.350003	0.565318	0.362741
O219	O	0.831452	-0.509502	0.000083
O220	O	1.331452	-0.009502	0.500083
H221	H	0.858465	-0.503452	-0.056501
H222	H	1.358465	-0.003452	0.443499
O223	O	0.501820	0.083543	0.157380
O224	O	1.001820	0.583543	0.657380
H225	H	0.469353	0.085002	0.210010
H226	H	0.969353	0.585002	0.710010
H227	H	0.593851	0.152444	0.224510
H228	H	1.093851	0.652444	0.724510
H229	H	0.111042	0.080750	0.213084
H230	H	0.611042	0.580750	0.713084
H231	H	0.233617	0.067268	-0.212973
H232	H	0.733617	0.567268	0.287027
O233	O	-0.044629	0.076936	0.157407
O234	O	0.455371	0.576936	0.657407
H235	H	-0.077092	0.078392	0.210040
H236	H	0.422908	0.578392	0.710040
O237	O	0.598798	0.147547	0.787152
O238	O	1.098798	0.647547	1.287152
H239	H	0.621230	0.176493	0.826949
H240	H	1.121230	0.676493	1.326949
O241	O	0.568420	-0.076286	0.000071
O242	O	1.068420	0.423714	0.500071
H243	H	0.577703	-0.031185	0.000069
H244	H	1.077703	0.468815	0.500069
O245	O	0.577656	0.168653	0.394631
O246	O	1.077656	0.668653	0.894631
H247	H	0.585243	0.212427	0.377828
H248	H	1.085243	0.712427	0.877828
H249	H	0.762625	-0.765947	0.000046
H250	H	1.262625	-0.265947	0.500046
O251	O	-0.033698	0.066010	-0.157276
O252	O	0.466302	0.566010	0.342724
H253	H	-0.062506	0.063822	-0.209901
H254	H	0.437494	0.563822	0.290099
H255	H	0.735182	0.011191	0.224530
H256	H	1.235182	0.511191	0.724530
H257	H	0.729672	0.016703	0.383095
H258	H	1.229672	0.516703	0.883095
H259	H	0.819113	-0.392034	0.000079
H260	H	1.319113	0.107966	0.500079
H261	H	0.750823	-0.004399	0.775623
H262	H	1.250823	0.495601	1.275623
H263	H	0.574219	-0.740230	0.000034
H264	H	1.074219	-0.240230	0.500034
H265	H	0.525567	-0.459902	-0.000002
H266	H	1.025567	0.040098	0.499998
O267	O	0.513233	-0.342428	0.000013
O268	O	1.013233	0.157572	0.500013
H269	H	0.490169	-0.352393	-0.056584
H270	H	0.990169	0.147607	0.443416
O271	O	0.118729	0.065159	-0.232982
O272	O	0.618729	0.565159	0.267018
H273	H	0.126099	0.102847	-0.269308
H274	H	0.626099	0.602847	0.230692
O275	O	0.389310	0.071093	-0.157294
O276	O	0.889310	0.571093	0.342706
H277	H	0.421777	0.069628	-0.209923
H278	H	0.921777	0.569628	0.290077
