data_functionalizedCrystal
_audit_creation_method	'MofGen! by Chris Wilmer'
_symmetry_space_group_name_H-M	'P1'
_symmetry_Int_Tables_number	1
_symmetry_cell_setting	triclinic
loop_
_symmetry_equiv_pos_as_xyz
  x,y,z
_cell_length_a	10.654554
_cell_length_b	10.654551
_cell_length_c	18.366186
_cell_angle_alpha	89.996635
_cell_angle_beta	89.992330
_cell_angle_gamma	84.486053
loop_
_atom_site_label
_atom_site_type_symbol
_atom_site_fract_x
_atom_site_fract_y
_atom_site_fract_z
O1	O	1.667847	0.176427	-0.060522
O2	O	1.302369	0.193228	-0.060528
O3	O	1.493510	0.002088	-0.060525
O4	O	1.476706	0.367566	-0.060525
O5	O	1.493477	0.002079	0.060574
O6	O	1.302336	0.193218	0.060571
O7	O	1.667814	0.176418	0.060577
Zn8	Zn	1.485070	0.184816	0.079801
Zn9	Zn	1.485113	0.184829	-0.079752
O10	O	1.476673	0.367557	0.060575
C11	C	1.255555	0.191988	0.000021
C12	C	1.116112	0.188294	0.000018
C13	C	1.492260	-0.044714	0.000023
C14	C	1.488567	-0.184158	0.000018
C15	C	0.905604	0.297367	0.000025
C16	C	1.036625	0.300839	0.000020
C17	C	1.064571	0.072269	0.000016
C18	C	0.933552	0.068799	0.000016
C19	C	0.826123	0.409919	0.000034
C20	C	0.877654	0.525944	0.000035
C21	C	1.008676	0.529416	0.000030
C22	C	1.088166	0.416863	0.000022
C23	C	1.486853	-0.249664	-0.065992
C24	C	1.483373	-0.380685	-0.065989
C25	C	1.483326	-0.380681	0.066040
C26	C	1.486798	-0.249662	0.066036
C27	C	1.488622	-0.184160	-0.132011
C28	C	1.486910	-0.249667	-0.198026
C29	C	1.483429	-0.380688	-0.198023
C30	C	1.481662	-0.446201	-0.132004
C31	C	1.714628	0.177657	0.000027
C32	C	1.854071	0.181351	0.000024
C33	C	1.477923	0.414360	0.000025
C34	C	1.481616	0.553803	0.000025
N35	N	1.485049	0.184807	0.188693
N36	N	1.485143	0.184829	-0.188643
C37	C	1.569715	0.100212	0.226794
C38	C	1.569723	0.100207	0.303022
C39	C	1.485077	0.184817	0.341145
C40	C	1.400396	0.269418	0.303035
C41	C	1.400382	0.269412	0.226808
C42	C	1.469620	0.299055	0.461906
C43	C	1.469642	0.299062	0.538131
C44	C	1.485113	0.184833	0.576253
C45	C	1.500588	0.070593	0.538141
C46	C	1.500574	0.070587	0.461914
C47	C	1.485083	0.184832	0.423800
C48	C	1.569792	0.100226	0.697009
C49	C	1.569791	0.100219	0.773239
C50	C	1.400470	0.269441	0.773250
C51	C	1.400465	0.269437	0.697022
C52	C	1.485132	0.184831	0.658906
H53	H	0.719437	0.407105	0.000041
H54	H	1.331545	0.338327	0.804289
H55	H	1.129301	-0.019365	0.000010
Cl56	Cl	0.777728	0.667430	0.000034
Cl57	Cl	1.073456	0.675272	0.000022
Cl58	Cl	0.868762	-0.077052	0.000022
Cl59	Cl	1.481262	-0.463034	-0.281012
H60	H	1.491460	-0.077477	-0.132021
H61	H	1.488167	-0.196322	0.119787
H62	H	1.638653	0.031319	0.195763
H63	H	1.488336	-0.196316	-0.251776
Cl64	Cl	1.477274	-0.610913	-0.132002
Cl65	Cl	1.481108	-0.463042	0.149029
H66	H	1.194851	0.419699	0.000003
Cl67	Cl	1.676171	-0.006149	0.350929
H68	H	1.513171	-0.022431	0.430887
Cl69	Cl	1.520048	-0.073020	0.586057
H70	H	1.638730	0.031331	0.665974
Cl71	Cl	1.676229	-0.006144	0.821141
H72	H	1.331527	0.338327	0.665997
Cl73	Cl	1.450198	0.442677	0.586035
Cl74	Cl	1.450286	0.442677	0.413988
H75	H	1.331474	0.338307	0.334078
Cl76	Cl	1.293938	0.375769	0.178906
