data_functionalizedCrystal
_audit_creation_method	'MofGen! by Chris Wilmer'
_symmetry_space_group_name_H-M	'P1'
_symmetry_Int_Tables_number	1
_symmetry_cell_setting	triclinic
loop_
_symmetry_equiv_pos_as_xyz
  x,y,z
_cell_length_a	14.853569
_cell_length_b	13.596369
_cell_length_c	14.853567
_cell_angle_alpha	89.996595
_cell_angle_beta	83.635248
_cell_angle_gamma	90.003957
loop_
_atom_site_label
_atom_site_type_symbol
_atom_site_fract_x
_atom_site_fract_y
_atom_site_fract_z
O1	O	1.196366	0.081738	0.117705
O2	O	1.696366	0.581738	0.617705
O3	O	0.933907	0.081749	0.131725
O4	O	1.433907	0.581749	0.631725
O5	O	1.072147	0.081746	-0.006515
O6	O	1.572147	0.581746	0.493485
O7	O	1.058126	0.081741	0.255945
O8	O	1.558126	0.581741	0.755945
O9	O	1.072130	-0.081837	-0.006507
O10	O	1.572130	0.418163	0.493493
O11	O	0.933890	-0.081834	0.131732
O12	O	1.433890	0.418166	0.631732
O13	O	1.196349	-0.081845	0.117713
O14	O	1.696349	0.418155	0.617713
Zn15	Zn	1.065117	-0.107812	0.124724
Zn16	Zn	1.565117	0.392188	0.624724
Zn17	Zn	1.065139	0.107716	0.124714
Zn18	Zn	1.565139	0.607716	0.624714
O19	O	1.058109	-0.081842	0.255952
O20	O	1.558109	0.418158	0.755952
C21	C	0.900310	-0.000041	0.131093
C22	C	1.400310	0.499959	0.631093
C23	C	0.800226	-0.000037	0.129189
C24	C	1.300226	0.499963	0.629189
C25	C	0.763850	-0.000032	0.046178
C26	C	1.263850	0.499968	0.546178
C27	C	0.742560	-0.000046	0.210410
C28	C	1.242560	0.499954	0.710410
C29	C	0.648526	-0.000047	0.208624
C30	C	1.148526	0.499953	0.708624
C31	C	0.612150	-0.000042	0.125613
C32	C	1.112150	0.499958	0.625613
C33	C	0.669807	-0.000036	0.044389
C34	C	1.169807	0.499964	0.544389
C35	C	0.590862	-0.000063	0.289847
C36	C	1.090862	0.499937	0.789847
C37	C	0.496821	-0.000065	0.288064
C38	C	0.996821	0.499935	0.788064
C39	C	0.460443	-0.000053	0.205052
C40	C	0.960443	0.499947	0.705052
C41	C	0.518107	-0.000046	0.123824
C42	C	1.018107	0.499954	0.623824
C43	C	0.481730	-0.000041	0.040813
C44	C	0.981730	0.499959	0.540813
C45	C	0.539393	-0.000026	-0.040415
C46	C	1.039393	0.499974	0.459585
C47	C	0.633429	-0.000023	-0.038623
C48	C	1.133429	0.499977	0.461377
C49	C	0.366407	-0.000056	0.203259
C50	C	0.866407	0.499944	0.703259
C51	C	0.387688	-0.000045	0.039024
C52	C	0.887688	0.499955	0.539024
N53	N	1.065108	-0.254904	0.124730
N54	N	1.565108	0.245096	0.624730
C55	C	1.065113	-0.343902	0.124732
C56	C	1.565113	0.156098	0.624732
C57	C	1.065122	-0.455553	0.124726
C58	C	1.565122	0.044447	0.624726
C59	C	1.065133	-0.544544	0.124716
C60	C	1.565133	-0.044544	0.624716
C61	C	1.065144	-0.656202	0.124710
C62	C	1.565144	-0.156202	0.624710
C63	C	1.229947	-0.000053	0.118344
C64	C	1.729947	0.499947	0.618344
C65	C	1.330030	-0.000051	0.120249
C66	C	1.830030	0.499949	0.620249
C67	C	1.071504	-0.000043	-0.040100
C68	C	1.571504	0.499957	0.459900
C69	C	1.069600	-0.000034	-0.140183
C70	C	1.569600	0.499966	0.359817
N71	N	1.065155	0.254807	0.124700
N72	N	1.565155	0.754807	0.624700
C73	C	0.979434	-0.000049	-0.552718
C74	C	1.479434	0.499951	-0.052718
C75	C	1.143667	-0.000056	-0.573998
C76	C	1.643667	0.499944	-0.073998
C77	C	1.145457	-0.000050	-0.479964
C78	C	1.645457	0.499950	0.020036
C79	C	1.064234	-0.000045	-0.422303
C80	C	1.564234	0.499955	0.077697
C81	C	0.981222	-0.000046	-0.458675
C82	C	1.481222	0.499954	0.041325
C83	C	1.228468	-0.000059	-0.443585
C84	C	1.728468	0.499941	0.056415
C85	C	1.230262	-0.000054	-0.349545
C86	C	1.730262	0.499946	0.150455
C87	C	1.149038	-0.000043	-0.291882
C88	C	1.649038	0.499957	0.208118
C89	C	1.066022	-0.000042	-0.328260
C90	C	1.566022	0.499958	0.171740
C91	C	0.984800	-0.000038	-0.270599
C92	C	1.484800	0.499962	0.229401
C93	C	0.901783	-0.000031	-0.306974
C94	C	1.401783	0.499969	0.193026
C95	C	0.899998	-0.000034	-0.401012
C96	C	1.399998	0.499966	0.098988
C97	C	1.150822	-0.000039	-0.197845
C98	C	1.650822	0.499961	0.302155
C99	C	0.986587	-0.000035	-0.176556
C100	C	1.486587	0.499965	0.323444
C101	C	1.058753	-0.000052	0.289537
C102	C	1.558753	0.499948	0.789537
C103	C	1.060657	-0.000054	0.389621
C104	C	1.560657	0.499946	0.889621
H105	H	0.449880	-0.000076	0.354205
H106	H	0.949880	0.499924	0.854205
H107	H	0.358078	-0.000035	-0.028574
H108	H	0.858078	0.499965	0.471426
C109	C	0.499372	-0.000019	-0.131722
C110	C	0.999372	0.499981	0.368278
H111	H	0.435109	-0.000020	-0.121148
H112	H	0.935109	0.499980	0.378852
H113	H	0.519154	-0.057056	-0.165176
H114	H	1.019154	0.442944	0.334824
H115	H	0.519149	0.057041	-0.165165
H116	H	1.019149	0.557041	0.334835
C117	C	1.233006	-0.000062	-0.637418
C118	C	1.733006	0.499938	-0.137418
H119	H	1.282701	-0.000066	-0.602286
H120	H	1.782701	0.499934	-0.102286
H121	H	1.235726	0.056979	-0.674553
H122	H	1.735726	0.556979	-0.174553
H123	H	1.235717	-0.057118	-0.674535
H124	H	1.735717	0.442882	-0.174535
H125	H	1.297859	-0.000059	-0.319937
H126	H	1.797859	0.499941	0.180063
H127	H	1.294595	-0.000072	-0.490539
H128	H	1.794595	0.499928	0.009461
H129	H	1.218413	-0.000051	-0.168232
H130	H	1.718413	0.499949	0.331768
C131	C	0.302980	-0.000076	0.292596
C132	C	0.802980	0.499924	0.792596
H133	H	0.241765	-0.000082	0.279643
H134	H	0.741765	0.499918	0.779643
H135	H	0.314020	0.056962	0.326637
H136	H	0.814020	0.556962	0.826637
H137	H	0.314017	-0.057135	0.326621
H138	H	0.814017	0.442865	0.826621
H139	H	0.835651	-0.000034	-0.260014
H140	H	1.335651	0.499966	0.239986
C141	C	0.808688	-0.000028	-0.441023
C142	C	1.308688	0.499972	0.058977
H143	H	0.760569	-0.000013	-0.393216
H144	H	1.260569	0.499987	0.106784
H145	H	0.804570	-0.057073	-0.477260
H146	H	1.304570	0.442927	0.022740
H147	H	0.804589	0.057024	-0.477270
H148	H	1.304589	0.557024	0.022730
C149	C	0.696857	-0.000021	-0.127964
C150	C	1.196857	0.499979	0.372036
H151	H	0.758071	-0.000033	-0.115007
H152	H	1.258071	0.499967	0.384993
H153	H	0.685828	0.057024	-0.162003
H154	H	1.185828	0.557024	0.337997
H155	H	0.685813	-0.057073	-0.161992
H156	H	1.185813	0.442927	0.338008
C157	C	0.827271	-0.000020	-0.043167
C158	C	1.327271	0.499980	0.456833
H159	H	0.888488	-0.000023	-0.030217
H160	H	1.388488	0.499977	0.469783
H161	H	0.816231	0.057025	-0.077201
H162	H	1.316231	0.557025	0.422799
H163	H	0.816231	-0.057072	-0.077196
H164	H	1.316231	0.442928	0.422804
H165	H	0.772184	-0.000057	0.277994
H166	H	1.272184	0.499943	0.777994
C167	C	0.630876	-0.000072	0.381150
C168	C	1.130876	0.499928	0.881150
H169	H	0.695139	-0.000056	0.370580
H170	H	1.195139	0.499944	0.870580
H171	H	0.611096	-0.057122	0.414596
H172	H	1.111096	0.442878	0.914596
H173	H	0.611093	0.056975	0.414598
H174	H	1.111093	0.556975	0.914598
H175	H	0.920445	-0.000027	-0.129613
H176	H	1.420445	0.499973	0.370387
C177	C	0.888123	-0.000045	-0.592726
C178	C	1.388123	0.499955	-0.092726
H179	H	0.898686	-0.000053	-0.656990
H180	H	1.398686	0.499947	-0.156990
H181	H	0.854680	0.056999	-0.572943
H182	H	1.354680	0.556999	-0.072943
H183	H	0.854674	-0.057098	-0.572938
H184	H	1.354674	0.442902	-0.072938
