data_functionalizedCrystal
_audit_creation_method	'MofGen! by Chris Wilmer'
_symmetry_space_group_name_H-M	'P1'
_symmetry_Int_Tables_number	1
_symmetry_cell_setting	triclinic
loop_
_symmetry_equiv_pos_as_xyz
  x,y,z
_cell_length_a	13.033291
_cell_length_b	13.031981
_cell_length_c	13.032268
_cell_angle_alpha	89.068348
_cell_angle_beta	89.079236
_cell_angle_gamma	103.320130
loop_
_atom_site_label
_atom_site_type_symbol
_atom_site_fract_x
_atom_site_fract_y
_atom_site_fract_z
Zn1	Zn	1.463158	-0.323862	-0.735824
Zn2	Zn	1.468593	-0.473457	-0.542762
Zn3	Zn	1.313617	-0.318365	-0.542775
Zn4	Zn	1.270113	-0.516853	-0.686685
O5	O	1.378870	-0.408134	-0.627012
O6	O	1.609526	-0.327845	-0.730774
O7	O	1.468516	-0.432422	-0.401740
O8	O	1.349386	-0.173420	-0.588954
O9	O	1.613520	-0.437752	-0.588932
O10	O	1.459253	-0.177459	-0.730787
O11	O	1.354656	-0.318477	-0.401750
O12	O	1.162198	-0.360555	-0.541305
O13	O	1.275239	-0.511714	-0.834227
O14	O	1.130236	-0.506383	-0.647035
O15	O	1.417069	-0.369924	-0.870330
O16	O	1.426332	-0.624887	-0.541283
O17	O	1.280509	-0.656770	-0.647023
C18	C	1.108452	-0.437583	-0.588840
C19	C	0.992760	-0.450210	-0.572530
C20	C	0.819609	-0.414612	-0.618673
C21	C	0.939183	-0.401564	-0.635529
C22	C	1.349315	-0.678600	-0.588845
C23	C	1.336761	-0.794302	-0.572565
C24	C	1.385474	-0.847813	-0.635537
C25	C	1.372501	-0.967396	-0.618711
C26	C	1.650344	-0.378571	-0.665333
C27	C	1.766030	-0.365973	-0.681663
C28	C	1.340695	-0.446273	-0.889867
C29	C	1.324427	-0.462525	-1.001880
C30	C	1.408566	-0.136612	-0.665353
C31	C	1.421221	-0.020905	-0.681692
C32	C	1.387348	-0.399616	-1.069682
C33	C	1.370536	-0.416412	-1.185454
C34	C	1.416965	-0.370062	-0.365198
C35	C	1.433466	-0.353495	-0.253255
H36	H	0.776958	-0.465908	-0.552263
H37	H	1.472530	-0.978193	-0.748069
O38	O	1.268799	-0.850883	-0.484647
H39	H	1.186827	-0.841551	-0.493230
O40	O	1.282681	-0.504232	-1.222073
H41	H	1.283265	-0.503647	-1.307257
H42	H	1.453661	-0.333320	-1.042020
H43	H	1.499782	-0.287191	-1.225600
O44	O	0.936287	-0.518169	-0.484552
H45	H	0.874441	-0.583109	-0.515155
H46	H	0.981832	-0.350254	-0.701937
O47	O	0.822512	-0.298015	-0.769632
H48	H	0.907565	-0.298436	-0.769071
H49	H	1.321182	-1.010111	-0.552342
O50	O	1.236573	-0.550337	-1.038505
H51	H	1.270445	-0.605142	-1.085566
O52	O	1.453450	-0.791243	-0.723451
H53	H	1.452980	-0.706193	-0.722864
