data_functionalizedCrystal
_audit_creation_method	'MofGen! by Chris Wilmer'
_symmetry_space_group_name_H-M	'P1'
_symmetry_Int_Tables_number	1
_symmetry_cell_setting	triclinic
loop_
_symmetry_equiv_pos_as_xyz
  x,y,z
_cell_length_a	13.033291
_cell_length_b	13.031981
_cell_length_c	13.032268
_cell_angle_alpha	89.068348
_cell_angle_beta	89.079236
_cell_angle_gamma	103.320130
loop_
_atom_site_label
_atom_site_type_symbol
_atom_site_fract_x
_atom_site_fract_y
_atom_site_fract_z
Zn1	Zn	1.463158	-0.323862	-0.735824
Zn2	Zn	1.963158	0.176138	-0.235824
Zn3	Zn	1.468593	-0.473457	-0.542762
Zn4	Zn	1.968593	0.026543	-0.042762
Zn5	Zn	1.313617	-0.318365	-0.542775
Zn6	Zn	1.813617	0.181635	-0.042775
Zn7	Zn	1.270113	-0.516853	-0.686685
Zn8	Zn	1.770113	-0.016853	-0.186685
O9	O	1.378870	-0.408134	-0.627012
O10	O	1.878870	0.091866	-0.127012
O11	O	1.609526	-0.327845	-0.730774
O12	O	2.109526	0.172155	-0.230774
O13	O	1.468516	-0.432422	-0.401740
O14	O	1.968516	0.067578	0.098260
O15	O	1.349386	-0.173420	-0.588954
O16	O	1.849386	0.326580	-0.088954
O17	O	1.613520	-0.437752	-0.588932
O18	O	2.113520	0.062248	-0.088932
O19	O	1.459253	-0.177459	-0.730787
O20	O	1.959253	0.322541	-0.230787
O21	O	1.354656	-0.318477	-0.401750
O22	O	1.854656	0.181523	0.098250
O23	O	1.162198	-0.360555	-0.541305
O24	O	1.662198	0.139445	-0.041305
O25	O	1.275239	-0.511714	-0.834227
O26	O	1.775239	-0.011714	-0.334227
O27	O	1.130236	-0.506383	-0.647035
O28	O	1.630236	-0.006383	-0.147035
O29	O	1.417069	-0.369924	-0.870330
O30	O	1.917069	0.130076	-0.370330
O31	O	1.426332	-0.624887	-0.541283
O32	O	1.926332	-0.124887	-0.041283
O33	O	1.280509	-0.656770	-0.647023
O34	O	1.780509	-0.156770	-0.147023
C35	C	1.108452	-0.437583	-0.588840
C36	C	1.608452	0.062417	-0.088840
C37	C	0.992760	-0.450210	-0.572530
C38	C	1.492760	0.049790	-0.072530
C39	C	0.819609	-0.414612	-0.618673
C40	C	1.319609	0.085388	-0.118673
C41	C	0.939183	-0.401564	-0.635529
C42	C	1.439183	0.098436	-0.135529
C43	C	1.349315	-0.678600	-0.588845
C44	C	1.849315	-0.178600	-0.088845
C45	C	1.336761	-0.794302	-0.572565
C46	C	1.836761	-0.294302	-0.072565
C47	C	1.385474	-0.847813	-0.635537
C48	C	1.885474	-0.347813	-0.135537
C49	C	1.372501	-0.967396	-0.618711
C50	C	1.872501	-0.467396	-0.118711
C51	C	1.650344	-0.378571	-0.665333
C52	C	2.150344	0.121429	-0.165333
C53	C	1.766030	-0.365973	-0.681663
C54	C	2.266030	0.134027	-0.181663
C55	C	1.340695	-0.446273	-0.889867
C56	C	1.840695	0.053727	-0.389867
C57	C	1.324427	-0.462525	-1.001880
C58	C	1.824427	0.037475	-0.501880
C59	C	1.408566	-0.136612	-0.665353
C60	C	1.908566	0.363388	-0.165353
C61	C	1.421221	-0.020905	-0.681692
C62	C	1.921221	0.479095	-0.181692
C63	C	1.387348	-0.399616	-1.069682
C64	C	1.887348	0.100384	-0.569682
C65	C	1.370536	-0.416412	-1.185454
C66	C	1.870536	0.083588	-0.685454
C67	C	1.416965	-0.370062	-0.365198
C68	C	1.916965	0.129938	0.134802
C69	C	1.433466	-0.353495	-0.253255
C70	C	1.933466	0.146505	0.246745
H71	H	0.776958	-0.465908	-0.552263
H72	H	1.276958	0.034092	-0.052263
H73	H	1.472530	-0.978193	-0.748069
H74	H	1.972530	-0.478193	-0.248069
O75	O	1.268799	-0.850883	-0.484647
O76	O	1.768799	-0.350883	0.015353
H77	H	1.186827	-0.841551	-0.493230
H78	H	1.686827	-0.341551	0.006770
O79	O	1.282681	-0.504232	-1.222073
O80	O	1.782681	-0.004232	-0.722073
H81	H	1.283265	-0.503647	-1.307257
H82	H	1.783265	-0.003647	-0.807257
H83	H	1.453661	-0.333320	-1.042020
H84	H	1.953661	0.166680	-0.542020
H85	H	1.499782	-0.287191	-1.225600
H86	H	1.999782	0.212809	-0.725600
O87	O	0.936287	-0.518169	-0.484552
O88	O	1.436287	-0.018169	0.015448
H89	H	0.874441	-0.583109	-0.515155
H90	H	1.374441	-0.083109	-0.015155
H91	H	0.981832	-0.350254	-0.701937
H92	H	1.481832	0.149746	-0.201937
O93	O	0.822512	-0.298015	-0.769632
O94	O	1.322512	0.201985	-0.269632
H95	H	0.907565	-0.298436	-0.769071
H96	H	1.407565	0.201564	-0.269071
H97	H	1.321182	-1.010111	-0.552342
H98	H	1.821182	-0.510111	-0.052342
O99	O	1.236573	-0.550337	-1.038505
O100	O	1.736573	-0.050337	-0.538505
H101	H	1.270445	-0.605142	-1.085566
H102	H	1.770445	-0.105142	-0.585566
O103	O	1.453450	-0.791243	-0.723451
O104	O	1.953450	-0.291243	-0.223451
H105	H	1.452980	-0.706193	-0.722864
H106	H	1.952980	-0.206193	-0.222864
