data_functionalizedCrystal
_audit_creation_method	'MofGen! by Chris Wilmer'
_symmetry_space_group_name_H-M	'P1'
_symmetry_Int_Tables_number	1
_symmetry_cell_setting	triclinic
loop_
_symmetry_equiv_pos_as_xyz
  x,y,z
_cell_length_a	19.188930
_cell_length_b	10.540539
_cell_length_c	9.016244
_cell_angle_alpha	90.003849
_cell_angle_beta	90.016916
_cell_angle_gamma	83.835136
loop_
_atom_site_label
_atom_site_type_symbol
_atom_site_fract_x
_atom_site_fract_y
_atom_site_fract_z
O1	O	-0.927200	-0.158472	-0.123811
O2	O	-0.724030	-0.179805	-0.123708
O3	O	-0.830250	0.015670	-0.123760
O4	O	-0.820980	-0.353947	-0.123759
O5	O	-0.830244	0.015681	0.122921
O6	O	-0.724024	-0.179794	0.122972
O7	O	-0.927194	-0.158461	0.122870
Cu8	Cu	-0.825608	-0.169126	0.145445
Cu9	Cu	-0.825616	-0.169140	-0.146283
O10	O	-0.820974	-0.353936	0.122922
C11	C	-0.698012	-0.179108	-0.000355
C12	C	-0.620493	-0.177035	-0.000316
C13	C	-0.829552	0.062963	-0.000422
C14	C	-0.827472	0.203866	-0.000429
C15	C	-0.953212	-0.159157	-0.000487
C16	C	-1.030731	-0.161231	-0.000535
C17	C	-0.576334	-0.291733	-0.000339
C18	C	-0.503497	-0.289785	-0.000355
C19	C	-0.474823	-0.173132	-0.000378
C20	C	-0.518992	-0.058418	-0.000347
C21	C	-0.591827	-0.060370	-0.000316
N22	N	-0.366251	-0.083969	-0.084395
N23	N	-0.297060	-0.082123	-0.084427
C24	C	-0.255375	-0.167245	-0.000469
N25	N	-0.285494	-0.254302	0.083505
N26	N	-0.354691	-0.256152	0.083531
C27	C	-0.395846	-0.171003	-0.000411
C28	C	-0.132237	-0.279839	-0.000508
C29	C	-0.059400	-0.277885	-0.000515
C30	C	-0.074896	-0.046516	-0.000521
C31	C	-0.147732	-0.048472	-0.000499
C32	C	-0.176398	-0.165137	-0.000500
C33	C	-0.821672	-0.401229	-0.000420
C34	C	-0.823752	-0.542132	-0.000422
N35	N	-0.825609	-0.169116	0.350631
C36	C	-0.747771	0.385536	-0.000942
C37	C	-0.749879	0.238965	-0.000388
C38	C	-0.864810	0.266352	0.140419
C39	C	-0.862162	0.412839	0.140539
C40	C	-0.863747	0.413379	-0.139984
C41	C	-0.864461	0.266413	-0.141847
N42	N	-0.825621	-0.169140	-0.351470
C43	C	-0.882461	-0.064562	0.413528
C44	C	-0.882673	-0.064843	0.585418
C45	C	-0.841888	-0.301658	0.586091
C46	C	-0.842290	-0.301031	0.414146
C47	C	-0.752324	-0.142349	0.414057
C48	C	-0.752806	-0.139351	0.586013
H49	H	-0.599669	-0.386731	-0.000342
Br50	Br	-0.955167	0.494847	0.151162
Br51	Br	-0.972582	-0.092669	0.341453
Br52	Br	-0.973306	-0.093388	0.653929
Br53	Br	-0.443555	-0.445458	-0.000377
H54	H	-0.921791	0.245254	0.145628
H55	H	-0.894740	-0.325809	0.629117
H56	H	-0.736778	-0.047771	0.370715
H57	H	-0.495641	0.036562	-0.000386
H58	H	-0.183688	0.044928	-0.000489
Br59	Br	-0.774736	-0.434483	0.654212
H60	H	-0.895747	-0.324602	0.374003
H61	H	-0.717242	0.415076	0.099525
H62	H	-0.837142	0.224948	-0.246042
H63	H	-0.838868	0.223186	0.245261
Br64	Br	-0.816159	0.458841	0.316066
Br65	Br	-0.821888	0.465019	-0.317919
Br66	Br	-0.651762	0.095305	-0.000281
H67	H	-0.740471	-0.041865	0.626825
H68	H	-0.155578	-0.374834	-0.000486
H69	H	-0.708491	-0.210568	0.628972
Br70	Br	-0.958751	0.228112	-0.156088
H71	H	-0.023445	-0.371291	-0.000525
H72	H	-0.710012	-0.218596	0.373384
H73	H	-0.051551	0.048466	-0.000632
Br74	Br	-0.696683	0.432064	-0.169291
Br75	Br	-0.700912	0.166862	-0.168669
H76	H	-0.720289	0.196561	0.100774
H77	H	-0.872933	0.033660	0.627636
Br78	Br	-0.957158	0.494148	-0.141614
Br79	Br	-0.866479	0.100183	0.344656
Br80	Br	-0.776511	-0.435530	0.344791
