data_functionalizedCrystal
_audit_creation_method	'MofGen! by Chris Wilmer'
_symmetry_space_group_name_H-M	'P1'
_symmetry_Int_Tables_number	1
_symmetry_cell_setting	triclinic
loop_
_symmetry_equiv_pos_as_xyz
  x,y,z
_cell_length_a	12.759401
_cell_length_b	19.076808
_cell_length_c	12.759393
_cell_angle_alpha	87.665862
_cell_angle_beta	89.979062
_cell_angle_gamma	92.325019
loop_
_atom_site_label
_atom_site_type_symbol
_atom_site_fract_x
_atom_site_fract_y
_atom_site_fract_z
Zn1	Zn	1.589386	-0.280155	-0.577177
Zn2	Zn	2.089386	0.219845	-0.077177
Zn3	Zn	1.582184	-0.397876	-0.394420
Zn4	Zn	2.082184	0.102124	0.105580
Zn5	Zn	1.413683	-0.280193	-0.401510
Zn6	Zn	1.913683	0.219807	0.098490
Zn7	Zn	1.406587	-0.397827	-0.570060
Zn8	Zn	1.906587	0.102173	-0.070060
O9	O	1.497960	-0.339013	-0.485792
O10	O	1.997960	0.160987	0.014208
O11	O	1.735451	-0.295776	-0.552945
O12	O	2.235451	0.204224	-0.052945
O13	O	1.559788	-0.382302	-0.248337
O14	O	2.059788	0.117698	0.251663
O15	O	1.442974	-0.181691	-0.430759
O16	O	1.942974	0.318309	0.069241
O17	O	1.730160	-0.382265	-0.418675
O18	O	2.230160	0.117735	0.081325
O19	O	1.572062	-0.181663	-0.559820
O20	O	2.072062	0.318337	-0.059820
O21	O	1.435990	-0.295840	-0.253546
O22	O	1.935990	0.204160	0.246454
O23	O	1.265721	-0.295792	-0.423858
O24	O	1.765721	0.204208	0.076142
O25	O	1.430880	-0.382182	-0.718028
O26	O	1.930880	0.117818	-0.218028
O27	O	1.260507	-0.382218	-0.547691
O28	O	1.760507	0.117782	-0.047691
O29	O	1.565182	-0.295729	-0.723257
O30	O	2.065182	0.204271	-0.223257
O31	O	1.552907	-0.496367	-0.411773
O32	O	2.052907	0.003633	0.088227
O33	O	1.423896	-0.496331	-0.540816
O34	O	1.923896	0.003669	-0.040816
C35	C	1.224993	-0.339004	-0.485772
C36	C	1.724993	0.160996	0.014228
C37	C	1.108216	-0.339018	-0.485787
C38	C	1.608216	0.160982	0.014213
C39	C	1.486879	-0.521888	-0.474776
C40	C	1.986879	-0.021888	0.025224
C41	C	1.482234	-0.600123	-0.470098
C42	C	1.982234	-0.100123	0.029902
C43	C	1.050662	-0.384088	-0.550157
C44	C	1.550662	0.115912	-0.050157
C45	C	0.940938	-0.384091	-0.550178
C46	C	1.440938	0.115909	-0.050178
C47	C	0.946330	-0.293951	-0.421449
C48	C	1.446330	0.206049	0.078551
C49	C	1.056052	-0.293945	-0.421435
C50	C	1.556052	0.206055	0.078565
C51	C	1.547211	-0.636803	-0.535150
C52	C	2.047211	-0.136803	-0.035150
C53	C	1.542843	-0.710312	-0.530757
C54	C	2.042843	-0.210312	-0.030757
C55	C	1.473502	-0.747141	-0.461305
C56	C	1.973502	-0.247141	0.038695
C57	C	1.408518	-0.710456	-0.396250
C58	C	1.908518	-0.210456	0.103750
C59	C	1.412881	-0.636947	-0.400650
C60	C	1.912881	-0.136947	0.099350
C61	C	1.453245	-0.966996	-0.440941
C62	C	1.953245	-0.466996	0.059059
C63	C	1.448889	-1.040509	-0.436545
C64	C	1.948889	-0.540509	0.063455
C65	C	1.583213	-1.040361	-0.571053
C66	C	2.083213	-0.540361	-0.071053
C67	C	1.587575	-0.966851	-0.575442
C68	C	2.087575	-0.466851	-0.075442
C69	C	1.522587	-0.930172	-0.510391
C70	C	2.022587	-0.430172	-0.010391
N71	N	1.469038	-0.822280	-0.456811
N72	N	1.969038	-0.322280	0.043189
N73	N	1.527047	-0.855035	-0.514892
N74	N	2.027047	-0.355035	-0.014892
C75	C	1.771992	-0.339022	-0.485813
C76	C	2.271992	0.160978	0.014187
C77	C	1.888769	-0.339026	-0.485822
C78	C	2.388769	0.160974	0.014178
C79	C	1.498042	-0.338945	-0.759830
C80	C	1.998042	0.161055	-0.259830
C81	C	1.498078	-0.338917	-0.876608
C82	C	1.998078	0.161083	-0.376608
C83	C	1.509113	-0.155424	-0.496874
C84	C	2.009113	0.344576	0.003126
C85	C	1.513866	-0.077189	-0.501597
C86	C	2.013866	0.422811	-0.001597
C87	C	1.568014	-0.293893	-0.934195
C88	C	2.068014	0.206107	-0.434195
C89	C	1.568034	-0.293863	-1.043921
C90	C	2.068034	0.206137	-0.543921
C91	C	1.428177	-0.383885	-1.038463
C92	C	1.928177	0.116115	-0.538463
C93	C	1.428153	-0.383912	-0.928739
C94	C	1.928153	0.116088	-0.428739
C95	C	1.497941	-0.339030	-0.212824
C96	C	1.997941	0.160970	0.287176
C97	C	1.498121	-0.338860	-0.096058
C98	C	1.998121	0.161140	0.403942
H99	H	1.093130	-0.420787	-0.602559
H100	H	1.593130	0.079213	-0.102559
O101	O	1.622010	-0.597081	-0.610050
O102	O	2.122010	-0.097081	-0.110050
H103	H	1.666454	-0.634940	-0.654550
H104	H	2.166454	-0.134940	-0.154550
O105	O	1.352761	-0.432413	-1.094692
O106	O	1.852761	0.067587	-0.594692
H107	H	1.397613	-0.468220	-1.142522
H108	H	1.897613	0.031780	-0.642522
H109	H	1.595763	-0.740174	-0.583722
H110	H	2.095763	-0.240174	-0.083722
H111	H	1.359969	-0.607083	-0.347679
H112	H	1.859969	-0.107083	0.152321
O113	O	1.333723	-0.750171	-0.321340
O114	O	1.833723	-0.250171	0.178660
H115	H	1.352619	-0.736081	-0.239745
H116	H	1.852619	-0.236081	0.260255
O117	O	1.662398	-0.927128	-0.650316
O118	O	2.162398	-0.427128	-0.150316
H119	H	1.706856	-0.964984	-0.694807
H120	H	2.206856	-0.464984	-0.194807
O121	O	1.653289	-1.079919	-0.641230
O122	O	2.153289	-0.579919	-0.141230
H123	H	1.638600	-1.137221	-0.626516
H124	H	2.138600	-0.637221	-0.126516
O125	O	1.374089	-1.080236	-0.361641
O126	O	1.874089	-0.580236	0.138359
H127	H	1.329622	-1.042382	-0.317153
H128	H	1.829622	-0.542382	0.182847
O129	O	1.118124	-0.245331	-0.351992
O130	O	1.618124	0.254669	0.148008
H131	H	1.170297	-0.209549	-0.401250
H132	H	1.670297	0.290451	0.098750
H133	H	1.400331	-0.937138	-0.387972
H134	H	1.900331	-0.437138	0.112028
O135	O	1.643420	-0.245361	-0.877962
O136	O	2.143420	0.254639	-0.377962
H137	H	1.692048	-0.214044	-0.936445
H138	H	2.192048	0.285956	-0.436445
O139	O	1.643470	-0.245307	-1.106036
O140	O	2.143470	0.254693	-0.606036
H141	H	1.692091	-0.214030	-1.051348
H142	H	2.192091	0.285970	-0.551348
H143	H	0.903845	-0.257256	-0.369055
H144	H	1.403845	0.242744	0.130945
H145	H	1.371195	-0.420574	-0.881851
H146	H	1.871195	0.079426	-0.381851
H147	H	0.894083	-0.420790	-0.602596
H148	H	1.394083	0.079210	-0.102596
