data_functionalizedCrystal
_audit_creation_method	'MofGen! by Chris Wilmer'
_symmetry_space_group_name_H-M	'P1'
_symmetry_Int_Tables_number	1
_symmetry_cell_setting	triclinic
loop_
_symmetry_equiv_pos_as_xyz
  x,y,z
_cell_length_a	16.625548
_cell_length_b	29.839131
_cell_length_c	16.625539
_cell_angle_alpha	89.969769
_cell_angle_beta	89.982945
_cell_angle_gamma	90.042488
loop_
_atom_site_label
_atom_site_type_symbol
_atom_site_fract_x
_atom_site_fract_y
_atom_site_fract_z
Zn1	Zn	1.232546	-0.178848	-0.455888
Zn2	Zn	1.732546	0.321152	0.044112
Zn3	Zn	1.232413	-0.253976	-0.321046
Zn4	Zn	1.732413	0.246024	0.178954
Zn5	Zn	1.097716	-0.178863	-0.321069
Zn6	Zn	1.597716	0.321137	0.178931
Zn7	Zn	1.097634	-0.253953	-0.455836
Zn8	Zn	1.597634	0.246047	0.044164
O9	O	1.165077	-0.216410	-0.388460
O10	O	1.665077	0.283590	0.111540
O11	O	1.345361	-0.188818	-0.438013
O12	O	1.845361	0.311182	0.061987
O13	O	1.214524	-0.244028	-0.208217
O14	O	1.714524	0.255972	0.291783
O15	O	1.115692	-0.115994	-0.338984
O16	O	1.615692	0.384006	0.161016
O17	O	1.345263	-0.244014	-0.338946
O18	O	1.845263	0.255986	0.161054
O19	O	1.214751	-0.115983	-0.438035
O20	O	1.714751	0.384017	0.061965
O21	O	1.115563	-0.188843	-0.208233
O22	O	1.615563	0.311157	0.291767
O23	O	0.984873	-0.188820	-0.338933
O24	O	1.484873	0.311180	0.161067
O25	O	1.115552	-0.243974	-0.568676
O26	O	1.615552	0.256026	-0.068676
O27	O	0.984813	-0.243989	-0.437947
O28	O	1.484813	0.256011	0.062053
O29	O	1.214671	-0.188795	-0.568714
O30	O	1.714671	0.311205	-0.068714
O31	O	1.214444	-0.316841	-0.338896
O32	O	1.714444	0.183159	0.161104
O33	O	1.115423	-0.316823	-0.437925
O34	O	1.615423	0.183177	0.062075
C35	C	0.955587	-0.216404	-0.388437
C36	C	1.455587	0.283596	0.111563
C37	C	0.865966	-0.216412	-0.388447
C38	C	1.365966	0.283588	0.111553
C39	C	0.537790	-0.216415	-0.388481
C40	C	1.037790	0.283585	0.111519
C41	C	0.629098	-0.216413	-0.388469
C42	C	1.129098	0.283587	0.111531
C43	C	0.701875	-0.216413	-0.388463
C44	C	1.201875	0.283587	0.111537
C45	C	0.793189	-0.216411	-0.388452
C46	C	1.293189	0.283589	0.111548
C47	C	1.164932	-0.333133	-0.388420
C48	C	1.664932	0.166867	0.111580
C49	C	1.164943	-0.383067	-0.388430
C50	C	1.664943	0.116933	0.111570
C51	C	1.216732	-0.692707	-0.336971
C52	C	1.716732	-0.192707	0.163029
C53	C	1.216831	-0.880380	-0.337002
C54	C	1.716831	-0.380380	0.162998
O55	O	1.260748	-0.904641	-0.293219
O56	O	1.760748	-0.404641	0.206781
N57	N	1.165245	-0.903852	-0.388521
N58	N	1.665245	-0.403852	0.111479
C59	C	1.113633	-0.880403	-0.440039
C60	C	1.613633	-0.380403	0.059961
O61	O	1.069764	-0.904674	-0.483866
O62	O	1.569764	-0.404674	0.016134
C63	C	1.113538	-0.692731	-0.440011
C64	C	1.613538	-0.192731	0.059989
C65	C	1.165123	-0.669261	-0.388483
C66	C	1.665123	-0.169261	0.111517
C67	C	1.268313	-0.669237	-0.285447
C68	C	1.768313	-0.169237	0.214553
C69	C	1.268284	-0.622321	-0.285437
C70	C	1.768284	-0.122321	0.214563
C71	C	1.216675	-0.598876	-0.336950
C72	C	1.716675	-0.098876	0.163050
C73	C	1.165094	-0.622346	-0.388473
C74	C	1.665094	-0.122346	0.111527
C75	C	1.061931	-0.669283	-0.491533
C76	C	1.561931	-0.169283	0.008467
C77	C	1.061914	-0.622362	-0.491523
C78	C	1.561914	-0.122362	0.008477
C79	C	1.113498	-0.598892	-0.439995
C80	C	1.613498	-0.098892	0.060005
C81	C	1.113456	-0.551985	-0.439975
C82	C	1.613456	-0.051985	0.060025
N83	N	1.165043	-0.528512	-0.388456
N84	N	1.665043	-0.028512	0.111544
C85	C	1.216652	-0.551958	-0.336944
C86	C	1.716652	-0.051958	0.163056
C87	C	1.113685	-0.978934	-0.440049
C88	C	1.613685	-0.478934	0.059951
C89	C	1.113708	-1.025852	-0.440055
C90	C	1.613708	-0.525852	0.059945
C91	C	1.216908	-1.025825	-0.337019
C92	C	1.716908	-0.525825	0.162981
C93	C	1.216880	-0.978906	-0.337009
C94	C	1.716880	-0.478906	0.162991
C95	C	1.165272	-0.955462	-0.388530
C96	C	1.665272	-0.455462	0.111470
C97	C	1.216588	-0.453432	-0.336925
C98	C	1.716588	0.046568	0.163075
C99	C	1.216553	-0.406513	-0.336917
C100	C	1.716553	0.093487	0.163083
C101	C	1.113356	-0.406543	-0.439956
C102	C	1.613356	0.093457	0.060044
C103	C	1.113389	-0.453459	-0.439962
C104	C	1.613389	0.046541	0.060038
C105	C	1.165011	-0.476902	-0.388443
C106	C	1.665011	0.023098	0.111557
O107	O	1.069569	-0.527694	-0.483742
O108	O	1.569569	-0.027694	0.016258
O109	O	1.260528	-0.527679	-0.293136
O110	O	1.760528	-0.027679	0.206864
C111	C	1.216760	-0.739622	-0.336981
C112	C	1.716760	-0.239622	0.163019
C113	C	1.165180	-0.763092	-0.388504
C114	C	1.665180	-0.263092	0.111496
C115	C	1.113570	-0.739647	-0.440017
C116	C	1.613570	-0.239647	0.059983
C117	C	1.165202	-0.810010	-0.388510
C118	C	1.665202	-0.310010	0.111490
C119	C	1.216811	-0.833455	-0.336997
C120	C	1.716811	-0.333455	0.163003
C121	C	1.268398	-0.809983	-0.285479
C122	C	1.768398	-0.309983	0.214521
C123	C	1.268370	-0.763068	-0.285468
C124	C	1.768370	-0.263068	0.214532
C125	C	1.061984	-0.763119	-0.491536
C126	C	1.561984	-0.263119	0.008464
C127	C	1.062016	-0.810034	-0.491541
C128	C	1.562016	-0.310034	0.008459
C129	C	1.113625	-0.833480	-0.440028
C130	C	1.613625	-0.333480	0.059972
C131	C	1.375386	-0.216417	-0.388483
C132	C	1.875386	0.283583	0.111517
C133	C	1.465007	-0.216420	-0.388493
C134	C	1.965007	0.283580	0.111507
C135	C	1.165117	-0.216380	-0.598769
C136	C	1.665117	0.283620	-0.098769
C137	C	1.165134	-0.216368	-0.688390
C138	C	1.665134	0.283632	-0.188390
C139	C	1.165246	-0.099232	-0.388518
C140	C	1.665246	0.400768	0.111482
C141	C	1.165317	-0.049297	-0.388542
C142	C	1.665317	0.450703	0.111458
C143	C	1.165147	-0.216358	-0.761172
C144	C	1.665147	0.283642	-0.261172
C145	C	1.165166	-0.216341	-0.852481
C146	C	1.665166	0.283659	-0.352481
C147	C	1.165185	-0.216325	-0.925257
C148	C	1.665185	0.283675	-0.425257
C149	C	1.165205	-0.216309	-1.016572
C150	C	1.665205	0.283691	-0.516572
C151	C	1.165085	-0.216407	-0.178969
C152	C	1.665085	0.283593	0.321031
C153	C	1.165224	-0.216293	-0.089348
C154	C	1.665224	0.283707	0.410652
H155	H	1.258559	-0.387405	-0.294954
H156	H	1.758559	0.112595	0.205046
H157	H	1.019889	-0.603276	-0.533480
H158	H	1.519889	-0.103276	-0.033480
N159	N	1.272527	-0.953598	-0.281439
N160	N	1.772527	-0.453598	0.218561
H161	H	1.309865	-0.934101	-0.314238
H162	H	1.809865	-0.434101	0.185762
H163	H	1.239723	-0.934187	-0.244047
H164	H	1.739723	-0.434187	0.255953
N165	N	1.058056	-1.051159	-0.495622
N166	N	1.558056	-0.551159	0.004378
H167	H	1.070540	-1.042966	-0.553242
H168	H	1.570540	-0.542966	-0.053242
H169	H	1.065918	-1.084432	-0.487748
H170	H	1.565918	-0.584432	0.012252
H171	H	1.310291	-0.603215	-0.243481
H172	H	1.810291	-0.103215	0.256519
H173	H	1.310343	-0.688321	-0.243499
H174	H	1.810343	-0.188321	0.256501
N175	N	1.006367	-0.835346	-0.547114
N176	N	1.506367	-0.335346	-0.047114
H177	H	0.973672	-0.813370	-0.579743
H178	H	1.473672	-0.313370	-0.079743
H179	H	1.039175	-0.854778	-0.584465
H180	H	1.539175	-0.354778	-0.084465
H181	H	1.019922	-0.688384	-0.533489
H182	H	1.519922	-0.188384	-0.033489
N183	N	1.324013	-0.737756	-0.229900
N184	N	1.824013	-0.237756	0.270100
H185	H	1.311535	-0.745951	-0.172279
H186	H	1.811535	-0.245951	0.327721
H187	H	1.381595	-0.745898	-0.242553
H188	H	1.881595	-0.245898	0.257447
H189	H	1.310418	-0.829081	-0.243533
H190	H	1.810418	-0.329081	0.256467
N191	N	1.058009	-0.953653	-0.495616
N192	N	1.558009	-0.453653	0.004384
H193	H	1.020653	-0.934220	-0.462810
H194	H	1.520653	-0.434220	0.037190
H195	H	1.090791	-0.934182	-0.533007
H196	H	1.590791	-0.434182	-0.033007
H197	H	1.258930	-1.044922	-0.295075
H198	H	1.758930	-0.544922	0.204925
H199	H	1.071387	-0.472569	-0.481922
H200	H	1.571387	0.027431	0.018078
N201	N	1.006314	-0.737835	-0.547096
N202	N	1.506314	-0.237835	-0.047096
H203	H	0.973642	-0.759828	-0.579730
H204	H	1.473642	-0.259828	-0.079730
H205	H	0.969008	-0.718405	-0.514234
H206	H	1.469008	-0.218405	-0.014234
N207	N	1.057694	-0.381247	-0.495508
N208	N	1.557694	0.118753	0.004492
H209	H	1.090436	-0.361749	-0.532894
H210	H	1.590436	0.138251	-0.032894
H211	H	1.025026	-0.403258	-0.528101
H212	H	1.525026	0.096742	-0.028101
N213	N	1.272265	-0.478713	-0.281361
N214	N	1.772265	0.021287	0.218639
H215	H	1.304932	-0.456720	-0.248723
H216	H	1.804932	0.043280	0.251277
H217	H	1.239480	-0.498212	-0.244019
H218	H	1.739480	0.001788	0.255981
