data_functionalizedCrystal
_audit_creation_method	'MofGen! by Chris Wilmer'
_symmetry_space_group_name_H-M	'P1'
_symmetry_Int_Tables_number	1
_symmetry_cell_setting	triclinic
loop_
_symmetry_equiv_pos_as_xyz
  x,y,z
_cell_length_a	21.395364
_cell_length_b	19.076808
_cell_length_c	21.395356
_cell_angle_alpha	87.672578
_cell_angle_beta	89.983542
_cell_angle_gamma	92.319192
loop_
_atom_site_label
_atom_site_type_symbol
_atom_site_fract_x
_atom_site_fract_y
_atom_site_fract_z
Zn1	Zn	0.947808	-0.280310	-0.344231
Zn2	Zn	1.447808	0.219690	0.155769
Zn3	Zn	0.943525	-0.398015	-0.235242
Zn4	Zn	1.443525	0.101985	0.264758
Zn5	Zn	0.843037	-0.280321	-0.239467
Zn6	Zn	1.343037	0.219679	0.260533
Zn7	Zn	0.838794	-0.397968	-0.339984
Zn8	Zn	1.338794	0.102032	0.160016
O9	O	0.893291	-0.339154	-0.289731
O10	O	1.393291	0.160846	0.210269
O11	O	1.034917	-0.295938	-0.329782
O12	O	1.534917	0.204062	0.170218
O13	O	0.930179	-0.382427	-0.148123
O14	O	1.430179	0.117573	0.351877
O15	O	0.860503	-0.181823	-0.256910
O16	O	1.360503	0.318177	0.243090
O17	O	1.031771	-0.382416	-0.249708
O18	O	1.531771	0.117584	0.250292
O19	O	0.937478	-0.181815	-0.333880
O20	O	1.437478	0.318185	0.166120
O21	O	0.856351	-0.295958	-0.151228
O22	O	1.356351	0.204042	0.348772
O23	O	0.754797	-0.295912	-0.252792
O24	O	1.254797	0.204088	0.247208
O25	O	0.853271	-0.382337	-0.428226
O26	O	1.353271	0.117663	0.071774
O27	O	0.751679	-0.382347	-0.326641
O28	O	1.251679	0.117653	0.173359
O29	O	0.933363	-0.295893	-0.431346
O30	O	1.433363	0.204107	0.068654
O31	O	0.926064	-0.496505	-0.245590
O32	O	1.426064	0.003495	0.254410
O33	O	0.849119	-0.496471	-0.322543
O34	O	1.349119	0.003529	0.177457
C35	C	0.730504	-0.339127	-0.289714
C36	C	1.230504	0.160873	0.210286
C37	C	0.660863	-0.339132	-0.289722
C38	C	1.160863	0.160868	0.210278
C39	C	0.886683	-0.522027	-0.283161
C40	C	1.386683	-0.022027	0.216839
C41	C	0.883914	-0.600261	-0.280371
C42	C	1.383914	-0.100261	0.219629
C43	C	0.160700	-0.294231	-0.331496
C44	C	0.660700	0.205769	0.168504
C45	C	0.226135	-0.294226	-0.331496
C46	C	0.726135	0.205774	0.168504
C47	C	0.257223	-0.339175	-0.289744
C48	C	0.757223	0.160825	0.210256
C49	C	0.222869	-0.384146	-0.248000
C50	C	0.722869	0.115854	0.252000
C51	C	0.157435	-0.384155	-0.248006
C52	C	0.657435	0.115845	0.251994
C53	C	0.360673	-0.344636	-0.233082
C54	C	0.860673	0.155364	0.266918
C55	C	0.426106	-0.344622	-0.233075
C56	C	0.926106	0.155378	0.266925
C57	C	0.459045	-0.339152	-0.289728
C58	C	0.959045	0.160848	0.210272
C59	C	0.426542	-0.333680	-0.346389
C60	C	0.926542	0.166320	0.153611
C61	C	0.361108	-0.333689	-0.346394
C62	C	0.861108	0.166311	0.153606
C63	C	0.328175	-0.339171	-0.289734
C64	C	0.828175	0.160829	0.210266
C65	C	0.564343	-0.294181	-0.331472
C66	C	1.064343	0.205819	0.168528
C67	C	0.629780	-0.294181	-0.331473
C68	C	1.129780	0.205819	0.168527
C69	C	0.626512	-0.384098	-0.247972
C70	C	1.126512	0.115902	0.252028
C71	C	0.561077	-0.384102	-0.247977
C72	C	1.061077	0.115898	0.252023
C73	C	0.529996	-0.339140	-0.289726
C74	C	1.029996	0.160860	0.210274
C75	C	0.922659	-0.636950	-0.319167
C76	C	1.422659	-0.136950	0.180833
C77	C	0.920054	-0.710460	-0.316547
C78	C	1.420054	-0.210460	0.183453
C79	C	0.878707	-0.747278	-0.275128
C80	C	1.378707	-0.247278	0.224872
C81	C	0.839957	-0.710583	-0.236330
C82	C	1.339957	-0.210583	0.263670
C83	C	0.842559	-0.637075	-0.238954
C84	C	1.342559	-0.137075	0.261046
C85	C	0.866628	-0.967130	-0.262983
C86	C	1.366628	-0.467130	0.237017
C87	C	0.864030	-1.040642	-0.260361
C88	C	1.364030	-0.540642	0.239639
C89	C	0.944127	-1.040514	-0.340579
C90	C	1.444127	-0.540514	0.159421
C91	C	0.946728	-0.967005	-0.343196
C92	C	1.446728	-0.467005	0.156804
C93	C	0.907976	-0.930316	-0.304401
C94	C	1.407976	-0.430316	0.195599
N95	N	0.876045	-0.822416	-0.272447
N96	N	1.376045	-0.322416	0.227553
N97	N	0.910635	-0.855180	-0.307085
N98	N	1.410635	-0.355180	0.192915
C99	C	1.056713	-0.339181	-0.289748
C100	C	1.556713	0.160819	0.210252
C101	C	1.126354	-0.339193	-0.289755
C102	C	1.626354	0.160807	0.210245
C103	C	0.893322	-0.339108	-0.453156
C104	C	1.393322	0.160892	0.046844
C105	C	0.893335	-0.339089	-0.522798
C106	C	1.393335	0.160911	-0.022798
C107	C	0.899941	-0.155566	-0.296340
C108	C	1.399941	0.344434	0.203660
C109	C	0.902776	-0.077332	-0.299157
C110	C	1.402776	0.422668	0.200843
C111	C	0.935101	-0.293966	-1.026224
C112	C	1.435101	0.206034	-0.526224
C113	C	0.935096	-0.293983	-0.960788
C114	C	1.435096	0.206017	-0.460788
C115	C	0.893392	-0.338995	-0.926440
C116	C	1.393392	0.161005	-0.426440
C117	C	0.851701	-0.384007	-0.957532
C118	C	1.351701	0.115993	-0.457532
C119	C	0.851712	-0.383994	-1.022967
C120	C	1.351712	0.116006	-0.522967
C121	C	0.836724	-0.344565	-0.822564
C122	C	1.336724	0.155435	-0.322564
C123	C	0.836712	-0.344573	-0.757131
C124	C	1.336712	0.155427	-0.257131
C125	C	0.893358	-0.339040	-0.724617
C126	C	1.393358	0.160960	-0.224617
C127	C	0.950018	-0.333484	-0.757545
C128	C	1.450018	0.166516	-0.257545
C129	C	0.950029	-0.333471	-0.822980
C130	C	1.450029	0.166529	-0.322980
C131	C	0.893375	-0.339015	-0.855487
C132	C	1.393375	0.160985	-0.355487
C133	C	0.935043	-0.294053	-0.622579
C134	C	1.435043	0.205947	-0.122579
C135	C	0.935039	-0.294075	-0.557142
C136	C	1.435039	0.205925	-0.057142
C137	C	0.851638	-0.384096	-0.553887
C138	C	1.351638	0.115904	-0.053887
C139	C	0.851648	-0.384078	-0.619323
C140	C	1.351648	0.115922	-0.119323
C141	C	0.893350	-0.339053	-0.653665
C142	C	1.393350	0.160947	-0.153665
C143	C	0.893298	-0.339148	-0.126944
C144	C	1.393298	0.160852	0.373056
C145	C	0.893414	-0.338969	-0.057309
C146	C	1.393414	0.161031	0.442691
H147	H	0.254105	-0.257609	-0.365485
H148	H	0.754105	0.242391	0.134515
H149	H	0.651823	-0.420702	-0.213982
H150	H	1.151823	0.079298	0.286018
O151	O	0.975548	-0.250251	-1.059679
O152	O	1.475548	0.249749	-0.559679
C153	C	1.012544	-0.210349	-1.161925
C154	C	1.512544	0.289651	-0.661925
C155	C	0.966698	-0.259882	-1.124113
C156	C	1.466698	0.240118	-0.624113
H157	H	1.005414	-0.218129	-1.214027
H158	H	1.505414	0.281871	-0.714027
H159	H	1.003583	-0.153583	-1.151148
H160	H	1.503583	0.346417	-0.651148
H161	H	1.062612	-0.222701	-1.148585
H162	H	1.562612	0.277299	-0.648585
H163	H	0.916613	-0.247594	-1.137432
H164	H	1.416613	0.252406	-0.637432
H165	H	0.975713	-0.316633	-1.134894
H166	H	1.475713	0.183367	-0.634894
O167	O	0.804833	-0.601509	-0.201297
O168	O	1.304833	-0.101509	0.298703
C169	C	0.699063	-0.579098	-0.171618
C170	C	1.199063	-0.079098	0.328382
C171	C	0.741721	-0.619432	-0.214289
C172	C	1.241721	-0.119432	0.285711
H173	H	0.648029	-0.593563	-0.182117
H174	H	1.148029	-0.093563	0.317883
H175	H	0.709530	-0.593584	-0.120578
H176	H	1.209530	-0.093584	0.379422
H177	H	0.708056	-0.520240	-0.180600
H178	H	1.208056	-0.020240	0.319400
H179	H	0.732752	-0.678299	-0.205363
H180	H	1.232752	-0.178299	0.294637
H181	H	0.731246	-0.604887	-0.265316
H182	H	1.231246	-0.104887	0.234684
O183	O	0.527806	-0.427795	-0.207364
O184	O	1.027806	0.072205	0.292636
C185	C	0.531472	-0.517005	-0.124568
C186	C	1.031472	-0.017005	0.375432
C187	C	0.569227	-0.467544	-0.170519
C188	C	1.069227	0.032456	0.329481
H189	H	0.564944	-0.549166	-0.094776
H190	H	1.064944	-0.049166	0.405224
H191	H	0.502006	-0.484680	-0.092974
H192	H	1.002006	0.015320	0.407026
H193	H	0.499505	-0.553824	-0.151971
H194	H	0.999505	-0.053824	0.348029
H195	H	0.601228	-0.430715	-0.143167
H196	H	1.101228	0.069285	0.356833
H197	H	0.598652	-0.499912	-0.202112
H198	H	1.098652	0.000088	0.297888
H199	H	0.969043	-0.257333	-0.935474
H200	H	1.469043	0.242667	-0.435474
H201	H	0.817763	-0.420642	-1.048276
H202	H	1.317763	0.079358	-0.548276
H203	H	0.968990	-0.257430	-0.531833
H204	H	1.468990	0.242570	-0.031833
H205	H	0.956331	-0.606978	-0.352892
H206	H	1.456331	-0.106978	0.147108
H207	H	0.806289	-0.740566	-0.202608
H208	H	1.306289	-0.240566	0.297392
O209	O	0.811149	-0.427757	-0.520435
O210	O	1.311149	0.072243	-0.020435
C211	C	0.774200	-0.467708	-0.418185
C212	C	1.274200	0.032292	0.081815
C213	C	0.820075	-0.418211	-0.455998
C214	C	1.320075	0.081789	0.044002
H215	H	0.781409	-0.460019	-0.366081
H216	H	1.281409	0.039981	0.133919
H217	H	0.724113	-0.455339	-0.431442
H218	H	1.224113	0.044661	0.068558
H219	H	0.783145	-0.524454	-0.429046
H220	H	1.283145	-0.024454	0.070954
H221	H	0.811186	-0.361449	-0.445157
H222	H	1.311186	0.138551	0.054843
H223	H	0.870146	-0.430641	-0.442736
H224	H	1.370146	0.069359	0.057264
H225	H	0.996163	-0.328949	-0.849787
H226	H	1.496163	0.171051	-0.349787
O227	O	1.005040	-0.328242	-0.725940
O228	O	1.505040	0.171758	-0.225940
C229	C	1.073285	-0.382091	-0.650115
C230	C	1.573285	0.117909	-0.150115
C231	C	1.010964	-0.388125	-0.685878
C232	C	1.510964	0.111875	-0.185878
H233	H	1.078089	-0.430492	-0.617706
H234	H	1.578089	0.069508	-0.117706
H235	H	1.113804	-0.378163	-0.684862
H236	H	1.613804	0.121837	-0.184862
H237	H	1.074079	-0.333115	-0.621269
H238	H	1.574079	0.166885	-0.121269
H239	H	1.010108	-0.437097	-0.714725
H240	H	1.510108	0.062903	-0.214725
H241	H	0.970473	-0.392013	-0.651099
H242	H	1.470473	0.107987	-0.151099
O243	O	0.457710	-0.349812	-0.178050
O244	O	0.957710	0.150188	0.321950
C245	C	0.533531	-0.295902	-0.109852
C246	C	1.033531	0.204098	0.390148
C247	C	0.497772	-0.289927	-0.172180
C248	C	0.997772	0.210073	0.327820
H249	H	0.565939	-0.247499	-0.105092
H250	H	1.065939	0.252501	0.394908
H251	H	0.498782	-0.299781	-0.069334
H252	H	0.998782	0.200219	0.430666
H253	H	0.562377	-0.344883	-0.109007
H254	H	1.062377	0.155117	0.390993
H255	H	0.468925	-0.240948	-0.173085
H256	H	0.968925	0.259052	0.326915
H257	H	0.532553	-0.286087	-0.212670
H258	H	1.032553	0.213913	0.287330
O259	O	0.329630	-0.328407	-0.401487
O260	O	0.829630	0.171593	0.098513
C261	C	0.336961	-0.317521	-0.513877
C262	C	0.836961	0.182479	-0.013877
C263	C	0.372686	-0.323510	-0.451530
C264	C	0.872686	0.176490	0.048470
H265	H	0.371756	-0.313546	-0.554353
H266	H	0.871756	0.186454	-0.054353
H267	H	0.304605	-0.365953	-0.518725
H268	H	0.804605	0.134047	-0.018725
H269	H	0.308068	-0.268576	-0.514704
H270	H	0.808068	0.231424	-0.014704
H271	H	0.401614	-0.372426	-0.450660
H272	H	0.901614	0.127574	0.049340
H273	H	0.405004	-0.275044	-0.446707
H274	H	0.905004	0.224956	0.053293
H275	H	0.968999	-0.257391	-0.650542
H276	H	1.468999	0.242609	-0.150542
H277	H	0.817699	-0.420721	-0.644633
H278	H	1.317699	0.079279	-0.144633
H279	H	0.830357	-1.070618	-0.226632
H280	H	1.330357	-0.570618	0.273368
H281	H	0.790576	-0.349096	-0.730326
H282	H	1.290576	0.150904	-0.230326
H283	H	0.790593	-0.349071	-0.849032
H284	H	1.290593	0.150929	-0.349032
H285	H	0.980396	-0.937029	-0.376923
H286	H	1.480396	-0.437029	0.123077
H287	H	0.453359	-0.329222	-0.392520
H288	H	0.953359	0.170778	0.107480
H289	H	0.539036	-0.257571	-0.365467
H290	H	1.039036	0.242429	0.134533
H291	H	0.333859	-0.349094	-0.186945
H292	H	0.833859	0.150906	0.313055
H293	H	0.817746	-0.420658	-0.929562
H294	H	1.317746	0.079342	-0.429562
H295	H	0.135398	-0.257622	-0.365494
H296	H	0.635398	0.242378	0.134506
H297	H	0.129470	-0.420770	-0.214015
H298	H	0.629470	0.079230	0.285985
O299	O	0.828970	-0.931606	-0.225228
O300	O	1.328970	-0.431606	0.274772
C301	C	0.749237	-0.939497	-0.145400
C302	C	1.249237	-0.439497	0.354600
C303	C	0.791859	-0.979819	-0.188117
C304	C	1.291859	-0.479819	0.311883
H305	H	0.719213	-0.978460	-0.115395
H306	H	1.219213	-0.478460	0.384605
H307	H	0.779215	-0.905101	-0.113852
H308	H	1.279215	-0.405101	0.386148
H309	H	0.717698	-0.905071	-0.175368
H310	H	1.217698	-0.405071	0.324632
H311	H	0.823405	-1.014283	-0.158199
H312	H	1.323405	-0.514283	0.341801
H313	H	0.761844	-1.014171	-0.219668
H314	H	1.261844	-0.514171	0.280332
O315	O	0.957722	-0.746182	-0.354137
O316	O	1.457722	-0.246182	0.145863
C317	C	1.039395	-0.829071	-0.359668
C318	C	1.539395	-0.329071	0.140332
C319	C	0.996763	-0.788668	-0.317025
C320	C	1.496763	-0.288668	0.182975
H321	H	1.070980	-0.863419	-0.329679
H322	H	1.570980	-0.363419	0.170321
H323	H	1.009424	-0.863536	-0.391164
H324	H	1.509424	-0.363536	0.108836
H325	H	1.069372	-0.790122	-0.389735
H326	H	1.569372	-0.290122	0.110265
H327	H	0.966778	-0.827566	-0.286918
H328	H	1.466778	-0.327566	0.213082
H329	H	1.026770	-0.754192	-0.285570
H330	H	1.526770	-0.254192	0.214430
O331	O	0.663074	-0.250537	-0.372108
O332	O	1.163074	0.249463	0.127892
C333	C	0.684383	-0.216533	-0.479953
C334	C	1.184383	0.283467	0.020047
C335	C	0.646625	-0.265994	-0.434003
C336	C	1.146625	0.234006	0.065997
H337	H	0.671107	-0.229023	-0.530005
H338	H	1.171107	0.270977	-0.030005
H339	H	0.673546	-0.159754	-0.471117
H340	H	1.173546	0.340246	0.028883
H341	H	0.736487	-0.224238	-0.472750
H342	H	1.236487	0.275762	0.027250
H343	H	0.594510	-0.258352	-0.441179
H344	H	1.094510	0.241648	0.058821
H345	H	0.657515	-0.322756	-0.442851
H346	H	1.157515	0.177244	0.057149
O347	O	0.253133	-0.427844	-0.207528
O348	O	0.753133	0.072156	0.292472
C349	C	0.323561	-0.522877	-0.195548
C350	C	0.823561	-0.022877	0.304452
C351	C	0.289337	-0.473418	-0.241450
C352	C	0.789337	0.026582	0.258550
H353	H	0.352830	-0.559745	-0.222955
H354	H	0.852830	-0.059745	0.277045
H355	H	0.355387	-0.490549	-0.163999
H356	H	0.855387	0.009451	0.336001
H357	H	0.287760	-0.554983	-0.165700
H358	H	0.787760	-0.054983	0.334300
H359	H	0.325094	-0.441300	-0.271338
H360	H	0.825094	0.058700	0.228662
H361	H	0.257500	-0.505785	-0.272955
H362	H	0.757500	-0.005785	0.227045
H363	H	0.975676	-1.070394	-0.372164
H364	H	1.475676	-0.570394	0.127836
