data_functionalizedCrystal
_audit_creation_method	'MofGen! by Chris Wilmer'
_symmetry_space_group_name_H-M	'P1'
_symmetry_Int_Tables_number	1
_symmetry_cell_setting	triclinic
loop_
_symmetry_equiv_pos_as_xyz
  x,y,z
_cell_length_a	14.909042
_cell_length_b	17.077404
_cell_length_c	17.077396
_cell_angle_alpha	90.021457
_cell_angle_beta	86.678275
_cell_angle_gamma	93.281884
loop_
_atom_site_label
_atom_site_type_symbol
_atom_site_fract_x
_atom_site_fract_y
_atom_site_fract_z
Zn1	Zn	-0.359174	-1.218119	-0.425877
Zn2	Zn	-0.510042	-1.225614	-0.287047
Zn3	Zn	-0.359202	-1.086852	-0.294619
Zn4	Zn	-0.509986	-1.094404	-0.418269
O5	O	-0.434601	-1.156247	-0.356453
O6	O	-0.379198	-1.328961	-0.407476
O7	O	-0.490068	-1.207183	-0.178203
O8	O	-0.232956	-1.097968	-0.318383
O9	O	-0.490041	-1.334467	-0.305478
O10	O	-0.232935	-1.194409	-0.414818
O11	O	-0.379247	-1.105236	-0.183766
O12	O	-0.379192	-0.978007	-0.311006
O13	O	-0.489944	-1.110839	-0.529127
O14	O	-0.489972	-0.983555	-0.401852
O15	O	-0.379143	-1.201732	-0.534716
O16	O	-0.636277	-1.214506	-0.298101
O17	O	-0.636235	-1.118106	-0.394510
C18	C	-0.434580	-0.952298	-0.356425
C19	C	-0.434593	-0.865049	-0.356431
C20	C	-0.492362	-0.826973	-0.403648
C21	C	-0.492362	-0.744992	-0.403658
C22	C	-0.434597	-0.701090	-0.356446
C23	C	-0.376821	-0.739172	-0.309227
C24	C	-0.376817	-0.821151	-0.309222
C25	C	-0.376835	-0.568303	-0.309239
C26	C	-0.376840	-0.486318	-0.309243
C27	C	-0.492380	-0.492144	-0.403675
C28	C	-0.492376	-0.574123	-0.403670
C29	C	-0.434601	-0.612199	-0.356450
C30	C	-0.668989	-1.167960	-0.344675
C31	C	-0.769262	-1.173043	-0.339663
C32	C	-0.957705	-1.082116	-0.430548
C33	C	-1.051920	-1.086889	-0.425841
C34	C	-1.051908	-1.187357	-0.325540
C35	C	-0.957693	-1.182584	-0.330246
C36	C	-0.910595	-1.129963	-0.382753
C37	C	-0.816379	-1.125194	-0.387463
C38	C	-0.816368	-1.225658	-0.287158
C39	C	-0.910583	-1.230431	-0.282452
C40	C	-0.199297	-1.144510	-0.368294
C41	C	-0.099025	-1.139509	-0.373340
C42	C	-0.434534	-1.156292	-0.561201
C43	C	-0.434506	-1.156310	-0.648452
C44	C	-0.434617	-0.360992	-0.356473
C45	C	-0.434609	-0.448242	-0.356460
C46	C	-0.376807	-1.203640	-0.692354
C47	C	-0.376777	-1.203648	-0.774336
C48	C	-0.434451	-1.156330	-0.812414
C49	C	-0.492153	-1.108995	-0.768506
C50	C	-0.492177	-1.108983	-0.686526
C51	C	-0.492098	-1.109024	-0.939379
C52	C	-0.492075	-1.109036	-1.021365
C53	C	-0.376698	-1.203688	-1.027189
C54	C	-0.376723	-1.203677	-0.945209
C55	C	-0.434426	-1.156343	-0.901307
C56	C	-0.434602	-1.156245	-0.152505
C57	C	-0.434376	-1.156366	-0.065267
H58	H	-0.329792	-0.450574	-0.270809
C59	C	-0.313271	-0.690885	-0.257296
C60	C	-0.320492	-0.702483	-0.167685
C61	C	-0.256939	-0.654199	-0.115752
C62	C	-0.186166	-0.594318	-0.153430
C63	C	-0.178942	-0.582718	-0.243046
C64	C	-0.242495	-0.631001	-0.294979
H65	H	-0.372885	-0.746812	-0.139789
H66	H	-0.262287	-0.662787	-0.049413
H67	H	-0.139120	-0.558576	-0.114986
H68	H	-0.126549	-0.538388	-0.270942
H69	H	-0.237147	-0.622414	-0.361318
H70	H	-0.329771	-0.852151	-0.270778
C71	C	-0.555509	-1.056981	-1.063254
C72	C	-0.555482	-1.056999	-1.153429
C73	C	-0.618915	-1.004942	-1.195318
C74	C	-0.682377	-0.952868	-1.147031
C75	C	-0.682407	-0.952848	-1.056851
C76	C	-0.618973	-1.004904	-1.014962
H77	H	-0.508501	-1.095549	-1.189178
H78	H	-0.618893	-1.004957	-1.262075
H79	H	-0.729334	-0.914332	-1.178040
H80	H	-0.729387	-0.914298	-1.021102
H81	H	-0.618996	-1.004890	-0.948205
C82	C	-0.905889	-1.024238	-0.488303
C83	C	-0.918927	-0.935665	-0.481159
C84	C	-0.867111	-0.877785	-0.538914
C85	C	-0.802258	-0.908479	-0.603813
C86	C	-0.789218	-0.997056	-0.610960
C87	C	-0.841033	-1.054935	-0.553204
H88	H	-0.966937	-0.912939	-0.433114
H89	H	-0.876764	-0.812214	-0.533624
H90	H	-0.763901	-0.865633	-0.646567
H91	H	-0.741207	-1.019781	-0.659004
H92	H	-0.831380	-1.120506	-0.558495
H93	H	-0.329795	-1.242190	-0.810078
H94	H	-0.539404	-0.862713	-0.442091
H95	H	-1.090274	-1.047929	-0.464762
C96	C	-0.555913	-0.703112	-0.455596
C97	C	-0.658459	-0.719509	-0.443884
C98	C	-0.722013	-0.677631	-0.495826
C99	C	-0.683022	-0.619356	-0.559482
C100	C	-0.580471	-0.602957	-0.571198
C101	C	-0.516917	-0.644835	-0.519255
H102	H	-0.687327	-0.762650	-0.396759
H103	H	-0.797927	-0.689771	-0.487153
H104	H	-0.730068	-0.588355	-0.597933
H105	H	-0.551603	-0.559816	-0.618322
H106	H	-0.441002	-0.632694	-0.527928
H107	H	-0.539072	-1.070466	-0.903637
H108	H	-0.539419	-0.461139	-0.442126
C109	C	-0.764567	-1.067310	-0.445215
C110	C	-0.777609	-0.978739	-0.438060
C111	C	-0.725800	-0.920851	-0.495811
C112	C	-0.660950	-0.951534	-0.560718
C113	C	-0.647906	-1.040110	-0.567876
C114	C	-0.699714	-1.097998	-0.510125
H115	H	-0.825617	-0.956021	-0.390010
H116	H	-0.735457	-0.855281	-0.490512
H117	H	-0.622598	-0.908682	-0.603469
H118	H	-0.599897	-1.062828	-0.615926
H119	H	-0.690058	-1.163568	-0.515424
C120	C	-0.555596	-1.056949	-0.810396
C121	C	-0.626406	-1.094515	-0.863194
C122	C	-0.689854	-1.042473	-0.905085
C123	C	-0.682492	-0.952865	-0.894177
C124	C	-0.611678	-0.915295	-0.841377
C125	C	-0.548231	-0.967337	-0.799486
H126	H	-0.631859	-1.160852	-0.871270
H127	H	-0.742275	-1.070286	-0.944171
H128	H	-0.729459	-0.914341	-0.925187
H129	H	-0.606226	-0.848958	-0.833301
H130	H	-0.495810	-0.939524	-0.760400
C131	C	-0.313364	-1.255692	-0.650471
C132	C	-0.242552	-1.218137	-0.597668
C133	C	-0.179105	-1.270188	-0.555788
C134	C	-0.186470	-1.359794	-0.566711
C135	C	-0.257285	-1.397353	-0.619517
C136	C	-0.320732	-1.345302	-0.661397
H137	H	-0.237098	-1.151801	-0.589580
H138	H	-0.126683	-1.242384	-0.516698
H139	H	-0.139503	-1.398325	-0.535709
H140	H	-0.262739	-1.463689	-0.627605
H141	H	-0.373154	-1.373107	-0.700487
H142	H	-0.539153	-1.070434	-0.650782
C143	C	-0.313282	-1.255728	-0.903323
C144	C	-0.210722	-1.244209	-0.919751
C145	C	-0.147278	-1.296259	-0.877866
C146	C	-0.186395	-1.359828	-0.819552
C147	C	-0.288961	-1.371350	-0.803120
C148	C	-0.352405	-1.319300	-0.845006
H149	H	-0.181760	-1.197148	-0.962921
H150	H	-0.071352	-1.287729	-0.890030
H151	H	-0.139430	-1.398359	-0.788545
H152	H	-0.317923	-1.418411	-0.759950
H153	H	-0.428331	-1.327830	-0.832842
C154	C	-1.103732	-1.245230	-0.267784
C155	C	-1.168581	-1.214526	-0.202888
C156	C	-1.220408	-1.272398	-0.145132
C157	C	-1.207386	-1.360973	-0.152271
C158	C	-1.142533	-1.391682	-0.217170
C159	C	-1.090706	-1.333810	-0.274926
H160	H	-1.178224	-1.148953	-0.197600
H161	H	-1.268416	-1.249665	-0.097089
H162	H	-1.245751	-1.403813	-0.109516
H163	H	-1.132890	-1.457255	-0.222457
H164	H	-1.042698	-1.356543	-0.322968
C165	C	-0.962397	-1.288313	-0.224699
C166	C	-1.027249	-1.257626	-0.159796
C167	C	-1.079062	-1.315511	-0.102044
C168	C	-1.066023	-1.404083	-0.109196
C169	C	-1.001168	-1.434775	-0.174102
C170	C	-0.949355	-1.376890	-0.231854
H171	H	-1.036904	-1.192055	-0.154499
H172	H	-1.127072	-1.292790	-0.053997
H173	H	-1.104378	-1.446933	-0.066445
H174	H	-0.991513	-1.500345	-0.179399
H175	H	-0.901345	-1.399610	-0.279901
C176	C	-0.764549	-1.278292	-0.234575
C177	C	-0.699860	-1.241043	-0.176142
C178	C	-0.648042	-1.293678	-0.123561
C179	C	-0.660913	-1.383562	-0.129414
C180	C	-0.725605	-1.420816	-0.187849
C181	C	-0.777422	-1.368181	-0.240430
H182	H	-0.690330	-1.174501	-0.171808
H183	H	-0.600154	-1.266099	-0.080303
H184	H	-0.622555	-1.422525	-0.090490
H185	H	-0.735135	-1.487358	-0.192184
H186	H	-0.825311	-1.395760	-0.283688
H187	H	-0.539418	-0.609867	-0.442110
H188	H	-0.329781	-0.599301	-0.270795
H189	H	-0.329713	-1.242228	-1.062939
