data_functionalizedCrystal
_audit_creation_method	'MofGen! by Chris Wilmer'
_symmetry_space_group_name_H-M	'P1'
_symmetry_Int_Tables_number	1
_symmetry_cell_setting	triclinic
loop_
_symmetry_equiv_pos_as_xyz
  x,y,z
_cell_length_a	27.732048
_cell_length_b	27.732048
_cell_length_c	26.210047
_cell_angle_alpha	89.999521
_cell_angle_beta	89.996535
_cell_angle_gamma	82.642655
loop_
_atom_site_label
_atom_site_type_symbol
_atom_site_fract_x
_atom_site_fract_y
_atom_site_fract_z
O1	O	0.640931	0.057510	-0.042369
O2	O	1.140931	0.557510	0.457631
O3	O	0.500138	0.066256	-0.042385
O4	O	1.000138	0.566256	0.457615
O5	O	0.574907	-0.008514	-0.042367
O6	O	1.074907	0.491486	0.457633
O7	O	0.566162	0.132279	-0.042387
O8	O	1.066162	0.632279	0.457613
O9	O	0.574893	-0.008502	0.042491
O10	O	1.074893	0.491498	0.542491
O11	O	0.500123	0.066267	0.042473
O12	O	1.000123	0.566267	0.542473
O13	O	0.640917	0.057522	0.042489
O14	O	1.140917	0.557522	0.542489
Cu15	Cu	0.570519	0.061896	0.050229
Cu16	Cu	1.070519	0.561896	0.550229
Cu17	Cu	0.570536	0.061882	-0.050125
Cu18	Cu	1.070536	0.561882	0.449875
O19	O	0.566147	0.132291	0.042471
O20	O	1.066147	0.632291	0.542471
C21	C	0.482124	0.066078	0.000042
C22	C	0.982124	0.566078	0.500042
C23	C	0.428469	0.065525	0.000036
C24	C	0.928469	0.565525	0.500036
C25	C	0.574716	-0.026515	0.000064
C26	C	1.074716	0.473485	0.500064
C27	C	0.574164	-0.080170	0.000068
C28	C	1.074164	0.419830	0.500068
C29	C	0.089654	0.106229	0.000053
C30	C	0.589654	0.606229	0.500053
C31	C	-0.112006	0.104178	0.000057
C32	C	0.387994	0.604178	0.500057
O33	O	-0.143262	0.141398	0.000074
O34	O	0.356738	0.641398	0.500074
N35	N	-0.131130	0.059843	0.000063
N36	N	0.368870	0.559843	0.500063
C37	C	-0.099835	0.016017	0.000071
C38	C	0.400165	0.516017	0.500071
O39	O	-0.120728	-0.021740	0.000081
O40	O	0.379272	0.478260	0.500081
C41	C	0.101824	0.018068	0.000069
C42	C	0.601824	0.518068	0.500069
C43	C	0.120944	0.062407	0.000059
C44	C	0.620944	0.562407	0.500059
C45	C	0.108775	0.150563	0.000043
C46	C	0.608775	0.650563	0.500043
C47	C	0.159187	0.151076	0.000039
C48	C	0.659187	0.651076	0.500039
C49	C	0.190477	0.107253	0.000045
C50	C	0.690477	0.607253	0.500045
C51	C	0.171356	0.062919	0.000055
C52	C	0.671356	0.562919	0.500055
C53	C	0.133117	-0.025757	0.000081
C54	C	0.633117	0.474243	0.500081
C55	C	0.183535	-0.025240	0.000082
C56	C	0.683535	0.474760	0.500082
C57	C	0.202655	0.019098	0.000071
C58	C	0.702655	0.519098	0.500071
C59	C	0.253059	0.019609	0.000057
C60	C	0.753059	0.519609	0.500057
N61	N	0.272183	0.063944	0.000051
N62	N	0.772183	0.563944	0.500051
C63	C	0.240892	0.107766	0.000045
C64	C	0.740892	0.607766	0.500045
C65	C	-0.205709	0.014943	0.000070
C66	C	0.294291	0.514943	0.500070
C67	C	-0.256124	0.014430	0.000070
C68	C	0.243876	0.514430	0.500070
C69	C	-0.268291	0.102591	0.000057
C70	C	0.231709	0.602591	0.500057
C71	C	-0.217876	0.103104	0.000054
C72	C	0.282124	0.603104	0.500054
C73	C	-0.186585	0.059278	0.000065
C74	C	0.313415	0.559278	0.500065
C75	C	0.346761	0.108839	0.000036
C76	C	0.846761	0.608839	0.500036
C77	C	0.397178	0.109347	0.000030
C78	C	0.897178	0.609347	0.500030
C79	C	0.409341	0.021186	0.000045
C80	C	0.909341	0.521186	0.500045
C81	C	0.358929	0.020678	0.000049
C82	C	0.858929	0.520678	0.500049
C83	C	0.327639	0.064508	0.000046
C84	C	0.827639	0.564508	0.500046
O85	O	0.284343	-0.017592	0.000046
O86	O	0.784343	0.482408	0.500046
O87	O	0.261794	0.145518	0.000047
O88	O	0.761794	0.645518	0.500047
C89	C	0.039242	0.105716	0.000057
C90	C	0.539242	0.605716	0.500057
C91	C	0.020120	0.061382	0.000067
C92	C	0.520120	0.561382	0.500067
C93	C	0.051411	0.017560	0.000073
C94	C	0.551411	0.517560	0.500073
C95	C	-0.030294	0.060869	0.000066
C96	C	0.469706	0.560869	0.500066
C97	C	-0.061585	0.104691	0.000060
C98	C	0.438415	0.604691	0.500060
C99	C	-0.042461	0.149026	0.000054
C100	C	0.457539	0.649026	0.500054
C101	C	0.007951	0.149539	0.000050
C102	C	0.507951	0.649539	0.500050
C103	C	0.032287	-0.026775	0.000078
C104	C	0.532287	0.473225	0.500078
C105	C	-0.018125	-0.027284	0.000082
C106	C	0.481875	0.472716	0.500082
C107	C	-0.049416	0.016538	0.000076
C108	C	0.450584	0.516538	0.500076
C109	C	0.614867	-0.418985	0.000046
C110	C	1.114867	0.081015	0.500046
C111	C	0.612816	-0.620645	0.000039
C112	C	1.112816	-0.120645	0.500039
O113	O	0.650037	-0.651900	0.000021
O114	O	1.150037	-0.151900	0.500021
N115	N	0.568481	-0.639768	0.000034
N116	N	1.068481	-0.139768	0.500034
C117	C	0.524656	-0.608474	0.000028
C118	C	1.024656	-0.108474	0.500028
O119	O	0.486899	-0.629367	0.000019
O120	O	0.986899	-0.129367	0.500019
C121	C	0.526707	-0.406815	0.000032
C122	C	1.026707	0.093185	0.500032
C123	C	0.571045	-0.387694	0.000042
C124	C	1.071045	0.112306	0.500042
C125	C	0.659202	-0.399864	0.000056
C126	C	1.159202	0.100136	0.500056
C127	C	0.659714	-0.349452	0.000060
C128	C	1.159714	0.150548	0.500060
C129	C	0.615892	-0.318161	0.000056
C130	C	1.115892	0.181839	0.500056
C131	C	0.571557	-0.337282	0.000046
C132	C	1.071557	0.162718	0.500046
C133	C	0.482882	-0.375521	0.000022
C134	C	0.982882	0.124479	0.500022
C135	C	0.483399	-0.325104	0.000022
C136	C	0.983399	0.174896	0.500022
C137	C	0.527737	-0.305983	0.000032
C138	C	1.027737	0.194017	0.500032
C139	C	0.528247	-0.255580	0.000046
C140	C	1.028247	0.244420	0.500046
N141	N	0.572583	-0.236456	0.000051
N142	N	1.072583	0.263544	0.500051
C143	C	0.616405	-0.267747	0.000056
C144	C	1.116405	0.232253	0.500056
C145	C	0.523582	-0.714348	0.000027
C146	C	1.023582	-0.214348	0.500027
C147	C	0.523069	-0.764762	0.000027
C148	C	1.023069	-0.264762	0.500027
C149	C	0.611230	-0.776930	0.000037
C150	C	1.111230	-0.276930	0.500037
C151	C	0.611742	-0.726514	0.000041
C152	C	1.111742	-0.226514	0.500041
C153	C	0.567917	-0.695224	0.000032
C154	C	1.067917	-0.195224	0.500032
C155	C	0.617477	-0.161878	0.000066
C156	C	1.117477	0.338122	0.500066
C157	C	0.617986	-0.111461	0.000073
C158	C	1.117986	0.388539	0.500073
C159	C	0.529825	-0.099298	0.000060
C160	C	1.029825	0.400702	0.500060
C161	C	0.529316	-0.149710	0.000056
C162	C	1.029316	0.350290	0.500056
C163	C	0.573147	-0.180999	0.000057
C164	C	1.073147	0.319001	0.500057
O165	O	0.491047	-0.224296	0.000059
O166	O	0.991047	0.275704	0.500059
O167	O	0.654156	-0.246844	0.000054
O168	O	1.154156	0.253156	0.500054
C169	C	0.614355	-0.469397	0.000042
C170	C	1.114355	0.030603	0.500042
C171	C	0.570021	-0.488518	0.000033
C172	C	1.070021	0.011482	0.500033
C173	C	0.526198	-0.457228	0.000028
C174	C	1.026198	0.042772	0.500028
C175	C	0.569508	-0.538933	0.000033
C176	C	1.069508	-0.038933	0.500033
C177	C	0.613330	-0.570223	0.000037
C178	C	1.113330	-0.070223	0.500037
C179	C	0.657665	-0.551100	0.000042
C180	C	1.157665	-0.051100	0.500042
C181	C	0.658177	-0.500688	0.000046
C182	C	1.158177	-0.000688	0.500046
C183	C	0.481863	-0.476351	0.000023
C184	C	0.981863	0.023649	0.500023
C185	C	0.481355	-0.526764	0.000019
C186	C	0.981355	-0.026764	0.500019
C187	C	0.525177	-0.558054	0.000024
C188	C	1.025177	-0.058054	0.500024
C189	C	0.658931	0.057699	0.000061
C190	C	1.158931	0.557699	0.500061
C191	C	0.712586	0.058252	0.000064
C192	C	1.212586	0.558252	0.500064
C193	C	0.566338	0.150292	0.000040
C194	C	1.066338	0.650292	0.500040
C195	C	0.566891	0.203947	0.000032
C196	C	1.066891	0.703947	0.500032
N197	N	0.570510	0.061905	0.120813
N198	N	1.070510	0.561905	0.620813
N199	N	0.570548	0.061868	-0.120709
N200	N	1.070548	0.561868	0.379291
C201	C	0.603640	0.028781	0.473336
C202	C	1.103640	0.528781	0.973336
C203	C	0.603651	0.028774	0.686994
C204	C	1.103651	0.528774	1.186994
O205	O	0.631801	0.000614	0.714623
O206	O	1.131801	0.500614	1.214623
N207	N	0.570538	0.061871	0.713707
N208	N	1.070538	0.561871	1.213707
C209	C	0.537419	0.094970	0.687003
C210	C	1.037419	0.594970	1.187003
O211	O	0.509251	0.123117	0.714626
O212	O	1.009251	0.623117	1.214626
C213	C	0.537406	0.094974	0.473345
C214	C	1.037406	0.594974	0.973345
C215	C	0.570524	0.061878	0.446635
C216	C	1.070524	0.561878	0.946635
C217	C	0.636755	-0.004312	0.446625
C218	C	1.136755	0.495688	0.946625
C219	C	0.636754	-0.004308	0.393214
C220	C	1.136754	0.495692	0.893214
C221	C	0.603638	0.028789	0.366513
C222	C	1.103638	0.528789	0.866513
C223	C	0.570523	0.061882	0.393223
C224	C	1.070523	0.561882	0.893223
C225	C	0.504284	0.128070	0.446641
C226	C	1.004284	0.628070	0.946641
C227	C	0.504283	0.128067	0.393223
C228	C	1.004283	0.628067	0.893223
C229	C	0.537401	0.094971	0.366513
C230	C	1.037401	0.594971	0.866513
C231	C	0.537405	0.094983	0.313111
C232	C	1.037405	0.594983	0.813111
N233	N	0.570518	0.061886	0.286397
N234	N	1.070518	0.561886	0.786397
C235	C	0.603634	0.028789	0.313098
C236	C	1.103634	0.528789	0.813098
C237	C	0.537428	0.094966	0.799176
C238	C	1.037428	0.594966	1.299176
C239	C	0.537432	0.094965	0.852590
C240	C	1.037432	0.594965	1.352590
C241	C	0.603664	0.028769	0.852578
C242	C	1.103664	0.528769	1.352578
C243	C	0.603662	0.028773	0.799163
C244	C	1.103662	0.528773	1.299163
C245	C	0.570541	0.061869	0.772463
C246	C	1.070541	0.561869	1.272463
C247	C	0.603629	0.028800	0.200931
C248	C	1.103629	0.528800	0.700931
C249	C	0.603626	0.028808	0.147514
C250	C	1.103626	0.528808	0.647514
C251	C	0.537393	0.095002	0.147531
C252	C	1.037393	0.595002	0.647531
C253	C	0.537397	0.094996	0.200943
C254	C	1.037397	0.594996	0.700943
C255	C	0.570517	0.061891	0.227641
C256	C	1.070517	0.561891	0.727641
O257	O	0.509267	0.123125	0.285449
O258	O	1.009267	0.623125	0.785449
O259	O	0.631790	0.000639	0.285466
O260	O	1.131790	0.500639	0.785466
C261	C	0.603641	0.028777	0.526747
C262	C	1.103641	0.528777	1.026747
C263	C	0.570527	0.061871	0.553457
C264	C	1.070527	0.561871	1.053457
C265	C	0.537410	0.094968	0.526756
C266	C	1.037410	0.594968	1.026756
C267	C	0.570530	0.061870	0.606872
C268	C	1.070530	0.561870	1.106872
C269	C	0.603646	0.028773	0.633573
C270	C	1.103646	0.528773	1.133573
C271	C	0.636759	-0.004323	0.606859
C272	C	1.136759	0.495677	1.106859
C273	C	0.636758	-0.004320	0.553448
C274	C	1.136758	0.495680	1.053448
C275	C	0.504298	0.128064	0.553470
C276	C	1.004298	0.628064	1.053470
C277	C	0.504302	0.128058	0.606881
C278	C	1.004302	0.628058	1.106881
C279	C	0.537418	0.094961	0.633582
C280	C	1.037418	0.594961	1.133582
H281	H	0.321291	0.144530	0.000036
H282	H	0.821291	0.644530	0.500036
H283	H	0.493213	-0.165279	0.000062
H284	H	0.993213	0.334721	0.500062
H285	H	0.447710	-0.299629	0.000014
H286	H	0.947710	0.200371	0.500014
H287	H	0.083302	0.186251	0.000039
H288	H	0.583302	0.686251	0.500039
H289	H	0.494146	-0.073812	0.000058
H290	H	0.994146	0.426188	0.500058
H291	H	0.510432	0.121951	0.125783
H292	H	1.010432	0.621951	0.625783
N293	N	0.478812	-0.682389	0.000013
N294	N	0.978812	-0.182389	0.500013
N295	N	0.449246	-0.683950	-0.035760
N296	N	0.949246	-0.183950	0.464240
H297	H	0.417626	-0.661382	-0.035769
H298	H	0.917626	-0.161382	0.464231
N299	N	0.703472	-0.481168	0.000058
N300	N	1.203472	0.018832	0.500058
N301	N	0.742592	-0.509120	0.000063
N302	N	1.242592	-0.009120	0.500063
H303	H	0.774585	-0.495338	0.000071
H304	H	1.274585	0.004662	0.500071
H305	H	0.693347	-0.576585	0.000048
H306	H	1.193347	-0.076585	0.500048
H307	H	-0.271687	-0.021674	0.000070
H308	H	0.228313	0.478326	0.500070
N309	N	0.477778	-0.784290	0.000013
N310	N	0.977778	-0.284290	0.500013
N311	N	0.467660	-0.811061	-0.035761
N312	N	0.967660	-0.311061	0.464239
H313	H	0.435672	-0.824851	-0.035775
H314	H	0.935672	-0.324851	0.464225
H315	H	0.445246	-0.542327	0.000016
H316	H	0.945246	-0.042327	0.500016
N317	N	0.339402	-0.024615	0.000051
N318	N	0.839402	0.475385	0.500051
N319	N	0.367348	-0.063739	0.000054
N320	N	0.867348	0.436261	0.500054
H321	H	0.353561	-0.095729	0.000060
H322	H	0.853561	0.404271	0.500060
N323	N	-0.198355	0.148398	0.000043
N324	N	0.301645	0.648398	0.500043
N325	N	-0.226304	0.187519	0.000035
N326	N	0.273696	0.687519	0.500035
H327	H	-0.212520	0.219510	0.000028
H328	H	0.287480	0.719510	0.500028
N329	N	0.437093	-0.444400	0.000017
N330	N	0.937093	0.055600	0.500017
N331	N	0.397514	-0.461486	0.000012
N332	N	0.897514	0.038514	0.500012
H333	H	0.365892	-0.438922	0.000010
H334	H	0.865892	0.061078	0.500010
H335	H	0.663722	-0.031266	0.468360
H336	H	1.163722	0.468734	0.968360
N337	N	0.637456	-0.005008	0.120239
N338	N	1.137456	0.494992	0.620239
N339	N	0.667016	-0.034561	0.144090
N340	N	1.167016	0.465439	0.644090
H341	H	0.690905	-0.058446	0.124829
H342	H	1.190905	0.441554	0.624829
N343	N	0.027469	0.194834	0.000049
N344	N	0.527469	0.694834	0.500049
N345	N	0.017755	0.224293	0.035816
N346	N	0.517755	0.724293	0.535816
H347	H	0.031536	0.256286	0.035816
H348	H	0.531536	0.756286	0.535816
H349	H	0.174750	0.187180	0.000030
H350	H	0.674750	0.687180	0.500030
N351	N	0.441310	-0.023574	0.000066
N352	N	0.941310	0.476426	0.500066
N353	N	0.439755	-0.053134	0.035847
N354	N	0.939755	0.446866	0.535847
H355	H	0.462335	-0.084747	0.035867
H356	H	0.962335	0.415253	0.535867
N357	N	0.503576	0.128804	0.228235
N358	N	1.003576	0.628804	0.728235
N359	N	0.518682	0.158703	0.258045
N360	N	1.018682	0.658703	0.758045
H361	H	0.494793	0.182578	0.277317
H362	H	0.994793	0.682578	0.777317
N363	N	0.670590	-0.038129	0.526176
N364	N	1.170590	0.461871	1.026176
N365	N	0.700153	-0.067676	0.550031
N366	N	1.200153	0.432324	1.050031
H367	H	0.724049	-0.091557	0.530774
H368	H	1.224049	0.408443	1.030774
H369	H	0.117558	-0.061861	0.000090
H370	H	0.617558	0.438139	0.500090
N371	N	0.670583	-0.038129	0.634147
N372	N	1.170583	0.461871	1.134147
N373	N	0.670573	-0.038123	0.681838
N374	N	1.170573	0.461877	1.181838
H375	H	0.694457	-0.061999	0.701113
H376	H	1.194457	0.438001	1.201113
N377	N	0.663278	-0.091930	0.000092
N378	N	1.163278	0.408070	0.500092
N379	N	0.692727	-0.101639	0.035866
N380	N	1.192727	0.398361	0.535866
H381	H	0.724714	-0.087847	0.035881
H382	H	1.224714	0.412153	0.535881
H383	H	0.630629	0.001821	0.874327
H384	H	1.130629	0.501821	1.374327
H385	H	0.653168	-0.187348	0.000065
H386	H	1.153168	0.312652	0.500065
N387	N	0.637461	-0.005020	0.228189
N388	N	1.137461	0.494980	0.728189
N389	N	0.667023	-0.034563	0.204326
N390	N	1.167023	0.465437	0.704326
H391	H	0.690919	-0.058448	0.223577
H392	H	1.190919	0.441552	0.723577
N393	N	0.064246	-0.071541	0.000072
N394	N	0.564246	0.428459	0.500072
N395	N	0.093732	-0.081097	-0.035702
N396	N	0.593732	0.418903	0.464298
H397	H	0.116302	-0.112715	-0.035710
H398	H	0.616302	0.387285	0.464290
N399	N	0.470471	0.161874	0.634154
N400	N	0.970471	0.661874	1.134154
N401	N	0.440907	0.191421	0.610301
N402	N	0.940907	0.691421	1.110301
H403	H	0.417012	0.215301	0.629560
H404	H	0.917012	0.715301	1.129560
H405	H	-0.033688	-0.063392	0.000086
H406	H	0.466312	0.436608	0.500086
N407	N	0.657032	-0.706986	0.000036
N408	N	1.157032	-0.206986	0.500036
N409	N	0.667163	-0.680217	-0.035735
N410	N	1.167163	-0.180217	0.464265
H411	H	0.699152	-0.666427	-0.035740
H412	H	1.199152	-0.166427	0.464260
N413	N	0.470463	0.161875	0.526208
N414	N	0.970463	0.661875	1.026208
N415	N	0.440902	0.191419	0.550071
N416	N	0.940902	0.691419	1.050071
H417	H	0.417005	0.215302	0.530819
H418	H	0.917005	0.715302	1.030819
H419	H	0.446777	-0.391080	0.000011
H420	H	0.946777	0.108920	0.500011
H421	H	0.695819	-0.333889	0.000066
H422	H	1.195819	0.166111	0.500066
N423	N	0.670621	-0.038084	0.365942
N424	N	1.170621	0.461916	0.865942
N425	N	0.700207	-0.067607	0.389797
N426	N	1.200207	0.432393	0.889797
H427	H	0.724140	-0.091451	0.370540
H428	H	1.224140	0.408549	0.870540
N429	N	0.416708	0.154640	0.000033
N430	N	0.916708	0.654640	0.500033
N431	N	0.443478	0.164767	0.035802
N432	N	0.943478	0.664767	0.535802
H433	H	0.457270	0.196754	0.035806
H434	H	0.957270	0.696754	0.535806
H435	H	0.209009	-0.060929	0.000091
H436	H	0.709009	0.439071	0.500091
H437	H	0.510456	0.121918	0.777440
H438	H	1.010456	0.621918	1.277440
N439	N	0.637470	-0.005061	0.771889
N440	N	1.137470	0.494939	1.271889
N441	N	0.667018	-0.034623	0.795742
N442	N	1.167018	0.465377	1.295742
H443	H	0.690887	-0.058530	0.776483
H444	H	1.190887	0.441470	1.276483
N445	N	0.703974	-0.431815	0.000057
N446	N	1.203974	0.068185	0.500057
N447	N	0.743551	-0.414726	0.000063
N448	N	1.243551	0.085274	0.500063
H449	H	0.775174	-0.437288	0.000067
H450	H	1.275174	0.062712	0.500067
H451	H	0.646911	-0.802415	0.000041
H452	H	1.146911	-0.302415	0.500041
H453	H	-0.180236	-0.020747	0.000079
H454	H	0.319764	0.479253	0.500079
N455	N	0.503606	0.128782	0.879863
N456	N	1.003606	0.628782	1.379863
N457	N	0.474042	0.158329	0.856010
N458	N	0.974042	0.658329	1.356010
H459	H	0.450150	0.182212	0.875269
H460	H	0.950150	0.682212	1.375269
H461	H	0.477317	0.155019	0.468381
H462	H	0.977317	0.655019	0.968381
N463	N	-0.074436	0.193786	0.000056
N464	N	0.425564	0.693786	0.500056
N465	N	-0.103925	0.203331	0.035828
N466	N	0.396075	0.703331	0.535828
H467	H	-0.126510	0.234940	0.035833
H468	H	0.373490	0.734940	0.535833
N469	N	-0.300257	0.147356	0.000067
N470	N	0.199743	0.647356	0.500067
N471	N	-0.298704	0.176925	0.035839
N472	N	0.201296	0.676925	0.535839
H473	H	-0.321282	0.208539	0.035851
H474	H	0.178718	0.708539	0.535851
N475	N	0.470445	0.161877	0.365959
N476	N	0.970445	0.661877	0.865959
N477	N	0.440880	0.191421	0.389818
N478	N	0.940880	0.691421	0.889818
H479	H	0.416982	0.215300	0.370564
H480	H	0.916982	0.715300	0.870564
