data_functionalizedCrystal
_audit_creation_method	'MofGen! by Chris Wilmer'
_symmetry_space_group_name_H-M	'P1'
_symmetry_Int_Tables_number	1
_symmetry_cell_setting	triclinic
loop_
_symmetry_equiv_pos_as_xyz
  x,y,z
_cell_length_a	12.645331
_cell_length_b	12.594516
_cell_length_c	12.594510
_cell_angle_alpha	89.968094
_cell_angle_beta	89.977333
_cell_angle_gamma	90.015032
loop_
_atom_site_label
_atom_site_type_symbol
_atom_site_fract_x
_atom_site_fract_y
_atom_site_fract_z
Zn1	Zn	1.620743	-0.423679	-0.601872
Zn2	Zn	1.620630	-0.601707	-0.423899
Zn3	Zn	1.443458	-0.423740	-0.423901
Zn4	Zn	1.443445	-0.601613	-0.601830
O5	O	1.532069	-0.512685	-0.512875
O6	O	1.769075	-0.447309	-0.578280
O7	O	1.597086	-0.578164	-0.274954
O8	O	1.467028	-0.274786	-0.447527
O9	O	1.768992	-0.578105	-0.447525
O10	O	1.597279	-0.274741	-0.578282
O11	O	1.466918	-0.447412	-0.274955
O12	O	1.295109	-0.447321	-0.447487
O13	O	1.467006	-0.577945	-0.750781
O14	O	1.295099	-0.578004	-0.578210
O15	O	1.597266	-0.447218	-0.750812
O16	O	1.597073	-0.750640	-0.447484
O17	O	1.466896	-0.750571	-0.578209
C18	C	1.256639	-0.512659	-0.512845
C19	C	1.138809	-0.512674	-0.512857
C20	C	0.971216	-0.430084	-0.431072
C21	C	1.093776	-0.430297	-0.430712
C22	C	1.094292	-0.624803	-0.482221
C23	C	0.971694	-0.624352	-0.481663
C24	C	0.971659	-0.484203	-0.625593
C25	C	1.094265	-0.481698	-0.624967
C26	C	1.531999	-0.789226	-0.512865
C27	C	1.532067	-0.907531	-0.512896
C28	C	1.461256	-0.976785	-0.583947
C29	C	1.435425	-1.047660	-0.486824
C30	C	1.557995	-1.047455	-0.610036
C31	C	1.506184	-0.976847	-0.415722
C32	C	1.628799	-0.976637	-0.538999
C33	C	1.603004	-1.047479	-0.441809
C34	C	1.808574	-0.512711	-0.512907
C35	C	1.926404	-0.512722	-0.512920
C36	C	1.532147	-0.512564	-0.790496
C37	C	1.532180	-0.512512	-0.908802
C38	C	1.532168	-0.235064	-0.512909
C39	C	1.532210	-0.116758	-0.512924
C40	C	1.603054	-0.441388	-1.048836
C41	C	1.628937	-0.538510	-0.978018
C42	C	1.506344	-0.415402	-0.978048
C43	C	1.558158	-0.609652	-1.048770
C44	C	1.435520	-0.486479	-1.048806
C45	C	1.461366	-0.583667	-0.978021
C46	C	1.532052	-0.512728	-0.236334
C47	C	1.532224	-0.512480	-0.118030
H48	H	1.123054	-0.449148	-0.347216
Cl49	Cl	1.141591	-0.567851	-0.724159
H50	H	0.942682	-0.544393	-0.686577
H51	H	0.940760	-0.403865	-0.653456
Cl52	Cl	0.925922	-0.722638	-0.569679
H53	H	1.710699	-0.560521	-0.946921
H54	H	1.663017	-0.381330	-1.079927
Cl55	Cl	0.927463	-0.661684	-0.354490
H56	H	1.580147	-0.691780	-1.079706
H57	H	1.123366	-0.399184	-0.648068
Cl58	Cl	1.139315	-0.722410	-0.571377
Cl59	Cl	0.923570	-0.458843	-0.302922
Cl60	Cl	1.141615	-0.662784	-0.356412
H61	H	1.401267	-0.945744	-0.643946
H62	H	1.353782	-0.464437	-1.079925
H63	H	1.484474	-0.333292	-0.946979
H64	H	1.710519	-0.945420	-0.561101
Cl65	Cl	1.309221	-1.095823	-0.452743
H66	H	1.401449	-0.643870	-0.947125
H67	H	0.941749	-0.346686	-0.450068
Cl68	Cl	1.140250	-0.301923	-0.460355
H69	H	1.484217	-0.945960	-0.333560
H70	H	1.662947	-1.078324	-0.381665
H71	H	1.579867	-1.078471	-0.692175
