data_functionalizedCrystal
_audit_creation_method	'MofGen! by Chris Wilmer'
_symmetry_space_group_name_H-M	'P1'
_symmetry_Int_Tables_number	1
_symmetry_cell_setting	triclinic
loop_
_symmetry_equiv_pos_as_xyz
  x,y,z
_cell_length_a	29.839131
_cell_length_b	29.839134
_cell_length_c	25.639233
_cell_angle_alpha	90.023126
_cell_angle_beta	90.019585
_cell_angle_gamma	90.036281
loop_
_atom_site_label
_atom_site_type_symbol
_atom_site_fract_x
_atom_site_fract_y
_atom_site_fract_z
Zn1	Zn	-0.178970	0.686725	0.295753
Zn2	Zn	0.321030	1.186725	0.795753
Zn3	Zn	-0.254084	0.686655	0.208316
Zn4	Zn	0.245916	1.186655	0.708316
Zn5	Zn	-0.178962	0.611606	0.208315
Zn6	Zn	0.321038	1.111606	0.708315
Zn7	Zn	-0.254067	0.611555	0.295704
Zn8	Zn	0.245933	1.111555	0.795704
O9	O	-0.216521	0.649135	0.252022
O10	O	0.283479	1.149135	0.752022
O11	O	-0.188944	0.749583	0.284174
O12	O	0.311056	1.249583	0.784174
O13	O	-0.244123	0.676692	0.135150
O14	O	0.255877	1.176692	0.635150
O15	O	-0.116096	0.621621	0.219934
O16	O	0.383904	1.121621	0.719934
O17	O	-0.244130	0.749532	0.219935
O18	O	0.255870	1.249532	0.719935
O19	O	-0.116101	0.676810	0.284174
O20	O	0.383899	1.176810	0.784174
O21	O	-0.188931	0.621554	0.135150
O22	O	0.311069	1.121554	0.635150
O23	O	-0.188914	0.548732	0.219887
O24	O	0.311086	1.048732	0.719887
O25	O	-0.244101	0.621534	0.368876
O26	O	0.255899	1.121534	0.868876
O27	O	-0.244093	0.548695	0.284091
O28	O	0.255907	1.048695	0.784091
O29	O	-0.188927	0.676761	0.368911
O30	O	0.311073	1.176761	0.868911
O31	O	-0.316949	0.676643	0.219888
O32	O	0.183051	1.176643	0.719888
O33	O	-0.316936	0.621467	0.284092
O34	O	0.183064	1.121467	0.784092
C35	C	-0.216502	0.532413	0.251984
C36	C	0.283498	1.032413	0.751984
C37	C	-0.216504	0.482478	0.251980
C38	C	0.283496	0.982478	0.751980
C39	C	-0.333243	0.649054	0.251996
C40	C	0.166757	1.149054	0.751996
C41	C	-0.383178	0.649061	0.252002
C42	C	0.116822	1.149061	0.752002
C43	C	-0.245295	0.172825	0.285412
C44	C	0.254705	0.672825	0.785412
C45	C	-0.245307	-0.014848	0.285435
C46	C	0.254693	0.485152	0.785435
O47	O	-0.269765	-0.039121	0.313838
O48	O	0.230235	0.460879	0.813838
N49	N	-0.216537	-0.038307	0.252061
N50	N	0.283463	0.461693	0.752061
C51	C	-0.187759	-0.014844	0.218681
C52	C	0.312241	0.485156	0.718681
O53	O	-0.163286	-0.039104	0.190299
O54	O	0.336714	0.460896	0.690299
C55	C	-0.187745	0.172828	0.218661
C56	C	0.312255	0.672828	0.718661
C57	C	-0.216520	0.196284	0.252034
C58	C	0.283480	0.696284	0.752034
C59	C	-0.274067	0.196281	0.318782
C60	C	0.225933	0.696281	0.818782
C61	C	-0.274066	0.243197	0.318774
C62	C	0.225934	0.743197	0.818774
C63	C	-0.245291	0.266656	0.285396
C64	C	0.254709	0.766656	0.785396
C65	C	-0.216519	0.243200	0.252026
C66	C	0.283481	0.743200	0.752026
C67	C	-0.158965	0.196289	0.185284
C68	C	0.341035	0.696289	0.685284
C69	C	-0.158963	0.243210	0.185283
C70	C	0.341037	0.743210	0.685283
C71	C	-0.187739	0.266667	0.218656
C72	C	0.312261	0.766667	0.718656
C73	C	-0.187742	0.313574	0.218639
C74	C	0.312258	0.813574	0.718639
N75	N	-0.216513	0.337033	0.252013
N76	N	0.283487	0.837033	0.752013
C77	C	-0.245287	0.313574	0.285391
C78	C	0.254713	0.813574	0.785391
C79	C	-0.187770	-0.113375	0.218694
C80	C	0.312230	0.386625	0.718694
C81	C	-0.187774	-0.160293	0.218698
C82	C	0.312226	0.339707	0.718698
C83	C	-0.245321	-0.160293	0.285453
C84	C	0.254679	0.339707	0.785453
C85	C	-0.245319	-0.113375	0.285445
C86	C	0.254681	0.386625	0.785445
C87	C	-0.216540	-0.089916	0.252068
C88	C	0.283460	0.410084	0.752068
C89	C	-0.245282	0.412100	0.285371
C90	C	0.254718	0.912100	0.785371
C91	C	-0.245279	0.459019	0.285359
C92	C	0.254721	0.959019	0.785359
C93	C	-0.187730	0.459016	0.218606
C94	C	0.312270	0.959016	0.718606
C95	C	-0.187734	0.412100	0.218617
C96	C	0.312266	0.912100	0.718617
C97	C	-0.216512	0.388643	0.252004
C98	C	0.283488	0.888643	0.752004
O99	O	-0.163294	0.337876	0.190256
O100	O	0.336706	0.837876	0.690256
O101	O	-0.269750	0.337841	0.313778
O102	O	0.230250	0.837841	0.813778
C103	C	-0.245296	0.125910	0.285420
C104	C	0.254704	0.625910	0.785420
C105	C	-0.216524	0.102453	0.252050
C106	C	0.283476	0.602453	0.752050
C107	C	-0.187749	0.125912	0.218672
C108	C	0.312251	0.625912	0.718672
C109	C	-0.216528	0.055535	0.252054
C110	C	0.283472	0.555535	0.752054
C111	C	-0.245302	0.032076	0.285433
C112	C	0.254698	0.532076	0.785433
C113	C	-0.274073	0.055535	0.318807
C114	C	0.225927	0.555535	0.818807
C115	C	-0.274071	0.102450	0.318799
C116	C	0.225929	0.602450	0.818799
C117	C	-0.158979	0.102454	0.185298
C118	C	0.341021	0.602454	0.685298
C119	C	-0.158983	0.055538	0.185308
C120	C	0.341017	0.555538	0.685308
C121	C	-0.187758	0.032079	0.218686
C122	C	0.312242	0.532079	0.718686
C123	C	-0.692815	0.677918	0.218640
C124	C	-0.192815	1.177918	0.718640
C125	C	-0.880488	0.677973	0.218660
C126	C	-0.380488	1.177973	0.718660
O127	O	-0.904748	0.702444	0.190274
O128	O	-0.404748	1.202444	0.690274
N129	N	-0.903963	0.649228	0.252061
N130	N	-0.403963	1.149228	0.752061
C131	C	-0.880516	0.620470	0.285462
C132	C	-0.380516	1.120470	0.785462
O133	O	-0.904789	0.596026	0.313876
O134	O	-0.404789	1.096026	0.813876
C135	C	-0.692844	0.620417	0.285444
C136	C	-0.192844	1.120417	0.785444
C137	C	-0.669372	0.649160	0.252037
C138	C	-0.169372	1.149160	0.752037
C139	C	-0.669343	0.706659	0.185236
C140	C	-0.169343	1.206659	0.685236
C141	C	-0.622427	0.706643	0.185229
C142	C	-0.122427	1.206643	0.685229
C143	C	-0.598984	0.677886	0.218626
C144	C	-0.098984	1.177886	0.718626
C145	C	-0.622456	0.649145	0.252030
C146	C	-0.122456	1.149145	0.752030
C147	C	-0.669398	0.591661	0.318847
C148	C	-0.169398	1.091661	0.818847
C149	C	-0.622477	0.591652	0.318841
C150	C	-0.122477	1.091652	0.818841
C151	C	-0.599005	0.620395	0.285434
C152	C	-0.099005	1.120395	0.785434
C153	C	-0.552098	0.620372	0.285421
C154	C	-0.052098	1.120372	0.785421
N155	N	-0.528623	0.649116	0.252020
N156	N	-0.028623	1.149116	0.752020
C157	C	-0.552066	0.677873	0.218622
C158	C	-0.052066	1.177873	0.718622
C159	C	-0.979047	0.620499	0.285469
C160	C	-0.479047	1.120499	0.785469
C161	C	-1.025964	0.620512	0.285473
C162	C	-0.525964	1.120512	0.785473
C163	C	-1.025933	0.678015	0.218671
C164	C	-0.525933	1.178015	0.718671
C165	C	-0.979015	0.678000	0.218665
C166	C	-0.479015	1.178000	0.718665
C167	C	-0.955572	0.649244	0.252067
C168	C	-0.455572	1.149244	0.752067
C169	C	-0.453540	0.677837	0.218610
C170	C	0.046460	1.177837	0.718610
C171	C	-0.406621	0.677818	0.218605
C172	C	0.093379	1.177818	0.718605
C173	C	-0.406656	0.620316	0.285408
C174	C	0.093344	1.120316	0.785408
C175	C	-0.453572	0.620334	0.285412
C176	C	0.046428	1.120334	0.785412
C177	C	-0.477013	0.649098	0.252011
C178	C	0.022987	1.149098	0.752011
O179	O	-0.527809	0.595917	0.313796
O180	O	-0.027809	1.095917	0.813796
O181	O	-0.527785	0.702321	0.190221
O182	O	-0.027785	1.202321	0.690221
C183	C	-0.739730	0.677933	0.218647
C184	C	-0.239730	1.177933	0.718647
C185	C	-0.763203	0.649192	0.252051
C186	C	-0.263203	1.149192	0.752051
C187	C	-0.739759	0.620435	0.285448
C188	C	-0.239759	1.120435	0.785448
C189	C	-0.810120	0.649205	0.252055
C190	C	-0.310120	1.149205	0.752055
C191	C	-0.833564	0.677962	0.218657
C192	C	-0.333564	1.177962	0.718657
C193	C	-0.810089	0.706706	0.185256
C194	C	-0.310089	1.206706	0.685256
C195	C	-0.763174	0.706691	0.185249
C196	C	-0.263174	1.206691	0.685249
C197	C	-0.763234	0.591691	0.318849
C198	C	-0.263234	1.091691	0.818849
C199	C	-0.810149	0.591708	0.318853
C200	C	-0.310149	1.091708	0.818853
C201	C	-0.833593	0.620466	0.285455
C202	C	-0.333593	1.120466	0.785455
C203	C	-0.099342	0.649229	0.252059
C204	C	0.400658	1.149229	0.752059
C205	C	-0.049408	0.649269	0.252075
C206	C	0.450592	1.149269	0.752075
C207	C	-0.216513	0.649150	0.388395
C208	C	0.283487	1.149150	0.888395
C209	C	-0.216509	0.649156	0.446509
C210	C	0.283491	1.149156	0.946509
C211	C	-0.216540	0.766314	0.252060
C212	C	0.283460	1.266314	0.752060
C213	C	-0.216548	0.816248	0.252076
C214	C	0.283452	1.316248	0.752076
C215	C	-0.216496	0.649147	0.116179
C216	C	0.283504	1.149147	0.616179
C217	C	-0.216373	0.649228	0.058066
C218	C	0.283627	1.149228	0.558066
C219	C	-0.187695	0.677949	0.806896
C220	C	0.312305	1.177949	1.306896
C221	C	-0.187683	0.677955	0.861501
C222	C	0.312317	1.177955	1.361501
O223	O	-0.163237	0.702399	0.889758
O224	O	0.336763	1.202399	1.389758
N225	N	-0.216404	0.649206	0.888792
N226	N	0.283596	1.149206	1.388792
C227	C	-0.245136	0.620446	0.861475
C228	C	0.254864	1.120446	1.361475
O229	O	-0.269565	0.595993	0.889702
O230	O	0.230435	1.095993	1.389702
C231	C	-0.245146	0.620438	0.806872
C232	C	0.254854	1.120438	1.306872
C233	C	-0.216426	0.649192	0.779584
C234	C	0.283574	1.149192	1.279584
C235	C	-0.158977	0.706700	0.779608
C236	C	0.341023	1.206700	1.279608
C237	C	-0.158990	0.706695	0.725008
C238	C	0.341010	1.206695	1.225008
C239	C	-0.187721	0.677939	0.697695
C240	C	0.312279	1.177939	1.197695
C241	C	-0.216439	0.649187	0.724983
C242	C	0.283561	1.149187	1.224983
C243	C	-0.273876	0.591677	0.779557
C244	C	0.226124	1.091677	1.279557
C245	C	-0.273883	0.591672	0.724950
C246	C	0.226117	1.091672	1.224950
C247	C	-0.245163	0.620426	0.697662
C248	C	0.254837	1.120426	1.197662
C249	C	-0.245184	0.620426	0.643070
C250	C	0.254816	1.120426	1.143070
N251	N	-0.216462	0.649175	0.615779
N252	N	0.283538	1.149175	1.115779
C253	C	-0.187731	0.677931	0.643092
C254	C	0.312269	1.177931	1.143092
C255	C	-0.245113	0.620463	0.976146
C256	C	0.254887	1.120463	1.476146
C257	C	-0.245106	0.620473	1.030748
C258	C	0.254894	1.120473	1.530748
C259	C	-0.187651	0.677981	1.030770
C260	C	0.312349	1.177981	1.530770
C261	C	-0.187661	0.677973	0.976167
C262	C	0.312339	1.177973	1.476167
C263	C	-0.216392	0.649212	0.948855
C264	C	0.283608	1.149212	1.448855
C265	C	-0.187761	0.677919	0.528427
C266	C	0.312239	1.177919	1.028427
C267	C	-0.187778	0.677912	0.473821
C268	C	0.312222	1.177912	0.973821
C269	C	-0.245231	0.620403	0.473805
C270	C	0.254769	1.120403	0.973805
C271	C	-0.245216	0.620411	0.528405
C272	C	0.254784	1.120411	1.028405
C273	C	-0.216477	0.649170	0.555715
C274	C	0.283523	1.149170	1.055715
O275	O	-0.269616	0.595992	0.614778
O276	O	0.230384	1.095992	1.114778
O277	O	-0.163303	0.702376	0.614858
O278	O	0.336697	1.202376	1.114858
H279	H	-0.268713	0.478115	0.312535
H280	H	0.231287	0.978115	0.812535
H281	H	-0.688425	0.730079	0.158039
H282	H	-0.188425	1.230079	0.658039
C283	C	-0.162276	0.703439	0.390130
C284	C	0.337724	1.203439	0.890130
C285	C	-0.156201	0.709515	0.443826
C286	C	0.343799	1.209515	0.943826
H287	H	-0.142781	0.722949	0.371615
H288	H	0.357219	1.222949	0.871615
H289	H	-0.155702	0.673261	0.381177
H290	H	0.344298	1.173261	0.881177
H291	H	-0.192463	0.709996	0.381183
H292	H	0.307537	1.209996	0.881183
H293	H	-0.126014	0.702955	0.452775
H294	H	0.373986	1.202955	0.952775
H295	H	-0.162771	0.739700	0.452783
H296	H	0.337229	1.239700	0.952783
H297	H	-0.164304	0.478124	0.191429
H298	H	0.335696	0.978124	0.691429
C299	C	-0.130976	0.734768	0.522948
C300	C	0.369024	1.234768	1.022948
C301	C	-0.156175	0.709534	0.558440
C302	C	0.343825	1.209534	1.058440
H303	H	-0.111480	0.754289	0.541478
H304	H	0.388520	1.254289	1.041478
H305	H	-0.113794	0.715205	0.501649
H306	H	0.386206	1.215205	1.001649
H307	H	-0.150566	0.751929	0.501653
H308	H	0.349434	1.251929	1.001653
H309	H	-0.136585	0.692371	0.579733
H310	H	0.363415	1.192371	1.079733
H311	H	-0.173358	0.729100	0.579749
H312	H	0.326642	1.229100	1.079749
H313	H	-0.603392	0.568235	0.346043
H314	H	-0.103392	1.068235	0.846043
H315	H	-0.135547	0.121549	0.158116
H316	H	0.364453	0.621549	0.658116
H317	H	-0.959963	0.597081	0.312670
H318	H	-0.459963	1.097081	0.812670
C319	C	-0.251371	0.560012	0.914729
C320	C	0.248629	1.060012	1.414729
C321	C	-0.276703	0.588851	0.946130
C322	C	0.223297	1.088851	1.446130
H323	H	-0.270874	0.540495	0.896204
H324	H	0.229126	1.040495	1.396204
H325	H	-0.234274	0.577130	0.890659
H326	H	0.265726	1.077130	1.390659
H327	H	-0.231791	0.542848	0.936033
H328	H	0.268209	1.042848	1.436033
H329	H	-0.296281	0.606017	0.924826
H330	H	0.203719	1.106017	1.424826
H331	H	-0.293807	0.571731	0.970203
H332	H	0.206193	1.071731	1.470203
H333	H	-0.959906	0.701406	0.191462
H334	H	-0.459906	1.201406	0.691462
H335	H	-0.297263	0.568262	0.801765
H336	H	0.202737	1.068262	1.301765
C337	C	-0.251334	0.560046	1.092135
C338	C	0.248666	1.060046	1.592135
C339	C	-0.276681	0.588873	1.060744
C340	C	0.223319	1.088873	1.560744
H341	H	-0.270828	0.540539	1.110654
H342	H	0.229172	1.040539	1.610654
H343	H	-0.231768	0.542874	1.070831
H344	H	0.268232	1.042874	1.570831
H345	H	-0.234222	0.577176	1.116216
H346	H	0.265778	1.077176	1.616216
H347	H	-0.293790	0.571743	1.036660
H348	H	0.206210	1.071743	1.536660
H349	H	-0.296255	0.606046	1.082050
H350	H	0.203745	1.106046	1.582050
C351	C	-0.608006	0.728586	0.096722
C352	C	-0.108006	1.228586	0.596722
C353	C	-0.596633	0.738245	0.148512
C354	C	-0.096633	1.238245	0.648512
H355	H	-0.592086	0.748101	0.074056
H356	H	-0.092086	1.248101	0.574056
H357	H	-0.600340	0.698410	0.089029
H358	H	-0.100340	1.198410	0.589029
H359	H	-0.639306	0.732705	0.091957
H360	H	-0.139306	1.232705	0.591957
H361	H	-0.565333	0.734123	0.153278
H362	H	-0.065333	1.234123	0.653278
H363	H	-0.604296	0.768428	0.156207
H364	H	-0.104296	1.268428	0.656207
H365	H	-0.268714	0.393007	0.312559
H366	H	0.231286	0.893007	0.812559
C367	C	-0.102195	0.763533	0.730531
C368	C	0.397805	1.263533	1.230531
C369	C	-0.127415	0.738298	0.695017
C370	C	0.372585	1.238298	1.195017
H371	H	-0.082698	0.783041	0.712017
H372	H	0.417302	1.283041	1.212017
H373	H	-0.121768	0.780705	0.751827
H374	H	0.378232	1.280705	1.251827
H375	H	-0.085009	0.743967	0.751827
H376	H	0.414991	1.243967	1.251827
H377	H	-0.144603	0.757863	0.673724
H378	H	0.355397	1.257863	1.173724
H379	H	-0.107839	0.721125	0.673712
H380	H	0.392161	1.221125	1.173712
C381	C	-0.330950	0.097723	0.384784
C382	C	0.169050	0.597723	0.884784
C383	C	-0.305698	0.128229	0.355487
C384	C	0.194302	0.628229	0.855487
H385	H	-0.350474	0.113636	0.407438
H386	H	0.149526	0.613636	0.907438
H387	H	-0.348105	0.079405	0.361968
H388	H	0.151895	0.579405	0.861968
H389	H	-0.311395	0.079441	0.404822
H390	H	0.188605	0.579441	0.904822
H391	H	-0.325253	0.146508	0.335446
H392	H	0.174747	0.646508	0.835446
H393	H	-0.288542	0.146554	0.378306
H394	H	0.211458	0.646554	0.878306
C395	C	-0.280136	0.531221	0.663531
C396	C	0.219864	1.031221	1.163531
C397	C	-0.305469	0.560056	0.694934
C398	C	0.194531	1.060056	1.194934
H399	H	-0.299638	0.511702	0.645006
H400	H	0.200362	1.011702	1.145006
H401	H	-0.263042	0.548341	0.639461
H402	H	0.236958	1.048341	1.139461
H403	H	-0.260554	0.514058	0.684833
H404	H	0.239446	1.014058	1.184833
H405	H	-0.325049	0.577222	0.673632
H406	H	0.174951	1.077222	1.173632
H407	H	-0.322571	0.542934	0.719007
H408	H	0.177429	1.042934	1.219007
H409	H	-0.135578	0.730117	0.801840
H410	H	0.364422	1.230117	1.301840
H411	H	-0.688501	0.568253	0.346049
H412	H	-0.188501	1.068253	0.846049
H413	H	-1.045029	0.701431	0.191478
H414	H	-0.545029	1.201431	0.691478
H415	H	-0.135552	0.036444	0.158127
H416	H	0.364448	0.536444	0.658127
H417	H	-0.268606	0.597001	0.550624
H418	H	0.231394	1.097001	1.050624
C419	C	-0.448887	0.563495	0.351445
C420	C	0.051113	1.063495	0.851445
C421	C	-0.479375	0.588739	0.322133
C422	C	0.020625	1.088739	0.822133
H423	H	-0.464816	0.543995	0.374120
H424	H	0.035184	1.043995	0.874120
H425	H	-0.430618	0.546316	0.328640
H426	H	0.069382	1.046316	0.828640
H427	H	-0.430556	0.583056	0.371461
H428	H	0.069444	1.083056	0.871461
H429	H	-0.497704	0.569178	0.302114
H430	H	0.002296	1.069178	0.802114
H431	H	-0.497652	0.605920	0.344941
H432	H	0.002348	1.105920	0.844941
C433	C	-0.130870	0.734816	0.981685
C434	C	0.369130	1.234816	1.481685
C435	C	-0.156088	0.709577	0.946174
C436	C	0.343912	1.209577	1.446174
H437	H	-0.111375	0.754325	0.963170
H438	H	0.388625	1.254325	1.463170
H439	H	-0.150444	0.751987	1.002981
H440	H	0.349556	1.251987	1.502981
H441	H	-0.113682	0.715253	1.002982
H442	H	0.386318	1.215253	1.502982
H443	H	-0.173278	0.729140	0.924880
H444	H	0.326722	1.229140	1.424880
H445	H	-0.136511	0.692405	0.924870
H446	H	0.363489	1.192405	1.424870
C447	C	-0.162117	0.703511	1.114488
C448	C	0.337883	1.203511	1.614488
C449	C	-0.156062	0.709584	1.060799
C450	C	0.343938	1.209584	1.560799
H451	H	-0.142613	0.723018	1.133026
H452	H	0.357387	1.223018	1.633026
H453	H	-0.192296	0.710069	1.123432
H454	H	0.307704	1.210069	1.623432
H455	H	-0.155541	0.673328	1.123416
H456	H	0.344459	1.173328	1.623416
H457	H	-0.162641	0.739766	1.051870
H458	H	0.337359	1.239766	1.551870
H459	H	-0.125875	0.703030	1.051851
H460	H	0.374125	1.203030	1.551851
C461	C	-0.270748	0.594860	0.390087
C462	C	0.229252	1.094860	0.890087
C463	C	-0.276809	0.588792	0.443775
C464	C	0.223191	1.088792	0.943775
H465	H	-0.290240	0.575341	0.371548
H466	H	0.209760	1.075341	0.871548
H467	H	-0.277334	0.625035	0.381152
H468	H	0.222666	1.125035	0.881152
H469	H	-0.240561	0.588313	0.381149
H470	H	0.259439	1.088313	0.881149
H471	H	-0.306995	0.595343	0.452714
H472	H	0.193005	1.095343	0.952714
H473	H	-0.270226	0.558611	0.452714
H474	H	0.229774	1.058611	0.952714
C475	C	-0.334744	0.594772	0.315059
C476	C	0.165256	1.094772	0.815059
C477	C	-0.380881	0.588709	0.322120
C478	C	0.119119	1.088709	0.822120
H479	H	-0.318832	0.575263	0.337728
H480	H	0.181168	1.075263	0.837728
H481	H	-0.327078	0.588212	0.279925
H482	H	0.172922	1.088212	0.779925
H483	H	-0.327032	0.624953	0.322744
H484	H	0.172968	1.124953	0.822744
H485	H	-0.388594	0.558529	0.314432
H486	H	0.111406	1.058529	0.814432
H487	H	-0.388550	0.595267	0.357262
H488	H	0.111450	1.095267	0.857262
C489	C	-0.270869	-0.232219	0.315101
C490	C	0.229131	0.267781	0.815101
C491	C	-0.276948	-0.186086	0.322147
C492	C	0.223052	0.313914	0.822147
H493	H	-0.290389	-0.248143	0.337758
H494	H	0.209611	0.251857	0.837758
H495	H	-0.277405	-0.239923	0.279963
H496	H	0.222595	0.260077	0.779963
H497	H	-0.240691	-0.239880	0.322811
H498	H	0.259309	0.260120	0.822811
H499	H	-0.307125	-0.178425	0.314433
H500	H	0.192875	0.321575	0.814433
H501	H	-0.270414	-0.178379	0.357293
H502	H	0.229586	0.321621	0.857293
C503	C	-0.767870	0.763532	0.119224
C504	C	-0.267870	1.263532	0.619224
C505	C	-0.737377	0.738290	0.148531
C506	C	-0.237377	1.238290	0.648531
H507	H	-0.751946	0.783043	0.096557
H508	H	-0.251946	1.283043	0.596557
H509	H	-0.786193	0.743974	0.099204
H510	H	-0.286193	1.243974	0.599204
H511	H	-0.786147	0.780704	0.142037
H512	H	-0.286147	1.280704	0.642037
H513	H	-0.719103	0.721115	0.125718
H514	H	-0.219103	1.221115	0.625718
H515	H	-0.719046	0.757850	0.168552
H516	H	-0.219046	1.257850	0.668552
H517	H	-0.387511	0.701224	0.191399
H518	H	0.112489	1.201224	0.691399
C519	C	-0.710456	0.585379	0.389171
C520	C	-0.210456	1.085379	0.889171
C521	C	-0.737471	0.560076	0.355561
C522	C	-0.237471	1.060076	0.855561
H523	H	-0.694556	0.565858	0.411838
H524	H	-0.194556	1.065858	0.911838
H525	H	-0.689759	0.602488	0.369281
H526	H	-0.189759	1.102488	0.869281
H527	H	-0.728736	0.604947	0.409196
H528	H	-0.228736	1.104947	0.909196
H529	H	-0.719190	0.540510	0.335534
H530	H	-0.219190	1.040510	0.835534
H531	H	-0.758171	0.542959	0.375454
H532	H	-0.258171	1.042959	0.875454
H533	H	-0.297499	0.177186	0.345966
H534	H	0.202501	0.677186	0.845966
H535	H	-0.297497	0.262291	0.345950
H536	H	0.202503	0.762291	0.845950
H537	H	-0.268750	-0.094280	0.312621
H538	H	0.231250	0.405720	0.812621
H539	H	-1.045072	0.597102	0.312671
H540	H	-0.545072	1.097102	0.812671
C541	C	-0.448784	0.734671	0.152573
C542	C	0.051216	1.234671	0.652573
C543	C	-0.479302	0.709452	0.181892
C544	C	0.020698	1.209452	0.681892
H545	H	-0.464689	0.754184	0.129901
H546	H	0.035311	1.254184	0.629901
H547	H	-0.430462	0.751835	0.175373
H548	H	0.069538	1.251835	0.675373
H549	H	-0.430509	0.715094	0.132553
H550	H	0.069491	1.215094	0.632553
H551	H	-0.497575	0.729028	0.201915
H552	H	0.002425	1.229028	0.701915
H553	H	-0.497632	0.692286	0.159089
H554	H	0.002368	1.192286	0.659089
C555	C	-0.882001	0.732278	0.155636
C556	C	-0.382001	1.232278	0.655636
C557	C	-0.835864	0.738332	0.148562
C558	C	-0.335864	1.238332	0.648562
H559	H	-0.897914	0.751808	0.132992
H560	H	-0.397914	1.251808	0.632992
H561	H	-0.889724	0.702108	0.147929
H562	H	-0.389724	1.202108	0.647929
H563	H	-0.889655	0.738819	0.190783
H564	H	-0.389655	1.238819	0.690783
H565	H	-0.828210	0.731787	0.113415
H566	H	-0.328210	1.231787	0.613415
H567	H	-0.828138	0.768509	0.156265
H568	H	-0.328138	1.268509	0.656265
C569	C	-0.181454	-0.213065	0.148369
C570	C	0.318546	0.286935	0.648369
C571	C	-0.156152	-0.186067	0.181998
C572	C	0.343848	0.313933	0.681998
H573	H	-0.161931	-0.228972	0.125708
H574	H	0.338069	0.271028	0.625708
H575	H	-0.198581	-0.233757	0.168246
H576	H	0.301419	0.266243	0.668246
H577	H	-0.201005	-0.194773	0.128339
H578	H	0.298995	0.305227	0.628339
H579	H	-0.136603	-0.204360	0.202030
H580	H	0.363397	0.295640	0.702030
H581	H	-0.139018	-0.165373	0.162119
H582	H	0.360982	0.334627	0.662119
H583	H	-0.135534	0.177199	0.158107
H584	H	0.364466	0.677199	0.658107
C585	C	-0.130890	-0.118097	0.152707
C586	C	0.369110	0.381903	0.652707
C587	C	-0.156136	-0.087593	0.181998
C588	C	0.343864	0.412407	0.681998
H589	H	-0.111363	-0.102181	0.130050
H590	H	0.388637	0.397819	0.630050
H591	H	-0.113738	-0.136376	0.175527
H592	H	0.386262	0.363624	0.675527
H593	H	-0.150448	-0.136417	0.132674
H594	H	0.349552	0.363583	0.632674
H595	H	-0.136578	-0.069276	0.202035
H596	H	0.363422	0.430724	0.702035
H597	H	-0.173289	-0.069307	0.159175
H598	H	0.326711	0.430693	0.659175
C599	C	-0.102081	0.238495	0.119298
C600	C	0.397919	0.738495	0.619298
C601	C	-0.127332	0.268995	0.148587
C602	C	0.372668	0.768995	0.648587
H603	H	-0.082557	0.254413	0.096640
H604	H	0.417443	0.754413	0.596640
H605	H	-0.084926	0.220219	0.142118
H606	H	0.415074	0.720219	0.642118
H607	H	-0.121636	0.220172	0.099264
H608	H	0.378364	0.720172	0.599264
H609	H	-0.107777	0.287316	0.168624
H610	H	0.392223	0.787316	0.668624
H611	H	-0.144488	0.287279	0.125764
H612	H	0.355512	0.787279	0.625764
H613	H	-0.164304	0.393001	0.191441
H614	H	0.335696	0.893001	0.691441
H615	H	-0.297503	0.036426	0.345983
H616	H	0.202497	0.536426	0.845983
H617	H	-0.829256	0.568298	0.346056
H618	H	-0.329256	1.068298	0.846056
