data_functionalizedCrystal
_audit_creation_method	'MofGen! by Chris Wilmer'
_symmetry_space_group_name_H-M	'P1'
_symmetry_Int_Tables_number	1
_symmetry_cell_setting	triclinic
loop_
_symmetry_equiv_pos_as_xyz
  x,y,z
_cell_length_a	17.038272
_cell_length_b	23.532407
_cell_length_c	15.500227
_cell_angle_alpha	92.805592
_cell_angle_beta	86.956295
_cell_angle_gamma	86.980117
loop_
_atom_site_label
_atom_site_type_symbol
_atom_site_fract_x
_atom_site_fract_y
_atom_site_fract_z
O1	O	1.040103	0.121159	-0.071851
O2	O	0.812488	0.119196	-0.071876
O3	O	0.933158	0.037607	-0.071847
O4	O	0.919432	0.202748	-0.071880
O5	O	0.925836	0.042537	0.072040
O6	O	0.805165	0.124126	0.072011
O7	O	1.032780	0.126090	0.072036
Cu8	Cu	0.918304	0.125558	0.085162
Cu9	Cu	0.926964	0.119727	-0.085001
O10	O	0.912110	0.207678	0.072007
C11	C	0.779712	0.119875	0.000065
C12	C	0.692959	0.114548	0.000056
C13	C	0.642483	0.163453	0.000046
C14	C	0.560969	0.158445	0.000059
C15	C	0.529932	0.104532	0.000075
C16	C	0.580414	0.055624	0.000087
C17	C	0.661927	0.060632	0.000080
C18	C	0.284304	0.086837	0.000102
C19	C	0.202786	0.081832	0.000106
C20	C	0.183345	0.184654	0.000080
C21	C	0.264860	0.189658	0.000068
C22	C	0.315335	0.140750	0.000084
C23	C	0.446612	0.099412	0.000086
C24	C	0.398653	0.145871	0.000080
C25	C	0.929147	0.018838	0.000099
C26	C	0.928096	-0.044434	0.000105
C27	C	0.992917	-0.440131	0.000065
C28	C	0.991941	-0.499583	0.000058
O29	O	1.052030	-0.533169	0.000033
N30	N	0.920202	-0.525981	0.000051
C31	C	0.849435	-0.492924	0.000042
O32	O	0.788325	-0.520836	0.000034
C33	C	0.850412	-0.433473	0.000042
C34	C	0.922155	-0.407078	0.000058
C35	C	1.064654	-0.413736	0.000080
C36	C	1.065630	-0.354288	0.000089
C37	C	0.994868	-0.321235	0.000082
C38	C	0.923131	-0.347631	0.000067
C39	C	0.779646	-0.400418	0.000027
C40	C	0.780629	-0.340963	0.000026
C41	C	0.852372	-0.314569	0.000043
C42	C	0.853344	-0.255130	0.000068
N43	N	0.925083	-0.228732	0.000075
C44	C	0.995845	-0.261785	0.000082
C45	C	0.847388	-0.617774	0.000039
C46	C	0.846410	-0.677223	0.000045
C47	C	0.988916	-0.683878	0.000060
C48	C	0.989894	-0.624428	0.000061
C49	C	0.919127	-0.591376	0.000047
C50	C	0.997889	-0.136940	0.000100
C51	C	0.998858	-0.077487	0.000112
C52	C	0.856352	-0.070837	0.000093
C53	C	0.855382	-0.130285	0.000085
C54	C	0.926157	-0.163336	0.000086
O55	O	0.793287	-0.221508	0.000090
O56	O	1.056945	-0.233865	0.000078
C57	C	1.065556	0.125410	0.000094
C58	C	1.152310	0.130737	0.000097
C59	C	0.916121	0.226447	0.000059
C60	C	0.917172	0.289719	0.000047
N61	N	0.912219	0.129659	0.204845
N62	N	0.933055	0.115622	-0.204685
C63	C	0.963369	0.095101	0.250134
C64	C	0.958774	0.098208	0.340706
C65	C	0.903033	0.135876	0.385987
C66	C	0.851877	0.170435	0.340691
C67	C	0.856469	0.167324	0.250121
C68	C	0.886491	0.147071	0.659450
C69	C	0.881905	0.150180	0.750026
C70	C	0.988801	0.077952	0.750034
C71	C	0.993391	0.074848	0.659462
C72	C	0.942233	0.109404	0.614175
C73	C	0.898336	0.139054	0.478566
C74	C	0.946927	0.106223	0.521598
H75	H	0.421332	0.055516	0.000123
C76	C	0.676619	0.222756	0.000026
H77	H	0.732395	0.218736	0.000015
H78	H	0.656720	0.244779	0.050198
H79	H	0.661811	0.241336	-0.050161
H80	H	1.038780	0.044176	0.622596
H81	H	0.423926	0.189767	0.000072
H82	H	0.814816	0.195464	0.213248
H83	H	0.325391	0.047013	0.000116
C84	C	0.702784	-0.304610	0.000014
H85	H	0.659921	-0.328848	0.000011
H86	H	0.702755	-0.282992	-0.050159
H87	H	0.697645	-0.279568	0.050201
C88	C	1.024684	0.053666	0.200333
H89	H	1.054483	0.033526	0.240280
H90	H	1.058849	0.074519	0.164987
H91	H	0.998541	0.027378	0.165017
H92	H	0.844838	0.175209	0.622584
C93	C	0.298994	0.248962	0.000063
H94	H	0.257256	0.277372	0.000069
H95	H	0.332936	0.251337	-0.050113
H96	H	0.327838	0.254769	0.050246
C97	C	0.769539	-0.581421	0.000040
H98	H	0.726679	-0.605661	0.000044
H99	H	0.769502	-0.559804	-0.050134
H100	H	0.764404	-0.556379	0.050226
C101	C	0.127826	0.238449	0.000067
H102	H	0.157985	0.271274	0.000050
H103	H	0.093075	0.240354	0.050243
H104	H	0.098173	0.236912	-0.050116
C105	C	0.546277	-0.003679	0.000103
H106	H	0.490502	0.000341	0.000096
H107	H	0.561082	-0.022264	0.050282
H108	H	0.566179	-0.025700	-0.050077
H109	H	1.046535	-0.710801	0.000062
H110	H	0.177520	0.037928	0.000118
H111	H	0.703024	0.020809	0.000087
C112	C	0.790564	0.211869	0.390498
H113	H	0.795160	0.208777	0.450925
H114	H	0.739206	0.202629	0.375668
H115	H	0.799514	0.249770	0.375636
H116	H	1.057282	-0.055999	0.000128
H117	H	1.055521	-0.163843	0.000098
H118	H	1.000424	0.070069	0.377580
C119	C	0.778518	-0.034475	0.000079
H120	H	0.735648	-0.058706	0.000074
H121	H	0.778501	-0.012859	-0.050097
H122	H	0.773382	-0.009430	0.050262
H123	H	0.836511	0.180855	0.786890
H124	H	1.124051	-0.332803	0.000098
H125	H	1.122281	-0.440642	0.000083
H126	H	1.048313	-0.602941	0.000073
H127	H	0.787989	-0.698708	0.000047
C128	C	1.045062	0.039938	0.799852
H129	H	1.034342	0.047180	0.860277
H130	H	1.097926	0.048157	0.784999
H131	H	1.037616	0.001018	0.785022
H132	H	0.519874	0.198268	0.000051
C133	C	0.700727	-0.429439	0.000002
H134	H	0.658732	-0.401233	-0.000014
H135	H	0.694816	-0.450780	0.050173
H136	H	0.699940	-0.454203	-0.050186
H137	H	0.796962	-0.151776	0.000096
C138	C	1.008240	0.064790	0.471796
H139	H	1.038047	0.044650	0.511736
H140	H	1.042397	0.085648	0.436449
H141	H	0.982097	0.038503	0.436480
H142	H	0.852952	0.169725	0.515441
