data_functionalizedCrystal
_audit_creation_method	'MofGen! by Chris Wilmer'
_symmetry_space_group_name_H-M	'P1'
_symmetry_Int_Tables_number	1
_symmetry_cell_setting	triclinic
loop_
_symmetry_equiv_pos_as_xyz
  x,y,z
_cell_length_a	10.540539
_cell_length_b	27.732048
_cell_length_c	9.016244
_cell_angle_alpha	89.992799
_cell_angle_beta	89.994699
_cell_angle_gamma	83.584073
loop_
_atom_site_label
_atom_site_type_symbol
_atom_site_fract_x
_atom_site_fract_y
_atom_site_fract_z
O1	O	1.682935	0.068112	-0.123289
O2	O	1.313244	0.074530	-0.123309
O3	O	1.509571	0.000996	-0.123270
O4	O	1.486608	0.141645	-0.123327
O5	O	1.509543	0.000998	0.123411
O6	O	1.313215	0.074531	0.123372
O7	O	1.682907	0.068113	0.123392
Cu8	Cu	1.498058	0.071322	0.145906
Cu9	Cu	1.498092	0.071321	-0.145822
O10	O	1.486579	0.141647	0.123353
C11	C	1.265947	0.074049	0.000030
C12	C	1.125062	0.072609	0.000023
C13	C	0.944031	0.017434	0.000622
C14	C	1.090586	0.018894	0.000050
C15	C	1.062283	0.098458	-0.140849
C16	C	0.915818	0.096625	-0.140950
C17	C	0.915250	0.097720	0.139571
C18	C	1.062210	0.098215	0.141418
C19	C	1.509075	-0.017013	0.000075
C20	C	1.507623	-0.070677	0.000087
C21	C	1.614502	-0.408819	0.000017
C22	C	1.609117	-0.610513	-0.000004
O23	O	1.706850	-0.641153	-0.000064
N24	N	1.492703	-0.630369	-0.000009
C25	C	1.377627	-0.599799	-0.000019
O26	O	1.278486	-0.621317	-0.000039
C27	C	1.383013	-0.398107	-0.000008
C28	C	1.499435	-0.378253	0.000012
C29	C	1.730915	-0.388965	0.000035
C30	C	1.732260	-0.338544	0.000048
C31	C	1.617193	-0.307978	0.000043
C32	C	1.500780	-0.327832	0.000025
C33	C	1.267939	-0.367538	-0.000028
C34	C	1.269296	-0.317112	-0.000030
C35	C	1.385718	-0.297258	-0.000010
C36	C	1.387058	-0.246846	0.000033
N37	N	1.503472	-0.226989	0.000038
C38	C	1.618540	-0.257555	0.000043
C39	C	1.374807	-0.705691	-0.000021
C40	C	1.373460	-0.756114	-0.000021
C41	C	1.604950	-0.766824	-0.000010
C42	C	1.606296	-0.716400	0.000001
C43	C	1.491221	-0.685834	-0.000016
C44	C	1.621356	-0.151668	0.000072
C45	C	1.622691	-0.101243	0.000092
C46	C	1.391201	-0.090538	0.000073
C47	C	1.389865	-0.140959	0.000061
C48	C	1.504953	-0.171523	0.000056
O49	O	1.289377	-0.216177	0.000076
O50	O	1.717666	-0.236029	0.000030
C51	C	1.613157	-0.459239	0.000003
C52	C	1.496745	-0.479094	-0.000015
C53	C	1.381678	-0.448528	-0.000020
C54	C	1.495398	-0.529517	-0.000015
C55	C	1.610465	-0.560083	-0.000010
C56	C	1.726879	-0.540226	-0.000005
C57	C	1.728224	-0.489806	0.000008
C58	C	1.265264	-0.468384	-0.000025
C59	C	1.263928	-0.518805	-0.000037
C60	C	1.378995	-0.549371	-0.000032
C61	C	1.730203	0.068594	0.000051
C62	C	1.871089	0.070034	0.000047
C63	C	1.487075	0.159656	0.000006
C64	C	1.488527	0.213320	-0.000016
N65	N	1.498044	0.071324	0.351092
N66	N	1.498117	0.071316	-0.351009
C67	C	1.392710	0.110527	0.586104
C68	C	1.392933	0.110674	0.414213
C69	C	1.630269	0.082796	0.413432
C70	C	1.629691	0.083074	0.585377
C71	C	1.472476	0.020519	0.585655
C72	C	1.469417	0.020848	0.413701
H73	H	0.888449	0.077519	-0.246238
C74	C	1.264633	-0.056911	0.000057
H75	H	1.195100	-0.075954	0.000053
H76	H	1.260374	-0.037015	-0.085965
H77	H	1.260335	-0.037022	0.086092
C78	C	1.660400	0.133139	0.639524
H79	H	1.673105	0.153118	0.556436
H80	H	1.735715	0.129326	0.698177
H81	H	1.591302	0.147866	0.697340
H82	H	1.698643	-0.791720	-0.000005
H83	H	1.169116	-0.534965	-0.000040
C84	C	1.245396	-0.777948	-0.000031
H85	H	1.177066	-0.752518	-0.000050
H86	H	1.240037	-0.797399	0.085987
H87	H	1.240070	-0.797389	-0.086070
C88	C	1.120873	0.074203	-0.282466
H89	H	1.082264	0.090104	-0.367124
H90	H	1.106412	0.041004	-0.283719
H91	H	1.210097	0.076544	-0.283930
H92	H	1.715071	-0.176549	0.000063
H93	H	1.372156	0.012152	0.372958
C94	C	1.414928	0.161581	0.358589
H95	H	1.415135	0.161845	0.253223
H96	H	1.494724	0.169629	0.394197
H97	H	1.348480	0.184675	0.394015
H98	H	0.866338	0.136518	0.140507
C99	C	1.738755	0.045993	0.641581
H100	H	1.783226	0.030829	0.559324
H101	H	1.704329	0.022121	0.700148
H102	H	1.796013	0.062158	0.699923
H103	H	1.133232	-0.001590	-0.101092
H104	H	0.866172	0.135256	-0.147360
C105	C	1.090171	0.151746	-0.147969
H106	H	1.140475	0.158719	-0.064896
H107	H	1.012014	0.172435	-0.146666
H108	H	1.135258	0.156957	-0.236734
C109	C	1.856289	-0.467973	0.000015
H110	H	1.924616	-0.493404	0.000003
H111	H	1.861630	-0.448529	0.086037
H112	H	1.861640	-0.448524	-0.086020
C113	C	1.853450	-0.573855	-0.000011
H114	H	1.835962	-0.606727	-0.000034
H115	H	1.901231	-0.567802	0.086010
H116	H	1.901229	-0.567788	-0.086047
C117	C	0.873640	0.074239	0.283822
H118	H	0.828944	0.047327	0.260300
H119	H	0.819405	0.097376	0.338809
H120	H	0.946911	0.063515	0.341334
H121	H	1.281093	-0.680808	-0.000035
C122	C	1.139873	-0.389366	-0.000063
H123	H	1.071548	-0.363934	-0.000086
H124	H	1.134502	-0.408818	0.085952
H125	H	1.134548	-0.408806	-0.086105
C126	C	1.142710	-0.283492	-0.000043
H127	H	1.073189	-0.302542	-0.000044
H128	H	1.138431	-0.263594	-0.086060
H129	H	1.138407	-0.263606	0.085997
C130	C	1.576314	-0.018911	0.640603
H131	H	1.560313	-0.049523	0.601960
H132	H	1.575101	-0.020018	0.745892
H133	H	1.657595	-0.011520	0.607835
C134	C	0.906638	-0.011234	0.137097
H135	H	0.846199	0.008616	0.194948
H136	H	0.980469	-0.020696	0.195098
H137	H	0.870145	-0.039306	0.105437
H138	H	1.378213	0.009599	0.629103
C139	C	1.118625	0.072704	0.282209
H140	H	1.180231	0.046559	0.254951
H141	H	1.052313	0.060603	0.337539
H142	H	1.158169	0.095214	0.340984
H143	H	0.914753	-0.003698	-0.099826
C144	C	1.092631	0.151120	0.152892
H145	H	1.144283	0.158318	0.071229
H146	H	1.137035	0.155365	0.242794
H147	H	1.015334	0.172318	0.151696
C148	C	1.661757	0.132296	0.355236
H149	H	1.594502	0.146034	0.292966
H150	H	1.739091	0.128009	0.300283
H151	H	1.671074	0.153388	0.436569
H152	H	1.134071	-0.001446	0.101034
H153	H	1.717499	-0.085081	0.000112
C154	C	1.566493	-0.020465	0.355687
H155	H	1.626023	-0.007413	0.292248
H156	H	1.522889	-0.043056	0.302016
H157	H	1.610487	-0.036410	0.437024
H158	H	1.824622	-0.413847	0.000033
C159	C	1.860324	-0.316711	0.000042
H160	H	1.928652	-0.342143	0.000026
H161	H	1.865673	-0.297267	0.086060
H162	H	1.865668	-0.297264	-0.085997
H163	H	1.171560	-0.443502	-0.000032
C164	C	1.734358	-0.694565	0.000009
H165	H	1.802689	-0.719995	0.000004
H166	H	1.739693	-0.675120	0.086028
H167	H	1.739710	-0.675118	-0.086029
H168	H	1.295065	-0.157124	0.000086
C169	C	1.260113	0.101358	0.357269
H170	H	1.205531	0.097451	0.439223
H171	H	1.267635	0.072744	0.298542
H172	H	1.225215	0.128141	0.298933
H173	H	1.408750	0.148000	0.629283
H174	H	1.294080	0.103730	0.627496
H175	H	1.710530	0.055017	0.372543
