data_functionalizedCrystal
_audit_creation_method	'MofGen! by Chris Wilmer'
_symmetry_space_group_name_H-M	'P1'
_symmetry_Int_Tables_number	1
_symmetry_cell_setting	triclinic
loop_
_symmetry_equiv_pos_as_xyz
  x,y,z
_cell_length_a	12.827893
_cell_length_b	12.759400
_cell_length_c	12.827885
_cell_angle_alpha	89.970623
_cell_angle_beta	89.980728
_cell_angle_gamma	90.013136
loop_
_atom_site_label
_atom_site_type_symbol
_atom_site_fract_x
_atom_site_fract_y
_atom_site_fract_z
Zn1	Zn	1.597686	-0.418216	-0.590852
Zn2	Zn	2.097686	0.081784	-0.090852
Zn3	Zn	1.597587	-0.593932	-0.416113
Zn4	Zn	2.097587	-0.093932	0.083887
Zn5	Zn	1.422927	-0.418267	-0.416125
Zn6	Zn	1.922927	0.081733	0.083875
Zn7	Zn	1.422919	-0.593854	-0.590813
Zn8	Zn	1.922919	-0.093854	-0.090813
O9	O	1.510280	-0.506067	-0.503476
O10	O	2.010280	-0.006067	-0.003476
O11	O	1.743909	-0.441537	-0.567683
O12	O	2.243909	0.058463	-0.067683
O13	O	1.574380	-0.570684	-0.269879
O14	O	2.074380	-0.070684	0.230121
O15	O	1.446154	-0.271240	-0.439324
O16	O	1.946154	0.228760	0.060676
O17	O	1.743836	-0.570634	-0.439304
O18	O	2.243836	-0.070634	0.060696
O19	O	1.574548	-0.271202	-0.567695
O20	O	2.074548	0.228798	-0.067695
O21	O	1.446058	-0.441624	-0.269888
O22	O	1.946058	0.058376	0.230112
O23	O	1.276690	-0.441548	-0.439287
O24	O	1.776690	0.058452	0.060713
O25	O	1.446141	-0.570501	-0.737054
O26	O	1.946141	-0.070501	-0.237054
O27	O	1.276684	-0.570550	-0.567629
O28	O	1.776684	-0.070550	-0.067629
O29	O	1.574541	-0.441461	-0.737083
O30	O	2.074541	0.058539	-0.237083
O31	O	1.574372	-0.740942	-0.439266
O32	O	2.074372	-0.240942	0.060734
O33	O	1.446044	-0.740885	-0.567618
O34	O	1.946044	-0.240885	-0.067618
C35	C	1.238770	-0.506047	-0.503456
C36	C	1.738770	-0.006047	-0.003456
C37	C	1.122617	-0.506064	-0.503472
C38	C	1.622617	-0.006064	-0.003472
C39	C	1.070857	-0.569998	-0.566882
C40	C	1.570857	-0.069998	-0.066882
C41	C	0.950806	-0.570017	-0.566900
C42	C	1.450806	-0.070017	-0.066900
C43	C	1.510225	-0.779035	-0.503459
C44	C	2.010225	-0.279035	-0.003459
C45	C	1.510297	-0.895811	-0.503487
C46	C	2.010297	-0.395811	-0.003487
C47	C	1.577119	-0.950574	-0.570385
C48	C	2.077119	-0.450574	-0.070385
C49	C	1.577167	-1.060298	-0.570410
C50	C	2.077167	-0.560298	-0.070410
C51	C	1.443570	-1.060487	-0.436632
C52	C	1.943570	-0.560487	0.063368
C53	C	1.443517	-0.950765	-0.436612
C54	C	1.943517	-0.450765	0.063388
C55	C	1.643899	-0.895620	-0.637259
C56	C	2.143899	-0.395620	-0.137259
C57	C	1.710727	-0.950383	-0.704161
C58	C	2.210727	-0.450383	-0.204161
C59	C	1.710775	-1.060107	-0.704187
C60	C	2.210775	-0.560107	-0.204187
C61	C	1.643996	-1.115068	-0.637310
C62	C	2.143996	-0.615068	-0.137310
C63	C	1.782850	-0.506088	-0.503496
C64	C	2.282850	-0.006088	-0.003496
C65	C	1.899003	-0.506097	-0.503505
C66	C	2.399003	-0.006097	-0.003505
C67	C	1.510351	-0.505966	-0.776046
C68	C	2.010351	-0.005966	-0.276046
C69	C	1.510381	-0.505923	-0.892199
C70	C	2.010381	-0.005923	-0.392199
C71	C	1.510363	-0.232034	-0.503515
C72	C	2.010363	0.267966	-0.003515
C73	C	1.510399	-0.115257	-0.503532
C74	C	2.010399	0.384743	-0.003532
C75	C	1.573925	-0.442058	-0.943998
C76	C	2.073925	0.057942	-0.443998
C77	C	1.573957	-0.442012	-1.064049
C78	C	2.073957	0.057988	-0.564049
C79	C	1.510269	-0.506092	-0.231966
C80	C	2.010269	-0.006092	0.268034
C81	C	1.510441	-0.505839	-0.115813
C82	C	2.010441	-0.005839	0.384187
H83	H	0.906294	-0.624756	-0.621185
H84	H	1.406294	-0.124756	-0.121185
C85	C	1.647452	-0.368139	-1.124225
C86	C	2.147452	0.131861	-0.624225
N87	N	1.702808	-0.312493	-1.169552
N88	N	2.202808	0.187507	-0.669552
H89	H	1.115420	-0.624717	-0.621160
H90	H	1.615420	-0.124717	-0.121160
H91	H	1.078054	-0.451337	-0.449202
H92	H	1.578054	0.048663	0.050798
C93	C	1.436913	-0.579744	-0.952352
C94	C	1.936913	-0.079744	-0.452352
N95	N	1.381574	-0.635347	-0.997658
N96	N	1.881574	-0.135347	-0.497658
H97	H	1.389104	-0.906177	-0.382139
H98	H	1.889104	-0.406177	0.117861
H99	H	0.943509	-0.451362	-0.449211
H100	H	1.443509	0.048638	0.050789
H101	H	1.456040	-0.560523	-1.071274
H102	H	1.956040	-0.060523	-0.571274
C103	C	1.643848	-0.774922	-0.637241
C104	C	2.143848	-0.274922	-0.137241
N105	N	1.643808	-0.684012	-0.637227
N106	N	2.143808	-0.184012	-0.137227
H107	H	1.765090	-0.905628	-0.758616
H108	H	2.265090	-0.405628	-0.258616
H109	H	1.765181	-1.104692	-0.758670
H110	H	2.265181	-0.604692	-0.258670
C111	C	1.370166	-1.120949	-0.363025
C112	C	1.870166	-0.620949	0.136975
N113	N	1.314895	-1.166488	-0.307565
N114	N	1.814895	-0.666488	0.192435
C115	C	1.647386	-0.368231	-0.883845
C116	C	2.147386	0.131769	-0.383845
N117	N	1.702720	-0.312622	-0.838539
N118	N	2.202720	0.187378	-0.338539
C119	C	1.644048	-1.235769	-0.637348
C120	C	2.144048	-0.735769	-0.137348
N121	N	1.644090	-1.326679	-0.637375
N122	N	2.144090	-0.826679	-0.137375
