data_functionalizedCrystal
_audit_creation_method	'MofGen! by Chris Wilmer'
_symmetry_space_group_name_H-M	'P1'
_symmetry_Int_Tables_number	1
_symmetry_cell_setting	triclinic
loop_
_symmetry_equiv_pos_as_xyz
  x,y,z
_cell_length_a	17.077404
_cell_length_b	25.639240
_cell_length_c	25.639233
_cell_angle_alpha	89.974071
_cell_angle_beta	89.986422
_cell_angle_gamma	90.028143
loop_
_atom_site_label
_atom_site_type_symbol
_atom_site_fract_x
_atom_site_fract_y
_atom_site_fract_z
Zn1	Zn	1.199953	-0.208279	-0.295596
Zn2	Zn	1.199851	-0.295698	-0.208150
Zn3	Zn	1.068699	-0.208271	-0.208174
Zn4	Zn	1.068630	-0.295678	-0.295553
O5	O	1.134283	-0.251981	-0.251868
O6	O	1.309786	-0.219887	-0.284005
O7	O	1.182440	-0.284105	-0.134988
O8	O	1.086181	-0.135107	-0.219799
O9	O	1.309712	-0.284113	-0.219758
O10	O	1.182613	-0.135113	-0.284028
O11	O	1.086083	-0.219873	-0.135005
O12	O	0.958843	-0.219854	-0.219756
O13	O	1.086064	-0.284079	-0.368724
O14	O	0.958792	-0.284072	-0.283953
O15	O	1.182546	-0.219868	-0.368756
O16	O	1.182373	-0.368860	-0.219716
O17	O	1.085965	-0.368846	-0.283930
C18	C	0.930335	-0.251960	-0.251853
C19	C	0.843085	-0.251964	-0.251859
C20	C	0.467265	-0.285494	-0.285258
C21	C	0.549246	-0.285487	-0.285250
C22	C	0.590237	-0.251995	-0.251876
C23	C	0.549243	-0.218511	-0.218505
C24	C	0.467264	-0.218521	-0.218511
C25	C	0.720113	-0.218492	-0.218496
C26	C	0.802097	-0.218482	-0.218491
C27	C	0.802095	-0.285458	-0.285236
C28	C	0.720116	-0.285468	-0.285241
C29	C	0.679128	-0.251984	-0.251870
C30	C	1.134172	-0.387824	-0.251827
C31	C	1.134197	-0.445938	-0.251827
C32	C	1.184520	-0.806265	-0.285373
C33	C	1.184543	-0.860870	-0.285383
O34	O	1.227198	-0.889076	-0.313863
N35	N	1.134392	-0.888220	-0.251919
C36	C	1.084209	-0.860964	-0.218445
O37	O	1.041553	-0.889242	-0.189982
C38	C	1.084182	-0.806360	-0.218437
C39	C	1.134342	-0.779013	-0.251900
C40	C	1.234675	-0.778918	-0.318833
C41	C	1.234653	-0.724317	-0.318822
C42	C	1.184475	-0.697064	-0.285350
C43	C	1.134320	-0.724412	-0.251889
C44	C	1.033996	-0.779105	-0.184967
C45	C	1.033973	-0.724498	-0.184962
C46	C	1.084133	-0.697150	-0.218425
C47	C	1.084120	-0.642559	-0.218405
N48	N	1.134271	-0.615208	-0.251870
C49	C	1.184449	-0.642461	-0.285342
C50	C	1.084267	-0.975634	-0.218464
C51	C	1.084297	-1.030237	-0.218469
C52	C	1.184631	-1.030139	-0.285408
C53	C	1.184604	-0.975536	-0.285400
C54	C	1.134419	-0.948284	-0.251929
C55	C	1.184399	-0.527796	-0.285315
C56	C	1.184374	-0.473191	-0.285299
C57	C	1.084038	-0.473293	-0.218362
C58	C	1.084065	-0.527894	-0.218376
C59	C	1.134248	-0.555144	-0.251857
O60	O	1.041485	-0.614318	-0.189942
O61	O	1.227090	-0.614177	-0.313805
C62	C	1.339027	-0.252003	-0.251884
C63	C	1.426277	-0.252012	-0.251890
C64	C	1.134308	-0.251972	-0.388241
C65	C	1.134319	-0.251968	-0.446355
C66	C	1.134416	-0.115608	-0.251921
C67	C	1.134472	-0.057494	-0.251943
C68	C	1.184621	-0.218434	-0.806741
C69	C	1.184631	-0.218419	-0.861345
O70	O	1.227336	-0.189969	-0.889601
N71	N	1.134406	-0.251846	-0.888638
C72	C	1.084162	-0.285285	-0.861324
O73	O	1.041442	-0.313715	-0.889552
C74	C	1.084149	-0.285296	-0.806720
C75	C	1.134383	-0.251872	-0.779430
C76	C	1.234851	-0.185011	-0.779451
C77	C	1.234842	-0.185027	-0.724850
C78	C	1.184604	-0.218464	-0.697540
C79	C	1.134374	-0.251887	-0.724830
C80	C	1.033902	-0.318732	-0.779407
C81	C	1.033893	-0.318741	-0.724800
C82	C	1.084127	-0.285316	-0.697510
C83	C	1.084127	-0.285340	-0.642919
N84	N	1.134352	-0.251914	-0.615626
C85	C	1.184590	-0.218476	-0.642936
C86	C	1.084192	-0.285258	-0.975994
C87	C	1.084209	-0.285249	-1.030597
C88	C	1.184677	-0.218383	-1.030614
C89	C	1.184664	-0.218394	-0.976011
C90	C	1.134417	-0.251831	-0.948701
C91	C	1.184569	-0.218511	-0.528271
C92	C	1.184558	-0.218531	-0.473666
C93	C	1.084087	-0.285395	-0.473653
C94	C	1.084100	-0.285377	-0.528253
C95	C	1.134344	-0.251931	-0.555561
O96	O	1.041441	-0.313774	-0.614628
O97	O	1.227296	-0.190046	-0.614701
C98	C	1.134303	-0.251953	-0.116026
C99	C	1.134444	-0.251809	-0.057912
H100	H	1.225257	-0.549977	-0.312582
H101	H	0.993150	-0.801362	-0.157717
O102	O	1.238742	-1.059540	-0.321518
H103	H	1.278709	-1.084417	-0.298149
O104	O	0.423061	-0.321618	-0.321257
H105	H	0.359169	-0.315997	-0.315661
O106	O	0.423043	-0.182418	-0.182514
H107	H	0.385704	-0.155861	-0.205964
O108	O	1.029972	-0.557387	-0.182275
H109	H	1.065145	-0.582260	-0.155698
H110	H	1.225223	-0.450926	-0.312549
H111	H	1.043460	-1.052499	-0.191214
O112	O	1.029919	-0.443891	-0.182264
H113	H	1.043428	-0.454382	-0.141237
H114	H	0.835471	-0.312722	-0.312409
H115	H	1.043312	-0.312473	-1.052811
O116	O	0.979710	-0.354777	-0.808834
H117	H	0.944770	-0.378020	-0.780661
H118	H	0.582624	-0.191244	-0.191329
O119	O	0.846314	-0.182363	-0.182493
H120	H	0.804042	-0.159086	-0.159283
H121	H	1.043402	-0.953449	-0.191203
H122	H	1.225568	-0.191176	-0.953795
O123	O	1.288766	-0.694823	-0.354906
H124	H	1.323658	-0.722954	-0.378179
H125	H	1.043187	-0.312620	-0.451407
O126	O	0.979687	-0.354799	-0.695343
H127	H	0.944762	-0.378036	-0.723497
H128	H	1.043275	-0.312489	-0.953762
H129	H	0.686743	-0.191224	-0.191323
O130	O	0.979843	-0.695105	-0.148859
H131	H	1.014992	-0.670224	-0.122277
H132	H	1.275536	-0.801101	-0.346093
H133	H	1.225448	-0.953272	-0.312649
H134	H	1.275761	-0.157779	-0.801681
O135	O	0.675962	-0.321625	-0.321235
H136	H	0.638630	-0.298307	-0.347913
H137	H	1.043203	-0.312599	-0.550474
H138	H	1.225479	-0.191274	-0.550499
O139	O	0.593450	-0.321598	-0.321246
H140	H	0.577681	-0.362620	-0.312204
O141	O	1.238739	-0.182478	-0.444230
H142	H	1.273667	-0.159221	-0.472398
H143	H	1.275746	-0.157808	-0.702635
H144	H	1.225582	-0.191155	-1.052860
