data_functionalizedCrystal
_audit_creation_method	'MofGen! by Chris Wilmer'
_symmetry_space_group_name_H-M	'P1'
_symmetry_Int_Tables_number	1
_symmetry_cell_setting	triclinic
loop_
_symmetry_equiv_pos_as_xyz
  x,y,z
_cell_length_a	15.995350
_cell_length_b	14.472310
_cell_length_c	14.519731
_cell_angle_alpha	90.002038
_cell_angle_beta	83.590614
_cell_angle_gamma	90.009379
loop_
_atom_site_label
_atom_site_type_symbol
_atom_site_fract_x
_atom_site_fract_y
_atom_site_fract_z
O1	O	1.111183	0.076765	0.118866
O2	O	1.611183	0.576765	0.618866
O3	O	0.867430	0.076784	0.133545
O4	O	1.367430	0.576784	0.633545
O5	O	0.995760	0.076765	-0.008044
O6	O	1.495760	0.576765	0.491956
O7	O	0.982853	0.076783	0.260454
O8	O	1.482853	0.576783	0.760454
O9	O	0.995727	-0.076917	-0.008035
O10	O	1.495727	0.423083	0.491965
O11	O	0.867397	-0.076898	0.133553
O12	O	1.367397	0.423102	0.633553
O13	O	1.111150	-0.076917	0.118874
O14	O	1.611150	0.423083	0.618874
Cu15	Cu	0.989271	-0.090940	0.126214
Cu16	Cu	1.489271	0.409060	0.626214
Cu17	Cu	0.989310	0.090807	0.126204
Cu18	Cu	1.489310	0.590807	0.626204
O19	O	0.982820	-0.076899	0.260462
O20	O	1.482820	0.423101	0.760462
C21	C	0.836218	-0.000055	0.132942
C22	C	1.336218	0.499945	0.632942
C23	C	0.743265	-0.000048	0.131123
C24	C	1.243265	0.499952	0.631123
N25	N	0.989249	-0.218771	0.126220
N26	N	1.489249	0.281229	0.626220
C27	C	0.405507	-0.000067	0.124589
C28	C	0.905507	0.499933	0.624589
C29	C	0.452783	-0.000417	0.023752
C30	C	0.952783	0.499583	0.523752
C31	C	0.549476	-0.000064	0.025572
C32	C	1.049476	0.499936	0.525572
C33	C	0.573073	-0.000058	0.127830
C34	C	1.073073	0.499942	0.627830
C35	C	0.532083	0.087702	0.177561
C36	C	1.032083	0.587702	0.677561
C37	C	0.435443	0.087769	0.175028
C38	C	0.935443	0.587769	0.675028
C39	C	0.435070	-0.086997	0.177121
C40	C	0.935070	0.413003	0.677121
C41	C	0.532015	-0.088150	0.177097
C42	C	1.032015	0.411850	0.677097
C43	C	0.667773	-0.000050	0.129667
C44	C	1.167773	0.499950	0.629667
C45	C	0.310807	-0.000069	0.122755
C46	C	0.810807	0.499931	0.622755
C47	C	0.989308	-0.592862	0.126201
C48	C	1.489308	-0.092862	0.626201
C49	C	0.920411	-0.553686	0.201708
C50	C	1.420411	-0.053686	0.701708
C51	C	0.920570	-0.446598	0.201983
C52	C	1.420570	0.053402	0.701983
C53	C	0.989278	-0.407271	0.126211
C54	C	1.489278	0.092729	0.626211
C55	C	1.076676	-0.446114	0.147227
C56	C	1.576676	0.053886	0.647227
C57	C	1.076289	-0.553235	0.147764
C58	C	1.576289	-0.053235	0.647764
C59	C	0.971588	-0.553396	0.029453
C60	C	1.471588	-0.053396	0.529453
C61	C	0.969585	-0.446269	0.030098
C62	C	1.469585	0.053731	0.530098
C63	C	0.989267	-0.302383	0.126214
C64	C	1.489267	0.197617	0.626214
C65	C	0.989326	-0.697750	0.126199
C66	C	1.489326	-0.197750	0.626199
C67	C	1.142362	-0.000077	0.119477
C68	C	1.642362	0.499923	0.619477
C69	C	1.235315	-0.000078	0.121296
C70	C	1.735315	0.499922	0.621296
C71	C	0.995139	-0.000076	-0.042398
C72	C	1.495139	0.499924	0.457602
C73	C	0.993327	-0.000076	-0.144775
C74	C	1.493327	0.499924	0.355225
N75	N	0.989338	0.218638	0.126191
N76	N	1.489338	0.718638	0.626191
C77	C	0.991854	-0.000074	-0.227916
C78	C	1.491854	0.499926	0.272084
C79	C	0.990014	-0.000067	-0.332222
C80	C	1.490014	0.499933	0.167778
C81	C	0.988554	-0.000061	-0.415358
C82	C	1.488554	0.499939	0.084642
C83	C	0.986714	-0.000055	-0.519670
C84	C	1.486714	0.499945	-0.019670
C85	C	0.983441	-0.000056	0.294816
C86	C	1.483441	0.499944	0.794816
C87	C	0.985254	-0.000049	0.397193
C88	C	1.485254	0.499951	0.897193
H89	H	0.434184	-0.063353	-0.016551
H90	H	0.934184	0.436647	0.483449
N91	N	1.034618	-0.585183	-0.041030
N92	N	1.534618	-0.085183	0.458970
N93	N	1.092368	-0.636678	-0.020228
N94	N	1.592368	-0.136678	0.479772
H95	H	1.136885	-0.659133	-0.069999
H96	H	1.636885	-0.159133	0.430001
H97	H	0.577286	0.062951	-0.013791
H98	H	1.077286	0.562951	0.486209
H99	H	1.129176	-0.420637	0.093695
H100	H	1.629176	0.079363	0.593695
N101	N	0.893339	-0.587291	0.004118
N102	N	1.393339	-0.087291	0.504118
N103	N	0.835955	-0.531980	-0.009420
N104	N	1.335955	-0.031980	0.490580
H105	H	0.780687	-0.555914	-0.027305
H106	H	1.280687	-0.055914	0.472695
H107	H	0.547496	-0.093446	0.251667
H108	H	1.047496	0.406554	0.751667
N109	N	0.549951	0.091831	0.271804
N110	N	1.049951	0.591831	0.771804
N111	N	0.522317	0.157287	0.322521
N112	N	1.022317	0.657287	0.822521
H113	H	0.534938	0.160204	0.389081
H114	H	1.034938	0.660204	0.889081
N115	N	0.567619	0.169626	0.134205
N116	N	1.067619	0.669626	0.634205
N117	N	0.521488	0.226260	0.098974
N118	N	1.021488	0.726260	0.598974
H119	H	0.546588	0.284115	0.068346
H120	H	1.046588	0.784115	0.568346
H121	H	0.403424	-0.087586	0.251467
H122	H	0.903424	0.412414	0.751467
H123	H	1.092637	-0.419273	0.216981
H124	H	1.592637	0.080727	0.716981
N125	N	1.095846	-0.584589	0.236270
N126	N	1.595846	-0.084589	0.736270
N127	N	1.159127	-0.634068	0.241852
N128	N	1.659127	-0.134068	0.741852
H129	H	1.172937	-0.656211	0.304362
H130	H	1.672937	-0.156211	0.804362
N131	N	0.395141	0.092769	0.267902
N132	N	0.895141	0.592769	0.767902
N133	N	0.438413	0.096205	0.334381
N134	N	0.938413	0.596205	0.834381
H135	H	0.409954	0.099740	0.399973
H136	H	0.909954	0.599740	0.899973
H137	H	1.129167	-0.579148	0.094937
H138	H	1.629167	-0.079148	0.594937
N139	N	0.838658	-0.586034	0.186250
N140	N	1.338658	-0.086034	0.686250
N141	N	0.830215	-0.638343	0.119408
N142	N	1.330215	-0.138343	0.619408
H143	H	0.772475	-0.661194	0.108488
H144	H	1.272475	-0.161194	0.608488
H145	H	0.905294	-0.420882	0.014148
H146	H	1.405294	0.079118	0.514148
H147	H	1.016496	-0.419502	-0.028723
H148	H	1.516496	0.080498	0.471277
H149	H	0.931902	-0.420960	0.273778
H150	H	1.431902	0.079040	0.773778
H151	H	0.559260	-0.153074	0.140793
H152	H	1.059260	0.346926	0.640793
N153	N	0.585049	-0.078984	-0.023466
N154	N	1.085049	0.421016	0.476534
N155	N	0.563209	-0.158464	0.002973
N156	N	1.063209	0.341536	0.502973
H157	H	0.588328	-0.214202	-0.031667
H158	H	1.088328	0.285798	0.468333
N159	N	0.428127	0.078088	-0.026582
N160	N	0.928127	0.578088	0.473418
N161	N	0.375889	0.134293	0.011487
N162	N	0.875889	0.634293	0.511487
H163	H	0.358473	0.189738	-0.024059
H164	H	0.858473	0.689738	0.475941
H165	H	0.417092	0.153367	0.138755
H166	H	0.917092	0.653367	0.638755
H167	H	0.414468	-0.153516	0.144158
H168	H	0.914468	0.346484	0.644158
N169	N	0.838963	-0.413664	0.186725
N170	N	1.338963	0.086336	0.686725
N171	N	0.781495	-0.469795	0.175785
N172	N	1.281495	0.030205	0.675785
H173	H	0.723813	-0.446541	0.165181
H174	H	1.223813	0.053459	0.665181
H175	H	0.931587	-0.580592	0.273099
H176	H	1.431587	-0.080592	0.773099
