data_functionalizedCrystal
_audit_creation_method	'MofGen! by Chris Wilmer'
_symmetry_space_group_name_H-M	'P1'
_symmetry_Int_Tables_number	1
_symmetry_cell_setting	triclinic
loop_
_symmetry_equiv_pos_as_xyz
  x,y,z
_cell_length_a	27.440280
_cell_length_b	27.440280
_cell_length_c	21.606444
_cell_angle_alpha	59.992778
_cell_angle_beta	89.996802
_cell_angle_gamma	60.002656
loop_
_atom_site_label
_atom_site_type_symbol
_atom_site_fract_x
_atom_site_fract_y
_atom_site_fract_z
Zr1	Zr	0.469571	0.533369	-0.081304
O2	O	0.391764	0.635045	-0.180138
O3	O	0.493413	0.431700	-0.050998
O4	O	0.493423	0.533370	-0.180132
O5	O	0.391758	0.533372	0.050850
O6	O	0.573625	0.533362	-0.180136
O7	O	0.391754	0.533375	-0.051005
O8	O	0.573608	0.351493	0.050861
O9	O	0.391776	0.715241	-0.180147
O10	O	0.563448	0.473509	-0.038085
O11	O	0.503597	0.473512	0.037930
O12	O	0.503608	0.593216	-0.114108
O13	O	0.443758	0.593219	-0.038093
Zr14	Zr	0.597491	0.533351	0.081136
Zr15	Zr	0.597484	0.533356	-0.081310
Zr16	Zr	0.469578	0.533363	0.081142
Zr17	Zr	0.469590	0.661272	-0.081318
Zr18	Zr	0.597472	0.405448	0.081150
O19	O	0.573649	0.635020	0.050830
O20	O	0.573640	0.635028	-0.180147
O21	O	0.391773	0.635038	0.050838
O22	O	0.675298	0.431674	0.179970
O23	O	0.675289	0.431682	-0.051006
O24	O	0.493422	0.431692	0.179979
O25	O	0.675304	0.533348	-0.051018
O26	O	0.573639	0.533350	0.179964
O27	O	0.493437	0.533358	0.179967
O28	O	0.675308	0.533344	0.050836
O29	O	0.493449	0.715231	-0.180152
O30	O	0.573613	0.351488	0.179984
O31	O	0.675286	0.351478	0.179979
O32	O	0.675281	0.351483	0.050857
O33	O	0.391781	0.715237	-0.051025
O34	O	0.493455	0.715227	-0.051030
O35	O	0.563454	0.473504	0.113940
O36	O	0.623305	0.473501	0.037925
O37	O	0.563465	0.593207	-0.038098
O38	O	0.503614	0.593211	0.037917
C39	C	0.533508	0.373373	-0.000066
C40	C	0.533500	0.319074	-0.000060
C41	C	0.373532	0.533375	-0.000077
C42	C	0.319229	0.533381	-0.000074
C43	C	0.577717	0.040185	0.056034
C44	C	0.577711	0.091207	0.056037
O45	O	0.615292	0.080025	0.103746
N46	N	0.533525	0.160904	-0.000075
C47	C	0.489345	0.179580	-0.056199
O48	O	0.451762	0.243547	-0.103927
C49	C	0.489354	0.128558	-0.056204
C50	C	0.533539	0.058861	-0.000084
C51	C	0.621899	-0.029509	0.112150
C52	C	0.621903	-0.080527	0.112148
C53	C	0.577726	-0.061852	0.056030
C54	C	0.533544	0.007842	-0.000086
C55	C	0.445177	0.147234	-0.112331
C56	C	0.445189	0.096205	-0.112331
C57	C	0.489375	0.026508	-0.056211
C58	C	0.489371	-0.024500	-0.056206
N59	N	0.533557	-0.094197	-0.000094
C60	C	0.577734	-0.112873	0.056024
C61	C	0.489332	0.286725	-0.056184
C62	C	0.489320	0.337746	-0.056176
C63	C	0.577687	0.249370	0.056059
C64	C	0.577695	0.198348	0.056054
C65	C	0.533518	0.217028	-0.000072
C66	C	0.577741	-0.220012	0.056016
C67	C	0.577740	-0.271031	0.056010
C68	C	0.489375	-0.182650	-0.056228
C69	C	0.489374	-0.131635	-0.056220
C70	C	0.533562	-0.150321	-0.000095
O71	O	0.451810	-0.013370	-0.103893
O72	O	0.615316	-0.176841	0.103739
C73	C	-0.017471	0.533346	-0.056198
C74	C	-0.068489	0.533341	-0.056198
O75	O	-0.094865	0.533317	-0.103903
N76	N	-0.094004	0.533341	-0.000087
C77	C	-0.068496	0.533338	0.056033
O78	O	-0.094883	0.533336	0.103761
C79	C	-0.017476	0.533338	0.056036
C80	C	0.008033	0.533346	-0.000083
C81	C	0.008039	0.533353	-0.112312
C82	C	0.059053	0.533359	-0.112312
C83	C	0.084557	0.533359	-0.056198
C84	C	0.059047	0.533352	-0.000083
C85	C	0.008034	0.533330	0.112159
C86	C	0.059057	0.533330	0.112157
C87	C	0.084566	0.533337	0.056038
C88	C	0.135564	0.533357	0.056031
N89	N	0.161080	0.533358	-0.000081
C90	C	0.135576	0.533359	-0.056195
C91	C	-0.175639	0.533337	0.056024
C92	C	-0.226660	0.533342	0.056018
C93	C	-0.226649	0.533344	-0.056212
C94	C	-0.175630	0.533344	-0.056209
C95	C	-0.150124	0.533338	-0.000088
C96	C	0.242708	0.533372	-0.056191
C97	C	0.293725	0.533381	-0.056188
C98	C	0.293711	0.533376	0.056044
C99	C	0.242697	0.533370	0.056039
C100	C	0.217198	0.533366	-0.000082
O101	O	0.161975	0.533379	0.103714
O102	O	0.161974	0.533351	-0.103909
C103	C	0.693531	0.533344	-0.000091
C104	C	0.747833	0.533339	-0.000094
C105	C	0.533523	0.533367	-0.203279
C106	C	0.533520	0.533369	-0.272241
C107	C	0.533554	0.693347	-0.000102
C108	C	0.533562	0.747645	-0.000108
C109	C	0.502284	0.595854	-0.344323
C110	C	0.502290	0.595852	-0.409118
C111	C	0.533527	0.533364	-0.401829
C112	C	0.564767	0.470874	-0.329740
C113	C	0.564765	0.470877	-0.264946
C114	C	0.564777	0.470862	-0.591043
C115	C	0.564775	0.470865	-0.655843
C116	C	0.502301	0.595838	-0.735214
C117	C	0.502299	0.595840	-0.670421
C118	C	0.533541	0.533351	-0.598337
C119	C	0.533536	0.533354	-0.528080
C120	C	0.533529	0.533361	-0.472085
C121	C	0.533539	0.533353	0.203111
C122	C	0.533542	0.533351	0.272073
C123	C	0.693507	0.373357	-0.000074
C124	C	0.747802	0.319054	-0.000070
C125	C	0.533516	0.373366	0.203128
C126	C	0.533511	0.319065	0.272097
C127	C	0.693515	0.373350	0.203121
C128	C	0.747813	0.319044	0.272087
C129	C	0.373547	0.693369	-0.203289
C130	C	0.319250	0.747675	-0.272255
C131	C	0.373555	0.693362	-0.000095
C132	C	0.319260	0.747666	-0.000098
C133	C	0.533546	0.693354	-0.203297
C134	C	0.533551	0.747654	-0.272265
C135	C	0.742054	0.293557	-0.039752
C136	C	0.793065	0.242540	-0.039763
C137	C	0.849822	0.217017	-0.000089
C138	C	0.855568	0.242520	0.039594
C139	C	0.804559	0.293539	0.039601
C140	C	0.564753	0.293561	0.344168
C141	C	0.564746	0.242547	0.408978
C142	C	0.533500	0.217035	0.401714
C143	C	0.502253	0.242544	0.329635
C144	C	0.502257	0.293561	0.264827
C145	C	0.804558	0.293540	0.264795
C146	C	0.855581	0.242521	0.329589
C147	C	0.849857	0.217004	0.401675
C148	C	0.793106	0.242513	0.408966
C149	C	0.742084	0.293535	0.344172
C150	C	0.262504	0.773186	-0.264963
C151	C	0.211481	0.824220	-0.329758
C152	C	0.217205	0.849740	-0.401844
C153	C	0.273956	0.824228	-0.409134
C154	C	0.324978	0.773197	-0.344340
C155	C	0.325008	0.773168	0.039577
C156	C	0.273997	0.824199	0.039571
C157	C	0.217240	0.849723	-0.000106
C158	C	0.211494	0.824219	-0.039786
C159	C	0.262504	0.773192	-0.039784
C160	C	0.564804	0.773150	-0.264977
C161	C	0.564820	0.824164	-0.329774
C162	C	0.533581	0.849685	-0.401858
C163	C	0.502327	0.824184	-0.409145
C164	C	0.502315	0.773168	-0.344348
H165	H	0.613721	-0.327783	0.101714
H166	H	0.901787	0.221732	0.071895
H167	H	0.901786	0.221757	0.323640
H168	H	0.371181	0.752427	-0.350287
H169	H	0.476864	0.646720	-0.793914
H170	H	0.175709	0.891272	-0.000102
H171	H	0.590214	0.419976	-0.649900
H172	H	0.278610	0.845013	-0.467834
H173	H	0.175655	0.891292	-0.454597
H174	H	0.278688	0.844956	0.071885
H175	H	0.476859	0.646724	-0.676363
H176	H	0.788454	0.221730	0.467667
H177	H	0.590243	0.752379	-0.206288
H178	H	0.371218	0.752391	0.071891
H179	H	0.476843	0.646739	-0.350267
H180	H	0.590216	0.419979	-0.532357
H181	H	0.257816	0.752430	-0.072090
H182	H	0.657885	-0.137275	0.157845
H183	H	0.476855	0.646734	-0.467808
H184	H	0.409215	0.111423	-0.158039
H185	H	0.165275	0.845008	-0.072090
H186	H	0.695881	0.314294	0.350120
H187	H	0.590269	0.844922	-0.323826
H188	H	0.533596	0.891227	-0.454613
H189	H	0.257832	0.752410	-0.206273
H190	H	0.165277	0.844984	-0.323807
H191	H	0.476893	0.844972	-0.467844
H192	H	0.476863	0.752415	-0.350293
H193	H	0.613659	0.234171	0.101754
H194	H	0.657877	-0.044727	0.157849
H195	H	0.613722	-0.235236	0.101718
H196	H	0.079821	0.533363	-0.158007
H197	H	0.891353	0.175474	-0.000100
H198	H	0.453333	0.394494	-0.101867
H199	H	0.453352	0.301944	-0.101888
H200	H	0.613675	0.141600	0.101752
H201	H	0.809247	0.314292	0.071919
H202	H	0.409200	0.203978	-0.158035
H203	H	0.453380	-0.074883	-0.101900
H204	H	0.533501	0.175494	0.454491
H205	H	0.453405	-0.167455	-0.101915
H206	H	-0.012720	0.533351	-0.158007
H207	H	0.590205	0.419996	-0.323810
H208	H	-0.247423	0.533343	-0.101903
H209	H	0.314493	0.533389	-0.101890
H210	H	-0.154863	0.533350	-0.101906
H211	H	0.221953	0.533368	-0.101890
H212	H	0.476818	0.314320	0.206146
H213	H	-0.154878	0.533337	0.101724
H214	H	-0.247432	0.533346	0.101709
H215	H	0.590198	0.314327	0.350097
H216	H	-0.012729	0.533324	0.157856
H217	H	0.079822	0.533322	0.157860
H218	H	0.590200	0.419995	-0.206254
H219	H	0.314483	0.533378	0.101730
H220	H	0.221922	0.533374	0.101730
H221	H	0.788374	0.221782	-0.072078
H222	H	0.590192	0.221783	0.467661
H223	H	0.476814	0.221765	0.323732
H224	H	0.695844	0.314336	-0.072069
H225	H	0.891407	0.175459	0.454429
H226	H	0.809230	0.314309	0.206105
