data_functionalizedCrystal
_audit_creation_method	'MofGen! by Chris Wilmer'
_symmetry_space_group_name_H-M	'P1'
_symmetry_Int_Tables_number	1
_symmetry_cell_setting	triclinic
loop_
_symmetry_equiv_pos_as_xyz
  x,y,z
_cell_length_a	14.044220
_cell_length_b	27.731996
_cell_length_c	13.101039
_cell_angle_alpha	93.327690
_cell_angle_beta	86.340132
_cell_angle_gamma	87.905133
loop_
_atom_site_label
_atom_site_type_symbol
_atom_site_fract_x
_atom_site_fract_y
_atom_site_fract_z
O1	O	1.261204	0.114021	-0.085131
O2	O	1.761204	0.614021	0.414869
O3	O	0.985299	0.109818	-0.085156
O4	O	1.485299	0.609818	0.414844
O5	O	1.131845	0.041925	-0.085120
O6	O	1.631845	0.541925	0.414880
O7	O	1.114658	0.181914	-0.085166
O8	O	1.614658	0.681914	0.414834
O9	O	1.121330	0.046805	0.085307
O10	O	1.621330	0.546805	0.585307
O11	O	0.974785	0.114698	0.085272
O12	O	1.474785	0.614698	0.585272
O13	O	1.250689	0.118901	0.085297
O14	O	1.750689	0.618901	0.585297
Zn15	Zn	1.111068	0.117574	0.112343
Zn16	Zn	1.611068	0.617574	0.612343
Zn17	Zn	1.124921	0.111145	-0.112202
Zn18	Zn	1.624921	0.611145	0.387798
O19	O	1.104144	0.186794	0.085261
O20	O	1.604144	0.686794	0.585261
C21	C	0.944756	0.110418	0.000055
C22	C	1.444756	0.610418	0.500055
C23	C	0.839613	0.104931	0.000047
C24	C	1.339613	0.604931	0.500047
C25	C	1.126234	0.026341	0.000097
C26	C	1.626234	0.526341	0.500097
C27	C	1.125170	-0.027365	0.000107
C28	C	1.625170	0.472635	0.500107
C29	C	0.647100	0.094900	0.000070
C30	C	1.147100	0.594900	0.500070
C31	C	0.588883	0.133817	0.000062
C32	C	1.088883	0.633817	0.500062
C33	C	0.481763	0.128236	0.000075
C34	C	0.981763	0.628236	0.500075
C35	C	0.754231	0.100481	0.000057
C36	C	1.254231	0.600481	0.500057
C37	C	1.124213	-0.363057	-0.092843
C38	C	1.624213	0.136943	0.407157
C39	C	1.120176	-0.564905	-0.092862
C40	C	1.620176	-0.064905	0.407138
O41	O	1.124487	-0.593264	-0.171870
O42	O	1.624487	-0.093264	0.328130
N43	N	1.113942	-0.587485	0.000037
N44	N	1.613942	-0.087485	0.500037
C45	C	1.108712	-0.559600	0.092948
C46	C	1.608712	-0.059600	0.592948
O47	O	1.103308	-0.583438	0.171963
O48	O	1.603308	-0.083438	0.671963
C49	C	1.112743	-0.357753	0.092965
C50	C	1.612743	0.142247	0.592965
C51	C	1.118986	-0.335175	0.000060
C52	C	1.618986	0.164825	0.500060
C53	C	1.130455	-0.340479	-0.185741
C54	C	1.630455	0.159521	0.314259
C55	C	1.131469	-0.290020	-0.185735
C56	C	1.631469	0.209980	0.314265
C57	C	1.126242	-0.262139	-0.092832
C58	C	1.626242	0.237861	0.407168
C59	C	1.120001	-0.284716	0.000065
C60	C	1.620001	0.215284	0.500065
C61	C	1.107506	-0.329869	0.185874
C62	C	1.607506	0.170131	0.685874
C63	C	1.108512	-0.279404	0.185870
C64	C	1.608512	0.220596	0.685870
C65	C	1.114755	-0.256826	0.092965
C66	C	1.614755	0.243174	0.592965
C67	C	1.115788	-0.206376	0.092974
C68	C	1.615788	0.293624	0.592974
N69	N	1.122021	-0.183796	0.000075
N70	N	1.622021	0.316204	0.500075
C71	C	1.127248	-0.211677	-0.092828
C72	C	1.627248	0.288323	0.407172
C73	C	1.106598	-0.665574	0.092932
C74	C	1.606598	-0.165574	0.592932
C75	C	1.105592	-0.716035	0.092928
C76	C	1.605592	-0.216035	0.592928
C77	C	1.117054	-0.721336	-0.092882
C78	C	1.617054	-0.221336	0.407118
C79	C	1.118067	-0.670874	-0.092877
C80	C	1.618067	-0.170874	0.407123
C81	C	1.112831	-0.642993	0.000033
C82	C	1.612831	-0.142993	0.500033
C83	C	1.129379	-0.105709	-0.092810
C84	C	1.629379	0.394291	0.407190
C85	C	1.130397	-0.055246	-0.092796
C86	C	1.630397	0.444754	0.407204
C87	C	1.118931	-0.049949	0.093013
C88	C	1.618931	0.450051	0.593013
C89	C	1.117918	-0.100408	0.093000
C90	C	1.617918	0.399592	0.593000
C91	C	1.123139	-0.128287	0.000080
C92	C	1.623139	0.371713	0.500080
O93	O	1.111469	-0.177987	0.171941
O94	O	1.611469	0.322013	0.671941
O95	O	1.132631	-0.187830	-0.171832
O96	O	1.632631	0.312170	0.328168
C97	C	1.123199	-0.413515	-0.092849
C98	C	1.623199	0.086485	0.407151
C99	C	1.116957	-0.436093	0.000049
C100	C	1.616957	0.063907	0.500049
C101	C	1.111730	-0.408212	0.092952
C102	C	1.611730	0.091788	0.592952
C103	C	1.115951	-0.486555	0.000045
C104	C	1.615951	0.013445	0.500045
C105	C	1.121178	-0.514436	-0.092858
C106	C	1.621178	-0.014436	0.407142
C107	C	1.127411	-0.491856	-0.185757
C108	C	1.627411	0.008144	0.314243
C109	C	1.128426	-0.441397	-0.185752
C110	C	1.628426	0.058603	0.314248
C111	C	1.105497	-0.430793	0.185851
C112	C	1.605497	0.069207	0.685851
C113	C	1.104484	-0.481252	0.185838
C114	C	1.604484	0.018748	0.685838
C115	C	1.109711	-0.509133	0.092935
C116	C	1.609711	-0.009133	0.592935
C117	C	1.291233	0.118301	0.000084
C118	C	1.791233	0.618301	0.500084
C119	C	1.396377	0.123788	0.000085
C120	C	1.896377	0.623788	0.500085
C121	C	1.109755	0.202378	0.000042
C122	C	1.609755	0.702378	0.500042
C123	C	1.110819	0.256084	0.000025
C124	C	1.610819	0.756084	0.500025
N125	N	1.101620	0.121963	0.265589
N126	N	1.601620	0.621963	0.765589
N127	N	1.134376	0.106753	-0.265448
N128	N	1.634376	0.606753	0.234552
C129	C	1.088766	0.127937	0.474629
C130	C	1.588766	0.627937	0.974629
C131	C	1.147227	0.100780	0.525519
C132	C	1.647227	0.600780	1.025519
C133	C	1.140075	0.104104	0.641835
C134	C	1.640075	0.604104	1.141835
C135	C	1.095917	0.124613	0.358302
C136	C	1.595917	0.624613	0.858302
H137	H	0.619492	0.171327	0.000045
H138	H	1.119492	0.671327	0.500045
H139	H	0.616493	0.057393	0.000088
H140	H	1.116493	0.557393	0.500088
F141	F	1.135070	-0.417374	-0.284635
F142	F	1.635070	0.082626	0.215365
F143	F	1.137045	-0.031220	-0.191682
F144	F	1.637045	0.468780	0.308318
H145	H	1.133627	-0.128403	-0.168474
H146	H	1.633627	0.371597	0.331526
H147	H	1.101242	-0.408097	0.261505
H148	H	1.601242	0.091903	0.761505
F149	F	1.138108	-0.265997	-0.284619
F150	F	1.638108	0.234003	0.215381
H151	H	1.202650	0.075034	0.481730
H152	H	1.702650	0.575034	0.981730
H153	H	1.100523	-0.734414	0.168580
H154	H	1.600523	-0.234414	0.668580
F155	F	1.016331	0.161589	0.531858
F156	F	1.516331	0.661589	1.031858
F157	F	1.124709	-0.646849	-0.191758
F158	F	1.624709	-0.146849	0.308242
F159	F	1.136018	-0.370145	-0.284630
F160	F	1.636018	0.129855	0.215370
F161	F	1.122614	-0.751018	-0.191757
F162	F	1.622614	-0.251018	0.308243
F163	F	1.113370	-0.020267	0.191882
F164	F	1.613370	0.479733	0.691882
F165	F	1.100857	-0.353886	0.284758
F166	F	1.600857	0.146114	0.784758
F167	F	1.101021	-0.635907	0.191826
F168	F	1.601021	-0.135907	0.691826
F169	F	1.111290	-0.124438	0.191879
F170	F	1.611290	0.375562	0.691879
F171	F	1.102939	-0.249734	0.284760
F172	F	1.602939	0.250266	0.784760
F173	F	1.097845	-0.505275	0.284727
F174	F	1.597845	-0.005275	0.784727
F175	F	1.132979	-0.521538	-0.284632
F176	F	1.632979	-0.021538	0.215368
