data_functionalizedCrystal
_audit_creation_method	'MofGen! by Chris Wilmer'
_symmetry_space_group_name_H-M	'P1'
_symmetry_Int_Tables_number	1
_symmetry_cell_setting	triclinic
loop_
_symmetry_equiv_pos_as_xyz
  x,y,z
_cell_length_a	12.759401
_cell_length_b	18.050589
_cell_length_c	12.759393
_cell_angle_alpha	89.969379
_cell_angle_beta	89.981504
_cell_angle_gamma	90.028382
loop_
_atom_site_label
_atom_site_type_symbol
_atom_site_fract_x
_atom_site_fract_y
_atom_site_fract_z
Zn1	Zn	1.606157	-0.295612	-0.593988
Zn2	Zn	1.606010	-0.419823	-0.418311
Zn3	Zn	1.430459	-0.295651	-0.418328
Zn4	Zn	1.430406	-0.419766	-0.593953
O5	O	1.518258	-0.357713	-0.506145
O6	O	1.753158	-0.312097	-0.570692
O7	O	1.582683	-0.403391	-0.271292
O8	O	1.453849	-0.191722	-0.441651
O9	O	1.753050	-0.403354	-0.441623
O10	O	1.582934	-0.191693	-0.570708
O11	O	1.453706	-0.312163	-0.271304
O12	O	1.283431	-0.312108	-0.441617
O13	O	1.453759	-0.403256	-0.740979
O14	O	1.283392	-0.403294	-0.570648
O15	O	1.582882	-0.312041	-0.741005
O16	O	1.582632	-0.523740	-0.441589
O17	O	1.453616	-0.523698	-0.570632
C18	C	1.245290	-0.357699	-0.506131
C19	C	1.128514	-0.357711	-0.506149
C20	C	1.073659	-0.405268	-0.573225
C21	C	0.963935	-0.405277	-0.573236
C22	C	0.963930	-0.310171	-0.439088
C23	C	1.073652	-0.310159	-0.439083
C24	C	1.128521	-0.452820	-0.640292
C25	C	1.073666	-0.500382	-0.707372
C26	C	0.963942	-0.500391	-0.707383
C27	C	0.909072	-0.452839	-0.640314
C28	C	1.518131	-0.550665	-0.506127
C29	C	1.518173	-0.633211	-0.506155
C30	C	1.448083	-0.832666	-0.576304
C31	C	1.422469	-0.882114	-0.480436
C32	C	1.518276	-0.784341	-0.506169
C33	C	1.543942	-0.881974	-0.602048
C34	C	1.518374	-0.930326	-0.506191
C35	C	1.492611	-0.832703	-0.410250
C36	C	1.614129	-0.832558	-0.531927
C37	C	1.588551	-0.881985	-0.435992
C38	C	1.518217	-0.700243	-0.506158
C39	C	1.518433	-1.014423	-0.506191
C40	C	1.792291	-0.357727	-0.506160
C41	C	1.909068	-0.357733	-0.506166
C42	C	1.518331	-0.357638	-0.780178
C43	C	1.518363	-0.357606	-0.896955
C44	C	1.518414	-0.164007	-0.506185
C45	C	1.518480	-0.081462	-0.506203
C46	C	1.585606	-0.310106	-0.951832
C47	C	1.585631	-0.310079	-1.061557
C48	C	1.451166	-0.405059	-1.061516
C49	C	1.451136	-0.405081	-0.951794
C50	C	1.652833	-0.262631	-0.896993
C51	C	1.720083	-0.215128	-0.951871
C52	C	1.720108	-0.215101	-1.061595
C53	C	1.652883	-0.262577	-1.116442
C54	C	1.518245	-0.357734	-0.233178
C55	C	1.518417	-0.357557	-0.116401
H56	H	0.919247	-0.271458	-0.384483
C57	C	1.133996	-0.257845	-0.365306
H58	H	1.085610	-0.229532	-0.325356
H59	H	1.176826	-0.225519	-0.405581
H60	H	1.176771	-0.286211	-0.319453
H61	H	1.341455	-0.903898	-0.458669
C62	C	1.377173	-0.457329	-0.891420
H63	H	1.386777	-0.450536	-0.818220
H64	H	1.392506	-0.507226	-0.909381
H65	H	1.306593	-0.446445	-0.909401
C66	C	0.788378	-0.452844	-0.640329
H67	H	0.763560	-0.417712	-0.590783
H68	H	0.763520	-0.500755	-0.622050
H69	H	0.763596	-0.440054	-0.708166
H70	H	1.470848	-0.811149	-0.329152
C71	C	1.249213	-0.452808	-0.640287
H72	H	1.274032	-0.487935	-0.689841
H73	H	1.274003	-0.465586	-0.572455
H74	H	1.274061	-0.404894	-0.658583
H75	H	1.118347	-0.539092	-0.761983
C76	C	1.668797	-0.911064	-0.355798
H77	H	1.720163	-0.939984	-0.390858
H78	H	1.633952	-0.940745	-0.305100
H79	H	1.701795	-0.870398	-0.321974
H80	H	1.695124	-0.810777	-0.553739
H81	H	1.565611	-0.903618	-0.683124
H82	H	1.652896	-0.262543	-1.205786
H83	H	1.388636	-0.811010	-0.635531
C84	C	1.652804	-0.262656	-0.776301
H85	H	1.702465	-0.227575	-0.751498
H86	H	1.670919	-0.310588	-0.751465
H87	H	1.585008	-0.249805	-0.751481
C88	C	1.794022	-0.162907	-0.891545
H89	H	1.784385	-0.169729	-0.818338
H90	H	1.778695	-0.113003	-0.909538
H91	H	1.864611	-0.173782	-0.909531
C92	C	1.794076	-0.162850	-1.121958
H93	H	1.834112	-0.134585	-1.073579
H94	H	1.753931	-0.130477	-1.164769
H95	H	1.839842	-0.191260	-1.164752
C96	C	1.377237	-0.457285	-1.121845
H97	H	1.386894	-0.450474	-1.195051
H98	H	1.306648	-0.446421	-1.103868
H99	H	1.392579	-0.507190	-1.103845
H100	H	0.919282	-0.539112	-0.762010
