data_functionalizedCrystal
_audit_creation_method	'MofGen! by Chris Wilmer'
_symmetry_space_group_name_H-M	'P1'
_symmetry_Int_Tables_number	1
_symmetry_cell_setting	triclinic
loop_
_symmetry_equiv_pos_as_xyz
  x,y,z
_cell_length_a	9.565339
_cell_length_b	14.971487
_cell_length_c	14.971486
_cell_angle_alpha	96.385734
_cell_angle_beta	89.999227
_cell_angle_gamma	90.002373
loop_
_atom_site_label
_atom_site_type_symbol
_atom_site_fract_x
_atom_site_fract_y
_atom_site_fract_z
O1	O	0.116060	-1.186944	0.116558
O2	O	0.116107	-0.926544	0.130516
O3	O	0.116073	-1.063724	-0.006663
O4	O	0.116095	-1.049765	0.253737
O5	O	-0.116447	-1.063712	-0.006652
O6	O	-0.116413	-0.926532	0.130527
O7	O	-0.116460	-1.186933	0.116569
Zn8	Zn	-0.153354	-1.056731	0.123549
Zn9	Zn	0.153001	-1.056746	0.123536
O10	O	-0.116425	-1.049753	0.253748
C11	C	-0.000147	-0.893214	0.129897
C12	C	-0.000129	-0.793917	0.128026
N13	N	-0.362433	-1.056727	0.123558
C14	C	-0.546790	-0.993805	0.187486
C15	C	-0.453567	-0.975628	0.106893
C16	C	-0.453587	-1.074864	0.204145
C17	C	-0.546748	-1.038539	0.042886
C18	C	-0.546776	-1.137811	0.140191
C19	C	-0.453595	-1.119668	0.059539
C20	C	-0.000187	-1.063094	-0.039982
C21	C	-0.000185	-1.061223	-0.139279
N22	N	0.362081	-1.056757	0.123519
C23	C	-0.000123	-0.736691	0.208615
C24	C	-0.000140	-0.643392	0.206852
C25	C	-0.000155	-0.607320	0.124499
C26	C	-0.000166	-0.664552	0.043903
C27	C	-0.000158	-0.757850	0.045668
C28	C	-0.000179	-0.470090	0.040232
C29	C	-0.000184	-0.376786	0.038467
C30	C	-0.000161	-0.355632	0.201416
C31	C	-0.000154	-0.448929	0.203181
C32	C	-0.000162	-0.506156	0.122585
C33	C	-0.000194	-0.220263	0.117187
C34	C	-0.000178	-0.319560	0.119056
C35	C	-0.000201	-1.141812	-0.196504
C36	C	-0.000186	-1.140049	-0.289804
C37	C	-0.000167	-1.057696	-0.325876
C38	C	-0.000147	-0.977100	-0.268644
C39	C	-0.000151	-0.978864	-0.175346
C40	C	-0.000141	-0.973429	-0.463106
C41	C	-0.000139	-0.971665	-0.556411
C42	C	-0.000176	-1.134614	-0.577564
C43	C	-0.000181	-1.136378	-0.484266
C44	C	-0.000164	-1.055782	-0.427040
C45	C	-0.000162	-1.050383	0.287067
C46	C	-0.000155	-1.052254	0.386364
H47	H	-0.587710	-0.940546	0.241502
H48	H	-0.412615	-0.907071	0.092806
C49	C	-0.399188	-1.095171	0.295120
C50	C	-0.446429	-1.029075	0.361802
C51	C	-0.396353	-1.047746	0.445621
H52	H	-0.299889	-1.095529	0.294422
H53	H	-0.432498	-1.152314	0.307451
H54	H	-0.413111	-0.971948	0.349475
H55	H	-0.545721	-1.028707	0.362530
H56	H	-0.429663	-1.104889	0.457952
H57	H	-0.297055	-1.048104	0.444913
H58	H	-0.428409	-1.002908	0.490876
C59	C	-0.000060	-0.581410	0.294447
C60	C	-0.000000	-0.632970	0.366945
C61	C	0.000089	-0.575904	0.447655
H62	H	-0.081128	-0.544562	0.297281
H63	H	0.081052	-0.544581	0.297189
H64	H	-0.081104	-0.669783	0.364204
H65	H	0.081062	-0.669816	0.364141
H66	H	0.081201	-0.539074	0.450397
H67	H	-0.080981	-0.539058	0.450480
H68	H	0.000142	-0.610878	0.496854
H69	H	-0.000146	-0.904606	-0.585777
C70	C	-0.000247	-0.625564	-0.045602
C71	C	-0.000287	-0.695653	-0.115801
C72	C	-0.000374	-0.659774	-0.198267
H73	H	0.080815	-0.589620	-0.049807
H74	H	-0.081365	-0.589636	-0.049723
H75	H	0.080822	-0.731566	-0.111681
H76	H	-0.081344	-0.731603	-0.111625
H77	H	-0.081492	-0.623846	-0.202389
H78	H	0.080690	-0.623831	-0.202463
H79	H	-0.000414	-0.707323	-0.245907
H80	H	-0.000226	-1.208873	-0.167142
C81	C	-0.000378	-0.293608	0.288989
C82	C	-0.119972	-0.309944	0.338594
C83	C	-0.120201	-0.252828	0.419271
H84	H	-0.000463	-0.232847	0.276271
H85	H	0.080675	-0.304557	0.322796
H86	H	-0.201004	-0.298988	0.304794
H87	H	-0.119912	-0.370693	0.351336
H88	H	-0.039148	-0.263778	0.453078
H89	H	-0.120282	-0.192072	0.406545
H90	H	-0.201337	-0.263910	0.452942
C91	C	-0.000285	-1.227644	-0.351785
C92	C	-0.000353	-1.300142	-0.300226
C93	C	-0.000464	-1.380852	-0.357292
H94	H	0.080778	-1.230482	-0.388641
H95	H	-0.081402	-1.230382	-0.388608
H96	H	0.080755	-1.297405	-0.263419
H97	H	-0.081411	-1.297334	-0.263372
H98	H	-0.081580	-1.383590	-0.394114
H99	H	0.080601	-1.383681	-0.394144
H100	H	-0.000522	-1.430051	-0.322317
C101	C	-0.000191	-0.885829	-0.401122
C102	C	-0.000213	-0.813328	-0.452679
C103	C	-0.000283	-0.732620	-0.395611
H104	H	0.080871	-0.883006	-0.364267
H105	H	-0.081309	-0.883077	-0.364300
H106	H	0.080898	-0.816079	-0.489486
H107	H	-0.081269	-0.816121	-0.489533
H108	H	-0.081401	-0.729869	-0.358789
H109	H	0.080781	-0.729807	-0.358758
H110	H	-0.000310	-0.683420	-0.430584
H111	H	-0.587499	-1.023131	-0.025296
C112	C	-0.601150	-1.229243	0.159070
C113	C	-0.488104	-1.285916	0.171660
C114	C	-0.538142	-1.370145	0.189076
H115	H	-0.655735	-1.254648	0.109641
H116	H	-0.657177	-1.222532	0.211788
H117	H	-0.432101	-1.292630	0.118947
H118	H	-0.433508	-1.260540	0.221091
H119	H	-0.594169	-1.363433	0.241795
H120	H	-0.592727	-1.395541	0.139645
H121	H	-0.461449	-1.408605	0.197629
H122	H	-0.412934	-1.172894	0.005403
H123	H	-0.000128	-0.478296	0.270240
H124	H	-0.000163	-0.804443	-0.019956
C125	C	-0.000275	-0.337792	-0.051035
C126	C	-0.000327	-0.407875	-0.121240
C127	C	-0.000426	-0.371988	-0.203702
H128	H	0.080788	-0.301848	-0.055242
H129	H	-0.081393	-0.301862	-0.055148
H130	H	0.080783	-0.443789	-0.117129
H131	H	-0.081383	-0.443825	-0.117062
H132	H	-0.081544	-0.336059	-0.207815
H133	H	0.080638	-0.336045	-0.207900
H134	H	-0.000474	-0.419533	-0.251346
H135	H	-0.000188	-0.516682	-0.025398
H136	H	-0.000110	-0.766053	0.275677
H137	H	-0.000207	-1.203437	-0.454900
H138	H	-0.000186	-1.200238	-0.624162
H139	H	-0.000122	-0.910047	-0.298021
H140	H	-0.000138	-0.913240	-0.128754
