data_functionalizedCrystal
_audit_creation_method	'MofGen! by Chris Wilmer'
_symmetry_space_group_name_H-M	'P1'
_symmetry_Int_Tables_number	1
_symmetry_cell_setting	triclinic
loop_
_symmetry_equiv_pos_as_xyz
  x,y,z
_cell_length_a	15.995300
_cell_length_b	15.995292
_cell_length_c	13.101039
_cell_angle_alpha	93.364742
_cell_angle_beta	86.641414
_cell_angle_gamma	83.470212
loop_
_atom_site_label
_atom_site_type_symbol
_atom_site_fract_x
_atom_site_fract_y
_atom_site_fract_z
O1	O	1.115598	0.103105	-0.085245
O2	O	1.448932	0.436438	0.248088
O3	O	1.782265	0.769772	0.581421
O4	O	0.871814	0.116477	-0.085238
O5	O	1.205147	0.449811	0.248095
O6	O	1.538481	0.783144	0.581429
O7	O	1.000396	-0.012101	-0.085243
O8	O	1.333729	0.321232	0.248090
O9	O	1.667062	0.654565	0.581423
O10	O	0.987017	0.231683	-0.085240
O11	O	1.320350	0.565017	0.248093
O12	O	1.653683	0.898350	0.581427
O13	O	0.991170	-0.002861	0.085187
O14	O	1.324503	0.330473	0.418520
O15	O	1.657837	0.663806	0.751853
O16	O	0.862588	0.125718	0.085192
O17	O	1.195922	0.459051	0.418525
O18	O	1.529255	0.792384	0.751859
O19	O	1.106373	0.112346	0.085185
O20	O	1.439706	0.445679	0.418518
O21	O	1.773039	0.779012	0.751852
Zn22	Zn	0.983016	0.120499	0.112248
Zn23	Zn	1.316349	0.453832	0.445581
Zn24	Zn	1.649682	0.787165	0.778915
Zn25	Zn	0.995171	0.108324	-0.112301
Zn26	Zn	1.328504	0.441657	0.221032
Zn27	Zn	1.661838	0.774991	0.554365
O28	O	0.977791	0.240924	0.085190
O29	O	1.311124	0.574257	0.418524
O30	O	1.644458	0.907591	0.751857
C31	C	0.995238	-0.038677	-0.000031
C32	C	1.328572	0.294657	0.333302
C33	C	1.661905	0.627990	0.666636
C34	C	0.993606	-0.131630	-0.000039
C35	C	1.326940	0.201704	0.333295
C36	C	1.660273	0.535037	0.666628
C37	C	0.836006	0.120552	-0.000022
C38	C	1.169339	0.453886	0.333311
C39	C	1.502672	0.787219	0.666644
C40	C	0.743053	0.118917	-0.000020
C41	C	1.076387	0.452251	0.333313
C42	C	1.409720	0.785584	0.666647
C43	C	0.987604	-0.469366	-0.000029
C44	C	1.320938	-0.136033	0.333304
C45	C	1.654271	0.197300	0.666638
C46	C	1.080391	-0.446050	0.000349
C47	C	1.413724	-0.112717	0.333682
C48	C	1.747057	0.220616	0.667016
C49	C	1.082175	-0.349396	-0.000039
C50	C	1.415509	-0.016063	0.333295
C51	C	1.748842	0.317271	0.666628
C52	C	0.990583	-0.301811	-0.000033
C53	C	1.323916	0.031522	0.333300
C54	C	1.657249	0.364855	0.666634
C55	C	0.949452	-0.336181	-0.097353
C56	C	1.282785	-0.002847	0.235981
C57	C	1.616118	0.330486	0.569314
C58	C	0.948339	-0.432975	-0.097430
C59	C	1.281672	-0.099642	0.235903
C60	C	1.615005	0.233692	0.569236
C61	C	0.935952	-0.422324	0.096381
C62	C	1.269286	-0.088990	0.429714
C63	C	1.602619	0.244343	0.763047
C64	C	0.939322	-0.325762	0.097663
C65	C	1.272655	0.007571	0.430996
C66	C	1.605989	0.340905	0.764330
C67	C	0.992261	-0.207116	-0.000039
C68	C	1.325594	0.126218	0.333294
C69	C	1.658928	0.459551	0.666628
C70	C	0.985924	-0.564062	-0.000030
C71	C	1.319257	-0.230729	0.333303
C72	C	1.652590	0.102605	0.666637
C73	C	0.572871	0.115897	-0.000028
C74	C	0.906205	0.449231	0.333306
C75	C	1.239538	0.782564	0.666639
C76	C	0.525386	0.207448	-0.000024
C77	C	0.858720	0.540781	0.333309
C78	C	1.192053	0.874115	0.666643
C79	C	0.428720	0.205757	-0.000414
C80	C	0.762053	0.539090	0.332920
C81	C	1.095387	0.872423	0.666253
C82	C	0.405316	0.112925	-0.000034
C83	C	0.738649	0.446258	0.333299
C84	C	1.071982	0.779592	0.666632
C85	C	0.451716	0.062237	-0.097167
C86	C	0.785049	0.395570	0.236166
C87	C	1.118383	0.728904	0.569500
C88	C	0.548353	0.064550	-0.097246
C89	C	0.881686	0.397883	0.236087
C90	C	1.215020	0.731216	0.569421
C91	C	0.538141	0.073703	0.096572
C92	C	0.871474	0.407036	0.429905
C93	C	1.204807	0.740369	0.763238
C94	C	0.441128	0.073780	0.097846
C95	C	0.774461	0.407114	0.431179
C96	C	1.107794	0.740447	0.764512
C97	C	0.310621	0.111240	-0.000042
C98	C	0.643954	0.444573	0.333292
C99	C	0.977288	0.777907	0.666625
C100	C	0.667567	0.117579	-0.000027
C101	C	1.000900	0.450912	0.333306
C102	C	1.334233	0.784246	0.666639
C103	C	1.142181	0.108270	-0.000033
C104	C	1.475514	0.441604	0.333300
C105	C	1.808848	0.774937	0.666633
C106	C	1.235134	0.109905	-0.000042
C107	C	1.568467	0.443238	0.333291
C108	C	1.901800	0.776572	0.666624
C109	C	0.982948	0.267499	-0.000025
C110	C	1.316282	0.600832	0.333309
C111	C	1.649615	0.934166	0.666642
C112	C	0.984581	0.360452	-0.000024
C113	C	1.317914	0.693785	0.333310
C114	C	1.651247	1.027118	0.666643
N115	N	0.974726	0.128807	0.265497
N116	N	1.308060	0.462141	0.598830
N117	N	1.641393	0.795474	0.932164
N118	N	1.003467	0.100009	-0.265550
N119	N	1.336800	0.433342	0.067783
N120	N	1.670134	0.766675	0.401117
C121	C	0.963448	0.140119	0.474540
C122	C	1.296782	0.473452	0.807873
C123	C	1.630115	0.806786	1.141207
C124	C	1.014742	0.088700	0.525413
C125	C	1.348076	0.422033	0.858747
C126	C	1.681409	0.755366	1.192080
C127	C	1.008467	0.094994	0.641732
C128	C	1.341800	0.428327	0.975066
C129	C	1.675134	0.761660	1.308399
C130	C	0.969722	0.133826	0.358211
C131	C	1.303056	0.467160	0.691544
C132	C	1.636389	0.800493	1.024877
H133	H	1.114737	-0.326595	0.069722
H134	H	1.448071	0.006738	0.403055
H135	H	1.781404	0.340071	0.736389
H136	H	0.914825	0.188865	0.518339
H137	H	1.248158	0.522198	0.851672
H138	H	1.581492	0.855531	1.185006
H139	H	1.122511	-0.334787	-0.069925
H140	H	1.455844	-0.001454	0.263408
H141	H	1.789178	0.331879	0.596741
H142	H	1.112385	-0.470270	0.070141
H143	H	1.445718	-0.136937	0.403474
H144	H	1.779051	0.196397	0.736808
Cl145	Cl	0.548652	0.270287	0.107049
Cl146	Cl	0.881985	0.603621	0.440382
Cl147	Cl	1.215319	0.936954	0.773716
Cl148	Cl	1.005252	-0.311288	-0.209180
Cl149	Cl	1.338585	0.022045	0.124153
Cl150	Cl	1.671918	0.355379	0.457487
H151	H	0.570610	0.093333	-0.170128
H152	H	0.903944	0.426666	0.163205
H153	H	1.237277	0.760000	0.496538
H154	H	1.119721	-0.478837	-0.069053
H155	H	1.453054	-0.145504	0.264280
H156	H	1.786387	0.187829	0.597613
Cl157	Cl	0.598552	-0.039587	-0.103650
Cl158	Cl	0.931886	0.293747	0.229683
Cl159	Cl	1.265219	0.627080	0.563016
H160	H	0.437811	-0.006169	-0.100507
H161	H	0.771145	0.327164	0.232826
H162	H	1.104478	0.660497	0.566159
Cl163	Cl	1.004038	-0.480481	-0.209749
Cl164	Cl	1.337371	-0.147148	0.123585
Cl165	Cl	1.670704	0.186186	0.456918
Cl166	Cl	0.563625	0.126403	0.210275
Cl167	Cl	0.896959	0.459736	0.543608
Cl168	Cl	1.230292	0.793070	0.876941
H169	H	0.867604	-0.436266	0.097040
H170	H	1.200937	-0.102933	0.430374
H171	H	1.534271	0.230401	0.763707
Cl172	Cl	0.414029	0.104309	-0.209194
Cl173	Cl	0.747362	0.437643	0.124140
Cl174	Cl	1.080695	0.770976	0.457473
Cl175	Cl	1.090139	0.013756	0.457789
Cl176	Cl	1.423472	0.347089	0.791122
Cl177	Cl	1.756806	0.680422	1.124456
H178	H	0.880531	-0.447752	-0.101836
H179	H	1.213864	-0.114419	0.231498
H180	H	1.547197	0.218915	0.564831
H181	H	0.882247	-0.304497	-0.100967
H182	H	1.215581	0.028837	0.232367
H183	H	1.548914	0.362170	0.565700
Cl184	Cl	0.561455	0.257586	-0.107403
Cl185	Cl	0.894789	0.590919	0.225930
Cl186	Cl	1.228122	0.924253	0.559264
Cl187	Cl	0.378941	0.266695	0.107057
Cl188	Cl	0.712274	0.600028	0.440390
Cl189	Cl	1.045607	0.933362	0.773723
Cl190	Cl	0.416950	-0.030222	0.107351
Cl191	Cl	0.750284	0.303111	0.440685
Cl192	Cl	1.083617	0.636445	0.774018
Cl193	Cl	0.974615	-0.459846	0.210267
Cl194	Cl	1.307948	-0.126513	0.543600
Cl195	Cl	1.641282	0.206821	0.876934
Cl196	Cl	0.587167	-0.030424	0.098029
Cl197	Cl	0.920500	0.302909	0.431362
Cl198	Cl	1.253833	0.636243	0.764695
H199	H	0.404656	0.237496	-0.070447
H200	H	0.737989	0.570829	0.262886
H201	H	1.071322	0.904163	0.596219
Cl202	Cl	0.835610	-0.274353	0.106746
Cl203	Cl	1.168944	0.058980	0.440079
Cl204	Cl	1.502277	0.392314	0.773412
H205	H	0.969210	-0.303299	0.169659
H206	H	1.302544	0.030034	0.502993
H207	H	1.635877	0.363367	0.836326
H208	H	0.409891	0.110846	0.169706
H209	H	0.743224	0.444179	0.503039
H210	H	1.076558	0.777512	0.836373
