data_functionalizedCrystal
_audit_creation_method	'MofGen! by Chris Wilmer'
_symmetry_space_group_name_H-M	'P1'
_symmetry_Int_Tables_number	1
_symmetry_cell_setting	triclinic
loop_
_symmetry_equiv_pos_as_xyz
  x,y,z
_cell_length_a	21.295420
_cell_length_b	21.295417
_cell_length_c	14.908803
_cell_angle_alpha	86.719914
_cell_angle_beta	86.709143
_cell_angle_gamma	90.028757
loop_
_atom_site_label
_atom_site_type_symbol
_atom_site_fract_x
_atom_site_fract_y
_atom_site_fract_z
Zn1	Zn	0.941693	-0.271287	0.510058
Zn2	Zn	1.441693	0.228713	1.010058
Zn3	Zn	0.947707	-0.370452	0.359190
Zn4	Zn	1.447707	0.129548	0.859190
Zn5	Zn	0.842527	-0.265199	0.359217
Zn6	Zn	1.342527	0.234801	0.859217
Zn7	Zn	0.836388	-0.376516	0.509996
Zn8	Zn	1.336388	0.123484	1.009996
O9	O	0.892079	-0.320864	0.434615
O10	O	1.392079	0.179136	0.934615
O11	O	1.030580	-0.284451	0.490059
O12	O	1.530580	0.215549	0.990059
O13	O	0.938841	-0.351405	0.232953
O14	O	1.438841	0.148595	0.732953
O15	O	0.855734	-0.177919	0.379264
O16	O	1.355734	0.322081	0.879264
O17	O	1.034998	-0.357308	0.379217
O18	O	1.534998	0.142692	0.879217
O19	O	0.928591	-0.182391	0.490086
O20	O	1.428591	0.317609	0.990086
O21	O	0.861565	-0.274075	0.232973
O22	O	1.361565	0.225925	0.732973
O23	O	0.753624	-0.279955	0.379204
O24	O	1.253624	0.220045	0.879204
O25	O	0.845271	-0.367643	0.636245
O26	O	1.345271	0.132357	1.136245
O27	O	0.749114	-0.361740	0.489981
O28	O	1.249114	0.138260	0.989981
O29	O	0.922638	-0.290331	0.636290
O30	O	1.422638	0.209669	1.136290
O31	O	0.932888	-0.459345	0.379157
O32	O	1.432888	0.040655	0.879157
O33	O	0.851103	-0.463800	0.489954
O34	O	1.351103	0.036200	0.989954
C35	C	0.728528	-0.320845	0.434589
C36	C	1.228528	0.179155	0.934589
C37	C	0.658560	-0.320854	0.434600
C38	C	1.158560	0.179146	0.934600
C39	C	0.891998	-0.484413	0.434565
C40	C	1.391998	0.015587	0.934565
C41	C	0.892020	-0.554382	0.434574
C42	C	1.392020	-0.054382	0.934574
C43	C	0.156771	-0.363521	0.492241
C44	C	0.656771	0.136479	0.992241
C45	C	0.222514	-0.363520	0.492231
C46	C	0.722514	0.136480	0.992231
C47	C	0.257718	-0.320879	0.434644
C48	C	0.757718	0.179121	0.934644
C49	C	0.227175	-0.278245	0.377045
C50	C	0.727175	0.221755	0.877045
C51	C	0.161434	-0.278251	0.377050
C52	C	0.661434	0.221749	0.877050
N53	N	0.361234	-0.265488	0.427861
N54	N	0.861234	0.234512	0.927861
N55	N	0.423685	-0.265485	0.427862
N56	N	0.923685	0.234515	0.927862
C57	C	0.455794	-0.320860	0.434625
C58	C	0.955794	0.179140	0.934625
N59	N	0.423091	-0.376242	0.441404
N60	N	0.923091	0.123758	0.941404
N61	N	0.360634	-0.376244	0.441408
N62	N	0.860634	0.123756	0.941408
C63	C	0.329004	-0.320868	0.434632
C64	C	0.829004	0.179132	0.934632
C65	C	0.557616	-0.363494	0.492205
C66	C	1.057616	0.136506	0.992205
C67	C	0.623360	-0.363495	0.492189
C68	C	1.123360	0.136505	0.992189
C69	C	0.628019	-0.278214	0.377007
C70	C	1.128019	0.221786	0.877007
C71	C	0.562276	-0.278219	0.377018
C72	C	1.062276	0.221781	0.877018
C73	C	0.527078	-0.320858	0.434622
C74	C	1.027078	0.179142	0.934622
C75	C	0.934639	-0.584910	0.376941
C76	C	1.434639	-0.084910	0.876941
C77	C	0.934668	-0.650653	0.376962
C78	C	1.434668	-0.150653	0.876962
C79	C	0.892067	-0.685865	0.434605
C80	C	1.392067	-0.185865	0.934605
C81	C	0.849444	-0.655330	0.492249
C82	C	1.349444	-0.155330	0.992249
C83	C	0.849421	-0.589588	0.492234
C84	C	1.349421	-0.089588	0.992234
N85	N	0.836721	-0.789407	0.441474
N86	N	1.336721	-0.289407	0.941474
N87	N	0.836746	-0.851859	0.441483
N88	N	1.336746	-0.351859	0.941483
C89	C	0.892135	-0.883942	0.434657
C90	C	1.392135	-0.383942	0.934657
N91	N	0.947502	-0.851213	0.427803
N92	N	1.447502	-0.351213	0.927803
N93	N	0.947477	-0.788755	0.427789
N94	N	1.447477	-0.288755	0.927789
C95	C	0.892087	-0.757152	0.434629
C96	C	1.392087	-0.257152	0.934629
C97	C	0.934789	-0.985757	0.377043
C98	C	1.434789	-0.485757	0.877043
C99	C	0.934818	-1.051502	0.377070
C100	C	1.434818	-0.551502	0.877070
C101	C	0.849589	-1.056176	0.492353
C102	C	1.349589	-0.556176	0.992353
C103	C	0.849565	-0.990433	0.492331
C104	C	1.349565	-0.490433	0.992331
C105	C	0.892164	-0.955227	0.434671
C106	C	1.392164	-0.455227	0.934671
C107	C	1.056268	-0.320882	0.434642
C108	C	1.556268	0.179118	0.934642
C109	C	1.126236	-0.320890	0.434653
C110	C	1.626236	0.179110	0.934653
C111	C	0.882599	-0.330343	0.669916
C112	C	1.382599	0.169657	1.169916
C113	C	0.878559	-0.334382	0.770187
C114	C	1.378559	0.165618	1.270187
C115	C	0.892176	-0.156676	0.434685
C116	C	1.392176	0.343324	0.934685
C117	C	0.892217	-0.086709	0.434715
C118	C	1.392217	0.413291	0.934715
C119	C	0.951529	-0.261453	0.958656
C120	C	1.451529	0.238547	1.458656
C121	C	0.947735	-0.265246	1.052869
C122	C	1.447735	0.234754	1.552869
C123	C	0.867176	-0.345758	1.052829
C124	C	1.367176	0.154242	1.552829
C125	C	0.870969	-0.341965	0.958616
C126	C	1.370969	0.158035	1.458616
C127	C	0.913148	-0.299812	0.911532
C128	C	1.413148	0.200188	1.411532
C129	C	0.916944	-0.296022	0.817317
C130	C	1.416944	0.203978	1.317317
C131	C	0.836382	-0.376530	0.817279
C132	C	1.336382	0.123470	1.317279
C133	C	0.832588	-0.380323	0.911492
C134	C	1.332588	0.119677	1.411492
C135	C	0.901518	-0.311436	1.200230
C136	C	1.401518	0.188564	1.700230
C137	C	0.905561	-0.307398	1.099959
C138	C	1.405561	0.192602	1.599959
H139	H	0.128117	-0.398243	0.539143
H140	H	0.628117	0.101757	1.039143
H141	H	0.951289	-0.261699	0.778983
H142	H	1.451289	0.238301	1.278983
H143	H	0.969528	-1.076356	0.330140
H144	H	1.469528	-0.576356	0.830140
H145	H	0.247382	-0.398235	0.539129
H146	H	0.747382	0.101765	1.039129
H147	H	0.985876	-0.227133	0.920320
H148	H	1.485876	0.272867	1.420320
H149	H	0.528956	-0.398214	0.539108
H150	H	1.028956	0.101786	1.039108
H151	H	0.255843	-0.243527	0.330155
H152	H	0.755843	0.256473	0.830155
H153	H	0.136572	-0.243534	0.330154
H154	H	0.636572	0.256466	0.830154
H155	H	0.814905	-1.084846	0.539291
H156	H	1.314905	-0.584846	1.039291
H157	H	0.648221	-0.398214	0.539081
H158	H	1.148221	0.101786	1.039081
H159	H	0.805131	-0.407766	0.778901
H160	H	1.305131	0.092234	1.278901
C161	C	0.803386	-0.957256	0.555009
C162	C	1.303386	-0.457256	1.055009
C163	C	0.836649	-0.921807	0.612886
C164	C	1.336649	-0.421807	1.112886
C165	C	0.794129	-0.891243	0.670650
C166	C	1.294129	-0.391243	1.170650
H167	H	0.777344	-0.930206	0.520562
H168	H	1.277344	-0.430206	1.020562
H169	H	0.778026	-0.987624	0.589396
H170	H	1.278026	-0.487624	1.089396
H171	H	0.861998	-0.891443	0.578503
H172	H	1.361998	-0.391443	1.078503
H173	H	0.862689	-0.948842	0.647353
H174	H	1.362689	-0.448842	1.147353
H175	H	0.768770	-0.921611	0.705036
H176	H	1.268770	-0.421611	1.205036
H177	H	0.768089	-0.864197	0.636195
H178	H	1.268089	-0.364197	1.136195
H179	H	0.816692	-0.867193	0.709931
H180	H	1.316692	-0.367193	1.209931
C181	C	0.786839	-0.426186	0.962501
C182	C	1.286839	0.073814	1.462501
C183	C	0.801430	-0.487544	0.939547
C184	C	1.301430	0.012456	1.439547
C185	C	0.759295	-0.529810	0.986508
C186	C	1.259295	-0.029810	1.486508
H187	H	0.790035	-0.423037	1.025374
H188	H	1.290035	0.076963	1.525374
H189	H	0.745160	-0.416389	0.947039
H190	H	1.245160	0.083611	1.447039
H191	H	0.843098	-0.497338	0.955015
H192	H	1.343098	0.002662	1.455015
H193	H	0.798229	-0.490713	0.876682
H194	H	1.298229	0.009287	1.376682
H195	H	0.717616	-0.520014	0.971046
H196	H	1.217616	-0.020014	1.471046
H197	H	0.762494	-0.526656	1.049379
H198	H	1.262494	-0.026656	1.549379
H199	H	0.769185	-0.571446	0.970934
H200	H	1.269185	-0.071446	1.470934
H201	H	0.814759	-0.684004	0.539185
H202	H	1.314759	-0.184004	1.039185
H203	H	0.832836	-0.380077	1.091181
H204	H	1.332836	0.119923	1.591181
C205	C	0.666342	-0.231946	0.314578
C206	C	1.166342	0.268054	0.814578
C207	C	0.730452	-0.241056	0.326911
C208	C	1.230452	0.258944	0.826911
C209	C	0.765777	-0.198441	0.269420
C210	C	1.265777	0.301559	0.769420
H211	H	0.658076	-0.238612	0.253906
H212	H	1.158076	0.261388	0.753906
H213	H	0.655089	-0.190188	0.327899
H214	H	1.155089	0.309812	0.827899
H215	H	0.741702	-0.282804	0.313583
H216	H	1.241702	0.217196	0.813583
H217	H	0.738738	-0.234385	0.387571
H218	H	1.238738	0.265615	0.887571
H219	H	0.754523	-0.156683	0.282741
H220	H	1.254523	0.343317	0.782741
H221	H	0.757505	-0.205110	0.208752
H222	H	1.257505	0.294890	0.708752
H223	H	0.809279	-0.204612	0.277786
H224	H	1.309279	0.295388	0.777786
C225	C	0.529233	-0.231857	0.314468
C226	C	1.029233	0.268143	0.814468
C227	C	0.574131	-0.194502	0.264048
C228	C	1.074131	0.305498	0.764048
C229	C	0.543716	-0.151780	0.206421
C230	C	1.043716	0.348220	0.706421
H231	H	0.505159	-0.254238	0.275021
H232	H	1.005159	0.245762	0.775021
H233	H	0.502225	-0.205827	0.349032
H234	H	1.002225	0.294173	0.849032
H235	H	0.601129	-0.220529	0.229486
H236	H	1.101129	0.279471	0.729486
H237	H	0.598208	-0.172107	0.303471
H238	H	1.098208	0.327893	0.803471
H239	H	0.516707	-0.125750	0.240985
H240	H	1.016707	0.374250	0.740985
H241	H	0.519642	-0.174166	0.166980
H242	H	1.019642	0.325834	0.666980
H243	H	0.574174	-0.126425	0.172210
H244	H	1.074174	0.373575	0.672210
H245	H	0.969376	-0.675514	0.330030
H246	H	1.469376	-0.175514	0.830030
C247	C	0.980966	-0.546800	0.314318
C248	C	1.480966	-0.046800	0.814318
C249	C	1.018309	-0.587613	0.263867
C250	C	1.518309	-0.087613	0.763867
C251	C	1.060999	-0.552527	0.206181
C252	C	1.560999	-0.052527	0.706181
H253	H	0.958561	-0.519594	0.274892
H254	H	1.458561	-0.019594	0.774892
H255	H	1.007008	-0.522526	0.348841
H256	H	1.507008	-0.022526	0.848841
H257	H	0.992269	-0.611876	0.229347
H258	H	1.492269	-0.111876	0.729347
H259	H	1.040727	-0.614819	0.303269
H260	H	1.540727	-0.114819	0.803269
H261	H	1.087042	-0.528254	0.240705
H262	H	1.587042	-0.028254	0.740705
H263	H	1.038589	-0.525323	0.166762
H264	H	1.538589	-0.025323	0.666762
H265	H	1.086345	-0.580214	0.171950
H266	H	1.586345	-0.080214	0.671950
C267	C	0.803074	-0.556554	0.554841
C268	C	1.303074	-0.056554	1.054841
C269	C	0.765761	-0.601458	0.605318
C270	C	1.265761	-0.101458	1.105318
C271	C	0.723053	-0.571049	0.662991
C272	C	1.223053	-0.071049	1.162991
H273	H	0.825464	-0.532457	0.594250
H274	H	1.325464	-0.032457	1.094250
H275	H	0.777012	-0.529567	0.520308
H276	H	1.277012	-0.029567	1.020308
H277	H	0.791819	-0.628433	0.639848
H278	H	1.291819	-0.128433	1.139848
H279	H	0.743357	-0.625556	0.565932
H280	H	1.243357	-0.125556	1.065932
H281	H	0.696992	-0.544062	0.628458
H282	H	1.196992	-0.044062	1.128458
H283	H	0.745449	-0.546954	0.702394
H284	H	1.245449	-0.046954	1.202394
H285	H	0.697727	-0.601511	0.697240
H286	H	1.197727	-0.101511	1.197240
C287	C	0.989483	-0.223571	1.103870
C288	C	1.489483	0.276429	1.603870
C289	C	1.027242	-0.185856	1.042467
C290	C	1.527242	0.314144	1.542467
C291	C	1.065714	-0.147460	1.089416
C292	C	1.565714	0.352540	1.589416
H293	H	0.964008	-0.197566	1.140635
H294	H	1.464008	0.302434	1.640635
H295	H	1.015453	-0.249117	1.140597
H296	H	1.515453	0.250883	1.640597
H297	H	1.001274	-0.160312	1.005756
H298	H	1.501274	0.339688	1.505756
H299	H	1.052729	-0.211843	1.005701
H300	H	1.552729	0.288157	1.505701
H301	H	1.091684	-0.173006	1.126143
H302	H	1.591684	0.326994	1.626143
H303	H	1.040235	-0.121460	1.126179
H304	H	1.540235	0.378540	1.626179
H305	H	1.091342	-0.121870	1.047761
H306	H	1.591342	0.378130	1.547761
H307	H	0.969478	-0.957091	0.330096
H308	H	1.469478	-0.457091	0.830096
