data_functionalizedCrystal
_audit_creation_method	'MofGen! by Chris Wilmer'
_symmetry_space_group_name_H-M	'P1'
_symmetry_Int_Tables_number	1
_symmetry_cell_setting	triclinic
loop_
_symmetry_equiv_pos_as_xyz
  x,y,z
_cell_length_a	23.532407
_cell_length_b	11.792241
_cell_length_c	10.868271
_cell_angle_alpha	89.998441
_cell_angle_beta	89.998984
_cell_angle_gamma	96.478953
loop_
_atom_site_label
_atom_site_type_symbol
_atom_site_fract_x
_atom_site_fract_y
_atom_site_fract_z
O1	O	0.756076	-0.137765	0.102169
O2	O	1.256076	0.362235	0.602169
O3	O	0.590331	-0.157700	0.102205
O4	O	1.090331	0.342300	0.602205
O5	O	0.677226	0.017533	0.102178
O6	O	1.177226	0.517533	0.602178
O7	O	0.669181	-0.312998	0.102197
O8	O	1.169181	0.187002	0.602197
O9	O	0.677218	0.017527	-0.102467
O10	O	1.177218	0.517527	0.397533
O11	O	0.590323	-0.157705	-0.102439
O12	O	1.090323	0.342295	0.397561
O13	O	0.756068	-0.137771	-0.102475
O14	O	1.256068	0.362229	0.397525
Zn15	Zn	0.673194	-0.147739	-0.134949
Zn16	Zn	1.173194	0.352261	0.365051
Zn17	Zn	0.673205	-0.147732	0.134679
Zn18	Zn	1.173205	0.352268	0.634679
O19	O	0.669173	-0.313003	-0.102448
O20	O	1.169173	0.186997	0.397552
C21	C	0.569108	-0.157195	-0.000112
C22	C	1.069108	0.342805	0.499888
C23	C	0.505882	-0.155669	-0.000099
C24	C	1.005882	0.344331	0.499901
N25	N	0.673191	-0.147744	-0.318963
N26	N	1.173191	0.352256	0.181037
C27	C	0.676716	0.059809	-0.000144
C28	C	1.176716	0.559809	0.499856
C29	C	0.675204	0.185787	-0.000142
C30	C	1.175204	0.685787	0.499858
C31	C	0.107337	-0.249795	-0.000149
C32	C	0.607337	0.250205	0.499851
C33	C	0.047928	-0.248377	-0.000157
C34	C	0.547928	0.251623	0.499843
O35	O	0.011701	-0.335633	-0.000196
O36	O	0.511701	0.164367	0.499804
N37	N	0.024684	-0.144202	-0.000161
N38	N	0.524684	0.355798	0.499839
C39	C	0.060853	-0.041437	-0.000169
C40	C	0.560853	0.458563	0.499831
O41	O	0.035627	0.047303	-0.000175
O42	O	0.535627	0.547303	0.499825
C43	C	0.120260	-0.042856	-0.000171
C44	C	0.620260	0.457144	0.499829
C45	C	0.143501	-0.147038	-0.000154
C46	C	0.643501	0.352962	0.499846
C47	C	0.130577	-0.353969	-0.000134
C48	C	0.630577	0.146031	0.499866
C49	C	0.189982	-0.355386	-0.000124
C50	C	0.689982	0.144614	0.499876
C51	C	0.226146	-0.252630	-0.000129
C52	C	0.726146	0.247370	0.499871
C53	C	0.202905	-0.148456	-0.000144
C54	C	0.702905	0.351544	0.499856
C55	C	0.156428	0.059907	-0.000188
C56	C	0.656428	0.559907	0.499812
C57	C	0.215839	0.058479	-0.000190
C58	C	0.715839	0.558479	0.499810
C59	C	0.239079	-0.045703	-0.000174
C60	C	0.739079	0.454297	0.499826
C61	C	0.298474	-0.047116	-0.000140
C62	C	0.798474	0.452884	0.499860
N63	N	0.321717	-0.151292	-0.000136
N64	N	0.821717	0.348708	0.499864
C65	C	0.285553	-0.254049	-0.000130
C66	C	0.785553	0.245951	0.499870
C67	C	-0.063907	-0.038465	-0.000169
C68	C	0.436093	0.461535	0.499831
C69	C	-0.123313	-0.037045	-0.000159
C70	C	0.376687	0.462955	0.499841
C71	C	-0.136234	-0.243985	-0.000149
C72	C	0.363766	0.256015	0.499851
C73	C	-0.076827	-0.245404	-0.000150
C74	C	0.423173	0.254596	0.499850
C75	C	-0.040664	-0.142641	-0.000165
C76	C	0.459336	0.357359	0.499835
C77	C	0.410308	-0.257017	-0.000109
C78	C	0.910308	0.242983	0.499891
C79	C	0.469718	-0.258425	-0.000094
C80	C	0.969718	0.241575	0.499906
C81	C	0.482634	-0.051485	-0.000111
C82	C	0.982634	0.448515	0.499889
C83	C	0.423229	-0.050077	-0.000119
C84	C	0.923229	0.449923	0.499881
C85	C	0.387066	-0.152852	-0.000122
C86	C	0.887066	0.347148	0.499878
O87	O	0.334736	0.040094	-0.000105
O88	O	0.834736	0.540094	0.499895
O89	O	0.310787	-0.342774	-0.000141
O90	O	0.810787	0.157226	0.499859
C91	C	0.777291	-0.138276	-0.000155
C92	C	1.277291	0.361724	0.499845
C93	C	0.840517	-0.139802	-0.000160
C94	C	1.340517	0.360198	0.499840
C95	C	0.669683	-0.355280	-0.000123
C96	C	1.169683	0.144720	0.499877
C97	C	0.671195	-0.481258	-0.000117
C98	C	1.171195	0.018742	0.499883
C99	C	0.672423	0.416434	-0.000121
C100	C	1.172423	0.916434	0.499879
C101	C	0.673968	0.288085	-0.000133
C102	C	1.173968	0.788085	0.499867
C103	C	0.673196	-0.147744	-0.430301
C104	C	1.173196	0.352256	0.069699
C105	C	0.673203	-0.147733	-0.569978
C106	C	1.173203	0.352267	-0.069978
N107	N	0.673212	-0.147718	0.318693
N108	N	1.173212	0.352282	0.818693
H109	H	0.488636	-0.343267	-0.000079
H110	H	0.988636	0.156733	0.499921
F111	F	-0.025424	0.070918	-0.000174
F112	F	0.474576	0.570918	0.499826
F113	F	-0.174733	-0.353349	-0.000148
F114	F	0.325267	0.146651	0.499852
H115	H	0.208898	-0.440222	-0.000110
H116	H	0.708898	0.059778	0.499890
H117	H	0.101138	-0.437650	-0.000134
H118	H	0.601138	0.062350	0.499866
H119	H	0.404306	0.034757	-0.000114
H120	H	0.904306	0.534757	0.499886
F121	F	0.371829	-0.366402	-0.000113
F122	F	0.871829	0.133598	0.499887
F123	F	-0.052099	-0.356288	-0.000135
F124	F	0.447901	0.143712	0.499865
H125	H	-0.142230	0.047791	-0.000153
H126	H	0.357770	0.547791	0.499847
H127	H	0.245281	0.142164	-0.000204
H128	H	0.745281	0.642164	0.499796
H129	H	0.137517	0.144743	-0.000203
H130	H	0.637517	0.644743	0.499797
F131	F	0.521132	0.057870	-0.000118
F132	F	1.021132	0.557870	0.499882
