data_functionalizedCrystal
_audit_creation_method	'MofGen! by Chris Wilmer'
_symmetry_space_group_name_H-M	'P1'
_symmetry_Int_Tables_number	1
_symmetry_cell_setting	triclinic
loop_
_symmetry_equiv_pos_as_xyz
  x,y,z
_cell_length_a	18.215407
_cell_length_b	18.215405
_cell_length_c	18.215399
_cell_angle_alpha	89.969449
_cell_angle_beta	89.982632
_cell_angle_gamma	90.022329
loop_
_atom_site_label
_atom_site_type_symbol
_atom_site_fract_x
_atom_site_fract_y
_atom_site_fract_z
Zn1	Zn	1.125072	-0.293042	-0.416054
Zn2	Zn	1.124980	-0.416113	-0.292982
Zn3	Zn	1.002004	-0.293060	-0.293007
Zn4	Zn	1.001970	-0.416066	-0.416012
O5	O	1.063507	-0.354570	-0.354514
O6	O	1.228044	-0.309380	-0.399736
O7	O	1.108643	-0.399817	-0.190001
O8	O	1.018382	-0.190073	-0.309357
O9	O	1.227977	-0.399800	-0.309315
O10	O	1.108799	-0.190060	-0.399759
O11	O	1.018293	-0.309410	-0.190019
O12	O	0.899016	-0.309364	-0.309317
O13	O	1.018324	-0.399719	-0.519002
O14	O	0.898991	-0.399736	-0.399688
O15	O	1.108766	-0.309334	-0.519033
O16	O	1.108610	-0.519091	-0.309275
O17	O	1.018235	-0.519056	-0.399665
C18	C	0.872301	-0.354548	-0.354501
C19	C	0.790502	-0.354556	-0.354513
C20	C	0.602342	-0.307571	-0.401669
C21	C	0.525483	-0.307577	-0.401672
C22	C	0.525424	-0.401590	-0.307372
C23	C	0.602281	-0.401580	-0.307366
C24	C	0.640738	-0.354571	-0.354519
C25	C	0.487022	-0.354588	-0.354527
C26	C	0.403688	-0.354595	-0.354529
C27	C	0.724077	-0.354563	-0.354516
C28	C	1.063429	-0.545777	-0.354479
C29	C	1.063463	-0.627575	-0.354488
C30	C	1.110632	-0.815763	-0.307509
C31	C	1.110665	-0.892622	-0.307526
C32	C	1.016476	-0.892625	-0.401572
C33	C	1.016447	-0.815768	-0.401557
C34	C	1.063524	-0.777339	-0.354522
C35	C	1.063586	-0.931055	-0.354554
C36	C	1.063621	-1.014389	-0.354574
C37	C	1.063490	-0.694000	-0.354503
C38	C	1.255460	-0.354593	-0.354527
C39	C	1.337259	-0.354603	-0.354533
C40	C	1.063552	-0.354520	-0.546467
C41	C	1.063571	-0.354498	-0.628266
C42	C	1.063605	-0.162617	-0.354566
C43	C	1.063647	-0.080818	-0.354588
C44	C	1.110681	-0.307390	-0.816477
C45	C	1.110690	-0.307369	-0.893336
C46	C	1.016513	-0.401492	-0.893293
C47	C	1.016501	-0.401509	-0.816435
C48	C	1.063589	-0.354459	-0.778029
C49	C	1.063610	-0.354421	-0.931746
C50	C	1.063619	-0.354398	-1.015079
C51	C	1.063579	-0.354481	-0.694690
C52	C	1.063504	-0.354568	-0.163308
C53	C	1.063628	-0.354382	-0.081509
H54	H	0.633651	-0.269291	-0.440062
H55	H	1.149035	-0.269039	-0.924636
C56	C	1.162473	-0.934889	-0.255805
H57	H	1.155754	-0.986166	-0.262552
H58	H	1.151722	-0.922335	-0.206349
H59	H	1.211913	-0.922248	-0.266616
H60	H	0.978148	-0.439837	-0.785130
H61	H	0.978146	-0.923924	-0.439866
C62	C	0.964724	-0.453249	-0.935538
H63	H	0.936672	-0.481279	-0.901630
H64	H	0.992866	-0.485310	-0.965514
H65	H	0.932674	-0.425084	-0.965524
C66	C	0.483250	-0.255881	-0.453541
H67	H	0.517164	-0.227889	-0.481624
H68	H	0.453266	-0.223782	-0.425452
H69	H	0.453273	-0.284083	-0.485559
H70	H	0.494103	-0.439864	-0.268982
H71	H	0.633544	-0.439854	-0.268967
H72	H	1.148966	-0.784476	-0.269210
H73	H	0.978086	-0.784481	-0.439845
C74	C	1.162466	-0.255629	-0.774233
H75	H	1.190507	-0.227588	-0.808142
H76	H	1.194516	-0.283784	-0.744244
H77	H	1.134316	-0.223567	-0.744260
