data_functionalizedCrystal
_audit_creation_method	'MofGen! by Chris Wilmer'
_symmetry_space_group_name_H-M	'P1'
_symmetry_Int_Tables_number	1
_symmetry_cell_setting	triclinic
loop_
_symmetry_equiv_pos_as_xyz
  x,y,z
_cell_length_a	17.640280
_cell_length_b	17.639123
_cell_length_c	17.640968
_cell_angle_alpha	109.671805
_cell_angle_beta	65.682561
_cell_angle_gamma	92.177824
loop_
_atom_site_label
_atom_site_type_symbol
_atom_site_fract_x
_atom_site_fract_y
_atom_site_fract_z
Zn1	Zn	0.104637	-1.336877	-0.738979
Zn2	Zn	-0.061048	-1.336812	-0.573324
Zn3	Zn	0.037646	-1.182435	-0.561985
Zn4	Zn	-0.060979	-1.226880	-0.683204
O5	O	0.005064	-1.270751	-0.639373
O6	O	0.110665	-1.447509	-0.745092
O7	O	-0.076021	-1.297706	-0.451762
O8	O	0.157147	-1.184349	-0.604061
O9	O	-0.011063	-1.447461	-0.623386
O10	O	0.206365	-1.297816	-0.734097
O11	O	-0.003511	-1.184286	-0.443431
O12	O	-0.003444	-1.077690	-0.549978
O13	O	-0.010945	-1.260099	-0.810661
O14	O	-0.075903	-1.110344	-0.639037
O15	O	0.110732	-1.340913	-0.851638
O16	O	-0.171654	-1.340803	-0.569303
O17	O	-0.171603	-1.260036	-0.650032
C18	C	-0.046936	-1.065329	-0.587225
C19	C	-0.069196	-0.977455	-0.564933
C20	C	-0.163884	-0.853548	-0.470082
C21	C	-0.142960	-0.936119	-0.491036
C22	C	-0.016329	-0.936230	-0.617908
C23	C	-0.037245	-0.853658	-0.596967
C24	C	-0.111023	-0.812324	-0.523053
C25	C	0.015616	-0.812434	-0.649938
C26	C	-0.005296	-0.729868	-0.628996
C27	C	-0.079069	-0.688527	-0.555083
C28	C	-0.131935	-0.729758	-0.502111
C29	C	0.089397	-0.853768	-0.723849
C30	C	0.142258	-0.812544	-0.776819
C31	C	0.121343	-0.729978	-0.755881
C32	C	0.047570	-0.688637	-0.681969
C33	C	0.174209	-0.688747	-0.808854
C34	C	0.153297	-0.606181	-0.787912
C35	C	0.026658	-0.606071	-0.661026
C36	C	-0.200300	-1.305260	-0.604870
C37	C	-0.288130	-1.320099	-0.590156
C38	C	-0.577128	-1.158388	-0.751546
C39	C	-0.659664	-1.172329	-0.737693
C40	C	-0.659610	-1.256511	-0.653757
C41	C	-0.577071	-1.242580	-0.667607
C42	C	-0.535837	-1.193517	-0.716501
C43	C	-0.535779	-1.277709	-0.632562
C44	C	-0.453249	-1.263775	-0.646406
C45	C	-0.412010	-1.214712	-0.695296
C46	C	-0.453306	-1.179583	-0.730345
C47	C	-0.577017	-1.326767	-0.583663
C48	C	-0.535725	-1.361896	-0.548617
C49	C	-0.453191	-1.347967	-0.562467
C50	C	-0.411952	-1.298904	-0.611357
C51	C	-0.411895	-1.383096	-0.527417
C52	C	-0.329364	-1.369163	-0.541262
C53	C	-0.329422	-1.284970	-0.625201
C54	C	0.211239	-1.236132	-0.674036
C55	C	0.299099	-1.221379	-0.688807
C56	C	0.057374	-1.305471	-0.863150
C57	C	0.079665	-1.320267	-0.958510
C58	C	0.057268	-0.476973	-0.691716
C59	C	0.079519	-0.564847	-0.713997
C60	C	-0.163775	-1.158582	-1.165470
C61	C	-0.142814	-1.172499	-1.255081
C62	C	-0.016122	-1.256644	-1.297737
C63	C	-0.037070	-1.242730	-1.208127
C64	C	-0.110898	-1.193699	-1.142000
C65	C	0.015807	-1.277847	-1.184657
C66	C	-0.005142	-1.263937	-1.095056
C67	C	-0.078967	-1.214911	-1.028924
C68	C	-0.131847	-1.179789	-1.052398
C69	C	0.089631	-1.326882	-1.250787
C70	C	0.142508	-1.361999	-1.227317
C71	C	0.121563	-1.348086	-1.137713
C72	C	0.047737	-1.299059	-1.071581
C73	C	0.174442	-1.383207	-1.114239
C74	C	0.153493	-1.369297	-1.024637
C75	C	0.026788	-1.285149	-0.981980
C76	C	-0.046974	-1.236202	-0.416488
C77	C	-0.069004	-1.221522	-0.321205
H78	H	-0.096085	-0.621293	-0.538023
H79	H	-0.033425	-0.572417	-0.600844
H80	H	0.202329	-0.846209	-0.836999
H81	H	-0.445483	-1.423037	-0.487601
H82	H	0.234282	-0.722412	-0.869030
H83	H	-0.543551	-1.118442	-0.791368
H84	H	0.043742	-0.969895	-0.678088
H85	H	-0.644217	-1.338113	-0.572395
H86	H	0.202617	-1.401923	-1.281169
H87	H	-0.693276	-1.143730	-0.766248
H88	H	0.106423	-0.920997	-0.740894
H89	H	-0.569310	-1.401840	-0.508805
H90	H	-0.693195	-1.296456	-0.613945
H91	H	-0.096025	-1.203590	-0.955965
H92	H	-0.223966	-0.819894	-0.409900
H93	H	0.196344	-0.572614	-0.831043
H94	H	-0.186011	-0.969682	-0.447896
H95	H	0.106683	-1.338208	-1.323745
H96	H	-0.295845	-1.245025	-0.665023
H97	H	0.234548	-1.423134	-1.168093
H98	H	-0.344811	-1.203362	-0.706559
H99	H	-0.223878	-1.118634	-1.111622
H100	H	0.196552	-1.397892	-1.005529
H101	H	-0.295745	-1.397768	-0.512723
H102	H	-0.192017	-0.696104	-0.441928
H103	H	-0.185879	-1.143899	-1.274183
H104	H	-0.033315	-1.245201	-0.928132
H105	H	-0.191950	-1.139841	-0.998551
H106	H	-0.419729	-1.139638	-0.770168
H107	H	0.043986	-1.296567	-1.351589
