data_functionalizedCrystal
_audit_creation_method	'MofGen! by Chris Wilmer'
_symmetry_space_group_name_H-M	'P1'
_symmetry_Int_Tables_number	1
_symmetry_cell_setting	triclinic
loop_
_symmetry_equiv_pos_as_xyz
  x,y,z
_cell_length_a	14.971486
_cell_length_b	17.038272
_cell_length_c	14.048226
_cell_angle_alpha	89.993466
_cell_angle_beta	89.998499
_cell_angle_gamma	87.362843
loop_
_atom_site_label
_atom_site_type_symbol
_atom_site_fract_x
_atom_site_fract_y
_atom_site_fract_z
O1	O	1.194576	0.101897	-0.079052
O2	O	0.935090	0.114100	-0.079077
O3	O	1.063291	-0.005819	-0.079057
O4	O	1.066375	0.221816	-0.079072
O5	O	1.063274	-0.005826	0.079264
O6	O	0.935073	0.114093	0.079244
O7	O	1.194559	0.101890	0.079270
Zn8	Zn	1.064813	0.107990	0.104394
Zn9	Zn	1.064836	0.108000	-0.104201
O10	O	1.066358	0.221809	0.079249
C11	C	0.901716	0.113551	0.000080
C12	C	0.802296	0.111915	0.000070
C13	C	0.750345	0.182364	0.000067
C14	C	0.656930	0.180823	0.000081
C15	C	0.615468	0.108832	0.000092
C16	C	0.667426	0.038378	0.000098
C17	C	0.760839	0.039920	0.000091
C18	C	0.472723	0.035169	0.000111
C19	C	0.379303	0.033626	0.000117
C20	C	0.368815	0.176072	0.000102
C21	C	0.462228	0.177614	0.000095
C22	C	0.514179	0.107159	0.000099
C23	C	1.060477	-0.034954	0.000103
C24	C	1.052107	-0.121756	0.000102
C25	C	1.128951	-0.171781	0.000111
C26	C	1.121081	-0.253341	0.000101
C27	C	1.036367	-0.284874	0.000089
C28	C	0.959518	-0.234843	0.000078
C29	C	0.967388	-0.153285	0.000081
C30	C	1.008563	-0.530664	0.000073
C31	C	1.000698	-0.612229	0.000073
C32	C	1.162262	-0.630721	0.000095
C33	C	1.170125	-0.549161	0.000103
C34	C	1.093276	-0.499137	0.000087
C35	C	1.028321	-0.368241	0.000082
C36	C	1.101323	-0.415771	0.000087
C37	C	1.227933	0.102440	0.000110
C38	C	1.327353	0.104075	0.000114
C39	C	1.069172	0.250944	0.000087
C40	C	1.077542	0.337746	0.000082
N41	N	1.064804	0.107984	0.246754
N42	N	1.064851	0.108000	-0.246562
C43	C	1.121592	0.054906	0.296581
C44	C	1.121599	0.054905	0.396239
C45	C	1.064820	0.107987	0.446068
C46	C	1.008026	0.161067	0.396234
C47	C	1.008016	0.161064	0.296578
C48	C	1.008052	0.161073	0.603948
C49	C	1.008063	0.161078	0.703611
C50	C	1.121635	0.054915	0.703609
C51	C	1.121625	0.054911	0.603953
C52	C	1.064831	0.107993	0.554126
H53	H	0.326511	0.233438	0.000103
H54	H	0.614636	0.238189	0.000078
O55	O	0.892678	-0.104767	-0.000053
C56	C	0.841635	-0.119050	-0.082069
H57	H	0.858893	-0.180894	-0.109401
H58	H	0.767463	-0.113379	-0.063639
H59	H	0.857273	-0.074426	-0.139484
O60	O	0.339169	-0.036372	0.000172
C61	C	0.405050	-0.098227	0.000157
H62	H	0.470102	-0.076253	0.030127
H63	H	0.381724	-0.148482	0.046129
H64	H	0.416598	-0.119963	-0.075795
H65	H	0.959346	-0.393925	0.000075
H66	H	0.784097	0.240987	0.000058
H67	H	0.495983	0.236235	0.000077
H68	H	1.239108	-0.523493	0.000113
O69	O	1.183563	-0.385050	-0.000028
C70	C	1.192966	-0.338435	-0.082034
H71	H	1.124011	-0.318192	-0.109385
H72	H	1.232676	-0.284993	-0.063585
H73	H	1.229813	-0.374421	-0.139444
O74	O	0.952783	0.212658	0.444487
C75	C	0.902671	0.259516	0.379135
H76	H	0.899219	0.227454	0.308103
H77	H	0.832143	0.271337	0.407935
H78	H	0.936125	0.317647	0.368520
O79	O	0.523286	-0.033218	-0.000014
C80	C	0.577612	-0.036588	-0.082027
H81	H	0.587045	0.025482	-0.109366
H82	H	0.645524	-0.065646	-0.063592
H83	H	0.544198	-0.072326	-0.139440
O84	O	0.952979	0.212658	0.248068
C85	C	1.004545	0.260978	0.190422
H86	H	1.072172	0.229937	0.175489
H87	H	0.968141	0.273288	0.120346
H88	H	1.015018	0.318779	0.228814
H89	H	0.633660	-0.020239	0.000120
H90	H	0.890541	-0.260524	0.000062
H91	H	0.803137	-0.017447	0.000093
O92	O	1.211263	-0.141190	-0.000048
C93	C	1.258496	-0.166753	-0.082030
H94	H	1.209071	-0.183756	-0.139344
H95	H	1.300316	-0.117310	-0.109550
H96	H	1.304295	-0.219863	-0.063490
O97	O	0.933846	-0.482161	-0.000059
C98	C	0.882798	-0.496448	-0.082069
H99	H	0.900065	-0.558289	-0.109407
H100	H	0.808628	-0.490789	-0.063631
H101	H	0.898422	-0.451819	-0.139484
H102	H	1.183656	-0.294068	0.000110
H103	H	1.167832	0.011684	0.256017
O104	O	1.176858	0.003325	0.444493
C105	C	1.226962	-0.043533	0.379144
H106	H	1.230389	-0.011476	0.308097
H107	H	1.297498	-0.055341	0.407925
H108	H	1.193516	-0.101669	0.368565
O109	O	1.236818	-0.679426	0.000060
C110	C	1.211711	-0.758174	0.000079
H111	H	1.141215	-0.761363	-0.029900
H112	H	1.260316	-0.795069	-0.045885
H113	H	1.213302	-0.781766	0.076032
H114	H	0.961827	0.204302	0.744176
H115	H	1.167862	0.011692	0.563383
H116	H	0.931710	-0.637900	0.000079
O117	O	1.176717	0.003376	0.752153
C118	C	1.164565	0.014769	0.850797
H119	H	1.095670	0.043887	0.864412
H120	H	1.170022	-0.044432	0.888679
H121	H	1.218177	0.054062	0.879066
O122	O	0.952857	0.212713	0.555692
C123	C	0.902732	0.259556	0.621039
H124	H	0.939478	0.260492	0.692073
H125	H	0.893835	0.321980	0.592235
H126	H	0.834351	0.234074	0.631650
