data_functionalizedCrystal
_audit_creation_method	'MofGen! by Chris Wilmer'
_symmetry_space_group_name_H-M	'P1'
_symmetry_Int_Tables_number	1
_symmetry_cell_setting	triclinic
loop_
_symmetry_equiv_pos_as_xyz
  x,y,z
_cell_length_a	14.395555
_cell_length_b	14.395555
_cell_length_c	17.052862
_cell_angle_alpha	70.265057
_cell_angle_beta	90.001611
_cell_angle_gamma	59.996404
loop_
_atom_site_label
_atom_site_type_symbol
_atom_site_fract_x
_atom_site_fract_y
_atom_site_fract_z
Zr1	Zr	0.911150	0.984197	-0.091209
O2	O	0.782647	1.138333	-0.202238
O3	O	0.950551	0.802555	-0.057173
O4	O	0.976460	0.944524	-0.202231
O5	O	0.736292	1.037251	0.057244
O6	O	1.129333	0.944519	-0.202225
O7	O	0.756739	0.996364	-0.057181
O8	O	1.082987	0.690562	0.057257
O9	O	0.782638	1.291208	-0.202238
O10	O	1.081432	0.887451	-0.042652
O11	O	0.952086	0.917969	0.042736
O12	O	0.982590	1.085119	-0.128050
O13	O	0.853243	1.115637	-0.042661
Zr14	Zr	1.122354	1.049401	0.091294
Zr15	Zr	1.154964	0.984190	-0.091200
Zr16	Zr	0.878539	1.049408	0.091284
Zr17	Zr	0.911134	1.228016	-0.091209
Zr18	Zr	1.122369	0.805582	0.091293
O19	O	1.082953	1.231044	0.057258
O20	O	1.129321	1.138322	-0.202224
O21	O	0.736280	1.231054	0.057244
O22	O	1.250856	0.895265	0.202323
O23	O	1.297224	0.802544	-0.057159
O24	O	0.904183	0.895276	0.202309
O25	O	1.297212	0.996347	-0.057159
O26	O	1.057044	1.089074	0.202315
O27	O	0.904171	1.089079	0.202309
O28	O	1.276765	1.037234	0.057265
O29	O	0.976438	1.291202	-0.202230
O30	O	1.057066	0.742396	0.202315
O31	O	1.250866	0.742390	0.202322
O32	O	1.276787	0.690556	0.057264
O33	O	0.756717	1.343042	-0.057180
O34	O	0.950517	1.343036	-0.057172
O35	O	1.050914	0.948479	0.128134
O36	O	1.180260	0.917962	0.042746
O37	O	1.081418	1.115629	-0.042652
O38	O	0.952071	1.146147	0.042737
C39	C	1.016771	0.711819	0.000042
C40	C	1.016777	0.608312	0.000042
C41	C	1.087278	0.469187	-0.046518
C42	C	0.986048	0.595256	-0.080275
C43	C	1.117994	0.483639	0.033759
C44	C	0.915441	0.550039	-0.033761
C45	C	1.047457	0.438364	0.080318
C46	C	0.946160	0.564431	0.046581
C47	C	0.711777	1.016809	0.000030
C48	C	0.608271	1.016812	0.000026
C49	C	0.493788	1.124592	-0.046529
C50	C	0.468985	1.050340	-0.080269
C51	C	0.448652	1.091056	0.033759
C52	C	0.584840	0.942542	-0.033760
C53	C	0.564495	0.983293	0.080312
C54	C	0.539763	0.908957	0.046593
C55	C	1.321727	1.016790	0.000054
C56	C	1.425233	1.016786	0.000058
C57	C	1.057542	0.935230	-0.228229
C58	C	1.071386	0.907547	-0.305702
C59	C	1.016733	1.321779	0.000043
C60	C	1.016726	1.425286	0.000043
C61	C	0.904014	1.242243	-0.702398
C62	C	0.891001	1.268257	-0.629609
C63	C	0.936096	1.178082	-0.548630
C64	C	0.994207	1.061888	-0.540444
C65	C	1.007215	1.035871	-0.613240
C66	C	1.039297	0.971710	-0.459471
C67	C	1.097408	0.855516	-0.451286
C68	C	1.110413	0.829505	-0.524075
C69	C	1.065318	0.919680	-0.605055
C70	C	1.026289	0.997727	-0.386676
C71	C	1.129490	0.791355	-0.297518
C72	C	1.142503	0.765341	-0.370306
C73	C	0.975961	1.098368	0.228314
C74	C	0.962117	1.126052	0.305787
C75	C	1.321746	0.711810	0.000054
C76	C	1.425258	0.608299	0.000058
C77	C	0.975980	0.793388	0.228313
C78	C	0.962143	0.717565	0.305786
C79	C	1.280955	0.793379	0.228325
C80	C	1.370624	0.717552	0.305802
C81	C	0.752548	1.240219	-0.228241
C82	C	0.662880	1.316046	-0.305718
C83	C	0.711758	1.321788	0.000031
C84	C	0.608245	1.425299	0.000027
C85	C	1.057523	1.240210	-0.228229
C86	C	1.071361	1.316034	-0.305702
C87	C	1.007230	0.697886	0.386753
C88	C	0.994223	0.626658	0.459554
C89	C	0.936134	0.575103	0.451386
C90	C	0.891041	0.594788	0.370411
C91	C	0.904042	0.666022	0.297612
C92	C	1.480261	0.666013	0.297614
C93	C	1.564524	0.594777	0.370405
C94	C	1.539148	0.575074	0.451384
C95	C	1.429500	0.626622	0.459570
C96	C	1.345239	0.697863	0.386780
C97	C	0.553243	1.367597	-0.297530
C98	C	0.468980	1.438863	-0.370321
C99	C	0.494355	1.458571	-0.451299
C100	C	0.604004	1.407017	-0.459486
C101	C	0.688265	1.335759	-0.386695
C102	C	1.129456	1.367568	-0.297507
C103	C	1.142479	1.438801	-0.370294
C104	C	1.097399	1.458507	-0.451275
C105	C	1.039301	1.406964	-0.459468
C106	C	1.026286	1.335725	-0.386682
C107	C	1.539740	0.564366	0.046598
C108	C	1.564584	0.438302	0.080321
C109	C	1.584856	0.549966	-0.033706
C110	C	1.448730	0.483552	0.033828
C111	C	1.469014	0.595275	-0.080243
C112	C	1.493788	0.469213	-0.046540
H113	H	0.886447	0.605561	0.085946
Cl114	Cl	1.207411	0.762641	0.397088
H115	H	0.843687	1.362863	-0.636280
Cl116	Cl	1.358501	0.441553	0.077987
Cl117	Cl	0.521313	1.342838	-0.195737
H118	H	0.475383	1.215707	-0.085960
Cl119	Cl	0.405077	1.094071	-0.185073
H120	H	0.867298	1.315651	-0.768334
Cl121	Cl	1.250182	0.441908	0.077787
H122	H	0.379706	1.480828	-0.363639
H123	H	0.390047	1.153853	0.062275
H124	H	0.425734	1.516596	-0.510563
Cl125	Cl	1.050925	0.601922	0.561340
Cl126	Cl	1.512190	0.690774	0.195822
Cl127	Cl	1.645091	0.485507	0.542884
H128	H	1.146839	0.427985	-0.085939
Cl129	Cl	1.628525	0.334254	0.185116
Cl130	Cl	0.675097	0.845667	-0.077932
H131	H	0.558391	0.817736	0.085967
Cl132	Cl	0.628405	0.939622	0.185097
H133	H	0.978972	1.092333	-0.393349
H134	H	1.475169	0.428124	-0.085922
H135	H	0.925496	1.199270	-0.489364
Cl136	Cl	1.113767	1.548073	-0.542771
Cl137	Cl	0.982623	1.431760	-0.561280
Cl138	Cl	0.919802	0.485551	0.542915
H139	H	1.643427	0.577012	-0.062233
Cl140	Cl	1.081676	0.886981	-0.696567
Cl141	Cl	1.397617	0.601839	0.561378
H142	H	0.843744	0.552802	0.363774
H143	H	1.157722	0.734892	-0.517405
Cl144	Cl	0.847359	0.690742	0.195828
H145	H	1.558133	0.605529	0.086036
H146	H	1.189817	0.670735	-0.363653
H147	H	0.829794	0.577231	-0.062358
Cl148	Cl	1.186142	1.342811	-0.195711
Cl149	Cl	0.953234	1.270958	-0.396999
H150	H	0.777535	1.293783	-0.393372
H151	H	0.960071	0.662613	-0.148164
H152	H	0.624653	1.423073	-0.525427
H153	H	1.189784	1.480764	-0.363606
H154	H	1.166206	0.717927	-0.231581
H155	H	1.427598	0.662694	-0.148105
Cl156	Cl	1.702357	0.529981	0.360094
Cl157	Cl	1.087608	0.334322	0.185112
H158	H	1.054531	0.739857	0.393419
