data_functionalizedCrystal
_audit_creation_method	'MofGen! by Chris Wilmer'
_symmetry_space_group_name_H-M	'P1'
_symmetry_Int_Tables_number	1
_symmetry_cell_setting	triclinic
loop_
_symmetry_equiv_pos_as_xyz
  x,y,z
_cell_length_a	6.817900
_cell_length_b	19.453172
_cell_length_c	19.453114
_cell_angle_alpha	96.317064
_cell_angle_beta	101.709288
_cell_angle_gamma	101.710488
loop_
_atom_site_label
_atom_site_type_symbol
_atom_site_fract_x
_atom_site_fract_y
_atom_site_fract_z
V1	V	-3.998005	-0.097914	-0.219330
O2	O	-3.995098	0.003953	-0.214817
O3	O	-3.941032	-0.193423	-0.218154
O4	O	-3.941025	-0.096738	-0.314839
O5	O	-3.995104	-0.093402	-0.117463
V6	V	-4.483855	-0.085691	-0.207106
O7	O	-4.254158	-0.124727	-0.246143
O8	O	-4.677900	-0.058877	-0.180293
O9	O	-4.317622	0.009819	-0.208281
O10	O	-4.604159	-0.187557	-0.211619
O11	O	-4.604153	-0.090203	-0.308973
O12	O	-4.317628	-0.086867	-0.111597
C13	C	-3.784225	-0.216696	-0.214778
C14	C	-3.818872	-0.294778	-0.214454
C15	C	-4.247899	-0.855852	-0.216325
C16	C	-4.215361	-0.782485	-0.216625
C17	C	-4.017282	-0.742102	-0.212598
C18	C	-3.851722	-0.775088	-0.208253
C19	C	-3.884261	-0.848452	-0.207947
N20	N	-3.850595	-0.630535	-0.250130
N21	N	-3.819697	-0.560842	-0.250423
C22	C	-3.919231	-0.521058	-0.213521
N23	N	-4.050866	-0.553601	-0.176325
N24	N	-4.081774	-0.623301	-0.176035
C25	C	-3.981978	-0.662549	-0.212930
C26	C	-4.049499	-0.408526	-0.218186
C27	C	-4.016951	-0.335157	-0.218482
C28	C	-3.653311	-0.327762	-0.210117
C29	C	-3.685861	-0.401129	-0.209815
C30	C	-3.883960	-0.441507	-0.213853
C31	C	-3.784216	-0.093364	-0.338108
C32	C	-3.818856	-0.093034	-0.416189
C33	C	-4.016595	-0.096405	-0.456457
C34	C	-4.049143	-0.096096	-0.529823
C35	C	-3.883948	-0.092429	-0.562920
C36	C	-3.686179	-0.089054	-0.522641
C37	C	-3.653632	-0.089356	-0.449276
N38	N	-3.820875	-0.129523	-0.681834
N39	N	-3.851806	-0.129238	-0.751529
C40	C	-3.981996	-0.091516	-0.783965
N41	N	-4.080122	-0.054100	-0.744076
N42	N	-4.049196	-0.054389	-0.674375
C43	C	-3.919218	-0.092100	-0.642472
C44	C	-4.215040	-0.094551	-0.903785
C45	C	-4.247579	-0.094237	-0.977151
C46	C	-3.884612	-0.087202	-0.969969
C47	C	-3.852075	-0.087509	-0.896603
C48	C	-4.017299	-0.091187	-0.863516
C49	C	-4.137771	0.033088	-0.211656
C50	C	-4.082361	0.111169	-0.211984
C51	C	-4.137780	-0.090243	-0.088324
C52	C	-4.082379	-0.090569	-0.010242
H53	H	-4.210802	-0.441404	-0.221470
C54	C	-3.365855	-0.144162	-0.430260
C55	C	-3.436254	-0.085667	-0.405022
H56	H	-3.231656	-0.141889	-0.402940
H57	H	-3.361628	-0.143446	-0.478685
H58	H	-3.456527	-0.186822	-0.426260
H59	H	-3.345591	-0.043006	-0.409028
H60	H	-3.440468	-0.086377	-0.356586
H61	H	-4.151759	-0.308307	-0.222013
C62	C	-4.327814	-0.160545	-0.626167
C63	C	-4.266512	-0.099810	-0.574107
H64	H	-4.462000	-0.162836	-0.653509
H65	H	-4.328985	-0.201678	-0.603944
H66	H	-4.234044	-0.158304	-0.656362
H67	H	-4.360274	-0.102054	-0.543909
H68	H	-4.265356	-0.058666	-0.596332
C69	C	-4.419499	-0.713896	-0.282486
C70	C	-4.397333	-0.746226	-0.221399
H71	H	-4.531836	-0.691510	-0.285430
H72	H	-4.444843	-0.748894	-0.323330
H73	H	-4.296858	-0.679348	-0.280119
H74	H	-4.519969	-0.780777	-0.223768
H75	H	-4.372002	-0.711224	-0.180545
C76	C	-3.554537	-0.855107	-0.140067
C77	C	-3.702288	-0.884706	-0.203180
H78	H	-3.442190	-0.877488	-0.137129
H79	H	-3.614367	-0.862127	-0.100597
H80	H	-3.506825	-0.805635	-0.139678
H81	H	-3.750011	-0.934177	-0.203567
H82	H	-3.642449	-0.877692	-0.242660
H83	H	-3.551676	-0.086067	-0.549593
C84	C	-3.441967	-0.212019	-0.206870
C85	C	-3.435577	-0.283380	-0.205687
H86	H	-3.307541	-0.184619	-0.204135
H87	H	-3.491124	-0.194992	-0.167495
H88	H	-3.531549	-0.208052	-0.249789
H89	H	-3.346007	-0.287348	-0.162765
H90	H	-3.386393	-0.300412	-0.245065
H91	H	-4.349574	-0.097543	-0.876844
H92	H	-4.408603	-0.096977	-1.009936
H93	H	-3.750103	-0.084211	-0.996914
H94	H	-4.151135	-0.099397	-0.429523
C95	C	-3.356138	-0.407781	-0.141942
C96	C	-3.503894	-0.437383	-0.205054
H97	H	-3.243788	-0.430159	-0.139005
H98	H	-3.415961	-0.414799	-0.102471
H99	H	-3.308433	-0.358308	-0.141556
H100	H	-3.551611	-0.486854	-0.205438
H101	H	-3.444062	-0.430370	-0.244536
C102	C	-3.636581	-0.144532	-0.819651
C103	C	-3.634713	-0.083858	-0.852364
H104	H	-3.502384	-0.142286	-0.792345
H105	H	-3.678346	-0.185712	-0.854990
H106	H	-3.730260	-0.146737	-0.789424
H107	H	-3.541045	-0.081656	-0.882595
H108	H	-3.592923	-0.042667	-0.817021
H109	H	-3.690442	-0.742202	-0.204974
H110	H	-4.409203	-0.888724	-0.219611
