data_functionalizedCrystal
_audit_creation_method	'MofGen! by Chris Wilmer'
_symmetry_space_group_name_H-M	'P1'
_symmetry_Int_Tables_number	1
_symmetry_cell_setting	triclinic
loop_
_symmetry_equiv_pos_as_xyz
  x,y,z
_cell_length_a	19.077236
_cell_length_b	12.827892
_cell_length_c	19.076919
_cell_angle_alpha	87.724655
_cell_angle_beta	90.112677
_cell_angle_gamma	92.308321
loop_
_atom_site_label
_atom_site_type_symbol
_atom_site_fract_x
_atom_site_fract_y
_atom_site_fract_z
Zn1	Zn	1.058331	-0.379340	0.440559
Zn2	Zn	1.558331	0.120660	0.940559
Zn3	Zn	1.062989	-0.546809	0.323059
Zn4	Zn	1.562989	-0.046809	0.823059
Zn5	Zn	0.945547	-0.378792	0.318339
Zn6	Zn	1.445547	0.121208	0.818339
Zn7	Zn	0.940809	-0.560751	0.435798
Zn8	Zn	1.440809	-0.060751	0.935798
O9	O	1.001919	-0.466423	0.379439
O10	O	1.501919	0.033577	0.879439
O11	O	1.157282	-0.395950	0.428940
O12	O	1.657282	0.104050	0.928940
O13	O	1.051341	-0.518458	0.224102
O14	O	1.551341	-0.018458	0.724102
O15	O	0.960541	-0.232628	0.334568
O16	O	1.460541	0.267372	0.834568
O17	O	1.160704	-0.518989	0.342614
O18	O	1.660704	-0.018989	0.842614
O19	O	1.043403	-0.233030	0.424362
O20	O	1.543403	0.266970	0.924362
O21	O	0.965057	-0.395016	0.220634
O22	O	1.465057	0.104984	0.720634
O23	O	0.846585	-0.408534	0.329952
O24	O	1.346585	0.091466	0.829952
O25	O	0.952467	-0.542750	0.534761
O26	O	1.452467	-0.042750	1.034761
O27	O	0.843105	-0.542219	0.416249
O28	O	1.343105	-0.042219	0.916249
O29	O	1.038810	-0.409468	0.538258
O30	O	1.538810	0.090532	1.038258
O31	O	1.046748	-0.694896	0.337998
O32	O	1.546748	-0.194896	0.837998
O33	O	0.956983	-0.705139	0.420826
O34	O	1.456983	-0.205139	0.920826
C35	C	0.819348	-0.476831	0.372072
C36	C	1.319348	0.023169	0.872072
C37	C	0.741243	-0.481310	0.368937
C38	C	1.241243	0.018690	0.868937
C39	C	0.702765	-0.419464	0.412478
C40	C	1.202765	0.080536	0.912478
C41	C	0.629377	-0.423667	0.409527
C42	C	1.129377	0.076333	0.909527
C43	C	0.594468	-0.489721	0.363037
C44	C	1.094468	0.010279	0.863037
C45	C	0.632951	-0.551569	0.319491
C46	C	1.132951	-0.051569	0.819491
C47	C	0.706338	-0.547360	0.322440
C48	C	1.206338	-0.047360	0.822440
C49	C	0.375177	-0.509162	0.349389
C50	C	0.875177	-0.009162	0.849389
C51	C	0.301785	-0.513369	0.346445
C52	C	0.801785	-0.013369	0.846445
C53	C	0.298216	-0.385464	0.436480
C54	C	0.798216	0.114536	0.936480
C55	C	0.371604	-0.381266	0.439427
C56	C	0.871604	0.118734	0.939427
C57	C	0.410081	-0.443109	0.395879
C58	C	0.910081	0.056891	0.895879
N59	N	0.519454	-0.494021	0.360021
N60	N	1.019454	0.005979	0.860021
N61	N	0.485094	-0.438803	0.398892
N62	N	0.985094	0.061197	0.898892
C63	C	1.001876	-0.737935	0.379424
C64	C	1.501876	-0.237935	0.879424
C65	C	1.001920	-0.854086	0.379444
C66	C	1.501920	-0.354086	0.879444
C67	C	1.042903	-0.905990	0.423914
C68	C	1.542903	-0.405990	0.923914
C69	C	1.042950	-1.026039	0.423936
C70	C	1.542950	-0.526039	0.923936
C71	C	1.185203	-0.455975	0.386834
C72	C	1.685203	0.044025	0.886834
C73	C	1.263307	-0.451523	0.389986
C74	C	1.763307	0.048477	0.889986
C75	C	0.994591	-0.477726	0.562718
C76	C	1.494591	0.022274	1.062718
C77	C	0.991468	-0.482542	0.640821
C78	C	1.491468	0.017458	1.140821
C79	C	1.001981	-0.193851	0.379470
C80	C	1.501981	0.306149	0.879470
C81	C	1.002008	-0.077697	0.379483
C82	C	1.502008	0.422303	0.879483
C83	C	1.009259	-0.455087	0.196874
C84	C	1.509259	0.044913	0.696874
C85	C	1.012518	-0.449968	0.118776
C86	C	1.512518	0.050032	0.618776
C87	C	1.034952	-0.415415	0.679336
C88	C	1.534952	0.084585	1.179336
C89	C	1.032009	-0.419937	0.752722
C90	C	1.532009	0.080063	1.252722
C91	C	0.985585	-0.491592	0.787591
C92	C	1.485585	0.008408	1.287591
C93	C	0.942096	-0.558722	0.749071
C94	C	1.442096	-0.058722	1.249071
C95	C	0.945035	-0.554194	0.675687
C96	C	1.445035	-0.054194	1.175687
C97	C	0.971969	-0.512570	1.006872
C98	C	1.471969	-0.012570	1.506872
C99	C	0.969034	-0.517095	1.080262
C100	C	1.469034	-0.017095	1.580262
C101	C	1.058947	-0.378309	1.083907
C102	C	1.558947	0.121691	1.583907
C103	C	1.061886	-0.373791	1.010521
C104	C	1.561886	0.126209	1.510521
C105	C	1.018394	-0.440917	0.972007
C106	C	1.518394	0.059083	1.472007
N107	N	0.982577	-0.496218	0.862603
N108	N	1.482577	0.003782	1.362603
N109	N	1.021398	-0.436285	0.896997
N110	N	1.521398	0.063715	1.396997
H111	H	0.731183	-0.365678	0.450337
H112	H	1.231183	0.134322	0.950337
H113	H	0.966865	-0.898525	0.341390
H114	H	1.466865	-0.398525	0.841390
Br115	Br	1.101317	-0.831935	0.487359
Br116	Br	1.601317	-0.331935	0.987359
H117	H	1.099691	-0.315445	0.982136
H118	H	1.599691	0.184555	1.482136
H119	H	1.067421	-0.365278	0.784078
H120	H	1.567421	0.134722	1.284078
H121	H	0.737666	-0.597721	0.286983
H122	H	1.237666	-0.097721	0.786983
H123	H	0.406496	-0.559520	0.313929
H124	H	0.906496	-0.059520	0.813929
H125	H	0.966922	-1.033069	0.341405
H126	H	1.466922	-0.533069	0.841405
H127	H	1.078039	-1.070675	0.462006
H128	H	1.578039	-0.570675	0.962006
H129	H	1.072758	-0.357069	0.650951
H130	H	1.572758	0.142931	1.150951
Br131	Br	1.117967	-0.287213	1.136179
Br132	Br	1.617967	0.212787	1.636179
H133	H	0.931227	-0.575447	1.108650
H134	H	1.431227	-0.075447	1.608650
H135	H	0.400022	-0.327481	0.477287
H136	H	0.900022	0.172519	0.977287
Br137	Br	0.879086	-0.655963	0.796393
Br138	Br	1.379086	-0.155963	1.296393
Br139	Br	0.577160	-0.339731	0.468622
Br140	Br	1.077160	0.160269	0.968622
Br141	Br	0.245994	-0.301538	0.495578
Br142	Br	0.745994	0.198462	0.995578
Br143	Br	0.254408	-0.603051	0.283367
Br144	Br	0.754408	-0.103051	0.783367
H145	H	0.604523	-0.605347	0.281635
H146	H	1.104523	-0.105347	0.781635
Br147	Br	0.912942	-0.603668	0.954612
Br148	Br	1.412942	-0.103668	1.454612
Br149	Br	0.886014	-0.645292	0.623415
Br150	Br	1.386014	-0.145292	1.123415
