data_functionalizedCrystal
_audit_creation_method	'MofGen! by Chris Wilmer'
_symmetry_space_group_name_H-M	'P1'
_symmetry_Int_Tables_number	1
_symmetry_cell_setting	triclinic
loop_
_symmetry_equiv_pos_as_xyz
  x,y,z
_cell_length_a	16.959453
_cell_length_b	16.625548
_cell_length_c	16.959447
_cell_angle_alpha	90.019827
_cell_angle_beta	89.968822
_cell_angle_gamma	89.975320
loop_
_atom_site_label
_atom_site_type_symbol
_atom_site_fract_x
_atom_site_fract_y
_atom_site_fract_z
Zn1	Zn	-0.314668	-1.232647	-0.446965
Zn2	Zn	0.185332	-0.732647	0.053035
Zn3	Zn	-0.446861	-1.232551	-0.314785
Zn4	Zn	0.053139	-0.732551	0.185215
Zn5	Zn	-0.314700	-1.097815	-0.314796
Zn6	Zn	0.185300	-0.597815	0.185204
Zn7	Zn	-0.446808	-1.097774	-0.446917
Zn8	Zn	0.053192	-0.597774	0.053083
O9	O	-0.380759	-1.165197	-0.380866
O10	O	0.119241	-0.665197	0.119134
O11	O	-0.332213	-1.345467	-0.429447
O12	O	0.167787	-0.845467	0.070553
O13	O	-0.429365	-1.214655	-0.204175
O14	O	0.070635	-0.714655	0.295825
O15	O	-0.204085	-1.115758	-0.332354
O16	O	0.295915	-0.615758	0.167646
O17	O	-0.429334	-1.345396	-0.332334
O18	O	0.070666	-0.845396	0.167666
O19	O	-0.204062	-1.214819	-0.429458
O20	O	0.295938	-0.714819	0.070542
O21	O	-0.332267	-1.115665	-0.204184
O22	O	0.167733	-0.615665	0.295816
O23	O	-0.332216	-0.984977	-0.332307
O24	O	0.167784	-0.484977	0.167693
O25	O	-0.429244	-1.115688	-0.557534
O26	O	0.070756	-0.615688	-0.057534
O27	O	-0.429275	-0.984947	-0.429375
O28	O	0.070725	-0.484947	0.070625
O29	O	-0.332162	-1.214779	-0.557570
O30	O	0.167838	-0.714779	-0.057570
O31	O	-0.557465	-1.214615	-0.332288
O32	O	-0.057465	-0.714615	0.167712
O33	O	-0.557426	-1.115595	-0.429364
O34	O	-0.057426	-0.615595	0.070636
C35	C	-0.586126	-1.165112	-0.380837
C36	C	-0.086126	-0.665112	0.119163
C37	C	-0.673982	-1.165149	-0.380851
C38	C	-0.173982	-0.665149	0.119149
C39	C	-0.380744	-0.955706	-0.380837
C40	C	0.119256	-0.455706	0.119163
C41	C	-0.380756	-0.866085	-0.380844
C42	C	0.119244	-0.366085	0.119156
C43	C	-0.715265	-1.113569	-0.431358
C44	C	-0.215265	-0.613569	0.068642
C45	C	-0.715253	-1.216770	-0.330361
C46	C	-0.215253	-0.716770	0.169639
C47	C	-0.797799	-1.216810	-0.330375
C48	C	-0.297799	-0.716810	0.169625
C49	C	-0.839082	-1.165229	-0.380883
C50	C	-0.339082	-0.665229	0.119117
C51	C	-0.797819	-1.113609	-0.431376
C52	C	-0.297819	-0.613609	0.068624
C53	C	-0.839068	-1.268435	-0.279888
C54	C	-0.339068	-0.768435	0.220112
C55	C	-0.921619	-1.268478	-0.279901
C56	C	-0.421619	-0.768478	0.220099
C57	C	-0.962903	-1.216893	-0.330405
C58	C	-0.462903	-0.716893	0.169595
C59	C	-0.921635	-1.165270	-0.380900
C60	C	-0.421635	-0.665270	0.119100
C61	C	-0.962918	-1.113689	-0.431408
C62	C	-0.462918	-0.613689	0.068592
C63	C	-0.921652	-1.062061	-0.481899
C64	C	-0.421652	-0.562061	0.018101
C65	C	-0.839103	-1.062024	-0.481880
C66	C	-0.339103	-0.562024	0.018120
C67	C	-1.045452	-1.216930	-0.330424
C68	C	-0.545452	-0.716930	0.169576
C69	C	-1.045472	-1.113729	-0.431425
C70	C	-0.545472	-0.613729	0.068575
C71	C	-0.380755	-0.537909	-0.380868
C72	C	0.119245	-0.037909	0.119132
C73	C	-0.380753	-0.629218	-0.380859
C74	C	0.119247	-0.129218	0.119141
C75	C	-0.380756	-0.701994	-0.380855
C76	C	0.119244	-0.201994	0.119145
C77	C	-0.380753	-0.793308	-0.380847
C78	C	0.119247	-0.293308	0.119153
C79	C	-0.174591	-1.165304	-0.380912
C80	C	0.325409	-0.665304	0.119088
C81	C	-0.086735	-1.165350	-0.380932
C82	C	0.413265	-0.665350	0.119068
C83	C	-0.380694	-1.165240	-0.587034
C84	C	0.119306	-0.665240	-0.087034
C85	C	-0.380666	-1.165258	-0.674891
C86	C	0.119334	-0.665258	-0.174891
C87	C	-0.380770	-0.375506	-0.380887
C88	C	0.119230	0.124494	0.119113
C89	C	-0.380762	-0.465127	-0.380877
C90	C	0.119238	0.034873	0.119123
C91	C	-0.330028	-1.113790	-1.046377
C92	C	0.169972	-0.613790	-0.546377
C93	C	-0.431137	-1.216869	-1.046356
C94	C	0.068863	-0.716869	-0.546356
C95	C	-0.431155	-1.216855	-0.963810
C96	C	0.068845	-0.716855	-0.463810
C97	C	-0.380610	-1.165307	-0.922544
C98	C	0.119390	-0.665307	-0.422544
C99	C	-0.330046	-1.113773	-0.963824
C100	C	0.169954	-0.613773	-0.463824
C101	C	-0.481724	-1.268382	-0.922524
C102	C	0.018276	-0.768382	-0.422524
C103	C	-0.481745	-1.268370	-0.839973
C104	C	0.018255	-0.768370	-0.339973
C105	C	-0.431195	-1.216825	-0.798706
C106	C	0.068805	-0.716825	-0.298706
C107	C	-0.380629	-1.165290	-0.839990
C108	C	0.119371	-0.665290	-0.339990
C109	C	-0.330083	-1.113741	-0.798724
C110	C	0.169917	-0.613741	-0.298724
C111	C	-0.279512	-1.062209	-0.840007
C112	C	0.220488	-0.562209	-0.340007
C113	C	-0.279496	-1.062228	-0.922556
C114	C	0.220504	-0.562228	-0.422556
C115	C	-0.431211	-1.216806	-0.716157
C116	C	0.068789	-0.716806	-0.216157
C117	C	-0.330102	-1.113724	-0.716170
C118	C	0.169898	-0.613724	-0.216170
C119	C	-0.380768	-1.165200	-0.175500
C120	C	0.119232	-0.665200	0.324500
C121	C	-0.380573	-1.165338	-0.087643
C122	C	0.119427	-0.665338	0.412357
H123	H	-1.079078	-1.071725	-0.472555
H124	H	-0.579078	-0.571725	0.027445
H125	H	-0.955275	-1.020068	-0.523026
H126	H	-0.455275	-0.520068	-0.023026
C127	C	-0.537673	-1.324718	-0.967921
C128	C	-0.037673	-0.824718	-0.467921
N129	N	-0.579941	-1.367023	-1.002117
N130	N	-0.079941	-0.867023	-0.502117
C131	C	-0.537348	-1.325082	-0.794569
C132	C	-0.037348	-0.825082	-0.294569
N133	N	-0.579219	-1.367808	-0.760370
N134	N	-0.079219	-0.867808	-0.260370
H135	H	-0.472380	-1.258768	-0.682548
H136	H	0.027620	-0.758768	-0.182548
C137	C	-0.793652	-1.325170	-0.224334
C138	C	-0.293652	-0.825170	0.275666
N139	N	-0.759441	-1.367902	-0.182486
N140	N	-0.259441	-0.867902	0.317514
H141	H	-0.805499	-1.019991	-0.522989
H142	H	-0.305499	-0.519991	-0.022989
C143	C	-0.967004	-1.325262	-0.224353
C144	C	-0.467004	-0.825262	0.275647
N145	N	-1.001190	-1.368029	-0.182511
N146	N	-0.501190	-0.868029	0.317489
C147	C	-0.223911	-1.005512	-0.794604
C148	C	0.276089	-0.505512	-0.294604
N149	N	-0.182031	-0.962811	-0.760402
N150	N	0.317969	-0.462811	-0.260402
C151	C	-0.669872	-1.056782	-0.486898
C152	C	-0.169872	-0.556782	0.013102
N153	N	-0.635681	-1.014011	-0.528732
N154	N	-0.135681	-0.514011	-0.028732
C155	C	-0.669839	-1.273505	-0.274806
C156	C	-0.169839	-0.773505	0.225194
N157	N	-0.635630	-1.316239	-0.232957
N158	N	-0.135630	-0.816239	0.267043
C159	C	-1.090841	-1.273718	-0.274888
C160	C	-0.590841	-0.773718	0.225112
N161	N	-1.125027	-1.316492	-0.233053
N162	N	-0.625027	-0.816492	0.266947
C163	C	-0.274497	-1.057016	-0.670784
C164	C	0.225503	-0.557016	-0.170784
N165	N	-0.232616	-1.014302	-0.636600
N166	N	0.267384	-0.514302	-0.136600
H167	H	-0.238325	-1.020272	-0.956176
H168	H	0.261675	-0.520272	-0.456176
H169	H	-0.288852	-1.071836	-1.079994
H170	H	0.211148	-0.571836	-0.579994
C171	C	-0.486966	-1.273330	-1.091751
C172	C	0.013034	-0.773330	-0.591751
N173	N	-0.529100	-1.315775	-1.125946
N174	N	-0.029100	-0.815775	-0.625946
