data_functionalizedCrystal
_audit_creation_method	'MofGen! by Chris Wilmer'
_symmetry_space_group_name_H-M	'P1'
_symmetry_Int_Tables_number	1
_symmetry_cell_setting	triclinic
loop_
_symmetry_equiv_pos_as_xyz
  x,y,z
_cell_length_a	15.944551
_cell_length_b	19.288865
_cell_length_c	18.366186
_cell_angle_alpha	89.988521
_cell_angle_beta	89.995445
_cell_angle_gamma	83.317493
loop_
_atom_site_label
_atom_site_type_symbol
_atom_site_fract_x
_atom_site_fract_y
_atom_site_fract_z
O1	O	1.114185	0.089583	-0.060482
O2	O	1.447518	0.422916	0.272851
O3	O	1.780851	0.756250	0.606184
O4	O	0.869592	0.100628	-0.060501
O5	O	1.202926	0.433961	0.272832
O6	O	1.536259	0.767294	0.606165
O7	O	0.998956	-0.006006	-0.060477
O8	O	1.332289	0.327327	0.272856
O9	O	1.665623	0.660660	0.606190
O10	O	0.984821	0.196217	-0.060507
O11	O	1.318154	0.529550	0.272826
O12	O	1.651488	0.862884	0.606160
O13	O	0.998934	-0.006012	0.060622
O14	O	1.332267	0.327322	0.393956
O15	O	1.665601	0.660655	0.727289
O16	O	0.869570	0.100622	0.060598
O17	O	1.202904	0.433956	0.393931
O18	O	1.536237	0.767289	0.727265
O19	O	1.114163	0.089578	0.060617
O20	O	1.447496	0.422911	0.393950
O21	O	1.780829	0.756244	0.727284
Zn22	Zn	0.991863	0.095099	0.079835
Zn23	Zn	1.325196	0.428433	0.413168
Zn24	Zn	1.658530	0.761766	0.746501
Zn25	Zn	0.991892	0.095106	-0.079719
Zn26	Zn	1.325225	0.428440	0.253614
Zn27	Zn	1.658559	0.761773	0.586948
O28	O	0.984799	0.196212	0.060593
O29	O	1.318132	0.529545	0.393926
O30	O	1.651466	0.862878	0.727259
C31	C	0.998490	-0.031887	0.000075
C32	C	1.331824	0.301447	0.333408
C33	C	1.665157	0.634780	0.666742
C34	C	0.997125	-0.108994	0.000081
C35	C	1.330458	0.224340	0.333415
C36	C	1.663792	0.557673	0.666748
C37	C	0.838289	0.100167	0.000046
C38	C	1.171623	0.433500	0.333379
C39	C	1.504956	0.766833	0.666713
C40	C	0.745048	0.098792	0.000039
C41	C	1.078382	0.432125	0.333373
C42	C	1.411715	0.765459	0.666706
C43	C	1.073030	-0.153490	0.000091
C44	C	1.406363	0.179843	0.333424
C45	C	1.739696	0.513177	0.666757
C46	C	1.071747	-0.225941	0.000079
C47	C	1.405080	0.107393	0.333412
C48	C	1.738414	0.440726	0.666746
C49	C	0.994555	-0.253891	0.000073
C50	C	1.327889	0.079442	0.333406
C51	C	1.661222	0.412775	0.666739
C52	C	0.918641	-0.209385	0.000059
C53	C	1.251974	0.123948	0.333392
C54	C	1.585307	0.457281	0.666726
C55	C	0.919925	-0.136936	0.000063
C56	C	1.253259	0.196397	0.333397
C57	C	1.586592	0.529730	0.666730
C58	C	0.933866	-0.362341	0.042486
C59	C	1.267199	-0.029007	0.375820
C60	C	1.600532	0.304326	0.709153
C61	C	0.932584	-0.434788	0.042486
C62	C	1.265918	-0.101455	0.375820
C63	C	1.599251	0.231878	0.709153
C64	C	0.990589	-0.477347	0.000056
C65	C	1.323923	-0.144014	0.333389
C66	C	1.657256	0.189319	0.666723
C67	C	1.049890	-0.447451	-0.042365
C68	C	1.383223	-0.114118	0.290968
C69	C	1.716557	0.219215	0.624301
C70	C	1.051175	-0.375003	-0.042361
C71	C	1.384508	-0.041669	0.290972
C72	C	1.717842	0.291664	0.624306
C73	C	0.993153	-0.332449	0.000067
C74	C	1.326487	0.000884	0.333401
C75	C	1.659820	0.334218	0.666734
C76	C	1.065108	-0.600404	0.000052
C77	C	1.398442	-0.267070	0.333385
C78	C	1.731775	0.066263	0.666719
C79	C	1.063822	-0.672855	0.000036
C80	C	1.397156	-0.339522	0.333369
C81	C	1.730489	-0.006188	0.666702
C82	C	0.910714	-0.656298	0.000023
C83	C	1.244047	-0.322965	0.333356
C84	C	1.577381	0.010369	0.666690
C85	C	0.912002	-0.583848	0.000032
C86	C	1.245335	-0.250515	0.333365
C87	C	1.578669	0.082819	0.666698
C88	C	0.989201	-0.555906	0.000050
C89	C	1.322535	-0.222572	0.333383
C90	C	1.655868	0.110761	0.666716
C91	C	0.530459	0.029410	0.000064
C92	C	0.863792	0.362743	0.333397
C93	C	1.197126	0.696076	0.666730
C94	C	0.469326	0.061631	-0.059649
C95	C	0.802659	0.394964	0.273684
C96	C	1.135992	0.728298	0.607017
C97	C	0.574332	0.096305	0.000048
C98	C	0.907665	0.429638	0.333382
C99	C	1.240999	0.762972	0.666715
C100	C	0.469326	0.061642	0.059745
C101	C	0.802659	0.394975	0.393078
C102	C	1.135993	0.728308	0.726412
C103	C	0.409429	0.093898	0.000060
C104	C	0.742762	0.427231	0.333393
C105	C	1.076095	0.760565	0.666727
C106	C	0.514427	0.128545	-0.059714
C107	C	0.847760	0.461878	0.273619
C108	C	1.181094	0.795212	0.606952
C109	C	0.514434	0.128546	0.059734
C110	C	0.847767	0.461880	0.393067
C111	C	1.181101	0.795213	0.726401
C112	C	0.453318	0.160816	0.000006
C113	C	0.786651	0.494150	0.333340
C114	C	1.119985	0.827483	0.666673
C115	C	0.669329	0.097690	0.000041
C116	C	1.002662	0.431023	0.333374
C117	C	1.335996	0.764357	0.666707
C118	C	0.314433	0.092519	0.000062
C119	C	0.647766	0.425852	0.333396
C120	C	0.981100	0.759185	0.666729
C121	C	1.145466	0.090039	0.000068
C122	C	1.478799	0.423372	0.333401
C123	C	1.812132	0.756706	0.666735
C124	C	1.238706	0.091414	0.000070
C125	C	1.572040	0.424747	0.333403
C126	C	1.905373	0.758080	0.666737
C127	C	0.985265	0.222092	0.000039
C128	C	1.318598	0.555425	0.333372
C129	C	1.651931	0.888759	0.666706
C130	C	0.986630	0.299199	0.000028
C131	C	1.319963	0.632533	0.333361
C132	C	1.653297	0.965866	0.666695
N133	N	0.991849	0.095094	0.188726
N134	N	1.325183	0.428427	0.522059
N135	N	1.658516	0.761761	0.855392
N136	N	0.991912	0.095106	-0.188610
N137	N	1.325245	0.428439	0.144723
N138	N	1.658579	0.761773	0.478056
C139	C	1.049150	0.047900	0.226837
C140	C	1.382484	0.381233	0.560170
C141	C	1.715817	0.714566	0.893504
C142	C	1.049156	0.047897	0.303065
C143	C	1.382489	0.381230	0.636398
C144	C	1.715822	0.714563	0.969732
C145	C	0.991868	0.095100	0.341178
C146	C	1.325201	0.428433	0.674512
C147	C	1.658535	0.761767	1.007845
C148	C	0.934556	0.142298	0.303058
C149	C	1.267890	0.475631	0.636391
C150	C	1.601223	0.808964	0.969725
C151	C	0.934547	0.142295	0.226832
C152	C	1.267880	0.475628	0.560165
C153	C	1.601214	0.808962	0.893498
C154	C	0.980624	0.158358	0.461929
C155	C	1.313957	0.491691	0.795262
C156	C	1.647291	0.825025	1.128596
C157	C	0.980639	0.158362	0.538154
C158	C	1.313972	0.491695	0.871487
C159	C	1.647306	0.825029	1.204821
C160	C	0.991892	0.095109	0.576286
C161	C	1.325225	0.428442	0.909619
C162	C	1.658559	0.761775	1.242953
C163	C	1.003148	0.031849	0.538184
C164	C	1.336481	0.365182	0.871517
C165	C	1.669814	0.698515	1.204850
C166	C	1.003138	0.031846	0.461957
C167	C	1.336472	0.365179	0.795291
C168	C	1.669805	0.698513	1.128624
C169	C	0.991871	0.095108	0.423833
C170	C	1.325205	0.428441	0.757167
C171	C	1.658538	0.761775	1.090500
C172	C	1.049202	0.047907	0.697052
C173	C	1.382535	0.381240	1.030386
C174	C	1.715868	0.714574	1.363719
C175	C	1.049201	0.047903	0.773281
C176	C	1.382535	0.381236	1.106615
C177	C	1.715868	0.714570	1.439948
C178	C	0.934606	0.142310	0.773273
C179	C	1.267939	0.475643	1.106606
C180	C	1.601273	0.808977	1.439940
C181	C	0.934603	0.142308	0.697045
C182	C	1.267936	0.475641	1.030379
C183	C	1.601269	0.808975	1.363712
C184	C	0.991905	0.095107	0.658939
C185	C	1.325238	0.428441	0.992273
C186	C	1.658572	0.761774	1.325606
H187	H	1.133560	-0.262177	0.000084
H188	H	1.466893	0.071157	0.333417
H189	H	1.800226	0.404490	0.666751
H190	H	0.858113	-0.100707	0.000056
H191	H	1.191446	0.232627	0.333389
H192	H	1.524779	0.565960	0.666722
O193	O	0.540964	0.165983	0.126596
O194	O	0.874297	0.499317	0.459930
O195	O	1.207630	0.832650	0.793263
H196	H	0.484499	0.183179	0.160201
H197	H	0.817833	0.516512	0.493535
H198	H	1.151166	0.849845	0.826868
H199	H	0.419945	0.216391	-0.000035
H200	H	0.753279	0.549725	0.333298
H201	H	1.086612	0.883058	0.666631
O202	O	0.872745	0.193198	0.185714
O203	O	1.206079	0.526531	0.519047
O204	O	1.539412	0.859865	0.852381
H205	H	0.883240	0.247354	0.200321
H206	H	1.216574	0.580687	0.533654
H207	H	1.549907	0.914020	0.866988
O208	O	1.148369	-0.570259	0.000063
O209	O	1.481703	-0.236926	0.333396
O210	O	1.815036	0.096407	0.666729
H211	H	1.152619	-0.537629	-0.049289
H212	H	1.485952	-0.204296	0.284044
H213	H	1.819286	0.129037	0.617378
H214	H	0.887946	0.180741	0.666013
H215	H	1.221279	0.514074	0.999346
H216	H	1.554613	0.847408	1.332680
H217	H	1.012310	-0.019658	0.569229
H218	H	1.345644	0.313675	0.902563
H219	H	1.678977	0.647009	1.235896
O220	O	0.442856	0.024154	0.126621
O221	O	0.776189	0.357488	0.459954
O222	O	1.109522	0.690821	0.793287
H223	H	0.474069	-0.030370	0.126498
H224	H	0.807403	0.302963	0.459831
H225	H	1.140736	0.636297	0.793165
H226	H	0.534315	0.156820	-0.110252
H227	H	0.867648	0.490153	0.223081
H228	H	1.200981	0.823487	0.556414
H229	H	0.449334	0.033339	-0.110125
H230	H	0.782667	0.366672	0.223209
H231	H	1.116000	0.700006	0.556542
H232	H	1.095807	0.009465	0.195813
H233	H	1.429141	0.342798	0.529147
H234	H	1.762474	0.676131	0.862480
O235	O	0.830129	-0.535853	0.000029
O236	O	1.163462	-0.202520	0.333363
O237	O	1.496796	0.130813	0.666696
H238	H	0.843990	-0.480780	0.000028
H239	H	1.177323	-0.147447	0.333361
H240	H	1.510657	0.185887	0.666695
H241	H	0.971479	0.209872	0.569171
H242	H	1.304813	0.543205	0.902504
H243	H	1.638146	0.876538	1.235838
O244	O	0.574829	-0.044152	0.000026
O245	O	0.908162	0.289181	0.333359
O246	O	1.241495	0.622515	0.666693
H247	H	0.556876	-0.071758	-0.049602
H248	H	0.890209	0.261575	0.283732
H249	H	1.223543	0.594909	0.617065
H250	H	0.884294	-0.459123	0.077024
H251	H	1.217628	-0.125790	0.410358
H252	H	1.550961	0.207543	0.743691
O253	O	1.110969	-0.003000	0.344185
O254	O	1.444302	0.330333	0.677519
O255	O	1.777636	0.663667	1.010852
H256	H	1.150817	-0.035817	0.304881
H257	H	1.484151	0.297516	0.638215
H258	H	1.817484	0.630849	0.971548
H259	H	1.012301	-0.019662	0.430938
H260	H	1.345634	0.313671	0.764271
H261	H	1.678967	0.647004	1.097604
O262	O	1.110991	-0.003007	0.655943
O263	O	1.444325	0.330326	0.989277
O264	O	1.777658	0.663660	1.322610
H265	H	1.150828	-0.035835	0.695255
H266	H	1.484162	0.297498	1.028588
H267	H	1.817495	0.630832	1.361921
O268	O	0.968483	0.226581	0.420795
O269	O	1.301816	0.559914	0.754128
O270	O	1.635150	0.893248	1.087461
H271	H	1.019715	0.258374	0.435397
H272	H	1.353048	0.591707	0.768730
H273	H	1.686382	0.925041	1.102064
H274	H	1.095860	0.009468	0.804312
H275	H	1.429193	0.342801	1.137646
H276	H	1.762527	0.676135	1.470979
H277	H	0.887911	0.180730	0.334094
H278	H	1.221244	0.514064	0.667427
H279	H	1.554577	0.847397	1.000761
O280	O	1.156291	-0.123350	0.000090
O281	O	1.489624	0.209984	0.333423
O282	O	1.822957	0.543317	0.666756
H283	H	1.208857	-0.166468	0.000084
H284	H	1.542190	0.166866	0.333417
H285	H	1.875524	0.500199	0.666750
O286	O	1.115117	-0.342752	-0.088123
O287	O	1.448450	-0.009419	0.245211
O288	O	1.781783	0.323915	0.578544
H289	H	1.155233	-0.384511	-0.117636
H290	H	1.488566	-0.051178	0.215697
H291	H	1.821900	0.282155	0.549031
O292	O	1.112456	-0.493341	-0.088140
O293	O	1.445789	-0.160008	0.245193
O294	O	1.779123	0.173325	0.578527
H295	H	1.101595	-0.548741	-0.081027
H296	H	1.434928	-0.215408	0.252306
H297	H	1.768262	0.117925	0.585640
O298	O	0.872819	0.193237	0.814359
O299	O	1.206152	0.526570	1.147692
O300	O	1.539486	0.859904	1.481026
H301	H	0.832106	0.163992	0.849109
H302	H	1.165439	0.497325	1.182442
H303	H	1.498772	0.830658	1.515776
O304	O	1.145695	-0.720854	0.000052
O305	O	1.479028	-0.387520	0.333385
O306	O	1.812361	-0.054187	0.666719
H307	H	1.199588	-0.689248	0.000074
H308	H	1.532921	-0.355915	0.333408
H309	H	1.866255	-0.022582	0.666741
H310	H	0.886629	-0.327694	0.077042
H311	H	1.219962	0.005639	0.410376
H312	H	1.553296	0.338973	0.743709
O313	O	0.827453	-0.686432	0.000019
O314	O	1.160786	-0.353099	0.333353
O315	O	1.494120	-0.019766	0.666686
H316	H	0.839310	-0.744287	0.000023
H317	H	1.172643	-0.410954	0.333356
H318	H	1.505977	-0.077620	0.666689
H319	H	0.855790	-0.232147	0.000052
H320	H	1.189124	0.101186	0.333385
H321	H	1.522457	0.434519	0.666719
