data_functionalizedCrystal
_audit_creation_method	'MofGen! by Chris Wilmer'
_symmetry_space_group_name_H-M	'P1'
_symmetry_Int_Tables_number	1
_symmetry_cell_setting	triclinic
loop_
_symmetry_equiv_pos_as_xyz
  x,y,z
_cell_length_a	11.792241
_cell_length_b	10.868271
_cell_length_c	11.792241
_cell_angle_alpha	90.005281
_cell_angle_beta	84.193416
_cell_angle_gamma	90.000107
loop_
_atom_site_label
_atom_site_type_symbol
_atom_site_fract_x
_atom_site_fract_y
_atom_site_fract_z
O1	O	1.506908	0.102203	0.155568
O2	O	1.840242	0.435537	0.488902
O3	O	2.173575	0.768870	0.822235
O4	O	1.176567	0.102232	0.171601
O5	O	1.509901	0.435565	0.504935
O6	O	1.843234	0.768899	0.838268
O7	O	1.349754	0.102208	-0.001586
O8	O	1.683088	0.435542	0.331748
O9	O	2.016421	0.768875	0.665081
O10	O	1.333721	0.102227	0.328755
O11	O	1.667055	0.435560	0.662089
O12	O	2.000388	0.768894	0.995422
O13	O	1.349740	-0.102436	-0.001592
O14	O	1.683073	0.230897	0.331741
O15	O	2.016407	0.564230	0.665074
O16	O	1.176553	-0.102413	0.171595
O17	O	1.509886	0.230921	0.504928
O18	O	1.843220	0.564254	0.838261
O19	O	1.506894	-0.102441	0.155562
O20	O	1.840227	0.230892	0.488895
O21	O	2.173561	0.564225	0.822228
Zn22	Zn	1.341721	-0.134919	0.163577
Zn23	Zn	1.675055	0.198415	0.496910
Zn24	Zn	2.008388	0.531748	0.830244
Zn25	Zn	1.341740	0.134709	0.163586
Zn26	Zn	1.675073	0.468043	0.496919
Zn27	Zn	2.008407	0.801376	0.830253
O28	O	1.333707	-0.102418	0.328749
O29	O	1.667040	0.230916	0.662082
O30	O	2.000374	0.564249	0.995415
C31	C	1.134269	-0.000087	0.170591
C32	C	1.467603	0.333247	0.503924
C33	C	1.800936	0.666580	0.837258
C34	C	1.008255	-0.000076	0.167576
C35	C	1.341589	0.333257	0.500910
C36	C	1.674922	0.666591	0.834243
N37	N	1.341717	-0.318933	0.163570
N38	N	1.675050	0.014400	0.496904
N39	N	2.008383	0.347734	0.830237
C40	C	0.777543	-0.000112	0.162034
C41	C	1.110877	0.333222	0.495367
C42	C	1.444210	0.666555	0.828700
C43	C	0.905928	-0.000092	0.165113
C44	C	1.239262	0.333241	0.498447
C45	C	1.572595	0.666575	0.831780
C46	C	1.341734	-0.569939	0.163584
C47	C	1.675068	-0.236606	0.496917
C48	C	2.008401	0.096728	0.830250
C49	C	1.341721	-0.430261	0.163580
C50	C	1.675054	-0.096928	0.496913
C51	C	2.008387	0.236405	0.830246
C52	C	1.549192	-0.000120	0.156572
C53	C	1.882525	0.333213	0.489905
C54	C	2.215859	0.666547	0.823239
C55	C	1.675206	-0.000123	0.159587
C56	C	2.008539	0.333211	0.492920
C57	C	2.341873	0.666544	0.826253
C58	C	1.348740	-0.000114	-0.043880
C59	C	1.682073	0.333220	0.289453
C60	C	2.015407	0.666553	0.622787
C61	C	1.345726	-0.000112	-0.169894
C62	C	1.679059	0.333221	0.163440
C63	C	2.012392	0.666555	0.496773
N64	N	1.341754	0.318723	0.163584
N65	N	1.675087	0.652057	0.496917
N66	N	2.008420	0.985390	0.830251
C67	C	1.340183	-0.000091	-0.400606
C68	C	1.673516	0.333242	-0.067272
C69	C	2.006849	0.666576	0.266061
C70	C	1.343262	-0.000102	-0.272221
C71	C	1.676596	0.333231	0.061113
C72	C	2.009929	0.666564	0.394446
C73	C	1.334721	-0.000093	0.371043
C74	C	1.668055	0.333240	0.704376
C75	C	2.001388	0.666574	1.037710
C76	C	1.337736	-0.000087	0.497057
C77	C	1.671069	0.333247	0.830390
C78	C	2.004402	0.666580	1.163723
