data_functionalizedCrystal
_audit_creation_method	'MofGen! by Chris Wilmer'
_symmetry_space_group_name_H-M	'P1'
_symmetry_Int_Tables_number	1
_symmetry_cell_setting	triclinic
loop_
_symmetry_equiv_pos_as_xyz
  x,y,z
_cell_length_a	19.188940
_cell_length_b	16.109301
_cell_length_c	14.586319
_cell_angle_alpha	89.994467
_cell_angle_beta	90.012807
_cell_angle_gamma	96.694902
loop_
_atom_site_label
_atom_site_type_symbol
_atom_site_fract_x
_atom_site_fract_y
_atom_site_fract_z
O1	O	0.089752	-1.102842	0.076183
O2	O	0.100920	-0.860743	0.076198
O3	O	-0.006303	-0.988775	0.076183
O4	O	0.196975	-0.974810	0.076198
O5	O	-0.006321	-0.988757	-0.076298
O6	O	0.100902	-0.860725	-0.076283
O7	O	0.089734	-1.102824	-0.076298
Cu8	Cu	0.095316	-0.981773	-0.090213
Cu9	Cu	0.095338	-0.981794	0.090113
O10	O	0.196957	-0.974792	-0.076283
C11	C	0.100459	-0.829761	-0.000041
C12	C	0.099102	-0.737470	-0.000035
C13	C	-0.032324	-0.988312	-0.000057
C14	C	-0.109831	-0.986951	-0.000057
C15	C	0.090195	-1.133806	-0.000057
C16	C	0.091551	-1.226097	-0.000056
C17	C	-0.663123	-0.977254	-0.083152
C18	C	-0.590296	-0.978524	-0.083157
C19	C	-0.553865	-0.979173	-0.000041
C20	C	-0.590265	-0.978530	0.083087
C21	C	-0.663090	-0.977252	0.083090
N22	N	-0.444718	-1.028498	0.061822
N23	N	-0.375537	-1.029715	0.061813
C24	C	-0.334446	-0.983024	-0.000044
N25	N	-0.365151	-0.935081	-0.061907
N26	N	-0.434338	-0.933869	-0.061901
C27	C	-0.474898	-0.980559	-0.000034
C28	C	-0.219087	-0.985038	-0.083172
C29	C	-0.146257	-0.986303	-0.083174
C30	C	-0.146229	-0.986318	0.083073
C31	C	-0.219056	-0.985044	0.083072
C32	C	-0.255481	-0.984408	-0.000053
C33	C	0.222978	-0.975255	-0.000041
C34	C	0.300485	-0.976616	-0.000035
N35	N	0.095301	-0.981764	-0.217045
C36	C	0.159573	-0.515000	-0.000041
C37	C	0.158293	-0.428283	-0.000047
C38	C	0.031076	-0.448574	-0.000053
C39	C	0.032357	-0.535289	-0.000053
C40	C	0.096607	-0.568499	-0.000043
C41	C	0.094047	-0.395068	-0.000048
C42	C	0.092659	-0.301047	-0.000055
C43	C	0.097996	-0.662526	-0.000038
C44	C	0.052972	-0.931520	-0.548074
C45	C	0.052963	-0.931513	-0.452092
C46	C	0.137678	-1.032059	-0.452033
C47	C	0.137683	-1.032070	-0.548012
C48	C	0.095332	-0.981795	-0.596030
C49	C	0.095317	-0.981778	-0.404069
C50	C	0.095306	-0.981771	-0.300002
C51	C	0.095341	-0.981803	-0.700104
N52	N	0.095348	-0.981810	0.216945
H53	H	-0.692776	-0.976736	-0.150838
H54	H	0.172160	-1.072990	-0.412925
Br55	Br	-0.268524	-0.984173	-0.195981
H56	H	-0.116628	-0.986821	-0.150860
Br57	Br	-0.053103	-0.607901	-0.000067
H58	H	-0.560598	-0.979056	0.150761
H59	H	0.018486	-0.890584	-0.587167
Br60	Br	-0.004526	-0.863276	-0.387012
H61	H	-0.692720	-0.976731	0.150775
H62	H	-0.116566	-0.986836	0.150747
Br63	Br	-0.268449	-0.984183	0.195880
H64	H	-0.560658	-0.979029	-0.150842
H65	H	0.211889	-0.542036	-0.000040
H66	H	0.209566	-0.384727	-0.000048
Br67	Br	0.195170	-1.100312	-0.613102
H68	H	-0.021234	-0.421523	-0.000067
