data_functionalizedCrystal
_audit_creation_method	'MofGen! by Chris Wilmer'
_symmetry_space_group_name_H-M	'P1'
_symmetry_Int_Tables_number	1
_symmetry_cell_setting	triclinic
loop_
_symmetry_equiv_pos_as_xyz
  x,y,z
_cell_length_a	12.827893
_cell_length_b	12.827885
_cell_length_c	12.827892
_cell_angle_alpha	89.970024
_cell_angle_beta	90.015362
_cell_angle_gamma	89.980728
loop_
_atom_site_label
_atom_site_type_symbol
_atom_site_fract_x
_atom_site_fract_y
_atom_site_fract_z
Zn1	Zn	1.597670	-0.590849	-0.415981
Zn2	Zn	1.931003	-0.257515	-0.082648
Zn3	Zn	2.264336	0.075818	0.250685
Zn4	Zn	1.597564	-0.416109	-0.590759
Zn5	Zn	1.930897	-0.082776	-0.257426
Zn6	Zn	2.264230	0.250558	0.075907
Zn7	Zn	1.422911	-0.416122	-0.416033
Zn8	Zn	1.756244	-0.082789	-0.082699
Zn9	Zn	2.089578	0.250544	0.250634
Zn10	Zn	1.422896	-0.590809	-0.590681
Zn11	Zn	1.756230	-0.257476	-0.257348
Zn12	Zn	2.089563	0.075858	0.075986
O13	O	1.510260	-0.503472	-0.503364
O14	O	1.843593	-0.170139	-0.170030
O15	O	2.176927	0.163194	0.163303
O16	O	1.743892	-0.567680	-0.439177
O17	O	2.077225	-0.234347	-0.105844
O18	O	2.410558	0.098987	0.227489
O19	O	1.574357	-0.269875	-0.567636
O20	O	1.907691	0.063459	-0.234302
O21	O	2.241024	0.396792	0.099031
O22	O	1.446144	-0.439322	-0.269790
O23	O	1.779477	-0.105989	0.063543
O24	O	2.112810	0.227344	0.396877
O25	O	1.743814	-0.439300	-0.567586
O26	O	2.077147	-0.105966	-0.234252
O27	O	2.410480	0.227367	0.099081
O28	O	1.574538	-0.567693	-0.269752
O29	O	1.907871	-0.234360	0.063581
O30	O	2.241205	0.098974	0.396915
O31	O	1.446041	-0.269884	-0.439265
O32	O	1.779374	0.063449	-0.105932
O33	O	2.112708	0.396782	0.227402
O34	O	1.276673	-0.439284	-0.439189
O35	O	1.610006	-0.105950	-0.105856
O36	O	1.943340	0.227383	0.227478
O37	O	1.446118	-0.737050	-0.567452
O38	O	1.779452	-0.403717	-0.234119
O39	O	2.112785	-0.070384	0.099214
O40	O	1.276662	-0.567625	-0.567502
O41	O	1.609996	-0.234292	-0.234169
O42	O	1.943329	0.099041	0.099164
O43	O	1.574524	-0.737080	-0.439101
O44	O	1.907857	-0.403746	-0.105768
O45	O	2.241190	-0.070413	0.227565
O46	O	1.574343	-0.439261	-0.736985
O47	O	1.907677	-0.105928	-0.403652
O48	O	2.241010	0.227406	-0.070318
O49	O	1.446016	-0.567612	-0.736927
O50	O	1.779349	-0.234279	-0.403594
O51	O	2.112682	0.099054	-0.070261
C52	C	1.238750	-0.503452	-0.503343
C53	C	1.572084	-0.170119	-0.170010
C54	C	1.905417	0.163214	0.163323
C55	C	1.122597	-0.503469	-0.503360
C56	C	1.455930	-0.170135	-0.170027
C57	C	1.789264	0.163198	0.163307
C58	C	1.070835	-0.566878	-0.566953
C59	C	1.404168	-0.233545	-0.233619
C60	C	1.737501	0.099789	0.099714
C61	C	0.950784	-0.566896	-0.566971
C62	C	1.284118	-0.233563	-0.233638
C63	C	1.617451	0.099770	0.099696
C64	C	1.510331	-0.776043	-0.503262
C65	C	1.843665	-0.442709	-0.169929
C66	C	2.176998	-0.109376	0.163404
C67	C	1.510362	-0.892196	-0.503219
C68	C	1.843695	-0.558862	-0.169886
C69	C	2.177028	-0.225529	0.163448
C70	C	1.573864	-0.943976	-0.566715
C71	C	1.907197	-0.610642	-0.233382
C72	C	2.240530	-0.277309	0.099951
C73	C	1.573896	-1.064026	-0.566672
C74	C	1.907230	-0.730693	-0.233339
C75	C	2.240563	-0.397359	0.099995
C76	C	1.782830	-0.503493	-0.503385
C77	C	2.116164	-0.170159	-0.170051
C78	C	2.449497	0.163174	0.163282
C79	C	1.898983	-0.503502	-0.503393
C80	C	2.232317	-0.170168	-0.170060
C81	C	2.565650	0.163165	0.163273
C82	C	1.510195	-0.503454	-0.774873
C83	C	1.843528	-0.170120	-0.441540
C84	C	2.176861	0.163213	-0.108207
C85	C	1.510262	-0.503481	-0.891027
C86	C	1.843596	-0.170147	-0.557693
C87	C	2.176929	0.163186	-0.224360
C88	C	1.510249	-0.231962	-0.503389
C89	C	1.843583	0.101371	-0.170056
C90	C	2.176916	0.434704	0.163278
C91	C	1.510422	-0.115810	-0.503138
C92	C	1.843755	0.217524	-0.169804
C93	C	2.177088	0.550857	0.163529
C94	C	1.573838	-0.440039	-0.942805
C95	C	1.907172	-0.106706	-0.609472
C96	C	2.240505	0.226628	-0.276138
C97	C	1.573910	-0.440066	-1.062855
C98	C	1.907243	-0.106732	-0.729522
C99	C	2.240576	0.226601	-0.396189
C100	C	1.510354	-0.503514	-0.230793
C101	C	1.843688	-0.170180	0.102540
C102	C	2.177021	0.163153	0.435873
C103	C	1.510394	-0.503531	-0.114640
C104	C	1.843728	-0.170198	0.218693
C105	C	2.177061	0.163135	0.552026
H106	H	1.078036	-0.449199	-0.448926
H107	H	1.411369	-0.115866	-0.115592
H108	H	1.744703	0.217467	0.217741
Cl109	Cl	1.657803	-0.356153	-0.874037
Cl110	Cl	1.991136	-0.022820	-0.540703
Cl111	Cl	2.324470	0.310514	-0.207370
Cl112	Cl	1.657944	-0.356197	-1.131598
Cl113	Cl	1.991277	-0.022864	-0.798265
Cl114	Cl	2.324611	0.310469	-0.464931
Cl115	Cl	1.426346	-0.587391	-1.045905
Cl116	Cl	1.759679	-0.254057	-0.712571
Cl117	Cl	2.093012	0.079276	-0.379238
H118	H	1.628210	-0.899430	-0.621105
H119	H	1.961543	-0.566096	-0.287771
H120	H	2.294876	-0.232763	0.045562
H121	H	1.456024	-0.936742	-0.448822
H122	H	1.789357	-0.603409	-0.115488
H123	H	2.122691	-0.270075	0.217845
H124	H	1.628262	-1.108556	-0.621034
H125	H	1.961595	-0.775222	-0.287701
H126	H	2.294928	-0.441889	0.045632
Cl127	Cl	0.967698	-0.419673	-0.419334
Cl128	Cl	1.301031	-0.086340	-0.086001
Cl129	Cl	1.634364	0.246994	0.247332
Cl130	Cl	1.426310	-0.587379	-0.959795
Cl131	Cl	1.759643	-0.254046	-0.626462
Cl132	Cl	2.092977	0.079287	-0.293128
Cl133	Cl	1.139624	-0.650672	-0.650998
Cl134	Cl	1.472958	-0.317339	-0.317665
Cl135	Cl	1.806291	0.015994	0.015669
Cl136	Cl	0.882063	-0.650711	-0.651039
Cl137	Cl	1.215397	-0.317377	-0.317706
Cl138	Cl	1.548730	0.015956	0.015628
H139	H	1.456049	-1.071287	-0.448777
H140	H	1.789382	-0.737954	-0.115444
H141	H	2.122716	-0.404620	0.217890
