data_functionalizedCrystal
_audit_creation_method	'MofGen! by Chris Wilmer'
_symmetry_space_group_name_H-M	'P1'
_symmetry_Int_Tables_number	1
_symmetry_cell_setting	triclinic
loop_
_symmetry_equiv_pos_as_xyz
  x,y,z
_cell_length_a	19.805407
_cell_length_b	12.759400
_cell_length_c	19.805399
_cell_angle_alpha	90.023526
_cell_angle_beta	90.015116
_cell_angle_gamma	90.010482
loop_
_atom_site_label
_atom_site_type_symbol
_atom_site_fract_x
_atom_site_fract_y
_atom_site_fract_z
Zn1	Zn	1.034780	-0.418351	0.382713
Zn2	Zn	1.034726	-0.594049	0.269536
Zn3	Zn	0.921600	-0.418376	0.269541
Zn4	Zn	0.921584	-0.593981	0.382686
O5	O	0.978173	-0.506189	0.326119
O6	O	1.129489	-0.441676	0.367709
O7	O	1.019704	-0.570785	0.174820
O8	O	0.936643	-0.271352	0.284568
O9	O	1.129450	-0.570760	0.284558
O10	O	1.019795	-0.271334	0.367715
O11	O	0.936590	-0.441719	0.174824
O12	O	0.826881	-0.441653	0.284541
O13	O	0.936616	-0.570644	0.477406
O14	O	0.826870	-0.570668	0.367668
O15	O	1.019780	-0.441610	0.477426
O16	O	1.019689	-0.741061	0.284532
O17	O	0.936564	-0.741011	0.367663
C18	C	0.802317	-0.506156	0.326103
C19	C	0.727085	-0.506168	0.326112
C20	C	0.691762	-0.439072	0.369474
C21	C	0.621073	-0.439078	0.369477
C22	C	0.585709	-0.506185	0.326120
C23	C	0.621037	-0.573283	0.282753
C24	C	0.691724	-0.573271	0.282747
C25	C	0.335964	-0.573330	0.282773
C26	C	0.265272	-0.573339	0.282784
C27	C	0.265313	-0.439137	0.369503
C28	C	0.336000	-0.439125	0.369498
C29	C	0.371322	-0.506219	0.326128
C30	C	0.447970	-0.506211	0.326125
C31	C	0.509062	-0.506199	0.326126
C32	C	0.978137	-0.779157	0.326109
C33	C	0.978184	-0.895933	0.326127
C34	C	1.021460	-0.950706	0.369457
C35	C	1.021491	-1.060430	0.369473
C36	C	0.934969	-1.060599	0.282824
C37	C	0.934935	-0.950877	0.282811
C38	C	1.064709	-0.895762	0.412772
C39	C	1.107989	-0.950535	0.456105
C40	C	1.108021	-1.060259	0.456122
C41	C	1.064772	-1.115210	0.412805
C42	C	1.154715	-0.506223	0.326136
C43	C	1.229947	-0.506237	0.326143
C44	C	0.978202	-0.506116	0.502662
C45	C	0.978215	-0.506085	0.577894
C46	C	0.978227	-0.232156	0.326145
C47	C	0.978250	-0.115379	0.326156
C48	C	0.978182	-0.506186	0.150263
C49	C	0.978301	-0.505921	0.075032
C50	C	0.934950	-0.438874	0.613240
C51	C	0.934959	-0.438854	0.683928
C52	C	0.978238	-0.506040	0.719270
C53	C	1.021504	-0.573258	0.683919
C54	C	1.021491	-0.573283	0.613232
C55	C	1.021558	-0.573160	0.968992
C56	C	1.021569	-0.573128	1.039685
C57	C	0.935026	-0.438731	1.039689
C58	C	0.935013	-0.438756	0.969002
C59	C	0.978277	-0.505977	0.933657
C60	C	0.978266	-0.506000	0.857009
C61	C	0.978253	-0.506013	0.795917
H62	H	0.592238	-0.627918	0.247447
H63	H	0.364714	-0.627963	0.247460
C64	C	0.226457	-0.365320	0.417204
C65	C	0.177873	-0.410955	0.470296
C66	C	0.139019	-0.337143	0.517997
C67	C	0.148748	-0.217695	0.512606
C68	C	0.197333	-0.172053	0.459512
C69	C	0.236188	-0.245866	0.411812
H70	H	0.170669	-0.499383	0.474288
H71	H	0.103052	-0.370930	0.557300
H72	H	0.119985	-0.163054	0.547917
H73	H	0.204537	-0.083625	0.455520
H74	H	0.272154	-0.212078	0.372508
C75	C	1.069112	-0.647164	0.722792
C76	C	1.069132	-0.647136	0.800545
C77	C	1.116743	-0.721042	0.839417
C78	C	1.164333	-0.794975	0.800535
C79	C	1.164314	-0.795006	0.722778
C80	C	1.116703	-0.721100	0.683906
H81	H	1.033902	-0.592404	0.829332
H82	H	1.116756	-0.721018	0.896978
H83	H	1.199577	-0.849684	0.829310
H84	H	1.199544	-0.849738	0.693991
H85	H	1.116690	-0.721124	0.626345
H86	H	1.056813	-0.627843	1.068458
C87	C	1.155559	-0.890094	0.503754
C88	C	1.155528	-0.769405	0.503738
C89	C	1.203098	-0.708967	0.551388
C90	C	1.250698	-0.769219	0.599054
C91	C	1.250730	-0.889915	0.599072
C92	C	1.203160	-0.950353	0.551421
H93	H	1.120290	-0.724796	0.468451
H94	H	1.203074	-0.619619	0.551375
H95	H	1.285912	-0.724479	0.634328
H96	H	1.285968	-0.934524	0.634359
H97	H	1.203185	-1.039701	0.551434
H98	H	0.720483	-0.627907	0.247436
C99	C	0.887404	-1.121043	0.235173
C100	C	0.916794	-1.196489	0.182069
C101	C	0.869230	-1.256932	0.134416
C102	C	0.792276	-1.241930	0.139867
C103	C	0.762881	-1.166480	0.192973
C104	C	0.810445	-1.106037	0.240626
H105	H	0.973764	-1.207598	0.178032
H106	H	0.890990	-1.312785	0.095103
H107	H	0.757066	-1.286673	0.104591
H108	H	0.705912	-1.155372	0.197010
H109	H	0.788685	-1.050185	0.279939
C110	C	0.374902	-0.365310	0.417192
C111	C	0.423495	-0.282765	0.387949
C112	C	0.462397	-0.208948	0.435643
C113	C	0.452706	-0.217677	0.512579
C114	C	0.404110	-0.300226	0.541826
C115	C	0.365208	-0.374042	0.494133
H116	H	0.430671	-0.276301	0.330992
H117	H	0.498371	-0.147840	0.413992
H118	H	0.481504	-0.163033	0.547885
H119	H	0.396934	-0.306690	0.598783
H120	H	0.329235	-0.435150	0.515784
C121	C	0.887334	-0.890618	0.235146
C122	C	0.839768	-0.951049	0.187494
C123	C	0.792164	-0.890790	0.139830
C124	C	0.792125	-0.770100	0.139818
C125	C	0.839693	-0.709663	0.187472
C126	C	0.887297	-0.769922	0.235136
H127	H	0.839795	-1.040397	0.187501
H128	H	0.756951	-0.935531	0.104553
H129	H	0.756886	-0.725493	0.104535
H130	H	0.839666	-0.620315	0.187465
H131	H	0.922510	-0.725181	0.270413
C132	C	0.887343	-0.364967	0.574367
C133	C	0.839749	-0.291041	0.613251
C134	C	0.792139	-0.217134	0.574380
C135	C	0.792122	-0.217153	0.496627
C136	C	0.839717	-0.291082	0.457740
C137	C	0.887327	-0.364989	0.496610
H138	H	0.839760	-0.291024	0.670812
H139	H	0.756906	-0.162407	0.603168
H140	H	0.756877	-0.162443	0.467853
H141	H	0.839706	-0.291099	0.400179
H142	H	0.922560	-0.419716	0.467823
H143	H	1.056727	-0.628005	0.584454
C144	C	0.226369	-0.647155	0.235084
C145	C	0.236055	-0.638412	0.158147
C146	C	0.197152	-0.712225	0.110451
C147	C	0.148564	-0.794780	0.139691
C148	C	0.138877	-0.803526	0.216632
C149	C	0.177779	-0.729713	0.264328
H150	H	0.272024	-0.577297	0.136498
H151	H	0.204324	-0.705750	0.053494
H152	H	0.119766	-0.849420	0.104384
H153	H	0.102907	-0.864641	0.238281
H154	H	0.170607	-0.736188	0.321285
C155	C	0.887371	-0.364910	0.722805
C156	C	0.810422	-0.373453	0.713074
C157	C	0.762832	-0.299503	0.751949
C158	C	0.792191	-0.217010	0.800556
C159	C	0.869144	-0.208464	0.810290
C160	C	0.916734	-0.282414	0.771415
H161	H	0.788686	-0.434522	0.677090
H162	H	0.705867	-0.305830	0.744743
H163	H	0.756962	-0.162268	0.829334
H164	H	0.890881	-0.147394	0.846274
H165	H	0.973700	-0.276086	0.778621
H166	H	0.720550	-0.384429	0.404783
H167	H	0.899774	-0.384042	0.940230
H168	H	1.064690	-0.806420	0.412762
H169	H	0.592316	-0.384444	0.404788
H170	H	1.143256	-1.104852	0.491411
H171	H	1.064794	-1.204555	0.412830
H172	H	0.899797	-0.383999	1.068475
H173	H	1.056779	-0.627908	0.940223
