data_functionalizedCrystal
_audit_creation_method	'MofGen! by Chris Wilmer'
_symmetry_space_group_name_H-M	'P1'
_symmetry_Int_Tables_number	1
_symmetry_cell_setting	triclinic
loop_
_symmetry_equiv_pos_as_xyz
  x,y,z
_cell_length_a	29.839133
_cell_length_b	29.839134
_cell_length_c	29.839126
_cell_angle_alpha	89.970362
_cell_angle_beta	90.013855
_cell_angle_gamma	89.975535
loop_
_atom_site_label
_atom_site_type_symbol
_atom_site_fract_x
_atom_site_fract_y
_atom_site_fract_z
Zn1	Zn	-0.178949	-0.686790	0.254157
Zn2	Zn	-0.254070	-0.686728	0.179041
Zn3	Zn	-0.178948	-0.611663	0.179027
Zn4	Zn	-0.254046	-0.611637	0.254129
O5	O	-0.216503	-0.649205	0.216588
O6	O	-0.188925	-0.749649	0.244210
O7	O	-0.244114	-0.676756	0.116172
O8	O	-0.116081	-0.621666	0.188999
O9	O	-0.244115	-0.749603	0.189023
O10	O	-0.116082	-0.676862	0.244197
O11	O	-0.188922	-0.621606	0.116161
O12	O	-0.188899	-0.548793	0.188972
O13	O	-0.244075	-0.621621	0.317000
O14	O	-0.244074	-0.548773	0.244149
O15	O	-0.188902	-0.676836	0.317021
O16	O	-0.316934	-0.676730	0.188995
O17	O	-0.316916	-0.621560	0.244162
C18	C	-0.216484	-0.532482	0.216556
C19	C	-0.216487	-0.482548	0.216553
C20	C	-0.333226	-0.649148	0.216587
C21	C	-0.383160	-0.649164	0.216602
C22	C	-0.216486	-0.649232	0.333767
C23	C	-0.216479	-0.649244	0.383701
C24	C	-0.739713	-0.677961	0.245363
C25	C	-0.552040	-0.677919	0.245362
O26	O	-0.527746	-0.702345	0.269810
N27	N	-0.528605	-0.649200	0.216601
C28	C	-0.552092	-0.620491	0.187835
O29	O	-0.527853	-0.596066	0.163368
C30	C	-0.739764	-0.620536	0.187833
C31	C	-0.763196	-0.649254	0.216600
C32	C	-0.763145	-0.706677	0.274127
C33	C	-0.810061	-0.706686	0.274129
C34	C	-0.833544	-0.677979	0.245366
C35	C	-0.810112	-0.649263	0.216602
C36	C	-0.763250	-0.591830	0.159065
C37	C	-0.810171	-0.591845	0.159067
C38	C	-0.833603	-0.620563	0.187834
C39	C	-0.880510	-0.620564	0.187841
N40	N	-0.903945	-0.649283	0.216603
C41	C	-0.880462	-0.677991	0.245365
C42	C	-0.453561	-0.620469	0.187838
C43	C	-0.406644	-0.620457	0.187839
C44	C	-0.406595	-0.677885	0.245366
C45	C	-0.453513	-0.677895	0.245367
C46	C	-0.476996	-0.649188	0.216600
C47	C	-0.978988	-0.678006	0.245367
C48	C	-1.025907	-0.678011	0.245367
C49	C	-1.025952	-0.620584	0.187838
C50	C	-0.979036	-0.620578	0.187839
C51	C	-0.955555	-0.649292	0.216605
O52	O	-0.904833	-0.596154	0.163403
O53	O	-0.904709	-0.702419	0.269822
C54	C	-0.692798	-0.677953	0.245361
C55	C	-0.669365	-0.649237	0.216597
C56	C	-0.692849	-0.620530	0.187834
C57	C	-0.622448	-0.649225	0.216598
C58	C	-0.598964	-0.677932	0.245361
C59	C	-0.622399	-0.706652	0.274123
C60	C	-0.669314	-0.706660	0.274124
C61	C	-0.669414	-0.591810	0.159072
C62	C	-0.622499	-0.591804	0.159074
C63	C	-0.599015	-0.620511	0.187836
C64	C	-0.099325	-0.649274	0.216600
C65	C	-0.049390	-0.649304	0.216604
C66	C	-0.216523	-0.766383	0.216621
C67	C	-0.216531	-0.816317	0.216635
C68	C	-0.245275	-0.172903	0.245284
C69	C	-0.245288	0.014770	0.245304
O70	O	-0.269743	0.039035	0.269713
N71	N	-0.216520	0.038237	0.216622
C72	C	-0.187744	0.014784	0.187936
O73	O	-0.163272	0.039051	0.163544
C74	C	-0.187730	-0.172888	0.187918
C75	C	-0.216503	-0.196353	0.216599
C76	C	-0.274045	-0.196369	0.273963
C77	C	-0.274044	-0.243284	0.273956
C78	C	-0.245272	-0.266734	0.245270
C79	C	-0.216501	-0.243269	0.216592
C80	C	-0.158953	-0.196340	0.159234
C81	C	-0.158951	-0.243261	0.159233
C82	C	-0.187724	-0.266727	0.187913
C83	C	-0.187727	-0.313634	0.187899
N84	N	-0.216495	-0.337102	0.216581
C85	C	-0.245267	-0.313652	0.245266
C86	C	-0.187755	0.113315	0.187946
C87	C	-0.187759	0.160233	0.187950
C88	C	-0.245302	0.160215	0.245319
C89	C	-0.245300	0.113296	0.245313
C90	C	-0.216523	0.089847	0.216628
C91	C	-0.245262	-0.412178	0.245249
C92	C	-0.245259	-0.459098	0.245238
C93	C	-0.187715	-0.459076	0.187871
C94	C	-0.187719	-0.412160	0.187880
C95	C	-0.216494	-0.388713	0.216573
O96	O	-0.163281	-0.337929	0.163506
O97	O	-0.269729	-0.337927	0.269662
C98	C	-0.245277	-0.125988	0.245291
C99	C	-0.216506	-0.102523	0.216613
C100	C	-0.187734	-0.125972	0.187927
C101	C	-0.216511	-0.055605	0.216616
C102	C	-0.245283	-0.032155	0.245302
C103	C	-0.274051	-0.055623	0.273984
C104	C	-0.274049	-0.102538	0.273977
C105	C	-0.158966	-0.102505	0.159245
C106	C	-0.158971	-0.055589	0.159254
C107	C	-0.187743	-0.032139	0.187940
C108	C	-0.216488	-0.649203	0.099866
C109	C	-0.216369	-0.649278	0.049932
C110	C	-0.187695	-0.620537	0.693342
C111	C	-0.187664	-0.620549	0.881015
O112	O	-0.163236	-0.596119	0.905278
N113	N	-0.216394	-0.649266	0.904487
C114	C	-0.245137	-0.677978	0.881036
O115	O	-0.269576	-0.702400	0.905306
C116	C	-0.245170	-0.677963	0.693364
C117	C	-0.216434	-0.649248	0.669896
C118	C	-0.158963	-0.591824	0.669874
C119	C	-0.158969	-0.591823	0.622958
C120	C	-0.187708	-0.620534	0.599511
C121	C	-0.216441	-0.649247	0.622980
C122	C	-0.273914	-0.706673	0.669915
C123	C	-0.273920	-0.706666	0.622994
C124	C	-0.245185	-0.677951	0.599525
C125	C	-0.245186	-0.677958	0.552618
N126	N	-0.216456	-0.649242	0.529147
C127	C	-0.187717	-0.620530	0.552594
C128	C	-0.245116	-0.677985	0.979567
C129	C	-0.245108	-0.677990	1.026485
C130	C	-0.187636	-0.620560	1.026461
C131	C	-0.187643	-0.620558	0.979542
C132	C	-0.216386	-0.649269	0.956096
C133	C	-0.187732	-0.620530	0.454068
C134	C	-0.187740	-0.620533	0.407148
C135	C	-0.245213	-0.677960	0.407176
C136	C	-0.245204	-0.677960	0.454092
C137	C	-0.216462	-0.649241	0.477536
O138	O	-0.269605	-0.702372	0.528326
O139	O	-0.163288	-0.596105	0.528316
C140	C	-0.187689	-0.620538	0.740258
C141	C	-0.216422	-0.649251	0.763726
C142	C	-0.245161	-0.677962	0.740280
C143	C	-0.216413	-0.649255	0.810644
C144	C	-0.187674	-0.620544	0.834091
C145	C	-0.158944	-0.591827	0.810620
C146	C	-0.158950	-0.591826	0.763705
C147	C	-0.273891	-0.706678	0.763751
C148	C	-0.273882	-0.706678	0.810666
C149	C	-0.245143	-0.677966	0.834113
H150	H	-1.044983	-0.701396	0.268795
N151	N	-0.129627	-0.562486	0.598982
N152	N	-0.129634	-0.562480	0.557092
H153	H	-0.108911	-0.541758	0.540160
N154	N	-0.303442	-0.031657	0.303279
N155	N	-0.303436	0.010233	0.303275
H156	H	-0.324191	0.027162	0.323965
N157	N	-0.129562	-0.267220	0.129929
N158	N	-0.129563	-0.309111	0.129924
H159	H	-0.108809	-0.326032	0.109227
H160	H	-0.164327	-0.597145	0.473151
N161	N	-0.739161	-0.736014	0.303500
N162	N	-0.712973	-0.764651	0.287724
H163	H	-0.696038	-0.785373	0.308470
H164	H	-0.829288	-0.568468	0.135640
N165	N	-0.598559	-0.562468	0.129691
N166	N	-0.556669	-0.562459	0.129690
H167	H	-0.539762	-0.541743	0.108938
H168	H	-0.688530	-0.568434	0.135649
N169	N	-0.129608	-0.562496	0.693827
N170	N	-0.145396	-0.533858	0.719996
H171	H	-0.124660	-0.513146	0.736912
N172	N	-0.129593	-0.562493	0.739743
N173	N	-0.103938	-0.536862	0.760691
H174	H	-0.083203	-0.516144	0.743770
N175	N	-0.382609	-0.707218	0.274744
N176	N	-0.403532	-0.732865	0.300421
H177	H	-0.386591	-0.753583	0.321166
H178	H	-0.164338	-0.597150	0.388042
H179	H	-0.268598	-0.701347	0.473201
N180	N	-0.274694	0.089336	0.274610
N181	N	-0.300382	0.110285	0.300217
H182	H	-0.321144	0.093365	0.320910
H183	H	-0.268729	0.179316	0.268676
H184	H	-0.829135	-0.730074	0.297551
N185	N	-0.303267	-0.736007	0.693878
N186	N	-0.300303	-0.777463	0.688653
H187	H	-0.321037	-0.798181	0.705575
H188	H	-0.268691	-0.478201	0.268594
H189	H	-0.297479	-0.121639	0.297331
H190	H	-0.135536	-0.121593	0.135886
H191	H	-0.164291	-0.393054	0.164525
N192	N	-0.955105	-0.591235	0.158459
N193	N	-0.976081	-0.565602	0.132783
H194	H	-0.959182	-0.544880	0.112031
H195	H	-0.135524	-0.177243	0.135878
H196	H	-0.164291	-0.478177	0.164515
H197	H	-0.297281	-0.730065	0.829770
N198	N	-1.049951	-0.591262	0.158464
N199	N	-1.091842	-0.591279	0.158473
H200	H	-1.108793	-0.570572	0.137726
N201	N	-0.129578	-0.031630	0.129949
N202	N	-0.103892	-0.052578	0.104341
H203	H	-0.083132	-0.035659	0.083646
N204	N	-0.158285	-0.591227	0.955578
N205	N	-0.132626	-0.565598	0.976524
H206	H	-0.111890	-0.544881	0.959603
N207	N	-0.158279	-0.591237	1.050423
N208	N	-0.158279	-0.591249	1.092313
H209	H	-0.137548	-0.570540	1.109239
H210	H	-0.472589	-0.701277	0.268794
N211	N	-0.477546	-0.591134	0.158462
N212	N	-0.503739	-0.562501	0.174238
H213	H	-0.520677	-0.541781	0.153493
N214	N	-0.382718	-0.591112	0.158458
N215	N	-0.403697	-0.565484	0.132781
H216	H	-0.386801	-0.544759	0.112029
H217	H	-0.164321	0.094227	0.164585
H218	H	-0.268502	-0.701377	1.045589
H219	H	-0.268525	-0.701365	0.960482
N220	N	-0.693239	-0.735997	0.303513
N221	N	-0.672258	-0.761623	0.329190
H222	H	-0.689152	-0.782344	0.349948
N223	N	-0.274656	-0.388238	0.274562
N224	N	-0.300340	-0.409203	0.300163
H225	H	-0.321101	-0.392296	0.320864
N226	N	-0.955008	-0.707343	0.274745
N227	N	-0.960228	-0.748799	0.271812
H228	H	-0.943293	-0.769517	0.292561
H229	H	-0.744178	-0.568446	0.135641
H230	H	-0.135542	-0.568451	0.829719
N231	N	-0.303287	-0.735995	0.599052
N232	N	-0.328940	-0.761628	0.620016
H233	H	-0.349680	-0.782342	0.603108
H234	H	-0.268610	-0.701338	0.388078
H235	H	-0.297296	-0.730058	0.744665
H236	H	-0.603271	-0.730025	0.297544
H237	H	-0.297473	-0.262386	0.297311
N238	N	-0.303447	-0.172428	0.303265
N239	N	-0.344895	-0.177663	0.300211
H240	H	-0.365664	-0.160759	0.320905
N241	N	-0.158372	0.184192	0.158643
N242	N	-0.132686	0.163243	0.133035
H243	H	-0.111929	0.180163	0.112337
