data_functionalizedCrystal
_audit_creation_method	'MofGen! by Chris Wilmer'
_symmetry_space_group_name_H-M	'P1'
_symmetry_Int_Tables_number	1
_symmetry_cell_setting	triclinic
loop_
_symmetry_equiv_pos_as_xyz
  x,y,z
_cell_length_a	17.077404
_cell_length_b	19.120786
_cell_length_c	17.077396
_cell_angle_alpha	87.528765
_cell_angle_beta	89.980499
_cell_angle_gamma	92.465349
loop_
_atom_site_label
_atom_site_type_symbol
_atom_site_fract_x
_atom_site_fract_y
_atom_site_fract_z
Zn1	Zn	1.186709	-0.279626	-0.430494
Zn2	Zn	1.181010	-0.397090	-0.293620
Zn3	Zn	1.055439	-0.279651	-0.299241
Zn4	Zn	1.049804	-0.397049	-0.424846
O5	O	1.118240	-0.338354	-0.362050
O6	O	1.295799	-0.295215	-0.412349
O7	O	1.164326	-0.381539	-0.184518
O8	O	1.077596	-0.181357	-0.321368
O9	O	1.291612	-0.381516	-0.311789
O10	O	1.174039	-0.181339	-0.417799
O11	O	1.072070	-0.295257	-0.188647
O12	O	0.944845	-0.295217	-0.315891
O13	O	1.067992	-0.381445	-0.535444
O14	O	0.940705	-0.381468	-0.408173
O15	O	1.168575	-0.295175	-0.539593
O16	O	1.158861	-0.495375	-0.306312
O17	O	1.062465	-0.495345	-0.402723
C18	C	0.914293	-0.338341	-0.362029
C19	C	0.827043	-0.338353	-0.362038
C20	C	1.109455	-0.520845	-0.353312
C21	C	1.105768	-0.598916	-0.349600
C22	C	0.783914	-0.383332	-0.410005
C23	C	0.701934	-0.383333	-0.410018
C24	C	0.663083	-0.338359	-0.362058
C25	C	0.706218	-0.293375	-0.314089
C26	C	0.788197	-0.293370	-0.314081
C27	C	0.535347	-0.293389	-0.314107
C28	C	0.453362	-0.293394	-0.314114
C29	C	0.449084	-0.383352	-0.410044
C30	C	0.531063	-0.383347	-0.410036
C31	C	0.574192	-0.338364	-0.362066
C32	C	1.154211	-0.635524	-0.398103
C33	C	1.150744	-0.708880	-0.394617
C34	C	1.098837	-0.745626	-0.342622
C35	C	1.050388	-0.709013	-0.294117
C36	C	1.053852	-0.635659	-0.297608
C37	C	1.085865	-0.967112	-0.329571
C38	C	1.082406	-1.040471	-0.326082
C39	C	1.182761	-1.040333	-0.426584
C40	C	1.186224	-0.966977	-0.430067
C41	C	1.137772	-0.930371	-0.381564
C42	C	1.095293	-0.820607	-0.339055
C43	C	1.141313	-0.855391	-0.385136
C44	C	1.322984	-0.338367	-0.362072
C45	C	1.410234	-0.338373	-0.362081
C46	C	1.118290	-0.338302	-0.566797
C47	C	1.118312	-0.338280	-0.654048
C48	C	1.127082	-0.155150	-0.370840
C49	C	1.130849	-0.077079	-0.374586
C50	C	1.170687	-0.293356	-0.697200
C51	C	1.170698	-0.293333	-0.779182
C52	C	1.118336	-0.338238	-0.818010
C53	C	1.065955	-0.383164	-0.774852
C54	C	1.065941	-0.383183	-0.692872
C55	C	1.065988	-0.383122	-0.945724
C56	C	1.066003	-0.383103	-1.027709
C57	C	1.170745	-0.293271	-1.032034
C58	C	1.170732	-0.293290	-0.950054
C59	C	1.118351	-0.338218	-0.906902
C60	C	1.118238	-0.338355	-0.158102
C61	C	1.118379	-0.338179	-0.070861
H62	H	0.815540	-0.419958	-0.449057
Br63	Br	1.241760	-0.232415	-0.644513
Br64	Br	1.211749	-0.805520	-0.455703
H65	H	1.046415	-0.937313	-0.290077
H66	H	1.040133	-1.070388	-0.283742
H67	H	1.213349	-0.256752	-0.814313
H68	H	1.228491	-0.937060	-0.472405
Br69	Br	0.979932	-0.758882	-0.223562
Br70	Br	0.988102	-0.585975	-0.231783
H71	H	1.196483	-0.605610	-0.440439
Br72	Br	1.241801	-0.232353	-0.897359
H73	H	1.023364	-0.419668	-1.059320
H74	H	0.570461	-0.256752	-0.275052
H75	H	0.666822	-0.419960	-0.449077
H76	H	1.023323	-0.419695	-0.910592
Br77	Br	1.024843	-0.870483	-0.268500
Br78	Br	1.241836	-0.232301	-1.090597
H79	H	1.023318	-0.419724	-0.806472
H80	H	1.023284	-0.419758	-0.657738
H81	H	0.421733	-0.256764	-0.275071
Br82	Br	0.390554	-0.444391	-0.475158
Br83	Br	0.653493	-0.232331	-0.249008
Br84	Br	0.583789	-0.444391	-0.475117
Br85	Br	0.846730	-0.232321	-0.248985
H86	H	1.190198	-0.738683	-0.434107
Br87	Br	1.248511	-1.090017	-0.492406
