data_functionalizedCrystal
_audit_creation_method	'MofGen! by Chris Wilmer'
_symmetry_space_group_name_H-M	'P1'
_symmetry_Int_Tables_number	1
_symmetry_cell_setting	triclinic
loop_
_symmetry_equiv_pos_as_xyz
  x,y,z
_cell_length_a	16.992694
_cell_length_b	17.038272
_cell_length_c	16.053802
_cell_angle_alpha	92.751609
_cell_angle_beta	87.249047
_cell_angle_gamma	90.889890
loop_
_atom_site_label
_atom_site_type_symbol
_atom_site_fract_x
_atom_site_fract_y
_atom_site_fract_z
O1	O	1.054593	0.163385	-0.069325
O2	O	0.826187	0.161558	-0.069350
O3	O	0.939032	0.048571	-0.069331
O4	O	0.941748	0.276372	-0.069344
O5	O	0.932819	0.054763	0.069527
O6	O	0.819974	0.167750	0.069508
O7	O	1.048380	0.169577	0.069533
Zn8	Zn	0.933190	0.169646	0.091567
Zn9	Zn	0.941376	0.161489	-0.091384
O10	O	0.935535	0.282564	0.069514
C11	C	0.793711	0.162304	0.000076
C12	C	0.706200	0.155293	0.000067
C13	C	0.660472	0.222933	0.000064
C14	C	0.578245	0.216342	0.000076
C15	C	0.541748	0.142110	0.000085
C16	C	0.587482	0.074465	0.000091
C17	C	0.669707	0.081057	0.000085
C18	C	0.296327	0.114789	0.000109
C19	C	0.214096	0.108201	0.000112
C20	C	0.204864	0.250079	0.000099
C21	C	0.287091	0.256665	0.000088
C22	C	0.332818	0.189020	0.000098
N23	N	0.457699	0.135371	0.000094
N24	N	0.416865	0.195760	0.000095
C25	C	0.933456	0.022384	0.000098
C26	C	0.926089	-0.064871	0.000097
C27	C	0.993729	-0.110741	0.000105
C28	C	0.986802	-0.192727	0.000096
C29	C	0.912235	-0.228840	0.000085
C30	C	0.844590	-0.182964	0.000075
C31	C	0.851518	-0.100981	0.000077
C32	C	0.887761	-0.476135	0.000071
C33	C	0.880838	-0.558124	0.000071
C34	C	1.023051	-0.567881	0.000091
C35	C	1.029972	-0.485895	0.000099
C36	C	0.962328	-0.440026	0.000084
C37	C	0.905153	-0.312643	0.000079
C38	C	0.969410	-0.356226	0.000084
C39	C	1.080856	0.168831	0.000105
C40	C	1.168367	0.175841	0.000109
C41	C	0.941111	0.308751	0.000084
C42	C	0.948478	0.396006	0.000079
N43	N	0.927609	0.175214	0.216427
N44	N	0.946963	0.155915	-0.216243
C45	C	0.975645	0.127157	0.260129
C46	C	0.971749	0.131060	0.347535
C47	C	0.919820	0.183023	0.391237
C48	C	0.871779	0.231082	0.347529
C49	C	0.875672	0.227175	0.260125
C50	C	0.902815	0.200067	0.652644
C51	C	0.898928	0.203972	0.740055
C52	C	0.998897	0.103948	0.740054
C53	C	1.002788	0.100050	0.652648
C54	C	0.954744	0.148105	0.608948
N55	N	0.915838	0.187015	0.480580
N56	N	0.958723	0.144109	0.519606
H57	H	0.690181	0.283381	0.000056
C58	C	0.777114	-0.050524	0.000071
H59	H	0.731712	-0.083772	0.000071
H60	H	0.779029	-0.020495	-0.048352
H61	H	0.774693	-0.016183	0.048500
H62	H	1.038011	0.064823	0.775643
C63	C	0.841759	0.261090	0.788126
H64	H	0.813685	0.289133	0.749583
H65	H	0.870703	0.297099	0.822235
H66	H	0.805599	0.232255	0.822211
C67	C	0.346616	0.040382	0.000114
H68	H	0.313102	-0.004770	0.000112
H69	H	0.376724	0.042161	0.048536
H70	H	0.381044	0.037842	-0.048316
H71	H	1.078123	-0.605236	0.000102
H72	H	0.820113	-0.587524	0.000076
C73	C	1.061206	-0.243180	0.000114
H74	H	1.106606	-0.209929	0.000133
H75	H	1.063634	-0.277522	-0.048309
H76	H	1.059286	-0.273207	0.048543
C77	C	0.813354	-0.425689	0.000069
H78	H	0.767954	-0.458941	0.000074
H79	H	0.815260	-0.395658	-0.048351
H80	H	0.810936	-0.391351	0.048501
H81	H	1.054449	-0.081343	0.000119
H82	H	0.836555	0.266306	0.224543
H83	H	0.557760	0.014024	0.000110
H84	H	0.783876	-0.212375	0.000061
C85	C	0.527947	0.290746	0.000070
H86	H	0.561460	0.335899	0.000053
H87	H	0.493521	0.293288	0.048495
H88	H	0.497838	0.288961	-0.048357
H89	H	1.090692	-0.456497	0.000108
C90	C	0.154563	0.324482	0.000099
H91	H	0.100365	0.309928	0.000111
H92	H	0.168299	0.352552	-0.048325
H93	H	0.163983	0.356864	0.048527
H94	H	0.184383	0.047750	0.000119
C95	C	0.849976	0.252933	0.604585
H96	H	0.818500	0.284445	0.643133
H97	H	0.816832	0.221103	0.570497
H98	H	0.882002	0.285881	0.570480
C99	C	1.024596	0.078205	0.395603
H100	H	1.056089	0.046708	0.357057
H101	H	0.992584	0.045255	0.429712
H102	H	1.057736	0.110051	0.429687
H103	H	0.706939	0.025977	0.000087
C104	C	1.032772	0.070005	0.212059
H105	H	1.028219	0.074566	0.153745
H106	H	1.020096	0.017704	0.226392
H107	H	1.085252	0.082496	0.226379
C108	C	0.327231	0.338320	0.000090
H109	H	0.288219	0.377662	0.000099
H110	H	0.361277	0.341686	-0.048332
H111	H	0.356952	0.345994	0.048519
C112	C	1.059945	0.042928	0.604577
H113	H	1.055401	0.047501	0.546263
H114	H	1.047304	-0.009385	0.618889
H115	H	1.112414	0.055453	0.618914
C116	C	0.814661	0.288242	0.395600
H117	H	0.819227	0.283693	0.453914
H118	H	0.762180	0.275763	0.381287
H119	H	0.827349	0.340542	0.381262
H120	H	1.030124	-0.326819	0.000074
H121	H	0.844440	-0.342056	0.000072
