data_functionalizedCrystal
_audit_creation_method	'MofGen! by Chris Wilmer'
_symmetry_space_group_name_H-M	'P1'
_symmetry_Int_Tables_number	1
_symmetry_cell_setting	triclinic
loop_
_symmetry_equiv_pos_as_xyz
  x,y,z
_cell_length_a	15.944551
_cell_length_b	17.038272
_cell_length_c	14.421503
_cell_angle_alpha	90.004327
_cell_angle_beta	89.996859
_cell_angle_gamma	87.305147
loop_
_atom_site_label
_atom_site_type_symbol
_atom_site_fract_x
_atom_site_fract_y
_atom_site_fract_z
O1	O	1.121728	0.100827	-0.077015
O2	O	1.621728	0.600827	0.422985
O3	O	0.878066	0.113259	-0.077039
O4	O	1.378066	0.613259	0.422961
O5	O	0.998449	-0.006773	-0.077020
O6	O	1.498449	0.493227	0.422980
O7	O	1.001345	0.220859	-0.077034
O8	O	1.501345	0.720859	0.422966
O9	O	0.998429	-0.006755	0.077204
O10	O	1.498429	0.493245	0.577204
O11	O	0.878046	0.113277	0.077185
O12	O	1.378046	0.613277	0.577185
O13	O	1.121708	0.100845	0.077208
O14	O	1.621708	0.600845	0.577208
Cu15	Cu	0.999875	0.107062	0.091278
Cu16	Cu	1.499875	0.607062	0.591278
Cu17	Cu	0.999899	0.107041	-0.091109
Cu18	Cu	1.499899	0.607041	0.408891
O19	O	1.001325	0.220877	0.077189
O20	O	1.501325	0.720877	0.577189
C21	C	0.846725	0.112752	0.000070
C22	C	1.346725	0.612752	0.500070
C23	C	0.753369	0.111205	0.000062
C24	C	1.253369	0.611205	0.500062
C25	C	0.995805	-0.035893	0.000092
C26	C	1.495805	0.464107	0.500092
C27	C	0.987945	-0.122688	0.000091
C28	C	1.487945	0.377312	0.500091
C29	C	0.532936	0.033105	0.000085
C30	C	1.032936	0.533105	0.500085
C31	C	0.474515	0.069363	-0.075958
C32	C	0.974515	0.569363	0.424042
C33	C	0.582443	0.108405	0.000073
C34	C	1.082443	0.608405	0.500073
C35	C	0.474519	0.069398	0.076094
C36	C	0.974519	0.569398	0.576094
C37	C	0.417337	0.105696	0.000088
C38	C	0.917337	0.605696	0.500088
C39	C	0.525252	0.144684	-0.076033
C40	C	1.025252	0.644684	0.423967
C41	C	0.525261	0.144709	0.076088
C42	C	1.025261	0.644709	0.576088
C43	C	0.466862	0.181022	0.000027
C44	C	0.966862	0.681022	0.500027
C45	C	0.677557	0.109964	0.000063
C46	C	1.177557	0.609964	0.500063
C47	C	0.322225	0.104143	0.000090
C48	C	0.822225	0.604143	0.500090
C49	C	1.060103	-0.172781	0.000098
C50	C	1.560103	0.327219	0.500098
C51	C	1.052713	-0.254334	0.000089
C52	C	1.552713	0.245666	0.500089
C53	C	0.973165	-0.285792	0.000078
C54	C	1.473165	0.214208	0.500078
C55	C	0.901002	-0.235693	0.000068
C56	C	1.401002	0.264307	0.500068
C57	C	0.908393	-0.154142	0.000071
C58	C	1.408393	0.345858	0.500071
C59	C	0.947056	-0.531558	0.000063
C60	C	1.447056	-0.031558	0.500063
C61	C	0.939671	-0.613115	0.000063
C62	C	1.439671	-0.113115	0.500063
C63	C	1.091383	-0.631751	0.000083
C64	C	1.591383	-0.131751	0.500083
C65	C	1.098766	-0.550197	0.000091
C66	C	1.598766	-0.050197	0.500091
C67	C	1.026603	-0.500105	0.000075
C68	C	1.526603	-0.000105	0.500075
C69	C	0.965610	-0.369152	0.000071
C70	C	1.465610	0.130848	0.500071
C71	C	1.034159	-0.416747	0.000076
C72	C	1.534159	0.083253	0.500076
C73	C	1.153049	0.101352	0.000097
C74	C	1.653049	0.601352	0.500097
C75	C	1.246405	0.102899	0.000100
C76	C	1.746405	0.602899	0.500100
C77	C	1.003969	0.249997	0.000076
C78	C	1.503969	0.749997	0.500076
C79	C	1.011829	0.336792	0.000071
C80	C	1.511829	0.836792	0.500071
N81	N	0.999865	0.107077	0.219560
N82	N	1.499865	0.607077	0.719560
N83	N	0.999916	0.107021	-0.219390
N84	N	1.499916	0.607021	0.280610
C85	C	0.944187	0.162555	0.469205
C86	C	1.444187	0.662555	0.969205
C87	C	1.021171	0.177734	0.531013
C88	C	1.521171	0.677734	1.031013
C89	C	0.999884	0.107058	0.408721
C90	C	1.499884	0.607058	0.908721
C91	C	0.922921	0.091897	0.531006
C92	C	1.422921	0.591897	1.031006
C93	C	0.999895	0.107042	0.591442
C94	C	1.499895	0.607042	1.091442
C95	C	1.076908	0.122272	0.469169
C96	C	1.576908	0.622272	0.969169
C97	C	0.978606	0.036405	0.469156
C98	C	1.478606	0.536405	0.969156
C99	C	1.055642	0.051554	0.530937
C100	C	1.555642	0.551554	1.030937
C101	C	0.999876	0.107070	0.303460
C102	C	1.499876	0.607070	0.803460
C103	C	0.999912	0.107030	0.696701
C104	C	1.499912	0.607030	1.196701
H105	H	0.561807	-0.029389	-0.000006
H106	H	1.061807	0.470611	0.499994
O107	O	1.184563	-0.516263	0.000102
O108	O	1.684563	-0.016263	0.500102
H109	H	1.191560	-0.479550	-0.062751
H110	H	1.691560	0.020450	0.437249
O111	O	0.444868	0.027163	-0.161105
O112	O	0.944868	0.527163	0.338895
H113	H	0.466121	0.057853	-0.224163
H114	H	0.966121	0.557853	0.275837
O115	O	0.554739	0.186802	-0.161307
O116	O	1.054739	0.686802	0.338693
H117	H	0.624305	0.187580	-0.160668
H118	H	1.124305	0.687580	0.339332
O119	O	0.428860	0.263888	-0.000016
O120	O	0.928860	0.763888	0.499984
H121	H	0.449244	0.294943	-0.063195
H122	H	0.949244	0.794943	0.436805
H123	H	1.098927	-0.391130	0.000064
H124	H	1.598927	0.108870	0.500064
H125	H	1.039179	0.237476	0.558183
H126	H	1.539179	0.737476	1.058183
O127	O	1.163157	0.139349	0.433354
O128	O	1.663157	0.639349	0.933354
H129	H	1.162466	0.139253	0.356393
H130	H	1.662466	0.639253	0.856393
H131	H	0.888296	-0.490782	0.000051
H132	H	1.388296	0.009218	0.500051
H133	H	0.547656	0.176539	0.140376
H134	H	1.047656	0.676539	0.640376
O135	O	0.444892	0.027214	0.161258
O136	O	0.944892	0.527214	0.661258
H137	H	0.471514	-0.034161	0.161095
H138	H	0.971514	0.465839	0.661095
O139	O	1.145902	-0.138851	0.000101
O140	O	1.645902	0.361149	0.500101
H141	H	1.194835	-0.187389	0.000093
H142	H	1.694835	0.312611	0.500093
O143	O	0.815204	-0.269624	0.000054
O144	O	1.315204	0.230376	0.500054
H145	H	0.766270	-0.221087	0.000040
H146	H	1.266270	0.278913	0.500040
H147	H	1.111472	-0.295117	0.000097
H148	H	1.611472	0.204883	0.500097
H149	H	1.150134	-0.672544	0.000093
H150	H	1.650134	-0.172544	0.500093
O151	O	0.853870	-0.647050	0.000041
O152	O	1.353870	-0.147050	0.500041
H153	H	0.804931	-0.598518	0.000020
H154	H	1.304931	-0.098518	0.500020
H155	H	0.849634	-0.113356	0.000064
H156	H	1.349634	0.386644	0.500064
O157	O	1.118109	-0.010624	0.566623
O158	O	1.618109	0.489376	1.066623
H159	H	1.084849	-0.053792	0.608975
H160	H	1.584849	0.446208	1.108975
H161	H	0.900842	-0.394774	0.000065
H162	H	1.400842	0.105226	0.500065
O163	O	0.954729	-0.042704	0.433125
O164	O	1.454729	0.457296	0.933125
H165	H	0.890781	-0.055148	0.457845
H166	H	1.390781	0.444852	0.957845
O167	O	0.881868	0.224763	0.433285
O168	O	1.381868	0.724763	0.933285
H169	H	0.899741	0.283349	0.458060
H170	H	1.399741	0.783349	0.958060
O171	O	0.836704	0.074910	0.566988
O172	O	1.336704	0.574910	1.066988
H173	H	0.790589	0.121064	0.542254
H174	H	1.290589	0.621064	1.042254
