data_functionalizedCrystal
_audit_creation_method	'MofGen! by Chris Wilmer'
_symmetry_space_group_name_H-M	'P1'
_symmetry_Int_Tables_number	1
_symmetry_cell_setting	triclinic
loop_
_symmetry_equiv_pos_as_xyz
  x,y,z
_cell_length_a	17.699083
_cell_length_b	23.532407
_cell_length_c	16.176319
_cell_angle_alpha	89.988536
_cell_angle_beta	89.998611
_cell_angle_gamma	83.065847
loop_
_atom_site_label
_atom_site_type_symbol
_atom_site_fract_x
_atom_site_fract_y
_atom_site_fract_z
O1	O	1.003713	0.072020	-0.068639
O2	O	0.783287	0.081390	-0.068667
O3	O	0.900147	-0.006208	-0.068637
O4	O	0.886853	0.159618	-0.068669
O5	O	0.900131	-0.006213	0.068856
O6	O	0.783271	0.081384	0.068826
O7	O	1.003697	0.072014	0.068854
Cu8	Cu	0.893483	0.076699	0.081394
Cu9	Cu	0.893502	0.076705	-0.081207
O10	O	0.886837	0.159612	0.068824
C11	C	0.755084	0.081051	0.000076
C12	C	0.671071	0.080044	0.000066
C13	C	0.622189	0.131462	0.000056
C14	C	0.543251	0.130512	0.000067
C15	C	0.513196	0.078144	0.000082
C16	C	0.562084	0.026722	0.000094
C17	C	0.641021	0.027672	0.000089
C18	C	0.243740	0.022888	0.000115
C19	C	0.164797	0.021942	0.000117
C20	C	0.145970	0.125728	0.000093
C21	C	0.224907	0.126678	0.000088
C22	C	0.273788	0.075257	0.000105
C23	C	0.359382	0.076287	0.000094
C24	C	0.427603	0.077113	0.000086
C25	C	0.899801	-0.027427	0.000111
C26	C	0.898783	-0.090647	0.000118
C27	C	0.961554	-0.489570	0.000080
C28	C	0.960609	-0.548973	0.000074
O29	O	1.018799	-0.585550	0.000051
N30	N	0.891136	-0.571799	0.000066
C31	C	0.822604	-0.535218	0.000055
O32	O	0.763424	-0.560088	0.000047
C33	C	0.823550	-0.475816	0.000056
C34	C	0.893028	-0.452994	0.000073
C35	C	1.031026	-0.466747	0.000096
C36	C	1.031972	-0.407348	0.000104
C37	C	0.963445	-0.370772	0.000096
C38	C	0.893973	-0.393595	0.000080
C39	C	0.755019	-0.439237	0.000040
C40	C	0.755971	-0.379832	0.000039
C41	C	0.825448	-0.357009	0.000056
C42	C	0.826391	-0.297620	0.000081
N43	N	0.895864	-0.274795	0.000089
C44	C	0.964391	-0.311371	0.000097
C45	C	0.820622	-0.659966	0.000053
C46	C	0.819674	-0.719367	0.000058
C47	C	0.957680	-0.733118	0.000075
C48	C	0.958626	-0.673716	0.000076
C49	C	0.890095	-0.637141	0.000061
C50	C	0.966371	-0.186628	0.000114
C51	C	0.967310	-0.127223	0.000125
C52	C	0.829305	-0.113478	0.000104
C53	C	0.828365	-0.172877	0.000097
C54	C	0.896904	-0.209452	0.000099
O55	O	0.768232	-0.261008	0.000100
O56	O	1.023560	-0.286493	0.000094
C57	C	1.031901	0.072353	0.000109
C58	C	1.115914	0.073360	0.000114
C59	C	0.887184	0.180832	0.000073
C60	C	0.888202	0.244052	0.000062
N61	N	0.893475	0.076694	0.195759
N62	N	0.893516	0.076706	-0.195573
C63	C	0.945236	0.037921	0.239037
C64	C	0.945240	0.037921	0.325584
C65	C	0.893486	0.076696	0.368852
C66	C	0.841719	0.115470	0.325568
C67	C	0.841713	0.115467	0.239023
C68	C	0.841745	0.115481	0.674597
C69	C	0.841758	0.115481	0.761148
C70	C	0.945273	0.037934	0.761158
C71	C	0.945266	0.037932	0.674612
C72	C	0.893497	0.076704	0.631336
C73	C	0.893493	0.076703	0.537492
C74	C	0.893493	0.076700	0.462695
H75	H	0.106161	0.167598	0.000084
C76	C	0.131738	-0.035666	0.000142
H77	H	0.172155	-0.066155	0.000159
H78	H	0.101335	-0.038195	-0.047803
H79	H	0.101337	-0.038189	0.048097
C80	C	0.694794	-0.028886	0.000099
H81	H	0.746110	-0.020820	0.000102
H82	H	0.685727	-0.050364	-0.047841
H83	H	0.685726	-0.050362	0.048058
C84	C	0.678594	-0.464331	0.000011
H85	H	0.687833	-0.504948	0.000014
H86	H	0.650413	-0.451757	-0.047943
H87	H	0.650388	-0.451775	0.047957
C88	C	0.680584	-0.339602	0.000027
H89	H	0.639075	-0.361706	0.000022
H90	H	0.678089	-0.316134	-0.047917
H91	H	0.678075	-0.316153	0.047983
H92	H	0.987411	0.006359	0.639386
H93	H	0.799576	0.147040	0.360802
C94	C	0.655243	0.189068	0.000039
H95	H	0.614822	0.219554	0.000043
H96	H	0.685643	0.191600	-0.047909
H97	H	0.685645	0.191594	0.047991
H98	H	0.283530	-0.018983	0.000129
H99	H	1.022182	-0.216401	0.000113
H100	H	0.771791	-0.191460	0.000106
C101	C	0.489484	0.187072	0.000054
H102	H	0.518689	0.218396	0.000034
H103	H	0.458301	0.188860	0.048003
H104	H	0.458297	0.188858	-0.047897
H105	H	0.249373	0.169322	0.000072
C106	C	1.033061	-0.773357	0.000078
H107	H	1.074577	-0.751260	0.000090
H108	H	1.035561	-0.796808	-0.047870
H109	H	1.035552	-0.796822	0.048030
C110	C	0.529029	-0.030883	0.000109
H111	H	0.569449	-0.061370	0.000121
H112	H	0.498626	-0.033410	-0.047836
H113	H	0.498629	-0.033413	0.048064
C114	C	1.043738	-0.102122	0.000139
H115	H	1.084413	-0.132417	0.000133
H116	H	1.046975	-0.079244	0.048088
H117	H	1.046981	-0.079228	-0.047812
C118	C	1.108398	-0.382251	0.000107
H119	H	1.149068	-0.412549	0.000101
H120	H	1.111642	-0.359370	0.048051
H121	H	1.111639	-0.359361	-0.047848
C122	C	1.002211	-0.004721	0.808763
H123	H	0.994799	0.000827	0.866504
H124	H	1.052673	0.001417	0.794572
H125	H	0.994274	-0.042724	0.794590
H126	H	1.015201	-0.655139	0.000089
H127	H	0.763099	-0.737943	0.000059
H128	H	0.773512	-0.083687	0.000101
H129	H	1.086833	-0.496522	0.000099
H130	H	0.764811	-0.630189	0.000048
C131	C	1.002165	-0.004732	0.191450
H132	H	1.032987	-0.027827	0.229623
H133	H	1.033513	0.015722	0.157675
H134	H	0.975112	-0.028417	0.157703
H135	H	0.799595	0.147051	0.639368
C136	C	0.784812	0.158126	0.808742
H137	H	0.753971	0.181211	0.770574
H138	H	0.811848	0.181813	0.842496
H139	H	0.753473	0.137654	0.842509
C140	C	1.002184	-0.004723	0.373186
H141	H	1.033014	-0.027810	0.335022
H142	H	0.975150	-0.028408	0.406961
H143	H	1.033534	0.015743	0.406933
H144	H	0.799563	0.147039	0.203787
