data_functionalizedCrystal
_audit_creation_method	'MofGen! by Chris Wilmer'
_symmetry_space_group_name_H-M	'P1'
_symmetry_Int_Tables_number	1
_symmetry_cell_setting	triclinic
loop_
_symmetry_equiv_pos_as_xyz
  x,y,z
_cell_length_a	12.645330
_cell_length_b	13.032951
_cell_length_c	13.032268
_cell_angle_alpha	89.114265
_cell_angle_beta	97.151313
_cell_angle_gamma	97.179781
loop_
_atom_site_label
_atom_site_type_symbol
_atom_site_fract_x
_atom_site_fract_y
_atom_site_fract_z
Zn1	Zn	-0.716005	-1.498472	-0.780900
Zn2	Zn	-0.873953	-1.520214	-0.608926
Zn3	Zn	-0.671712	-1.348331	-0.587135
Zn4	Zn	-0.868211	-1.326463	-0.759045
O5	O	-0.782470	-1.423370	-0.684001
O6	O	-0.757897	-1.645277	-0.776353
O7	O	-0.830991	-1.515665	-0.462118
O8	O	-0.529251	-1.368301	-0.612865
O9	O	-0.873940	-1.661250	-0.650004
O10	O	-0.561793	-1.478609	-0.755223
O11	O	-0.682406	-1.389383	-0.446109
O12	O	-0.676839	-1.201510	-0.591674
O13	O	-0.864155	-1.331029	-0.905861
O14	O	-0.821206	-1.185444	-0.717975
O15	O	-0.752330	-1.457404	-0.921918
O16	O	-1.021528	-1.494460	-0.628812
O17	O	-1.017310	-1.352112	-0.739105
C18	C	-0.743594	-1.156160	-0.650089
C19	C	-0.726990	-1.041844	-0.635606
C20	C	-0.791111	-0.982968	-0.691547
C21	C	-0.773952	-0.864815	-0.676579
C22	C	-1.057888	-1.423297	-0.683978
C23	C	-1.175730	-1.423355	-0.684014
C24	C	-1.340759	-1.334101	-0.753685
C25	C	-1.218112	-1.333729	-0.753378
C26	C	-1.203878	-1.407788	-0.571912
C27	C	-1.326461	-1.407243	-0.572334
C28	C	-1.361785	-1.528773	-0.725627
C29	C	-1.239347	-1.527805	-0.727912
C30	C	-0.505984	-1.423469	-0.684052
C31	C	-0.388162	-1.423511	-0.684073
C32	C	-0.812542	-1.389352	-0.952249
C33	C	-0.825357	-1.374856	-1.066560
C34	C	-0.821487	-0.691625	-0.718040
C35	C	-0.838081	-0.805941	-0.732527
C36	C	-0.775742	-1.430920	-1.125468
C37	C	-0.788985	-1.415939	-1.243614
C38	C	-0.752447	-1.457315	-0.416805
C39	C	-0.739363	-1.472011	-0.302520
H40	H	-0.905680	-0.843000	-0.791512
H41	H	-1.222377	-1.539795	-0.810481
H42	H	-0.723455	-1.490007	-1.088433
H43	H	-0.841263	-1.356838	-1.280643
H44	H	-0.858706	-1.020033	-0.750524
C45	C	-0.636417	-0.884457	-0.556550
C46	C	-0.635744	-0.991819	-0.555974
H47	H	-0.580091	-0.853579	-0.507379
H48	H	-0.626215	-0.858154	-0.623457
H49	H	-0.703399	-0.868826	-0.539187
H50	H	-0.568765	-1.007450	-0.573345
H51	H	-0.645938	-1.018131	-0.489053
H52	H	-1.175084	-1.255414	-0.724760
H53	H	-1.199659	-1.341873	-0.836069
C54	C	-1.473801	-1.431907	-0.873492
C55	C	-1.396274	-1.344805	-0.865644
H56	H	-1.508084	-1.438508	-0.942611
H57	H	-1.440218	-1.491924	-0.854961
H58	H	-1.525691	-1.424349	-0.828236
H59	H	-1.344380	-1.352367	-0.910894
H60	H	-1.429858	-1.284774	-0.884187
C61	C	-1.247432	-1.243088	-0.499693
C62	C	-1.346025	-1.303918	-0.526986
H63	H	-1.259509	-1.179295	-0.471704
H64	H	-1.204355	-1.278540	-0.449551
H65	H	-1.211575	-1.230161	-0.559319
H66	H	-1.381879	-1.316852	-0.467358
H67	H	-1.389119	-1.268459	-0.577131
C68	C	-1.475136	-1.228276	-0.720441
C69	C	-1.363980	-1.229017	-0.715453
H70	H	-1.489469	-1.163405	-0.696829
H71	H	-1.507290	-1.239037	-0.789888
H72	H	-1.504029	-1.281877	-0.677974
H73	H	-1.335088	-1.175420	-0.757927
H74	H	-1.331812	-1.218245	-0.645995
H75	H	-0.687070	-1.531100	-1.265491
H76	H	-0.877632	-1.315759	-1.103593
H77	H	-0.706344	-0.827753	-0.617605
C78	C	-1.315565	-1.473114	-0.398754
C79	C	-1.368062	-1.492336	-0.498932
H80	H	-1.341257	-1.525640	-0.353441
H81	H	-1.240454	-1.472886	-0.398989
H82	H	-1.329397	-1.407785	-0.375887
H83	H	-1.354223	-1.557662	-0.521802
H84	H	-1.443190	-1.492574	-0.498700
C85	C	-1.092569	-1.449672	-0.417838
C86	C	-1.166290	-1.493741	-0.499143
H87	H	-1.069384	-1.502741	-0.372911
H88	H	-1.032460	-1.413021	-0.444995
H89	H	-1.125876	-1.403378	-0.380460
H90	H	-1.132981	-1.540029	-0.536526
H91	H	-1.226409	-1.530409	-0.471985
C92	C	-1.288894	-1.674722	-0.622894
C93	C	-1.202025	-1.620984	-0.665928
H94	H	-1.265851	-1.732248	-0.584626
H95	H	-1.315729	-1.630012	-0.578257
H96	H	-1.344008	-1.698366	-0.676620
H97	H	-1.146913	-1.597334	-0.612202
H98	H	-1.175173	-1.665702	-0.710568
H99	H	-1.159134	-1.332133	-0.537992
H100	H	-1.405250	-1.545666	-0.806709
H101	H	-1.392841	-1.595217	-0.675093
