data_functionalizedCrystal
_audit_creation_method	'MofGen! by Chris Wilmer'
_symmetry_space_group_name_H-M	'P1'
_symmetry_Int_Tables_number	1
_symmetry_cell_setting	triclinic
loop_
_symmetry_equiv_pos_as_xyz
  x,y,z
_cell_length_a	19.288864
_cell_length_b	10.065918
_cell_length_c	19.288865
_cell_angle_alpha	99.849149
_cell_angle_beta	83.136245
_cell_angle_gamma	99.901568
loop_
_atom_site_label
_atom_site_type_symbol
_atom_site_fract_x
_atom_site_fract_y
_atom_site_fract_z
O1	O	0.930471	0.113954	0.095719
O2	O	0.728203	0.113863	0.107401
O3	O	0.835180	0.113884	0.000428
O4	O	0.823495	0.113933	0.202692
O5	O	0.816997	-0.113118	-0.017647
O6	O	0.710021	-0.113139	0.089326
O7	O	0.912289	-0.113048	0.077645
Zn8	Zn	0.808268	-0.149135	0.080616
Zn9	Zn	0.832224	0.149950	0.104430
O10	O	0.805312	-0.113069	0.184618
C11	C	0.693235	0.000350	0.097987
C12	C	0.616128	0.000314	0.096855
N13	N	0.791923	-0.353252	0.064363
C14	C	0.571435	0.000350	0.159625
C15	C	0.498989	0.000365	0.158566
C16	C	0.471242	0.000371	0.094734
C17	C	0.515944	0.000327	0.031955
C18	C	0.588388	0.000298	0.033015
C19	C	0.369353	0.079933	0.050890
C20	C	0.296911	0.079970	0.049833
C21	C	0.247803	0.000453	0.091461
C22	C	0.271145	-0.079084	0.134159
C23	C	0.343588	-0.079113	0.135219
C24	C	0.392690	0.000401	0.093578
C25	C	0.124555	0.000503	0.153087
C26	C	0.052107	0.000510	0.152024
C27	C	0.069065	0.000485	0.025412
C28	C	0.141510	0.000465	0.026476
C29	C	0.169251	0.000481	0.090316
C30	C	0.826533	-0.421006	0.098775
C31	C	0.813960	-0.578182	0.086260
C32	C	0.947258	0.000468	0.087059
C33	C	1.024365	0.000513	0.088192
C34	C	0.825712	0.000379	-0.034486
C35	C	0.824582	0.000366	-0.111591
N36	N	0.848574	0.354067	0.120677
C37	C	0.887352	0.000388	-0.156285
C38	C	0.886293	0.000409	-0.228731
C39	C	0.822458	0.000381	-0.256481
C40	C	0.759681	0.000367	-0.211775
C41	C	0.760743	0.000360	-0.139331
C42	C	0.765908	-0.079155	-0.371101
C43	C	0.764848	-0.079156	-0.443545
C44	C	0.819181	0.000410	-0.479924
C45	C	0.874584	0.079960	-0.443852
C46	C	0.875646	0.079953	-0.371407
C47	C	0.821300	0.000390	-0.335034
C48	C	0.880807	0.000457	-0.603172
C49	C	0.879746	0.000486	-0.675618
C50	C	0.753131	0.000431	-0.658662
C51	C	0.754195	0.000415	-0.586217
C52	C	0.818034	0.000421	-0.558477
C53	C	0.814780	0.000439	0.219532
C54	C	0.815911	0.000461	0.296637
H55	H	0.594016	0.000366	0.211609
H56	H	0.493350	0.000350	-0.020016
O57	O	0.450775	0.000399	0.226273
H58	H	0.395739	0.000405	0.214808
H59	H	0.701157	0.000415	-0.681255
H60	H	0.887518	-0.587585	0.159406
H61	H	0.752986	-0.411607	0.025634
H62	H	0.624778	0.000269	-0.018102
H63	H	0.721661	-0.143955	-0.341488
H64	H	0.932789	0.000468	-0.580585
H65	H	0.277913	0.144740	0.015069
H66	H	0.865475	-0.362651	0.137499
O67	O	0.690827	0.000322	-0.241700
H68	H	0.700632	0.000311	-0.299586
H69	H	0.362589	-0.143879	0.169983
H70	H	0.939335	0.000398	-0.133704
H71	H	0.775020	-0.636532	0.047528
H72	H	0.231161	-0.143836	0.168056
H73	H	0.937409	0.000432	-0.265128
H74	H	0.920756	0.144727	-0.342039
O75	O	0.705094	-0.164955	-0.482446
H76	H	0.726728	-0.239637	-0.525163
O77	O	0.933190	0.165798	-0.483074
H78	H	0.923142	0.152459	-0.539507
O79	O	0.947449	0.000498	-0.723832
H80	H	0.992014	0.000484	-0.692369
O81	O	0.686491	0.000358	-0.538006
H82	H	0.641922	0.000325	-0.569472
O83	O	0.693037	0.000313	-0.091119
H84	H	0.648468	0.000287	-0.122583
H85	H	0.015717	0.000532	0.203142
O86	O	0.154482	0.000493	0.221936
H87	H	0.111227	0.000495	0.265406
H88	H	0.046481	0.000574	-0.026554
H89	H	0.177901	0.000442	-0.024638
O90	O	0.422320	0.165712	0.005993
H91	H	0.393920	0.221040	-0.023864
