data_functionalizedCrystal
_audit_creation_method	'MofGen! by Chris Wilmer'
_symmetry_space_group_name_H-M	'P1'
_symmetry_Int_Tables_number	1
_symmetry_cell_setting	triclinic
loop_
_symmetry_equiv_pos_as_xyz
  x,y,z
_cell_length_a	13.897448
_cell_length_b	13.897449
_cell_length_c	12.759393
_cell_angle_alpha	89.976287
_cell_angle_beta	90.032272
_cell_angle_gamma	89.982475
loop_
_atom_site_label
_atom_site_type_symbol
_atom_site_fract_x
_atom_site_fract_y
_atom_site_fract_z
Zn1	Zn	-0.383972	-1.474711	0.594085
Zn2	Zn	-0.545299	-1.474602	0.418400
Zn3	Zn	-0.384019	-1.313397	0.418412
Zn4	Zn	-0.545227	-1.313382	0.594028
O5	O	-0.464629	-1.394023	0.506231
O6	O	-0.405383	-1.609678	0.570799
O7	O	-0.523954	-1.453179	0.271380
O8	O	-0.249031	-1.334848	0.441744
O9	O	-0.523909	-1.609598	0.441723
O10	O	-0.248997	-1.453364	0.570810
O11	O	-0.405463	-1.334743	0.271389
O12	O	-0.405393	-1.178414	0.441689
O13	O	-0.523786	-1.334821	0.741057
O14	O	-0.523831	-1.178402	0.570714
O15	O	-0.405314	-1.453349	0.741099
O16	O	-0.680271	-1.453164	0.441668
O17	O	-0.680218	-1.334716	0.570702
C18	C	-0.464610	-1.143409	0.506197
C19	C	-0.464625	-1.036195	0.506207
C20	C	-0.715244	-1.393953	0.506201
C21	C	-0.822458	-1.394011	0.506223
C22	C	-0.464624	-0.839900	0.506227
C23	C	-0.464621	-0.949132	0.506213
C24	C	-1.018753	-1.394112	0.506289
C25	C	-0.909520	-1.394053	0.506255
C26	C	-0.213036	-1.394120	0.506285
C27	C	-0.105822	-1.394161	0.506307
C28	C	-0.464537	-1.394095	0.780265
C29	C	-0.464497	-1.394126	0.897041
C30	C	-0.464643	-0.645616	0.506256
C31	C	-0.464633	-0.752830	0.506240
C32	C	-0.464652	-1.394007	0.233264
C33	C	-0.464420	-1.394163	0.116488
C34	C	-0.402799	-1.455848	0.951927
C35	C	-0.402757	-1.455864	1.061651
C36	C	-0.526121	-1.332434	1.061595
C37	C	-0.526157	-1.332413	0.951872
H38	H	-0.352514	-1.506123	1.106334
H39	H	-0.576324	-1.282192	1.106252
C40	C	-0.648108	-1.210414	0.962829
C41	C	-0.593986	-1.264567	0.891534
H42	H	-0.689983	-1.168534	0.925576
H43	H	-0.606067	-1.173541	1.005623
H44	H	-0.684994	-1.252443	1.005629
H45	H	-0.557095	-1.222538	0.848739
H46	H	-0.636033	-1.301442	0.848722
H47	H	-0.352589	-1.506096	0.907286
