data_functionalizedCrystal
_audit_creation_method	'MofGen! by Chris Wilmer'
_symmetry_space_group_name_H-M	'P1'
_symmetry_Int_Tables_number	1
_symmetry_cell_setting	triclinic
loop_
_symmetry_equiv_pos_as_xyz
  x,y,z
_cell_length_a	9.065218
_cell_length_b	7.088929
_cell_length_c	8.597275
_cell_angle_alpha	91.318685
_cell_angle_beta	94.827105
_cell_angle_gamma	83.703834
loop_
_atom_site_label
_atom_site_type_symbol
_atom_site_fract_x
_atom_site_fract_y
_atom_site_fract_z
O1	O	1.949654	0.119105	-0.242097
O2	O	1.520691	0.116047	-0.260670
O3	O	1.740152	0.154576	-0.026743
O4	O	1.730193	0.080576	-0.476023
O5	O	1.769478	-0.158238	0.004590
O6	O	1.550017	-0.196767	-0.229336
O7	O	1.978980	-0.193710	-0.210763
Cu8	Cu	1.767177	-0.223801	-0.217189
Cu9	Cu	1.732494	0.146138	-0.254244
O10	O	1.759519	-0.232238	-0.444690
C11	C	1.480336	-0.040066	-0.243218
C12	C	1.316401	-0.039185	-0.237881
N13	N	1.791581	-0.483996	-0.191125
C14	C	2.019334	-0.037593	-0.228215
C15	C	2.183269	-0.038460	-0.233554
C16	C	1.752112	0.007651	0.046471
C17	C	1.744039	0.035907	0.217944
N18	N	1.708102	0.406336	-0.280296
C19	C	1.747559	-0.085310	-0.517904
C20	C	1.755631	-0.113552	-0.689379
H21	H	1.621585	-0.527238	-0.372703
H22	H	1.771743	-0.263129	0.258777
C23	C	1.908477	-0.573743	-0.066285
N24	N	1.996520	-0.641342	0.027745
C25	C	1.722283	0.237971	0.287972
N26	N	1.705894	0.390169	0.340727
