data_functionalizedCrystal
_audit_creation_method	'MofGen! by Chris Wilmer'
_symmetry_space_group_name_H-M	'P1'
_symmetry_Int_Tables_number	1
_symmetry_cell_setting	triclinic
loop_
_symmetry_equiv_pos_as_xyz
  x,y,z
_cell_length_a	11.169417
_cell_length_b	19.077432
_cell_length_c	11.169409
_cell_angle_alpha	92.335551
_cell_angle_beta	90.019824
_cell_angle_gamma	87.727994
loop_
_atom_site_label
_atom_site_type_symbol
_atom_site_fract_x
_atom_site_fract_y
_atom_site_fract_z
Zn1	Zn	1.854017	-0.280125	0.659321
Zn2	Zn	2.354017	0.219875	1.159321
Zn3	Zn	1.861914	-0.397845	0.450560
Zn4	Zn	2.361914	0.102155	0.950560
Zn5	Zn	1.653306	-0.280168	0.458652
Zn6	Zn	2.153306	0.219832	0.958652
Zn7	Zn	1.661314	-0.397787	0.651209
Zn8	Zn	2.161314	0.102213	1.151209
O9	O	1.757638	-0.338981	0.554936
O10	O	2.257638	0.161019	1.054936
O11	O	2.023015	-0.295747	0.631637
O12	O	2.523015	0.204253	1.131637
O13	O	1.834195	-0.382276	0.283681
O14	O	2.334195	0.117724	0.783681
O15	O	1.673274	-0.181672	0.492053
O16	O	2.173274	0.318328	0.992053
O17	O	2.028816	-0.382235	0.478261
O18	O	2.528816	0.117765	0.978261
O19	O	1.820736	-0.181641	0.639483
O20	O	2.320736	0.318359	1.139483
O21	O	1.680931	-0.295820	0.289626
O22	O	2.180931	0.204180	0.789626
O23	O	1.486418	-0.295764	0.484187
O24	O	1.986418	0.204236	0.984187
O25	O	1.686923	-0.382137	0.820238
O26	O	2.186923	0.117863	1.320238
O27	O	1.492301	-0.382179	0.625658
O28	O	1.992301	0.117821	1.125658
O29	O	1.828501	-0.295691	0.826198
O30	O	2.328501	0.204309	1.326198
O31	O	1.841960	-0.496327	0.470395
O32	O	2.341960	0.003673	0.970395
O33	O	1.694580	-0.496285	0.617811
O34	O	2.194580	0.003715	1.117811
C35	C	1.445812	-0.338971	0.554921
C36	C	1.945812	0.161029	1.054921
C37	C	1.312413	-0.338983	0.554942
C38	C	1.812413	0.161017	1.054942
C39	C	1.770029	-0.521843	0.542371
C40	C	2.270029	-0.021843	1.042371
C41	C	1.775439	-0.600073	0.537036
C42	C	2.275439	-0.100073	1.037036
C43	C	1.701196	-0.636828	0.611217
C44	C	2.201196	-0.136828	1.111217
C45	C	1.706285	-0.710333	0.606200
C46	C	2.206285	-0.210333	1.106200
C47	C	1.785624	-0.747080	0.527005
C48	C	2.285624	-0.247080	1.027005
C49	C	1.859871	-0.710319	0.452816
C50	C	2.359871	-0.210319	0.952816
C51	C	1.854775	-0.636816	0.457828
C52	C	2.354775	-0.136816	0.957828
C53	C	1.809094	-0.966911	0.503785
C54	C	2.309094	-0.466911	1.003785
C55	C	1.814187	-1.040420	0.498781
C56	C	2.314187	-0.540420	0.998781
C57	C	1.660599	-1.040429	0.652164
C58	C	2.160599	-0.540429	1.152164
C59	C	1.655515	-0.966924	0.657174
C60	C	2.155515	-0.466924	1.157174
C61	C	1.729757	-0.930169	0.582980
C62	C	2.229757	-0.430169	1.082980
N63	N	1.790831	-0.822214	0.521877
N64	N	2.290831	-0.322214	1.021877
N65	N	1.724544	-0.855037	0.588103
N66	N	2.224544	-0.355037	1.088103
C67	C	2.070681	-0.338992	0.554951
C68	C	2.570681	0.161008	1.054951
C69	C	2.204081	-0.338997	0.554958
C70	C	2.704081	0.161003	1.054958
C71	C	1.757724	-0.338903	0.867984
C72	C	2.257724	0.161097	1.367984
C73	C	1.757761	-0.338870	1.001386
C74	C	2.257761	0.161130	1.501386
C75	C	1.745231	-0.155405	0.567576
C76	C	2.245231	0.344595	1.067576
C77	C	1.739944	-0.077176	0.572962
C78	C	2.239944	0.422824	1.072962
C79	C	1.757617	-0.339008	0.243109
C80	C	2.257617	0.160992	0.743109
C81	C	1.757799	-0.338843	0.109721
C82	C	2.257799	0.161157	0.609721
H83	H	1.636595	-0.606914	0.675711
H84	H	2.136595	-0.106914	1.175711
Cl85	Cl	1.959613	-0.756516	0.353256
Cl86	Cl	2.459613	-0.256516	0.853256
H87	H	1.645817	-0.740257	0.666595
H88	H	2.145817	-0.240257	1.166595
H89	H	1.915230	-0.606890	0.397420
H90	H	2.415230	-0.106890	0.897420
H91	H	1.590911	-0.937006	0.721661
H92	H	2.090911	-0.437006	1.221661
H93	H	1.600154	-1.070362	0.712567
H94	H	2.100154	-0.570362	1.212567
Cl95	Cl	1.913936	-1.086616	0.399214
Cl96	Cl	2.413936	-0.586616	0.899214
H97	H	1.869547	-0.936991	0.443376
H98	H	2.369547	-0.436991	0.943376
