data_functionalizedCrystal
_audit_creation_method	'MofGen! by Chris Wilmer'
_symmetry_space_group_name_H-M	'P1'
_symmetry_Int_Tables_number	1
_symmetry_cell_setting	triclinic
loop_
_symmetry_equiv_pos_as_xyz
  x,y,z
_cell_length_a	16.120530
_cell_length_b	25.639239
_cell_length_c	16.120297
_cell_angle_alpha	87.131881
_cell_angle_beta	89.871860
_cell_angle_gamma	87.134624
loop_
_atom_site_label
_atom_site_type_symbol
_atom_site_fract_x
_atom_site_fract_y
_atom_site_fract_z
Zn1	Zn	1.247326	-0.264883	0.534532
Zn2	Zn	1.254240	-0.348114	0.395464
Zn3	Zn	1.115320	-0.256048	0.388451
Zn4	Zn	1.108197	-0.347633	0.527433
O5	O	1.181271	-0.304169	0.461470
O6	O	1.364607	-0.279822	0.521990
O7	O	1.241687	-0.332405	0.278168
O8	O	1.132918	-0.184058	0.407865
O9	O	1.369688	-0.340972	0.419817
O10	O	1.229902	-0.190549	0.515190
O11	O	1.139623	-0.264765	0.273016
O12	O	0.998010	-0.264298	0.400981
O13	O	1.120778	-0.340152	0.644740
O14	O	0.992777	-0.331585	0.503091
O15	O	1.222995	-0.279356	0.649955
O16	O	1.234780	-0.421212	0.412934
O17	O	1.127483	-0.420858	0.509891
C18	C	0.965222	-0.296931	0.450505
C19	C	0.872794	-0.293847	0.445834
C20	C	1.181131	-0.440006	0.461422
C21	C	1.181145	-0.498121	0.461434
C22	C	0.703567	-0.288205	0.437314
C23	C	0.659812	-0.320173	0.485686
C24	C	0.565648	-0.317034	0.480946
C25	C	0.797739	-0.291344	0.442054
C26	C	1.125392	-0.749147	0.511938
C27	C	1.125361	-0.694541	0.511927
O28	O	1.077822	-0.666157	0.554833
N29	N	1.181248	-0.667399	0.461483
C30	C	1.237174	-0.694867	0.411053
O31	O	1.284707	-0.666766	0.368145
C32	C	1.237207	-0.749471	0.411069
C33	C	1.181312	-0.776610	0.461510
C34	C	1.069501	-0.776285	0.562376
C35	C	1.069531	-0.830887	0.562386
C36	C	1.125451	-0.858350	0.511958
C37	C	1.181341	-0.831212	0.461520
C38	C	1.293137	-0.776938	0.360644
C39	C	1.293166	-0.831547	0.360665
C40	C	1.237270	-0.858685	0.411106
C41	C	1.237291	-0.913277	0.411102
N42	N	1.181404	-0.940418	0.461546
C43	C	1.125484	-0.912955	0.511974
C44	C	1.237100	-0.580193	0.411023
C45	C	1.237063	-0.525589	0.411002
C46	C	1.125251	-0.525267	0.511878
C47	C	1.125285	-0.579872	0.511894
C48	C	1.181213	-0.607334	0.461468
C49	C	1.125550	-1.027623	0.511990
C50	C	1.125582	-1.082229	0.511993
C51	C	1.237396	-1.082546	0.411121
C52	C	1.237362	-1.027945	0.411115
C53	C	1.181435	-1.000484	0.461556
O54	O	1.284808	-0.941696	0.368220
O55	O	1.077966	-0.941062	0.554882
C56	C	1.398163	-0.311437	0.472477
C57	C	1.490590	-0.314533	0.477168
C58	C	1.170321	-0.310685	0.678363
C59	C	1.165654	-0.313462	0.770790
C60	C	1.181433	-0.167803	0.461537
C61	C	1.181502	-0.109693	0.461565
C62	C	1.192226	-0.297642	0.245423
C63	C	1.197053	-0.294724	0.153004
C64	C	1.157105	-0.318519	0.940014
C65	C	1.205601	-0.289668	0.983785
C66	C	1.200844	-0.292482	1.077948
C67	C	1.161861	-0.315706	0.845843
H68	H	0.670310	-0.258482	0.392343
H69	H	1.282869	-1.005847	0.370032
H70	H	1.112017	-0.345331	0.973256
H71	H	1.079774	-0.601965	0.552973
H72	H	1.282922	-1.104917	0.370061
C73	C	0.957013	-0.711560	0.568147
C74	C	1.008025	-0.746102	0.617809
H75	H	0.919059	-0.692927	0.602370
H76	H	0.927089	-0.730743	0.530287
H77	H	0.990298	-0.687578	0.538114
H78	H	0.974741	-0.770086	0.647838
H79	H	1.037951	-0.726918	0.655684
H80	H	1.079719	-0.502896	0.552940
C81	C	1.436063	-0.851760	0.327429
C82	C	1.354649	-0.861728	0.305230
H83	H	1.474019	-0.870389	0.293201
H84	H	1.445363	-0.862778	0.383919
H85	H	1.444025	-0.815353	0.320209
H86	H	1.346686	-0.898135	0.312457
H87	H	1.345346	-0.850713	0.248726
H88	H	1.250692	-0.262854	0.950541
H89	H	0.693071	-0.349899	0.530661
C90	C	1.077866	-1.101903	0.650715
C91	C	1.064142	-1.112060	0.567446
H92	H	1.039940	-1.120321	0.684948
H93	H	1.069845	-1.065456	0.657918
H94	H	1.133118	-1.113052	0.665755
H95	H	1.008892	-1.100907	0.552405
H96	H	1.072156	-1.148515	0.560240
C97	C	1.013063	-0.962897	0.517776
C98	C	1.064073	-0.997443	0.567432
H99	H	0.975112	-0.944264	0.552002
H100	H	0.983136	-0.982077	0.479914
H101	H	1.046349	-0.938916	0.487744
H102	H	1.030787	-1.021428	0.597459
H103	H	1.094003	-0.978263	0.605309
C104	C	1.021827	-0.850548	0.701108
C105	C	1.008097	-0.860713	0.617843
H106	H	0.983902	-0.868961	0.735348
H107	H	1.013810	-0.814099	0.708301
H108	H	1.077079	-0.861697	0.716146
H109	H	0.952846	-0.849560	0.602803
H110	H	1.016107	-0.897169	0.610646
C111	C	1.284781	-0.505925	0.272280
C112	C	1.298499	-0.495762	0.355548
H113	H	1.322717	-0.487515	0.238047
H114	H	1.229540	-0.494774	0.257233
H115	H	1.292797	-0.542378	0.265085
H116	H	1.290478	-0.459309	0.362743
H117	H	1.353754	-0.506910	0.370598
C118	C	1.254483	-0.638682	0.299818
C119	C	1.298593	-0.610395	0.355624
H120	H	1.292454	-0.657333	0.265635
H121	H	1.219900	-0.615255	0.266105
H122	H	1.221190	-0.662651	0.329869
H123	H	1.331882	-0.586424	0.325572
H124	H	1.333191	-0.633825	0.389340
C125	C	1.340885	-0.757285	0.221932
C126	C	1.354589	-0.747120	0.305202
H127	H	1.378832	-0.738880	0.187706
H128	H	1.285649	-0.746130	0.206874
H129	H	1.348895	-0.793739	0.214743
H130	H	1.346573	-0.710666	0.312392
H131	H	1.409839	-0.758272	0.320265
