data_functionalizedCrystal
_audit_creation_method	'MofGen! by Chris Wilmer'
_symmetry_space_group_name_H-M	'P1'
_symmetry_Int_Tables_number	1
_symmetry_cell_setting	triclinic
loop_
_symmetry_equiv_pos_as_xyz
  x,y,z
_cell_length_a	19.288864
_cell_length_b	27.732048
_cell_length_c	17.766277
_cell_angle_alpha	89.988664
_cell_angle_beta	89.976791
_cell_angle_gamma	82.889449
loop_
_atom_site_label
_atom_site_type_symbol
_atom_site_fract_x
_atom_site_fract_y
_atom_site_fract_z
O1	O	0.920977	0.060300	-0.062844
O2	O	1.420977	0.560300	0.437156
O3	O	0.718666	0.068434	-0.062793
O4	O	1.218666	0.568434	0.437207
O5	O	0.826105	-0.006011	-0.062806
O6	O	1.326105	0.493989	0.437194
O7	O	0.813538	0.134745	-0.062831
O8	O	1.313538	0.634745	0.437169
O9	O	0.826086	-0.006014	0.062383
O10	O	1.326086	0.493986	0.562383
O11	O	0.718647	0.068430	0.062395
O12	O	1.218647	0.568430	0.562395
O13	O	0.920958	0.060296	0.062345
O14	O	1.420958	0.560296	0.562345
Cu15	Cu	0.819801	0.064363	0.073801
Cu16	Cu	1.319801	0.564363	0.573801
Cu17	Cu	0.819823	0.064367	-0.074249
Cu18	Cu	1.319823	0.564367	0.425751
O19	O	0.813519	0.134741	0.062357
O20	O	1.313519	0.634741	0.562357
C21	C	0.692781	0.068171	-0.000192
C22	C	1.192781	0.568171	0.499808
C23	C	0.615683	0.067385	-0.000172
C24	C	1.115683	0.567385	0.499828
C25	C	0.570714	0.111066	-0.000192
C26	C	1.070714	0.611066	0.499808
C27	C	0.498271	0.110328	-0.000200
C28	C	0.998271	0.610328	0.499800
C29	C	0.470801	0.065906	-0.000204
C30	C	0.970801	0.565906	0.499796
C31	C	0.515780	0.022219	-0.000180
C32	C	1.015780	0.522219	0.499820
C33	C	0.588220	0.022959	-0.000164
C34	C	1.088220	0.522959	0.499836
C35	C	0.362763	0.030987	-0.044082
C36	C	0.862763	0.530987	0.455918
C37	C	0.290324	0.030250	-0.044102
C38	C	0.790324	0.530250	0.455898
C39	C	0.247370	0.063624	-0.000249
C40	C	0.747370	0.563624	0.499751
C41	C	0.276863	0.097744	0.043615
C42	C	0.776863	0.597744	0.543615
C43	C	0.349304	0.098483	0.043631
C44	C	0.849304	0.598483	0.543631
C45	C	0.392252	0.065099	-0.000220
C46	C	0.892252	0.565099	0.499780
C47	C	0.123850	0.106507	-0.000277
C48	C	0.623850	0.606507	0.499723
C49	C	0.051406	0.105767	-0.000280
C50	C	0.551406	0.605767	0.499720
C51	C	0.068916	0.017658	-0.000267
C52	C	0.568916	0.517658	0.499733
C53	C	0.141358	0.018399	-0.000256
C54	C	0.641358	0.518399	0.499744
C55	C	0.168820	0.062825	-0.000264
C56	C	0.668820	0.562825	0.499736
C57	C	0.825831	-0.024020	-0.000209
C58	C	1.325831	0.475980	0.499791
C59	C	0.825037	-0.077678	-0.000203
C60	C	1.325037	0.422322	0.499797
C61	C	0.883526	-0.416316	-0.000256
C62	C	1.383526	0.083684	0.499744
C63	C	0.880579	-0.617985	-0.000266
C64	C	1.380579	-0.117985	0.499734
O65	O	0.934063	-0.649079	-0.000312
O66	O	1.434063	-0.149079	0.499688
N67	N	0.816872	-0.637301	-0.000249
N68	N	1.316872	-0.137301	0.499751
C69	C	0.753897	-0.606196	-0.000235
C70	C	1.253897	-0.106196	0.499765
O71	O	0.699643	-0.627253	-0.000229
O72	O	1.199643	-0.127253	0.499771
C73	C	0.756845	-0.404529	-0.000231
C74	C	1.256845	0.095471	0.499769
C75	C	0.820556	-0.385216	-0.000240
C76	C	1.320556	0.114784	0.499760
C77	C	0.947232	-0.397002	-0.000266
C78	C	1.447232	0.102998	0.499734
C79	C	0.947968	-0.346588	-0.000259
C80	C	1.447968	0.153412	0.499741
C81	C	0.884998	-0.315488	-0.000243
C82	C	1.384998	0.184512	0.499757
C83	C	0.821292	-0.334801	-0.000233
C84	C	1.321292	0.165199	0.499767
C85	C	0.693871	-0.373425	-0.000222
C86	C	1.193871	0.126575	0.499778
C87	C	0.694614	-0.323006	-0.000223
C88	C	1.194614	0.176994	0.499777
C89	C	0.758325	-0.303693	-0.000232
C90	C	1.258325	0.196307	0.499768
C91	C	0.759059	-0.253287	-0.000210
C92	C	1.259059	0.246713	0.499790
N93	N	0.822766	-0.233971	-0.000227
N94	N	1.322766	0.266029	0.499773
C95	C	0.885735	-0.265071	-0.000243
C96	C	1.385735	0.234929	0.499757
C97	C	0.752354	-0.712075	-0.000236
C98	C	1.252354	-0.212075	0.499764
C99	C	0.751617	-0.762492	-0.000236
C100	C	1.251617	-0.262492	0.499764
C101	C	0.878299	-0.774276	-0.000268
C102	C	1.378299	-0.274276	0.499732
C103	C	0.879035	-0.723859	-0.000263
C104	C	1.379035	-0.223859	0.499737
C105	C	0.816061	-0.692759	-0.000253
C106	C	1.316061	-0.192759	0.499747
C107	C	0.887276	-0.159197	-0.000229
C108	C	1.387276	0.340803	0.499771
C109	C	0.888007	-0.108778	-0.000219
C110	C	1.388007	0.391222	0.499781
C111	C	0.761325	-0.096998	-0.000191
C112	C	1.261325	0.403002	0.499809
C113	C	0.760595	-0.147412	-0.000197
C114	C	1.260595	0.352588	0.499803
C115	C	0.823576	-0.178511	-0.000218
C116	C	1.323576	0.321489	0.499782
O117	O	0.705603	-0.222164	-0.000172
O118	O	1.205603	0.277836	0.499828
O119	O	0.939982	-0.244005	-0.000266
O120	O	1.439982	0.255995	0.499734
C121	C	0.882790	-0.466730	-0.000263
C122	C	1.382790	0.033270	0.499737
C123	C	0.819084	-0.486044	-0.000253
C124	C	1.319084	0.013956	0.499747
C125	C	0.756114	-0.454943	-0.000236
C126	C	1.256114	0.045057	0.499764
C127	C	0.818347	-0.536461	-0.000253
C128	C	1.318347	-0.036461	0.499747
C129	C	0.881317	-0.567561	-0.000269
C130	C	1.381317	-0.067561	0.499731
C131	C	0.945023	-0.548245	-0.000285
C132	C	1.445023	-0.048245	0.499715
C133	C	0.945760	-0.497831	-0.000279
C134	C	1.445760	0.002169	0.499721
C135	C	0.692407	-0.474260	-0.000220
C136	C	1.192407	0.025740	0.499780
C137	C	0.691676	-0.524674	-0.000226
C138	C	1.191676	-0.024674	0.499774
C139	C	0.754646	-0.555775	-0.000242
C140	C	1.254646	-0.055775	0.499758
C141	C	0.946842	0.060560	-0.000258
C142	C	1.446842	0.560560	0.499742
C143	C	1.023941	0.061345	-0.000282
C144	C	1.523941	0.561345	0.499718
C145	C	0.813792	0.152751	-0.000241
C146	C	1.313792	0.652751	0.499759
C147	C	0.814587	0.206408	-0.000252
C148	C	1.314587	0.706408	0.499748
N149	N	0.819790	0.064359	0.177931
N150	N	1.319790	0.564359	0.677931
N151	N	0.819839	0.064367	-0.178379
N152	N	1.319839	0.564367	0.321621
C153	C	0.867380	0.031411	0.217313
C154	C	1.367380	0.531411	0.717313
C155	C	0.867384	0.031409	0.296114
C156	C	1.367384	0.531409	0.796114
C157	C	0.819805	0.064363	0.335532
C158	C	1.319805	0.564363	0.835532
C159	C	0.772207	0.097314	0.296141
C160	C	1.272207	0.597314	0.796141
C161	C	0.772200	0.097312	0.217341
C162	C	1.272200	0.597312	0.717341
C163	C	0.810231	0.108406	0.460363
C164	C	1.310231	0.608406	0.960363
C165	C	0.810244	0.108408	0.539162
C166	C	1.310244	0.608408	1.039162
C167	C	0.819823	0.064369	0.578578
C168	C	1.319823	0.564369	1.078578
C169	C	0.829406	0.020325	0.539186
C170	C	1.329406	0.520325	1.039186
C171	C	0.829399	0.020323	0.460385
C172	C	1.329399	0.520323	0.960385
C173	C	0.819807	0.064369	0.420977
C174	C	1.319807	0.564369	0.920977
C175	C	0.867420	0.031416	0.703405
C176	C	1.367420	0.531416	1.203405
C177	C	0.867419	0.031413	0.782209
C178	C	1.367419	0.531413	1.282209
C179	C	0.772245	0.097322	0.782234
C180	C	1.272245	0.597322	1.282234
C181	C	0.772243	0.097321	0.703432
C182	C	1.272243	0.597321	1.203432
C183	C	0.819834	0.064368	0.664023
C184	C	1.319834	0.564368	1.164023
H185	H	0.493409	-0.013949	-0.000193
H186	H	0.993409	0.486051	0.499807
H187	H	0.733503	0.124152	0.814327
H188	H	1.233503	0.624152	1.314327
H189	H	0.938562	-0.184513	-0.000249
H190	H	1.438562	0.315487	0.499751
Br191	Br	0.932004	-0.013306	0.649919
Br192	Br	1.432004	0.486694	1.149919
Br193	Br	0.965503	-0.697654	-0.000273
Br194	Br	1.465503	-0.197654	0.499727
H195	H	0.733467	0.124145	0.328238
H196	H	1.233467	0.624145	0.828238
Br197	Br	-0.009625	0.165054	-0.000300
Br198	Br	0.490375	0.665054	0.499700
Br199	Br	0.607401	-0.399623	-0.000213
Br200	Br	1.107401	0.100377	0.499787
H201	H	0.639791	-0.540394	-0.000212
H202	H	1.139791	-0.040394	0.499788
H203	H	0.710057	-0.071667	-0.000175
H204	H	1.210057	0.428333	0.499825
Br205	Br	0.931963	-0.013310	0.163828
Br206	Br	1.431963	0.486690	0.663828
Br207	Br	0.797299	0.168180	0.406878
Br208	Br	1.297299	0.668180	0.906878
H209	H	0.999848	-0.330868	-0.000270
H210	H	1.499848	0.169132	0.499730
H211	H	0.929571	-0.799607	-0.000281
H212	H	1.429571	-0.299607	0.499719
H213	H	0.906170	0.004580	0.814274
H214	H	1.406170	0.504580	1.314274
Br215	Br	0.609144	-0.280801	-0.000213
Br216	Br	1.109144	0.219199	0.499787
H217	H	0.397731	0.003809	-0.079797
H218	H	0.897731	0.503809	0.420203
Br219	Br	0.389330	0.144785	0.103159
Br220	Br	0.889330	0.644785	0.603159
H221	H	0.641128	-0.448942	-0.000208
H222	H	1.141128	0.051058	0.499792
Br223	Br	0.674129	-0.173624	-0.000167
Br224	Br	1.174129	0.326376	0.499833
H225	H	0.997640	-0.482111	-0.000286
H226	H	1.497640	0.017889	0.499714
Br227	Br	0.031643	-0.042630	-0.000259
Br228	Br	0.531643	0.457370	0.499741
H229	H	0.699737	-0.778212	-0.000215
H230	H	1.199737	-0.278212	0.499785
Br231	Br	0.842396	-0.039447	0.406926
Br232	Br	1.342396	0.460553	0.906926
Br233	Br	0.931973	-0.013311	0.349570
Br234	Br	1.431973	0.486689	0.849570
H235	H	0.701070	-0.686757	-0.000228
H236	H	1.201070	-0.186757	0.499772
Br237	Br	0.218577	0.143042	0.103132
Br238	Br	0.718577	0.643042	0.603132
Br239	Br	1.030482	-0.590463	-0.000302
Br240	Br	1.530482	-0.090463	0.499698
Br241	Br	0.250303	-0.016049	-0.103641
Br242	Br	0.750303	0.483951	0.396359
H243	H	0.624835	-0.012613	-0.000148
H244	H	1.124835	0.487387	0.499852
H245	H	0.837207	-0.015536	0.571276
H246	H	1.337207	0.484464	1.071276
H247	H	0.733446	0.124143	0.185276
H248	H	1.233446	0.624143	0.685276
Br249	Br	0.707657	0.142039	0.649979
Br250	Br	1.207657	0.642039	1.149979
H251	H	0.146211	0.142682	-0.000272
H252	H	0.646211	0.642682	0.499728
Br253	Br	0.797247	0.168181	0.592615
Br254	Br	1.297247	0.668181	1.092615
H255	H	0.593069	0.147241	-0.000200
H256	H	1.093069	0.647241	0.499800
H257	H	0.461651	0.145899	-0.000214
H258	H	0.961651	0.645899	0.499786
Br259	Br	0.202391	-0.040886	-0.000231
Br260	Br	0.702391	0.459114	0.499769
H261	H	0.939890	-0.093056	-0.000224
H262	H	1.439890	0.406944	0.499776
Br263	Br	1.032703	-0.439202	-0.000289
Br264	Br	1.532703	0.060798	0.499711
