data_functionalizedCrystal
_audit_creation_method	'MofGen! by Chris Wilmer'
_symmetry_space_group_name_H-M	'P1'
_symmetry_Int_Tables_number	1
_symmetry_cell_setting	triclinic
loop_
_symmetry_equiv_pos_as_xyz
  x,y,z
_cell_length_a	18.215407
_cell_length_b	14.908520
_cell_length_c	18.215399
_cell_angle_alpha	93.269364
_cell_angle_beta	89.980167
_cell_angle_gamma	93.321174
loop_
_atom_site_label
_atom_site_type_symbol
_atom_site_fract_x
_atom_site_fract_y
_atom_site_fract_z
Zn1	Zn	1.108178	-0.359158	-0.433017
Zn2	Zn	1.100989	-0.510027	-0.317051
Zn3	Zn	0.985109	-0.359188	-0.309966
Zn4	Zn	0.977982	-0.509977	-0.440073
O5	O	1.043064	-0.434588	-0.375027
O6	O	1.210208	-0.379180	-0.417646
O7	O	1.085592	-0.490052	-0.213128
O8	O	1.007425	-0.232939	-0.320371
O9	O	1.204927	-0.490023	-0.332446
O10	O	1.097843	-0.232917	-0.410776
O11	O	1.000455	-0.379230	-0.207923
O12	O	0.881180	-0.379182	-0.327213
O13	O	0.995278	-0.489937	-0.542120
O14	O	0.875943	-0.489966	-0.422802
O15	O	1.090932	-0.379131	-0.536936
O16	O	1.078681	-0.636266	-0.339288
O17	O	0.988308	-0.636229	-0.429672
C18	C	0.851859	-0.434572	-0.375005
C19	C	0.770059	-0.434587	-0.375014
C20	C	1.031961	-0.668981	-0.386030
C21	C	1.027278	-0.769256	-0.390762
C22	C	0.579154	-0.492363	-0.424733
C23	C	0.502295	-0.492366	-0.424742
C24	C	0.507726	-0.376828	-0.325338
C25	C	0.584584	-0.376822	-0.325333
C26	C	0.620295	-0.434594	-0.375029
C27	C	0.466579	-0.434604	-0.375044
C28	C	0.383245	-0.434606	-0.375053
C29	C	0.703635	-0.434591	-0.375021
C30	C	1.112681	-0.957660	-0.305613
C31	C	1.108284	-1.051877	-0.310057
C32	C	1.014091	-1.051908	-0.404097
C33	C	1.018488	-0.957691	-0.399653
C34	C	1.067784	-0.910570	-0.350409
C35	C	1.072177	-0.816352	-0.345962
C36	C	0.977988	-0.816385	-0.440005
C37	C	0.973591	-0.910602	-0.444449
C38	C	1.235017	-0.434604	-0.375049
C39	C	1.316815	-0.434611	-0.375059
C40	C	1.043112	-0.434526	-0.566977
C41	C	1.043133	-0.434499	-0.648775
C42	C	1.054231	-0.199279	-0.363996
C43	C	1.058990	-0.099004	-0.359296
C44	C	1.092959	-0.376748	-0.834268
C45	C	1.092969	-0.376722	-0.911126
C46	C	0.993364	-0.492110	-0.916513
C47	C	0.993351	-0.492131	-0.839656
C48	C	1.043153	-0.434452	-0.798536
C49	C	1.043176	-0.434404	-0.952250
C50	C	1.043186	-0.434376	-1.035582
C51	C	1.043142	-0.434478	-0.715198
C52	C	1.043062	-0.434585	-0.183820
C53	C	1.043196	-0.434357	-0.102011
H54	H	0.608228	-0.539403	-0.465200
F55	F	0.940335	-0.553546	-0.801625
F56	F	0.628373	-0.315328	-0.272432
F57	F	0.940368	-0.553497	-0.960282
H58	H	1.133525	-0.329733	-0.940215
H59	H	0.941427	-0.778034	-0.476478
F60	F	0.469713	-0.315347	-0.272449
F61	F	0.458512	-0.553851	-0.477645
F62	F	0.921132	-0.960761	-0.496857
H63	H	1.112315	-0.777987	-0.305863
H64	H	0.973961	-1.090290	-0.444194
F65	F	1.165136	-0.907508	-0.253195
H66	H	1.144846	-1.090213	-0.273581
H67	H	1.133509	-0.329780	-0.800790
