data_functionalizedCrystal
_audit_creation_method	'MofGen! by Chris Wilmer'
_symmetry_space_group_name_H-M	'P1'
_symmetry_Int_Tables_number	1
_symmetry_cell_setting	triclinic
loop_
_symmetry_equiv_pos_as_xyz
  x,y,z
_cell_length_a	10.654550
_cell_length_b	17.019294
_cell_length_c	9.130313
_cell_angle_alpha	86.119786
_cell_angle_beta	89.996220
_cell_angle_gamma	83.938066
loop_
_atom_site_label
_atom_site_type_symbol
_atom_site_fract_x
_atom_site_fract_y
_atom_site_fract_z
O1	O	1.666099	0.110791	-0.135891
O2	O	1.300455	0.121346	-0.137198
O3	O	1.493478	0.001292	-0.122062
O4	O	1.473076	0.230845	-0.151027
O5	O	1.493475	0.001295	0.121536
O6	O	1.300452	0.121350	0.106400
O7	O	1.666096	0.110794	0.107708
Cu8	Cu	1.483274	0.116072	0.129297
Cu9	Cu	1.483277	0.116068	-0.158787
O10	O	1.473073	0.230848	0.092572
C11	C	1.253668	0.120573	-0.015298
C12	C	1.114261	0.118254	-0.014997
C13	C	1.492703	-0.028100	0.003443
C14	C	1.490383	-0.115683	0.014486
C15	C	1.033668	0.188940	-0.023937
C16	C	0.902681	0.186757	-0.023687
C17	C	0.932893	0.043195	-0.005561
C18	C	1.063877	0.045379	-0.005801
C19	C	1.084051	0.261815	-0.033133
C20	C	1.003457	0.332507	-0.042076
C21	C	0.872470	0.330324	-0.041825
C22	C	0.822078	0.257448	-0.032632
C23	C	1.489297	-0.156827	-0.113111
C24	C	1.487109	-0.239119	-0.102731
C25	C	1.486016	-0.280267	0.035247
C26	C	1.487098	-0.239117	0.162854
C27	C	1.489277	-0.156825	0.152472
C28	C	1.479429	-0.528735	0.073236
C29	C	1.477254	-0.611033	0.083608
C30	C	1.477263	-0.611029	-0.181978
C31	C	1.479449	-0.528736	-0.192347
C32	C	1.480524	-0.487593	-0.064741
C33	C	1.483784	-0.364384	0.045861
C34	C	1.482748	-0.403477	-0.075356
C35	C	1.712883	0.111567	-0.014195
C36	C	1.852290	0.113886	-0.014507
C37	C	1.473848	0.260240	-0.032937
C38	C	1.476168	0.347823	-0.043989
N39	N	1.483281	0.116074	0.331919
N40	N	1.483280	0.116060	-0.361408
C41	C	1.568773	0.062932	0.415271
C42	C	1.568770	0.062923	0.568609
C43	C	1.397778	0.169204	0.555229
C44	C	1.397777	0.169209	0.401894
C45	C	1.654278	0.009797	0.345296
C46	C	1.739778	-0.043348	0.428648
C47	C	1.739775	-0.043358	0.581986
C48	C	1.654271	0.009778	0.651972
H49	H	1.044495	0.391840	-0.049548
O50	O	1.490371	-0.116981	0.276566
C51	C	1.490014	-0.125655	0.541084
C52	C	1.488822	-0.170879	0.400663
H53	H	1.488736	-0.169211	0.641452
H54	H	1.578888	-0.093881	0.543832
H55	H	1.403203	-0.080377	0.541914
H56	H	1.575573	-0.216196	0.399740
H57	H	1.399892	-0.202600	0.397970
O58	O	1.314860	0.220941	0.320965
C59	C	1.240963	0.357674	0.256869
C60	C	1.334960	0.299178	0.348575
H61	H	1.257163	0.420941	0.279182
H62	H	1.255649	0.348615	0.135233
H63	H	1.140415	0.346764	0.288378
H64	H	1.435545	0.310052	0.317193
H65	H	1.320164	0.308251	0.470189
O66	O	1.822647	-0.095062	0.663032
C67	C	1.849596	-0.202617	0.849761
C68	C	1.755598	-0.144121	0.758054
H69	H	1.795424	-0.242285	0.926629
H70	H	1.910687	-0.240648	0.773476
H71	H	1.912282	-0.168177	0.917141
H72	H	1.692830	-0.178497	0.690663
H73	H	1.694596	-0.106090	0.834418
H74	H	1.190705	0.263601	-0.033344
H75	H	0.806853	0.387884	-0.049092
O76	O	1.483627	-0.363415	-0.209309
C77	C	1.377277	-0.262204	-0.376232
C78	C	1.376144	-0.307506	-0.224471
H79	H	1.290373	-0.217003	-0.388552
H80	H	1.466075	-0.230350	-0.386927
H81	H	1.376186	-0.305768	-0.465620
H82	H	1.377190	-0.263995	-0.134994
H83	H	1.287354	-0.339373	-0.213903
H84	H	1.482898	-0.397896	0.158203
O85	O	0.884006	-0.027611	0.003615
C86	C	0.869771	-0.151002	0.145318
C87	C	0.925193	-0.070833	0.135138
H88	H	0.903070	-0.185977	0.251631
H89	H	0.762304	-0.140468	0.144048
H90	H	0.902981	-0.185936	0.047739
H91	H	0.892079	-0.035858	0.232693
H92	H	1.032654	-0.081423	0.136338
O93	O	1.822876	-0.095039	0.360908
C94	C	1.992524	-0.200426	0.390362
C95	C	1.898464	-0.141939	0.467261
H96	H	2.053679	-0.238348	0.476311
H97	H	1.938453	-0.240202	0.323625
H98	H	2.055135	-0.165981	0.314195
H99	H	1.835829	-0.176319	0.543499
H100	H	1.952614	-0.102163	0.533905
O101	O	1.314559	0.220740	0.623155
C102	C	1.096124	0.265715	0.664367
C103	C	1.190229	0.207291	0.587385
H104	H	0.995584	0.254873	0.635452
H105	H	1.110705	0.256583	0.788294
H106	H	1.112430	0.328988	0.626263
H107	H	1.173981	0.143995	0.625370
H108	H	1.175625	0.216493	0.463470
O109	O	1.486238	-0.279199	-0.226559
C110	C	1.592595	-0.380436	-0.367900
C111	C	1.593716	-0.335113	-0.227592
H112	H	1.679495	-0.425642	-0.368797
H113	H	1.503794	-0.412286	-0.370542
H114	H	1.593703	-0.336886	-0.468296
H115	H	1.592654	-0.378610	-0.127119
H116	H	1.682510	-0.303250	-0.225079
H117	H	0.715418	0.255676	-0.032406
H118	H	1.129499	-0.012180	0.001475
O119	O	1.480446	-0.488885	-0.326497
C120	C	1.480297	-0.497574	-0.588825
C121	C	1.479130	-0.542800	-0.436995
H122	H	1.479260	-0.541147	-0.678203
H123	H	1.393454	-0.452328	-0.601266
H124	H	1.569141	-0.465761	-0.599399
H125	H	1.390344	-0.574660	-0.426316
H126	H	1.566033	-0.588000	-0.424620
H127	H	1.490194	-0.123330	-0.225468
O128	O	1.476430	-0.651052	0.217624
C129	C	1.582720	-0.752320	0.384481
C130	C	1.583806	-0.707050	0.232685
H131	H	1.669510	-0.797616	0.396696
H132	H	1.583950	-0.708813	0.473953
H133	H	1.493830	-0.784083	0.395134
H134	H	1.672681	-0.675286	0.221890
H135	H	1.582509	-0.750595	0.143288
H136	H	1.654291	0.009802	0.220441
H137	H	1.476385	-0.644537	-0.285867
H138	H	1.480330	-0.495248	0.177143
H139	H	1.486200	-0.272626	0.275199
H140	H	1.654268	0.009761	0.776831
