data_functionalizedCrystal
_audit_creation_method	'MofGen! by Chris Wilmer'
_symmetry_space_group_name_H-M	'P1'
_symmetry_Int_Tables_number	1
_symmetry_cell_setting	triclinic
loop_
_symmetry_equiv_pos_as_xyz
  x,y,z
_cell_length_a	15.500227
_cell_length_b	14.519731
_cell_length_c	14.519709
_cell_angle_alpha	83.684499
_cell_angle_beta	92.832432
_cell_angle_gamma	87.149950
loop_
_atom_site_label
_atom_site_type_symbol
_atom_site_fract_x
_atom_site_fract_y
_atom_site_fract_z
O1	O	-0.071948	1.228138	0.116711
O2	O	-0.071949	0.959664	0.130927
O3	O	-0.071941	1.101019	-0.010419
O4	O	-0.071956	1.086784	0.258056
O5	O	0.071947	1.092441	-0.001875
O6	O	0.071939	0.951086	0.139470
O7	O	0.071940	1.219561	0.125254
Cu8	Cu	0.085078	1.084540	0.133142
Cu9	Cu	-0.085087	1.094685	0.123038
O10	O	0.071932	1.078206	0.266600
C11	C	-0.000005	0.921016	0.134532
C12	C	-0.000006	0.818636	0.132536
N13	N	0.204762	1.077412	0.140248
N14	N	-0.204771	1.101820	0.115925
C15	C	-0.000009	0.735492	0.130914
C16	C	-0.000009	0.631183	0.128887
C17	C	-0.000009	0.548044	0.127279
C18	C	-0.000011	0.443729	0.125252
C19	C	0.250043	1.137330	0.080377
C20	C	0.340615	1.131947	0.085760
C21	C	0.385906	1.066651	0.151018
C22	C	0.340619	1.006727	0.210892
C23	C	0.250048	1.012105	0.205504
C24	C	0.659371	1.047275	0.170411
C25	C	0.749949	1.041902	0.175796
C26	C	0.749938	1.167122	0.050662
C27	C	0.659366	1.172499	0.045284
C28	C	0.614087	1.112572	0.105155
C29	C	0.478485	1.061150	0.156523
C30	C	0.521509	1.118069	0.099644
C31	C	0.000004	1.096067	-0.040507
C32	C	0.000004	1.094078	-0.142888
C33	C	-0.000005	1.258209	0.121648
C34	C	-0.000011	1.360590	0.123644
C35	C	-0.000019	1.086760	-0.517786
C36	C	-0.000012	1.088793	-0.413478
C37	C	-0.000006	1.090419	-0.330340
C38	C	-0.000002	1.092452	-0.226025
C39	C	-0.000014	1.083158	0.296687
C40	C	-0.000021	1.085147	0.399069
H41	H	0.213173	1.190505	0.027241
Cl42	Cl	0.397540	1.207273	0.010491
H43	H	0.622492	1.225669	-0.007854
H44	H	0.515368	1.007985	0.209660
Cl45	Cl	0.806864	1.242452	-0.024602
Cl46	Cl	0.193125	0.936773	0.280771
H47	H	0.484631	1.171231	0.046507
H48	H	0.786820	0.988727	0.228941
Cl49	Cl	0.602456	0.971943	0.245678
H50	H	0.377500	0.953556	0.264024
