data_functionalizedCrystal
_audit_creation_method	'MofGen! by Chris Wilmer'
_symmetry_space_group_name_H-M	'P1'
_symmetry_Int_Tables_number	1
_symmetry_cell_setting	triclinic
loop_
_symmetry_equiv_pos_as_xyz
  x,y,z
_cell_length_a	22.610064
_cell_length_b	23.532407
_cell_length_c	23.532407
_cell_angle_alpha	82.848678
_cell_angle_beta	90.000603
_cell_angle_gamma	90.002839
loop_
_atom_site_label
_atom_site_type_symbol
_atom_site_fract_x
_atom_site_fract_y
_atom_site_fract_z
O1	O	-0.049117	-0.755263	-0.069127
O2	O	-0.049135	-0.589400	-0.079130
O3	O	-0.049114	-0.677333	0.008803
O4	O	-0.049137	-0.667330	-0.157060
O5	O	0.049255	-0.677318	0.008790
O6	O	0.049234	-0.589385	-0.079143
O7	O	0.049252	-0.755248	-0.069140
Zn8	Zn	0.064862	-0.672314	-0.074144
Zn9	Zn	-0.064744	-0.672334	-0.074127
O10	O	0.049232	-0.667315	-0.157073
C11	C	0.000048	-0.568176	-0.078882
C12	C	0.000041	-0.504959	-0.078116
N13	N	0.153314	-0.672304	-0.074155
N14	N	-0.153196	-0.672349	-0.074111
C15	C	0.561965	-0.711273	-0.035196
C16	C	0.623884	-0.711276	-0.035192
O17	O	0.655911	-0.744384	-0.002076
N18	N	0.654851	-0.672334	-0.074115
C19	C	0.623895	-0.633383	-0.113041
O20	O	0.655920	-0.600259	-0.146147
C21	C	0.561976	-0.633377	-0.113042
C22	C	0.531013	-0.672326	-0.074120
C23	C	0.531001	-0.750218	0.003724
C24	C	0.469085	-0.750215	0.003719
C25	C	0.438133	-0.711268	-0.035206
C26	C	0.469097	-0.672323	-0.074125
C27	C	0.531021	-0.594424	-0.151965
C28	C	0.469098	-0.594422	-0.151962
C29	C	0.438134	-0.633370	-0.113040
C30	C	0.376229	-0.633374	-0.113054
N31	N	0.345262	-0.672316	-0.074131
C32	C	0.376214	-0.711263	-0.035207
C33	C	0.753928	-0.633396	-0.113035
C34	C	0.815846	-0.633403	-0.113037
C35	C	0.815831	-0.711296	-0.035187
C36	C	0.753913	-0.711291	-0.035188
C37	C	0.722962	-0.672338	-0.074112
C38	C	0.246187	-0.711255	-0.035220
C39	C	0.184266	-0.711251	-0.035230
C40	C	0.184286	-0.633357	-0.113078
C41	C	0.246202	-0.633363	-0.113071
C42	C	0.277151	-0.672314	-0.074137
O43	O	0.344163	-0.600281	-0.146152
O44	O	0.344182	-0.744376	-0.002101
C45	C	0.000072	-0.677071	0.030013
C46	C	0.000076	-0.676305	0.093230
C47	C	0.000069	-0.776472	-0.069388
C48	C	0.000071	-0.839689	-0.070154
C49	C	0.000061	-0.105856	-0.125350
C50	C	0.000065	-0.046456	-0.124638
O51	O	0.000081	-0.009711	-0.168424
N52	N	0.000071	-0.023830	-0.072362
C53	C	0.000080	-0.060607	-0.020794
O54	O	0.000086	-0.035908	0.023737
C55	C	0.000080	-0.120006	-0.021506
C56	C	0.000068	-0.142629	-0.073785
C57	C	0.000050	-0.128479	-0.177625
C58	C	0.000045	-0.187876	-0.178336
C59	C	0.000052	-0.224649	-0.126772
C60	C	0.000063	-0.202025	-0.074497
C61	C	0.000093	-0.156783	0.030062
C62	C	0.000094	-0.216185	0.029345
C63	C	0.000082	-0.238808	-0.022934
C64	C	0.000065	-0.298194	-0.023643
N65	N	0.000059	-0.320820	-0.075920
C66	C	0.000052	-0.284048	-0.127484
C67	C	0.000080	0.064135	-0.019302
C68	C	0.000075	0.123533	-0.018589
C69	C	0.000061	0.137680	-0.122434
C70	C	0.000062	0.078281	-0.123146
C71	C	0.000074	0.041509	-0.071578
C72	C	0.000042	-0.408784	-0.128974
C73	C	0.000034	-0.468186	-0.129680
C74	C	0.000051	-0.482329	-0.025836
C75	C	0.000055	-0.422932	-0.025129
C76	C	0.000052	-0.386160	-0.076702
O77	O	0.000052	-0.334974	0.020119
O78	O	0.000054	-0.308755	-0.172007
C79	C	0.000045	-0.667577	-0.178283
C80	C	0.000036	-0.668343	-0.241500
C81	C	0.000049	-0.723539	0.492333
C82	C	0.000044	-0.722827	0.551733
O83	O	0.000027	-0.766613	0.588478
N84	N	0.000039	-0.670551	0.574359
C85	C	0.000032	-0.618983	0.537582
O86	O	0.000027	-0.574452	0.562281
C87	C	0.000033	-0.619695	0.478182
C88	C	0.000044	-0.671974	0.455560
C89	C	0.000060	-0.775814	0.469710
C90	C	0.000065	-0.776525	0.410313
C91	C	0.000060	-0.724961	0.373540
C92	C	0.000050	-0.672685	0.396164
C93	C	0.000022	-0.568127	0.441406
C94	C	0.000021	-0.568844	0.382004
C95	C	0.000033	-0.621123	0.359381
C96	C	0.000050	-0.621832	0.299995
N97	N	0.000056	-0.674109	0.277368
C98	C	0.000061	-0.725673	0.314141
C99	C	0.000031	-0.617491	0.662324
C100	C	0.000034	-0.616778	0.721722
C101	C	0.000045	-0.720623	0.735869
C102	C	0.000046	-0.721335	0.676470
C103	C	0.000036	-0.669767	0.639698
C104	C	0.000073	-0.727163	0.189405
C105	C	0.000081	-0.727869	0.130003
C106	C	0.000067	-0.624025	0.115860
C107	C	0.000062	-0.623318	0.175257
C108	C	0.000063	-0.674891	0.212029
O109	O	0.000065	-0.578070	0.263215
O110	O	0.000058	-0.770196	0.289433
H111	H	0.159057	-0.742969	-0.003535
N112	N	0.720548	-0.591382	-0.155022
H113	H	0.749565	-0.566716	-0.179676
H114	H	0.694854	-0.613035	-0.180093
N115	N	0.150896	-0.591351	-0.155060
H116	H	0.106973	-0.597261	-0.149151
H117	H	0.161722	-0.550991	-0.148680
H118	H	0.556223	-0.562709	-0.183658
H119	H	0.841052	-0.601694	-0.144737
N120	N	0.000096	-0.784261	0.105606
H121	H	-0.036368	-0.806842	0.119034
H122	H	0.000123	-0.776844	0.062401
N123	N	0.000052	-0.566933	0.199663
H124	H	0.036513	-0.564315	0.223997
H125	H	0.000029	-0.534409	0.167321
N126	N	0.000025	-0.561868	0.622664
H127	H	0.000023	-0.528647	0.646015
H128	H	0.036492	-0.559894	0.597711
N129	N	0.000061	-0.568417	0.076183
H130	H	-0.036409	-0.545599	0.083420
H131	H	0.036546	-0.545628	0.083439
H132	H	0.271379	-0.742973	-0.003516
N133	N	0.435718	-0.552410	-0.193950
H134	H	0.391793	-0.558315	-0.188050
H135	H	0.446546	-0.512050	-0.187572
N136	N	0.564377	-0.792235	0.045705
H137	H	0.608302	-0.786338	0.039806
H138	H	0.553552	-0.785890	0.086074
H139	H	0.271413	-0.601653	-0.144770
H140	H	0.443878	-0.781929	0.035414
N141	N	0.000079	0.024472	0.036319
H142	H	0.036545	-0.000486	0.038339
H143	H	0.000059	0.047862	0.069509
H144	H	0.000071	-0.769159	0.219337
H145	H	0.000056	-0.404512	0.017441
N146	N	0.000015	-0.492586	-0.186070
H147	H	0.000012	-0.460274	-0.218626
H148	H	0.036478	-0.516924	-0.188636
H149	H	0.728706	-0.743005	-0.003494
H150	H	0.000041	-0.378851	-0.170970
H151	H	0.000055	0.059867	-0.165717
H152	H	0.000061	-0.817806	0.499645
N153	N	0.000002	-0.511742	0.465802
H154	H	0.036464	-0.509118	0.490133
H155	H	-0.000028	-0.479220	0.433458
N156	N	0.849221	-0.753305	0.006797
H157	H	0.893144	-0.747393	0.000890
H158	H	0.838400	-0.746956	0.047167
N159	N	0.000029	-0.212272	-0.234724
H160	H	0.000025	-0.179956	-0.267277
H161	H	0.036494	-0.236607	-0.237292
N162	N	0.000099	0.177351	-0.178051
H163	H	0.000106	0.154010	-0.211280
H164	H	-0.036354	0.202321	-0.180036
H165	H	0.000046	-0.098544	-0.219617
N166	N	0.000061	-0.521994	0.029779
H167	H	-0.036403	-0.546958	0.031805
H168	H	0.036553	-0.546913	0.031752
N169	N	0.000077	0.147930	0.037797
H170	H	0.000081	0.115616	0.070352
H171	H	0.036546	0.172266	0.040353
H172	H	0.000103	-0.138375	0.072634
H173	H	0.000104	-0.246123	0.071339
H174	H	0.000013	-0.526850	0.352066
H175	H	0.000072	-0.819097	0.391900
N176	N	0.000058	-0.777722	0.652072
H177	H	0.000063	-0.810276	0.684386
H178	H	-0.036408	-0.780289	0.627737
H179	H	0.000047	-0.762610	0.765821
N180	N	0.000038	-0.560392	0.746119
H181	H	0.000038	-0.527837	0.713805
H182	H	-0.036429	-0.557833	0.770454
