data_functionalizedCrystal
_audit_creation_method	'MofGen! by Chris Wilmer'
_symmetry_space_group_name_H-M	'P1'
_symmetry_Int_Tables_number	1
_symmetry_cell_setting	triclinic
loop_
_symmetry_equiv_pos_as_xyz
  x,y,z
_cell_length_a	19.121424
_cell_length_b	19.121063
_cell_length_c	21.395355
_cell_angle_alpha	87.579260
_cell_angle_beta	87.591614
_cell_angle_gamma	94.804615
loop_
_atom_site_label
_atom_site_type_symbol
_atom_site_fract_x
_atom_site_fract_y
_atom_site_fract_z
Zn1	Zn	1.063738	-0.234270	0.322825
Zn2	Zn	1.397071	0.099063	0.656159
Zn3	Zn	1.730405	0.432397	0.989492
Zn4	Zn	1.058616	-0.351923	0.222715
Zn5	Zn	1.391950	-0.018589	0.556048
Zn6	Zn	1.725283	0.314744	0.889382
Zn7	Zn	0.946064	-0.239295	0.222716
Zn8	Zn	1.279398	0.094038	0.556049
Zn9	Zn	1.612731	0.427371	0.889383
Zn10	Zn	0.941019	-0.356927	0.332105
Zn11	Zn	1.274352	-0.023593	0.665439
Zn12	Zn	1.607685	0.309740	0.998772
O13	O	1.002359	-0.295604	0.275090
O14	O	1.335693	0.037730	0.608424
O15	O	1.669026	0.371063	0.941757
O16	O	1.161520	-0.245679	0.305661
O17	O	1.494854	0.087654	0.638995
O18	O	1.828187	0.420987	0.972328
O19	O	1.043654	-0.336991	0.135039
O20	O	1.376988	-0.003658	0.468372
O21	O	1.710321	0.329675	0.801705
O22	O	0.965929	-0.140162	0.232112
O23	O	1.299262	0.193172	0.565445
O24	O	1.632596	0.526505	0.898779
O25	O	1.157758	-0.332118	0.232111
O26	O	1.491091	0.001215	0.565444
O27	O	1.824424	0.334548	0.898777
O28	O	1.052383	-0.136469	0.305662
O29	O	1.385717	0.196864	0.638995
O30	O	1.719050	0.530197	0.972329
O31	O	0.960963	-0.254245	0.135039
O32	O	1.294296	0.079089	0.468373
O33	O	1.627630	0.412422	0.801706
O34	O	0.846933	-0.259097	0.241111
O35	O	1.180266	0.074237	0.574444
O36	O	1.513600	0.407570	0.907777
O37	O	0.957329	-0.340647	0.418551
O38	O	1.290663	-0.007314	0.751884
O39	O	1.623996	0.326020	1.085217
O40	O	0.843226	-0.345520	0.321479
O41	O	1.176559	-0.012187	0.654812
O42	O	1.509893	0.321147	0.988146
O43	O	1.047491	-0.250532	0.411733
O44	O	1.380824	0.082802	0.745066
O45	O	1.714157	0.416135	1.078399
O46	O	1.038762	-0.451054	0.241109
O47	O	1.372095	-0.117720	0.574443
O48	O	1.705428	0.215613	0.907776
O49	O	0.952363	-0.454730	0.321478
O50	O	1.285696	-0.121397	0.654811
O51	O	1.619030	0.211937	0.988145
C52	C	0.819549	-0.303397	0.282302
C53	C	1.152883	0.029936	0.615636
C54	C	1.486216	0.363269	0.948969
C55	C	0.741342	-0.306748	0.285403
C56	C	1.074675	0.026585	0.618736
C57	C	1.408009	0.359918	0.952070
C58	C	0.298920	-0.327939	0.305085
C59	C	0.632254	0.005395	0.638419
C60	C	0.965587	0.338728	0.971752
C61	C	0.372405	-0.324795	0.302160
C62	C	0.705738	0.008538	0.635494
C63	C	1.039071	0.341871	0.968827
C64	C	0.411057	-0.278156	0.258918
C65	C	0.744390	0.055178	0.592252
C66	C	1.077724	0.388511	0.925585
C67	C	0.376221	-0.234661	0.218594
C68	C	0.709554	0.098672	0.551927
C69	C	1.042888	0.432005	0.885261
C70	C	0.302738	-0.237809	0.221516
C71	C	0.636072	0.095525	0.554850
C72	C	0.969405	0.428858	0.888183
C73	C	0.633023	-0.266401	0.248001
C74	C	0.966357	0.066932	0.581335
C75	C	1.299690	0.400265	0.914668
C76	C	0.706511	-0.263256	0.245083
C77	C	1.039845	0.070078	0.578417
C78	C	1.373178	0.403411	0.911750
C79	C	0.702690	-0.353391	0.328649
C80	C	1.036023	-0.020058	0.661983
C81	C	1.369356	0.313275	0.995316
C82	C	0.629205	-0.356532	0.331570
C83	C	0.962539	-0.023198	0.664904
C84	C	1.295872	0.310135	0.998237
C85	C	0.594376	-0.313040	0.291244
C86	C	0.927709	0.020293	0.624577
C87	C	1.261043	0.353627	0.957911
C88	C	0.486170	-0.274940	0.255929
C89	C	0.819503	0.058393	0.589262
C90	C	1.152836	0.391727	0.922595
C91	C	0.519265	-0.316260	0.294231
C92	C	0.852598	0.017074	0.627564
C93	C	1.185931	0.350407	0.960898
C94	C	0.994478	-0.478422	0.282314
C95	C	1.327811	-0.145089	0.615647
C96	C	1.661145	0.188244	0.948980
C97	C	0.991171	-0.556630	0.285422
C98	C	1.324504	-0.223297	0.618756
C99	C	1.657838	0.110036	0.952089
C100	C	1.034635	-0.591434	0.245071
C101	C	1.367969	-0.258100	0.578404
C102	C	1.701302	0.075233	0.911737
C103	C	1.031529	-0.664918	0.247998
C104	C	1.364862	-0.331585	0.581331
C105	C	1.698196	0.001749	0.914665
C106	C	0.984954	-0.703598	0.291274
C107	C	1.318288	-0.370265	0.624607
C108	C	1.651621	-0.036932	0.957940
C109	C	0.941488	-0.668790	0.331630
C110	C	1.274822	-0.335456	0.664963
C111	C	1.608155	-0.002123	0.998296
C112	C	0.944598	-0.595306	0.328705
C113	C	1.277932	-0.261973	0.662038
C114	C	1.611265	0.071360	0.995372
C115	C	0.973314	-0.925567	0.302199
C116	C	1.306648	-0.592234	0.635532
C117	C	1.639981	-0.258901	0.968865
C118	C	0.970206	-0.999056	0.305119
C119	C	1.303539	-0.665723	0.638452
C120	C	1.636872	-0.332389	0.971785
C121	C	1.060248	-0.995179	0.221487
C122	C	1.393581	-0.661846	0.554821
C123	C	1.726915	-0.328512	0.888154
C124	C	1.063351	-0.921695	0.218564
C125	C	1.396684	-0.588361	0.551898
C126	C	1.730018	-0.255028	0.885231
C127	C	1.019888	-0.886892	0.258922
C128	C	1.353221	-0.553559	0.592256
C129	C	1.686554	-0.220226	0.925589
C130	C	0.981777	-0.778711	0.294265
C131	C	1.315110	-0.445378	0.627599
C132	C	1.648443	-0.112045	0.960932
C133	C	1.023069	-0.811780	0.255933
C134	C	1.356403	-0.478447	0.589266
C135	C	1.689736	-0.145114	0.922600
C136	C	1.185883	-0.287780	0.267851
C137	C	1.519216	0.045553	0.601184
C138	C	1.852550	0.378887	0.934517
C139	C	1.264090	-0.284446	0.264766
C140	C	1.597423	0.048887	0.598099
C141	C	1.930756	0.382220	0.931432
C142	C	1.002418	-0.295587	0.438511
C143	C	1.335752	0.037746	0.771844
C144	C	1.669085	0.371080	1.105178
C145	C	1.002443	-0.295580	0.508151
C146	C	1.335777	0.037754	0.841484
C147	C	1.669110	0.371087	1.174818
C148	C	1.010290	-0.112070	0.267852
C149	C	1.343624	0.221263	0.601185
C150	C	1.676957	0.554596	0.934519
C151	C	1.013670	-0.033859	0.264767
C152	C	1.347004	0.299474	0.598101
C153	C	1.680337	0.632807	0.931434
C154	C	1.002343	-0.295568	0.112302
C155	C	1.335677	0.037766	0.445635
C156	C	1.669010	0.371099	0.778969
C157	C	1.002463	-0.295371	0.042649
C158	C	1.335796	0.037962	0.375983
C159	C	1.669130	0.371296	0.709316
C160	C	1.049389	-0.248655	0.537315
C161	C	1.382722	0.084678	0.870648
C162	C	1.716055	0.418012	1.203982
C163	C	1.049389	-0.248625	0.602749
C164	C	1.382722	0.084709	0.936082
C165	C	1.716056	0.418042	1.269416
C166	C	1.002451	-0.295532	0.639017
C167	C	1.335784	0.037802	0.972351
C168	C	1.669118	0.371135	1.305684
C169	C	0.955497	-0.342460	0.609846
C170	C	1.288830	-0.009127	0.943179
C171	C	1.622164	0.324207	1.276513
C172	C	0.955493	-0.342484	0.544413
C173	C	1.288827	-0.009151	0.877746
C174	C	1.622160	0.324183	1.211079
C175	C	0.994164	-0.359126	0.745415
C176	C	1.327497	-0.025793	1.078748
C177	C	1.660831	0.307541	1.412082
C178	C	0.994173	-0.359103	0.810847
C179	C	1.327506	-0.025770	1.144180
C180	C	1.660839	0.307564	1.477513
C181	C	1.002459	-0.295457	0.840835
C182	C	1.335792	0.037876	1.174168
C183	C	1.669125	0.371210	1.507502
C184	C	1.010751	-0.231832	0.805383
C185	C	1.344084	0.101502	1.138716
C186	C	1.677417	0.434835	1.472049
C187	C	1.010747	-0.231856	0.739950
C188	C	1.344080	0.101478	1.073283
C189	C	1.677414	0.434811	1.406616
C190	C	1.002450	-0.295510	0.709969
C191	C	1.335783	0.037823	1.043302
C192	C	1.669116	0.371156	1.376636
C193	C	1.049407	-0.248496	0.940950
C194	C	1.382740	0.084838	1.274283
C195	C	1.716073	0.418171	1.607617
C196	C	1.049402	-0.248464	1.006386
C197	C	1.382735	0.084869	1.339719
C198	C	1.716069	0.418202	1.673052
C199	C	0.955513	-0.342306	1.013481
C200	C	1.288847	-0.008972	1.346815
C201	C	1.622180	0.324361	1.680148
C202	C	0.955515	-0.342331	0.948047
C203	C	1.288848	-0.008997	1.281380
C204	C	1.622181	0.324336	1.614713
C205	C	1.002465	-0.295427	0.911785
C206	C	1.335798	0.037907	1.245118
C207	C	1.669132	0.371240	1.578452
H208	H	0.737981	-0.225267	0.209875
H209	H	1.071314	0.108066	0.543208
H210	H	1.404647	0.441400	0.876541
Br211	Br	0.878285	-0.721283	0.390367
Br212	Br	1.211618	-0.387950	0.723701
Br213	Br	1.544951	-0.054616	1.057034
H214	H	1.087619	-0.210461	0.507794
H215	H	1.420952	0.122872	0.841128
H216	H	1.754285	0.456206	1.174461
H217	H	0.400760	-0.360213	0.334992
H218	H	0.734093	-0.026880	0.668325
H219	H	1.067427	0.306453	1.001658
Br220	Br	0.585764	-0.207370	0.193278
Br221	Br	0.919098	0.125964	0.526612
Br222	Br	1.252431	0.459297	0.859945
Br223	Br	0.255467	-0.178786	0.166790
Br224	Br	0.588800	0.154547	0.500123
Br225	Br	0.922134	0.487880	0.833456
Br226	Br	0.428677	-0.171367	0.159904
Br227	Br	0.762010	0.161966	0.493237
Br228	Br	1.095344	0.495299	0.826571
Br229	Br	1.113088	-0.184920	0.642338
Br230	Br	1.446421	0.148414	0.975672
Br231	Br	1.779755	0.481747	1.309005
Br232	Br	1.113130	-0.184785	1.045966
Br233	Br	1.446463	0.148548	1.379300
Br234	Br	1.779796	0.481882	1.712633
H235	H	0.909206	-0.566970	0.361564
H236	H	1.242539	-0.233637	0.694898
H237	H	1.575873	0.099696	1.028231
Br238	Br	0.466807	-0.379561	0.352909
Br239	Br	0.800140	-0.046228	0.686243
Br240	Br	1.133474	0.287105	1.019576
Br241	Br	1.097841	-0.538946	0.186331
Br242	Br	1.431174	-0.205613	0.519664
Br243	Br	1.764507	0.127720	0.852997
Br244	Br	1.090524	-0.712149	0.193236
Br245	Br	1.423857	-0.378815	0.526569
Br246	Br	1.757190	-0.045482	0.859903
H247	H	0.987229	-0.410949	0.721011
H248	H	1.320562	-0.077616	1.054345
H249	H	1.653896	0.255718	1.387678
H250	H	1.060993	-0.780285	0.220700
H251	H	1.394327	-0.446952	0.554033
H252	H	1.727660	-0.113618	0.887367
Br253	Br	0.918571	-0.831211	0.352997
Br254	Br	1.251904	-0.497878	0.686330
Br255	Br	1.585237	-0.164545	1.019663
H256	H	0.917289	-0.380491	1.043010
H257	H	1.250622	-0.047158	1.376343
H258	H	1.583955	0.286175	1.709677
Br259	Br	1.021996	-0.145512	0.691838
Br260	Br	1.355330	0.187821	1.025171
Br261	Br	1.688663	0.521155	1.358504
Br262	Br	1.126571	-0.869204	0.159838
Br263	Br	1.459904	-0.535871	0.493171
Br264	Br	1.793238	-0.202538	0.826505
Br265	Br	1.022003	-0.145449	0.846072
Br266	Br	1.355336	0.187885	1.179405
Br267	Br	1.688669	0.521218	1.512738
H268	H	1.095634	-1.023523	0.188631
H269	H	1.428968	-0.690190	0.521965
H270	H	1.762301	-0.356856	0.855298
Br271	Br	0.891790	-0.406115	0.659065
Br272	Br	1.225123	-0.072782	0.992398
Br273	Br	1.558457	0.260551	1.325732
Br274	Br	0.906981	-1.051551	0.363844
Br275	Br	1.240314	-0.718218	0.697178
Br276	Br	1.573648	-0.384884	1.030511
H277	H	1.087633	-0.210299	0.911424
H278	H	1.420966	0.123034	1.244757
H279	H	1.754299	0.456367	1.578091
Br280	Br	0.246471	-0.391234	0.363779
Br281	Br	0.579804	-0.057900	0.697112
Br282	Br	0.913138	0.275433	1.030446
Br283	Br	0.891801	-0.406019	0.908464
Br284	Br	1.225134	-0.072686	1.241797
Br285	Br	1.558467	0.260647	1.575131
H286	H	0.987425	-0.410911	0.839707
H287	H	1.320758	-0.077577	1.173040
H288	H	1.654092	0.255756	1.506373
H289	H	0.597739	-0.394512	0.366781
H290	H	0.931073	-0.061179	0.700115
H291	H	1.264406	0.272154	1.033448
Br292	Br	0.749961	-0.412418	0.383370
Br293	Br	1.083295	-0.079084	0.716703
Br294	Br	1.416628	0.254249	1.050037
Br295	Br	0.891776	-0.406172	0.504830
Br296	Br	1.225109	-0.072839	0.838164
Br297	Br	1.558442	0.260495	1.171497
H298	H	0.517648	-0.236965	0.220722
H299	H	0.850982	0.096369	0.554055
H300	H	1.184315	0.429702	0.887388
H301	H	0.937923	-0.897237	0.335058
H302	H	1.271257	-0.563904	0.668392
H303	H	1.604590	-0.230571	1.001725
