data_functionalizedCrystal
_audit_creation_method	'MofGen! by Chris Wilmer'
_symmetry_space_group_name_H-M	'P1'
_symmetry_Int_Tables_number	1
_symmetry_cell_setting	triclinic
loop_
_symmetry_equiv_pos_as_xyz
  x,y,z
_cell_length_a	12.827893
_cell_length_b	12.827892
_cell_length_c	11.169409
_cell_angle_alpha	89.966782
_cell_angle_beta	89.978072
_cell_angle_gamma	90.015552
loop_
_atom_site_label
_atom_site_type_symbol
_atom_site_fract_x
_atom_site_fract_y
_atom_site_fract_z
Zn1	Zn	1.597697	-0.415945	-0.678579
Zn2	Zn	1.597583	-0.590732	-0.477892
Zn3	Zn	1.422930	-0.416006	-0.477908
Zn4	Zn	1.422924	-0.590645	-0.678532
O5	O	1.510283	-0.503332	-0.578228
O6	O	1.743918	-0.439141	-0.651970
O7	O	1.574370	-0.567616	-0.309944
O8	O	1.446164	-0.269762	-0.504554
O9	O	1.743834	-0.567557	-0.504526
O10	O	1.574564	-0.269717	-0.651985
O11	O	1.446053	-0.439246	-0.309956
O12	O	1.276693	-0.439161	-0.504509
O13	O	1.446153	-0.567408	-0.846488
O14	O	1.276689	-0.567468	-0.651906
O15	O	1.574558	-0.439057	-0.846522
O16	O	1.574364	-0.736956	-0.504481
O17	O	1.446042	-0.736892	-0.651891
C18	C	1.238774	-0.503312	-0.578205
C19	C	1.122620	-0.503329	-0.578224
C20	C	0.950750	-0.566792	-0.505188
C21	C	1.070801	-0.566776	-0.505167
C22	C	1.510218	-0.774842	-0.578206
C23	C	1.510286	-0.890995	-0.578236
C24	C	1.573794	-0.942674	-0.651256
C25	C	1.573865	-1.062724	-0.651289
C26	C	1.782854	-0.503352	-0.578251
C27	C	1.899007	-0.503360	-0.578262
C28	C	1.510367	-0.503216	-0.891270
C29	C	1.510403	-0.503167	-1.024670
C30	C	1.510378	-0.230762	-0.578276
C31	C	1.510418	-0.114608	-0.578297
C32	C	1.510260	-0.503372	-0.266403
C33	C	1.510427	-0.503127	-0.133004
H34	H	1.078129	-0.449024	-0.640792
C35	C	1.436957	-1.054585	-0.493835
C36	C	1.445540	-1.069581	-0.357394
C37	C	1.372079	-1.009549	-0.272931
C38	C	1.290035	-0.934521	-0.324910
C39	C	1.281449	-0.919522	-0.461358
C40	C	1.354910	-0.979554	-0.545820
H41	H	1.506277	-1.125124	-0.318910
H42	H	1.378436	-1.020652	-0.171923
H43	H	1.235655	-0.890081	-0.262386
H44	H	1.220712	-0.863978	-0.499841
H45	H	1.348553	-0.968450	-0.646828
C46	C	0.890539	-0.640176	-0.420689
C47	C	0.815438	-0.594744	-0.326645
C48	C	0.755229	-0.668131	-0.242144
C49	C	0.770120	-0.786950	-0.251687
C50	C	0.845224	-0.832389	-0.345735
C51	C	0.905434	-0.759002	-0.430236
H52	H	0.804412	-0.506781	-0.319577
H53	H	0.699632	-0.634493	-0.172523
H54	H	0.725550	-0.841276	-0.189134
H55	H	0.856251	-0.920352	-0.352803
H56	H	0.961031	-0.792640	-0.499857
C57	C	1.130905	-0.640145	-0.420646
C58	C	1.250951	-0.640024	-0.420745
C59	C	1.311058	-0.713396	-0.336220
C60	C	1.251119	-0.786888	-0.251596
C61	C	1.131067	-0.787011	-0.251494
C62	C	1.070960	-0.713640	-0.336018
H63	H	1.295327	-0.585618	-0.483392
H64	H	1.399928	-0.713304	-0.336297
H65	H	1.295614	-0.841202	-0.189026
H66	H	1.086690	-0.841417	-0.188847
H67	H	0.982089	-0.713731	-0.335942
C68	C	0.959216	-0.429975	-0.662762
C69	C	0.944373	-0.438625	-0.799201
C70	C	1.004579	-0.365237	-0.883705
C71	C	1.079629	-0.283200	-0.831769
C72	C	1.094475	-0.274548	-0.695322
C73	C	1.034268	-0.347935	-0.610819
H74	H	0.888814	-0.499356	-0.837654
H75	H	0.993589	-0.371643	-0.984712
H76	H	1.124197	-0.228875	-0.894323
H77	H	1.150033	-0.213816	-0.656870
H78	H	1.045259	-0.341529	-0.509812
C79	C	1.647323	-1.122754	-0.735748
C80	C	1.729367	-1.197782	-0.683770
C81	C	1.802828	-1.257815	-0.768232
C82	C	1.794245	-1.242819	-0.904673
C83	C	1.712198	-1.167788	-0.956658
C84	C	1.638737	-1.107755	-0.872196
H85	H	1.735724	-1.208886	-0.582762
H86	H	1.863565	-1.313358	-0.729748
H87	H	1.848625	-1.287259	-0.967197
H88	H	1.705841	-1.156684	-1.057666
H89	H	1.578000	-1.052212	-0.910680
H90	H	1.455962	-0.935627	-0.515752
H91	H	1.628110	-0.898044	-0.713751
