data_functionalizedCrystal
_audit_creation_method	'MofGen! by Chris Wilmer'
_symmetry_space_group_name_H-M	'P1'
_symmetry_Int_Tables_number	1
_symmetry_cell_setting	triclinic
loop_
_symmetry_equiv_pos_as_xyz
  x,y,z
_cell_length_a	10.654549
_cell_length_b	10.654550
_cell_length_c	9.130313
_cell_angle_alpha	89.995631
_cell_angle_beta	89.995453
_cell_angle_gamma	84.485924
loop_
_atom_site_label
_atom_site_type_symbol
_atom_site_fract_x
_atom_site_fract_y
_atom_site_fract_z
O1	O	1.667837	0.176428	-0.121835
O2	O	1.302359	0.193228	-0.121830
O3	O	1.493501	0.002089	-0.121823
O4	O	1.476695	0.367567	-0.121841
O5	O	1.493488	0.002083	0.121776
O6	O	1.302346	0.193222	0.121769
O7	O	1.667824	0.176422	0.121764
Cu8	Cu	1.485083	0.184822	0.144009
Cu9	Cu	1.485099	0.184828	-0.144075
O10	O	1.476682	0.367561	0.121758
C11	C	1.255554	0.191990	-0.000030
C12	C	1.116111	0.188296	-0.000028
C13	C	1.492260	-0.044712	-0.000024
C14	C	1.488568	-0.184155	-0.000027
C15	C	1.601110	-0.263639	-0.000029
C16	C	1.597633	-0.394660	-0.000047
C17	C	1.369064	-0.366701	-0.000054
C18	C	1.372542	-0.235682	-0.000047
C19	C	0.826127	0.409919	-0.000080
C20	C	0.877664	0.525937	-0.000080
C21	C	1.008682	0.529413	-0.000061
C22	C	1.088167	0.416857	-0.000046
C23	C	1.036630	0.300839	-0.000046
C24	C	0.905608	0.297376	-0.000061
C25	C	1.064574	0.072277	-0.000028
C26	C	0.933557	0.068799	-0.000036
C27	C	1.144060	-0.040278	-0.000013
C28	C	1.092523	-0.156300	-0.000003
C29	C	0.961497	-0.159771	-0.000021
C30	C	0.882020	-0.047220	-0.000037
C31	C	1.714628	0.177660	-0.000039
C32	C	1.854071	0.181354	-0.000051
C33	C	1.477922	0.414362	-0.000044
C34	C	1.481614	0.553805	-0.000052
N35	N	1.485082	0.184816	0.346632
N36	N	1.485111	0.184824	-0.346697
C37	C	1.569748	0.100216	0.423287
C38	C	1.569760	0.100216	0.576623
C39	C	1.400435	0.269428	0.576637
C40	C	1.400418	0.269421	0.423303
H41	H	1.689276	-0.459371	-0.000051
O42	O	1.215458	0.420069	0.000150
C43	C	1.266883	0.358574	0.126338
H44	H	1.199535	0.289847	0.168412
H45	H	1.361407	0.304709	0.097969
H46	H	1.281294	0.431436	0.214670
O47	O	1.713843	-0.213643	-0.000286
C48	C	1.782532	-0.254176	-0.126435
H49	H	1.714709	-0.282005	-0.214613
H50	H	1.836659	-0.174351	-0.168783
H51	H	1.851771	-0.338947	-0.097920
O52	O	1.318295	0.351784	0.348899
C53	C	1.339765	0.476306	0.386364
H54	H	1.440321	0.477863	0.428491
H55	H	1.325853	0.539195	0.285516
H56	H	1.270483	0.512551	0.475377
O57	O	1.256332	-0.416700	-0.000322
C58	C	1.187654	-0.376146	-0.126467
H59	H	1.255484	-0.348299	-0.214644
H60	H	1.133534	-0.455966	-0.168819
H61	H	1.118410	-0.291383	-0.097942
H62	H	1.331506	0.338313	0.639078
O63	O	1.652129	0.017991	0.650858
C64	C	1.726822	-0.056702	0.550299
H65	H	1.728673	-0.005196	0.440991
H66	H	1.826955	-0.074922	0.594581
H67	H	1.685241	-0.150384	0.534011
H68	H	1.280891	-0.170963	-0.000049
H69	H	1.050642	0.623885	-0.000058
H70	H	0.719444	0.407100	-0.000070
H71	H	0.812933	0.617577	-0.000096
H72	H	1.250741	-0.037440	-0.000005
H73	H	0.919545	-0.254247	-0.000029
O74	O	1.169602	-0.265708	0.000200
C75	C	1.146104	-0.336068	0.126386
H76	H	1.046998	-0.306097	0.168446
H77	H	1.154410	-0.440736	0.098019
H78	H	1.217899	-0.318270	0.214728
H79	H	0.775336	-0.050035	-0.000038
O80	O	1.651780	0.017923	0.348678
C81	C	1.583797	-0.060207	0.260089
H82	H	1.485982	-0.011055	0.237099
H83	H	1.636030	-0.079675	0.152269
H84	H	1.574405	-0.153067	0.319260
