data_functionalizedCrystal
_audit_creation_method	'MofGen! by Chris Wilmer'
_symmetry_space_group_name_H-M	'P1'
_symmetry_Int_Tables_number	1
_symmetry_cell_setting	triclinic
loop_
_symmetry_equiv_pos_as_xyz
  x,y,z
_cell_length_a	10.723023
_cell_length_b	14.044190
_cell_length_c	9.198806
_cell_angle_alpha	89.991997
_cell_angle_beta	89.996191
_cell_angle_gamma	88.829662
loop_
_atom_site_label
_atom_site_type_symbol
_atom_site_fract_x
_atom_site_fract_y
_atom_site_fract_z
O1	O	1.670503	0.133036	-0.120907
O2	O	1.308625	0.145772	-0.120912
O3	O	1.484127	0.001384	-0.120881
O4	O	1.495000	0.277424	-0.120938
O5	O	1.484112	0.001384	0.120904
O6	O	1.308609	0.145771	0.120873
O7	O	1.670487	0.133036	0.120878
Cu8	Cu	1.489547	0.139404	0.142952
Cu9	Cu	1.489565	0.139404	-0.142986
O10	O	1.494985	0.277424	0.120847
C11	C	1.262025	0.144845	-0.000020
C12	C	1.123193	0.142073	-0.000021
C13	C	0.917807	0.137971	0.125226
C14	C	1.061296	0.140837	0.125230
C15	C	1.479363	-0.033962	0.000016
C16	C	1.465175	-0.139280	0.000028
C17	C	1.539861	-0.389081	-0.000028
C18	C	1.439257	-0.332106	-0.000019
C19	C	1.453681	-0.224808	0.000007
C20	C	1.525438	-0.496389	-0.000054
C21	C	1.717087	0.133963	-0.000017
C22	C	1.855919	0.136735	-0.000026
C23	C	1.499749	0.312769	-0.000053
C24	C	1.513937	0.418088	-0.000075
N25	N	1.489543	0.139403	0.344066
N26	N	1.489578	0.139398	-0.344100
C27	C	1.563205	0.078511	0.416277
C28	C	1.563224	0.078508	0.583689
H29	H	1.342294	-0.363911	-0.000029
C30	C	1.404372	0.209832	0.572031
C31	C	1.305340	0.172268	0.466508
C32	C	1.220135	0.242702	0.382627
C33	C	1.233962	0.350699	0.404268
C34	C	1.332999	0.388269	0.509795
C35	C	1.418204	0.317835	0.593677
H36	H	1.295101	0.092316	0.450484
H37	H	1.146821	0.214890	0.304508
H38	H	1.170888	0.402839	0.342174
H39	H	1.343238	0.468220	0.525820
H40	H	1.491517	0.345647	0.671795
H41	H	0.864561	0.136913	0.232456
H42	H	1.636816	-0.357277	-0.000011
H43	H	1.069979	0.141008	-0.107259
H44	H	1.626252	0.026378	0.354162
H45	H	1.114519	0.141895	0.232463
H46	H	0.909164	0.137804	-0.107256
C47	C	1.648426	0.008077	0.667567
C48	C	1.648367	0.008204	0.834973
C49	C	1.733572	-0.062230	0.918854
C50	C	1.818837	-0.132791	0.835330
C51	C	1.818899	-0.132921	0.667915
C52	C	1.733694	-0.062487	0.584034
H53	H	1.585246	0.060440	0.896811
H54	H	1.733525	-0.062133	1.042786
H55	H	1.881911	-0.184930	0.897424
H56	H	1.882020	-0.185157	0.606077
H57	H	1.733741	-0.062584	0.460102
H58	H	1.426488	0.191529	0.406183
