data_functionalizedCrystal
_audit_creation_method	'MofGen! by Chris Wilmer'
_symmetry_space_group_name_H-M	'P1'
_symmetry_Int_Tables_number	1
_symmetry_cell_setting	triclinic
loop_
_symmetry_equiv_pos_as_xyz
  x,y,z
_cell_length_a	17.077404
_cell_length_b	19.121063
_cell_length_c	17.077396
_cell_angle_alpha	87.591200
_cell_angle_beta	90.019501
_cell_angle_gamma	92.469213
loop_
_atom_site_label
_atom_site_type_symbol
_atom_site_fract_x
_atom_site_fract_y
_atom_site_fract_z
Zn1	Zn	1.186697	-0.279610	0.457152
Zn2	Zn	1.686697	0.220390	0.957152
Zn3	Zn	1.180993	-0.397067	0.331476
Zn4	Zn	1.680993	0.102933	0.831476
Zn5	Zn	1.055428	-0.279634	0.325901
Zn6	Zn	1.555428	0.220366	0.825901
Zn7	Zn	1.049788	-0.397025	0.462698
Zn8	Zn	1.549788	0.102975	0.962698
O9	O	1.118227	-0.338334	0.394307
O10	O	1.618227	0.161666	0.894307
O11	O	1.295787	-0.295198	0.440493
O12	O	1.795787	0.204802	0.940493
O13	O	1.164310	-0.381517	0.220891
O14	O	1.664310	0.118483	0.720891
O15	O	1.077589	-0.181347	0.338657
O16	O	1.577589	0.318653	0.838657
O17	O	1.291597	-0.381493	0.348160
O18	O	1.791597	0.118507	0.848160
O19	O	1.174032	-0.181328	0.435086
O20	O	1.674032	0.318672	0.935086
O21	O	1.072058	-0.295240	0.216795
O22	O	1.572058	0.204760	0.716795
O23	O	0.944833	-0.295199	0.344035
O24	O	1.444833	0.204801	0.844035
O25	O	1.067976	-0.381422	0.571808
O26	O	1.567976	0.118578	1.071808
O27	O	0.940690	-0.381446	0.444539
O28	O	1.440690	0.118554	0.944539
O29	O	1.168563	-0.295157	0.567733
O30	O	1.668563	0.204843	1.067733
O31	O	1.158841	-0.495346	0.353538
O32	O	1.658841	0.004654	0.853538
O33	O	1.062445	-0.495315	0.449946
O34	O	1.562445	0.004685	0.949946
C35	C	0.914279	-0.338321	0.394284
C36	C	1.414279	0.161679	0.894284
C37	C	0.827029	-0.338333	0.394294
C38	C	1.327029	0.161667	0.894294
C39	C	0.783899	-0.383309	0.446550
C40	C	1.283899	0.116691	0.946550
C41	C	0.701918	-0.383311	0.446562
C42	C	1.201918	0.116689	0.946562
C43	C	0.663069	-0.338339	0.394315
C44	C	1.163069	0.161661	0.894315
C45	C	0.706206	-0.293358	0.342057
C46	C	1.206206	0.206642	0.842057
C47	C	0.788185	-0.293353	0.342049
C48	C	1.288185	0.206647	0.842049
C49	C	0.535335	-0.293371	0.342077
C50	C	1.035335	0.206629	0.842077
C51	C	0.453350	-0.293377	0.342084
C52	C	0.953350	0.206623	0.842084
C53	C	0.449068	-0.383329	0.446590
C54	C	0.949068	0.116671	0.946590
C55	C	0.531047	-0.383324	0.446582
C56	C	1.031047	0.116676	0.946582
C57	C	0.574178	-0.338344	0.394323
C58	C	1.074178	0.161656	0.894323
C59	C	1.109434	-0.520815	0.402966
C60	C	1.609434	-0.020815	0.902966
C61	C	1.105744	-0.598881	0.406696
C62	C	1.605744	-0.098881	0.906696
C63	C	1.154237	-0.635549	0.358296
C64	C	1.654237	-0.135549	0.858296
C65	C	1.150772	-0.708900	0.361809
C66	C	1.650772	-0.208900	0.861809
C67	C	1.098808	-0.745582	0.413719
C68	C	1.598808	-0.245582	0.913719
C69	C	1.050312	-0.708908	0.462125
C70	C	1.550312	-0.208908	0.962125
C71	C	1.053782	-0.635558	0.458615
C72	C	1.553782	-0.135558	0.958615
C73	C	1.085821	-0.967052	0.426830
C74	C	1.585821	-0.467052	0.926830
C75	C	1.082353	-1.040407	0.430334
C76	C	1.582353	-0.540407	0.930334
C77	C	1.182814	-1.040393	0.330019
C78	C	1.682814	-0.540393	0.830019
C79	C	1.186276	-0.967042	0.326511
C80	C	1.686276	-0.467042	0.826511
C81	C	1.137783	-0.930375	0.374919
C82	C	1.637783	-0.430375	0.874919
C83	C	1.095262	-0.820559	0.417310
C84	C	1.595262	-0.320559	0.917310
C85	C	1.141333	-0.855399	0.371332
C86	C	1.641333	-0.355399	0.871332
C87	C	1.322970	-0.338347	0.394329
C88	C	1.822970	0.161653	0.894329
C89	C	1.410220	-0.338353	0.394339
C90	C	1.910220	0.161647	0.894339
C91	C	1.118277	-0.338282	0.599049
C92	C	1.618277	0.161718	1.099049
C93	C	1.118298	-0.338260	0.686297
C94	C	1.618298	0.161740	1.186297
C95	C	1.127075	-0.155141	0.385631
C96	C	1.627075	0.344859	0.885631
C97	C	1.130846	-0.077075	0.381934
C98	C	1.630846	0.422925	0.881934
C99	C	1.118224	-0.338335	0.190359
C100	C	1.618224	0.161665	0.690359
C101	C	1.118365	-0.338159	0.103101
C102	C	1.618365	0.161841	0.603101
C103	C	1.170675	-0.293338	0.725167
C104	C	1.670675	0.206662	1.225167
C105	C	1.170686	-0.293315	0.807146
C106	C	1.670686	0.206685	1.307146
C107	C	1.118322	-0.338217	0.850255
C108	C	1.618322	0.161783	1.350255
C109	C	1.065939	-0.383141	0.811380
C110	C	1.565939	0.116859	1.311380
C111	C	1.065925	-0.383160	0.729402
C112	C	1.565925	0.116840	1.229402
C113	C	1.065973	-0.383099	0.982248
C114	C	1.565973	0.116901	1.482248
C115	C	1.065987	-0.383081	1.064232
C116	C	1.565987	0.116919	1.564232
C117	C	1.170733	-0.293254	1.059992
C118	C	1.670733	0.206746	1.559992
C119	C	1.170720	-0.293273	0.978014
C120	C	1.670720	0.206727	1.478014
C121	C	1.118337	-0.338198	0.939145
C122	C	1.618337	0.161802	1.439145
H123	H	0.666805	-0.419935	0.489113
H124	H	1.166805	0.080065	0.989113
H125	H	0.570450	-0.256737	0.299529
H126	H	1.070450	0.243263	0.799529
H127	H	0.562675	-0.419948	0.489122
H128	H	1.062675	0.080052	0.989122
H129	H	1.014295	-0.605704	0.498029
H130	H	1.514295	-0.105704	0.998029
Br131	Br	1.224756	-0.585773	0.287836
Br132	Br	1.724756	-0.085773	0.787836
Br133	Br	0.836614	-0.444351	0.517455
Br134	Br	1.336614	0.055649	1.017455
Br135	Br	0.390536	-0.444365	0.517523
Br136	Br	0.890536	0.055635	1.017523
H137	H	1.046335	-0.937203	0.466244
H138	H	1.546335	-0.437203	0.966244
H139	H	0.823301	-0.256725	0.299501
H140	H	1.323301	0.243275	0.799501
Br141	Br	1.216593	-0.758662	0.296125
Br142	Br	1.716593	-0.258662	0.796125
Br143	Br	1.024743	-0.870347	0.487759
Br144	Br	1.524743	-0.370347	0.987759
Br145	Br	0.400627	-0.232348	0.271171
Br146	Br	0.900627	0.267652	0.771171
Br147	Br	1.256811	-0.917264	0.256069
Br148	Br	1.756811	-0.417264	0.756069
H149	H	1.222295	-1.070255	0.290609
H150	H	1.722295	-0.570255	0.790609
H151	H	1.213384	-0.256673	1.091644
H152	H	1.713384	0.243327	1.591644
Br153	Br	0.653484	-0.232317	0.271157
Br154	Br	1.153484	0.267683	0.771157
Br155	Br	1.011812	-1.090189	0.500775
Br156	Br	1.511812	-0.590189	1.000775
Br157	Br	0.994834	-0.444124	0.676649
Br158	Br	1.494834	0.055876	1.176649
Br159	Br	0.979795	-0.758690	0.532582
Br160	Br	1.479795	-0.258690	1.032582
Br161	Br	1.241750	-0.232401	0.666670
Br162	Br	1.741750	0.267599	1.166670
H163	H	1.183645	-0.825531	0.329069
H164	H	1.683645	-0.325531	0.829069
Br165	Br	1.241808	-0.232380	0.859896
Br166	Br	1.741808	0.267620	1.359896
Br167	Br	0.994868	-0.444077	0.869883
Br168	Br	1.494868	0.055923	1.369883
Br169	Br	1.241792	-0.232340	0.919510
Br170	Br	1.741792	0.267660	1.419510
H171	H	1.023346	-0.419643	1.099329
H172	H	1.523346	0.080357	1.599329
Br173	Br	0.994879	-0.444066	0.929497
Br174	Br	1.494879	0.055934	1.429497
