data_functionalizedCrystal
_audit_creation_method	'MofGen! by Chris Wilmer'
_symmetry_space_group_name_H-M	'P1'
_symmetry_Int_Tables_number	1
_symmetry_cell_setting	triclinic
loop_
_symmetry_equiv_pos_as_xyz
  x,y,z
_cell_length_a	19.120904
_cell_length_b	19.121102
_cell_length_c	19.121063
_cell_angle_alpha	90.126902
_cell_angle_beta	85.258387
_cell_angle_gamma	89.911827
loop_
_atom_site_label
_atom_site_type_symbol
_atom_site_fract_x
_atom_site_fract_y
_atom_site_fract_z
Zn1	Zn	-0.456040	-1.039579	0.343506
Zn2	Zn	-0.122706	-0.706246	0.676839
Zn3	Zn	0.210627	-0.372913	1.010172
Zn4	Zn	-0.343386	-1.039493	0.456149
Zn5	Zn	-0.010053	-0.706159	0.789482
Zn6	Zn	0.323280	-0.372826	1.122815
Zn7	Zn	-0.333417	-0.927792	0.333518
Zn8	Zn	-0.000084	-0.594459	0.666851
Zn9	Zn	0.333250	-0.261125	1.000184
Zn10	Zn	-0.455570	-0.917325	0.455677
Zn11	Zn	-0.122236	-0.583992	0.789010
Zn12	Zn	0.211097	-0.250658	1.122343
O13	O	-0.397103	-0.981047	0.397212
O14	O	-0.063770	-0.647714	0.730546
O15	O	0.269564	-0.314381	1.063879
O16	O	-0.445465	-1.137479	0.362826
O17	O	-0.112131	-0.804145	0.696159
O18	O	0.221202	-0.470812	1.029492
O19	O	-0.243797	-1.029020	0.435899
O20	O	0.089536	-0.695686	0.769232
O21	O	0.422870	-0.362353	1.102566
O22	O	-0.345708	-0.947038	0.236577
O23	O	-0.012374	-0.613704	0.569910
O24	O	0.320959	-0.280371	0.903244
O25	O	-0.362699	-1.137415	0.445584
O26	O	-0.029366	-0.804082	0.778917
O27	O	0.303968	-0.470748	1.112251
O28	O	-0.435798	-1.029167	0.243915
O29	O	-0.102465	-0.695834	0.577248
O30	O	0.230869	-0.362501	0.910582
O31	O	-0.236473	-0.946954	0.345802
O32	O	0.096861	-0.613620	0.679136
O33	O	0.430194	-0.280287	1.012469
O34	O	-0.345252	-0.828493	0.345345
O35	O	-0.011919	-0.495159	0.678678
O36	O	0.321415	-0.161826	1.012011
O37	O	-0.553899	-0.929198	0.444780
O38	O	-0.220566	-0.595865	0.778113
O39	O	0.112768	-0.262532	1.111446
O40	O	-0.434997	-0.820803	0.435094
O41	O	-0.101663	-0.487469	0.768428
O42	O	0.231670	-0.154136	1.101761
O43	O	-0.554244	-1.019018	0.362368
O44	O	-0.220911	-0.685684	0.695701
O45	O	0.112423	-0.352351	1.029035
O46	O	-0.362243	-1.018870	0.554352
O47	O	-0.028910	-0.685537	0.887685
O48	O	0.304423	-0.352204	1.221018
O49	O	-0.444664	-0.929114	0.554005
O50	O	-0.111330	-0.595781	0.887338
O51	O	0.222003	-0.262448	1.220672
C52	C	-0.388992	-0.799261	0.389085
C53	C	-0.055659	-0.465927	0.722418
C54	C	0.277675	-0.132594	1.055752
C55	C	-0.385539	-0.721490	0.385626
C56	C	-0.052206	-0.388157	0.718959
C57	C	0.281127	-0.054823	1.052292
C58	C	-0.404501	-0.972865	0.579659
C59	C	-0.071167	-0.639532	0.912992
C60	C	0.262166	-0.306199	1.246326
C61	C	-0.407691	-0.969428	0.657714
C62	C	-0.074358	-0.636095	0.991048
C63	C	0.258975	-0.302761	1.324381
C64	C	-0.580263	-0.972950	0.404635
C65	C	-0.246930	-0.639617	0.737969
C66	C	0.086403	-0.306283	1.071302
C67	C	-0.658315	-0.969500	0.407799
C68	C	-0.324982	-0.636166	0.741132
C69	C	0.008351	-0.302833	1.074465
C70	C	-0.695165	-1.014640	0.366379
C71	C	-0.361832	-0.681307	0.699713
C72	C	-0.028499	-0.347974	1.033046
C73	C	-0.768503	-1.011390	0.369348
C74	C	-0.435170	-0.678056	0.702682
C75	C	-0.101836	-0.344723	1.036015
C76	C	-0.804990	-0.963001	0.413741
C77	C	-0.471656	-0.629668	0.747074
C78	C	-0.138323	-0.296335	1.080408
C79	C	-0.768135	-0.917856	0.455162
C80	C	-0.434801	-0.584522	0.788495
C81	C	-0.101468	-0.251189	1.121828
C82	C	-0.694798	-0.921103	0.452188
C83	C	-0.361465	-0.587770	0.785522
C84	C	-0.028131	-0.254437	1.118855
C85	C	-1.026410	-0.950853	0.424862
C86	C	-0.693076	-0.617519	0.758195
C87	C	-0.359743	-0.284186	1.091528
C88	C	-1.099752	-0.947610	0.427833
C89	C	-0.766418	-0.614276	0.761167
C90	C	-0.433085	-0.280943	1.094500
C91	C	-1.100115	-1.041143	0.342019
C92	C	-0.766782	-0.707810	0.675352
C93	C	-0.433448	-0.374477	1.008685
C94	C	-1.026777	-1.044390	0.339052
C95	C	-0.693444	-0.711056	0.672386
C96	C	-0.360110	-0.377723	1.005719
C97	C	-0.989928	-0.999242	0.380470
C98	C	-0.656595	-0.665908	0.713804
C99	C	-0.323261	-0.332575	1.047137
C100	C	-0.879953	-0.959679	0.416779
C101	C	-0.546619	-0.626346	0.750112
C102	C	-0.213286	-0.293012	1.083445
C103	C	-0.914966	-1.002561	0.377429
C104	C	-0.581633	-0.669228	0.710762
C105	C	-0.248299	-0.335894	1.044095
C106	C	-0.214655	-0.989156	0.389769
C107	C	0.118678	-0.655822	0.723102
C108	C	0.452012	-0.322489	1.056436
C109	C	-0.136602	-0.992751	0.386414
C110	C	0.196732	-0.659417	0.719747
C111	C	0.530065	-0.326084	1.053081
C112	C	-0.405246	-1.163544	0.405372
C113	C	-0.071913	-0.830211	0.738705
C114	C	0.261420	-0.496877	1.072038
C115	C	-0.408717	-1.241313	0.408849
C116	C	-0.075383	-0.907980	0.742182
C117	C	0.257950	-0.574646	1.075515
C118	C	-0.430575	-0.680968	0.430793
C119	C	-0.097242	-0.347634	0.764127
C120	C	0.236092	-0.014301	1.097460
C121	C	-0.427334	-0.607894	0.427534
C122	C	-0.094000	-0.274561	0.760867
C123	C	0.239333	0.058772	1.094201
C124	C	-0.379053	-0.575344	0.379110
C125	C	-0.045720	-0.242011	0.712443
C126	C	0.287614	0.091323	1.045776
C127	C	-0.334016	-0.615872	0.333937
C128	C	-0.000682	-0.282538	0.667271
C129	C	0.332651	0.050795	1.000604
C130	C	-0.337261	-0.688944	0.337194
C131	C	-0.003927	-0.355611	0.670527
C132	C	0.329406	-0.022277	1.003860
C133	C	-0.366924	-0.354913	0.366933
C134	C	-0.033591	-0.021579	0.700266
C135	C	0.299743	0.311754	1.033599
C136	C	-0.363681	-0.281835	0.363681
C137	C	-0.030348	0.051498	0.697014
C138	C	0.302986	0.384831	1.030348
C139	C	-0.457000	-0.273863	0.457277
C140	C	-0.123667	0.059471	0.790611
C141	C	0.209666	0.392804	1.123944
C142	C	-0.460238	-0.346937	0.460532
C143	C	-0.126905	-0.013603	0.793866
C144	C	0.206428	0.319730	1.127199
C145	C	-0.415203	-0.387458	0.415357
C146	C	-0.081870	-0.054124	0.748691
C147	C	0.251463	0.279209	1.082024
C148	C	-0.375738	-0.500651	0.375778
C149	C	-0.042404	-0.167318	0.709112
C150	C	0.290929	0.166015	1.042445
C151	C	-0.418523	-0.462149	0.418686
C152	C	-0.085190	-0.128816	0.752019
C153	C	0.248144	0.204517	1.085353
C154	C	-0.389693	-0.989280	0.214054
C155	C	-0.056360	-0.655946	0.547388
C156	C	0.276974	-0.322613	0.880721
C157	C	-0.386535	-0.992788	0.136003
C158	C	-0.053202	-0.659454	0.469337
C159	C	0.280131	-0.326121	0.802670
C160	C	-0.366317	-1.014577	0.694545
C161	C	-0.032984	-0.681244	1.027879
C162	C	0.300349	-0.347911	1.361212
C163	C	-0.369323	-1.011348	0.767887
C164	C	-0.035990	-0.678015	1.101220
C165	C	0.297344	-0.344682	1.434554
C166	C	-0.413699	-0.962966	0.804396
C167	C	-0.080366	-0.629633	1.137729
C168	C	0.252968	-0.296300	1.471063
C169	C	-0.455078	-0.917815	0.767560
C170	C	-0.121744	-0.584482	1.100893
C171	C	0.211589	-0.251148	1.434227
C172	C	-0.452076	-0.921048	0.694220
C173	C	-0.118742	-0.587714	1.027553
C174	C	0.214591	-0.254381	1.360887
C175	C	-0.424912	-0.950869	1.025828
C176	C	-0.091579	-0.617536	1.359161
C177	C	0.241755	-0.284202	1.692494
C178	C	-0.427909	-0.947638	1.099173
C179	C	-0.094576	-0.614305	1.432506
C180	C	0.238757	-0.280972	1.765839
C181	C	-0.342155	-1.041173	1.099494
C182	C	-0.008822	-0.707840	1.432828
C183	C	0.324512	-0.374507	1.766161
C184	C	-0.339154	-1.044399	1.026153
C185	C	-0.005820	-0.711065	1.359486
C186	C	0.327513	-0.377732	1.692819
C187	C	-0.380535	-0.999250	0.989323
C188	C	-0.047202	-0.665917	1.322657
C189	C	0.286131	-0.332583	1.655990
C190	C	-0.416770	-0.959663	0.879363
C191	C	-0.083437	-0.626330	1.212696
C192	C	0.249896	-0.292997	1.546029
C193	C	-0.377467	-1.002557	0.914358
C194	C	-0.044134	-0.669224	1.247692
C195	C	0.289200	-0.335890	1.581025
H196	H	-0.665463	-1.054046	0.330232
H197	H	-0.332130	-0.720712	0.663566
H198	H	0.001203	-0.387379	0.996899
H199	H	-1.130125	-1.077899	0.308298
H200	H	-0.796792	-0.744566	0.641631
H201	H	-0.463458	-0.411233	0.974964
F202	F	-1.138582	-0.896103	0.475081
F203	F	-0.805248	-0.562770	0.808415
F204	F	-0.471915	-0.229436	1.141748
F205	F	-0.319081	-1.066069	0.655696
F206	F	0.014252	-0.732735	0.989029
F207	F	0.347585	-0.399402	1.322362
F208	F	-0.298121	-1.089223	1.138696
F209	F	0.035213	-0.755890	1.472029
F210	F	0.368546	-0.422557	1.805363
H211	H	-0.664795	-0.884338	0.485909
H212	H	-0.331462	-0.551005	0.819242
H213	H	0.001872	-0.217671	1.152576
H214	H	-0.499552	-0.373433	0.499966
H215	H	-0.166219	-0.040100	0.833299
H216	H	0.167115	0.293233	1.166633
F217	F	-0.876132	-1.054052	0.330178
F218	F	-0.542799	-0.720718	0.663511
F219	F	-0.209466	-0.387385	0.996844
F220	F	-0.289329	-0.732070	0.289119
F221	F	0.044004	-0.398737	0.622452
F222	F	0.377338	-0.065404	0.955785
H223	H	-0.464059	-0.908248	1.128897
H224	H	-0.130725	-0.574914	1.462230
H225	H	0.202608	-0.241581	1.795564
H226	H	-0.909669	-0.920284	0.452927
H227	H	-0.576335	-0.586951	0.786260
H228	H	-0.243002	-0.253617	1.119593
H229	H	-0.457836	-0.488655	0.458110
H230	H	-0.124502	-0.155321	0.791443
H231	H	0.208831	0.178012	1.124776
H232	H	-0.458605	-0.914106	0.995847
H233	H	-0.125272	-0.580773	1.329180
H234	H	0.208062	-0.247439	1.662513
F235	F	-0.312288	-0.247195	0.312143
F236	F	0.021045	0.086138	0.645476
F237	F	0.354379	0.419472	0.978810
F238	F	-0.481959	-0.715603	0.482337
F239	F	-0.148625	-0.382270	0.815670
F240	F	0.184708	-0.048936	1.149004
F241	F	-0.475267	-0.564770	0.475608
F242	F	-0.141934	-0.231437	0.808941
F243	F	0.191399	0.101896	1.142274
H244	H	-0.335631	-1.048113	0.797871
H245	H	-0.002298	-0.714780	1.131205
H246	H	0.331036	-0.381447	1.464538
H247	H	-0.997075	-1.083794	0.302905
H248	H	-0.663741	-0.750461	0.636239
H249	H	-0.330408	-0.417128	0.969572
F250	F	-0.291931	-1.095901	0.987303
F251	F	0.041403	-0.762568	1.320636
F252	F	0.374736	-0.429234	1.653970
H253	H	-0.452900	-0.920269	0.909097
H254	H	-0.119567	-0.586936	1.242430
H255	H	0.213766	-0.253602	1.575763
F256	F	-0.502311	-0.866327	0.806418
F257	F	-0.168977	-0.532993	1.139751
F258	F	0.164356	-0.199660	1.473085
F259	F	-0.807720	-1.059458	0.325289
F260	F	-0.474387	-0.726125	0.658623
F261	F	-0.141054	-0.392791	0.991956
F262	F	-0.504925	-0.230732	0.505353
F263	F	-0.171592	0.102601	0.838687
F264	F	0.161742	0.435934	1.172020
H265	H	-0.996417	-0.914100	0.458598
H266	H	-0.663084	-0.580766	0.791931
H267	H	-0.329750	-0.247433	1.125265
H268	H	-0.797848	-0.878454	0.491305
H269	H	-0.464514	-0.545121	0.824638
H270	H	-0.131181	-0.211788	1.157971
H271	H	-0.330248	-0.387897	0.330153
H272	H	0.003085	-0.054563	0.663487
H273	H	0.336418	0.278770	0.996820
H274	H	-0.336426	-0.474141	0.336353
H275	H	-0.003093	-0.140808	0.669686
H276	H	0.330241	0.192526	1.003019
F277	F	-0.282636	-0.581228	0.282396
F278	F	0.050697	-0.247894	0.615729
F279	F	0.384031	0.085439	0.949063
F280	F	-0.496114	-0.872995	0.655022
F281	F	-0.162780	-0.539662	0.988356
F282	F	0.170553	-0.206329	1.321689
F283	F	-0.330243	-1.054050	0.875502
F284	F	0.003090	-0.720716	1.208835
F285	F	0.336423	-0.387383	1.542168
