data_functionalizedCrystal
_audit_creation_method	'MofGen! by Chris Wilmer'
_symmetry_space_group_name_H-M	'P1'
_symmetry_Int_Tables_number	1
_symmetry_cell_setting	triclinic
loop_
_symmetry_equiv_pos_as_xyz
  x,y,z
_cell_length_a	10.685976
_cell_length_b	13.031981
_cell_length_c	10.686551
_cell_angle_alpha	100.978188
_cell_angle_beta	90.348485
_cell_angle_gamma	93.390724
loop_
_atom_site_label
_atom_site_type_symbol
_atom_site_fract_x
_atom_site_fract_y
_atom_site_fract_z
Zn1	Zn	1.889377	-0.504690	0.490769
Zn2	Zn	1.842483	-0.691540	0.254687
Zn3	Zn	1.663826	-0.502730	0.297421
Zn4	Zn	1.653299	-0.664865	0.484273
O5	O	1.762246	-0.590956	0.381788
O6	O	2.056724	-0.541460	0.444287
O7	O	1.803564	-0.676837	0.083357
O8	O	1.717777	-0.356939	0.343672
O9	O	2.022271	-0.678737	0.270839
O10	O	1.883488	-0.358379	0.485724
O11	O	1.672306	-0.538119	0.114753
O12	O	1.488862	-0.512254	0.337373
O13	O	1.699835	-0.633274	0.662134
O14	O	1.481128	-0.631374	0.474652
O15	O	1.873280	-0.515594	0.666907
O16	O	1.793356	-0.834052	0.264539
O17	O	1.654363	-0.814455	0.433215
C18	C	1.439990	-0.568707	0.409945
C19	C	1.302127	-0.559213	0.422017
C20	C	1.717665	-0.862124	0.343560
C21	C	1.698710	-0.978136	0.327238
C22	C	1.772207	-1.030479	0.390326
C23	C	1.752618	-1.150383	0.373458
C24	C	2.085760	-0.613292	0.353521
C25	C	2.223623	-0.622811	0.341475
C26	C	1.790614	-0.571677	0.711698
C27	C	1.802702	-0.563462	0.852286
C28	C	1.807038	-0.318730	0.420190
C29	C	1.826125	-0.202724	0.436554
C30	C	1.734073	-0.610089	0.053165
C31	C	1.722273	-0.618027	-0.087402
H32	H	1.849630	-0.986525	0.456831
H33	H	1.621278	-1.022091	0.260745
H34	H	1.261886	-0.684535	0.263281
H35	H	1.880820	-0.510462	0.908209
Cl36	Cl	1.243062	-0.463931	0.542755
Cl37	Cl	1.633062	-1.218234	0.270787
Cl38	Cl	1.601680	-0.699864	0.826268
Cl39	Cl	1.945676	-1.134875	0.539234
