data_functionalizedCrystal
_audit_creation_method	'MofGen! by Chris Wilmer'
_symmetry_space_group_name_H-M	'P1'
_symmetry_Int_Tables_number	1
_symmetry_cell_setting	triclinic
loop_
_symmetry_equiv_pos_as_xyz
  x,y,z
_cell_length_a	16.625547
_cell_length_b	18.101397
_cell_length_c	16.625539
_cell_angle_alpha	90.029990
_cell_angle_beta	90.021309
_cell_angle_gamma	90.020402
loop_
_atom_site_label
_atom_site_type_symbol
_atom_site_fract_x
_atom_site_fract_y
_atom_site_fract_z
Zn1	Zn	1.232664	-0.294843	0.455981
Zn2	Zn	1.482664	-0.044843	0.705981
Zn3	Zn	1.732664	0.205157	0.955981
Zn4	Zn	1.982664	0.455157	1.205981
Zn5	Zn	1.232580	-0.418688	0.321140
Zn6	Zn	1.482580	-0.168688	0.571140
Zn7	Zn	1.732580	0.081312	0.821140
Zn8	Zn	1.982580	0.331312	1.071140
Zn9	Zn	1.097834	-0.294865	0.321151
Zn10	Zn	1.347834	-0.044865	0.571151
Zn11	Zn	1.597834	0.205135	0.821151
Zn12	Zn	1.847834	0.455135	1.071151
Zn13	Zn	1.097801	-0.418647	0.455920
Zn14	Zn	1.347801	-0.168647	0.705920
Zn15	Zn	1.597801	0.081353	0.955920
Zn16	Zn	1.847801	0.331353	1.205920
O17	O	1.165220	-0.356761	0.388548
O18	O	1.415220	-0.106761	0.638548
O19	O	1.665220	0.143239	0.888548
O20	O	1.915220	0.393239	1.138548
O21	O	1.345485	-0.311279	0.438115
O22	O	1.595485	-0.061279	0.688115
O23	O	1.845485	0.188721	0.938115
O24	O	2.095485	0.438721	1.188115
O25	O	1.214684	-0.402289	0.208309
O26	O	1.464684	-0.152289	0.458309
O27	O	1.714684	0.097711	0.708309
O28	O	1.964684	0.347711	0.958309
O29	O	1.115768	-0.191229	0.339067
O30	O	1.365768	0.058771	0.589067
O31	O	1.615768	0.308771	0.839067
O32	O	1.865768	0.558771	1.089067
O33	O	1.345423	-0.402268	0.339048
O34	O	1.595423	-0.152268	0.589048
O35	O	1.845423	0.097732	0.839048
O36	O	2.095423	0.347732	1.089048
O37	O	1.214827	-0.191213	0.438126
O38	O	1.464827	0.058787	0.688126
O39	O	1.714827	0.308787	0.938126
O40	O	1.964827	0.558787	1.188126
O41	O	1.115687	-0.311316	0.208317
O42	O	1.365687	-0.061316	0.458317
O43	O	1.615687	0.188684	0.708317
O44	O	1.865687	0.438684	0.958317
O45	O	0.984997	-0.311277	0.339008
O46	O	1.234997	-0.061277	0.589008
O47	O	1.484997	0.188723	0.839008
O48	O	1.734997	0.438723	1.089008
O49	O	1.115712	-0.402198	0.568760
O50	O	1.365712	-0.152198	0.818760
O51	O	1.615712	0.097802	1.068760
O52	O	1.865712	0.347802	1.318760
O53	O	0.984973	-0.402219	0.438022
O54	O	1.234973	-0.152219	0.688022
O55	O	1.484973	0.097781	0.938022
O56	O	1.734973	0.347781	1.188022
O57	O	1.214795	-0.311240	0.568805
O58	O	1.464795	-0.061240	0.818805
O59	O	1.714795	0.188760	1.068805
O60	O	1.964795	0.438760	1.318805
O61	O	1.214652	-0.522316	0.338988
O62	O	1.464652	-0.272316	0.588988
O63	O	1.714652	-0.022316	0.838988
O64	O	1.964652	0.227684	1.088988
O65	O	1.115631	-0.522286	0.438010
O66	O	1.365631	-0.272286	0.688010
O67	O	1.615631	-0.022286	0.938010
O68	O	1.865631	0.227714	1.188010
C69	C	0.955729	-0.356746	0.388510
C70	C	1.205729	-0.106746	0.638510
C71	C	1.455729	0.143254	0.888510
C72	C	1.705729	0.393254	1.138510
C73	C	0.866108	-0.356758	0.388513
C74	C	1.116108	-0.106758	0.638513
C75	C	1.366108	0.143242	0.888513
C76	C	1.616108	0.393242	1.138513
C77	C	1.165151	-0.549171	0.388509
C78	C	1.415151	-0.299171	0.638509
C79	C	1.665151	-0.049171	0.888509
C80	C	1.915151	0.200829	1.138509
C81	C	1.165195	-0.631485	0.388519
C82	C	1.415195	-0.381485	0.638519
C83	C	1.665195	-0.131485	0.888519
C84	C	1.915195	0.118515	1.138519
C85	C	0.793325	-0.356760	0.388523
C86	C	1.043325	-0.106760	0.638523
C87	C	1.293325	0.143240	0.888523
C88	C	1.543325	0.393240	1.138523
C89	C	0.702017	-0.356763	0.388543
C90	C	0.952017	-0.106763	0.638543
C91	C	1.202017	0.143237	0.888543
C92	C	1.452017	0.393237	1.138543
C93	C	0.629240	-0.356770	0.388563
C94	C	0.879240	-0.106770	0.638563
C95	C	1.129240	0.143230	0.888563
C96	C	1.379240	0.393230	1.138563
C97	C	0.537926	-0.356775	0.388583
C98	C	0.787926	-0.106775	0.638583
C99	C	1.037926	0.143225	0.888583
C100	C	1.287926	0.393225	1.138583
C101	C	1.165298	-0.930576	0.388593
C102	C	1.415298	-0.680576	0.638593
C103	C	1.665298	-0.430576	0.888593
C104	C	1.915298	-0.180576	1.138593
C105	C	1.227426	-0.899239	0.326124
C106	C	1.477426	-0.649239	0.576124
C107	C	1.727426	-0.399239	0.826124
C108	C	1.977426	-0.149239	1.076124
C109	C	1.227641	-0.813621	0.326286
C110	C	1.477641	-0.563621	0.576286
C111	C	1.727641	-0.313621	0.826286
C112	C	1.977641	-0.063621	1.076286
C113	C	1.165247	-0.782194	0.388556
C114	C	1.415247	-0.532194	0.638556
C115	C	1.665247	-0.282194	0.888556
C116	C	1.915247	-0.032194	1.138556
C117	C	1.188278	-0.813202	0.473547
C118	C	1.438278	-0.563202	0.723547
C119	C	1.688278	-0.313202	0.973547
C120	C	1.938278	-0.063202	1.223547
C121	C	1.188759	-0.898847	0.473207
C122	C	1.438759	-0.648847	0.723207
C123	C	1.688759	-0.398847	0.973207
C124	C	1.938759	-0.148847	1.223207
C125	C	1.079973	-0.899085	0.366805
C126	C	1.329973	-0.649085	0.616805
C127	C	1.579973	-0.399085	0.866805
C128	C	1.829973	-0.149085	1.116805
C129	C	1.080394	-0.813436	0.364908
C130	C	1.330394	-0.563436	0.614908
C131	C	1.580394	-0.313436	0.864908
C132	C	1.830394	-0.063436	1.114908
C133	C	1.165216	-0.698334	0.388540
C134	C	1.415216	-0.448334	0.638540
C135	C	1.665216	-0.198334	0.888540
C136	C	1.915216	0.051666	1.138540
C137	C	1.165330	-1.014436	0.388614
C138	C	1.415330	-0.764436	0.638614
C139	C	1.665330	-0.514436	0.888614
C140	C	1.915330	-0.264436	1.138614
C141	C	1.375528	-0.356776	0.388587
C142	C	1.625528	-0.106776	0.638587
C143	C	1.875528	0.143224	0.888587
C144	C	2.125528	0.393224	1.138587
C145	C	1.465150	-0.356782	0.388603
C146	C	1.715150	-0.106782	0.638603
C147	C	1.965150	0.143218	0.888603
C148	C	2.215150	0.393218	1.138603
C149	C	1.165259	-0.356712	0.598857
C150	C	1.415259	-0.106712	0.848857
C151	C	1.665259	0.143288	1.098857
C152	C	1.915259	0.393288	1.348857
C153	C	1.165276	-0.356691	0.688478
C154	C	1.415276	-0.106691	0.938478
C155	C	1.665276	0.143309	1.188478
C156	C	1.915276	0.393309	1.438478
C157	C	1.165311	-0.163599	0.388605
C158	C	1.415311	0.086401	0.638605
C159	C	1.665311	0.336401	0.888605
C160	C	1.915311	0.586401	1.138605
C161	C	1.165350	-0.081285	0.388629
C162	C	1.415350	0.168715	0.638629
C163	C	1.665350	0.418715	0.888629
C164	C	1.915350	0.668715	1.138629
C165	C	1.165227	-0.356756	0.179057
C166	C	1.415227	-0.106756	0.429057
C167	C	1.665227	0.143244	0.679057
C168	C	1.915227	0.393244	0.929057
C169	C	1.165366	-0.356568	0.089437
C170	C	1.415366	-0.106568	0.339437
C171	C	1.665366	0.143432	0.589437
C172	C	1.915366	0.393432	0.839437
C173	C	1.165289	-0.356675	0.761261
C174	C	1.415289	-0.106675	1.011261
C175	C	1.665289	0.143325	1.261261
C176	C	1.915289	0.393325	1.511261
C177	C	1.165308	-0.356647	0.852569
C178	C	1.415308	-0.106647	1.102569
C179	C	1.665308	0.143353	1.352569
C180	C	1.915308	0.393353	1.602569
C181	C	1.165327	-0.356621	0.925346
C182	C	1.415327	-0.106621	1.175346
C183	C	1.665327	0.143379	1.425346
C184	C	1.915327	0.393379	1.675346
C185	C	1.165347	-0.356594	1.016660
C186	C	1.415347	-0.106594	1.266660
C187	C	1.665347	0.143406	1.516660
C188	C	1.915347	0.393406	1.766660
H189	H	1.213233	-0.792658	0.263266
H190	H	1.463233	-0.542658	0.513266
H191	H	1.713233	-0.292658	0.763266
H192	H	1.963233	-0.042658	1.013266
H193	H	1.033683	-0.919351	0.412304
H194	H	1.283683	-0.669351	0.662304
H195	H	1.533683	-0.419351	0.912304
H196	H	1.783683	-0.169351	1.162304
N197	N	1.019205	-0.786603	0.417809
N198	N	1.269205	-0.536603	0.667809
N199	N	1.519205	-0.286603	0.917809
N200	N	1.769205	-0.036603	1.167809
N201	N	1.037219	-0.743831	0.474054
N202	N	1.287219	-0.493831	0.724054
N203	N	1.537219	-0.243831	0.974054
N204	N	1.787219	0.006169	1.224054
H205	H	0.994006	-0.724881	0.511422
H206	H	1.244006	-0.474881	0.761422
H207	H	1.494006	-0.224881	1.011422
H208	H	1.744006	0.025119	1.261422
H209	H	1.063028	-0.793176	0.302361
H210	H	1.313028	-0.543176	0.552361
H211	H	1.563028	-0.293176	0.802361
H212	H	1.813028	-0.043176	1.052361
H213	H	1.144410	-0.792843	0.521344
H214	H	1.394410	-0.542843	0.771344
H215	H	1.644410	-0.292843	1.021344
H216	H	1.894410	-0.042843	1.271344
H217	H	1.249948	-0.791695	0.492314
H218	H	1.499948	-0.541695	0.742314
H219	H	1.749948	-0.291695	0.992314
H220	H	1.999948	-0.041695	1.242314
H221	H	1.059020	-0.920745	0.305904
H222	H	1.309020	-0.670745	0.555904
H223	H	1.559020	-0.420745	0.805904
H224	H	1.809020	-0.170745	1.055904
H225	H	1.251127	-0.918766	0.491662
H226	H	1.501127	-0.668766	0.741662
H227	H	1.751127	-0.418766	0.991662
H228	H	2.001127	-0.168766	1.241662
N229	N	1.209585	-0.925129	0.246822
N230	N	1.459585	-0.675129	0.496822
N231	N	1.709585	-0.425129	0.746822
N232	N	1.959585	-0.175129	0.996822
N233	N	1.194108	-0.880013	0.192073
N234	N	1.444108	-0.630013	0.442073
N235	N	1.694108	-0.380013	0.692073
N236	N	1.944108	-0.130013	0.942073
H237	H	1.181505	-0.898300	0.136064
H238	H	1.431505	-0.648300	0.386064
H239	H	1.681505	-0.398300	0.636064
H240	H	1.931505	-0.148300	0.886064
H241	H	1.290845	-0.793077	0.340701
H242	H	1.540845	-0.543077	0.590701
H243	H	1.790845	-0.293077	0.840701
H244	H	2.040845	-0.043077	1.090701
N245	N	1.306278	-0.926175	0.344004
N246	N	1.556278	-0.676175	0.594004
N247	N	1.806278	-0.426175	0.844004
N248	N	2.056278	-0.176175	1.094004
N249	N	1.316917	-0.968350	0.402555
N250	N	1.566917	-0.718350	0.652555
N251	N	1.816917	-0.468350	0.902555
N252	N	2.066917	-0.218350	1.152555
H253	H	1.372606	-0.987376	0.415186
H254	H	1.622606	-0.737376	0.665186
H255	H	1.872606	-0.487376	0.915186
H256	H	2.122606	-0.237376	1.165186
N257	N	1.134450	-0.924843	0.533586
N258	N	1.384450	-0.674843	0.783586
N259	N	1.634450	-0.424843	1.033586
N260	N	1.884450	-0.174843	1.283586
N261	N	1.096319	-0.879731	0.575844
N262	N	1.346319	-0.629731	0.825844
N263	N	1.596319	-0.379731	1.075844
N264	N	1.846319	-0.129731	1.325844
H265	H	1.057965	-0.898087	0.618488
H266	H	1.307965	-0.648087	0.868488
H267	H	1.557965	-0.398087	1.118488
H268	H	1.807965	-0.148087	1.368488
