data_functionalizedCrystal
_audit_creation_method	'MofGen! by Chris Wilmer'
_symmetry_space_group_name_H-M	'P1'
_symmetry_Int_Tables_number	1
_symmetry_cell_setting	triclinic
loop_
_symmetry_equiv_pos_as_xyz
  x,y,z
_cell_length_a	10.489711
_cell_length_b	13.339070
_cell_length_c	12.376457
_cell_angle_alpha	104.410245
_cell_angle_beta	101.395355
_cell_angle_gamma	79.921848
loop_
_atom_site_label
_atom_site_type_symbol
_atom_site_fract_x
_atom_site_fract_y
_atom_site_fract_z
O1	O	0.623453	-1.366174	-0.094011
O2	O	0.539308	-1.071040	-0.094009
O3	O	0.398084	-1.225339	-0.094013
O4	O	0.764677	-1.211875	-0.094007
O5	O	0.433328	-1.186778	0.094000
O6	O	0.574552	-1.032479	0.094004
O7	O	0.658697	-1.327612	0.094002
Zn8	Zn	0.622220	-1.173923	0.123854
Zn9	Zn	0.575785	-1.224729	-0.123861
O10	O	0.799921	-1.173314	0.094006
C11	C	0.542716	-1.013968	-0.000003
C12	C	0.500348	-0.901361	-0.000002
N13	N	0.653913	-1.139257	0.292913
C14	C	0.367827	-1.205048	-0.000010
C15	C	0.225159	-1.202027	-0.000020
C16	C	0.074541	-1.294815	-0.000009
C17	C	0.168194	-1.229453	0.092691
C18	C	0.133414	-1.267446	-0.092675
C19	C	0.064632	-1.131208	0.092778
C20	C	0.029831	-1.169232	-0.092671
C21	C	0.123437	-1.103794	0.000051
C22	C	0.830177	-1.193605	0.000000
C23	C	0.972844	-1.196627	0.000002
C24	C	0.655288	-1.384685	-0.000007
C25	C	0.697655	-1.497293	-0.000015
C26	C	0.829778	-0.538943	-0.000015
C27	C	0.869588	-0.644743	-0.000019
C28	C	0.777281	-0.708902	-0.000014
C29	C	0.645157	-0.667252	-0.000006
C30	C	0.605342	-0.561443	-0.000012
C31	C	0.552845	-0.731403	-0.000011
C32	C	0.420721	-0.689752	-0.000003
C33	C	0.380912	-0.583953	-0.000008
C34	C	0.473219	-0.519794	-0.000012
C35	C	0.592661	-0.837211	-0.000006
C36	C	0.368225	-0.859712	-0.000003
C37	C	0.328415	-0.753912	0.000001
N38	N	0.544084	-1.259404	-0.292921
C39	C	0.470490	-1.339876	0.647893
C40	C	0.448306	-1.364133	0.529552
C41	C	0.499705	-1.307916	0.470387
C42	C	0.573293	-1.227437	0.529573
C43	C	0.595488	-1.203183	0.647925
C44	C	0.624704	-1.171223	0.470419
C45	C	0.698292	-1.090745	0.529606
C46	C	0.720482	-1.066494	0.647946
C47	C	0.669083	-1.122711	0.707112
C48	C	0.602509	-1.195478	0.352067
C49	C	0.727507	-1.058785	0.352100
C50	C	0.749691	-1.034527	0.470440
H51	H	0.052497	-1.375499	0.000082
C52	C	0.801438	-0.977970	0.713048
N53	N	0.862411	-0.911291	0.762081
H54	H	0.034319	-1.073605	0.171237
C55	C	0.152938	-0.994662	0.000127
N56	N	0.175168	-0.912465	0.000192
C57	C	0.784048	-0.996939	0.287022
N58	N	0.826631	-0.950362	0.237999
C59	C	0.249112	-1.263860	0.198571
N60	N	0.310051	-1.289780	0.278318
C61	C	-0.051140	-1.134877	-0.198552
N62	N	-0.112135	-1.109012	-0.278311
C63	C	1.014922	-0.690548	-0.000012
N64	N	1.124396	-0.725047	0.000000
C65	C	0.521555	-1.283996	0.286976
N66	N	0.460572	-1.350670	0.237950
H67	H	0.700238	-0.871112	-0.000008
H68	H	0.428656	-1.385646	0.696073
C69	C	0.367354	-1.452651	0.464456
N70	N	0.306372	-1.519325	0.415425
H71	H	0.220835	-0.719986	-0.000002
C72	C	0.174607	-1.345307	-0.198553
N73	N	0.205629	-1.403958	-0.278296
C74	C	0.821081	-0.825282	-0.000004
N75	N	0.854079	-0.912942	0.000013
C76	C	0.429434	-0.403405	-0.000007
N77	N	0.396458	-0.315740	-0.000004
H78	H	0.904917	-0.486697	-0.000028
C79	C	0.830634	-0.946001	0.535561
N80	N	0.891598	-0.879321	0.584611
C81	C	0.235573	-0.538141	0.000002
N82	N	0.126103	-0.503636	0.000015
C83	C	0.693450	-1.096011	0.837294
N84	N	0.711790	-1.075897	0.935350
H85	H	0.481640	-1.327670	0.374029
H86	H	0.293060	-0.911952	-0.000004
