data_functionalizedCrystal
_audit_creation_method	'MofGen! by Chris Wilmer'
_symmetry_space_group_name_H-M	'P1'
_symmetry_Int_Tables_number	1
_symmetry_cell_setting	triclinic
loop_
_symmetry_equiv_pos_as_xyz
  x,y,z
_cell_length_a	17.638891
_cell_length_b	12.759401
_cell_length_c	12.759393
_cell_angle_alpha	90.018496
_cell_angle_beta	101.177193
_cell_angle_gamma	101.211477
loop_
_atom_site_label
_atom_site_type_symbol
_atom_site_fract_x
_atom_site_fract_y
_atom_site_fract_z
Zn1	Zn	0.314606	1.690953	0.678545
Zn2	Zn	0.446796	1.726435	0.538398
Zn3	Zn	0.314647	1.515266	0.502896
Zn4	Zn	0.446736	1.550815	0.714023
O5	O	0.380696	1.620867	0.608465
O6	O	0.332149	1.842683	0.659965
O7	O	0.429309	1.698395	0.386679
O8	O	0.204040	1.508844	0.496491
O9	O	0.429269	1.868751	0.556999
O10	O	0.204009	1.637920	0.625540
O11	O	0.332220	1.543250	0.360596
O12	O	0.332161	1.372958	0.530892
O13	O	0.429165	1.569432	0.856326
O14	O	0.429206	1.399076	0.686006
O15	O	0.332090	1.672391	0.830261
O16	O	0.557390	1.732866	0.591399
O17	O	0.557345	1.603838	0.720430
C18	C	0.380682	1.347896	0.608447
C19	C	0.380694	1.231123	0.608469
C20	C	0.174545	1.565459	0.553098
C21	C	0.086696	1.541847	0.529504
C22	C	0.431307	1.189909	0.689148
C23	C	0.431317	1.080188	0.689162
C24	C	0.330100	1.052902	0.527810
C25	C	0.330087	1.162621	0.527801
C26	C	0.481914	1.258411	0.769817
C27	C	0.532531	1.217199	0.850501
C28	C	0.532541	1.107478	0.850515
C29	C	0.481934	1.038969	0.769845
C30	C	-0.202309	1.800267	0.787759
C31	C	-0.284857	1.778081	0.765552
C32	C	-0.284815	1.643686	0.631185
C33	C	-0.202265	1.665856	0.653385
C34	C	-0.161019	1.744149	0.731672
C35	C	-0.160975	1.609738	0.597297
C36	C	-0.078433	1.631912	0.619491
C37	C	-0.037181	1.710203	0.697772
C38	C	-0.078477	1.766322	0.753866
C39	C	-0.202223	1.531451	0.519005
C40	C	-0.160933	1.475333	0.462917
C41	C	-0.078389	1.497501	0.485116
C42	C	-0.037137	1.575792	0.563398
C43	C	-0.037093	1.441381	0.429023
C44	C	0.045449	1.463555	0.451217
C45	C	0.045405	1.597965	0.585592
C46	C	0.586046	1.676088	0.663640
C47	C	0.673895	1.699808	0.687279
C48	C	0.380616	1.620919	0.882477
C49	C	0.380582	1.620941	0.999245
C50	C	0.380711	1.894904	0.608484
C51	C	0.380718	2.011683	0.608492
C52	C	0.380719	1.620860	0.335504
C53	C	0.380530	1.620982	0.218677
C54	C	0.330031	1.674560	1.040535
C55	C	0.330002	1.674577	1.150252
C56	C	0.431084	1.567356	1.177380
C57	C	0.431108	1.567333	1.067664
C58	C	0.279505	1.728168	0.972116
C59	C	0.228950	1.781792	1.013406
C60	C	0.228921	1.781809	1.123122
C61	C	0.279448	1.728202	1.191549
H62	H	0.573728	1.272985	0.916185
H63	H	-0.044891	1.830055	0.817636
H64	H	0.078991	1.661698	0.649361
H65	H	0.187751	1.825463	1.156735
H66	H	0.030031	1.728257	0.715838
H67	H	0.481940	0.949625	0.769870
H68	H	0.472220	1.523712	1.233101
H69	H	0.279411	1.728206	1.280884
H70	H	0.472260	1.523653	1.034042
O71	O	-0.162358	1.876365	0.863832
C72	C	-0.216499	1.921112	0.908618
H73	H	-0.275315	1.908970	0.849768
H74	H	-0.192632	2.010293	0.926283
H75	H	-0.225329	1.880258	0.986019
O76	O	-0.324922	1.567512	0.555285
C77	C	-0.372721	1.486857	0.602252
H78	H	-0.347884	1.487069	0.691677
H79	H	-0.373654	1.405738	0.564007
H80	H	-0.435274	1.502542	0.589052
H81	H	0.279524	1.728163	0.882779
O82	O	0.581779	1.067624	0.928943
C83	C	0.626425	1.151613	1.000152
H84	H	0.629113	1.230532	0.957827
H85	H	0.688711	1.136674	1.027958
H86	H	0.597554	1.155548	1.072252
H87	H	-0.318471	1.823787	0.811231
O88	O	0.281027	0.986216	0.449497
C89	C	0.291881	0.880535	0.466817
H90	H	0.352907	0.881988	0.517498
H91	H	0.286464	0.837350	0.386678
H92	H	0.245051	0.836812	0.510280
H93	H	0.288868	1.196175	0.462111
H94	H	0.481913	1.347754	0.769813
O95	O	-0.282405	1.510005	0.497275
C96	C	-0.309931	1.529545	0.389178
H97	H	-0.262337	1.588124	0.358547
H98	H	-0.365149	1.565092	0.381859
H99	H	-0.324567	1.451224	0.339718
O100	O	-0.201040	1.399159	0.387017
C101	C	-0.248839	1.318504	0.433984
H102	H	-0.224002	1.318716	0.523409
H103	H	-0.249772	1.237386	0.395739
H104	H	-0.311392	1.334189	0.420784
O105	O	-0.077202	1.365214	0.353116
C106	C	-0.125006	1.284556	0.400073
H107	H	-0.100172	1.284757	0.489498
H108	H	-0.125943	1.203441	0.361819
H109	H	-0.187558	1.300248	0.386874
H110	H	0.079068	1.417857	0.405545
O111	O	0.179940	1.833841	0.946798
C112	C	0.190788	1.822306	0.841102
H113	H	0.251786	1.804291	0.842489
H114	H	0.185439	1.899554	0.797971
H115	H	0.143913	1.753748	0.797376
