data_functionalizedCrystal
_audit_creation_method	'MofGen! by Chris Wilmer'
_symmetry_space_group_name_H-M	'P1'
_symmetry_Int_Tables_number	1
_symmetry_cell_setting	triclinic
loop_
_symmetry_equiv_pos_as_xyz
  x,y,z
_cell_length_a	8.634740
_cell_length_b	8.634740
_cell_length_c	8.140239
_cell_angle_alpha	89.998579
_cell_angle_beta	89.997817
_cell_angle_gamma	100.570307
loop_
_atom_site_label
_atom_site_type_symbol
_atom_site_fract_x
_atom_site_fract_y
_atom_site_fract_z
O1	O	2.122441	0.514104	-0.136596
O2	O	1.667084	0.470994	-0.136601
O3	O	1.873207	0.264871	-0.136595
O4	O	1.916317	0.720228	-0.136602
O5	O	1.873193	0.264866	0.136632
O6	O	1.667070	0.470990	0.136626
O7	O	2.122427	0.514100	0.136631
Zn8	Zn	1.894746	0.492544	0.180009
Zn9	Zn	1.894764	0.492550	-0.179979
O10	O	1.916303	0.720223	0.136625
C11	C	1.608176	0.461226	0.000012
C12	C	1.432666	0.432108	0.000010
C13	C	1.863434	0.205967	0.000016
C14	C	1.834316	0.030458	0.000009
C15	C	2.181335	0.523868	0.000015
C16	C	2.356844	0.552987	0.000006
C17	C	1.926076	0.779127	0.000011
C18	C	1.955195	0.954636	0.000007
N19	N	1.894745	0.492540	0.425692
N20	N	1.894776	0.492543	-0.425662
H21	H	1.426209	0.678761	0.000015
H22	H	1.363310	0.306341	-0.000031
C23	C	2.125104	0.048331	0.000016
N24	N	2.253083	0.118913	0.000027
C25	C	1.664397	-0.063244	0.000009
N26	N	1.536417	-0.133822	0.000014
