data_functionalizedCrystal
_audit_creation_method	'MofGen! by Chris Wilmer'
_symmetry_space_group_name_H-M	'P1'
_symmetry_Int_Tables_number	1
_symmetry_cell_setting	triclinic
loop_
_symmetry_equiv_pos_as_xyz
  x,y,z
_cell_length_a	11.169417
_cell_length_b	11.169409
_cell_length_c	11.169416
_cell_angle_alpha	89.969184
_cell_angle_beta	89.988781
_cell_angle_gamma	90.020564
loop_
_atom_site_label
_atom_site_type_symbol
_atom_site_fract_x
_atom_site_fract_y
_atom_site_fract_z
Zn1	Zn	-1.834971	-0.678555	-0.477682
Zn2	Zn	-1.334971	-0.178555	0.022318
Zn3	Zn	-1.834858	-0.477877	-0.678423
Zn4	Zn	-1.334858	0.022123	-0.178423
Zn5	Zn	-1.634254	-0.477889	-0.477755
Zn6	Zn	-1.134254	0.022111	0.022245
Zn7	Zn	-1.634264	-0.678522	-0.678325
Zn8	Zn	-1.134264	-0.178522	-0.178325
O9	O	-1.734587	-0.578211	-0.578047
O10	O	-1.234587	-0.078211	-0.078047
O11	O	-2.002906	-0.651943	-0.504321
O12	O	-1.502906	-0.151943	-0.004321
O13	O	-1.808196	-0.309929	-0.651875
O14	O	-1.308196	0.190071	-0.151875
O15	O	-1.660923	-0.504527	-0.309796
O16	O	-1.160923	-0.004527	0.190204
O17	O	-2.002823	-0.504506	-0.651804
O18	O	-1.502823	-0.004506	-0.151804
O19	O	-1.808389	-0.651955	-0.309742
O20	O	-1.308389	-0.151955	0.190258
O21	O	-1.660813	-0.309938	-0.504446
O22	O	-1.160813	0.190062	-0.004446
O23	O	-1.466306	-0.504495	-0.504351
O24	O	-0.966306	-0.004495	-0.004351
O25	O	-1.660940	-0.846476	-0.651638
O26	O	-1.160940	-0.346476	-0.151638
O27	O	-1.466313	-0.651899	-0.651709
O28	O	-0.966313	-0.151899	-0.151709
O29	O	-1.808399	-0.846500	-0.504227
O30	O	-1.308399	-0.346500	-0.004227
O31	O	-1.808206	-0.504474	-0.846360
O32	O	-1.308206	-0.004474	-0.346360
O33	O	-1.660830	-0.651887	-0.846288
O34	O	-1.160830	-0.151887	-0.346288
C35	C	-1.422762	-0.578195	-0.578028
C36	C	-0.922762	-0.078195	-0.078028
C37	C	-1.289362	-0.578217	-0.578049
C38	C	-0.789362	-0.078217	-0.078049
C39	C	-1.734539	-0.578202	-0.889871
C40	C	-1.234539	-0.078202	-0.389871
C41	C	-1.734629	-0.578238	-1.023271
C42	C	-1.234629	-0.078238	-0.523271
C43	C	-1.734683	-0.891253	-0.577914
C44	C	-1.234683	-0.391253	-0.077914
C45	C	-1.734724	-1.024653	-0.577857
C46	C	-1.234724	-0.524653	-0.077857
C47	C	-2.047629	-0.578227	-0.578066
C48	C	-1.547629	-0.078227	-0.078066
C49	C	-2.181029	-0.578234	-0.578074
C50	C	-1.681029	-0.078234	-0.078074
C51	C	-1.734560	-0.266386	-0.578092
C52	C	-1.234560	0.233614	-0.078092
C53	C	-1.734752	-0.132987	-0.577811
C54	C	-1.234752	0.367013	-0.077811
C55	C	-1.734667	-0.578246	-0.265004
C56	C	-1.234667	-0.078246	0.234996
C57	C	-1.734702	-0.578261	-0.131604
C58	C	-1.234702	-0.078261	0.368396
