data_functionalizedCrystal
_audit_creation_method	'MofGen! by Chris Wilmer'
_symmetry_space_group_name_H-M	'P1'
_symmetry_Int_Tables_number	1
_symmetry_cell_setting	triclinic
loop_
_symmetry_equiv_pos_as_xyz
  x,y,z
_cell_length_a	18.101398
_cell_length_b	21.295417
_cell_length_c	18.101390
_cell_angle_alpha	90.036014
_cell_angle_beta	90.010099
_cell_angle_gamma	90.025259
loop_
_atom_site_label
_atom_site_type_symbol
_atom_site_fract_x
_atom_site_fract_y
_atom_site_fract_z
Zn1	Zn	1.132131	-0.250660	0.418535
Zn2	Zn	1.632131	0.249340	0.918535
Zn3	Zn	1.132029	-0.355940	0.294686
Zn4	Zn	1.632029	0.144060	0.794686
Zn5	Zn	1.008289	-0.250680	0.294727
Zn6	Zn	1.508289	0.249320	0.794727
Zn7	Zn	1.008243	-0.355887	0.418507
Zn8	Zn	1.508243	0.144113	0.918507
O9	O	1.070173	-0.303292	0.356614
O10	O	1.570173	0.196708	0.856614
O11	O	1.235750	-0.264639	0.402101
O12	O	1.735750	0.235361	0.902101
O13	O	1.115591	-0.342008	0.191059
O14	O	1.615591	0.157992	0.691059
O15	O	1.024778	-0.162588	0.311179
O16	O	1.524778	0.337412	0.811179
O17	O	1.235675	-0.341988	0.311110
O18	O	1.735675	0.158012	0.811110
O19	O	1.115765	-0.162573	0.402140
O20	O	1.615765	0.337427	0.902140
O21	O	1.024680	-0.264674	0.191089
O22	O	1.524680	0.235326	0.691089
O23	O	0.904650	-0.264623	0.311152
O24	O	1.404650	0.235377	0.811152
O25	O	1.024701	-0.341898	0.522143
O26	O	1.524701	0.158102	1.022143
O27	O	0.904617	-0.341918	0.402092
O28	O	1.404617	0.158082	0.902092
O29	O	1.115720	-0.264588	0.522164
O30	O	1.615720	0.235412	1.022164
O31	O	1.115547	-0.444022	0.311083
O32	O	1.615547	0.055978	0.811083
O33	O	1.024602	-0.443983	0.402053
O34	O	1.524602	0.056017	0.902053
C35	C	0.877762	-0.303267	0.356624
C36	C	1.377762	0.196733	0.856624
C37	C	0.795448	-0.303272	0.356646
C38	C	1.295448	0.196728	0.856646
C39	C	0.496357	-0.303309	0.356615
C40	C	0.996357	0.196691	0.856615
C41	C	0.527686	-0.352176	0.413550
C42	C	1.027686	0.147824	0.913550
C43	C	0.613305	-0.352023	0.413784
C44	C	1.113305	0.147977	0.913784
C45	C	0.644740	-0.303291	0.356630
C46	C	1.144740	0.196709	0.856630
C47	C	0.613684	-0.236986	0.377962
C48	C	1.113684	0.263014	0.877962
C49	C	0.528039	-0.237280	0.378367
C50	C	1.028039	0.262720	0.878367
C51	C	0.527905	-0.320162	0.278211
C52	C	1.027905	0.179838	0.778211
C53	C	0.613555	-0.321616	0.278630
C54	C	1.113555	0.178384	0.778630
C55	C	0.728599	-0.303277	0.356638
C56	C	1.228599	0.196723	0.856638
C57	C	0.412498	-0.303318	0.356610
C58	C	0.912498	0.196682	0.856610
C59	C	1.070079	-0.466843	0.356576
C60	C	1.570079	0.033157	0.856576
C61	C	1.070106	-0.536812	0.356585
C62	C	1.570106	-0.036812	0.856585
C63	C	1.117455	-0.569613	0.403982
C64	C	1.617455	-0.069613	0.903982
C65	C	1.117481	-0.635356	0.404000
C66	C	1.617481	-0.135356	0.904000
C67	C	1.070166	-0.668294	0.356608
C68	C	1.570166	-0.168294	0.856608
C69	C	1.022807	-0.635485	0.309208
C70	C	1.522807	-0.135485	0.809208
C71	C	1.022777	-0.569743	0.309196
C72	C	1.522777	-0.069743	0.809196
N73	N	1.064573	-0.771561	0.291797
N74	N	1.564573	-0.271561	0.791797
N75	N	1.064605	-0.834012	0.291810
N76	N	1.564605	-0.334012	0.791810
C77	C	1.070253	-0.866369	0.356642
C78	C	1.570253	-0.366369	0.856642
N79	N	1.075880	-0.833915	0.421461
N80	N	1.575880	-0.333915	0.921461
N81	N	1.075851	-0.771457	0.421447
N82	N	1.575851	-0.271457	0.921447
C83	C	1.070193	-0.739579	0.356616
C84	C	1.570193	-0.239579	0.856616
C85	C	1.117633	-0.970456	0.404063
C86	C	1.617633	-0.470456	0.904063
C87	C	1.117654	-1.036200	0.404082
C88	C	1.617654	-0.536200	0.904082
C89	C	1.022984	-1.036327	0.309283
C90	C	1.522984	-0.536327	0.809283
C91	C	1.022959	-0.970585	0.309270
C92	C	1.522959	-0.470585	0.809270
C93	C	1.070287	-0.937653	0.356659
C94	C	1.570287	-0.437653	0.856659
C95	C	1.263335	-0.303317	0.356604
C96	C	1.763335	0.196683	0.856604
C97	C	1.345649	-0.303328	0.356600
C98	C	1.845649	0.196672	0.856600
C99	C	1.070217	-0.303234	0.549776
C100	C	1.570217	0.196766	1.049776
C101	C	1.070236	-0.303210	0.632090
C102	C	1.570236	0.196790	1.132090
C103	C	1.070288	-0.139102	0.356668
C104	C	1.570288	0.360898	0.856668
C105	C	1.070337	-0.069133	0.356690
C106	C	1.570337	0.430867	0.856690
C107	C	1.070172	-0.303304	0.164203
C108	C	1.570172	0.196696	0.664203
C109	C	1.070297	-0.303151	0.081890
C110	C	1.570297	0.196849	0.581890
C111	C	1.070276	-0.303171	0.931181
C112	C	1.570276	0.196829	1.431181
C113	C	1.127731	-0.254701	0.899869
C114	C	1.627731	0.245299	1.399869
C115	C	1.127552	-0.254521	0.814250
C116	C	1.627552	0.245479	1.314250
C117	C	1.070257	-0.303190	0.782798
C118	C	1.570257	0.196810	1.282798
C119	C	0.992239	-0.285162	0.813886
C120	C	1.492239	0.214838	1.313886
C121	C	0.992583	-0.284799	0.899531
C122	C	1.492583	0.215201	1.399531
C123	C	1.090150	-0.369794	0.899586
C124	C	1.590150	0.130206	1.399586
C125	C	1.091863	-0.369454	0.813935
C126	C	1.591863	0.130546	1.313935
C127	C	1.070241	-0.303202	0.698939
C128	C	1.570241	0.196798	1.198939
C129	C	1.070286	-0.303157	1.015041
C130	C	1.570286	0.196843	1.515041
H131	H	0.508077	-0.222986	0.435684
H132	H	1.008077	0.277014	0.935684
H133	H	1.156033	-0.662068	0.442605
H134	H	1.656033	-0.162068	0.942605
H135	H	0.506176	-0.341166	0.471306
H136	H	1.006176	0.158834	0.971306
H137	H	0.984281	-0.662307	0.270623
H138	H	1.484281	-0.162307	0.770623
H139	H	0.634954	-0.288609	0.233931
H140	H	1.134954	0.211391	0.733931
Cl141	Cl	0.496623	-0.265210	0.212715
Cl142	Cl	0.996623	0.234790	0.712715
Cl143	Cl	0.963247	-0.528505	0.249607
Cl144	Cl	1.463247	-0.028505	0.749607
H145	H	0.975084	-0.237002	0.792454
H146	H	1.475084	0.262998	1.292454
Cl147	Cl	1.177127	-0.929053	0.463639
Cl148	Cl	1.677127	-0.429053	0.963639
Cl149	Cl	1.177175	-1.077437	0.463682
Cl150	Cl	1.677175	-0.577437	0.963682
Cl151	Cl	0.963498	-1.077729	0.249706
Cl152	Cl	1.463498	-0.577729	0.749706
H153	H	0.634301	-0.401191	0.400413
H154	H	1.134301	0.098809	0.900413
Cl155	Cl	0.963431	-0.929346	0.249681
Cl156	Cl	1.463431	-0.429346	0.749681
H157	H	1.185404	-0.265811	0.793232
H158	H	1.685404	0.234189	1.293232
H159	H	0.948269	-0.319378	0.793512
H160	H	1.448269	0.180622	1.293512
H161	H	1.155991	-0.542802	0.442571
H162	H	1.655991	-0.042802	0.942571
Cl163	Cl	0.496040	-0.179161	0.317139
Cl164	Cl	0.996040	0.320839	0.817139
H165	H	0.633860	-0.370407	0.262542
H166	H	1.133860	0.129593	0.762542
Cl167	Cl	1.217345	-0.271911	0.931664
Cl168	Cl	1.717345	0.228089	1.431664
Cl169	Cl	1.107681	-0.178923	0.933128
Cl170	Cl	1.607681	0.321077	1.433128
Cl171	Cl	1.107239	-0.178320	0.782645
Cl172	Cl	1.607239	0.321680	1.282645
H173	H	0.975735	-0.236098	0.919528
H174	H	1.475735	0.263902	1.419528
Cl175	Cl	0.495855	-0.428338	0.393146
Cl176	Cl	0.995855	0.071662	0.893146
H177	H	0.633807	-0.340871	0.471876
H178	H	1.133807	0.159129	0.971876
Cl179	Cl	0.924233	-0.336921	0.931514
Cl180	Cl	1.424233	0.163079	1.431514
Cl181	Cl	1.176479	-0.395109	0.932926
Cl182	Cl	1.676479	0.104891	1.432926
Cl183	Cl	0.645124	-0.179245	0.315941
Cl184	Cl	1.145124	0.320755	0.815941
H185	H	1.149276	-0.383048	0.793615
H186	H	1.649276	0.116952	1.293615
H187	H	1.053058	-0.407509	0.792522
H188	H	1.553058	0.092491	1.292522
H189	H	0.635148	-0.222435	0.434656
H190	H	1.135148	0.277565	0.934656
Cl191	Cl	0.494526	-0.393527	0.248275
Cl192	Cl	0.994526	0.106473	0.748275
H193	H	1.048306	-0.405909	0.919840
H194	H	1.548306	0.094091	1.419840
