data_functionalizedCrystal
_audit_creation_method	'MofGen! by Chris Wilmer'
_symmetry_space_group_name_H-M	'P1'
_symmetry_Int_Tables_number	1
_symmetry_cell_setting	triclinic
loop_
_symmetry_equiv_pos_as_xyz
  x,y,z
_cell_length_a	17.019282
_cell_length_b	19.188924
_cell_length_c	16.098538
_cell_angle_alpha	92.711427
_cell_angle_beta	91.140572
_cell_angle_gamma	83.265903
loop_
_atom_site_label
_atom_site_type_symbol
_atom_site_fract_x
_atom_site_fract_y
_atom_site_fract_z
O1	O	1.046075	0.089163	0.005789
O2	O	1.546075	0.589163	0.505789
O3	O	0.817211	0.099776	-0.010632
O4	O	1.317211	0.599776	0.489368
O5	O	0.938250	-0.007153	-0.001938
O6	O	1.438250	0.492847	0.498062
O7	O	0.925036	0.196093	-0.002905
O8	O	1.425036	0.696093	0.497095
O9	O	0.931179	-0.000932	0.136067
O10	O	1.431179	0.499068	0.636067
O11	O	0.810140	0.105998	0.127373
O12	O	1.310140	0.605998	0.627373
O13	O	1.039005	0.095385	0.143794
O14	O	1.539005	0.595385	0.643794
Zn15	Zn	0.923450	0.101679	0.157495
Zn16	Zn	1.423450	0.601679	0.657495
Zn17	Zn	0.932766	0.093482	-0.024333
Zn18	Zn	1.432766	0.593482	0.475667
O19	O	0.917966	0.202315	0.135100
O20	O	1.417966	0.702315	0.635100
C21	C	0.784395	0.102364	0.056269
C22	C	1.284395	0.602364	0.556269
C23	C	0.697150	0.100795	0.050010
C24	C	1.197150	0.600795	0.550010
C25	C	0.652312	0.103448	0.122297
C26	C	1.152312	0.603448	0.622297
C27	C	0.570337	0.101964	0.116418
C28	C	1.070337	0.601964	0.616418
C29	C	0.533200	0.097831	0.038250
C30	C	1.033200	0.597831	0.538250
C31	C	0.578044	0.095176	-0.034043
C32	C	1.078044	0.595176	0.465957
C33	C	0.660019	0.096655	-0.028163
C34	C	1.160019	0.596655	0.471837
C35	C	0.285885	0.093190	0.016732
C36	C	0.785885	0.593190	0.516732
C37	C	0.203904	0.091712	0.010858
C38	C	0.703904	0.591712	0.510858
C39	C	0.196202	0.098499	0.161319
C40	C	0.696202	0.598499	0.661319
C41	C	0.278178	0.099983	0.167192
C42	C	0.778178	0.599983	0.667192
C43	C	0.323015	0.097324	0.094899
C44	C	0.823015	0.597324	0.594899
C45	C	0.449409	0.096316	0.032239
C46	C	0.949409	0.596316	0.532239
C47	C	0.406806	0.098834	0.100912
C48	C	0.906806	0.598834	0.600912
C49	C	0.934288	-0.030056	0.067035
C50	C	1.434288	0.469944	0.567035
C51	C	0.933006	-0.107567	0.066945
C52	C	1.433006	0.392433	0.566945
C53	C	0.936261	-0.147360	-0.008324
C54	C	1.436261	0.352640	0.491676
C55	C	0.935046	-0.220189	-0.008418
C56	C	1.435046	0.279811	0.491582
C57	C	0.930591	-0.253223	0.066764
C58	C	1.430591	0.246777	0.566764
C59	C	0.927330	-0.213420	0.142043
C60	C	1.427330	0.286580	0.642043
C61	C	0.928537	-0.140592	0.142134
C62	C	1.428537	0.359408	0.642134
N63	N	0.970552	-0.370153	0.125825
N64	N	1.470552	0.129847	0.625825
N65	N	0.969407	-0.439337	0.125733
N66	N	1.469407	0.060663	0.625733
C67	C	0.926950	-0.472651	0.066494
C68	C	1.426950	0.027349	0.566494
N69	N	0.885693	-0.434168	0.007338
N70	N	1.385693	0.065832	0.507338
N71	N	0.886842	-0.364978	0.007427
N72	N	1.386842	0.135022	0.507427
C73	C	0.929280	-0.332193	0.066673
C74	C	1.429280	0.167807	0.566673
C75	C	0.928888	-0.591414	-0.008882
C76	C	1.428888	-0.091414	0.491118
C77	C	0.927667	-0.664243	-0.008973
C78	C	1.427667	-0.164243	0.491027
C79	C	0.919959	-0.657474	0.141491
C80	C	1.419959	-0.157474	0.641491
C81	C	0.921171	-0.584645	0.141579
C82	C	1.421171	-0.084645	0.641579
C83	C	0.925640	-0.551620	0.066390
C84	C	1.425640	-0.051620	0.566390
C85	C	1.071820	0.092798	0.076891
C86	C	1.571820	0.592798	0.576891
C87	C	1.159066	0.094366	0.083145
C88	C	1.659066	0.594366	0.583145
C89	C	0.921928	0.225217	0.066125
C90	C	1.421928	0.725217	0.566125
C91	C	0.923210	0.302728	0.066210
C92	C	1.423210	0.802728	0.566210
N93	N	0.917098	0.107273	0.281588
N94	N	1.417098	0.607273	0.781588
N95	N	0.939124	0.087882	-0.148425
N96	N	1.439124	0.587882	0.351575
C97	C	0.968491	0.061904	0.328865
C98	C	1.468491	0.561904	0.828865
C99	C	0.964054	0.065824	0.415735
C100	C	1.464054	0.565824	0.915735
C101	C	0.908229	0.115117	0.455327
C102	C	1.408229	0.615117	0.955327
C103	C	0.856831	0.160488	0.408044
C104	C	1.356831	0.660488	0.908044
C105	C	0.861264	0.156564	0.321175
C106	C	1.361264	0.656564	0.821175
C107	C	0.892159	0.129329	0.717423
C108	C	1.392159	0.629329	1.217423
C109	C	0.887731	0.133251	0.804298
C110	C	1.387731	0.633251	1.304298
C111	C	0.994954	0.038586	0.811983
C112	C	1.494954	0.538586	1.311983
C113	C	0.999386	0.034669	0.725112
C114	C	1.499386	0.534669	1.225112
C115	C	0.947985	0.080038	0.677836
C116	C	1.447985	0.580038	1.177836
C117	C	0.903695	0.119127	0.544122
C118	C	1.403695	0.619127	1.044122
C119	C	0.952516	0.076025	0.589042
C120	C	1.452516	0.576025	1.089042
H121	H	0.533835	0.104113	0.175282
H122	H	1.033835	0.604113	0.675282
H123	H	0.916325	-0.684369	0.202705
H124	H	1.416325	-0.184369	0.702705
O125	O	0.147839	0.101363	0.239286
O126	O	0.647839	0.601363	0.739286
H127	H	0.187434	0.104490	0.294627
H128	H	0.687434	0.604490	0.794627
O129	O	1.028692	0.008733	0.286155
O130	O	1.528692	0.508733	0.786155
H131	H	1.089082	0.018534	0.307201
H132	H	1.589082	0.518534	0.807201
O133	O	1.059604	-0.018487	0.682404
O134	O	1.559604	0.481513	1.182404
H135	H	1.028666	-0.054294	0.640466
H136	H	1.528666	0.445706	1.140466
O137	O	0.931152	-0.707156	-0.090169
O138	O	1.431152	-0.207156	0.409831
H139	H	0.986788	-0.700919	-0.122389
H140	H	1.486788	-0.200919	0.377611
O141	O	0.938562	-0.263119	-0.089607
O142	O	1.438562	0.236881	0.410393
H143	H	0.884638	-0.290351	-0.097097
H144	H	1.384638	0.209649	0.402903
H145	H	0.682541	0.106819	0.185950
H146	H	1.182541	0.606819	0.685950
H147	H	0.419163	0.092951	-0.031406
H148	H	0.919163	0.592951	0.468594
H149	H	0.322382	0.091022	-0.042134
H150	H	0.822382	0.591022	0.457866
H151	H	0.939897	-0.120475	-0.069549
H152	H	1.439897	0.379525	0.430451
H153	H	0.819414	0.193508	0.282682
H154	H	1.319414	0.693508	0.782682
H155	H	0.811372	0.200621	0.440284
H156	H	1.311372	0.700621	0.940284
O157	O	0.537996	0.090721	-0.118356
O158	O	1.037996	0.590721	0.381644
H159	H	0.473459	0.090146	-0.110302
H160	H	0.973459	0.590146	0.389698
H161	H	1.036802	0.001648	0.850483
H162	H	1.536802	0.501648	1.350483
H163	H	0.918527	-0.552245	0.202872
H164	H	1.418527	-0.052245	0.702872
H165	H	0.842269	0.173394	0.836529
H166	H	1.342269	0.673394	1.336529
O167	O	0.318212	0.104451	0.251512
O168	O	0.818212	0.604451	0.751512
H169	H	0.362557	0.057754	0.258328
H170	H	0.862557	0.557754	0.758328
H171	H	0.923700	-0.240321	0.203256
H172	H	1.423700	0.259679	0.703256
H173	H	1.005902	0.028881	0.454227
H174	H	1.505902	0.528881	0.954227
O175	O	0.836730	0.178266	0.666437
O176	O	1.336730	0.678266	1.166437
H177	H	0.797175	0.213207	0.708565
H178	H	1.297175	0.713207	1.208565
H179	H	0.997966	0.035888	0.556804
H180	H	1.497966	0.535888	1.056804
H181	H	0.858242	0.159263	0.576365
H182	H	1.358242	0.659263	1.076365
H183	H	0.173670	0.088349	-0.052799
H184	H	0.673670	0.588349	0.447201
O185	O	0.925039	-0.097666	0.223321
O186	O	1.425039	0.402334	0.723321
H187	H	0.921743	-0.132870	0.275587
H188	H	1.421743	0.367130	0.775587
H189	H	0.437047	0.102195	0.164556
H190	H	0.937047	0.602195	0.664556
O191	O	0.708385	0.093798	-0.106129
O192	O	1.208385	0.593798	0.393871
H193	H	0.668790	0.090683	-0.161472
H194	H	1.168790	0.590683	0.338528
H195	H	0.932521	-0.564522	-0.070105
H196	H	1.432521	-0.064522	0.429895
