data_functionalizedCrystal
_audit_creation_method	'MofGen! by Chris Wilmer'
_symmetry_space_group_name_H-M	'P1'
_symmetry_Int_Tables_number	1
_symmetry_cell_setting	triclinic
loop_
_symmetry_equiv_pos_as_xyz
  x,y,z
_cell_length_a	12.645331
_cell_length_b	12.645330
_cell_length_c	16.625539
_cell_angle_alpha	89.975749
_cell_angle_beta	89.986159
_cell_angle_gamma	90.016927
loop_
_atom_site_label
_atom_site_type_symbol
_atom_site_fract_x
_atom_site_fract_y
_atom_site_fract_z
Zn1	Zn	1.620711	-0.422059	-0.455787
Zn2	Zn	1.620599	-0.599345	-0.320964
Zn3	Zn	1.443432	-0.422094	-0.320984
Zn4	Zn	1.443408	-0.599279	-0.455770
O5	O	1.532037	-0.510694	-0.388376
O6	O	1.769044	-0.445590	-0.437902
O7	O	1.597060	-0.575875	-0.208134
O8	O	1.467005	-0.273742	-0.338881
O9	O	1.768961	-0.575841	-0.338848
O10	O	1.597252	-0.273717	-0.437921
O11	O	1.466896	-0.445649	-0.208149
O12	O	1.295081	-0.445584	-0.338864
O13	O	1.466964	-0.575728	-0.568605
O14	O	1.295064	-0.575761	-0.437891
O15	O	1.597229	-0.445525	-0.568617
O16	O	1.597037	-0.747684	-0.338831
O17	O	1.466855	-0.747635	-0.437872
C18	C	1.256608	-0.510670	-0.388378
C19	C	1.138778	-0.510686	-0.388398
C20	C	1.531960	-0.786124	-0.388365
C21	C	1.532024	-0.903954	-0.388387
C22	C	0.971238	-0.593029	-0.450371
C23	C	1.093798	-0.592763	-0.450630
C24	C	1.094299	-0.399031	-0.411613
C25	C	0.971700	-0.399533	-0.412049
C26	C	0.971536	-0.539098	-0.303014
C27	C	1.094142	-0.541539	-0.303475
C28	C	1.450464	-1.071531	-0.450886
C29	C	1.450047	-0.948972	-0.450685
C30	C	1.501782	-0.948546	-0.303415
C31	C	1.501284	-1.071145	-0.303794
C32	C	1.644324	-1.071045	-0.410172
C33	C	1.643636	-0.948438	-0.412030
C34	C	1.808543	-0.510719	-0.388375
C35	C	1.926373	-0.510730	-0.388374
C36	C	1.532106	-0.510615	-0.598685
C37	C	1.532136	-0.510582	-0.688306
C38	C	1.532144	-0.234189	-0.388405
C39	C	1.532189	-0.116359	-0.388418
C40	C	1.532185	-0.510463	-1.016482
C41	C	1.532168	-0.510499	-0.925174
C42	C	1.532161	-0.510523	-0.852397
C43	C	1.532143	-0.510558	-0.761083
C44	C	1.532030	-0.510696	-0.178885
C45	C	1.532206	-0.510431	-0.089265
H46	H	1.123871	-0.675561	-0.436081
H47	H	1.671911	-1.101890	-0.471080
H48	H	1.420666	-0.917934	-0.284652
H49	H	0.941747	-0.676101	-0.435983
H50	H	0.942021	-0.336017	-0.368964
N51	N	1.132750	-0.650340	-0.280280
H52	H	1.107741	-0.703621	-0.321330
H53	H	1.212578	-0.650407	-0.278363
H54	H	1.666442	-0.919289	-0.474565
H55	H	1.123433	-0.336046	-0.367868
H56	H	0.940444	-0.574498	-0.513252
N57	N	1.132683	-0.567896	-0.534407
H58	H	1.070183	-0.557057	-0.571311
H59	H	1.176897	-0.501394	-0.533069
H60	H	1.705211	-1.100033	-0.364673
N61	N	1.134695	-0.467890	-0.239008
H62	H	1.112098	-0.393109	-0.251653
H63	H	1.104707	-0.489726	-0.185196
N64	N	0.933835	-0.367560	-0.494681
H65	H	0.996782	-0.353284	-0.530483
H66	H	0.889962	-0.426511	-0.518469
H67	H	1.558226	-1.100802	-0.255663
N68	N	1.134976	-0.366566	-0.493377
H69	H	1.214771	-0.363416	-0.492241
H70	H	1.111423	-0.419939	-0.534850
H71	H	1.367852	-1.102431	-0.436659
H72	H	1.707731	-0.917788	-0.369844
H73	H	0.940615	-0.619127	-0.281914
H74	H	0.942521	-0.479151	-0.256821
N75	N	1.475101	-0.909020	-0.534143
H76	H	1.486516	-0.971049	-0.571395
H77	H	1.414206	-0.864810	-0.554478
H78	H	1.469211	-1.100944	-0.514100
H79	H	1.419313	-1.099835	-0.285364
N80	N	1.339936	-0.910232	-0.431590
H81	H	1.291481	-0.972797	-0.423266
H82	H	1.341827	-0.866065	-0.381011
H83	H	1.559420	-0.919388	-0.255599
