data_functionalizedCrystal
_audit_creation_method	'MofGen! by Chris Wilmer'
_symmetry_space_group_name_H-M	'P1'
_symmetry_Int_Tables_number	1
_symmetry_cell_setting	triclinic
loop_
_symmetry_equiv_pos_as_xyz
  x,y,z
_cell_length_a	11.026607
_cell_length_b	9.482934
_cell_length_c	10.967971
_cell_angle_alpha	111.340944
_cell_angle_beta	96.380373
_cell_angle_gamma	78.635486
loop_
_atom_site_label
_atom_site_type_symbol
_atom_site_fract_x
_atom_site_fract_y
_atom_site_fract_z
O1	O	1.612865	0.010593	0.524834
O2	O	1.261461	-0.004833	0.463270
O3	O	1.452557	-0.043639	0.308348
O4	O	1.421769	0.049398	0.679756
O5	O	1.413733	0.206077	0.339979
O6	O	1.222638	0.244883	0.494901
O7	O	1.574042	0.260308	0.556466
Cu8	Cu	1.394795	0.275397	0.528572
Cu9	Cu	1.440708	-0.019921	0.491164
O10	O	1.382946	0.299114	0.711388
C11	C	1.197189	0.117179	0.467728
C12	C	1.063521	0.108696	0.433871
N13	N	1.362511	0.483107	0.554884
C14	C	0.986828	0.132113	0.527356
C15	C	0.848675	0.123346	0.492365
C16	C	1.431172	0.541288	0.498920
C17	C	1.404320	0.714193	0.520824
C18	C	1.638314	0.138293	0.552007
C19	C	1.771983	0.146766	0.585863
C20	C	1.433838	0.069120	0.275876
C21	C	1.435890	0.033067	0.131990
N22	N	1.472992	0.772368	0.464852
C23	C	1.416693	0.146352	0.084221
C24	C	1.418813	0.109093	-0.064492
C25	C	1.401664	0.186352	0.743860
C26	C	1.399614	0.222395	0.887744
H27	H	1.023446	0.158659	0.633297
H28	H	1.453901	-0.091504	0.062791
H29	H	1.026908	0.082120	0.327926
H30	H	1.381614	0.346976	-0.043061
H31	H	1.551656	0.694177	0.400712
Cl32	Cl	1.241051	0.603821	0.653889
H33	H	1.325647	0.792380	0.584952
H34	H	0.812068	0.096768	0.386413
Cl35	Cl	1.388902	0.338688	0.191051
Cl36	Cl	1.446623	-0.083250	-0.171317
Cl37	Cl	0.828496	0.187763	0.749443
Cl38	Cl	1.552363	0.420485	0.399554
