data_functionalizedCrystal
_audit_creation_method	'MofGen! by Chris Wilmer'
_symmetry_space_group_name_H-M	'P1'
_symmetry_Int_Tables_number	1
_symmetry_cell_setting	triclinic
loop_
_symmetry_equiv_pos_as_xyz
  x,y,z
_cell_length_a	16.109301
_cell_length_b	14.519709
_cell_length_c	14.586319
_cell_angle_alpha	89.995260
_cell_angle_beta	89.999213
_cell_angle_gamma	83.570813
loop_
_atom_site_label
_atom_site_type_symbol
_atom_site_fract_x
_atom_site_fract_y
_atom_site_fract_z
O1	O	1.103336	0.118540	-0.076184
O2	O	0.861300	0.133292	-0.076199
O3	O	0.988735	-0.008336	-0.076183
O4	O	0.975901	0.260168	-0.076200
O5	O	0.988726	-0.008338	0.076298
O6	O	0.861291	0.133290	0.076282
O7	O	1.103327	0.118538	0.076296
Cu8	Cu	0.982308	0.125914	0.090212
Cu9	Cu	0.982319	0.125916	-0.090114
O10	O	0.975892	0.260166	0.076280
C11	C	0.830319	0.132693	0.000039
C12	C	0.738021	0.130902	0.000034
C13	C	0.515887	0.210775	0.000040
C14	C	0.429163	0.209085	0.000046
C15	C	0.448747	0.041048	0.000053
C16	C	0.535468	0.042739	0.000053
C17	C	0.569036	0.127606	0.000042
C18	C	0.395591	0.124224	0.000047
C19	C	0.301562	0.122390	0.000054
C20	C	0.663071	0.129440	0.000037
C21	C	0.988132	-0.042696	0.000057
C22	C	0.986340	-0.145073	0.000058
C23	C	0.979741	-0.519955	0.000034
C24	C	0.981574	-0.415651	0.000041
C25	C	0.983041	-0.332517	0.000047
C26	C	0.984873	-0.228207	0.000052
C27	C	1.134307	0.119136	0.000056
C28	C	1.226606	0.120928	0.000055
C29	C	0.976494	0.294526	0.000038
C30	C	0.978287	0.396903	0.000031
N31	N	0.982307	0.125911	0.217044
N32	N	0.982326	0.125911	-0.216946
C33	C	1.038754	0.063219	0.452057
C34	C	1.038756	0.063217	0.548038
C35	C	0.925873	0.188606	0.548034
C36	C	0.925868	0.188603	0.452054
C37	C	0.982313	0.125911	0.404068
C38	C	0.982321	0.125912	0.596029
C39	C	0.982323	0.125910	0.700096
C40	C	0.982310	0.125911	0.299995
H41	H	0.578745	-0.024991	0.000058
O42	O	0.377570	0.289901	-0.000123
C43	C	0.392820	0.341436	-0.079088
H44	H	0.422386	0.292741	-0.134281
H45	H	0.437055	0.394802	-0.061240
C46	C	0.273470	0.451229	-0.047108
C47	C	0.309777	0.391419	-0.114900
H48	H	0.222247	0.482065	-0.069197
H49	H	0.263197	0.416511	0.006094
H50	H	0.310341	0.495692	-0.032240
H51	H	0.272911	0.346950	-0.129758
H52	H	0.320042	0.426130	-0.168106
O53	O	0.871007	0.249596	0.405574
C54	C	0.821179	0.304920	0.468506
H55	H	0.855267	0.305979	0.536921
H56	H	0.759377	0.274955	0.478723
C57	C	0.762318	0.403098	0.347002
C58	C	0.804189	0.404406	0.431028
H59	H	0.751834	0.464465	0.323883
H60	H	0.795885	0.365824	0.304602
H61	H	0.710821	0.378123	0.355527
H62	H	0.855690	0.429370	0.422500
H63	H	0.770630	0.441687	0.473426
O64	O	0.871131	0.249473	0.594791
C65	C	0.883225	0.236021	0.689796
H66	H	0.949272	0.201572	0.702902
H67	H	0.836102	0.189754	0.717045
C68	C	0.789755	0.372673	0.722963
C69	C	0.870877	0.330368	0.739061
H70	H	0.782135	0.430869	0.753354
H71	H	0.781604	0.381734	0.658957
H72	H	0.750495	0.334107	0.745671
H73	H	0.910135	0.368928	0.716343
H74	H	0.879035	0.321315	0.803065
O75	O	1.093608	0.002228	0.405585
C76	C	1.143437	-0.053090	0.468528
H77	H	1.109353	-0.054138	0.536948
H78	H	1.205242	-0.023128	0.478727
C79	C	1.202285	-0.151289	0.347047
C80	C	1.160419	-0.152582	0.431079
H81	H	1.212763	-0.212660	0.323946
H82	H	1.168716	-0.114018	0.304640
H83	H	1.253784	-0.126316	0.355558
H84	H	1.108916	-0.177544	0.422565
H85	H	1.193979	-0.189860	0.473484
O86	O	1.093505	0.002355	0.594796
C87	C	1.081423	0.015810	0.689801
H88	H	1.015376	0.050255	0.702912
H89	H	1.128547	0.062082	0.717031
C90	C	1.174905	-0.120834	0.722980
C91	C	1.093783	-0.078535	0.739084
H92	H	1.182532	-0.179029	0.753381
H93	H	1.183048	-0.129898	0.658973
H94	H	1.214165	-0.082265	0.745672
H95	H	1.054524	-0.117098	0.716382
H96	H	1.085633	-0.069480	0.803088
O97	O	0.548534	0.293189	-0.000127
C98	C	0.598127	0.299193	-0.079088
H99	H	0.577551	0.251008	-0.134283
H100	H	0.666483	0.277905	-0.061234
C101	C	0.613028	0.458779	-0.047106
C102	C	0.587751	0.399604	-0.114901
H103	H	0.606632	0.520718	-0.069196
H104	H	0.579619	0.454734	0.006093
H105	H	0.669990	0.441029	-0.032234
H106	H	0.530788	0.417348	-0.129763
H107	H	0.621151	0.403654	-0.168104
H108	H	0.421405	-0.028048	0.000067
