data_functionalizedCrystal
_audit_creation_method	'MofGen! by Chris Wilmer'
_symmetry_space_group_name_H-M	'P1'
_symmetry_Int_Tables_number	1
_symmetry_cell_setting	triclinic
loop_
_symmetry_equiv_pos_as_xyz
  x,y,z
_cell_length_a	19.288840
_cell_length_b	17.038272
_cell_length_c	18.366186
_cell_angle_alpha	89.993834
_cell_angle_beta	89.983729
_cell_angle_gamma	87.118786
loop_
_atom_site_label
_atom_site_type_symbol
_atom_site_fract_x
_atom_site_fract_y
_atom_site_fract_z
O1	O	0.927391	0.097420	-0.060673
O2	O	1.260725	0.430753	0.272660
O3	O	1.594058	0.764087	0.605994
O4	O	0.725943	0.110595	-0.060648
O5	O	1.059277	0.443928	0.272685
O6	O	1.392610	0.777262	0.606019
O7	O	0.825470	-0.009804	-0.060654
O8	O	1.158803	0.323529	0.272679
O9	O	1.492137	0.656863	0.606012
O10	O	0.827865	0.217819	-0.060666
O11	O	1.161198	0.551152	0.272667
O12	O	1.494531	0.884486	0.606000
O13	O	0.825452	-0.009810	0.060445
O14	O	1.158785	0.323524	0.393778
O15	O	1.492118	0.656857	0.727112
O16	O	0.725925	0.110589	0.060452
O17	O	1.059258	0.443922	0.393785
O18	O	1.392592	0.777256	0.727118
O19	O	0.927373	0.097414	0.060427
O20	O	1.260706	0.430748	0.393760
O21	O	1.594040	0.764081	0.727093
Zn22	Zn	0.826646	0.104001	0.079666
Zn23	Zn	1.159979	0.437334	0.413000
Zn24	Zn	1.493313	0.770667	0.746333
Zn25	Zn	0.826670	0.104008	-0.079887
Zn26	Zn	1.160004	0.437342	0.253446
Zn27	Zn	1.493337	0.770675	0.586779
O28	O	0.827846	0.217813	0.060433
O29	O	1.161180	0.551146	0.393766
O30	O	1.494513	0.884480	0.727100
C31	C	0.700031	0.110171	-0.000095
C32	C	1.033365	0.443505	0.333238
C33	C	1.366698	0.776838	0.666572
C34	C	0.622849	0.108909	-0.000085
C35	C	0.956182	0.442242	0.333248
C36	C	1.289515	0.775575	0.666582
C37	C	0.586618	0.108305	-0.066098
C38	C	0.919951	0.441638	0.267235
C39	C	1.253284	0.774972	0.600568
C40	C	0.514097	0.107110	-0.066107
C41	C	0.847430	0.440443	0.267226
C42	C	1.180764	0.773777	0.600560
C43	C	0.477811	0.106502	-0.000099
C44	C	0.811144	0.439836	0.333234
C45	C	1.144477	0.773169	0.666568
C46	C	0.514050	0.107110	0.065923
C47	C	0.847384	0.440444	0.399256
C48	C	1.180717	0.773777	0.732589
C49	C	0.586569	0.108313	0.065930
C50	C	0.919903	0.441647	0.399263
C51	C	1.253236	0.774980	0.732596
C52	C	0.365525	0.058809	0.050465
C53	C	0.698858	0.392142	0.383798
C54	C	1.032191	0.725475	0.717131
C55	C	0.293007	0.057601	0.050455
C56	C	0.626341	0.390934	0.383788
C57	C	0.959674	0.724267	0.717122
C58	C	0.254138	0.102795	-0.000118
C59	C	0.587471	0.436129	0.333215
C60	C	0.920804	0.769462	0.666549
C61	C	0.287795	0.149188	-0.050693
C62	C	0.621129	0.482521	0.282640
C63	C	0.954462	0.815855	0.615973
C64	C	0.360314	0.150391	-0.050686
C65	C	0.693648	0.483724	0.282647
C66	C	1.026981	0.817058	0.615980
C67	C	0.399176	0.105198	-0.000099
C68	C	0.732509	0.438532	0.333234
C69	C	1.065843	0.771865	0.666567
C70	C	0.139271	0.100897	-0.066145
C71	C	0.472605	0.434230	0.267188
C72	C	0.805938	0.767564	0.600522
C73	C	0.066749	0.099707	-0.066151
C74	C	0.400082	0.433040	0.267182
C75	C	0.733415	0.766373	0.600515
C76	C	0.066704	0.099699	0.065880
C77	C	0.400037	0.433033	0.399214
C78	C	0.733371	0.766366	0.732547
C79	C	0.139225	0.100897	0.065885
C80	C	0.472558	0.434231	0.399218
C81	C	0.805891	0.767564	0.732551
C82	C	0.175504	0.101493	-0.000130
C83	C	0.508837	0.434826	0.333203
C84	C	0.842171	0.768159	0.666537
C85	C	0.823283	-0.038928	-0.000105
C86	C	1.156616	0.294405	0.333229
C87	C	1.489950	0.627739	0.666562
C88	C	0.816785	-0.125699	-0.000104
C89	C	1.150119	0.207634	0.333229
C90	C	1.483452	0.540968	0.666563
C91	C	0.876442	-0.176012	-0.000111
C92	C	1.209775	0.157322	0.333223
C93	C	1.543108	0.490655	0.666556
C94	C	0.870332	-0.257542	-0.000117
C95	C	1.203666	0.075791	0.333217
C96	C	1.536999	0.409125	0.666550
C97	C	0.804566	-0.288758	-0.000111
C98	C	1.137899	0.044575	0.333222
C99	C	1.471233	0.377909	0.666556
C100	C	0.744905	-0.238439	-0.000107
C101	C	1.078238	0.094895	0.333227
C102	C	1.411572	0.428228	0.666560
C103	C	0.751015	-0.156910	-0.000106
C104	C	1.084348	0.176423	0.333228
C105	C	1.417682	0.509756	0.666561
C106	C	0.782980	-0.534444	-0.000118
C107	C	1.116314	-0.201111	0.333215
C108	C	1.449647	0.132223	0.666548
C109	C	0.776875	-0.615979	-0.000117
C110	C	1.110208	-0.282646	0.333216
C111	C	1.443541	0.050688	0.666550
C112	C	0.902303	-0.635077	-0.000129
C113	C	1.235636	-0.301743	0.333205
C114	C	1.568969	0.031590	0.666538
C115	C	0.908407	-0.553546	-0.000123
C116	C	1.241740	-0.220212	0.333210
C117	C	1.575073	0.113121	0.666543
C118	C	0.848746	-0.503234	-0.000123
C119	C	1.182079	-0.169900	0.333211
C120	C	1.515413	0.163433	0.666544
C121	C	0.798320	-0.372095	-0.000115
C122	C	1.131653	-0.038761	0.333218
C123	C	1.464986	0.294572	0.666552
C124	C	0.854993	-0.419899	-0.000124
C125	C	1.188326	-0.086565	0.333209
C126	C	1.521660	0.246768	0.666543
C127	C	0.953285	0.097838	-0.000128
C128	C	1.286618	0.431171	0.333205
C129	C	1.619952	0.764504	0.666539
C130	C	1.030468	0.099101	-0.000143
C131	C	1.363801	0.432434	0.333191
C132	C	1.697134	0.765767	0.666524
C133	C	0.830033	0.246937	-0.000118
C134	C	1.163367	0.580270	0.333215
C135	C	1.496700	0.913604	0.666548
C136	C	0.836531	0.333708	-0.000124
C137	C	1.169864	0.667042	0.333210
C138	C	1.503198	1.000375	0.666543
N139	N	0.826634	0.103995	0.188557
N140	N	1.159968	0.437328	0.521891
N141	N	1.493301	0.770662	0.855224
N142	N	0.826687	0.104008	-0.188779
N143	N	1.160020	0.437341	0.144555
N144	N	1.493354	0.770675	0.477888
C145	C	0.870722	0.050708	0.226655
C146	C	1.204055	0.384042	0.559988
C147	C	1.537389	0.717375	0.893321
C148	C	0.870726	0.050705	0.302883
C149	C	1.204059	0.384038	0.636216
C150	C	1.537393	0.717372	0.969549
C151	C	0.826650	0.104001	0.341010
C152	C	1.159984	0.437335	0.674343
C153	C	1.493317	0.770668	1.007677
C154	C	0.782554	0.157292	0.302903
C155	C	1.115887	0.490625	0.636237
C156	C	1.449221	0.823959	0.969570
C157	C	0.782546	0.157289	0.226677
C158	C	1.115880	0.490622	0.560010
C159	C	1.449213	0.823955	0.893344
C160	C	0.821759	0.175226	0.461767
C161	C	1.155092	0.508559	0.795101
C162	C	1.488425	0.841892	1.128434
C163	C	0.821771	0.175230	0.537992
C164	C	1.155105	0.508563	0.871326
C165	C	1.488438	0.841897	1.204659
C166	C	0.826671	0.104011	0.576118
C167	C	1.160004	0.437344	0.909451
C168	C	1.493337	0.770678	1.242784
C169	C	0.831571	0.032785	0.538008
C170	C	1.164905	0.366118	0.871342
C171	C	1.498238	0.699452	1.204675
C172	C	0.831563	0.032782	0.461782
C173	C	1.164897	0.366115	0.795115
C174	C	1.498230	0.699448	1.128449
C175	C	0.826654	0.104010	0.423665
C176	C	1.159987	0.437344	0.756998
C177	C	1.493320	0.770677	1.090331
C178	C	0.870765	0.050716	0.696870
C179	C	1.204098	0.384050	1.030203
C180	C	1.537432	0.717383	1.363537
C181	C	0.870764	0.050712	0.773099
C182	C	1.204098	0.384045	1.106433
C183	C	1.537431	0.717379	1.439766
C184	C	0.782596	0.157306	0.773119
C185	C	1.115929	0.490639	1.106452
C186	C	1.449263	0.823972	1.439785
C187	C	0.782593	0.157303	0.696891
C188	C	1.115926	0.490637	1.030224
C189	C	1.449260	0.823970	1.363557
C190	C	0.826681	0.104010	0.658771
C191	C	1.160014	0.437343	0.992104
C192	C	1.493348	0.770676	1.325438
H193	H	0.037250	0.099220	-0.119909
H194	H	0.370584	0.432553	0.213424
H195	H	0.703917	0.765887	0.546757
H196	H	0.906662	0.007319	0.665832
H197	H	1.239995	0.340652	0.999165
H198	H	1.573329	0.673986	1.332498
H199	H	0.397167	0.022003	0.091651
H200	H	0.730500	0.355337	0.424984
H201	H	1.063833	0.688670	0.758317
F202	F	0.177786	0.101536	0.136146
F203	F	0.511119	0.434869	0.469479
F204	F	0.844453	0.768202	0.802813
F205	F	0.396132	0.199766	-0.104508
F206	F	0.729466	0.533099	0.228825
F207	F	1.062799	0.866433	0.562158
H208	H	0.746644	0.200682	0.195657
H209	H	1.079977	0.534015	0.528991
H210	H	1.413311	0.867348	0.862324
F211	F	0.735643	0.214011	0.343482
F212	F	1.068976	0.547345	0.676815
F213	F	1.402310	0.880678	1.010148
F214	F	0.917653	-0.006013	0.343435
F215	F	1.250986	0.327320	0.676769
F216	F	1.584319	0.660654	1.010102
F217	F	0.475431	0.106468	0.136173
F218	F	0.808764	0.439801	0.469506
F219	F	1.142097	0.773135	0.802840
F220	F	0.625225	0.108941	-0.136357
F221	F	0.958558	0.442274	0.196976
F222	F	1.291892	0.775608	0.530309
F223	F	0.735683	0.214023	0.813693
F224	F	1.069016	0.547356	1.147026
F225	F	1.402349	0.880690	1.480360
F226	F	0.946440	-0.142797	-0.000110
F227	F	1.279773	0.190536	0.333224
F228	F	1.613106	0.523869	0.666557
H229	H	0.616068	0.108806	0.119687
H230	H	0.949401	0.442139	0.453021
H231	H	1.282735	0.775472	0.786354
F232	F	0.836790	-0.043017	0.578578
F233	F	1.170123	0.290316	0.911911
F234	F	1.503457	0.623649	1.245244
F235	F	0.933827	-0.311086	-0.000123
F236	F	1.267161	0.022248	0.333211
F237	F	1.600494	0.355581	0.666544
F238	F	0.917686	-0.006010	0.813647
F239	F	1.251019	0.327324	1.146980
F240	F	1.584353	0.660657	1.480314
F241	F	0.257192	0.008241	0.104292
F242	F	0.590526	0.341574	0.437625
F243	F	0.923859	0.674907	0.770959
F244	F	0.728328	-0.405324	-0.000112
F245	F	1.061661	-0.071991	0.333221
F246	F	1.394994	0.261342	0.666555
H247	H	0.746696	0.200697	0.665870
H248	H	1.080029	0.534031	0.999203
H249	H	1.413362	0.867364	1.332536
H250	H	0.168811	0.101390	-0.119898
H251	H	0.502145	0.434723	0.213435
H252	H	0.835478	0.768057	0.546768
H253	H	0.484592	0.106620	-0.119865
H254	H	0.817925	0.439953	0.213469
H255	H	1.151259	0.773286	0.546802
F256	F	0.706874	-0.649199	-0.000107
F257	F	1.040207	-0.315865	0.333226
F258	F	1.373541	0.017468	0.666559
H259	H	0.817785	0.233226	0.569015
H260	H	1.151119	0.566560	0.902348
H261	H	1.484452	0.899893	1.235682
F262	F	0.978404	-0.520330	-0.000148
F263	F	1.311738	-0.186997	0.333185
F264	F	1.645071	0.146337	0.666519
H265	H	0.256149	0.185993	-0.091872
H266	H	0.589482	0.519326	0.241461
H267	H	0.922816	0.852660	0.574795
H268	H	0.950875	-0.676049	-0.000131
H269	H	1.284208	-0.342716	0.333203
H270	H	1.617541	-0.009382	0.666536
F271	F	0.816595	0.251033	0.421199
F272	F	1.149928	0.584367	0.754532
F273	F	1.483261	0.917700	1.087866
F274	F	0.719483	-0.480909	-0.000120
F275	F	1.052816	-0.147575	0.333214
F276	F	1.386150	0.185758	0.666547
H277	H	0.037160	0.099209	0.119626
H278	H	0.370494	0.432543	0.452959
H279	H	0.703827	0.765876	0.786292
H280	H	0.691357	-0.263861	-0.000107
H281	H	1.024690	0.069472	0.333227
H282	H	1.358023	0.402806	0.666560
F283	F	0.687520	-0.103363	-0.000101
F284	F	1.020854	0.229970	0.333233
F285	F	1.354187	0.563303	0.666566
F286	F	0.924984	-0.386675	-0.000134
F287	F	1.258317	-0.053341	0.333199
F288	F	1.591651	0.279992	0.666532
F289	F	0.917641	-0.006013	0.186087
F290	F	1.250974	0.327320	0.519420
F291	F	1.584308	0.660653	0.852753
H292	H	0.835552	-0.025213	0.430757
H293	H	1.168885	0.308120	0.764090
H294	H	1.502219	0.641454	1.097423
