data_functionalizedCrystal
_audit_creation_method	'MofGen! by Chris Wilmer'
_symmetry_space_group_name_H-M	'P1'
_symmetry_Int_Tables_number	1
_symmetry_cell_setting	triclinic
loop_
_symmetry_equiv_pos_as_xyz
  x,y,z
_cell_length_a	13.339070
_cell_length_b	15.944551
_cell_length_c	12.376457
_cell_angle_alpha	101.276265
_cell_angle_beta	75.589755
_cell_angle_gamma	99.564016
loop_
_atom_site_label
_atom_site_type_symbol
_atom_site_fract_x
_atom_site_fract_y
_atom_site_fract_z
O1	O	1.361721	0.409519	-0.094056
O2	O	1.067189	0.354248	-0.094048
O3	O	1.222496	0.261484	-0.094042
O4	O	1.206414	0.502283	-0.094062
O5	O	1.183683	0.284634	0.093969
O6	O	1.028376	0.377398	0.093963
O7	O	1.322908	0.432670	0.093955
Zn8	Zn	1.169480	0.408710	0.123810
Zn9	Zn	1.220618	0.378208	-0.123903
O10	O	1.167601	0.525433	0.093949
C11	C	1.010092	0.356487	-0.000041
C12	C	0.897788	0.328657	-0.000038
C13	C	0.533017	0.545045	-0.000074
C14	C	0.638533	0.571195	-0.000081
C15	C	0.703352	0.510563	-0.000069
C16	C	0.662645	0.423776	-0.000053
C17	C	0.557120	0.397623	-0.000055
C18	C	0.727455	0.363140	-0.000050
C19	C	0.686748	0.276354	-0.000033
C20	C	0.581233	0.250205	-0.000035
C21	C	0.516415	0.310837	-0.000046
C22	C	0.832979	0.389294	-0.000048
C23	C	0.857082	0.241871	-0.000029
C24	C	0.751566	0.215722	-0.000022
C25	C	1.202422	0.241610	-0.000036
C26	C	1.200420	0.147897	-0.000036
C27	C	1.099369	-0.090507	-0.000048
C28	C	1.127158	-0.129176	0.092651
C29	C	1.196799	-0.023674	-0.000044
C30	C	1.165448	-0.151979	-0.092713
C31	C	1.193296	-0.189405	-0.000057
C32	C	1.224599	-0.061099	0.092732
C33	C	1.262892	-0.083908	-0.092715
C34	C	1.290747	-0.122540	0.000007
C35	C	1.198814	0.071800	-0.000036
C36	C	1.191287	-0.284874	-0.000058
C37	C	1.380005	0.430431	-0.000054
C38	C	1.492311	0.458260	-0.000065
C39	C	1.187676	0.545308	-0.000059
C40	C	1.189680	0.639019	-0.000067
N41	N	1.134587	0.429527	0.292867
N42	N	1.255518	0.357386	-0.292960
C43	C	1.336516	0.309045	0.647859
C44	C	1.360931	0.294473	0.529520
C45	C	1.304347	0.328235	0.470351
C46	C	1.223343	0.376572	0.529532
C47	C	1.198930	0.391151	0.647883
C48	C	1.166762	0.410341	0.470375
C49	C	1.085758	0.458678	0.529556
C50	C	1.061349	0.473254	0.647895
C51	C	1.117933	0.439492	0.707064
C52	C	1.191175	0.395762	0.352024
C53	C	1.053590	0.477868	0.352048
C54	C	1.029174	0.492440	0.470387
H55	H	0.866111	0.459956	-0.000057
N56	N	0.978620	0.522647	0.708331
N57	N	0.928110	0.552792	0.655495
H58	H	0.869684	0.587679	0.698175
N59	N	0.709995	0.127071	-0.000001
N60	N	0.713487	0.090398	0.079258
H61	H	0.684128	0.027788	0.079275
H62	H	0.480235	0.594401	-0.000092
N63	N	0.997889	-0.072355	0.000073
N64	N	0.922517	-0.088166	0.079549
H65	H	0.850846	-0.075345	0.079639
H66	H	0.909859	0.192498	-0.000025
N67	N	1.255938	-0.011861	0.191147
N68	N	1.262492	0.068540	0.207055
H69	H	1.284622	0.103317	0.276562
H70	H	1.069769	-0.149237	0.171023
N71	N	0.946423	0.541802	0.530847
N72	N	0.870011	0.508613	0.596899
H73	H	0.811566	0.543473	0.639601
H74	H	0.789267	0.531859	-0.000078
H75	H	1.371680	-0.136832	0.000057
H76	H	1.257129	0.356407	0.303849
H77	H	1.320246	-0.063834	-0.171092
N78	N	1.394318	0.274591	0.708315
N79	N	1.372522	0.287629	0.813978
H80	H	1.413354	0.263301	0.856678
H81	H	1.140405	-0.191311	-0.171088
H82	H	0.548096	0.179536	-0.000034
N83	N	0.995764	0.512356	0.291639
N84	N	0.923447	0.555515	0.344490
H85	H	0.882611	0.579872	0.301821
N86	N	1.329304	0.313350	0.349472
N87	N	1.401631	0.270194	0.296645
H88	H	1.419260	0.259677	0.211269
H89	H	0.671671	0.641855	-0.000103
N90	N	1.443773	0.245209	0.469090
N91	N	1.494354	0.215140	0.521927
H92	H	1.552903	0.180385	0.479248
N93	N	1.092966	0.454355	0.827948
N94	N	1.003910	0.428698	0.880765
H95	H	0.986274	0.439186	0.966142
N96	N	0.408627	0.284139	-0.000039
N97	N	0.350770	0.338287	-0.000044
H98	H	0.274644	0.319434	-0.000042
