data_functionalizedCrystal
_audit_creation_method	'MofGen! by Chris Wilmer'
_symmetry_space_group_name_H-M	'P1'
_symmetry_Int_Tables_number	1
_symmetry_cell_setting	triclinic
loop_
_symmetry_equiv_pos_as_xyz
  x,y,z
_cell_length_a	10.489716
_cell_length_b	10.489741
_cell_length_c	14.472310
_cell_angle_alpha	89.999301
_cell_angle_beta	89.987310
_cell_angle_gamma	84.534155
loop_
_atom_site_label
_atom_site_type_symbol
_atom_site_fract_x
_atom_site_fract_y
_atom_site_fract_z
O1	O	1.694089	0.179810	-0.076833
O2	O	1.322889	0.196736	-0.076836
O3	O	1.516935	0.002674	-0.076829
O4	O	1.500042	0.373872	-0.076840
O5	O	1.516885	0.002685	0.076853
O6	O	1.322839	0.196747	0.076846
O7	O	1.694038	0.179821	0.076849
Cu8	Cu	1.508434	0.188285	0.090880
Cu9	Cu	1.508493	0.188272	-0.090867
O10	O	1.499992	0.373883	0.076842
C11	C	1.275332	0.195470	0.000004
C12	C	1.133701	0.191665	0.000003
C13	C	1.036027	0.310669	-0.000003
C14	C	0.958656	0.247790	0.075777
C15	C	0.958712	0.247751	-0.075742
C16	C	1.058195	0.128836	0.075845
C17	C	1.058257	0.128814	-0.075742
C18	C	0.980935	0.065848	0.000056
C19	C	1.515634	-0.044852	0.000011
C20	C	1.511817	-0.186481	0.000010
C21	C	1.388351	-0.254610	0.000002
C22	C	1.446650	-0.346732	0.075775
C23	C	1.446729	-0.346718	-0.075743
C24	C	1.570167	-0.276738	0.075846
C25	C	1.570229	-0.276713	-0.075741
C26	C	1.628618	-0.368808	0.000052
C27	C	1.741596	0.181087	0.000006
C28	C	1.883227	0.184892	0.000002
C29	C	1.501293	0.421409	-0.000001
C30	C	1.505110	0.563038	-0.000005
N31	N	1.508401	0.188293	0.218711
N32	N	1.508536	0.188254	-0.218698
C33	C	1.508491	0.188267	0.592802
C34	C	1.404306	0.291751	0.553632
C35	C	1.404553	0.292134	0.446544
C36	C	1.508446	0.188280	0.407211
C37	C	1.641811	0.218561	0.446048
C38	C	1.641227	0.219298	0.553170
C39	C	1.480496	0.054203	0.553335
C40	C	1.477452	0.055068	0.446207
C41	C	1.508428	0.188285	0.302323
C42	C	1.508518	0.188265	0.697690
H43	H	1.394388	-0.377735	0.139836
H44	H	1.305459	0.273914	0.420288
H45	H	0.915152	0.298032	0.139838
H46	H	1.101490	0.078632	0.139974
H47	H	1.721240	0.146962	0.579078
H48	H	1.060696	0.414185	0.000065
N49	N	0.904220	0.310777	-0.156116
N50	N	0.937836	0.271392	-0.234758
H51	H	0.899356	0.315911	-0.291520
H52	H	1.286838	-0.204950	0.000077
H53	H	1.385292	0.025386	0.580403
H54	H	1.665710	0.317107	0.578142
H55	H	1.622342	-0.245906	0.139979
N56	N	1.635729	-0.237749	-0.156102
N57	N	1.649958	-0.122046	-0.168579
H58	H	1.696211	-0.094523	-0.225341
N59	N	0.950298	-0.064109	0.000119
N60	N	0.986682	-0.136965	0.065238
H61	H	0.965044	-0.228747	0.065286
H62	H	1.101774	0.078611	-0.139806
H63	H	1.721241	0.145244	0.420568
H64	H	1.556459	-0.022820	0.578664
H65	H	1.730222	-0.418241	0.000095
H66	H	1.394493	-0.377681	-0.139810
N67	N	1.279599	0.269237	0.585985
N68	N	1.266046	0.176667	0.638293
H69	H	1.177968	0.160763	0.661147
N70	N	1.426596	0.415814	0.587393
N71	N	1.518878	0.428349	0.640175
H72	H	1.534625	0.515968	0.664020
H73	H	1.422557	0.391595	0.420907
H74	H	1.666847	0.315262	0.419208
H75	H	1.379341	0.032116	0.420825
N76	N	1.566343	-0.046176	0.412612
N77	N	1.654384	-0.021689	0.359147
H78	H	1.717173	-0.093190	0.335419
