data_functionalizedCrystal
_audit_creation_method	'MofGen! by Chris Wilmer'
_symmetry_space_group_name_H-M	'P1'
_symmetry_Int_Tables_number	1
_symmetry_cell_setting	triclinic
loop_
_symmetry_equiv_pos_as_xyz
  x,y,z
_cell_length_a	10.654550
_cell_length_b	19.188940
_cell_length_c	9.730223
_cell_angle_alpha	89.998243
_cell_angle_beta	89.996251
_cell_angle_gamma	83.816808
loop_
_atom_site_label
_atom_site_type_symbol
_atom_site_fract_x
_atom_site_fract_y
_atom_site_fract_z
O1	O	1.665765	0.098058	-0.114404
O2	O	1.300090	0.107401	-0.114382
O3	O	1.493474	0.001144	-0.114383
O4	O	1.472381	0.204316	-0.114403
O5	O	1.493471	0.001146	0.114196
O6	O	1.300087	0.107404	0.114198
O7	O	1.665763	0.098061	0.114176
Zn8	Zn	1.482925	0.102733	0.150479
Zn9	Zn	1.482928	0.102729	-0.150685
O10	O	1.472379	0.204319	0.114177
C11	C	1.253305	0.106716	-0.000090
C12	C	1.113905	0.104664	-0.000081
C13	C	1.492787	-0.024871	-0.000094
C14	C	1.490731	-0.102388	-0.000094
C15	C	1.033099	0.167227	-0.000107
C16	C	0.902119	0.165294	-0.000131
C17	C	0.932763	0.038231	-0.000108
C18	C	1.063741	0.040164	-0.000074
C19	C	1.015406	0.240586	-0.000126
C20	C	0.884426	0.238653	-0.000150
C21	C	1.476099	-0.655742	0.124473
C22	C	1.478017	-0.582905	0.124481
C23	C	1.478984	-0.546480	-0.000117
C24	C	1.477999	-0.582897	-0.124731
C25	C	1.476068	-0.655731	-0.124735
N26	N	1.553476	-0.436970	-0.092862
N27	N	1.555313	-0.367780	-0.092850
C28	C	1.484800	-0.327033	-0.000112
N29	N	1.412396	-0.358090	0.092633
N30	N	1.410564	-0.427287	0.092625
C31	C	1.481077	-0.467503	-0.000126
C32	C	1.487856	-0.211647	0.124502
C33	C	1.489767	-0.138808	0.124504
C34	C	1.489761	-0.138802	-0.124711
C35	C	1.487838	-0.211639	-0.124710
C36	C	1.486891	-0.248057	-0.000099
C37	C	1.712548	0.098746	-0.000120
C38	C	1.851947	0.100798	-0.000138
C39	C	1.473065	0.230333	-0.000116
C40	C	1.475121	0.307850	-0.000125
N41	N	1.482932	0.102735	0.356015
N42	N	1.482931	0.102722	-0.356222
C43	C	1.568584	0.055700	0.427941
C44	C	1.568581	0.055692	0.571823
C45	C	1.397269	0.149759	0.571843
C46	C	1.397268	0.149763	0.427962
C47	C	1.667493	0.001393	0.427931
C48	C	1.667490	0.001385	0.571814
H49	H	1.129529	-0.010781	-0.000033
O50	O	1.479036	-0.543617	-0.259124
H51	H	1.565493	-0.516247	-0.265105
O52	O	1.474991	-0.695006	-0.259127
H53	H	1.475977	-0.657444	-0.345771
H54	H	0.891903	-0.014283	-0.000123
O55	O	1.628537	-0.065801	0.630912
H56	H	1.531695	-0.072965	0.595631
O57	O	1.794984	0.017234	0.623552
H58	H	1.857401	0.025008	0.534775
H59	H	1.050570	0.263944	-0.098816
H60	H	1.327512	0.188057	0.369402
H61	H	1.044131	0.269278	0.095537
O62	O	1.787810	0.023903	0.368802
H63	H	1.799468	0.077833	0.404089
H64	H	1.490559	-0.109165	0.225971
H65	H	0.838286	0.260825	0.098532
H66	H	1.478790	-0.553254	0.225946
H67	H	1.490533	-0.109145	-0.226160
O68	O	1.486780	-0.250902	-0.259111
H69	H	1.571461	-0.289900	-0.265102
O70	O	0.828356	0.275266	-0.126863
H71	H	0.904782	0.294716	-0.188889
H72	H	1.475326	-0.685389	0.225941
H73	H	1.487074	-0.241299	0.225967
O74	O	1.304886	0.200487	0.649440
H75	H	1.319280	0.192586	0.761574
O76	O	1.640577	-0.069683	0.376187
H77	H	1.627387	-0.104483	0.464962
