data_functionalizedCrystal
_audit_creation_method	'MofGen! by Chris Wilmer'
_symmetry_space_group_name_H-M	'P1'
_symmetry_Int_Tables_number	1
_symmetry_cell_setting	triclinic
loop_
_symmetry_equiv_pos_as_xyz
  x,y,z
_cell_length_a	12.759401
_cell_length_b	12.759399
_cell_length_c	12.759393
_cell_angle_alpha	90.026805
_cell_angle_beta	90.020566
_cell_angle_gamma	90.012458
loop_
_atom_site_label
_atom_site_type_symbol
_atom_site_fract_x
_atom_site_fract_y
_atom_site_fract_z
Zn1	Zn	-1.606270	0.418266	-0.594037
Zn2	Zn	-1.606162	0.593981	-0.418368
Zn3	Zn	-1.430568	0.418311	-0.418373
Zn4	Zn	-1.430562	0.593898	-0.594006
O5	O	-1.518390	0.506114	-0.506196
O6	O	-1.753276	0.441591	-0.570744
O7	O	-1.582827	0.570732	-0.271348
O8	O	-1.453923	0.271284	-0.441690
O9	O	-1.753197	0.570688	-0.441681
O10	O	-1.583010	0.271251	-0.570749
O11	O	-1.453819	0.441669	-0.271351
O12	O	-1.283546	0.441587	-0.441660
O13	O	-1.453912	0.570546	-0.741032
O14	O	-1.283542	0.570590	-0.570698
O15	O	-1.583004	0.441510	-0.741054
O16	O	-1.582821	0.740991	-0.441652
O17	O	-1.453808	0.740930	-0.570693
C18	C	-1.245423	0.506085	-0.506177
C19	C	-1.128646	0.506098	-0.506194
C20	C	-1.073826	0.438997	-0.573500
C21	C	-0.964102	0.439003	-0.573505
C22	C	-0.964028	0.573222	-0.438895
C23	C	-1.073750	0.573210	-0.438886
C24	C	-1.518330	0.779081	-0.506192
C25	C	-1.518401	0.895858	-0.506225
C26	C	-1.518469	0.506013	-0.780229
C27	C	-1.518503	0.505970	-0.897006
C28	C	-0.792424	0.506134	-0.506212
C29	C	-0.909200	0.506117	-0.506209
C30	C	-1.585655	0.950717	-0.439114
C31	C	-1.585724	1.060441	-0.439157
C32	C	-1.451275	1.060437	-0.573425
C33	C	-1.451212	0.950715	-0.573387
C34	C	-1.518483	1.232081	-0.506241
C35	C	-1.518533	1.115304	-0.506307
C36	C	-1.585726	0.438770	-0.951881
C37	C	-1.585743	0.438725	-1.061606
C38	C	-1.451312	0.573088	-1.061570
C39	C	-1.451290	0.573128	-0.951847
C40	C	-1.518373	0.506139	-0.233229
C41	C	-1.518543	0.505886	-0.116452
H42	H	-0.919318	0.627863	-0.384097
H43	H	-1.396571	1.105116	-0.628104
H44	H	-1.396445	0.906046	-0.628042
H45	H	-1.396541	0.627849	-0.907167
H46	H	-1.640482	0.384003	-1.106280
H47	H	-0.919472	0.384361	-0.628310
C48	C	-1.659649	0.364891	-0.891554
C49	C	-1.651113	0.245449	-0.906651
C50	C	-1.725036	0.171565	-0.846327
C51	C	-1.807494	0.217123	-0.770906
C52	C	-1.816032	0.336571	-0.755806
C53	C	-1.742110	0.410455	-0.816130
H54	H	-1.590070	0.211719	-0.962486
H55	H	-1.718714	0.083141	-0.857506
H56	H	-1.862215	0.162429	-0.726251
H57	H	-1.877076	0.370302	-0.699971
H58	H	-1.748432	0.498879	-0.804951
C59	C	-1.377389	0.646967	-1.121898
C60	C	-1.377414	0.646933	-1.242588
C61	C	-1.303492	0.720816	-1.302913
C62	C	-1.229545	0.794734	-1.242548
C63	C	-1.229517	0.794770	-1.121852
C64	C	-1.303439	0.720887	-1.061526
H65	H	-1.432156	0.592212	-1.287279
H66	H	-1.303513	0.720788	-1.392261
H67	H	-1.174823	0.849426	-1.287205
H68	H	-1.174775	0.849491	-1.077160
H69	H	-1.303418	0.720915	-0.972178
H70	H	-1.118386	0.627853	-0.384071
H71	H	-1.118520	0.384347	-0.628303
C72	C	-1.659570	0.890374	-0.365247
C73	C	-1.741986	0.814839	-0.410820
C74	C	-1.815906	0.754500	-0.336954
C75	C	-1.807410	0.769694	-0.217516
C76	C	-1.724991	0.845232	-0.171937
C77	C	-1.651070	0.905572	-0.245803
H78	H	-1.748278	0.803588	-0.499240
H79	H	-1.876918	0.698582	-0.370695
H80	H	-1.862130	0.725027	-0.162836
H81	H	-1.718698	0.856483	-0.083516
H82	H	-1.590058	0.961490	-0.212062
H83	H	-1.640491	1.105102	-0.384510
