data_functionalizedCrystal
_audit_creation_method	'MofGen! by Chris Wilmer'
_symmetry_space_group_name_H-M	'P1'
_symmetry_Int_Tables_number	1
_symmetry_cell_setting	triclinic
loop_
_symmetry_equiv_pos_as_xyz
  x,y,z
_cell_length_a	10.489716
_cell_length_b	17.038272
_cell_length_c	8.965430
_cell_angle_alpha	90.000179
_cell_angle_beta	89.996523
_cell_angle_gamma	87.820346
loop_
_atom_site_label
_atom_site_type_symbol
_atom_site_fract_x
_atom_site_fract_y
_atom_site_fract_z
O1	O	1.704386	0.110277	-0.124029
O2	O	1.334158	0.120658	-0.124035
O3	O	1.517072	0.001640	-0.124020
O4	O	1.521472	0.229296	-0.124044
O5	O	1.517056	0.001648	0.124059
O6	O	1.334142	0.120666	0.124044
O7	O	1.704371	0.110285	0.124050
Cu8	Cu	1.519255	0.115476	0.146698
Cu9	Cu	1.519273	0.115467	-0.146684
O10	O	1.521457	0.229304	0.124035
C11	C	1.286545	0.119882	0.000004
C12	C	1.144695	0.117548	0.000002
C13	C	1.053848	0.190534	-0.000009
C14	C	0.972887	0.151971	0.122317
C15	C	0.972908	0.151946	-0.122269
C16	C	1.065603	0.079016	0.122429
C17	C	1.065629	0.079001	-0.122267
C18	C	0.984712	0.040385	0.000090
C19	C	1.513061	-0.027508	0.000019
C20	C	1.501119	-0.114369	0.000018
C21	C	1.610758	-0.163854	0.000022
C22	C	1.599530	-0.245469	0.000007
C23	C	1.478662	-0.277597	0.000000
C24	C	1.369015	-0.228106	-0.000007
C25	C	1.380244	-0.146492	-0.000004
C26	C	1.438991	-0.523583	-0.000021
C27	C	1.427770	-0.605203	-0.000020
C28	C	1.658286	-0.622560	-0.000008
C29	C	1.669505	-0.540945	0.000005
C30	C	1.559858	-0.491460	-0.000011
C31	C	1.467182	-0.361021	-0.000010
C32	C	1.571339	-0.408038	-0.000012
C33	C	1.751984	0.111061	0.000008
C34	C	1.893833	0.113395	-0.000000
C35	C	1.525467	0.258451	-0.000007
C36	C	1.537409	0.345312	-0.000017
N37	N	1.519251	0.115482	0.353047
N38	N	1.519287	0.115455	-0.353033
C39	C	1.434630	0.170506	0.450347
C40	C	1.551608	0.186330	0.549760
C41	C	1.402323	0.099666	0.549761
C42	C	1.636291	0.131341	0.450272
C43	C	1.486927	0.044647	0.450264
C44	C	1.603985	0.060440	0.549633
H45	H	1.084456	0.254021	0.000099
H46	H	1.675645	0.013894	0.592954
Br47	Br	1.441263	-0.055149	0.377360
H48	H	1.303424	0.086300	0.593466
H49	H	1.106252	0.048211	-0.225682
Br50	Br	0.905205	0.203326	0.294675
H51	H	0.932314	0.182768	-0.225671
H52	H	1.735219	0.144779	0.406755
H53	H	1.106032	0.048227	0.225949
Br54	Br	1.748333	-0.312626	0.000011
Br55	Br	0.934075	-0.065505	0.000214
Br56	Br	1.263724	-0.648804	-0.000014
Br57	Br	1.774801	-0.120260	0.000053
H58	H	1.767928	-0.514792	0.000010
H59	H	1.747554	-0.662859	0.000002
Br60	Br	1.290183	-0.456436	-0.000051
H61	H	1.270602	-0.254271	-0.000022
Br62	Br	1.231443	-0.079332	-0.000020
H63	H	1.669749	-0.381876	-0.000039
H64	H	1.368771	-0.387189	-0.000012
H65	H	1.363143	0.217081	0.406752
H66	H	1.578972	0.246222	0.593463
