data_functionalizedCrystal
_audit_creation_method	'MofGen! by Chris Wilmer'
_symmetry_space_group_name_H-M	'P1'
_symmetry_Int_Tables_number	1
_symmetry_cell_setting	triclinic
loop_
_symmetry_equiv_pos_as_xyz
  x,y,z
_cell_length_a	12.827893
_cell_length_b	12.594516
_cell_length_c	12.827885
_cell_angle_alpha	89.971946
_cell_angle_beta	89.980728
_cell_angle_gamma	90.016023
loop_
_atom_site_label
_atom_site_type_symbol
_atom_site_fract_x
_atom_site_fract_y
_atom_site_fract_z
Zn1	Zn	1.597665	-0.423691	-0.590861
Zn2	Zn	1.597557	-0.601707	-0.416127
Zn3	Zn	1.422906	-0.423743	-0.416135
Zn4	Zn	1.422889	-0.601628	-0.590827
O5	O	1.510254	-0.512693	-0.503487
O6	O	1.743887	-0.447317	-0.567693
O7	O	1.574351	-0.578155	-0.269892
O8	O	1.446140	-0.274791	-0.439330
O9	O	1.743807	-0.578105	-0.439317
O10	O	1.574535	-0.274752	-0.567701
O11	O	1.446036	-0.447405	-0.269898
O12	O	1.276668	-0.447329	-0.439297
O13	O	1.446112	-0.577970	-0.737067
O14	O	1.276656	-0.578020	-0.567642
O15	O	1.574519	-0.447240	-0.737093
O16	O	1.574335	-0.750643	-0.439283
O17	O	1.446007	-0.750584	-0.567635
C18	C	1.238744	-0.512672	-0.503468
C19	C	1.122591	-0.512689	-0.503484
C20	C	1.070828	-0.577460	-0.566895
C21	C	0.950778	-0.577479	-0.566914
C22	C	1.510186	-0.789234	-0.503477
C23	C	1.510252	-0.907539	-0.503508
C24	C	1.440448	-0.976799	-0.573269
C25	C	1.414986	-1.047668	-0.477914
C26	C	1.535809	-1.047469	-0.598879
C27	C	1.484740	-0.976849	-0.408102
C28	C	1.605607	-0.976645	-0.529132
C29	C	1.580182	-1.047481	-0.433711
C30	C	1.782824	-0.512714	-0.503508
C31	C	1.898978	-0.512723	-0.503517
C32	C	1.510325	-0.512590	-0.776058
C33	C	1.510356	-0.512547	-0.892211
C34	C	1.510352	-0.235072	-0.503521
C35	C	1.510393	-0.116766	-0.503535
C36	C	1.446869	-0.577163	-1.064028
C37	C	1.446836	-0.577209	-0.943977
C38	C	1.510244	-0.512718	-0.231978
C39	C	1.510416	-0.512461	-0.115825
H40	H	1.078031	-0.457246	-0.449213
O41	O	1.382139	-0.643321	-1.117191
C42	C	1.441682	-0.711969	-1.180347
H43	H	1.523946	-0.718597	-1.147394
H44	H	1.445391	-0.678948	-1.263029
C45	C	1.289551	-0.814471	-1.222630
C46	C	1.390587	-0.822618	-1.182152
H47	H	1.258032	-0.882723	-1.223749
H48	H	1.249434	-0.768219	-1.180084
H49	H	1.292656	-0.786949	-1.291528
H50	H	1.387480	-0.850126	-1.113252
H51	H	1.430702	-0.868877	-1.224687
H52	H	0.906263	-0.632935	-0.621199
H53	H	1.557369	-1.078491	-0.679523
O54	O	1.369827	-0.939942	-0.643559
C55	C	1.319793	-1.026403	-0.692220
H56	H	1.325227	-1.099336	-0.639838
H57	H	1.359337	-1.043772	-0.769963
C58	C	1.197704	-0.909289	-0.775448
C59	C	1.204371	-0.998864	-0.711108
H60	H	1.126508	-0.892301	-0.787105
H61	H	1.231415	-0.851037	-0.742668
H62	H	1.230664	-0.923775	-0.840227
H63	H	1.171423	-0.984372	-0.646327
H64	H	1.170652	-1.057112	-0.743878
O65	O	0.952184	-0.446710	-0.438692
C66	C	1.015257	-0.507279	-0.371127
H67	H	1.031508	-0.587998	-0.407863
H68	H	0.973216	-0.518847	-0.293634
C69	C	1.099035	-0.349636	-0.307259
C70	C	1.119002	-0.448773	-0.352383
H71	H	1.163028	-0.313546	-0.295692
H72	H	1.056539	-0.308828	-0.352776
H73	H	1.063999	-0.359290	-0.242687
H74	H	1.154026	-0.439118	-0.416960
H75	H	1.161507	-0.489578	-0.306877
O76	O	1.123933	-0.643487	-0.631800
C77	C	1.097371	-0.620398	-0.736017
H78	H	1.067308	-0.535408	-0.741464
H79	H	1.034106	-0.677567	-0.763306
C80	C	1.231350	-0.737146	-0.798947
C81	C	1.194435	-0.632756	-0.805639
H82	H	1.291222	-0.744773	-0.841895
H83	H	1.249244	-0.752705	-0.728734
H84	H	1.178621	-0.784775	-0.821687
H85	H	1.247160	-0.585130	-0.782888
H86	H	1.176553	-0.617189	-0.875850
H87	H	1.334412	-1.078887	-0.456263
H88	H	1.463087	-0.945956	-0.327436
O89	O	1.650559	-1.084234	-0.363127
C90	C	1.623316	-1.048035	-0.262762
H91	H	1.536603	-1.028359	-0.260695
H92	H	1.670382	-0.973832	-0.243386
C93	C	1.753615	-1.159474	-0.184633
C94	C	1.647110	-1.135316	-0.182092
H95	H	1.768296	-1.213310	-0.134870
H96	H	1.771972	-1.183859	-0.252250
H97	H	1.792824	-1.097631	-0.168489
H98	H	1.607903	-1.197154	-0.198249
H99	H	1.628746	-1.110943	-0.114475
H100	H	1.686164	-0.945428	-0.550829
O101	O	1.575215	-0.446306	-0.945220
C102	C	1.552410	-0.340207	-0.918655
H103	H	1.512287	-0.337957	-0.839379
H104	H	1.498658	-0.304387	-0.980063
C105	C	1.703590	-0.278500	-1.011139
C106	C	1.654318	-0.275736	-0.913767
H107	H	1.766450	-0.238729	-1.008129
H108	H	1.718953	-0.349980	-1.029041
H109	H	1.658786	-0.248652	-1.062303
H110	H	1.699117	-0.305596	-0.862609
H111	H	1.638965	-0.204259	-0.895857
H112	H	1.392436	-0.632607	-0.899433
H113	H	1.564791	-0.457097	-1.071294
