data_functionalizedCrystal
_audit_creation_method	'MofGen! by Chris Wilmer'
_symmetry_space_group_name_H-M	'P1'
_symmetry_Int_Tables_number	1
_symmetry_cell_setting	triclinic
loop_
_symmetry_equiv_pos_as_xyz
  x,y,z
_cell_length_a	21.395364
_cell_length_b	12.827892
_cell_length_c	21.395355
_cell_angle_alpha	89.989759
_cell_angle_beta	90.024552
_cell_angle_gamma	89.967718
loop_
_atom_site_label
_atom_site_type_symbol
_atom_site_fract_x
_atom_site_fract_y
_atom_site_fract_z
Zn1	Zn	0.957917	0.415737	0.354298
Zn2	Zn	0.957844	0.590464	0.249535
Zn3	Zn	0.853132	0.415783	0.249534
Zn4	Zn	0.853126	0.590482	0.354275
O5	O	0.905505	0.503117	0.301911
O6	O	1.045586	0.438888	0.340410
O7	O	0.943926	0.567303	0.161857
O8	O	0.867066	0.269541	0.263440
O9	O	1.045532	0.567259	0.263442
O10	O	0.944051	0.269507	0.340409
O11	O	0.866995	0.438966	0.161856
O12	O	0.765454	0.438984	0.263419
O13	O	0.867055	0.567291	0.441956
O14	O	0.765449	0.567335	0.340372
O15	O	0.944045	0.438906	0.441972
O16	O	0.943920	0.736702	0.263420
O17	O	0.866984	0.736716	0.340372
C18	C	0.742717	0.503167	0.301893
C19	C	0.673076	0.503214	0.301900
C20	C	0.640413	0.436481	0.342040
C21	C	0.574978	0.436453	0.342042
C22	C	0.542208	0.503177	0.301912
C23	C	0.574879	0.569915	0.261764
C24	C	0.640313	0.569934	0.261759
C25	C	0.438497	0.597287	0.296882
C26	C	0.373064	0.597270	0.296892
C27	C	0.340387	0.503120	0.301926
C28	C	0.373152	0.408983	0.306962
C29	C	0.438586	0.409002	0.306956
C30	C	0.471256	0.503164	0.301913
C31	C	0.236772	0.436351	0.342070
C32	C	0.171335	0.436321	0.342068
C33	C	0.171237	0.569793	0.261793
C34	C	0.236672	0.569813	0.261792
C35	C	0.269436	0.503093	0.301934
C36	C	0.905460	0.774627	0.301908
C37	C	0.905499	0.890780	0.301927
C38	C	0.943613	0.942523	0.263893
C39	C	0.943654	1.062573	0.263912
C40	C	1.068928	0.503066	0.301929
C41	C	1.138570	0.503045	0.301936
C42	C	0.905562	1.230546	0.301935
C43	C	0.905573	1.114393	0.301964
C44	C	0.905557	0.503095	0.465334
C45	C	0.905579	0.503086	0.534975
C46	C	0.905489	0.503062	0.139123
C47	C	0.905589	0.502777	0.069482
C48	C	0.945666	0.436234	0.567698
C49	C	0.945665	0.436189	0.633133
C50	C	0.905584	0.503015	0.665844
C51	C	0.865489	0.569873	0.633113
C52	C	0.865487	0.569908	0.567679
C53	C	0.900621	0.597111	0.769517
C54	C	0.900628	0.597077	0.834950
C55	C	0.905588	0.502905	0.867664
C56	C	0.910554	0.408763	0.834938
C57	C	0.910552	0.408799	0.769503
C58	C	0.905582	0.502984	0.736796
C59	C	0.945676	0.435998	0.971340
C60	C	0.945671	0.435951	1.036776
C61	C	0.865498	0.569644	1.036755
C62	C	0.865500	0.569681	0.971319
C63	C	0.905592	0.502860	0.938616
H64	H	0.465260	0.332353	0.311055
H65	H	0.896588	0.673733	0.861591
H66	H	0.872900	0.935357	0.334507
H67	H	0.465097	0.673961	0.292783
H68	H	0.978312	0.381821	0.541074
H69	H	0.346392	0.673922	0.292794
H70	H	0.872937	1.069903	0.334527
H71	H	0.832853	0.624280	0.659750
H72	H	0.832861	0.624127	0.944676
H73	H	0.548193	0.624242	0.229090
H74	H	0.666906	0.624278	0.229071
H75	H	0.976217	0.897948	0.231318
H76	H	0.914594	0.332079	0.861572
H77	H	0.896415	0.673778	0.742887
H78	H	0.976283	1.107071	0.231348
H79	H	0.978307	0.381744	0.659781
H80	H	0.832841	0.624346	0.541036
H81	H	0.263267	0.624159	0.229109
H82	H	0.978318	0.381582	0.944711
H83	H	0.914594	0.332145	0.742860
H84	H	0.832857	0.624045	1.063387
H85	H	0.667085	0.382152	0.374726
H86	H	0.548379	0.382106	0.374727
H87	H	0.144556	0.624121	0.229118
H88	H	0.346548	0.332317	0.311061
H89	H	0.263449	0.382017	0.374751
H90	H	0.144742	0.381973	0.374753
H91	H	0.978313	0.381505	1.063418
