data_functionalizedCrystal
_audit_creation_method	'MofGen! by Chris Wilmer'
_symmetry_space_group_name_H-M	'P1'
_symmetry_Int_Tables_number	1
_symmetry_cell_setting	triclinic
loop_
_symmetry_equiv_pos_as_xyz
  x,y,z
_cell_length_a	26.809956
_cell_length_b	11.026607
_cell_length_c	11.026607
_cell_angle_alpha	108.586017
_cell_angle_beta	90.007514
_cell_angle_gamma	89.989925
loop_
_atom_site_label
_atom_site_type_symbol
_atom_site_fract_x
_atom_site_fract_y
_atom_site_fract_z
O1	O	0.041478	-1.726739	-0.533608
O2	O	0.041479	-1.360160	-0.472844
O3	O	0.041477	-1.513068	-0.319936
O4	O	0.041481	-1.573831	-0.686516
O5	O	-0.041482	-1.513037	-0.319958
O6	O	-0.041480	-1.360129	-0.472866
O7	O	-0.041481	-1.726709	-0.533630
Zn8	Zn	-0.054652	-1.543414	-0.503251
Zn9	Zn	0.054650	-1.543454	-0.503223
O10	O	-0.041479	-1.573801	-0.686538
C11	C	-0.000000	-1.312485	-0.461645
C12	C	-0.000000	-1.170471	-0.428228
N13	N	-0.129248	-1.543396	-0.503272
C14	C	-0.000002	-1.501843	-0.272287
C15	C	-0.000000	-1.468426	-0.130273
C16	C	-0.473875	-1.611156	-0.435534
C17	C	-0.682753	-1.611182	-0.435521
O18	O	-0.709757	-1.668743	-0.377924
N19	N	-0.708875	-1.543455	-0.503196
C20	C	-0.682775	-1.475710	-0.570872
O21	O	-0.709786	-1.418095	-0.628423
C22	C	-0.473898	-1.475678	-0.570877
C23	C	-0.447778	-1.543419	-0.503208
C24	C	-0.447755	-1.678890	-0.367869
C25	C	-0.395539	-1.678889	-0.367879
C26	C	-0.369442	-1.611153	-0.435553
C27	C	-0.395562	-1.543418	-0.503217
C28	C	-0.447799	-1.407927	-0.638545
C29	C	-0.395576	-1.407922	-0.638537
C30	C	-0.369457	-1.475663	-0.570868
C31	C	-0.317249	-1.475680	-0.570901
N32	N	-0.291127	-1.543407	-0.503226
C33	C	-0.317223	-1.611143	-0.435552
C34	C	-0.792438	-1.475734	-0.570867
C35	C	-0.844657	-1.475744	-0.570868
C36	C	-0.844631	-1.611214	-0.435515
C37	C	-0.792411	-1.611210	-0.435522
C38	C	-0.766316	-1.543461	-0.503192
C39	C	-0.207565	-1.611135	-0.435578
C40	C	-0.155345	-1.611132	-0.435598
C41	C	-0.155375	-1.475658	-0.570945
C42	C	-0.207591	-1.475666	-0.570931
C43	C	-0.233685	-1.543407	-0.503238
O44	O	-0.290212	-1.418137	-0.628456
O45	O	-0.290203	-1.668727	-0.377987
C46	C	-0.526091	-1.611157	-0.435524
C47	C	-0.552211	-1.543422	-0.503189
C48	C	-0.526114	-1.475686	-0.570863
C49	C	-0.604430	-1.543432	-0.503190
C50	C	-0.630527	-1.611168	-0.435516
C51	C	-0.604404	-1.678895	-0.367841
C52	C	-0.552188	-1.678893	-0.367850
C53	C	-0.552237	-1.407960	-0.638538
C54	C	-0.604453	-1.407968	-0.638524
C55	C	-0.630550	-1.475704	-0.570850
N56	N	0.129246	-1.543480	-0.503194
C57	C	-0.000000	-1.774384	-0.544828
C58	C	0.000003	-1.916398	-0.578245
C59	C	0.000001	-1.116821	-0.520498
C60	C	0.000001	-0.970043	-0.485962
C61	C	0.000001	-1.585026	-0.734187
C62	C	0.000003	-1.618443	-0.876200
C63	C	0.000000	-1.560695	-0.076624
C64	C	0.000002	-1.526160	0.070155
H65	H	-0.134079	-1.666300	-0.380495
Br66	Br	0.000005	-1.734981	-0.181171
H67	H	-0.134119	-1.420512	-0.626049
H68	H	-0.530925	-1.734055	-0.312748
H69	H	0.000003	-1.363863	-0.067540
Br70	Br	-0.243038	-1.383749	-0.662791
Br71	Br	-0.000007	-1.065924	-0.253943
Br72	Br	0.000007	-1.792736	0.019260
Br73	Br	0.000010	-1.351868	0.174697
Br74	Br	-0.242970	-1.703071	-0.343707
H75	H	-0.468998	-1.734048	-0.312755
Br76	Br	-0.360097	-1.770819	-0.276032
Br77	Br	-0.756969	-1.703148	-0.343682
H78	H	0.000013	-0.907314	-0.381393
H79	H	-0.865888	-1.666370	-0.380414
H80	H	-0.865920	-1.420599	-0.625986
Br81	Br	-0.639831	-1.770830	-0.276005
Br82	Br	-0.000005	-1.020937	-0.752539
H83	H	-0.469058	-1.352765	-0.693646
Br84	Br	-0.757028	-1.383783	-0.662716
H85	H	-0.374332	-1.352748	-0.693640
H86	H	-0.530993	-1.352799	-0.693645
Br87	Br	-0.639896	-1.316034	-0.730378
H88	H	-0.000001	-1.179555	-0.625061
