data_functionalizedCrystal
_audit_creation_method	'MofGen! by Chris Wilmer'
_symmetry_space_group_name_H-M	'P1'
_symmetry_Int_Tables_number	1
_symmetry_cell_setting	triclinic
loop_
_symmetry_equiv_pos_as_xyz
  x,y,z
_cell_length_a	12.811438
_cell_length_b	12.837942
_cell_length_c	15.186229
_cell_angle_alpha	89.996774
_cell_angle_beta	84.565184
_cell_angle_gamma	89.411773
loop_
_atom_site_label
_atom_site_type_symbol
_atom_site_fract_x
_atom_site_fract_y
_atom_site_fract_z
O1	O	1.406645	0.139685	-0.185553
O2	O	1.906645	0.639685	0.314447
O3	O	1.102580	0.154873	-0.161274
O4	O	1.602580	0.654873	0.338726
O5	O	1.247870	-0.003653	-0.172870
O6	O	1.747870	0.496347	0.327130
O7	O	1.261355	0.298211	-0.173958
O8	O	1.761355	0.798211	0.326042
O9	O	1.247859	-0.003655	-0.026412
O10	O	1.747859	0.496345	0.473588
O11	O	1.102569	0.154871	-0.014816
O12	O	1.602569	0.654871	0.485184
O13	O	1.406634	0.139683	-0.039095
O14	O	1.906634	0.639683	0.460905
Zn15	Zn	1.254600	0.147277	-0.003702
Zn16	Zn	1.754600	0.647277	0.496298
Zn17	Zn	1.254614	0.147280	-0.196667
Zn18	Zn	1.754614	0.647280	0.303333
O19	O	1.261344	0.298209	-0.027499
O20	O	1.761344	0.798209	0.472501
C21	C	1.063385	0.154021	-0.084916
C22	C	1.563385	0.654021	0.415084
C23	C	0.946612	0.151472	-0.075592
C24	C	1.446612	0.651472	0.424408
C25	C	0.782020	0.147879	0.017379
C26	C	1.282020	0.647879	0.517379
C27	C	0.891739	0.150274	0.008622
C28	C	1.391739	0.650274	0.508622
C29	C	0.891759	0.150278	-0.151055
C30	C	1.391759	0.650278	0.348945
C31	C	0.782041	0.147882	-0.142298
C32	C	1.282041	0.647882	0.357702
C33	C	0.727175	0.146681	-0.058078
C34	C	1.227175	0.646681	0.441922
C35	C	0.617455	0.144278	-0.049322
C36	C	1.117455	0.644278	0.450678
C37	C	0.617477	0.144289	-0.208999
C38	C	1.117477	0.644289	0.291001
C39	C	0.727195	0.146685	-0.217756
C40	C	1.227195	0.646685	0.282244
C41	C	1.243309	-0.042294	-0.099278
C42	C	1.743309	0.457706	0.400722
C43	C	1.229723	-0.157430	-0.098194
C44	C	1.729723	0.342570	0.401806
C45	C	1.393053	-0.397684	-0.111254
C46	C	1.893053	0.102316	0.388746
C47	C	1.380293	-0.505864	-0.110237
C48	C	1.880293	-0.005864	0.389763
C49	C	1.191443	-0.481974	-0.095148
C50	C	1.691443	0.018026	0.404852
C51	C	1.204203	-0.373794	-0.096166
C52	C	1.704203	0.126206	0.403834
C53	C	1.305012	-0.331652	-0.104218
C54	C	1.805012	0.168348	0.395782
C55	C	1.317771	-0.223469	-0.105229
C56	C	1.817771	0.276531	0.394771
C57	C	1.128922	-0.199582	-0.090147
C58	C	1.628922	0.300418	0.409853
C59	C	1.116162	-0.307762	-0.089129
C60	C	1.616162	0.192238	0.410871
C61	C	1.445829	0.140535	-0.115455
C62	C	1.945829	0.640535	0.384545
C63	C	1.562602	0.143084	-0.124785
C64	C	2.062602	0.643084	0.375215
C65	C	1.265905	0.336850	-0.101094
C66	C	1.765905	0.836850	0.398906
C67	C	1.279491	0.451986	-0.102183
C68	C	1.779491	0.951986	0.397817
N69	N	1.254597	0.147274	0.127991
N70	N	1.754597	0.647274	0.627991
N71	N	1.254624	0.147274	-0.328361
N72	N	1.754624	0.647274	0.171639
C73	C	1.318959	0.077102	0.348577
C74	C	1.818959	0.577102	0.848577
C75	C	1.318962	0.077100	0.440766
C76	C	1.818962	0.577100	0.940766
C77	C	1.190255	0.217449	0.451047
C78	C	1.690255	0.717449	0.951047
C79	C	1.190248	0.217446	0.358860
C80	C	1.690248	0.717446	0.858860
C81	C	1.254605	0.147273	0.307627
C82	C	1.754605	0.647273	0.807627
C83	C	1.254616	0.147274	0.492003
C84	C	1.754616	0.647274	0.992003
C85	C	1.254619	0.147272	0.591959
C86	C	1.754619	0.647272	1.091959
C87	C	1.254601	0.147274	0.207664
C88	C	1.754601	0.647274	0.707664
H89	H	0.936389	0.151253	0.070068
H90	H	1.436389	0.651253	0.570068
Cl91	Cl	1.399861	-0.011118	0.284173
Cl92	Cl	1.899861	0.488882	0.784173
Cl93	Cl	1.109357	0.305665	0.515458
Cl94	Cl	1.609357	0.805665	1.015458
H95	H	1.399854	-0.189160	-0.111782
H96	H	1.899854	0.310840	0.388218
Cl97	Cl	1.399864	-0.011121	0.492244
Cl98	Cl	1.899864	0.488879	0.992244
Cl99	Cl	1.109334	0.305663	0.307375
Cl100	Cl	1.609334	0.805663	0.807375
H101	H	1.475135	-0.363372	-0.117802
H102	H	1.975135	0.136628	0.382198
Cl103	Cl	0.713043	0.146346	0.123252
Cl104	Cl	1.213043	0.646346	0.623252
Cl105	Cl	1.018235	-0.116564	-0.081289
Cl106	Cl	1.518235	0.383436	0.418711
Cl107	Cl	0.548482	0.142763	0.056553
Cl108	Cl	1.048482	0.642763	0.556553
H109	H	0.936449	0.151265	-0.219623
H110	H	1.436449	0.651265	0.280377
Cl111	Cl	0.796179	0.148191	-0.323626
Cl112	Cl	1.296179	0.648191	0.176374
H113	H	1.451986	-0.559624	-0.115969
H114	H	1.951986	-0.059624	0.384031
Cl115	Cl	0.548521	0.142818	-0.303865
Cl116	Cl	1.048521	0.642818	0.196135
Cl117	Cl	0.989438	-0.360751	-0.079015
Cl118	Cl	1.489438	0.139249	0.420985
Cl119	Cl	1.064723	-0.534971	-0.085053
Cl120	Cl	1.564723	-0.034971	0.414947
