data_functionalizedCrystal
_audit_creation_method	'MofGen! by Chris Wilmer'
_symmetry_space_group_name_H-M	'P1'
_symmetry_Int_Tables_number	1
_symmetry_cell_setting	triclinic
loop_
_symmetry_equiv_pos_as_xyz
  x,y,z
_cell_length_a	19.077269
_cell_length_b	19.076808
_cell_length_c	12.759393
_cell_angle_alpha	92.335254
_cell_angle_beta	87.722654
_cell_angle_gamma	90.118890
loop_
_atom_site_label
_atom_site_type_symbol
_atom_site_fract_x
_atom_site_fract_y
_atom_site_fract_z
Zn1	Zn	1.062981	-0.322875	0.510869
Zn2	Zn	1.058166	-0.440405	0.328412
Zn3	Zn	0.945472	-0.318192	0.342532
Zn4	Zn	0.940724	-0.435633	0.511378
O5	O	1.001835	-0.379276	0.423298
O6	O	1.160670	-0.342423	0.480543
O7	O	1.043189	-0.424230	0.183263
O8	O	0.965061	-0.220477	0.370558
O9	O	1.157133	-0.428772	0.346493
O10	O	1.051395	-0.223918	0.494235
O11	O	0.960393	-0.334440	0.193637
O12	O	0.846514	-0.329813	0.371052
O13	O	0.956969	-0.420638	0.658332
O14	O	0.843025	-0.416097	0.495103
O15	O	1.046791	-0.337796	0.657958
O16	O	1.038585	-0.538108	0.346987
O17	O	0.952301	-0.534602	0.481411
C18	C	0.819274	-0.371929	0.434666
C19	C	0.741173	-0.368803	0.439553
C20	C	0.702639	-0.412219	0.371960
C21	C	0.629255	-0.409282	0.376566
C22	C	0.594406	-0.362925	0.448760
C23	C	0.632945	-0.319508	0.516360
C24	C	0.706328	-0.322449	0.511758
C25	C	0.375132	-0.349319	0.470021
C26	C	0.301744	-0.346380	0.474616
C27	C	0.298059	-0.436155	0.334823
C28	C	0.371444	-0.439089	0.330223
C29	C	0.409976	-0.395674	0.397827
N30	N	0.519395	-0.359920	0.453468
N31	N	0.484985	-0.398683	0.393124
C32	C	0.994424	-0.561853	0.412744
C33	C	0.991318	-0.639963	0.408260
C34	C	1.034774	-0.678389	0.470601
C35	C	1.031853	-0.751782	0.466390
C36	C	0.985478	-0.786747	0.399831
C37	C	0.942017	-0.748316	0.337487
C38	C	0.944936	-0.674924	0.341705
C39	C	0.971931	-1.006057	0.380312
C40	C	0.969017	-1.079454	0.376097
C41	C	1.058852	-1.082915	0.505002
C42	C	1.061769	-1.009522	0.509209
C43	C	1.018306	-0.971097	0.446869
N44	N	0.982493	-0.861766	0.395523
N45	N	1.021288	-0.896080	0.451184
C46	C	1.185110	-0.386652	0.411886
C47	C	1.263210	-0.389795	0.407023
C48	C	1.001888	-0.379207	0.697332
C49	C	1.001910	-0.379178	0.814109
C50	C	1.009295	-0.195987	0.433915
C51	C	1.012473	-0.117880	0.438439
C52	C	1.001826	-0.379296	0.150330
C53	C	1.001948	-0.379133	0.033556
C54	C	1.048686	-0.336038	0.868778
C55	C	1.048704	-0.336013	0.978503
C56	C	0.955166	-0.422275	0.978880
C57	C	0.955146	-0.422295	0.869158
C58	C	1.102691	-0.286237	0.868561
C59	C	1.102709	-0.286213	0.978286
H60	H	0.731008	-0.449965	0.313168
C61	C	0.632984	-0.498302	0.237910
C62	C	0.586899	-0.457000	0.302257
H63	H	0.606834	-0.527759	0.192029
H64	H	0.660531	-0.526368	0.280262
H65	H	0.662835	-0.468788	0.197785
H66	H	0.557051	-0.486514	0.342388
H67	H	0.559340	-0.428932	0.259900
H68	H	1.072541	-0.649926	0.524796
C69	C	1.106128	-0.898557	0.572912
C70	C	1.112742	-0.971089	0.582378
H71	H	1.137601	-0.874832	0.618079
H72	H	1.059393	-0.884671	0.591859
H73	H	1.116916	-0.886977	0.502378
H74	H	1.101949	-0.982670	0.652911
H75	H	1.159488	-0.984980	0.563437
C76	C	1.156640	-0.374297	0.752293
C77	C	1.171394	-0.315373	0.816738
H78	H	1.199055	-0.392286	0.720306
H79	H	1.126018	-0.361324	0.699477
H80	H	1.134852	-0.409246	0.793398
H81	H	1.193178	-0.280421	0.775631
H82	H	1.202028	-0.328344	0.869561
C83	C	0.461492	-0.258119	0.485139
C84	C	0.417486	-0.301596	0.544320
H85	H	0.487645	-0.228659	0.531011
H86	H	0.433938	-0.230056	0.442791
H87	H	0.492744	-0.286158	0.441491
H88	H	0.386230	-0.273557	0.587963
H89	H	0.445042	-0.329661	0.586686
H90	H	0.936542	-0.974778	0.329551
H91	H	0.904255	-0.776790	0.283298
H92	H	0.399813	-0.476836	0.271434
C93	C	0.615198	-0.199653	0.576133
C94	C	0.594644	-0.268552	0.595722
H95	H	0.591557	-0.168195	0.625134
H96	H	0.603559	-0.188833	0.506931
H97	H	0.664418	-0.195203	0.583066
H98	H	0.545424	-0.273004	0.588781
H99	H	0.606278	-0.279375	0.664941
H100	H	1.085325	-0.233721	1.016531
C101	C	1.094264	-1.196954	0.555785
C102	C	1.106618	-1.125153	0.573534
H103	H	1.123751	-1.223028	0.598103
H104	H	1.104099	-1.209420	0.483882
H105	H	1.046566	-1.207111	0.573349
H106	H	1.154316	-1.114996	0.555962
H107	H	1.096789	-1.112683	0.645453
C108	C	1.190552	-0.376423	0.971229
C109	C	1.175374	-0.308845	1.012792
H110	H	1.235407	-0.390394	0.992541
H111	H	1.190545	-0.376438	0.896788
H112	H	1.156000	-0.408269	0.996188
H113	H	1.209922	-0.276998	0.987826
H114	H	1.175386	-0.308825	1.087248
C115	C	0.916043	-0.539908	0.830601
C116	C	0.903718	-0.469707	0.809070
H117	H	0.884292	-0.569176	0.793500
H118	H	0.909366	-0.546060	0.903818
H119	H	0.962830	-0.552098	0.809068
H120	H	0.856932	-0.457515	0.830610
H121	H	0.910389	-0.463551	0.735837
H122	H	0.909548	-0.643639	0.290941
C123	C	0.956021	-1.161668	0.230608
C124	C	0.918038	-1.117886	0.302926
H125	H	0.924551	-1.185389	0.185432
H126	H	0.981479	-1.195055	0.267132
H127	H	0.987785	-1.134249	0.190204
H128	H	0.886278	-1.145305	0.343335
H129	H	0.892568	-1.084495	0.266399
C130	C	0.219648	-0.333428	0.621679
C131	C	0.263431	-0.295425	0.553977
H132	H	0.195991	-0.301970	0.670663
H133	H	0.247047	-0.365217	0.658227
H134	H	0.186204	-0.358862	0.582060
H135	H	0.296878	-0.269994	0.593596
H136	H	0.236030	-0.263623	0.517427
H137	H	0.737701	-0.287095	0.566799
H138	H	0.266678	-0.471502	0.279785
C139	C	1.120968	-0.747832	0.594188
C140	C	1.079637	-0.794020	0.534894
H141	H	1.150475	-0.773909	0.636471
H142	H	1.091484	-0.717990	0.637907
H143	H	1.148986	-0.720279	0.548395
H144	H	1.051616	-0.821569	0.580688
H145	H	1.109125	-0.823874	0.491172
H146	H	0.917092	-0.457378	1.023714
H147	H	1.090329	-0.231231	0.842853
