data_functionalizedCrystal
_audit_creation_method	'MofGen! by Chris Wilmer'
_symmetry_space_group_name_H-M	'P1'
_symmetry_Int_Tables_number	1
_symmetry_cell_setting	triclinic
loop_
_symmetry_equiv_pos_as_xyz
  x,y,z
_cell_length_a	10.489741
_cell_length_b	10.489741
_cell_length_c	9.565339
_cell_angle_alpha	89.999484
_cell_angle_beta	89.999100
_cell_angle_gamma	95.460826
loop_
_atom_site_label
_atom_site_type_symbol
_atom_site_fract_x
_atom_site_fract_y
_atom_site_fract_z
O1	O	1.694053	-0.179959	-0.116173
O2	O	1.322857	-0.196852	-0.116194
O3	O	1.516901	-0.002807	-0.116175
O4	O	1.500009	-0.374003	-0.116192
O5	O	1.516886	-0.002819	0.116345
O6	O	1.322842	-0.196864	0.116326
O7	O	1.694038	-0.179971	0.116347
Zn8	Zn	1.508437	-0.188419	0.153254
Zn9	Zn	1.508458	-0.188403	-0.153101
O10	O	1.499993	-0.374015	0.116328
C11	C	1.275318	-0.195582	0.000063
C12	C	1.133688	-0.191765	0.000055
C13	C	1.065548	-0.068300	0.000074
C14	C	0.973429	-0.126617	-0.114571
C15	C	0.973448	-0.126659	0.114676
C16	C	1.043435	-0.250133	-0.114684
C17	C	1.043463	-0.250157	0.114665
C18	C	0.951371	-0.308564	-0.000007
C19	C	1.515618	0.044718	0.000084
C20	C	1.511801	0.186348	0.000082
C21	C	1.741577	-0.181241	0.000087
C22	C	1.883206	-0.185058	0.000086
C23	C	1.501277	-0.421541	0.000066
C24	C	1.505094	-0.563170	0.000059
N25	N	1.508433	-0.188429	0.362334
C26	C	1.388336	0.254488	0.000064
C27	C	1.446652	0.346604	0.114712
C28	C	1.446696	0.346591	-0.114534
C29	C	1.570168	0.276599	0.114824
C30	C	1.570195	0.276576	-0.114525
C31	C	1.628600	0.368665	0.000150
N32	N	1.508472	-0.188383	-0.362180
C33	C	1.418666	-0.278138	0.453528
C34	C	1.534163	-0.303949	0.546712
C35	C	1.392986	-0.162629	0.546704
C36	C	1.623988	-0.214298	0.453466
C37	C	1.482735	-0.072928	0.453451
C38	C	1.598314	-0.098690	0.546593
H39	H	0.901947	-0.410168	-0.000074
H40	H	1.730204	0.418089	0.000220
C41	C	1.039484	-0.015123	-0.325511
C42	C	0.931565	-0.056086	-0.245405
H43	H	1.013642	0.028433	-0.406274
H44	H	1.081821	-0.087192	-0.353075
H45	H	1.096168	0.041189	-0.271516
H46	H	0.874885	-0.112406	-0.299398
H47	H	0.889208	0.015993	-0.217844
C48	C	1.250320	0.330300	0.245337
C49	C	1.376126	0.388475	0.245548
H50	H	1.206775	0.356152	0.326103
H51	H	1.251564	0.239880	0.245854
H52	H	1.207294	0.355432	0.163917
H53	H	1.419155	0.363334	0.326964
H54	H	1.374888	0.478914	0.245044
H55	H	1.394447	0.377560	-0.211470
H56	H	1.555926	-0.401606	0.587676
C57	C	1.025904	-0.446016	-0.246145
C58	C	1.085049	-0.320587	-0.245683
H59	H	1.051605	-0.489507	-0.327015
H60	H	0.935569	-0.444038	-0.246911
H61	H	1.050447	-0.489572	-0.164831
H62	H	1.060499	-0.277028	-0.326993
H63	H	1.175404	-0.322559	-0.244930
H64	H	1.342823	-0.354073	0.412665
H65	H	1.286824	0.204837	0.000174
C66	C	1.643501	0.101805	0.244680
C67	C	1.640614	0.234981	0.245826
H68	H	1.686982	0.076112	0.325560
H69	H	1.687075	0.077284	0.163384
H70	H	1.558400	0.061701	0.244345
H71	H	1.725716	0.275085	0.246151
H72	H	1.597043	0.259515	0.327144
C73	C	1.050442	-0.255797	0.365455
C74	C	1.085388	-0.320624	0.245506
H75	H	1.076337	-0.299291	0.446236
H76	H	0.960186	-0.253211	0.366867
H77	H	1.091123	-0.170929	0.364617
H78	H	1.044700	-0.405490	0.246339
H79	H	1.175661	-0.323225	0.244094
C80	C	1.741695	-0.355361	0.317058
C81	C	1.755832	-0.243976	0.398473
H82	H	1.823086	-0.373711	0.283128
H83	H	1.686654	-0.343026	0.240388
H84	H	1.705774	-0.424892	0.372454
H85	H	1.791744	-0.174443	0.343073
H86	H	1.810894	-0.256303	0.475153
C87	C	1.575840	0.269605	-0.365315
C88	C	1.640665	0.234655	-0.245367
H89	H	1.619335	0.243714	-0.446097
H90	H	1.573253	0.359861	-0.366723
H91	H	1.490972	0.228924	-0.364481
H92	H	1.725530	0.275345	-0.246197
H93	H	1.643266	0.144383	-0.243960
H94	H	0.942463	-0.074401	0.211599
H95	H	1.674328	-0.022802	0.587199
C96	C	1.342669	0.044577	0.315485
C97	C	1.453311	0.058861	0.398087
H98	H	1.324500	0.125937	0.281298
H99	H	1.272697	0.008540	0.370142
H100	H	1.355786	-0.010420	0.238979
H101	H	1.440190	0.113850	0.474599
H102	H	1.523299	0.094916	0.343427
C103	C	1.208353	0.087475	0.120048
C104	C	1.132585	0.068732	-0.000066
H105	H	1.249732	0.172073	0.119958
H106	H	1.270925	0.027716	0.120925
H107	H	1.155778	0.075368	0.200721
H108	H	1.185161	0.080831	-0.080739
H109	H	1.070004	0.128510	-0.000956
C110	C	1.167307	-0.227273	0.554994
C111	C	1.261167	-0.133179	0.601983
H112	H	1.085926	-0.209092	0.589110
H113	H	1.186189	-0.308680	0.588307
H114	H	1.166139	-0.227845	0.455692
H115	H	1.262341	-0.132613	0.701286
H116	H	1.242280	-0.051751	0.568677
