data_functionalizedCrystal
_audit_creation_method	'MofGen! by Chris Wilmer'
_symmetry_space_group_name_H-M	'P1'
_symmetry_Int_Tables_number	1
_symmetry_cell_setting	triclinic
loop_
_symmetry_equiv_pos_as_xyz
  x,y,z
_cell_length_a	14.519731
_cell_length_b	14.519709
_cell_length_c	16.053802
_cell_angle_alpha	92.569364
_cell_angle_beta	87.413705
_cell_angle_gamma	83.684499
loop_
_atom_site_label
_atom_site_type_symbol
_atom_site_fract_x
_atom_site_fract_y
_atom_site_fract_z
O1	O	1.227740	0.117108	-0.069433
O2	O	1.561073	0.450442	0.263901
O3	O	1.894406	0.783775	0.597234
O4	O	0.959266	0.131324	-0.069434
O5	O	1.292599	0.464658	0.263899
O6	O	1.625932	0.797991	0.597232
O7	O	1.100620	-0.010021	-0.069426
O8	O	1.433954	0.323312	0.263907
O9	O	1.767287	0.656646	0.597241
O10	O	1.086385	0.258454	-0.069441
O11	O	1.419718	0.591787	0.263892
O12	O	1.753052	0.925121	0.597226
O13	O	1.092840	-0.002273	0.069432
O14	O	1.426173	0.331060	0.402766
O15	O	1.759507	0.664393	0.736099
O16	O	0.951485	0.139072	0.069424
O17	O	1.284818	0.472406	0.402757
O18	O	1.618152	0.805739	0.736091
O19	O	1.219959	0.124856	0.069426
O20	O	1.553293	0.458190	0.402759
O21	O	1.886626	0.791523	0.736092
Zn22	Zn	1.084487	0.133194	0.091472
Zn23	Zn	1.417820	0.466528	0.424805
Zn24	Zn	1.751153	0.799861	0.758138
Zn25	Zn	1.094738	0.122986	-0.091480
Zn26	Zn	1.428071	0.456320	0.241853
Zn27	Zn	1.761405	0.789653	0.575186
O28	O	1.078604	0.266202	0.069417
O29	O	1.411938	0.599535	0.402751
O30	O	1.745271	0.932868	0.736084
C31	C	0.921016	0.134532	-0.000005
C32	C	1.254349	0.467866	0.333328
C33	C	1.587683	0.801199	0.666661
C34	C	0.818636	0.132536	-0.000006
C35	C	1.151969	0.465869	0.333328
C36	C	1.485302	0.799203	0.666661
C37	C	1.096067	-0.040507	0.000003
C38	C	1.429400	0.292826	0.333337
C39	C	1.762733	0.626160	0.666670
C40	C	1.094078	-0.142888	0.000004
C41	C	1.427412	0.190445	0.333337
C42	C	1.760745	0.523778	0.666670
C43	C	0.735492	0.130914	-0.000009
C44	C	1.068825	0.464247	0.333325
C45	C	1.402158	0.797581	0.666658
C46	C	0.631183	0.128887	-0.000009
C47	C	0.964516	0.462221	0.333324
C48	C	1.297850	0.795554	0.666658
C49	C	0.548044	0.127279	-0.000009
C50	C	0.881377	0.460612	0.333324
C51	C	1.214711	0.793946	0.666658
C52	C	0.443729	0.125253	-0.000011
C53	C	0.777062	0.458586	0.333323
C54	C	1.110395	0.791919	0.666656
C55	C	1.086760	-0.517786	-0.000018
C56	C	1.420094	-0.184453	0.333315
C57	C	1.753427	0.148881	0.666649
C58	C	1.088793	-0.413477	-0.000012
C59	C	1.422126	-0.080144	0.333322
C60	C	1.755459	0.253189	0.666655
C61	C	1.090419	-0.330340	-0.000006
C62	C	1.423752	0.002993	0.333327
C63	C	1.757086	0.336326	0.666660
C64	C	1.092452	-0.226025	-0.000002
C65	C	1.425785	0.107308	0.333332
C66	C	1.759119	0.440641	0.666665
C67	C	1.258209	0.121648	-0.000005
C68	C	1.591542	0.454982	0.333328
C69	C	1.924876	0.788315	0.666661
C70	C	1.360590	0.123644	-0.000010
C71	C	1.693923	0.456977	0.333323
C72	C	2.027256	0.790311	0.666656
C73	C	1.083158	0.296688	-0.000014
C74	C	1.416492	0.630021	0.333319
C75	C	1.749825	0.963354	0.666653
C76	C	1.085147	0.399069	-0.000020
C77	C	1.418480	0.732402	0.333314
C78	C	1.751813	1.065735	0.666647
N79	N	1.077497	0.140161	0.216332
N80	N	1.410831	0.473494	0.549665
N81	N	1.744164	0.806827	0.882998
N82	N	1.101735	0.116013	-0.216340
N83	N	1.435068	0.449346	0.116993
N84	N	1.768402	0.782679	0.450326
C85	C	1.137666	0.080040	0.260029
C86	C	1.470999	0.413373	0.593362
C87	C	1.804333	0.746706	0.926696
C88	C	1.132785	0.084921	0.347436
C89	C	1.466119	0.418255	0.680769
C90	C	1.799452	0.751588	1.014102
C91	C	1.067740	0.149929	0.391143
C92	C	1.401073	0.483263	0.724476
C93	C	1.734406	0.816596	1.057810
C94	C	1.007565	0.210053	0.347439
C95	C	1.340898	0.543387	0.680773
C96	C	1.674231	0.876720	1.014106
C97	C	1.012442	0.205166	0.260034
C98	C	1.345775	0.538500	0.593368
C99	C	1.679108	0.871833	0.926701
C100	C	1.046437	0.171250	0.652551
C101	C	1.379770	0.504583	0.985885
C102	C	1.713103	0.837916	1.319218
C103	C	1.041566	0.176134	0.739962
C104	C	1.374899	0.509467	1.073296
C105	C	1.708233	0.842801	1.406629
C106	C	1.166786	0.051000	0.739952
C107	C	1.500120	0.384333	1.073286
C108	C	1.833453	0.717667	1.406619
C109	C	1.171661	0.046123	0.652546
C110	C	1.504994	0.379456	0.985879
C111	C	1.838328	0.712789	1.319213
C112	C	1.111483	0.106243	0.608850
C113	C	1.444816	0.439577	0.942183
C114	C	1.778149	0.772910	1.275517
N115	N	1.062751	0.154923	0.480486
N116	N	1.396085	0.488256	0.813820
N117	N	1.729418	0.821590	1.147153
N118	N	1.116467	0.101245	0.519508
N119	N	1.449801	0.434578	0.852841
N120	N	1.783134	0.767911	1.186175
H121	H	1.190637	0.027107	0.224448
H122	H	1.523970	0.360440	0.557782
H123	H	1.857303	0.693774	0.891115
O124	O	0.947532	0.270011	0.212911
O125	O	1.280865	0.603345	0.546245
O126	O	1.614198	0.936678	0.879578
H127	H	0.904866	0.228850	0.173119
H128	H	1.238199	0.562183	0.506453
H129	H	1.571533	0.895517	0.839786
O130	O	1.197701	0.020087	0.394559
O131	O	1.531035	0.353420	0.727893
O132	O	1.864368	0.686753	1.061226
H133	H	1.186793	-0.052776	0.377791
H134	H	1.520126	0.280558	0.711124
H135	H	1.853460	0.613891	1.044457
O136	O	1.241809	-0.024001	0.605403
O137	O	1.575143	0.309333	0.938737
O138	O	1.908476	0.642666	1.272070
H139	H	1.282823	-0.064995	0.650474
H140	H	1.616157	0.268339	0.983808
H141	H	1.949490	0.601672	1.317141
O142	O	1.231684	-0.013850	0.787079
O143	O	1.565017	0.319483	1.120412
O144	O	1.898350	0.652816	1.453746
H145	H	1.217363	0.000460	0.855200
H146	H	1.550696	0.333794	1.188533
H147	H	1.884029	0.667127	1.521867
O148	O	0.971396	0.246242	0.787109
O149	O	1.304729	0.579575	1.120443
O150	O	1.638063	0.912908	1.453776
H151	H	0.930360	0.287219	0.742042
H152	H	1.263694	0.620552	1.075375
H153	H	1.597027	0.953885	1.408708
H154	H	0.997439	0.220204	0.616981
H155	H	1.330772	0.553537	0.950314
H156	H	1.664105	0.886871	1.283648
O157	O	0.937409	0.280176	0.394575
O158	O	1.270743	0.613509	0.727908
O159	O	1.604076	0.946842	1.061241
H160	H	0.944133	0.273483	0.462695
H161	H	1.277466	0.606816	0.796028
H162	H	1.610800	0.940150	1.129361
