data_functionalizedCrystal
_audit_creation_method	'MofGen! by Chris Wilmer'
_symmetry_space_group_name_H-M	'P1'
_symmetry_Int_Tables_number	1
_symmetry_cell_setting	triclinic
loop_
_symmetry_equiv_pos_as_xyz
  x,y,z
_cell_length_a	9.730223
_cell_length_b	10.654550
_cell_length_c	10.654545
_cell_angle_alpha	95.515995
_cell_angle_beta	90.002833
_cell_angle_gamma	89.995747
loop_
_atom_site_label
_atom_site_type_symbol
_atom_site_fract_x
_atom_site_fract_y
_atom_site_fract_z
O1	O	-0.114276	0.176372	-1.667842
O2	O	0.385724	0.676372	-1.167842
O3	O	-0.114282	0.193184	-1.302363
O4	O	0.385718	0.693184	-0.802363
O5	O	-0.114270	0.002038	-1.493506
O6	O	0.385730	0.502038	-0.993506
O7	O	-0.114287	0.367517	-1.476700
O8	O	0.385713	0.867517	-0.976700
O9	O	0.114310	0.002033	-1.493493
O10	O	0.614310	0.502033	-0.993493
O11	O	0.114298	0.193178	-1.302351
O12	O	0.614298	0.693178	-0.802351
O13	O	0.114304	0.176366	-1.667830
O14	O	0.614304	0.676366	-1.167830
Zn15	Zn	0.150593	0.184771	-1.485088
Zn16	Zn	0.650593	0.684771	-0.985088
Zn17	Zn	-0.150571	0.184778	-1.485105
Zn18	Zn	0.349429	0.684778	-0.985105
O19	O	0.114292	0.367512	-1.476687
O20	O	0.614292	0.867512	-0.976687
C21	C	0.000008	0.191948	-1.255559
C22	C	0.500008	0.691948	-0.755559
C23	C	0.000006	0.188258	-1.116115
C24	C	0.500006	0.688258	-0.616115
C25	C	0.000019	-0.044762	-1.492266
C26	C	0.500019	0.455238	-0.992266
C27	C	0.000017	-0.184206	-1.488574
C28	C	0.500017	0.315794	-0.988574
N29	N	0.356130	0.184766	-1.485086
N30	N	0.856130	0.684766	-0.985086
N31	N	-0.356107	0.184774	-1.485117
N32	N	0.143893	0.684774	-0.985117
C33	C	0.428061	0.100163	-1.569753
C34	C	0.928061	0.600163	-1.069753
C35	C	0.571944	0.100163	-1.569766
C36	C	1.071944	0.600163	-1.069766
C37	C	0.571952	0.269381	-1.400440
C38	C	1.071952	0.769381	-0.900440
C39	C	0.428071	0.269374	-1.400423
C40	C	0.928071	0.769374	-0.900423
C41	C	0.000018	-0.263693	-1.601115
C42	C	0.500018	0.236307	-1.101115
C43	C	0.000002	-0.394714	-1.597639
C44	C	0.500002	0.105286	-1.097639
C45	C	-0.000012	-0.366747	-1.369069
C46	C	0.499988	0.133253	-0.869069
C47	C	-0.000005	-0.235729	-1.372547
C48	C	0.499995	0.264271	-0.872547
C49	C	0.000000	0.414312	-1.477927
C50	C	0.500000	0.914312	-0.977927
C51	C	-0.000007	0.553755	-1.481619
C52	C	0.499993	1.053755	-0.981619
C53	C	0.000012	0.177602	-1.714634
C54	C	0.500012	0.677602	-1.214634
C55	C	0.000005	0.181292	-1.854078
C56	C	0.500005	0.681292	-1.354078
C57	C	0.124606	0.186518	-1.050604
C58	C	0.624606	0.686518	-0.550604
C59	C	0.124606	0.183031	-0.919585
C60	C	0.624606	0.683031	-0.419585
C61	C	-0.124605	0.183028	-0.919599
C62	C	0.375395	0.683028	-0.419599
C63	C	-0.124603	0.186507	-1.050617
C64	C	0.375397	0.686507	-0.550617
H65	H	0.369489	0.031268	-1.638690
H66	H	0.869489	0.531268	-1.138690
H67	H	0.630541	0.338269	-1.331511
H68	H	1.130541	0.838269	-0.831511
H69	H	0.369501	0.338268	-1.331471
H70	H	0.869501	0.838268	-0.831471
H71	H	-0.226074	0.187920	-1.103958
H72	H	0.273926	0.687920	-0.603958
Cl73	Cl	-0.000039	-0.431529	-1.223215
Cl74	Cl	0.499961	0.068471	-0.723215
Cl75	Cl	-0.281247	0.180796	-0.837253
Cl76	Cl	0.218753	0.680796	-0.337253
H77	H	-0.000010	-0.171006	-1.280896
H78	H	0.499990	0.328994	-0.780896
H79	H	0.000033	-0.221748	-1.695592
H80	H	0.500033	0.278252	-1.195592
Cl81	Cl	0.281256	0.188712	-1.132942
Cl82	Cl	0.781256	0.688712	-0.632942
Cl83	Cl	0.662367	-0.006202	-1.676206
Cl84	Cl	1.162367	0.493798	-1.176206
Cl85	Cl	0.000000	-0.494636	-1.739127
Cl86	Cl	0.500000	0.005364	-1.239127
Cl87	Cl	0.281253	0.180846	-0.837233
Cl88	Cl	0.781253	0.680846	-0.337233
