data_functionalizedCrystal
_audit_creation_method	'MofGen! by Chris Wilmer'
_symmetry_space_group_name_H-M	'P1'
_symmetry_Int_Tables_number	1
_symmetry_cell_setting	triclinic
loop_
_symmetry_equiv_pos_as_xyz
  x,y,z
_cell_length_a	10.540539
_cell_length_b	16.992694
_cell_length_c	15.455313
_cell_angle_alpha	92.857794
_cell_angle_beta	92.694186
_cell_angle_gamma	92.403143
loop_
_atom_site_label
_atom_site_type_symbol
_atom_site_fract_x
_atom_site_fract_y
_atom_site_fract_z
O1	O	0.264111	-1.045302	-0.072015
O2	O	0.261155	-0.817001	-0.072041
O3	O	0.078379	-0.936360	-0.072026
O4	O	0.446887	-0.925943	-0.072030
O5	O	0.088785	-0.929534	0.072235
O6	O	0.271561	-0.810175	0.072220
O7	O	0.274517	-1.038476	0.072246
Cu8	Cu	0.273989	-0.923702	0.085405
Cu9	Cu	0.261683	-0.931774	-0.085200
O10	O	0.457293	-0.919117	0.072232
C11	C	0.262557	-0.784354	0.000086
C12	C	0.251216	-0.697247	0.000077
C13	C	0.036211	-0.932166	0.000103
C14	C	-0.104941	-0.929829	0.000098
N15	N	0.282645	-0.918030	0.205400
C16	C	-0.296163	-0.840284	-0.000236
C17	C	-0.149316	-0.842638	0.000089
C18	C	-0.157014	-0.967891	0.082483
C19	C	-0.303812	-0.964912	0.082552
C20	C	-0.316010	-0.974447	-0.081500
C21	C	-0.169037	-0.975302	-0.082589
C22	C	0.499461	-0.923311	0.000101
C23	C	0.640612	-0.925648	0.000100
C24	C	0.273115	-1.071122	0.000117
C25	C	0.284456	-1.158230	0.000121
C26	C	0.360636	-0.647619	0.000076
C27	C	0.349973	-0.565773	0.000088
C28	C	0.229889	-0.533555	0.000094
C29	C	0.120461	-0.583189	0.000097
C30	C	0.131125	-0.665034	0.000092
C31	C	0.185692	-0.289709	0.000118
C32	C	0.175036	-0.207858	0.000121
C33	C	0.404549	-0.190446	0.000114
C34	C	0.415202	-0.272294	0.000103
C35	C	0.305774	-0.321921	0.000110
N36	N	0.218988	-0.449895	0.000104
N37	N	0.316677	-0.405579	0.000107
N38	N	0.253018	-0.937452	-0.205195
C39	C	0.205027	-0.968756	0.250801
C40	C	0.211585	-0.964474	0.341608
C41	C	0.295768	-0.909469	0.387013
C42	C	0.373389	-0.858738	0.341607
C43	C	0.366823	-0.863017	0.250801
C44	C	0.324073	-0.891000	0.658593
C45	C	0.330635	-0.886727	0.749405
C46	C	0.168829	-0.992462	0.749400
C47	C	0.162277	-0.996739	0.658592
C48	C	0.239893	-0.946005	0.613193
N49	N	0.302477	-0.905093	0.479833
N50	N	0.233177	-0.950379	0.520375
H51	H	-0.332013	-0.808637	-0.059316
H52	H	0.441928	-0.813948	0.378581
H53	H	0.399192	-0.841933	0.786370
O54	O	0.450538	-0.808294	0.201842
H55	H	0.390164	-0.771812	0.160495
H56	H	-0.128883	-1.031777	0.085553
O57	O	0.114218	-1.028072	0.201822
H58	H	0.137899	-1.088503	0.219236
O59	O	-0.102301	-0.802590	-0.078125
H60	H	-0.184488	-0.781362	-0.116522
H61	H	0.148382	-1.005778	0.378572
H62	H	0.093728	-1.041528	0.621625
H63	H	0.105637	-1.033766	0.786371
O64	O	0.045509	-0.173108	0.000142
H65	H	0.030906	-0.139015	-0.058657
H66	H	0.458421	-0.673844	0.000071
H67	H	0.022687	-0.556951	0.000115
H68	H	-0.325110	-0.803202	0.058505
O69	O	0.013112	-0.718568	0.000095
H70	H	-0.048205	-0.709818	-0.058704
H71	H	0.096587	-0.330106	0.000125
O72	O	0.407792	-0.836287	0.609633
H73	H	0.509085	-0.846022	0.627048
O74	O	-0.092157	-0.794908	0.078446
H75	H	-0.169416	-0.770059	0.116259
O76	O	-0.371384	-1.057902	-0.082239
H77	H	-0.429525	-1.064632	-0.024805
H78	H	-0.346069	-1.027442	0.086296
O79	O	-0.338863	-0.919969	0.164110
H80	H	-0.251011	-0.900560	0.203127
O81	O	0.522564	-0.136915	0.000120
H82	H	0.575395	-0.151214	-0.058682
O83	O	-0.130129	-1.059820	-0.089174
H84	H	-0.215874	-1.099937	-0.088360
H85	H	-0.112522	-0.935843	0.143784
O86	O	0.467989	-0.512242	0.000088
H87	H	0.553281	-0.548396	0.000073
H88	H	-0.135239	-0.947484	-0.143535
O89	O	-0.367005	-0.941011	-0.164231
H90	H	-0.330860	-0.878952	-0.167168
O91	O	0.544722	-0.307043	0.000118
H92	H	0.619021	-0.258781	0.000133
