data_functionalizedCrystal
_audit_creation_method	'MofGen! by Chris Wilmer'
_symmetry_space_group_name_H-M	'P1'
_symmetry_Int_Tables_number	1
_symmetry_cell_setting	triclinic
loop_
_symmetry_equiv_pos_as_xyz
  x,y,z
_cell_length_a	16.109301
_cell_length_b	16.109301
_cell_length_c	14.586319
_cell_angle_alpha	90.005214
_cell_angle_beta	90.000787
_cell_angle_gamma	83.461481
loop_
_atom_site_label
_atom_site_type_symbol
_atom_site_fract_x
_atom_site_fract_y
_atom_site_fract_z
O1	O	-1.103131	-0.106866	-0.076185
O2	O	-0.861069	-0.120165	-0.076200
O3	O	-0.988749	0.007515	-0.076183
O4	O	-0.975450	-0.234547	-0.076203
O5	O	-0.988741	0.007517	0.076298
O6	O	-0.861060	-0.120164	0.076281
O7	O	-1.103122	-0.106864	0.076295
Cu8	Cu	-0.982090	-0.113514	0.090211
Cu9	Cu	-0.982101	-0.113516	-0.090115
O10	O	-0.975441	-0.234545	0.076278
C11	C	-0.988206	0.038491	0.000058
C12	C	-0.986591	0.130786	0.000059
C13	C	-0.830090	-0.119626	0.000038
C14	C	-0.737794	-0.118011	0.000033
C15	C	-1.134101	-0.107404	0.000055
C16	C	-1.226397	-0.109019	0.000054
C17	C	-0.515522	-0.190018	0.000038
C18	C	-0.428801	-0.188494	0.000044
C19	C	-0.448676	-0.037006	0.000052
C20	C	-0.535394	-0.038530	0.000053
C21	C	-0.568815	-0.115039	0.000041
C22	C	-0.395376	-0.111990	0.000046
C23	C	-0.301350	-0.110337	0.000053
C24	C	-0.662847	-0.116693	0.000036
C25	C	-0.975984	-0.265521	0.000035
C26	C	-0.977600	-0.357816	0.000028
N27	N	-0.982089	-0.113512	0.217042
C28	C	-1.058599	0.353059	0.000049
C29	C	-1.057075	0.439779	0.000041
C30	C	-0.905586	0.419905	0.000036
C31	C	-0.907111	0.333186	0.000037
C32	C	-0.983620	0.299766	0.000048
C33	C	-0.980571	0.473205	0.000039
C34	C	-0.978918	0.567231	0.000031
C35	C	-0.985273	0.205734	0.000055
N36	N	-0.982109	-0.113511	-0.216947
C37	C	-1.038644	-0.056994	0.452057
C38	C	-1.038647	-0.056992	0.548038
C39	C	-0.925547	-0.170032	0.548032
C40	C	-0.925541	-0.170030	0.452052
C41	C	-0.982095	-0.113511	0.404067
C42	C	-0.982103	-0.113512	0.596028
C43	C	-0.982105	-0.113510	0.700095
C44	C	-0.982092	-0.113512	0.299993
H45	H	-0.542730	-0.252317	0.000035
C46	C	-0.412437	0.046083	0.000242
C47	C	-0.439505	0.091406	0.078702
C48	C	-0.406133	0.167949	0.078910
H49	H	-0.430712	0.077050	-0.052869
H50	H	-0.353154	0.036291	0.000287
H51	H	-0.498775	0.101201	0.078648
H52	H	-0.421230	0.060465	0.131825
H53	H	-0.346850	0.158156	0.078955
H54	H	-0.424411	0.198908	0.025796
H55	H	-0.424488	0.198706	0.132148
C56	C	-1.100074	0.004466	0.400123
C57	C	-1.149583	0.053978	0.462698
C58	C	-1.206173	0.110614	0.414894
H59	H	-1.134753	-0.025351	0.362670
H60	H	-1.070195	0.039131	0.362709
H61	H	-1.179460	0.019318	0.500097
H62	H	-1.114927	0.083813	0.500153
H63	H	-1.176294	0.145279	0.377480
H64	H	-1.240845	0.080790	0.377443
H65	H	-1.239766	0.144220	0.457344
H66	H	-0.385413	-0.249550	0.000043
C67	C	-0.864248	-0.231362	0.600298
C68	C	-0.876371	-0.219286	0.694625
C69	C	-0.819926	-0.275778	0.742799
H70	H	-0.808726	-0.222373	0.584688
H71	H	-0.873269	-0.286869	0.584611
H72	H	-0.867344	-0.163791	0.710307
H73	H	-0.931881	-0.228281	0.710263
H74	H	-0.828947	-0.331285	0.727111
H75	H	-0.764409	-0.266785	0.727181
H76	H	-0.828149	-0.267597	0.806804
C77	C	-1.099913	0.004465	0.600189
C78	C	-1.055647	0.055391	0.655280
C79	C	-1.112059	0.112025	0.703324
H80	H	-1.134535	-0.025355	0.637701
H81	H	-1.133579	0.038172	0.557890
H82	H	-1.021996	0.021688	0.697574
H83	H	-1.021029	0.085229	0.617791
H84	H	-1.145725	0.145731	0.661026
H85	H	-1.146678	0.082198	0.740831
H86	H	-1.082033	0.146589	0.740703
H87	H	-1.120897	0.325851	0.000056
H88	H	-1.118130	0.483168	0.000040
C89	C	-0.822607	0.456354	0.000080
C90	C	-0.837318	0.543705	0.000107
C91	C	-0.760896	0.577308	0.000164
H92	H	-0.791671	0.438148	-0.053079
H93	H	-0.791728	0.438108	0.053275
H94	H	-0.868183	0.561943	-0.053083
H95	H	-0.868241	0.561934	0.053262
H96	H	-0.730017	0.559062	0.053359
H97	H	-0.729966	0.559096	-0.052996
H98	H	-0.770866	0.636578	0.000190
H99	H	-0.879487	-0.216053	0.412977
H100	H	-0.846050	0.289792	0.000033
C101	C	-0.593304	0.042854	0.000242
C102	C	-0.643653	0.046415	0.078703
C103	C	-0.697001	0.121374	0.078918
H104	H	-0.627626	0.045483	-0.052868
H105	H	-0.561011	0.088663	0.000292
H106	H	-0.675943	0.000619	0.078645
H107	H	-0.609353	0.043800	0.131826
H108	H	-0.664708	0.167183	0.078967
H109	H	-0.731317	0.123996	0.025804
H110	H	-0.731163	0.123803	0.132156
