data_functionalizedCrystal
_audit_creation_method	'MofGen! by Chris Wilmer'
_symmetry_space_group_name_H-M	'P1'
_symmetry_Int_Tables_number	1
_symmetry_cell_setting	triclinic
loop_
_symmetry_equiv_pos_as_xyz
  x,y,z
_cell_length_a	12.811438
_cell_length_b	12.837942
_cell_length_c	16.053802
_cell_angle_alpha	92.838962
_cell_angle_beta	92.832066
_cell_angle_gamma	89.413151
loop_
_atom_site_label
_atom_site_type_symbol
_atom_site_fract_x
_atom_site_fract_y
_atom_site_fract_z
O1	O	1.404507	0.142016	0.036930
O2	O	1.737840	0.475349	0.370263
O3	O	2.071174	0.808682	0.703597
O4	O	1.101764	0.155765	0.014002
O5	O	1.435097	0.489098	0.347336
O6	O	1.768430	0.822431	0.680669
O7	O	1.246422	-0.002073	0.024963
O8	O	1.579756	0.331260	0.358296
O9	O	1.913089	0.664593	0.691630
O10	O	1.259849	0.299854	0.025969
O11	O	1.593182	0.633187	0.359303
O12	O	1.926515	0.966520	0.692636
O13	O	1.238456	0.006578	0.163218
O14	O	1.571790	0.339912	0.496552
O15	O	1.905123	0.673245	0.829885
O16	O	1.093798	0.164416	0.152258
O17	O	1.427131	0.497750	0.485591
O18	O	1.760464	0.831083	0.818924
O19	O	1.396541	0.150667	0.175185
O20	O	1.729875	0.484001	0.508519
O21	O	2.063208	0.817334	0.841852
Zn22	Zn	1.243905	0.158915	0.185673
Zn23	Zn	1.577238	0.492249	0.519006
Zn24	Zn	1.910571	0.825582	0.852339
Zn25	Zn	1.254400	0.147516	0.003515
Zn26	Zn	1.587734	0.480850	0.336848
Zn27	Zn	1.921067	0.814183	0.670182
O28	O	1.251883	0.308505	0.164225
O29	O	1.585216	0.641839	0.497558
O30	O	1.918549	0.975172	0.830891
C31	C	1.058762	0.159054	0.080175
C32	C	1.392095	0.492387	0.413509
C33	C	1.725429	0.825721	0.746842
C34	C	0.942497	0.155952	0.071370
C35	C	1.275830	0.489286	0.404704
C36	C	1.609163	0.822619	0.738037
C37	C	0.782965	0.146865	-0.016393
C38	C	1.116298	0.480199	0.316940
C39	C	1.449632	0.813532	0.650273
C40	C	0.892207	0.149778	-0.008127
C41	C	1.225540	0.483112	0.325206
C42	C	1.558874	0.816445	0.658539
C43	C	0.883537	0.159211	0.142607
C44	C	1.216870	0.492544	0.475941
C45	C	1.550203	0.825877	0.809274
C46	C	0.774295	0.156298	0.134341
C47	C	1.107628	0.489631	0.467675
C48	C	1.440961	0.822964	0.801008
C49	C	0.724013	0.150126	0.054838
C50	C	1.057346	0.483460	0.388172
C51	C	1.390680	0.816793	0.721505
C52	C	0.614769	0.147221	0.046573
C53	C	0.948102	0.480554	0.379906
C54	C	1.281435	0.813888	0.713240
C55	C	0.606101	0.156646	0.197307
C56	C	0.939434	0.489979	0.530640
C57	C	1.272767	0.823312	0.863974
C58	C	0.715343	0.159559	0.205573
C59	C	1.048676	0.492892	0.538906
C60	C	1.382009	0.826225	0.872240
C61	C	1.237904	-0.036409	0.093747
C62	C	1.571237	0.296924	0.427080
C63	C	1.904570	0.630257	0.760413
C64	C	1.224377	-0.151609	0.092721
C65	C	1.557710	0.181724	0.426054
C66	C	1.891043	0.515057	0.759387
C67	C	1.386997	-0.391091	0.105019
C68	C	1.720331	-0.057758	0.438352
C69	C	2.053664	0.275575	0.771686
C70	C	1.374293	-0.499333	0.104055
C71	C	1.707626	-0.165999	0.437389
C72	C	2.040959	0.167334	0.770722
C73	C	1.186263	-0.476336	0.089824
C74	C	1.519597	-0.143003	0.423158
C75	C	1.852930	0.190331	0.756491
C76	C	1.198968	-0.368095	0.090788
C77	C	1.532302	-0.034761	0.424121
C78	C	1.865635	0.298572	0.757454
C79	C	1.299338	-0.325476	0.098387
C80	C	1.632672	0.007857	0.431720
C81	C	1.966005	0.341190	0.765053
C82	C	1.312042	-0.217233	0.099356
C83	C	1.645375	0.116101	0.432689
C84	C	1.978709	0.449434	0.766023
C85	C	1.124014	-0.194238	0.085119
C86	C	1.457347	0.139095	0.418452
C87	C	1.790681	0.472428	0.751786
C88	C	1.111309	-0.302480	0.084155
C89	C	1.444642	0.030854	0.417489
C90	C	1.777976	0.364187	0.750822
C91	C	1.439543	0.147378	0.109011
C92	C	1.772877	0.480711	0.442344
C93	C	2.106210	0.814045	0.775677
C94	C	1.555809	0.150479	0.117810
C95	C	1.889142	0.483812	0.451143
C96	C	2.222475	0.817146	0.784477
C97	C	1.260401	0.342841	0.095439
C98	C	1.593735	0.676175	0.428773
C99	C	1.927068	1.009508	0.762106
C100	C	1.273929	0.458041	0.096460
C101	C	1.607262	0.791374	0.429793
C102	C	1.940595	1.124708	0.763126
N103	N	1.236749	0.166694	0.309991
N104	N	1.570083	0.500028	0.643324
N105	N	1.903416	0.833361	0.976657
N106	N	1.261563	0.139729	-0.120802
N107	N	1.594896	0.473063	0.212531
N108	N	1.928230	0.806396	0.545864
C109	C	1.298329	0.099558	0.358350
C110	C	1.631662	0.432892	0.691684
C111	C	1.964996	0.766225	1.025017
C112	C	1.293335	0.105010	0.445379
C113	C	1.626668	0.438343	0.778712
C114	C	1.960001	0.771677	1.112045
C115	C	1.226765	0.177603	0.484046
C116	C	1.560098	0.510936	0.817379
C117	C	1.893432	0.844270	1.150713
C118	C	1.165178	0.244742	0.435680
C119	C	1.498512	0.578075	0.769013
C120	C	1.831845	0.911409	1.102346
C121	C	1.170168	0.239285	0.348653
C122	C	1.503502	0.572618	0.681986
C123	C	1.836835	0.905951	1.015319
C124	C	1.204966	0.201411	0.743804
C125	C	1.538300	0.534744	1.077137
C126	C	1.871633	0.868078	1.410471
C127	C	1.199983	0.206865	0.830838
C128	C	1.533317	0.540199	1.164171
C129	C	1.866650	0.873532	1.497505
C130	C	1.328139	0.067131	0.840531
C131	C	1.661472	0.400465	1.173864
C132	C	1.994805	0.733798	1.507197
C133	C	1.333127	0.061685	0.753502
C134	C	1.666460	0.395018	1.086835
C135	C	1.999794	0.728351	1.420168
C136	C	1.271536	0.128820	0.705143
C137	C	1.604870	0.462153	1.038476
C138	C	1.938203	0.795487	1.371809
N139	N	1.221661	0.183179	0.573003
N140	N	1.554994	0.516513	0.906336
N141	N	1.888327	0.849846	1.239670
N142	N	1.276636	0.123238	0.616187
N143	N	1.609969	0.456571	0.949520
N144	N	1.943303	0.789905	1.282854
H145	H	0.573831	0.142201	-0.018162
H146	H	0.907164	0.475534	0.315171
H147	H	1.240497	0.808867	0.648504
H148	H	1.468722	-0.356390	0.111214
H149	H	1.802056	-0.023057	0.444548
H150	H	2.135389	0.310276	0.777881
H151	H	0.742024	0.141852	-0.081128
H152	H	1.075358	0.475185	0.252205
H153	H	1.408691	0.808519	0.585539
F154	F	1.139421	0.272863	0.692344
F155	F	1.472754	0.606197	1.025677
F156	F	1.806087	0.939530	1.359011
H157	H	0.940202	0.147123	-0.066132
H158	H	1.273535	0.480456	0.267201
H159	H	1.606869	0.813790	0.600535
F160	F	1.094324	0.321997	0.476833
F161	F	1.427657	0.655331	0.810166
F162	F	1.760990	0.988664	1.143499
H163	H	1.445674	-0.552753	0.109454
H164	H	1.779008	-0.219420	0.442787
H165	H	2.112341	0.113913	0.776120
H166	H	1.352542	0.040450	0.326874
H167	H	1.685875	0.373783	0.660207
H168	H	2.019208	0.707116	0.993541
H169	H	1.120022	0.293953	0.309278
H170	H	1.453355	0.627286	0.642612
H171	H	1.786689	0.960619	0.975945
H172	H	0.924496	0.164223	0.207335
H173	H	1.257829	0.497556	0.540668
H174	H	1.591163	0.830890	0.874001
H175	H	1.378282	0.012472	0.879912
H176	H	1.711615	0.345805	1.213246
H177	H	2.044948	0.679139	1.546579
H178	H	0.756298	0.164579	0.270302
H179	H	1.089631	0.497913	0.603635
H180	H	1.422964	0.831246	0.936969
F181	F	1.129128	0.284136	0.871985
F182	F	1.462461	0.617469	1.205318
F183	F	1.795795	0.950802	1.538651
H184	H	1.393768	-0.182535	0.105547
H185	H	1.727102	0.150799	0.438880
H186	H	2.060435	0.484132	0.772213
F187	F	0.543352	0.160123	0.273122
F188	F	0.876685	0.493456	0.606455
F189	F	1.210018	0.826790	0.939789
H190	H	1.387333	0.002574	0.722021
H191	H	1.720666	0.335907	1.055354
H192	H	2.054000	0.669240	1.388688
F193	F	1.079452	-0.521713	0.081717
F194	F	1.412785	-0.188380	0.415050
F195	F	1.746118	0.144954	0.748384
H196	H	1.029590	-0.337195	0.077965
H197	H	1.362924	-0.003862	0.411299
H198	H	1.696257	0.329472	0.744632
F199	F	1.358873	0.033555	0.496847
F200	F	1.692206	0.366889	0.830180
F201	F	2.025540	0.700222	1.163514
H202	H	1.052635	-0.140802	0.079725
H203	H	1.385969	0.192531	0.413058
H204	H	1.719302	0.525865	0.746392
