data_functionalizedCrystal
_audit_creation_method	'MofGen! by Chris Wilmer'
_symmetry_space_group_name_H-M	'P1'
_symmetry_Int_Tables_number	1
_symmetry_cell_setting	triclinic
loop_
_symmetry_equiv_pos_as_xyz
  x,y,z
_cell_length_a	17.077402
_cell_length_b	17.077404
_cell_length_c	17.077396
_cell_angle_alpha	90.021457
_cell_angle_beta	89.970216
_cell_angle_gamma	89.978013
loop_
_atom_site_label
_atom_site_type_symbol
_atom_site_fract_x
_atom_site_fract_y
_atom_site_fract_z
Zn1	Zn	-0.312527	-1.200055	-0.443877
Zn2	Zn	-0.443802	-1.199962	-0.312608
Zn3	Zn	-0.312552	-1.068786	-0.312620
Zn4	Zn	-0.443753	-1.068754	-0.443827
O5	O	-0.378158	-1.134389	-0.378233
O6	O	-0.329951	-1.309889	-0.426479
O7	O	-0.426422	-1.182536	-0.202762
O8	O	-0.202702	-1.086252	-0.330058
O9	O	-0.426398	-1.309821	-0.330036
O10	O	-0.202683	-1.182694	-0.426491
O11	O	-0.329993	-1.086162	-0.202771
O12	O	-0.329946	-0.958935	-0.330009
O13	O	-0.426314	-1.086197	-0.553680
O14	O	-0.426338	-0.958912	-0.426406
O15	O	-0.329903	-1.182663	-0.553717
O16	O	-0.553642	-1.182505	-0.329988
O17	O	-0.553606	-1.086107	-0.426394
C18	C	-0.378140	-0.930441	-0.378204
C19	C	-0.378151	-0.843192	-0.378210
C20	C	-0.582106	-1.134314	-0.378201
C21	C	-0.669356	-1.134353	-0.378214
C22	C	-0.428418	-0.802210	-0.428322
C23	C	-0.428418	-0.720229	-0.428332
C24	C	-0.378155	-0.679232	-0.378225
C25	C	-0.327883	-0.720220	-0.328111
C26	C	-0.327879	-0.802199	-0.328106
C27	C	-0.327895	-0.549350	-0.328124
C28	C	-0.327899	-0.467365	-0.328128
C29	C	-0.428433	-0.467380	-0.428350
C30	C	-0.428430	-0.549359	-0.428345
C31	C	-0.378159	-0.590341	-0.378230
C32	C	-0.710339	-1.184598	-0.328069
C33	C	-0.792319	-1.184637	-0.328089
C34	C	-0.833315	-1.134425	-0.378251
C35	C	-0.792327	-1.084178	-0.428401
C36	C	-0.710348	-1.084144	-0.428385
C37	C	-0.963197	-1.084250	-0.428431
C38	C	-1.045181	-1.084283	-0.428447
C39	C	-1.045168	-1.184743	-0.328136
C40	C	-0.963189	-1.184709	-0.328119
C41	C	-0.922206	-1.134461	-0.378269
C42	C	-0.173414	-1.134487	-0.378281
C43	C	-0.086164	-1.134528	-0.378302
C44	C	-0.378100	-1.134437	-0.582977
C45	C	-0.378076	-1.134457	-0.670227
C46	C	-0.378172	-0.339134	-0.378253
C47	C	-0.378166	-0.426383	-0.378240
C48	C	-0.327870	-1.184689	-0.711237
C49	C	-0.327844	-1.184698	-0.793218
C50	C	-0.378028	-1.134479	-0.834186
C51	C	-0.428236	-1.084242	-0.793170
C52	C	-0.428257	-1.084229	-0.711191
C53	C	-0.428188	-1.084274	-0.964040
C54	C	-0.428168	-1.084288	-1.046025
C55	C	-0.327776	-1.184742	-1.046067
C56	C	-0.327797	-1.184730	-0.964088
C57	C	-0.378006	-1.134493	-0.923077
C58	C	-0.378159	-1.134387	-0.174285
C59	C	-0.377963	-1.134519	-0.087036
H60	H	-0.469350	-0.835584	-0.469123
Cl61	Cl	-0.658826	-1.020978	-0.491429
Cl62	Cl	-0.264713	-1.247867	-0.912586
H63	H	-0.676965	-1.225483	-0.287219
H64	H	-0.286943	-0.835565	-0.287304
H65	H	-0.825712	-1.043298	-0.469247
Cl66	Cl	-0.264714	-0.415827	-0.265132
H67	H	-0.469351	-0.686866	-0.469138
Cl68	Cl	-0.843837	-1.247808	-0.265050
Cl69	Cl	-0.264695	-0.600869	-0.265121
Cl70	Cl	-0.264689	-0.668680	-0.265125
H71	H	-0.469363	-0.582737	-0.469142
H72	H	-0.469062	-1.043354	-0.930652
Cl73	Cl	-0.491249	-1.021146	-1.097527
Cl74	Cl	-0.911652	-1.247834	-0.265058
Cl75	Cl	-1.096689	-1.247906	-0.265083
H76	H	-0.287007	-1.225585	-0.677887
Cl77	Cl	-0.491620	-0.415861	-0.491364
Cl78	Cl	-1.096718	-1.021150	-0.491499
H79	H	-0.929831	-1.043335	-0.469271
H80	H	-0.286964	-1.225603	-0.826605
H81	H	-0.286892	-1.225645	-1.079462
H82	H	-0.469093	-1.043350	-0.826533
H83	H	-0.469132	-1.043318	-0.677801
