data_functionalizedCrystal
_audit_creation_method	'MofGen! by Chris Wilmer'
_symmetry_space_group_name_H-M	'P1'
_symmetry_Int_Tables_number	1
_symmetry_cell_setting	triclinic
loop_
_symmetry_equiv_pos_as_xyz
  x,y,z
_cell_length_a	23.532407
_cell_length_b	23.532407
_cell_length_c	9.130307
_cell_angle_alpha	89.992076
_cell_angle_beta	90.003827
_cell_angle_gamma	82.848678
loop_
_atom_site_label
_atom_site_type_symbol
_atom_site_fract_x
_atom_site_fract_y
_atom_site_fract_z
O1	O	0.755257	0.069134	-0.121631
O2	O	1.255257	0.569134	0.378369
O3	O	0.589394	0.079137	-0.121676
O4	O	1.089394	0.579137	0.378324
O5	O	0.677327	-0.008796	-0.121626
O6	O	1.177327	0.491204	0.378374
O7	O	0.667324	0.157067	-0.121682
O8	O	1.167324	0.657067	0.378318
O9	O	0.677324	-0.008797	0.121973
O10	O	1.177324	0.491203	0.621973
O11	O	0.589391	0.079136	0.121923
O12	O	1.089391	0.579136	0.621923
O13	O	0.755254	0.069133	0.121968
O14	O	1.255254	0.569133	0.621968
Cu15	Cu	0.672322	0.074135	0.144188
Cu16	Cu	1.172322	0.574135	0.644188
Cu17	Cu	0.672326	0.074136	-0.143896
Cu18	Cu	1.172326	0.574136	0.356104
O19	O	0.667321	0.157066	0.121917
O20	O	1.167321	0.657066	0.621917
C21	C	0.568176	0.078882	0.000118
C22	C	1.068176	0.578882	0.500118
C23	C	0.504959	0.078116	0.000102
C24	C	1.004959	0.578116	0.500102
C25	C	0.677071	-0.030013	0.000177
C26	C	1.177071	0.469987	0.500177
C27	C	0.676305	-0.093230	0.000189
C28	C	1.176305	0.406770	0.500189
C29	C	0.105856	0.125350	0.000152
C30	C	0.605856	0.625350	0.500152
C31	C	0.046456	0.124638	0.000161
C32	C	0.546456	0.624638	0.500161
O33	O	0.009711	0.168424	0.000199
O34	O	0.509711	0.668424	0.500199
N35	N	0.023830	0.072362	0.000176
N36	N	0.523830	0.572362	0.500176
C37	C	0.060607	0.020794	0.000197
C38	C	0.560607	0.520794	0.500197
O39	O	0.035908	-0.023737	0.000213
O40	O	0.535908	0.476263	0.500213
C41	C	0.120006	0.021506	0.000199
C42	C	0.620006	0.521506	0.500199
C43	C	0.142629	0.073785	0.000169
C44	C	0.642629	0.573785	0.500169
C45	C	0.128479	0.177625	0.000123
C46	C	0.628479	0.677625	0.500123
C47	C	0.187876	0.178336	0.000111
C48	C	0.687876	0.678336	0.500111
C49	C	0.224649	0.126772	0.000128
C50	C	0.724649	0.626772	0.500128
C51	C	0.202025	0.074496	0.000157
C52	C	0.702025	0.574496	0.500157
C53	C	0.156783	-0.030062	0.000230
C54	C	0.656783	0.469938	0.500230
C55	C	0.216185	-0.029345	0.000233
C56	C	0.716185	0.470655	0.500233
C57	C	0.238808	0.022934	0.000202
C58	C	0.738808	0.522934	0.500202
C59	C	0.298194	0.023643	0.000161
C60	C	0.798194	0.523643	0.500161
N61	N	0.320820	0.075920	0.000146
N62	N	0.820820	0.575920	0.500146
C63	C	0.284048	0.127484	0.000129
C64	C	0.784048	0.627484	0.500129
C65	C	-0.064135	0.019302	0.000197
C66	C	0.435865	0.519302	0.500197
C67	C	-0.123533	0.018589	0.000186
C68	C	0.376467	0.518589	0.500186
C69	C	-0.137680	0.122434	0.000152
C70	C	0.362320	0.622434	0.500152
C71	C	-0.078281	0.123146	0.000153
C72	C	0.421719	0.623146	0.500153
C73	C	-0.041509	0.071578	0.000182
C74	C	0.458491	0.571578	0.500182
C75	C	0.408784	0.128974	0.000103
C76	C	0.908784	0.628974	0.500103
C77	C	0.468186	0.129680	0.000085
C78	C	0.968186	0.629680	0.500085
C79	C	0.482329	0.025836	0.000126
C80	C	0.982329	0.525836	0.500126
C81	C	0.422932	0.025129	0.000137
C82	C	0.922932	0.525129	0.500137
C83	C	0.386160	0.076702	0.000130
C84	C	0.886160	0.576702	0.500130
O85	O	0.334974	-0.020119	0.000129
O86	O	0.834974	0.479881	0.500129
O87	O	0.308755	0.172007	0.000133
O88	O	0.808755	0.672007	0.500133
C89	C	0.723539	-0.492333	0.000121
C90	C	1.223539	0.007667	0.500121
C91	C	0.722827	-0.551733	0.000110
C92	C	1.222827	-0.051733	0.500110
O93	O	0.766613	-0.588478	0.000068
O94	O	1.266613	-0.088478	0.500068
N95	N	0.670551	-0.574359	0.000097
N96	N	1.170551	-0.074359	0.500097
C97	C	0.618983	-0.537582	0.000080
C98	C	1.118983	-0.037582	0.500080
O99	O	0.574452	-0.562281	0.000066
O100	O	1.074452	-0.062281	0.500066
C101	C	0.619695	-0.478182	0.000081
C102	C	1.119695	0.021818	0.500081
C103	C	0.671974	-0.455560	0.000109
C104	C	1.171974	0.044440	0.500109
C105	C	0.775814	-0.469710	0.000147
C106	C	1.275814	0.030290	0.500147
C107	C	0.776525	-0.410313	0.000161
C108	C	1.276525	0.089687	0.500161
C109	C	0.724961	-0.373540	0.000149
C110	C	1.224961	0.126460	0.500149
C111	C	0.672685	-0.396164	0.000123
C112	C	1.172685	0.103836	0.500123
C113	C	0.568127	-0.441406	0.000053
C114	C	1.068127	0.058594	0.500053
C115	C	0.568844	-0.382004	0.000053
C116	C	1.068844	0.117996	0.500053
C117	C	0.621123	-0.359381	0.000081
C118	C	1.121123	0.140619	0.500081
C119	C	0.621832	-0.299995	0.000124
C120	C	1.121832	0.200005	0.500124
N121	N	0.674109	-0.277368	0.000138
N122	N	1.174109	0.222632	0.500138
C123	C	0.725673	-0.314141	0.000150
C124	C	1.225673	0.185859	0.500150
C125	C	0.617491	-0.662324	0.000076
C126	C	1.117491	-0.162324	0.500076
C127	C	0.616778	-0.721722	0.000085
C128	C	1.116778	-0.221722	0.500085
C129	C	0.720623	-0.735869	0.000112
C130	C	1.220623	-0.235869	0.500112
C131	C	0.721335	-0.676470	0.000113
C132	C	1.221335	-0.176470	0.500113
C133	C	0.669767	-0.639698	0.000089
C134	C	1.169767	-0.139698	0.500089
C135	C	0.727163	-0.189405	0.000181
C136	C	1.227163	0.310595	0.500181
C137	C	0.727869	-0.130003	0.000201
C138	C	1.227869	0.369997	0.500201
C139	C	0.624025	-0.115860	0.000166
C140	C	1.124025	0.384140	0.500166
C141	C	0.623318	-0.175257	0.000154
C142	C	1.123318	0.324743	0.500154
C143	C	0.674891	-0.212029	0.000156
C144	C	1.174891	0.287971	0.500156
O145	O	0.578070	-0.263215	0.000161
O146	O	1.078070	0.236785	0.500161
O147	O	0.770196	-0.289433	0.000144
O148	O	1.270196	0.210567	0.500144
C149	C	0.776472	0.069388	0.000170
C150	C	1.276472	0.569388	0.500170
C151	C	0.839689	0.070154	0.000177
C152	C	1.339689	0.570154	0.500177
C153	C	0.667577	0.178283	0.000110
C154	C	1.167577	0.678283	0.500110
C155	C	0.668343	0.241500	0.000090
C156	C	1.168343	0.741500	0.500090
N157	N	0.672324	0.074134	0.346810
N158	N	1.172324	0.574134	0.846810
N159	N	0.672328	0.074132	-0.346519
N160	N	1.172328	0.574132	0.153481
C161	C	0.750220	-0.003709	0.346845
C162	C	1.250220	0.496291	0.846845
C163	C	0.789172	-0.042629	0.423530
C164	C	1.289172	0.457371	0.923530
C165	C	0.789178	-0.042630	0.576863
C166	C	1.289178	0.457370	1.076863
C167	C	0.750226	-0.003707	0.653516
C168	C	1.250226	0.496293	1.153516
C169	C	0.711275	0.035213	0.576832
C170	C	1.211275	0.535213	1.076832
C171	C	0.711274	0.035210	0.423495
C172	C	1.211274	0.535210	0.923495
C173	C	0.633377	0.113052	0.576797
C174	C	1.133377	0.613052	1.076797
C175	C	0.633373	0.113056	0.423463
C176	C	1.133373	0.613056	0.923463
C177	C	0.594425	0.151974	0.653449
C178	C	1.094425	0.651974	1.153449
C179	C	0.555475	0.190898	0.576765
C180	C	1.055475	0.690898	1.076765
C181	C	0.555471	0.190897	0.423422
C182	C	1.055471	0.690897	0.923422
C183	C	0.594421	0.151976	0.346779
C184	C	1.094421	0.651976	0.846779
H185	H	0.486602	0.172255	0.000060
H186	H	0.986602	0.672255	0.500060
H187	H	0.526850	-0.352066	0.000031
H188	H	1.026850	0.147934	0.500031
H189	H	-0.034198	-0.022693	0.000208
H190	H	0.465802	0.477307	0.500208
H191	H	0.206289	0.220908	0.000086
H192	H	0.706289	0.720908	0.500086
H193	H	0.770444	-0.111587	0.000227
H194	H	1.270444	0.388413	0.500227
H195	H	-0.059867	0.165717	0.000137
H196	H	0.440133	0.665717	0.500137
H197	H	0.098544	0.219617	0.000115
H198	H	0.598544	0.719617	0.500115
H199	H	0.580748	-0.193677	0.000172
H200	H	1.080748	0.306323	0.500172
H201	H	0.404512	-0.017441	0.000140
H202	H	0.904512	0.482559	0.500140
H203	H	0.574207	-0.740136	0.000088
H204	H	1.074207	-0.240136	0.500088
H205	H	0.525555	-0.459814	0.000022
H206	H	1.025555	0.040186	0.500022
H207	H	0.594429	0.151970	0.778302
H208	H	1.094429	0.651970	1.278302
H209	H	0.769159	-0.219337	0.000177
H210	H	1.269159	0.280663	0.500177
H211	H	-0.167632	0.164421	0.000145
H212	H	0.332368	0.664421	0.500145
H213	H	0.820885	-0.074321	0.361106
H214	H	1.320885	0.425679	0.861106
H215	H	0.820894	-0.074323	0.639299
H216	H	1.320894	0.425677	1.139299
H217	H	0.582043	-0.085909	0.000161
H218	H	1.082043	0.414091	0.500161
H219	H	0.378852	0.170970	0.000102
H220	H	0.878852	0.670970	0.500102
H221	H	0.817806	-0.499645	0.000152
H222	H	1.317806	0.000355	0.500152
H223	H	0.523761	0.222583	0.639185
H224	H	1.023761	0.722583	1.139185
H225	H	-0.141947	-0.023982	0.000187
H226	H	0.358053	0.476018	0.500187
H227	H	0.138375	-0.072634	0.000256
H228	H	0.638375	0.427366	0.500256
H229	H	0.523750	0.222588	0.360994
H230	H	1.023750	0.722588	0.860994
H231	H	0.750229	-0.003715	0.778368
H232	H	1.250229	0.496285	1.278368
H233	H	0.594423	0.151974	0.221927
H234	H	1.094423	0.651974	0.721927
H235	H	0.246123	-0.071339	0.000257
H236	H	0.746123	0.428661	0.500257
H237	H	0.512280	-0.016146	0.000134
H238	H	1.012280	0.483854	0.500134
H239	H	0.750224	-0.003708	0.221993
H240	H	1.250224	0.496292	0.721993
H241	H	0.819097	-0.391900	0.000178
H242	H	1.319097	0.108100	0.500178
H243	H	0.763906	-0.658056	0.000135
H244	H	1.263906	-0.158056	0.500135
H245	H	0.762610	-0.765821	0.000117
H246	H	1.262610	-0.265821	0.500117
H247	H	0.575496	-0.632386	0.000068
H248	H	1.075496	-0.132386	0.500068
