data_functionalizedCrystal
_audit_creation_method	'MofGen! by Chris Wilmer'
_symmetry_space_group_name_H-M	'P1'
_symmetry_Int_Tables_number	1
_symmetry_cell_setting	triclinic
loop_
_symmetry_equiv_pos_as_xyz
  x,y,z
_cell_length_a	12.827893
_cell_length_b	17.640280
_cell_length_c	12.827885
_cell_angle_alpha	78.769218
_cell_angle_beta	89.980538
_cell_angle_gamma	78.800662
loop_
_atom_site_label
_atom_site_type_symbol
_atom_site_fract_x
_atom_site_fract_y
_atom_site_fract_z
Zn1	Zn	1.681788	-0.314632	-0.506827
Zn2	Zn	1.717024	-0.446826	-0.296785
Zn3	Zn	1.507039	-0.314670	-0.332090
Zn4	Zn	1.542341	-0.446767	-0.471501
O5	O	1.612048	-0.380724	-0.401801
O6	O	1.832701	-0.332176	-0.478973
O7	O	1.689141	-0.429336	-0.155221
O8	O	1.500700	-0.204058	-0.384829
O9	O	1.858588	-0.429298	-0.324656
O10	O	1.629087	-0.204030	-0.513207
O11	O	1.534866	-0.332242	-0.181160
O12	O	1.365484	-0.332185	-0.350575
O13	O	1.560867	-0.429198	-0.622434
O14	O	1.391420	-0.429235	-0.452999
O15	O	1.663318	-0.332119	-0.648388
O16	O	1.723372	-0.557424	-0.290402
O17	O	1.595033	-0.557381	-0.418765
C18	C	1.340534	-0.380708	-0.401785
C19	C	1.224384	-0.380721	-0.401798
C20	C	1.185481	-0.428820	-0.452363
C21	C	1.065435	-0.428834	-0.452377
C22	C	1.666885	-0.586082	-0.346942
C23	C	1.690440	-0.673935	-0.323508
C24	C	1.433531	-0.962898	-0.580206
C25	C	1.455667	-1.045449	-0.558153
C26	C	1.589389	-1.045429	-0.424624
C27	C	1.567268	-0.962876	-0.446669
C28	C	1.489337	-0.921617	-0.524461
C29	C	1.623074	-0.921595	-0.390924
C30	C	1.600950	-0.839049	-0.412964
C31	C	1.523021	-0.797784	-0.490750
C32	C	1.467214	-0.839071	-0.546501
C33	C	1.700999	-0.962855	-0.313128
C34	C	1.756805	-0.921574	-0.257382
C35	C	1.734687	-0.839027	-0.279427
C36	C	1.656758	-0.797762	-0.357213
C37	C	1.790494	-0.797740	-0.223676
C38	C	1.768371	-0.715194	-0.245716
C39	C	1.634634	-0.715216	-0.379253
C40	C	1.884622	-0.380739	-0.401817
C41	C	2.000777	-0.380746	-0.401824
C42	C	1.612100	-0.380648	-0.674391
C43	C	1.612122	-0.380615	-0.790553
C44	C	1.557025	-0.174563	-0.456897
C45	C	1.533578	-0.086710	-0.480375
C46	C	1.535800	-0.332561	-0.855176
C47	C	1.535821	-0.332526	-0.975235
C48	C	1.612041	-0.380742	-0.130286
C49	C	1.612162	-0.380552	-0.014184
H50	H	1.034276	-0.339568	-0.358527
H51	H	1.241048	-0.469986	-0.495647
H52	H	1.505002	-0.730570	-0.508686
O53	O	1.158233	-0.331643	-0.350002
C54	C	1.189353	-0.348821	-0.241196
H55	H	1.276726	-0.379144	-0.230789
H56	H	1.138790	-0.389474	-0.195115
C57	C	1.066308	-0.234466	-0.211434
C58	C	1.173624	-0.271703	-0.198652
H59	H	1.056602	-0.186898	-0.185189
H60	H	1.045338	-0.222894	-0.284738
H61	H	1.024185	-0.268352	-0.173033
H62	H	1.215743	-0.237822	-0.237064
H63	H	1.194600	-0.283268	-0.125354
H64	H	1.571183	-0.681621	-0.442607
H65	H	1.677511	-0.421692	-0.958666
O66	O	1.391442	-0.798902	-0.621954
C67	C	1.311180	-0.751233	-0.575132
H68	H	1.344761	-0.738877	-0.499266
H69	H	1.242282	-0.783095	-0.555081
C70	C	1.229971	-0.687985	-0.746735
C71	C	1.271218	-0.672804	-0.653559
H72	H	1.205316	-0.639608	-0.795113
H73	H	1.284042	-0.720103	-0.778280
H74	H	1.172561	-0.714539	-0.730012
H75	H	1.328634	-0.646260	-0.670282
H76	H	1.217155	-0.640680	-0.622019
H77	H	1.470439	-0.291448	-0.821617
O78	O	1.025551	-0.478075	-0.503888
C79	C	1.073203	-0.556846	-0.459880
H80	H	1.104284	-0.560783	-0.375358
H81	H	1.142048	-0.577589	-0.510368
C82	C	0.952096	-0.604717	-0.561593
C83	C	0.990262	-0.609554	-0.457778
H84	H	0.900937	-0.637231	-0.560300
H85	H	0.919994	-0.551647	-0.591245
H86	H	1.009476	-0.622002	-0.603655
H87	H	0.932885	-0.592260	-0.415721
H88	H	1.022352	-0.662622	-0.428118
O89	O	1.457727	-0.283481	-1.041340
C90	C	1.358153	-0.300754	-1.010139
H91	H	1.363999	-0.331108	-0.922754
H92	H	1.333878	-0.341412	-1.060679
C93	C	1.267098	-0.186413	-1.133158
C94	C	1.274275	-0.223689	-1.025827
H95	H	1.215356	-0.138877	-1.142839
H96	H	1.334182	-0.174777	-1.154182
H97	H	1.246873	-0.220303	-1.175262
H98	H	1.294512	-0.189803	-0.983727
H99	H	1.207192	-0.235318	-1.004796
H100	H	1.370079	-0.929303	-0.643559
O101	O	1.401391	-1.085428	-0.612446
C102	C	1.327849	-1.031307	-0.685811
H103	H	1.354871	-0.972438	-0.705182
H104	H	1.246167	-1.022593	-0.649799
C105	C	1.288162	-1.135787	-0.764636
C106	C	1.321356	-1.063485	-0.788435
H107	H	1.284153	-1.155636	-0.827938
H108	H	1.337706	-1.172250	-0.715207
H109	H	1.220097	-1.128515	-0.734625
H110	H	1.389426	-1.070759	-0.818434
H111	H	1.271823	-1.027023	-0.837873
H112	H	1.853938	-0.831345	-0.160332
O113	O	1.665073	-1.085633	-0.349114
C114	C	1.672607	-1.167343	-0.341583
H115	H	1.641369	-1.178608	-0.419196
H116	H	1.623267	-1.190815	-0.273287
C117	C	1.828050	-1.195838	-0.225447
C118	C	1.789692	-1.209675	-0.320776
H119	H	1.900272	-1.221952	-0.212608
H120	H	1.822973	-1.140789	-0.230517
H121	H	1.786924	-1.215398	-0.168545
H122	H	1.830809	-1.190106	-0.377678
H123	H	1.794778	-1.264722	-0.315716
H124	H	1.677479	-0.421732	-0.824111
H125	H	1.719011	-1.030069	-0.295188
O126	O	1.832489	-0.961778	-0.181872
C127	C	1.840023	-1.043488	-0.174342
H128	H	1.808785	-1.054753	-0.251954
H129	H	1.790683	-1.066960	-0.106046
C130	C	1.995467	-1.071984	-0.058206
C131	C	1.957108	-1.085820	-0.153535
H132	H	2.067689	-1.098097	-0.045366
H133	H	1.990390	-1.016934	-0.063276
H134	H	1.954340	-1.091544	-0.001304
H135	H	1.998225	-1.066251	-0.210437
H136	H	1.962194	-1.140867	-0.148474
O137	O	1.822610	-0.675003	-0.191737
C138	C	1.877276	-0.627205	-0.264058
H139	H	1.837057	-0.614827	-0.346523
H140	H	1.963226	-0.658966	-0.267130
C141	C	1.924614	-0.564009	-0.126224
C142	C	1.875210	-0.548802	-0.227508
H143	H	1.923345	-0.515648	-0.103678
H144	H	1.887788	-0.596214	-0.077499
H145	H	1.996234	-0.590479	-0.128798
H146	H	1.803588	-0.522342	-0.224931
H147	H	1.912024	-0.516590	-0.276233
