data_functionalizedCrystal
_audit_creation_method	'MofGen! by Chris Wilmer'
_symmetry_space_group_name_H-M	'P1'
_symmetry_Int_Tables_number	1
_symmetry_cell_setting	triclinic
loop_
_symmetry_equiv_pos_as_xyz
  x,y,z
_cell_length_a	17.019311
_cell_length_b	17.038272
_cell_length_c	10.268362
_cell_angle_alpha	89.994496
_cell_angle_beta	86.115693
_cell_angle_gamma	87.245400
loop_
_atom_site_label
_atom_site_type_symbol
_atom_site_fract_x
_atom_site_fract_y
_atom_site_fract_z
O1	O	1.053365	0.099633	-0.226433
O2	O	1.553365	0.599633	0.273567
O3	O	0.824552	0.112327	-0.200775
O4	O	1.324552	0.612327	0.299225
O5	O	0.937598	-0.007834	-0.213441
O6	O	1.437598	0.492166	0.286559
O7	O	0.940318	0.219794	-0.213767
O8	O	1.440318	0.719794	0.286233
O9	O	0.937588	-0.007839	0.003161
O10	O	1.437588	0.492161	0.503161
O11	O	0.824541	0.112322	0.015827
O12	O	1.324541	0.612322	0.515827
O13	O	1.053354	0.099628	-0.009831
O14	O	1.553354	0.599628	0.490169
Cu15	Cu	0.938946	0.105974	0.022775
Cu16	Cu	1.438946	0.605974	0.522775
Cu17	Cu	0.938959	0.105980	-0.233381
Cu18	Cu	1.438959	0.605980	0.266619
O19	O	0.940307	0.219789	0.002835
O20	O	1.440307	0.719789	0.502835
C21	C	0.795125	0.111842	-0.089175
C22	C	1.295125	0.611842	0.410825
C23	C	0.707458	0.110395	-0.079344
C24	C	1.207458	0.610395	0.420656
C25	C	0.211627	0.102237	-0.017823
C26	C	0.711627	0.602237	0.482177
C27	C	0.294000	0.103597	-0.027062
C28	C	0.794000	0.603597	0.472938
C29	C	0.335192	0.104273	-0.149754
C30	C	0.835192	0.604273	0.350246
C31	C	0.294008	0.103598	-0.263213
C32	C	0.794008	0.603598	0.236787
C33	C	0.211636	0.102244	-0.253972
C34	C	0.711636	0.602244	0.246028
C35	C	0.583901	0.108366	-0.183562
C36	C	1.083901	0.608366	0.316438
C37	C	0.666279	0.109718	-0.192795
C38	C	1.166279	0.609718	0.307205
C39	C	0.666265	0.109718	0.043357
C40	C	1.166265	0.609718	0.543357
C41	C	0.583892	0.108359	0.052587
C42	C	1.083892	0.608359	0.552587
C43	C	0.542714	0.107688	-0.060872
C44	C	1.042714	0.607688	0.439128
C45	C	0.419391	0.105660	-0.159201
C46	C	0.919391	0.605660	0.340799
C47	C	0.458517	0.106307	-0.051423
C48	C	0.958517	0.606307	0.448577
C49	C	0.935119	-0.036963	-0.104863
C50	C	1.435119	0.463037	0.395137
C51	C	0.927739	-0.123750	-0.104036
C52	C	1.427739	0.376250	0.395964
C53	C	0.995499	-0.173920	-0.111633
C54	C	1.495499	0.326080	0.388367
C55	C	0.988560	-0.255465	-0.110867
C56	C	1.488560	0.244535	0.389133
C57	C	0.913860	-0.286838	-0.102495
C58	C	1.413860	0.213162	0.397505
C59	C	0.846094	-0.236661	-0.094901
C60	C	1.346094	0.263339	0.405099
C61	C	0.853034	-0.155118	-0.095676
C62	C	1.353034	0.344882	0.404324
C63	C	0.889342	-0.532575	-0.099763
C64	C	1.389342	-0.032575	0.400237
C65	C	0.882407	-0.614125	-0.098985
C66	C	1.382407	-0.114125	0.401015
C67	C	1.024873	-0.632923	-0.114953
C68	C	1.524873	-0.132923	0.385047
C69	C	1.031806	-0.551378	-0.115720
C70	C	1.531806	-0.051378	0.384280
C71	C	0.964041	-0.501208	-0.108133
C72	C	1.464041	-0.001208	0.391867
C73	C	0.906765	-0.370190	-0.101708
C74	C	1.406765	0.129810	0.398292
C75	C	0.971137	-0.417858	-0.108929
C76	C	1.471137	0.082142	0.391071
C77	C	1.082781	0.100113	-0.121434
C78	C	1.582781	0.600113	0.378566
C79	C	1.170448	0.101560	-0.131273
C80	C	1.670448	0.601560	0.368727
C81	C	0.942786	0.248918	-0.105746
C82	C	1.442786	0.748918	0.394254
C83	C	0.950167	0.335705	-0.106582
C84	C	1.450167	0.835705	0.393418
N85	N	0.938943	0.105970	0.202942
N86	N	1.438943	0.605970	0.702942
N87	N	0.938968	0.105979	-0.413548
N88	N	1.438968	0.605979	0.086452
C89	C	0.938955	0.105979	0.468611
C90	C	1.438955	0.605979	0.968611
C91	C	0.938946	0.105976	0.320774
C92	C	1.438946	0.605976	0.820774
H93	H	0.327553	0.104154	-0.363111
H94	H	0.827553	0.604154	0.136889
H95	H	1.043738	-0.296311	-0.117050
H96	H	1.543738	0.203689	0.382950
H97	H	0.178109	0.101695	-0.346356
H98	H	0.678109	0.601695	0.153644
F99	F	0.463239	0.106372	-0.289776
F100	F	0.963239	0.606372	0.210224
F101	F	0.414675	0.105591	0.079150
F102	F	0.914675	0.605591	0.579150
H103	H	1.092635	-0.525841	-0.122537
H104	H	1.592635	-0.025841	0.377463
H105	H	1.080043	-0.673780	-0.121132
H106	H	1.580043	-0.173780	0.378868
H107	H	0.821574	-0.639665	-0.092146
H108	H	1.321574	-0.139665	0.407854
F109	F	0.817219	-0.479191	-0.091692
F110	F	1.317219	0.020809	0.408308
F111	F	1.050636	-0.384467	-0.117847
F112	F	1.550636	0.115533	0.382153
H113	H	0.785272	-0.262211	-0.088093
H114	H	1.285272	0.237789	0.411907
F115	F	0.337821	0.104321	0.093688
F116	F	0.837821	0.604321	0.593688
F117	F	0.540088	0.107649	-0.304317
F118	F	1.040088	0.607649	0.195683
F119	F	1.075006	-0.140539	-0.120531
F120	F	1.575006	0.359461	0.379469
F121	F	0.827265	-0.403586	-0.092803
F122	F	1.327265	0.096414	0.407197
F123	F	0.780914	-0.101723	-0.087595
F124	F	1.280914	0.398277	0.412405
H125	H	0.550360	0.107791	0.152496
H126	H	1.050360	0.607791	0.652496
F127	F	0.710095	0.110436	0.164100
F128	F	1.210095	0.610436	0.664100
F129	F	0.167794	0.101510	0.112764
F130	F	0.667794	0.601510	0.612764
H131	H	0.699815	0.110275	-0.292710
H132	H	1.199815	0.610275	0.207290
