data_functionalizedCrystal
_audit_creation_method	'MofGen! by Chris Wilmer'
_symmetry_space_group_name_H-M	'P1'
_symmetry_Int_Tables_number	1
_symmetry_cell_setting	triclinic
loop_
_symmetry_equiv_pos_as_xyz
  x,y,z
_cell_length_a	19.805407
_cell_length_b	19.805404
_cell_length_c	19.805399
_cell_angle_alpha	90.027110
_cell_angle_beta	90.017803
_cell_angle_gamma	90.026910
loop_
_atom_site_label
_atom_site_type_symbol
_atom_site_fract_x
_atom_site_fract_y
_atom_site_fract_z
Zn1	Zn	1.034721	-0.269527	0.382690
Zn2	Zn	1.034629	-0.382716	0.269503
Zn3	Zn	0.921535	-0.269541	0.269518
Zn4	Zn	0.921493	-0.382674	0.382653
O5	O	0.978094	-0.326115	0.326091
O6	O	1.129425	-0.284554	0.367684
O7	O	1.019607	-0.367726	0.174788
O8	O	0.936606	-0.174822	0.284552
O9	O	1.129358	-0.367713	0.284526
O10	O	1.019763	-0.174813	0.367699
O11	O	0.936517	-0.284576	0.174799
O12	O	0.826813	-0.284536	0.284516
O13	O	0.936533	-0.367642	0.477374
O14	O	0.826782	-0.367655	0.367636
O15	O	1.019721	-0.284514	0.477402
O16	O	1.019565	-0.477427	0.284490
O17	O	0.936444	-0.477397	0.367621
C18	C	0.802238	-0.326093	0.326074
C19	C	0.727006	-0.326101	0.326083
C20	C	0.691698	-0.282876	0.369450
C21	C	0.621009	-0.282880	0.369452
C22	C	0.585631	-0.326112	0.326092
C23	C	0.620944	-0.369338	0.282720
C24	C	0.691631	-0.369330	0.282715
C25	C	0.335871	-0.369368	0.282741
C26	C	0.265179	-0.369374	0.282751
C27	C	0.265249	-0.282918	0.369479
C28	C	0.335936	-0.282910	0.369473
C29	C	0.371243	-0.326134	0.326100
C30	C	0.447892	-0.326128	0.326097
C31	C	0.508984	-0.326121	0.326098
C32	C	0.978009	-0.501971	0.326065
C33	C	0.978034	-0.577203	0.326076
C34	C	1.021542	-1.038987	0.282899
C35	C	1.021510	-0.968298	0.282886
C36	C	0.978183	-0.932964	0.326127
C37	C	0.934880	-0.968322	0.369378
C38	C	0.934909	-1.039009	0.369388
C39	C	0.934763	-0.683249	0.369341
C40	C	0.934739	-0.612557	0.369330
C41	C	1.021363	-0.612538	0.282840
C42	C	1.021392	-0.683225	0.282849
C43	C	0.978087	-0.718577	0.326098
C44	C	0.978121	-0.795225	0.326111
C45	C	0.978152	-0.856317	0.326118
C46	C	1.154637	-0.326136	0.326108
C47	C	1.229869	-0.326146	0.326115
C48	C	0.978132	-0.326072	0.502634
C49	C	0.978149	-0.326054	0.577866
C50	C	0.978199	-0.149572	0.326132
C51	C	0.978244	-0.074340	0.326149
C52	C	0.978096	-0.326108	0.150235
C53	C	0.978211	-0.325936	0.075003
C54	C	1.021466	-0.282767	0.613225
C55	C	1.021473	-0.282747	0.683914
C56	C	0.978165	-0.326018	0.719241
C57	C	0.934844	-0.369308	0.683877
C58	C	0.934834	-0.369323	0.613190
C59	C	0.934882	-0.369244	0.968950
C60	C	0.934896	-0.369227	1.039642
C61	C	1.021521	-0.282668	1.039674
C62	C	1.021511	-0.282684	0.968987
C63	C	0.978187	-0.325970	0.933629
C64	C	0.978179	-0.325990	0.856980
C65	C	0.978176	-0.326002	0.795888
H66	H	0.236493	-0.247721	0.404793
H67	H	0.899655	-1.067793	0.404610
C68	C	0.800085	-0.244477	0.407957
C69	C	0.730584	-0.235355	0.417115
H70	H	0.824089	-0.215140	0.437388
H71	H	0.811653	-0.234509	0.362503
H72	H	0.811650	-0.289968	0.417783
H73	H	0.719018	-0.189866	0.407285
H74	H	0.719011	-0.245319	0.462580
C75	C	0.901843	-0.483830	1.061370
C76	C	0.887285	-0.416792	1.078474
H77	H	0.872449	-0.513192	1.085340
H78	H	0.947310	-0.493738	1.072961
H79	H	0.895633	-0.490024	1.014210
H80	H	0.893500	-0.410596	1.125633
H81	H	0.841807	-0.406881	1.066887
C82	C	0.896351	-0.407779	0.504815
C83	C	0.887219	-0.416906	0.574319
H84	H	0.866950	-0.437151	0.480820
H85	H	0.941815	-0.417697	0.493238
H86	H	0.886472	-0.362300	0.493249
H87	H	0.897103	-0.462384	0.585886
H88	H	0.841745	-0.406993	0.585900
H89	H	0.236376	-0.404580	0.247439
C90	C	1.030794	-0.533099	0.191781
C91	C	1.068960	-0.573678	0.235290
H92	H	1.060179	-0.509114	0.162426
H93	H	1.004992	-0.501941	0.217530
H94	H	1.001334	-0.560726	0.165871
H95	H	1.098416	-0.546051	0.261204
H96	H	1.094772	-0.604839	0.209538
C97	C	0.328692	-0.454831	0.197017
C98	C	0.374675	-0.416882	0.235069
H99	H	0.352651	-0.484168	0.167588
H100	H	0.301122	-0.425309	0.171186
H101	H	0.301124	-0.480761	0.226472
H102	H	0.402239	-0.390948	0.205614
H103	H	0.402256	-0.446408	0.260903
C104	C	0.820213	-0.402255	0.705617
C105	C	0.887238	-0.416872	0.722707
H106	H	0.790825	-0.431620	0.729592
H107	H	0.814012	-0.408461	0.658463
H108	H	0.810346	-0.356773	0.717217
H109	H	0.897107	-0.462353	0.711103
H110	H	0.893442	-0.410672	0.769872
C111	C	0.628179	-0.197426	0.455186
C112	C	0.582198	-0.235368	0.417124
H113	H	0.604217	-0.168095	0.484619
H114	H	0.655747	-0.171495	0.425742
H115	H	0.655748	-0.226957	0.481019
H116	H	0.554632	-0.205837	0.391287
H117	H	0.554618	-0.261301	0.446572
C118	C	0.849099	-0.619672	0.454821
C119	C	0.887106	-0.573716	0.416860
H120	H	0.819693	-0.595691	0.484160
H121	H	0.878580	-0.647201	0.480744
H122	H	0.823239	-0.647283	0.425302
H123	H	0.912970	-0.546108	0.446379
H124	H	0.857622	-0.546175	0.390935
H125	H	0.364738	-0.247709	0.404784
H126	H	0.592133	-0.404535	0.247412
C127	C	0.896339	-0.791609	0.407768
C128	C	0.887171	-0.722103	0.416888
H129	H	0.866955	-0.815596	0.437122
H130	H	0.941810	-0.803145	0.417714
H131	H	0.886459	-0.803226	0.362283
H132	H	0.897057	-0.710485	0.462372
H133	H	0.841689	-0.710562	0.406947
C134	C	0.684467	-0.454800	0.196995
C135	C	0.730445	-0.416849	0.235050
H136	H	0.708430	-0.484138	0.167570
H137	H	0.656899	-0.425280	0.171159
H138	H	0.656896	-0.480729	0.226448
H139	H	0.758013	-0.390915	0.205596
H140	H	0.758025	-0.446372	0.260887
H141	H	1.056827	-1.067751	0.247691
H142	H	1.056734	-0.247532	0.584466
H143	H	0.899615	-0.404501	0.940170
C144	C	0.925396	-0.888785	0.460406
C145	C	0.887257	-0.929483	0.416912
H146	H	0.895995	-0.864811	0.489755
H147	H	0.951172	-0.857616	0.434645
H148	H	0.954878	-0.916329	0.486323
H149	H	0.857778	-0.901938	0.390991
H150	H	0.861469	-0.960655	0.442676
H151	H	1.056778	-0.247450	0.940227
C152	C	1.054558	-0.946588	0.168305
C153	C	1.069111	-0.929443	0.235347
H154	H	1.083950	-0.922603	0.138957
H155	H	1.009090	-0.935043	0.158355
H156	H	1.060775	-0.993745	0.162136
H157	H	1.062889	-0.882286	0.241518
H158	H	1.114590	-0.940983	0.245301
C159	C	1.107012	-0.676105	0.197346
C160	C	1.069016	-0.722064	0.235315
H161	H	1.136408	-0.700083	0.167997
H162	H	1.132875	-0.648496	0.226855
H163	H	1.077519	-0.648573	0.171429
H164	H	1.098509	-0.749592	0.261237
H165	H	1.043151	-0.749683	0.205803
C166	C	1.107108	-0.197198	0.676845
C167	C	1.069093	-0.235169	0.722781
H168	H	1.136511	-0.167827	0.700841
H169	H	1.077633	-0.171308	0.649277
H170	H	1.132972	-0.226708	0.649270
H171	H	1.043225	-0.205658	0.750352
H172	H	1.098572	-0.261060	0.750360
C173	C	1.059999	-0.244193	1.148047
C174	C	1.069137	-0.235077	1.078542
H175	H	1.089392	-0.214810	1.172040
H176	H	1.069881	-0.289662	1.159622
H177	H	1.014527	-0.234276	1.159618
H178	H	1.114607	-0.244998	1.066970
H179	H	1.059259	-0.189597	1.066963
