data_functionalizedCrystal
_audit_creation_method	'MofGen! by Chris Wilmer'
_symmetry_space_group_name_H-M	'P1'
_symmetry_Int_Tables_number	1
_symmetry_cell_setting	triclinic
loop_
_symmetry_equiv_pos_as_xyz
  x,y,z
_cell_length_a	17.077404
_cell_length_b	12.645330
_cell_length_c	17.077396
_cell_angle_alpha	90.024069
_cell_angle_beta	90.019501
_cell_angle_gamma	90.017917
loop_
_atom_site_label
_atom_site_type_symbol
_atom_site_fract_x
_atom_site_fract_y
_atom_site_fract_z
Zn1	Zn	1.200083	-0.422033	0.443867
Zn2	Zn	1.200002	-0.599318	0.312611
Zn3	Zn	1.068815	-0.422070	0.312615
Zn4	Zn	1.068795	-0.599256	0.443834
O5	O	1.134424	-0.510669	0.378232
O6	O	1.309919	-0.445561	0.426467
O7	O	1.182574	-0.575848	0.202764
O8	O	1.086270	-0.273718	0.330041
O9	O	1.309860	-0.575812	0.330034
O10	O	1.182712	-0.273691	0.426471
O11	O	1.086192	-0.445624	0.202767
O12	O	0.958965	-0.445563	0.330009
O13	O	1.086236	-0.575705	0.553686
O14	O	0.958950	-0.575741	0.426416
O15	O	1.182693	-0.445500	0.553709
O16	O	1.182555	-0.747657	0.330003
O17	O	1.086157	-0.747611	0.426412
C18	C	0.930476	-0.510650	0.378210
C19	C	0.843226	-0.510667	0.378219
C20	C	0.802249	-0.578553	0.428338
C21	C	0.720268	-0.578555	0.428350
C22	C	0.679267	-0.510677	0.378240
C23	C	0.720250	-0.442783	0.328119
C24	C	0.802229	-0.442777	0.328111
C25	C	0.549380	-0.442804	0.328138
C26	C	0.467395	-0.442812	0.328145
C27	C	0.467419	-0.578583	0.428377
C28	C	0.549398	-0.578576	0.428369
C29	C	0.590376	-0.510684	0.378247
C30	C	1.134366	-0.786099	0.378221
C31	C	1.134414	-0.903929	0.378242
C32	C	1.074020	-1.071508	0.439080
C33	C	1.073711	-0.948949	0.438885
C34	C	1.112022	-0.948522	0.295515
C35	C	1.111653	-1.071120	0.295885
C36	C	1.217568	-1.071018	0.399460
C37	C	1.217059	-0.948411	0.401269
C38	C	1.339168	-0.510689	0.378254
C39	C	1.426418	-0.510698	0.378263
C40	C	1.134471	-0.510591	0.582976
C41	C	1.134491	-0.510558	0.670226
C42	C	1.134502	-0.234164	0.378260
C43	C	1.134536	-0.116334	0.378272
C44	C	1.134421	-0.510671	0.174284
C45	C	1.134553	-0.510405	0.087034
C46	C	1.184718	-0.442755	0.711230
C47	C	1.184728	-0.442719	0.793210
C48	C	1.134514	-0.510493	0.834185
C49	C	1.084281	-0.578300	0.793176
C50	C	1.084268	-0.578329	0.711197
C51	C	1.084313	-0.578236	0.964046
C52	C	1.084326	-0.578208	1.046031
C53	C	1.184772	-0.442627	1.046059
C54	C	1.184759	-0.442656	0.964080
C55	C	1.134528	-0.510464	0.923076
H56	H	0.835626	-0.633831	0.469141
C57	C	1.245167	-1.112676	0.479568
H58	H	1.295377	-1.084385	0.491237
H59	H	1.209019	-1.091687	0.518875
H60	H	1.248139	-1.187666	0.478007
C61	C	0.675196	-0.653294	0.483432
H62	H	0.711357	-0.693747	0.513254
H63	H	0.643216	-0.612866	0.517707
H64	H	0.643218	-0.699415	0.453301
C65	C	0.422348	-0.653257	0.483515
H66	H	0.367652	-0.643532	0.476351
H67	H	0.435762	-0.724463	0.471935
H68	H	0.435813	-0.637826	0.536277
C69	C	0.422294	-0.368137	0.273033
H70	H	0.458438	-0.327690	0.243190
H71	H	0.390290	-0.408626	0.238780
H72	H	0.390338	-0.322007	0.303135
C73	C	0.847307	-0.368105	0.272983
H74	H	0.902003	-0.377814	0.280160
H75	H	0.833848	-0.383524	0.220222
H76	H	0.833889	-0.296896	0.284569
H77	H	1.051958	-0.917910	0.277242
H78	H	1.087901	-1.100921	0.500623
H79	H	1.154702	-0.919362	0.248970
H80	H	0.582741	-0.387510	0.287331
C81	C	1.029658	-1.109886	0.271645
H82	H	0.996885	-1.050707	0.261669
H83	H	1.033681	-1.151760	0.225629
H84	H	1.007812	-1.151090	0.312697
C85	C	1.092631	-0.908203	0.521749
H86	H	1.092469	-0.833074	0.521740
H87	H	1.054283	-0.933387	0.557454
H88	H	1.142823	-0.933004	0.537172
C89	C	0.675154	-0.368114	0.272999
H90	H	0.711302	-0.327675	0.243155
H91	H	0.643151	-0.408607	0.238748
H92	H	0.643196	-0.321976	0.303094
H93	H	1.043436	-0.633394	1.079391
H94	H	1.153818	-1.100776	0.249033
H95	H	1.012848	-1.102409	0.425223
C96	C	0.990559	-0.909447	0.419911
H97	H	0.956837	-0.968328	0.412285
H98	H	0.971696	-0.867722	0.462148
H99	H	0.991842	-0.867934	0.373577
C100	C	1.239954	-0.368205	0.666160
H101	H	1.232760	-0.377938	0.611463
H102	H	1.228489	-0.296972	0.679602
H103	H	1.292696	-0.383728	0.679605
H104	H	1.233945	-0.919262	0.462152
H105	H	1.043396	-0.633436	0.930663
C106	C	1.029045	-0.652852	0.838243
H107	H	0.999125	-0.693231	0.802079
H108	H	1.059064	-0.699034	0.870222
H109	H	0.994857	-0.612279	0.870221
H110	H	1.264520	-0.917760	0.360204
C111	C	1.240035	-0.368051	1.091160
H112	H	1.232850	-0.377734	1.145852
H113	H	1.292765	-0.383595	1.077728
H114	H	1.228574	-0.296818	1.077734
C115	C	1.278460	-1.110071	0.339578
H116	H	1.253447	-1.153793	0.301852
H117	H	1.301587	-1.051049	0.314113
H118	H	1.317896	-1.149457	0.365812
H119	H	1.225629	-0.387510	0.826592
C120	C	1.029038	-0.652938	0.666093
H121	H	0.999144	-0.693312	0.702236
H122	H	0.994837	-0.612416	0.634102
H123	H	1.059068	-0.699139	0.634123
C124	C	1.239994	-0.368107	0.919009
H125	H	1.269907	-0.327712	0.955169
H126	H	1.274177	-0.408675	0.887029
H127	H	1.209967	-0.321923	0.887030
H128	H	0.582779	-0.633855	0.469169
