data_functionalizedCrystal
_audit_creation_method	'MofGen! by Chris Wilmer'
_symmetry_space_group_name_H-M	'P1'
_symmetry_Int_Tables_number	1
_symmetry_cell_setting	triclinic
loop_
_symmetry_equiv_pos_as_xyz
  x,y,z
_cell_length_a	19.077105
_cell_length_b	19.077068
_cell_length_c	21.395355
_cell_angle_alpha	92.279051
_cell_angle_beta	87.678776
_cell_angle_gamma	90.115316
loop_
_atom_site_label
_atom_site_type_symbol
_atom_site_fract_x
_atom_site_fract_y
_atom_site_fract_z
Zn1	Zn	1.063028	-0.323070	-0.403776
Zn2	Zn	1.563028	0.176930	0.096224
Zn3	Zn	1.058205	-0.440557	-0.303024
Zn4	Zn	1.558205	0.059443	0.196976
Zn5	Zn	0.945510	-0.318340	-0.294646
Zn6	Zn	1.445510	0.181660	0.205354
Zn7	Zn	0.940763	-0.435812	-0.403400
Zn8	Zn	1.440763	0.064188	0.096600
O9	O	1.001876	-0.379445	-0.351212
O10	O	1.501876	0.120555	0.148788
O11	O	1.160720	-0.342620	-0.394075
O12	O	1.660720	0.157380	0.105925
O13	O	1.043224	-0.424351	-0.214234
O14	O	1.543224	0.075649	0.285766
O15	O	0.965104	-0.220637	-0.305774
O16	O	1.465104	0.279363	0.194226
O17	O	1.157177	-0.428937	-0.320053
O18	O	1.657177	0.071063	0.179947
O19	O	1.051444	-0.224112	-0.385951
O20	O	1.551444	0.275888	0.114049
O21	O	0.960427	-0.334559	-0.208079
O22	O	1.460427	0.165441	0.291921
O23	O	0.846548	-0.329958	-0.305409
O24	O	1.346548	0.170042	0.194591
O25	O	0.957013	-0.420850	-0.491129
O26	O	1.457013	0.079150	0.008871
O27	O	0.843061	-0.416264	-0.385310
O28	O	1.343061	0.083736	0.114690
O29	O	1.046841	-0.338019	-0.491405
O30	O	1.546841	0.161981	0.008595
O31	O	1.038621	-0.538258	-0.319688
O32	O	1.538621	-0.038258	0.180312
O33	O	0.952337	-0.534772	-0.393434
O34	O	1.452337	-0.034772	0.106566
C35	C	0.819308	-0.372083	-0.344410
C36	C	1.319308	0.127917	0.155590
C37	C	0.741204	-0.368951	-0.341515
C38	C	1.241204	0.131049	0.158485
C39	C	0.702710	-0.412482	-0.381695
C40	C	1.202710	0.087518	0.118305
C41	C	0.629323	-0.409529	-0.378978
C42	C	1.129323	0.090471	0.121022
C43	C	0.594432	-0.363049	-0.336078
C44	C	1.094432	0.136951	0.163922
C45	C	0.632931	-0.319513	-0.295897
C46	C	1.132931	0.180487	0.204103
C47	C	0.706316	-0.322463	-0.298617
C48	C	1.206316	0.177537	0.201383
C49	C	0.375145	-0.349399	-0.323490
C50	C	0.875145	0.150601	0.176510
C51	C	0.301755	-0.346454	-0.320771
C52	C	0.801755	0.153546	0.179229
C53	C	0.298153	-0.436470	-0.403854
C54	C	0.798153	0.063530	0.096146
C55	C	0.371540	-0.439418	-0.406568
C56	C	0.871540	0.060582	0.093432
C57	C	0.410032	-0.395880	-0.366389
C58	C	0.910032	0.104120	0.133611
N59	N	0.519418	-0.360032	-0.333298
N60	N	1.019418	0.139968	0.166702
N61	N	0.485044	-0.398894	-0.369172
N62	N	0.985044	0.101106	0.130828
C63	C	0.994460	-0.562012	-0.357444
C64	C	1.494460	-0.062012	0.142556
C65	C	0.991351	-0.640117	-0.360133
C66	C	1.491351	-0.140117	0.139867
C67	C	1.034849	-0.678604	-0.323036
C68	C	1.534849	-0.178604	0.176964
C69	C	1.031930	-0.751993	-0.325569
C70	C	1.531930	-0.251993	0.174431
C71	C	0.985508	-0.786893	-0.365197
C72	C	1.485508	-0.286893	0.134803
C73	C	0.942008	-0.748400	-0.402298
C74	C	1.442008	-0.248400	0.097702
C75	C	0.944931	-0.675013	-0.399768
C76	C	1.444931	-0.175013	0.100232
C77	C	0.971946	-1.006184	-0.376881
C78	C	1.471946	-0.506184	0.123119
C79	C	0.969024	-1.079576	-0.379408
C80	C	1.469024	-0.579576	0.120592
C81	C	1.058947	-1.083164	-0.302679
C82	C	1.558947	-0.583164	0.197321
C83	C	1.061864	-1.009775	-0.300149
C84	C	1.561864	-0.509775	0.199851
C85	C	1.018366	-0.971289	-0.337253
C86	C	1.518366	-0.471289	0.162747
N87	N	0.982521	-0.861907	-0.367786
N88	N	1.482521	-0.361907	0.132214
N89	N	1.021357	-0.896276	-0.334667
N90	N	1.521357	-0.396276	0.165333
C91	C	1.185157	-0.386836	-0.358041
C92	C	1.685157	0.113164	0.141959
C93	C	1.263261	-0.389985	-0.360951
C94	C	1.763261	0.110015	0.139049
C95	C	1.001935	-0.379433	-0.514637
C96	C	1.501935	0.120567	-0.014637
C97	C	1.001960	-0.379428	-0.584279
C98	C	1.501960	0.120572	-0.084279
C99	C	1.009341	-0.196166	-0.344970
C100	C	1.509341	0.303834	0.155030
C101	C	1.012522	-0.118063	-0.342310
C102	C	1.512522	0.381937	0.157690
C103	C	1.048732	-0.336296	-0.617137
C104	C	1.548732	0.163704	-0.117137
C105	C	1.048732	-0.336266	-0.682571
C106	C	1.548732	0.163734	-0.182571
C107	C	1.001968	-0.379380	-0.715146
C108	C	1.501968	0.120620	-0.215146
C109	C	0.955187	-0.422515	-0.682280
C110	C	1.455187	0.077485	-0.182280
C111	C	0.955184	-0.422539	-0.616846
C112	C	1.455184	0.077461	-0.116846
C113	C	0.993849	-0.442427	-0.820774
C114	C	1.493849	0.057573	-0.320774
C115	C	0.993858	-0.442404	-0.886206
C116	C	1.493858	0.057596	-0.386206
C117	C	1.001975	-0.379306	-0.916964
C118	C	1.501975	0.120694	-0.416964
C119	C	1.010099	-0.316229	-0.882282
C120	C	1.510099	0.183771	-0.382282
C121	C	1.010095	-0.316253	-0.816849
C122	C	1.510095	0.183747	-0.316849
C123	C	1.001966	-0.379359	-0.786097
C124	C	1.501966	0.120641	-0.286097
C125	C	1.048749	-0.336138	-1.020774
C126	C	1.548749	0.163862	-0.520774
C127	C	1.048745	-0.336106	-1.086209
C128	C	1.548745	0.163894	-0.586209
C129	C	0.955204	-0.422362	-1.085917
C130	C	1.455204	0.077638	-0.585917
C131	C	0.955205	-0.422387	-1.020482
C132	C	1.455205	0.077613	-0.520482
C133	C	1.001981	-0.379276	-0.987915
C134	C	1.501981	0.120724	-0.487915
C135	C	1.001860	-0.379408	-0.188422
C136	C	1.501860	0.120592	0.311578
C137	C	1.001979	-0.379220	-0.118779
C138	C	1.501979	0.120780	0.381221
H139	H	0.399943	-0.477269	-0.441500
H140	H	0.899943	0.022731	0.058500
H141	H	0.936527	-0.974854	-0.407092
H142	H	1.436527	-0.474854	0.092908
F143	F	1.018737	-0.249123	-0.779939
F144	F	1.518737	0.250877	-0.279939
H145	H	1.016710	-0.264848	-0.907323
H146	H	1.516710	0.235152	-0.407323
F147	F	1.078229	-0.792951	-0.286087
F148	F	1.578229	-0.292951	0.213913
F149	F	0.739838	-0.461956	-0.427353
F150	F	1.239838	0.038044	0.072647
F151	F	0.898637	-0.634053	-0.439254
F152	F	1.398637	-0.134053	0.060746
H153	H	0.273348	-0.308596	-0.285840
H154	H	0.773348	0.191404	0.214160
H155	H	0.987051	-0.493788	-0.795729
H156	H	1.487051	0.006212	-0.295729
F157	F	0.919606	-1.116717	-0.421580
F158	F	1.419606	-0.616717	0.078420
H159	H	0.266804	-0.471915	-0.436566
H160	H	0.766804	0.028085	0.063434
H161	H	1.072648	-0.650194	-0.290764
H162	H	1.572648	-0.150194	0.209236
F163	F	0.905416	-0.468398	-0.716948
F164	F	1.405416	0.031602	-0.216948
F165	F	1.105240	-1.124128	-0.263196
F166	F	1.605240	-0.624128	0.236804
F167	F	1.111280	-0.972638	-0.257979
F168	F	1.611280	-0.472638	0.242021
F169	F	0.985218	-0.509536	-0.923112
F170	F	1.485218	-0.009536	-0.423112
H171	H	0.904213	-0.776821	-0.434567
H172	H	1.404213	-0.276821	0.065433
H173	H	0.406477	-0.313952	-0.290769
H174	H	0.906477	0.186048	0.209231
H175	H	0.917094	-0.457661	-0.590093
H176	H	1.417094	0.042339	-0.090093
H177	H	0.604516	-0.281665	-0.260969
H178	H	1.104516	0.218335	0.239031
H179	H	0.917120	-0.457459	-1.112438
H180	H	1.417120	0.042541	-0.612438
F181	F	0.747284	-0.276130	-0.255854
F182	F	1.247284	0.223870	0.244146
H183	H	1.086820	-0.301191	-0.590624
H184	H	1.586820	0.198809	-0.090624
F185	F	1.098503	-0.290345	-0.717547
F186	F	1.598503	0.209655	-0.217547
F187	F	1.098529	-0.290253	-0.986111
F188	F	1.598529	0.209747	-0.486111
H189	H	1.086831	-0.300979	-1.112961
H190	H	1.586831	0.199021	-0.612961
H191	H	0.597985	-0.444977	-0.411696
H192	H	1.097985	0.055023	0.088304
F193	F	0.905426	-0.468297	-0.985511
F194	F	1.405426	0.031703	-0.485511
