data_functionalizedCrystal
_audit_creation_method	'MofGen! by Chris Wilmer'
_symmetry_space_group_name_H-M	'P1'
_symmetry_Int_Tables_number	1
_symmetry_cell_setting	triclinic
loop_
_symmetry_equiv_pos_as_xyz
  x,y,z
_cell_length_a	17.699083
_cell_length_b	10.540539
_cell_length_c	16.176319
_cell_angle_alpha	89.995366
_cell_angle_beta	89.998611
_cell_angle_gamma	83.904253
loop_
_atom_site_label
_atom_site_type_symbol
_atom_site_fract_x
_atom_site_fract_y
_atom_site_fract_z
O1	O	1.005122	0.160521	-0.068627
O2	O	0.784880	0.181405	-0.068653
O3	O	0.900026	-0.013836	-0.068638
O4	O	0.889976	0.355761	-0.068642
O5	O	0.900010	-0.013848	0.068855
O6	O	0.784864	0.181392	0.068840
O7	O	1.005106	0.160508	0.068866
Cu8	Cu	0.894984	0.170949	0.081407
Cu9	Cu	0.895003	0.170964	-0.081194
O10	O	0.889960	0.355749	0.068852
C11	C	0.756670	0.180650	0.000090
C12	C	0.672637	0.178405	0.000080
C13	C	0.624761	0.293007	0.000079
C14	C	0.545804	0.290890	0.000090
C15	C	0.514725	0.174170	0.000095
C16	C	0.562607	0.059559	0.000098
C17	C	0.641562	0.061677	0.000094
C18	C	0.244188	0.051014	0.000119
C19	C	0.165226	0.048904	0.000121
C20	C	0.148430	0.280227	0.000115
C21	C	0.227386	0.282345	0.000110
C22	C	0.275261	0.167735	0.000118
C23	C	0.360875	0.170032	0.000108
C24	C	0.429112	0.171872	0.000099
C25	C	0.899264	-0.061131	0.000107
C26	C	0.897009	-0.202038	0.000102
C27	C	0.810610	-0.383885	-0.000217
C28	C	0.812896	-0.237308	0.000093
C29	C	0.937479	-0.264443	0.078622
C30	C	0.934609	-0.410935	0.078688
C31	C	0.936338	-0.411471	-0.077667
C32	C	0.937113	-0.264503	-0.078705
C33	C	1.033316	0.161263	0.000122
C34	C	1.117349	0.163508	0.000126
C35	C	0.890722	0.403044	0.000105
C36	C	0.892977	0.543951	0.000104
N37	N	0.894976	0.170938	0.195773
N38	N	0.895016	0.170965	-0.195559
C39	C	0.945978	0.084521	0.239043
C40	C	0.945982	0.084519	0.325591
C41	C	0.894987	0.170942	0.368865
C42	C	0.843979	0.257364	0.325588
C43	C	0.843972	0.257358	0.239043
C44	C	0.844005	0.257387	0.674617
C45	C	0.844017	0.257389	0.761168
C46	C	0.946015	0.084549	0.761164
C47	C	0.946008	0.084543	0.674619
C48	C	0.894998	0.170959	0.631349
C49	C	0.894993	0.170958	0.537505
C50	C	0.894994	0.170951	0.462708
H51	H	0.537295	-0.035477	0.000115
N52	N	0.260908	0.408235	0.000093
H53	H	0.218597	0.480516	0.000094
H54	H	0.293304	0.414151	0.051059
H55	H	0.680543	-0.031644	0.000094
H56	H	0.283159	-0.042309	0.000126
N57	N	0.770714	-0.180084	-0.074461
H58	H	0.750464	-0.250068	-0.107823
H59	H	0.727040	-0.117254	-0.055649
N60	N	0.658284	0.418896	0.000077
H61	H	0.690665	0.424937	-0.050895
H62	H	0.615931	0.491103	0.000111
H63	H	0.802453	0.327727	0.360828
H64	H	0.987548	0.014180	0.796403
N65	N	0.766597	-0.420953	-0.074799
H66	H	0.799620	-0.484888	-0.109105
H67	H	0.719854	-0.460132	-0.056000
H68	H	0.802488	0.327767	0.796401
N69	N	1.016817	-0.475479	-0.078354
H70	H	1.044399	-0.446468	-0.128447
H71	H	1.043869	-0.451730	-0.026537
N72	N	1.014736	-0.475935	0.083438
H73	H	1.020557	-0.530346	0.134907
H74	H	1.025528	-0.531549	0.033079
N75	N	0.900227	-0.207328	0.156010
H76	H	0.844949	-0.223197	0.156783
H77	H	0.926721	-0.248115	0.206162
N78	N	0.131698	-0.076989	0.000142
H79	H	0.099314	-0.083027	-0.050825
H80	H	0.174047	-0.149203	0.000182
H81	H	0.802440	0.327726	0.203813
H82	H	0.802472	0.327753	0.639394
H83	H	0.109440	0.373548	0.000113
H84	H	0.506826	0.384211	0.000088
N85	N	1.000999	-0.008663	0.372271
H86	H	1.034757	0.039805	0.408169
H87	H	0.971730	-0.064784	0.408143
H88	H	0.777512	-0.413492	0.055768
H89	H	0.780815	-0.194971	0.056466
N90	N	0.900294	-0.452598	-0.156502
H91	H	0.855487	-0.500553	-0.142598
H92	H	0.882487	-0.374837	-0.190575
N93	N	0.894974	-0.447585	0.156424
H94	H	0.879527	-0.368615	0.190326
H95	H	0.848294	-0.489816	0.141138
N96	N	1.000985	-0.008686	0.192371
H97	H	1.033294	-0.063432	0.232919
H98	H	0.971709	-0.064745	0.156471
H99	H	0.999250	-0.243219	0.081549
N100	N	0.897940	-0.209576	-0.155655
H101	H	0.854400	-0.144497	-0.139544
H102	H	0.935438	-0.167241	-0.190494
N103	N	1.018347	-0.233916	-0.084982
H104	H	1.030359	-0.178891	-0.036612
H105	H	1.053605	-0.315795	-0.084304
H106	H	0.987536	0.014174	0.639387
