data_functionalizedCrystal
_audit_creation_method	'MofGen! by Chris Wilmer'
_symmetry_space_group_name_H-M	'P1'
_symmetry_Int_Tables_number	1
_symmetry_cell_setting	triclinic
loop_
_symmetry_equiv_pos_as_xyz
  x,y,z
_cell_length_a	16.992694
_cell_length_b	9.065215
_cell_length_c	8.140239
_cell_angle_alpha	89.997429
_cell_angle_beta	90.002898
_cell_angle_gamma	87.841460
loop_
_atom_site_label
_atom_site_type_symbol
_atom_site_fract_x
_atom_site_fract_y
_atom_site_fract_z
O1	O	-1.042611	-0.313083	0.136402
O2	O	-0.814301	-0.309648	0.136451
O3	O	-0.933177	-0.097160	0.136418
O4	O	-0.923736	-0.525570	0.136434
O5	O	-0.933170	-0.097157	-0.136809
O6	O	-0.814295	-0.309644	-0.136777
O7	O	-1.042604	-0.313079	-0.136825
Zn8	Zn	-0.928449	-0.311361	-0.180181
Zn9	Zn	-0.928457	-0.311366	0.179807
O10	O	-0.923729	-0.525567	-0.136793
C11	C	-0.785054	-0.305228	-0.000157
C12	C	-0.697917	-0.292044	-0.000138
C13	C	-0.932267	-0.042088	-0.000193
C14	C	-0.929555	0.122007	-0.000188
C15	C	-1.071852	-0.317500	-0.000214
C16	C	-1.158989	-0.330683	-0.000222
C17	C	-0.648579	-0.419250	-0.000135
C18	C	-0.566704	-0.406853	-0.000158
C19	C	-0.534169	-0.267250	-0.000173
C20	C	-0.583513	-0.140034	-0.000181
C21	C	-0.665386	-0.152432	-0.000170
C22	C	-0.290207	-0.215866	-0.000219
C23	C	-0.208327	-0.203477	-0.000225
C24	C	-0.191524	-0.470298	-0.000205
C25	C	-0.273399	-0.482684	-0.000184
C26	C	-0.322736	-0.355468	-0.000201
N27	N	-0.450480	-0.254575	-0.000191
N28	N	-0.406423	-0.368144	-0.000194
C29	C	-0.924639	-0.580639	-0.000177
C30	C	-0.927351	-0.744734	-0.000172
N31	N	-0.928448	-0.311358	-0.425864
N32	N	-0.928464	-0.311358	0.425490
H33	H	-0.526536	-0.510438	-0.000153
H34	H	-0.299883	-0.596364	-0.000153
H35	H	-0.557017	-0.026365	-0.000217
C36	C	-0.137864	-0.608286	0.000053
C37	C	-0.090347	-0.608951	0.140593
C38	C	-0.040898	-0.736038	0.140869
H39	H	-0.168869	-0.693314	0.000145
H40	H	-0.105535	-0.609000	-0.095184
H41	H	-0.122671	-0.608251	0.235805
H42	H	-0.059325	-0.523952	0.140530
H43	H	-0.008570	-0.736752	0.045632
H44	H	-0.071909	-0.821056	0.140957
H45	H	-0.008647	-0.736500	0.236215
C46	C	-0.718825	-0.014146	-0.000080
C47	C	-0.672810	0.110768	-0.000048
C48	C	-0.722009	0.238187	0.000051
H49	H	-0.751134	-0.013226	-0.095330
H50	H	-0.751095	-0.013355	0.095243
H51	H	-0.640553	0.109979	-0.095362
H52	H	-0.640502	0.109898	0.095195
H53	H	-0.754280	0.238977	0.095374
H54	H	-0.754316	0.239091	-0.095201
H55	H	-0.690796	0.322956	0.000088
C56	C	-0.172898	-0.051989	-0.000509
C57	C	-0.126373	-0.037105	-0.141059
C58	C	-0.093715	0.102411	-0.141362
H59	H	-0.213926	0.022135	-0.000605
H60	H	-0.141262	-0.041581	0.094721
H61	H	-0.158007	-0.047497	-0.236264
H62	H	-0.085332	-0.111195	-0.140992
H63	H	-0.062079	0.112818	-0.046132
H64	H	-0.134749	0.176523	-0.141454
H65	H	-0.062139	0.112523	-0.236715
H66	H	-0.675062	-0.532930	-0.000122
H67	H	-0.330367	-0.112277	-0.000234
