data_functionalizedCrystal
_audit_creation_method	'MofGen! by Chris Wilmer'
_symmetry_space_group_name_H-M	'P1'
_symmetry_Int_Tables_number	1
_symmetry_cell_setting	triclinic
loop_
_symmetry_equiv_pos_as_xyz
  x,y,z
_cell_length_a	27.732048
_cell_length_b	17.038272
_cell_length_c	16.098538
_cell_angle_alpha	87.079695
_cell_angle_beta	92.710451
_cell_angle_gamma	86.877106
loop_
_atom_site_label
_atom_site_type_symbol
_atom_site_fract_x
_atom_site_fract_y
_atom_site_fract_z
O1	O	-0.647197	-0.089471	-0.069149
O2	O	-0.147197	0.410529	0.430851
O3	O	-0.507051	-0.103608	-0.069174
O4	O	-0.007051	0.396392	0.430826
O5	O	-0.576291	0.017266	-0.069155
O6	O	-0.076291	0.517266	0.430845
O7	O	-0.577957	-0.210345	-0.069168
O8	O	-0.077957	0.289655	0.430832
O9	O	-0.572245	0.010233	0.069357
O10	O	-0.072245	0.510233	0.569357
O11	O	-0.503005	-0.110641	0.069338
O12	O	-0.003005	0.389359	0.569338
O13	O	-0.643151	-0.096504	0.069363
O14	O	-0.143151	0.403496	0.569363
Zn15	Zn	-0.572436	-0.104689	0.091342
Zn16	Zn	-0.072436	0.395311	0.591342
Zn17	Zn	-0.577766	-0.095423	-0.091153
Zn18	Zn	-0.077766	0.404577	0.408847
O19	O	-0.573911	-0.217378	0.069344
O20	O	-0.073911	0.282622	0.569344
C21	C	-0.487008	-0.106827	0.000078
C22	C	0.012992	0.393173	0.500078
C23	C	-0.433312	-0.105933	0.000069
C24	C	0.066688	0.394067	0.500069
C25	C	-0.572753	0.042860	0.000100
C26	C	-0.072753	0.542860	0.500100
C27	C	-0.568232	0.129600	0.000099
C28	C	-0.068232	0.629600	0.500099
C29	C	-0.663194	-0.093284	0.000108
C30	C	-0.163194	0.406716	0.500108
C31	C	-0.716890	-0.094178	0.000112
C32	C	-0.216890	0.405822	0.500112
C33	C	-0.097506	-0.171738	0.000101
C34	C	0.402494	0.328262	0.500101
C35	C	0.104306	-0.168423	0.000109
C36	C	0.604306	0.331577	0.500109
O37	O	0.132810	-0.228597	0.000142
O38	O	0.632810	0.271403	0.500142
N39	N	0.126708	-0.096749	0.000112
N40	N	0.626708	0.403251	0.500112
C41	C	0.098654	-0.025900	0.000118
C42	C	0.598654	0.474100	0.500118
O43	O	0.122340	0.035139	0.000129
O44	O	0.622340	0.535139	0.500129
C45	C	-0.103156	-0.029216	0.000116
C46	C	0.396844	0.470784	0.500116
C47	C	-0.125556	-0.100894	0.000105
C48	C	0.374444	0.399106	0.500105
C49	C	-0.119906	-0.243410	0.000091
C50	C	0.380094	0.256590	0.500091
C51	C	-0.170356	-0.244238	0.000085
C52	C	0.329644	0.255762	0.500085
C53	C	-0.198406	-0.173394	0.000088
C54	C	0.301594	0.326606	0.500088
C55	C	-0.176006	-0.101722	0.000099
C56	C	0.323994	0.398278	0.500099
C57	C	-0.131209	0.041632	0.000128
C58	C	0.368791	0.541632	0.500128
C59	C	-0.181664	0.040797	0.000130
C60	C	0.318336	0.540797	0.500130
C61	C	-0.204064	-0.030881	0.000119
C62	C	0.295936	0.469119	0.500119
C63	C	-0.254506	-0.031705	0.000096
C64	C	0.245494	0.468295	0.500096
N65	N	-0.276908	-0.103379	0.000093
N66	N	0.223092	0.396621	0.500093
C67	C	-0.248858	-0.174223	0.000090
C68	C	0.251142	0.325777	0.500090
C69	C	0.204608	-0.024163	0.000117
C70	C	0.704608	0.475837	0.500117
C71	C	0.255060	-0.023334	0.000116
C72	C	0.755060	0.476666	0.500116
C73	C	0.260708	-0.165858	0.000109
C74	C	0.760708	0.334142	0.500109
C75	C	0.210254	-0.166686	0.000104
C76	C	0.710254	0.333314	0.500104
C77	C	0.182205	-0.095837	0.000114
C78	C	0.682205	0.404163	0.500114
C79	C	-0.354807	-0.175956	0.000075
C80	C	0.145193	0.324044	0.500075
C81	C	-0.405262	-0.176778	0.000065
C82	C	0.094738	0.323222	0.500065
C83	C	-0.410905	-0.034255	0.000077
C84	C	0.089095	0.465745	0.500077
C85	C	-0.360455	-0.033433	0.000082
C86	C	0.139545	0.466567	0.500082
C87	C	-0.332407	-0.104290	0.000084
C88	C	0.167593	0.395710	0.500084
O89	O	-0.283040	0.028436	0.000072
O90	O	0.216960	0.528436	0.500072
O91	O	-0.272552	-0.235254	0.000097
O92	O	0.227448	0.264746	0.500097
C93	C	-0.047056	-0.170910	0.000108
C94	C	0.452944	0.329090	0.500108
C95	C	-0.024656	-0.099238	0.000118
C96	C	0.475344	0.400762	0.500118
C97	C	-0.052706	-0.028394	0.000122
C98	C	0.447294	0.471606	0.500122
C99	C	0.025796	-0.098409	0.000117
C100	C	0.525796	0.401591	0.500117
C101	C	0.053846	-0.169253	0.000113
C102	C	0.553846	0.330747	0.500113
C103	C	0.031444	-0.240927	0.000111
C104	C	0.531444	0.259073	0.500111
C105	C	-0.019006	-0.241754	0.000104
C106	C	0.480994	0.258246	0.500104
C107	C	-0.030304	0.043280	0.000124
C108	C	0.469696	0.543280	0.500124
C109	C	0.020147	0.044102	0.000130
C110	C	0.520147	0.544102	0.500130
C111	C	0.048197	-0.026742	0.000126
C112	C	0.548197	0.473258	0.500126
C113	C	-0.577449	-0.242972	0.000086
C114	C	-0.077449	0.257028	0.500086
C115	C	-0.581970	-0.329712	0.000082
C116	C	-0.081970	0.170288	0.500082
N117	N	-0.568801	-0.111013	0.215890
N118	N	-0.068801	0.388987	0.715890
C119	C	-0.609735	0.180198	0.000108
C120	C	-0.109735	0.680198	0.500108
C121	C	-0.605485	0.261699	0.000099
C122	C	-0.105485	0.761699	0.500099
C123	C	-0.559732	0.292601	0.000088
C124	C	-0.059732	0.792601	0.500088
C125	C	-0.518226	0.241997	0.000077
C126	C	-0.018226	0.741997	0.500077
C127	C	-0.522477	0.160498	0.000080
C128	C	-0.022477	0.660498	0.500080
C129	C	-0.544715	0.538185	0.000074
C130	C	-0.044715	1.038185	0.500074
C131	C	-0.540467	0.619691	0.000074
C132	C	-0.040467	1.119691	0.500074
C133	C	-0.627727	0.639387	0.000094
C134	C	-0.127727	1.139387	0.500094
C135	C	-0.631973	0.557885	0.000102
C136	C	-0.131973	1.057885	0.500102
C137	C	-0.590468	0.507288	0.000086
C138	C	-0.090468	1.007288	0.500086
C139	C	-0.555386	0.375908	0.000082
C140	C	-0.055386	0.875908	0.500082
C141	C	-0.594814	0.423983	0.000087
C142	C	-0.094814	0.923983	0.500087
N143	N	-0.581404	-0.089092	-0.215702
N144	N	-0.081404	0.410908	0.284298
C145	C	-0.598202	-0.059727	0.259483
C146	C	-0.098202	0.440273	0.759483
C147	C	-0.595664	-0.064159	0.346672
C148	C	-0.095664	0.435841	0.846672
C149	C	-0.563728	-0.119880	0.390265
C150	C	-0.063728	0.380120	0.890265
C151	C	-0.534324	-0.171168	0.346666
C152	C	-0.034324	0.328832	0.846666
C153	C	-0.536860	-0.166732	0.259479
C154	C	-0.036860	0.333268	0.759479
C155	C	-0.554536	-0.135945	0.653513
C156	C	-0.054536	0.364055	1.153513
C157	C	-0.552004	-0.140378	0.740705
C158	C	-0.052004	0.359622	1.240705
C159	C	-0.613343	-0.033367	0.740705
C160	C	-0.113343	0.466633	1.240705
C161	C	-0.615878	-0.028940	0.653517
C162	C	-0.115878	0.471060	1.153517
C163	C	-0.586472	-0.080225	0.609925
C164	C	-0.086472	0.419775	1.109925
C165	C	-0.561135	-0.124412	0.479385
C166	C	-0.061135	0.375588	0.979385
C167	C	-0.589064	-0.075689	0.520806
C168	C	-0.089064	0.424311	1.020806
H169	H	-0.423497	-0.235149	0.000056
H170	H	0.076503	0.264851	0.500056
H171	H	0.054291	-0.298610	0.000104
H172	H	0.554291	0.201390	0.500104
H173	H	-0.525996	-0.185756	0.776195
H174	H	-0.025996	0.314244	1.276195
H175	H	-0.512918	-0.208494	0.223986
H176	H	-0.012918	0.291506	0.723986
H177	H	-0.641883	0.016432	0.618025
H178	H	-0.141883	0.516432	1.118025
H179	H	0.181774	0.033534	0.000126
H180	H	0.681774	0.533534	0.500126
H181	H	-0.204500	0.098492	0.000139
H182	H	0.295500	0.598492	0.500139
H183	H	0.192020	-0.225052	0.000100
H184	H	0.692020	0.274948	0.500100
H185	H	-0.646992	0.155044	0.000122
H186	H	-0.146992	0.655044	0.500122
H187	H	-0.637283	0.008387	0.776205
H188	H	-0.137283	0.508387	1.276205
H189	H	-0.433753	0.023425	0.000077
H190	H	0.066247	0.523425	0.500077
H191	H	-0.508319	-0.216535	0.382165
H192	H	-0.008319	0.283465	0.882165
H193	H	-0.480973	0.267164	0.000063
H194	H	0.019027	0.767164	0.500063
H195	H	-0.624209	-0.014357	0.223995
H196	H	-0.124209	0.485643	0.723995
H197	H	-0.615064	-0.030318	0.485310
H198	H	-0.115064	0.469682	0.985310
H199	H	-0.619604	-0.022397	0.382165
H200	H	-0.119604	0.477603	0.882165
H201	H	-0.669230	0.532731	0.000111
H202	H	-0.169230	1.032731	0.500111
H203	H	-0.661518	0.680591	0.000105
H204	H	-0.161518	1.180591	0.500105
H205	H	-0.097072	-0.301103	0.000091
H206	H	0.402928	0.198897	0.500091
H207	H	-0.535133	-0.169783	0.514886
H208	H	-0.035133	0.330217	1.014886
H209	H	-0.530594	-0.177705	0.618027
H210	H	-0.030594	0.322295	1.118027
H211	H	-0.488681	0.119301	0.000073
H212	H	0.011319	0.619301	0.500073
H213	H	-0.331976	-0.233655	0.000080
H214	H	0.168024	0.266345	0.500080
H215	H	-0.503207	0.644846	0.000078
H216	H	-0.003207	1.144846	0.500078
H217	H	-0.632066	0.398820	0.000077
H218	H	-0.132066	0.898820	0.500077
H219	H	-0.188589	-0.302605	0.000076
H220	H	0.311411	0.197395	0.500076
H221	H	0.283555	-0.223542	0.000106
H222	H	0.783555	0.276458	0.500106
H223	H	0.273293	0.035034	0.000112
H224	H	0.773293	0.535034	0.500112
H225	H	-0.112980	0.100000	0.000138
H226	H	0.387020	0.600000	0.500138
H227	H	-0.342217	0.024934	0.000079
H228	H	0.157783	0.524934	0.500079
H229	H	-0.037239	-0.300122	0.000096
H230	H	0.462761	0.199878	0.500096
H231	H	0.038379	0.102475	0.000132
H232	H	0.538379	0.602475	0.500132
H233	H	-0.053137	0.100971	0.000129
H234	H	0.446863	0.600971	0.500129
H235	H	-0.639281	0.302893	0.000108
H236	H	-0.139281	0.802893	0.500108
H237	H	-0.510918	0.496998	0.000062
H238	H	-0.010918	0.996998	0.500062
H239	H	-0.518134	0.401078	0.000075
H240	H	-0.018134	0.901078	0.500075
