data_functionalizedCrystal
_audit_creation_method	'MofGen! by Chris Wilmer'
_symmetry_space_group_name_H-M	'P1'
_symmetry_Int_Tables_number	1
_symmetry_cell_setting	triclinic
loop_
_symmetry_equiv_pos_as_xyz
  x,y,z
_cell_length_a	18.215407
_cell_length_b	18.215405
_cell_length_c	18.215399
_cell_angle_alpha	89.969449
_cell_angle_beta	89.983101
_cell_angle_gamma	90.022344
loop_
_atom_site_label
_atom_site_type_symbol
_atom_site_fract_x
_atom_site_fract_y
_atom_site_fract_z
Zn1	Zn	1.125072	-0.293042	-0.416045
Zn2	Zn	1.625072	0.206958	0.083955
Zn3	Zn	1.124980	-0.416113	-0.292973
Zn4	Zn	1.624980	0.083887	0.207027
Zn5	Zn	1.002004	-0.293059	-0.292999
Zn6	Zn	1.502004	0.206941	0.207001
Zn7	Zn	1.001970	-0.416066	-0.416004
Zn8	Zn	1.501970	0.083934	0.083996
O9	O	1.063507	-0.354570	-0.354505
O10	O	1.563507	0.145430	0.145495
O11	O	1.228044	-0.309380	-0.399726
O12	O	1.728044	0.190620	0.100274
O13	O	1.108643	-0.399817	-0.189992
O14	O	1.608643	0.100183	0.310008
O15	O	1.018382	-0.190073	-0.309349
O16	O	1.518382	0.309927	0.190651
O17	O	1.227977	-0.399800	-0.309305
O18	O	1.727977	0.100200	0.190695
O19	O	1.108799	-0.190060	-0.399750
O20	O	1.608799	0.309940	0.100250
O21	O	1.018293	-0.309410	-0.190011
O22	O	1.518293	0.190590	0.309989
O23	O	0.899016	-0.309364	-0.309309
O24	O	1.399016	0.190636	0.190691
O25	O	1.018324	-0.399719	-0.518994
O26	O	1.518324	0.100281	-0.018994
O27	O	0.898991	-0.399736	-0.399681
O28	O	1.398991	0.100264	0.100319
O29	O	1.108766	-0.309334	-0.519024
O30	O	1.608766	0.190666	-0.019024
O31	O	1.108610	-0.519091	-0.309266
O32	O	1.608610	-0.019091	0.190734
O33	O	1.018235	-0.519056	-0.399656
O34	O	1.518235	-0.019056	0.100344
C35	C	0.872300	-0.354547	-0.354494
C36	C	1.372300	0.145453	0.145506
C37	C	0.790502	-0.354555	-0.354507
C38	C	1.290502	0.145445	0.145493
C39	C	0.525450	-0.401704	-0.401497
C40	C	1.025450	0.098296	0.098503
C41	C	0.602309	-0.401698	-0.401494
C42	C	1.102309	0.098302	0.098506
C43	C	0.602305	-0.307452	-0.307526
C44	C	1.102305	0.192548	0.192474
C45	C	0.525447	-0.307463	-0.307527
C46	C	1.025447	0.192537	0.192473
C47	C	0.487022	-0.354588	-0.354516
C48	C	0.987022	0.145412	0.145484
C49	C	0.640738	-0.354571	-0.354512
C50	C	1.140738	0.145429	0.145488
C51	C	0.724072	-0.354564	-0.354508
C52	C	1.224072	0.145436	0.145492
C53	C	0.403683	-0.354596	-0.354520
C54	C	0.903683	0.145404	0.145480
C55	C	1.063429	-0.545776	-0.354470
C56	C	1.563429	-0.045776	0.145530
C57	C	1.063463	-0.627575	-0.354479
C58	C	1.563463	-0.127575	0.145521
C59	C	1.110632	-0.815763	-0.307500
C60	C	1.610632	-0.315763	0.192500
C61	C	1.110665	-0.892621	-0.307517
C62	C	1.610665	-0.392621	0.192483
C63	C	1.016476	-0.892625	-0.401564
C64	C	1.516476	-0.392625	0.098436
C65	C	1.016447	-0.815768	-0.401549
C66	C	1.516447	-0.315768	0.098451
C67	C	1.063524	-0.777339	-0.354513
C68	C	1.563524	-0.277339	0.145487
C69	C	1.063586	-0.931055	-0.354545
C70	C	1.563586	-0.431055	0.145455
C71	C	1.063621	-1.014388	-0.354565
C72	C	1.563621	-0.514388	0.145435
C73	C	1.063490	-0.694000	-0.354494
C74	C	1.563490	-0.194000	0.145506
C75	C	1.255460	-0.354593	-0.354517
C76	C	1.755460	0.145407	0.145483
C77	C	1.337259	-0.354603	-0.354522
C78	C	1.837259	0.145397	0.145478
C79	C	1.063552	-0.354519	-0.546458
C80	C	1.563552	0.145481	-0.046458
C81	C	1.063571	-0.354498	-0.628257
C82	C	1.563571	0.145502	-0.128257
C83	C	1.063605	-0.162617	-0.354557
C84	C	1.563605	0.337383	0.145443
C85	C	1.063647	-0.080818	-0.354579
C86	C	1.563647	0.419182	0.145421
C87	C	1.110681	-0.307390	-0.816468
C88	C	1.610681	0.192610	-0.316468
C89	C	1.110690	-0.307369	-0.893327
C90	C	1.610690	0.192631	-0.393327
C91	C	1.016513	-0.401491	-0.893284
C92	C	1.516513	0.098509	-0.393284
C93	C	1.016501	-0.401509	-0.816427
C94	C	1.516501	0.098491	-0.316427
C95	C	1.063589	-0.354459	-0.778021
C96	C	1.563589	0.145541	-0.278021
C97	C	1.063610	-0.354420	-0.931737
C98	C	1.563610	0.145580	-0.431737
C99	C	1.063619	-0.354397	-1.015071
C100	C	1.563619	0.145603	-0.515071
C101	C	1.063579	-0.354481	-0.694682
C102	C	1.563579	0.145519	-0.194682
C103	C	1.063504	-0.354567	-0.163299
C104	C	1.563504	0.145433	0.336701
C105	C	1.063628	-0.354382	-0.081500
C106	C	1.563628	0.145618	0.418500
H107	H	0.633594	-0.440065	-0.439749
H108	H	1.133594	0.059935	0.060251
H109	H	1.149035	-0.269039	-0.924627
H110	H	1.649035	0.230961	-0.424627
H111	H	0.978148	-0.439837	-0.785122
H112	H	1.478148	0.060163	-0.285122
H113	H	0.978177	-0.439799	-0.924564
H114	H	1.478177	0.060201	-0.424564
H115	H	0.494167	-0.440076	-0.439759
H116	H	0.994167	0.059924	0.060241
H117	H	1.149026	-0.923903	-0.269235
H118	H	1.649026	-0.423903	0.230765
H119	H	0.978086	-0.784481	-0.439837
H120	H	1.478086	-0.284481	0.060163
H121	H	0.633600	-0.269084	-0.269270
H122	H	1.133600	0.230916	0.230730
H123	H	0.494158	-0.269094	-0.269266
H124	H	0.994158	0.230906	0.230734
H125	H	1.148966	-0.784475	-0.269201
H126	H	1.648966	-0.284475	0.230799
H127	H	0.978146	-0.923924	-0.439858
H128	H	1.478146	-0.423924	0.060142
H129	H	1.149021	-0.269077	-0.785200
H130	H	1.649021	0.230923	-0.285200
