data_functionalizedCrystal
_audit_creation_method	'MofGen! by Chris Wilmer'
_symmetry_space_group_name_H-M	'P1'
_symmetry_Int_Tables_number	1
_symmetry_cell_setting	triclinic
loop_
_symmetry_equiv_pos_as_xyz
  x,y,z
_cell_length_a	11.792241
_cell_length_b	12.376457
_cell_length_c	13.262508
_cell_angle_alpha	63.184816
_cell_angle_beta	95.682218
_cell_angle_gamma	78.633355
loop_
_atom_site_label
_atom_site_type_symbol
_atom_site_fract_x
_atom_site_fract_y
_atom_site_fract_z
O1	O	-1.518874	0.053117	0.132563
O2	O	-1.187387	0.048271	0.148420
O3	O	-1.373027	0.100935	-0.022935
O4	O	-1.333233	0.000452	0.303918
O5	O	-1.326636	-0.100225	0.019845
O6	O	-1.140996	-0.152889	0.191200
O7	O	-1.472483	-0.148044	0.175343
Zn8	Zn	-1.299374	-0.182405	0.190064
Zn9	Zn	-1.360496	0.082632	0.133699
O10	O	-1.286843	-0.200708	0.346698
C11	C	-1.121974	-0.051999	0.168813
C12	C	-0.996180	-0.051069	0.165827
N13	N	-1.257668	-0.363285	0.228531
C14	C	-1.499025	-0.649850	0.005908
C15	C	-1.528208	-0.523235	-0.021015
C16	C	-1.460575	-0.483241	0.041369
C17	C	-1.363755	-0.569875	0.130681
C18	C	-1.334574	-0.696503	0.157613
C19	C	-1.296125	-0.529895	0.193073
C20	C	-1.199304	-0.616529	0.282386
C21	C	-1.170127	-0.743144	0.309312
C22	C	-1.237760	-0.783138	0.246928
C23	C	-1.325305	-0.403266	0.166142
C24	C	-1.160855	-0.449920	0.317846
C25	C	-1.131671	-0.576534	0.344769
C26	C	-0.765859	-0.049415	0.160350
C27	C	-0.894027	-0.050335	0.163393
C28	C	-0.537897	-0.047768	0.154949
C29	C	-0.663695	-0.048680	0.157931
C30	C	-1.351867	0.013222	-0.043390
C31	C	-1.357919	0.051561	-0.168075
N32	N	-1.402211	0.263516	0.095224
C33	C	-1.273818	-0.278990	-0.426273
C34	C	-1.268123	-0.315013	-0.309124
C35	C	-1.290572	-0.223373	-0.273856
C36	C	-1.318716	-0.095703	-0.355749
C37	C	-1.324402	-0.059676	-0.472908
C38	C	-1.341156	-0.004059	-0.320491
C39	C	-1.369300	0.123611	-0.402383
C40	C	-1.374987	0.159631	-0.519531
C41	C	-1.352538	0.067991	-0.554799
C42	C	-1.335470	-0.040086	-0.203331
C43	C	-1.386054	0.179228	-0.249966
C44	C	-1.391749	0.215251	-0.367115
C45	C	-1.308003	-0.112992	0.367152
C46	C	-1.301953	-0.151323	0.491836
H47	H	-1.404137	-0.332740	0.093424
C48	C	-1.716828	-0.372996	-0.075238
C49	C	-1.634300	-0.427717	-0.119434
H50	H	-1.782233	-0.313943	-0.136077
H51	H	-1.680646	-0.331312	-0.041706
H52	H	-1.743589	-0.436625	-0.017969
H53	H	-1.607532	-0.364089	-0.176698
H54	H	-1.670487	-0.469402	-0.152984
C55	C	-1.329163	0.379274	-0.513891
C56	C	-1.422662	0.355580	-0.457146
H57	H	-1.348244	0.465907	-0.569470
H58	H	-1.316619	0.329840	-0.551639
H59	H	-1.259220	0.358162	-0.459047
H60	H	-1.492604	0.376683	-0.511990
H61	H	-1.435221	0.405030	-0.419398
H62	H	-1.052838	-0.647087	0.417490
H63	H	-1.105784	-0.417360	0.368647
H64	H	-1.312544	-0.144036	-0.136663
C65	C	-1.312435	0.323710	-0.666298
C66	C	-1.405918	0.299969	-0.609539
H67	H	-1.331533	0.410351	-0.721856
H68	H	-1.299890	0.274304	-0.704072
H69	H	-1.242487	0.302592	-0.611458
H70	H	-1.475865	0.321078	-0.664379
H71	H	-1.418478	0.349392	-0.571764
C72	C	-1.254888	-0.394376	-0.080655
C73	C	-1.284325	-0.262967	-0.145086
H74	H	-1.251043	-0.418820	-0.001155
H75	H	-1.180153	-0.429211	-0.090383
H76	H	-1.313520	-0.424215	-0.106719
H77	H	-1.225688	-0.233129	-0.119027
H78	H	-1.359071	-0.228118	-0.135350
C79	C	-1.525689	0.358762	-0.265608
C80	C	-1.410706	0.279943	-0.211177
H81	H	-1.540890	0.420927	-0.241647
H82	H	-1.581048	0.310313	-0.244995
H83	H	-1.533101	0.398514	-0.347101
H84	H	-1.403297	0.240183	-0.129684
H85	H	-1.355332	0.328398	-0.231782
C86	C	-1.518220	-0.334431	0.108760
C87	C	-1.492654	-0.344063	0.011771
H88	H	-1.538032	-0.248502	0.090477
H89	H	-1.450881	-0.380291	0.170864
H90	H	-1.583099	-0.367951	0.130701
H91	H	-1.427769	-0.310552	-0.010165
H92	H	-1.560000	-0.298186	-0.050353
H93	H	-1.245220	-0.418961	-0.242457
H94	H	-1.554088	-0.682425	-0.044871
C95	C	-1.260096	-0.321124	-0.585167
C96	C	-1.249157	-0.379710	-0.465045
H97	H	-1.244879	-0.383311	-0.609101
H98	H	-1.204732	-0.272682	-0.605777
H99	H	-1.338107	-0.267660	-0.622090
H100	H	-1.171143	-0.433167	-0.428122
H101	H	-1.304523	-0.428172	-0.444425
H102	H	-1.091299	-0.813685	0.382044
C103	C	-1.285497	-0.939121	0.202908
C104	C	-1.205687	-0.922322	0.276530
H105	H	-1.265701	-1.025050	0.221189
H106	H	-1.281338	-0.888390	0.124947
H107	H	-1.363578	-0.915335	0.212675
H108	H	-1.127607	-0.946099	0.266757
H109	H	-1.209835	-0.973070	0.354510
H110	H	-1.357179	0.097315	-0.650190
