data_functionalizedCrystal
_audit_creation_method	'MofGen! by Chris Wilmer'
_symmetry_space_group_name_H-M	'P1'
_symmetry_Int_Tables_number	1
_symmetry_cell_setting	triclinic
loop_
_symmetry_equiv_pos_as_xyz
  x,y,z
_cell_length_a	10.540510
_cell_length_b	15.455446
_cell_length_c	16.992695
_cell_angle_alpha	87.143805
_cell_angle_beta	92.409233
_cell_angle_gamma	87.308943
loop_
_atom_site_label
_atom_site_type_symbol
_atom_site_fract_x
_atom_site_fract_y
_atom_site_fract_z
O1	O	1.690288	0.072136	-0.113850
O2	O	2.190288	0.572136	0.386150
O3	O	1.321777	0.072137	-0.124292
O4	O	1.821777	0.572137	0.375708
O5	O	1.504556	0.072130	-0.004920
O6	O	2.004556	0.572130	0.495080
O7	O	1.507509	0.072143	-0.233222
O8	O	2.007509	0.572143	0.266778
O9	O	1.514948	-0.072130	0.001882
O10	O	2.014948	0.427870	0.501882
O11	O	1.332169	-0.072123	-0.117490
O12	O	1.832169	0.427877	0.382510
O13	O	1.700681	-0.072123	-0.107048
O14	O	2.200681	0.427877	0.392952
Cu15	Cu	1.517374	-0.085295	-0.111648
Cu16	Cu	2.017374	0.414705	0.388352
Cu17	Cu	1.505084	0.085309	-0.119692
Cu18	Cu	2.005084	0.585309	0.380308
O19	O	1.517901	-0.072116	-0.226420
O20	O	2.017901	0.427884	0.273580
C21	C	1.279601	0.000007	-0.120113
C22	C	1.779601	0.500007	0.379887
C23	C	1.138450	0.000007	-0.117785
C24	C	1.638450	0.500007	0.382215
N25	N	1.526027	-0.205288	-0.105990
N26	N	2.026027	0.294712	0.394010
C27	C	1.574108	-0.749284	-0.074651
C28	C	2.074108	-0.249284	0.425349
C29	C	1.567535	-0.658478	-0.078939
C30	C	2.067535	-0.158478	0.421061
C31	C	1.483288	-0.613087	-0.133918
C32	C	1.983288	-0.113087	0.366082
C33	C	1.405617	-0.658507	-0.184616
C34	C	1.905617	-0.158507	0.315384
C35	C	1.412196	-0.749312	-0.180331
C36	C	1.912196	-0.249312	0.319669
C37	C	1.454935	-0.341513	-0.152403
C38	C	1.954935	0.158487	0.347597
C39	C	1.448359	-0.250702	-0.156683
C40	C	1.948359	0.249298	0.343317
C41	C	1.610280	-0.250679	-0.051006
C42	C	2.110280	0.249321	0.448994
C43	C	1.616846	-0.341485	-0.046723
C44	C	2.116846	0.158515	0.453277
C45	C	1.539180	-0.386897	-0.097424
C46	C	2.039180	0.113103	0.402576
N47	N	1.476565	-0.520269	-0.138301
N48	N	1.976565	-0.020269	0.361699
N49	N	1.545910	-0.479714	-0.093044
N50	N	2.045910	0.020286	0.406956
C51	C	0.928166	0.000344	-0.200728
C52	C	1.428166	0.500344	0.299272
C53	C	1.075001	0.000013	-0.203195
C54	C	1.575001	0.500013	0.296805
C55	C	1.095830	-0.082373	-0.070179
C56	C	1.595830	0.417627	0.429821
C57	C	0.948911	-0.082436	-0.068297
C58	C	1.448911	0.417564	0.431703
C59	C	0.937133	0.081613	-0.074254
C60	C	1.437133	0.581613	0.425746
C61	C	1.083747	0.082697	-0.078356
C62	C	1.583747	0.582697	0.421644
C63	C	1.742855	0.000008	-0.111227
C64	C	2.242855	0.500008	0.388773
C65	C	1.884007	0.000014	-0.113556
C66	C	2.384007	0.500014	0.386444
C67	C	1.505951	0.000000	0.027715
C68	C	2.005951	0.500000	0.527715
C69	C	1.494610	0.000000	0.114822
C70	C	1.994610	0.500000	0.614822
N71	N	1.496440	0.205302	-0.125344
N72	N	1.996440	0.705302	0.374656
C73	C	1.516506	0.000016	-0.259055
C74	C	2.016506	0.500016	0.240945
C75	C	1.527846	0.000021	-0.346162
C76	C	2.027846	0.500021	0.153838
C77	C	1.604031	-0.000001	0.164457
C78	C	2.104031	0.499999	0.664457
C79	C	1.593367	0.000007	0.246302
C80	C	2.093367	0.500007	0.746302
C81	C	1.473282	0.000011	0.278511
C82	C	1.973282	0.500011	0.778511
C83	C	1.363853	0.000014	0.228869
C84	C	1.863853	0.500014	0.728869
C85	C	1.374517	0.000012	0.147025
C86	C	1.874517	0.500012	0.647025
C87	C	1.429081	0.000023	0.522353
C88	C	1.929081	0.500023	1.022353
C89	C	1.418425	0.000022	0.604203
C90	C	1.918425	0.500022	1.104203
C91	C	1.647941	0.000017	0.621630
C92	C	2.147941	0.500017	1.121630
C93	C	1.658595	0.000010	0.539784
C94	C	2.158595	0.500010	1.039784
C95	C	1.549166	0.000018	0.490149
C96	C	2.049166	0.500018	0.990149
N97	N	1.462379	0.000016	0.362170
N98	N	1.962379	0.500016	0.862170
N99	N	1.560069	0.000018	0.406492
N100	N	2.060069	0.500018	0.906492
H101	H	1.642705	-0.786236	-0.029878
H102	H	2.142705	-0.286236	0.470122
H103	H	1.701818	-0.000009	0.138239
H104	H	2.201818	0.499991	0.638239
H105	H	1.379749	-0.213749	-0.201456
H106	H	1.879749	0.286251	0.298544
H107	H	1.391694	-0.378480	-0.193685
H108	H	1.891694	0.121520	0.306315
H109	H	1.348953	-0.786287	-0.221612
H110	H	1.848953	-0.286287	0.278388
H111	H	1.110652	-0.059135	-0.234818
H112	H	1.610652	0.440865	0.265182
Cl113	Cl	0.897665	-0.177503	-0.109951
Cl114	Cl	1.397665	0.322497	0.390049
H115	H	1.110736	0.143641	-0.113041
H116	H	1.610736	0.643641	0.386959
H117	H	1.337025	-0.621545	-0.229385
H118	H	1.837025	-0.121545	0.270615
H119	H	1.266076	0.000022	0.255100
H120	H	1.766076	0.500022	0.755100
Cl121	Cl	0.905263	-0.088271	0.030600
Cl122	Cl	1.405263	0.411729	0.530600
Cl123	Cl	1.665178	-0.601385	-0.015210
Cl124	Cl	2.165178	-0.101385	0.484790
Cl125	Cl	1.154346	-0.177023	-0.112594
Cl126	Cl	1.654346	0.322977	0.387406
Cl127	Cl	1.722757	-0.398548	0.022395
Cl128	Cl	2.222757	0.101452	0.522395
Cl129	Cl	1.291511	0.000035	0.459965
Cl130	Cl	1.791511	0.500035	0.959965
H131	H	1.137985	-0.085440	-0.007157
H132	H	1.637985	0.414560	0.492843
Cl133	Cl	0.871960	-0.090345	-0.247534
Cl134	Cl	1.371960	0.409655	0.252466
H135	H	0.892424	0.144053	-0.104132
H136	H	1.392424	0.644053	0.395868
Cl137	Cl	1.150584	0.090370	0.017560
Cl138	Cl	1.650584	0.590370	0.517560
Cl139	Cl	1.118328	0.091187	-0.260309
Cl140	Cl	1.618328	0.591187	0.239691
H141	H	0.909374	0.082167	-0.010154
H142	H	1.409374	0.582167	0.489846
Cl143	Cl	1.730933	0.000003	0.308697
Cl144	Cl	2.230933	0.500003	0.808697
H145	H	1.756381	0.000007	0.513566
H146	H	2.256381	0.500007	1.013566
Cl147	Cl	1.785500	0.000009	0.684031
Cl148	Cl	2.285500	0.500009	1.184031
Cl149	Cl	1.707917	-0.193586	0.012726
Cl150	Cl	2.207917	0.306414	0.512726
Cl151	Cl	1.236953	0.000017	0.084626
Cl152	Cl	1.736953	0.500017	0.584626
Cl153	Cl	1.267450	0.000021	0.644693
Cl154	Cl	1.767450	0.500021	1.144693
H155	H	0.884844	0.059423	-0.236788
H156	H	1.384844	0.559423	0.263212
