data_functionalizedCrystal
_audit_creation_method	'MofGen! by Chris Wilmer'
_symmetry_space_group_name_H-M	'P1'
_symmetry_Int_Tables_number	1
_symmetry_cell_setting	triclinic
loop_
_symmetry_equiv_pos_as_xyz
  x,y,z
_cell_length_a	11.026607
_cell_length_b	10.654551
_cell_length_c	9.482900
_cell_angle_alpha	99.428019
_cell_angle_beta	78.636152
_cell_angle_gamma	96.535689
loop_
_atom_site_label
_atom_site_type_symbol
_atom_site_fract_x
_atom_site_fract_y
_atom_site_fract_z
O1	O	1.633381	0.511465	-0.120876
O2	O	1.279570	0.451469	-0.120880
O3	O	1.464609	0.300494	-0.120878
O4	O	1.448341	0.662441	-0.120877
O5	O	1.427025	0.331318	0.120914
O6	O	1.241986	0.482293	0.120912
O7	O	1.595796	0.542289	0.120916
Cu8	Cu	1.415459	0.515106	0.142992
Cu9	Cu	1.459907	0.478653	-0.142955
O10	O	1.410757	0.693265	0.120915
C11	C	1.215474	0.455813	0.000015
C12	C	1.080482	0.422818	0.000013
C13	C	1.007444	0.513921	0.000013
C14	C	0.867923	0.479822	0.000011
C15	C	1.444623	0.268848	0.000014
C16	C	1.441050	0.128628	0.000004
C17	C	1.459860	0.045950	-0.131794
C18	C	1.456490	-0.085801	-0.131787
C19	C	1.415503	-0.052183	0.131828
C20	C	1.418865	0.079565	0.131820
C21	C	1.482045	0.095013	-0.263609
C22	C	1.500858	0.012333	-0.395418
C23	C	1.497488	-0.119417	-0.395412
C24	C	1.475305	-0.168489	-0.263596
C25	C	1.659893	0.537945	0.000018
C26	C	1.794886	0.570939	0.000010
C27	C	1.430744	0.724910	0.000019
C28	C	1.434318	0.865129	0.000019
N29	N	1.384206	0.540746	0.344112
N30	N	1.491170	0.453005	-0.344075
C31	C	1.450680	0.486207	0.416312
C32	C	1.424686	0.507552	0.583729
H33	H	0.827173	0.376569	-0.000027
H34	H	0.835638	0.674189	0.000020
H35	H	1.308045	0.603236	0.406241
C36	C	1.062496	0.653394	0.000012
H37	H	1.149050	0.658014	0.000003
H38	H	1.023099	0.704858	0.084326
H39	H	1.049316	0.683349	-0.084321
H40	H	1.484795	0.202289	-0.263629
C41	C	1.025432	0.283345	0.000005
H42	H	0.938881	0.278722	-0.000008
H43	H	1.038615	0.253375	0.084319
H44	H	1.064830	0.231890	-0.084328
C45	C	1.525257	0.066308	-0.540403
H46	H	1.524582	0.156615	-0.521534
H47	H	1.462352	0.031392	-0.594566
H48	H	1.603908	0.044228	-0.594548
C49	C	1.321802	0.591984	0.667642
H50	H	1.317833	0.595262	0.769157
H51	H	1.244325	0.557006	0.642788
H52	H	1.339793	0.675789	0.642768
H53	H	1.403522	0.146881	0.239142
H54	H	1.567326	0.390500	0.593801
H55	H	1.397443	-0.092148	0.239146
H56	H	1.512794	-0.186733	-0.502737
C57	C	1.553559	0.401778	0.332392
H58	H	1.557538	0.398514	0.230878
H59	H	1.535581	0.317981	0.357270
H60	H	1.631040	0.436771	0.357244
C61	C	1.471565	-0.313415	-0.263590
H62	H	1.485940	-0.355631	-0.360965
H63	H	1.392455	-0.343412	-0.214909
H64	H	1.534013	-0.330612	-0.214911
