data_functionalizedCrystal
_audit_creation_method	'MofGen! by Chris Wilmer'
_symmetry_space_group_name_H-M	'P1'
_symmetry_Int_Tables_number	1
_symmetry_cell_setting	triclinic
loop_
_symmetry_equiv_pos_as_xyz
  x,y,z
_cell_length_a	12.837943
_cell_length_b	19.188930
_cell_length_c	11.892095
_cell_angle_alpha	93.870839
_cell_angle_beta	85.689438
_cell_angle_gamma	88.986861
loop_
_atom_site_label
_atom_site_type_symbol
_atom_site_fract_x
_atom_site_fract_y
_atom_site_fract_z
O1	O	1.381278	0.177430	-0.094009
O2	O	1.881278	0.677430	0.405991
O3	O	1.079513	0.168466	-0.094014
O4	O	1.579513	0.668466	0.405986
O5	O	1.239102	0.071891	-0.093990
O6	O	1.739102	0.571891	0.406010
O7	O	1.221689	0.274006	-0.094034
O8	O	1.721689	0.774006	0.405966
O9	O	1.225796	0.079929	0.094016
O10	O	1.725796	0.579929	0.594016
O11	O	1.066207	0.176505	0.093991
O12	O	1.566207	0.676505	0.593991
O13	O	1.367972	0.185469	0.093996
O14	O	1.867972	0.685469	0.593996
Zn15	Zn	1.214977	0.182263	0.123844
Zn16	Zn	1.714977	0.682263	0.623844
Zn17	Zn	1.232508	0.171672	-0.123862
Zn18	Zn	1.732508	0.671672	0.376138
O19	O	1.208383	0.282044	0.093971
O20	O	1.708383	0.782044	0.593971
C21	C	1.034253	0.169458	-0.000012
C22	C	1.534253	0.669458	0.499988
C23	C	0.919217	0.160427	-0.000013
C24	C	1.419217	0.660427	0.499987
C25	C	0.677767	0.268994	-0.000021
C26	C	1.177767	0.768994	0.499979
C27	C	0.569680	0.260512	-0.000021
C28	C	1.069680	0.760512	0.499979
C29	C	0.594952	0.134982	-0.000005
C30	C	1.094952	0.634982	0.499995
C31	C	0.703040	0.143464	-0.000005
C32	C	1.203040	0.643464	0.499995
C33	C	0.744443	0.210472	-0.000015
C34	C	1.244443	0.710472	0.499985
C35	C	0.852533	0.218953	-0.000023
C36	C	1.352533	0.718953	0.499977
C37	C	0.877803	0.093423	0.000001
C38	C	1.377803	0.593423	0.500001
C39	C	0.769716	0.084941	0.000001
C40	C	1.269716	0.584941	0.500001
C41	C	1.231885	0.049861	0.000016
C42	C	1.731885	0.549861	0.500016
C43	C	1.230191	-0.027760	0.000026
C44	C	1.730191	0.472240	0.500026
C45	C	1.323833	-0.066260	0.000033
C46	C	1.823833	0.433740	0.500033
C47	C	1.322244	-0.139194	0.000015
C48	C	1.822244	0.360806	0.500015
C49	C	1.227006	-0.173623	0.000012
C50	C	1.727006	0.326377	0.500012
C51	C	1.133352	-0.135114	-0.000001
C52	C	1.633352	0.364886	0.499999
C53	C	1.134944	-0.062182	0.000006
C54	C	1.634944	0.437818	0.500006
N55	N	1.149679	-0.283886	0.063993
N56	N	1.649679	0.216114	0.563993
N57	N	1.148172	-0.353168	0.063989
N58	N	1.648172	0.146832	0.563989
C59	C	1.222201	-0.393362	-0.000010
C60	C	1.722201	0.106638	0.499990
N61	N	1.297809	-0.361657	-0.063992
N62	N	1.797809	0.138343	0.436008
N63	N	1.299318	-0.292369	-0.063982
N64	N	1.799318	0.207631	0.436018
C65	C	1.225268	-0.252705	0.000004
C66	C	1.725268	0.247295	0.500004
C67	C	1.314126	-0.510946	-0.000025
C68	C	1.814126	-0.010946	0.499975
C69	C	1.312534	-0.583882	-0.000050
C70	C	1.812534	-0.083882	0.499950
C71	C	1.123638	-0.579799	-0.000054
C72	C	1.623638	-0.079799	0.499946
C73	C	1.125234	-0.506866	-0.000041
C74	C	1.625234	-0.006866	0.499959
C75	C	1.220481	-0.472444	-0.000020
C76	C	1.720481	0.027556	0.499980
C77	C	1.413232	0.184477	-0.000009
C78	C	1.913232	0.684477	0.499991
C79	C	1.528268	0.193508	-0.000015
C80	C	2.028268	0.693508	0.499985
C81	C	1.215600	0.304074	-0.000037
C82	C	1.715600	0.804074	0.499963
C83	C	1.217294	0.381694	-0.000054
C84	C	1.717294	0.881694	0.499946
N85	N	1.203020	0.189491	0.292896
N86	N	1.703020	0.689491	0.792896
N87	N	1.244474	0.164439	-0.292914
N88	N	1.744474	0.664439	0.207086
C89	C	1.327677	0.114101	0.529563
C90	C	1.827677	0.614101	1.029563
C91	C	1.319327	0.119160	0.647904
C92	C	1.819327	0.619160	1.147904
C93	C	1.177964	0.204661	0.647920
C94	C	1.677964	0.704661	1.147920
C95	C	1.186314	0.199603	0.529579
C96	C	1.686314	0.699603	1.029579
C97	C	1.261175	0.154323	0.470405
C98	C	1.761175	0.654323	0.970405
C99	C	1.269529	0.149269	0.352062
C100	C	1.769529	0.649269	0.852062
C101	C	1.128162	0.234767	0.352080
C102	C	1.628162	0.734767	0.852080
C103	C	1.119812	0.239825	0.470421
C104	C	1.619812	0.739825	0.970421
H105	H	0.932104	0.045770	-0.000002
H106	H	1.432104	0.545770	0.499998
C107	C	1.028827	-0.218891	-0.096648
C108	C	1.528827	0.281109	0.403352
C109	C	1.028665	-0.172957	-0.000002
C110	C	1.528665	0.327043	0.499998
H111	H	0.964197	-0.242256	-0.096646
H112	H	1.464197	0.257744	0.403354
H113	H	1.038009	-0.193320	-0.162196
H114	H	1.538009	0.306680	0.337804
H115	H	1.084377	-0.252257	-0.096633
H116	H	1.584377	0.247743	0.403367
H117	H	0.973119	-0.139587	-0.000021
H118	H	1.473119	0.360413	0.499979
H119	H	1.019471	-0.198529	0.065563
H120	H	1.519471	0.301471	0.565563
C121	C	0.955302	-0.594651	0.096583
C122	C	1.455302	-0.094651	0.596583
C123	C	1.018947	-0.617634	-0.000061
C124	C	1.518947	-0.117634	0.499939
H125	H	0.890667	-0.618009	0.096569
H126	H	1.390667	-0.118009	0.596569
H127	H	0.989204	-0.604652	0.162132
H128	H	1.489204	-0.104652	0.662132
H129	H	0.942857	-0.545704	0.096578
H130	H	1.442857	-0.045704	0.596578
H131	H	1.031399	-0.666580	-0.000051
H132	H	1.531399	-0.166580	0.499949
H133	H	0.985038	-0.607638	-0.065627
H134	H	1.485038	-0.107638	0.434373
H135	H	1.058687	-0.030834	0.000001
H136	H	1.558687	0.469166	0.500001
C137	C	1.500682	-0.522306	-0.000049
C138	C	2.000682	-0.022306	0.499951
C139	C	1.418820	-0.473105	-0.000030
C140	C	1.918820	0.026895	0.499970
H141	H	1.565315	-0.498944	-0.000062
H142	H	2.065315	0.001056	0.499938
H143	H	1.491502	-0.547869	0.065507
H144	H	1.991502	-0.047869	0.565507
H145	H	1.500756	-0.553464	-0.065617
H146	H	2.000756	-0.053464	0.434383
H147	H	1.418741	-0.441950	0.065543
H148	H	1.918741	0.058050	0.565543
H149	H	1.428003	-0.447529	-0.065592
H150	H	1.928003	0.052471	0.434408
H151	H	1.074014	0.267520	0.303900
H152	H	1.574014	0.767520	0.803900
C153	C	1.419988	0.137811	0.218887
C154	C	1.919988	0.637811	0.718887
C155	C	1.351765	0.099475	0.286985
C156	C	1.851765	0.599475	0.786985
H157	H	1.470745	0.107061	0.178711
H158	H	1.970745	0.607061	0.678711
H159	H	1.381574	0.161053	0.166743
H160	H	1.881574	0.661053	0.666743
H161	H	1.453924	0.171312	0.265031
H162	H	1.953924	0.671312	0.765031
H163	H	1.317822	0.065977	0.240840
H164	H	1.817822	0.565977	0.740840
H165	H	1.390184	0.076221	0.339135
H166	H	1.890184	0.576221	0.839135
H167	H	1.388638	0.077237	0.481383
H168	H	1.888638	0.577237	0.981383
H169	H	1.401391	-0.038239	0.000046
H170	H	1.901391	0.461761	0.500046
C171	C	0.426631	0.327929	0.096614
C172	C	0.926631	0.827929	0.596614
C173	C	0.496389	0.324842	-0.000032
C174	C	0.996389	0.824842	0.499968
H175	H	0.381390	0.367648	0.096608
H176	H	0.881390	0.867648	0.596608
H177	H	0.386504	0.286816	0.096609
H178	H	0.886504	0.786816	0.596609
H179	H	0.464694	0.331430	0.162168
H180	H	0.964694	0.831430	0.662168
H181	H	0.458327	0.321336	-0.065588
H182	H	0.958327	0.821336	0.434412
H183	H	0.536521	0.365966	-0.000039
H184	H	1.036521	0.865966	0.499961
C185	C	1.043808	-0.393255	-0.000038
C186	C	1.543808	0.106745	0.499962
C187	C	1.022298	-0.464539	-0.000040
C188	C	1.522298	0.035461	0.499960
H189	H	0.980256	-0.367127	-0.000048
H190	H	1.480256	0.132873	0.499952
H191	H	1.078224	-0.379349	0.065523
H192	H	1.578224	0.120651	0.565523
H193	H	1.087518	-0.384945	-0.065600
H194	H	1.587518	0.115055	0.434400
H195	H	0.978594	-0.472850	0.065527
H196	H	1.478594	0.027150	0.565527
H197	H	0.987866	-0.478450	-0.065608
H198	H	1.487866	0.021550	0.434392
C199	C	0.816691	0.342182	-0.000024
C200	C	1.316691	0.842182	0.499976
C201	C	0.898047	0.292607	-0.000027
C202	C	1.398047	0.792607	0.499973
H203	H	0.844788	0.387654	-0.000016
H204	H	1.344788	0.887654	0.499984
H205	H	0.779700	0.333465	-0.065582
H206	H	1.279700	0.833465	0.434418
H207	H	0.770418	0.339055	0.065542
H208	H	1.270418	0.839055	0.565542
H209	H	0.944315	0.295731	-0.065597
H210	H	1.444315	0.795731	0.434403
H211	H	0.935054	0.301327	0.065538
H212	H	1.435054	0.801327	0.565538
H213	H	1.373479	0.086407	0.696067
H214	H	1.873479	0.586407	1.196067
H215	H	0.711478	0.323555	-0.000030
H216	H	1.211478	0.823555	0.499970
H217	H	0.735989	0.030385	0.000021
H218	H	1.235989	0.530385	0.500021
H219	H	1.388792	-0.615228	-0.000050
H220	H	1.888792	-0.115228	0.499950
H221	H	1.058859	0.276689	0.518614
H222	H	1.558859	0.776689	1.018614
H223	H	1.117008	0.241523	0.696115
H224	H	1.617008	0.741523	1.196115
H225	H	1.398501	-0.170548	0.000016
H226	H	1.898501	0.329452	0.500016
C227	C	0.440475	0.066250	0.000022
C228	C	0.940475	0.566250	0.500022
C229	C	0.549428	0.061331	0.000016
C230	C	1.049428	0.561331	0.500016
H231	H	0.412373	0.020780	0.000030
H232	H	0.912373	0.520780	0.500030
H233	H	0.412947	0.093450	0.065575
H234	H	0.912947	0.593450	0.565575
H235	H	0.422217	0.087846	-0.065549
H236	H	0.922217	0.587846	0.434451
H237	H	0.567686	0.039739	0.065591
H238	H	1.067686	0.539739	0.565591
H239	H	0.576966	0.034120	-0.065544
H240	H	1.076966	0.534120	0.434456
