data_functionalizedCrystal
_audit_creation_method	'MofGen! by Chris Wilmer'
_symmetry_space_group_name_H-M	'P1'
_symmetry_Int_Tables_number	1
_symmetry_cell_setting	triclinic
loop_
_symmetry_equiv_pos_as_xyz
  x,y,z
_cell_length_a	10.654547
_cell_length_b	10.654545
_cell_length_c	9.482900
_cell_angle_alpha	99.427550
_cell_angle_beta	80.618552
_cell_angle_gamma	84.485741
loop_
_atom_site_label
_atom_site_type_symbol
_atom_site_fract_x
_atom_site_fract_y
_atom_site_fract_z
O1	O	1.687247	0.156919	-0.120913
O2	O	1.321768	0.173722	-0.120910
O3	O	1.512910	-0.017419	-0.120910
O4	O	1.496106	0.348059	-0.120912
O5	O	1.474086	0.021563	0.120882
O6	O	1.282945	0.212704	0.120883
O7	O	1.648423	0.195901	0.120880
Cu8	Cu	1.462139	0.207862	0.142959
Cu9	Cu	1.508053	0.161761	-0.142989
O10	O	1.457282	0.387041	0.120880
C11	C	1.255559	0.191978	-0.000013
C12	C	1.116115	0.188285	-0.000012
C13	C	0.896425	0.138821	-0.263641
C14	C	0.983106	0.119308	-0.395442
C15	C	1.114123	0.122789	-0.395438
C16	C	1.158460	0.145780	-0.263619
C17	C	1.071779	0.165292	-0.131817
C18	C	0.940761	0.161813	-0.131835
C19	C	1.029434	0.207797	0.131789
C20	C	0.898416	0.204327	0.131789
C21	C	1.073771	0.230789	0.263609
C22	C	0.987089	0.250311	0.395414
C23	C	0.856065	0.246830	0.395404
C24	C	0.811735	0.223839	0.263590
C25	C	1.492264	-0.044726	-0.000017
C26	C	1.488573	-0.184171	-0.000025
C27	C	1.530915	-0.226679	-0.263635
C28	C	1.550356	-0.313443	-0.395439
C29	C	1.546887	-0.444462	-0.395441
C30	C	1.523971	-0.488717	-0.263624
C31	C	1.504530	-0.401953	-0.131820
C32	C	1.508005	-0.270934	-0.131833
C33	C	1.462180	-0.359445	0.131787
C34	C	1.465657	-0.228426	0.131791
C35	C	1.439264	-0.403700	0.263603
C36	C	1.419832	-0.316937	0.395411
C37	C	1.423303	-0.185911	0.395407
C38	C	1.446216	-0.141662	0.263596
C39	C	1.714634	0.177644	-0.000020
C40	C	1.854079	0.181335	-0.000031
C41	C	1.477928	0.414348	-0.000016
C42	C	1.481621	0.553791	-0.000018
N43	N	1.429855	0.240286	0.344079
N44	N	1.540347	0.129327	-0.344109
C45	C	1.498522	0.171318	0.416278
C46	C	1.471670	0.198305	0.583696
H47	H	1.180455	0.233613	0.263603
Br48	Br	1.047269	0.281498	0.574292
Br49	Br	1.388714	-0.377003	0.574285
H50	H	1.265145	0.148597	-0.263627
H51	H	0.785493	0.262725	0.502733
H52	H	1.619014	0.050291	0.593766
H53	H	1.351183	0.319307	0.406209
H54	H	1.577184	0.092287	0.354150
Br55	Br	1.581488	-0.253381	-0.574325
H56	H	0.705056	0.221011	0.263570
Br57	Br	0.922937	0.088050	-0.574332
Br58	Br	1.573255	-0.562216	-0.574318
H59	H	1.184701	0.106899	-0.502762
H60	H	1.533756	-0.120000	-0.263647
H61	H	0.789745	0.136001	-0.263657
H62	H	1.521133	-0.595400	-0.263637
H63	H	1.392993	0.277331	0.645820
Br64	Br	1.396904	-0.068168	0.574295
H65	H	1.436434	-0.510384	0.263593
H66	H	1.449051	-0.034983	0.263580
