data_functionalizedCrystal
_audit_creation_method	'MofGen! by Chris Wilmer'
_symmetry_space_group_name_H-M	'P1'
_symmetry_Int_Tables_number	1
_symmetry_cell_setting	triclinic
loop_
_symmetry_equiv_pos_as_xyz
  x,y,z
_cell_length_a	19.188905
_cell_length_b	19.188930
_cell_length_c	16.053802
_cell_angle_alpha	92.551696
_cell_angle_beta	87.420636
_cell_angle_gamma	83.139668
loop_
_atom_site_label
_atom_site_type_symbol
_atom_site_fract_x
_atom_site_fract_y
_atom_site_fract_z
O1	O	0.929117	0.084129	-0.069576
O2	O	1.429117	0.584129	0.430424
O3	O	0.725802	0.095883	-0.069549
O4	O	1.225802	0.595883	0.430451
O5	O	0.833326	-0.011649	-0.069547
O6	O	1.333326	0.488351	0.430453
O7	O	0.821593	0.191662	-0.069578
O8	O	1.321593	0.691662	0.430422
O9	O	0.827407	-0.005755	0.069312
O10	O	1.327407	0.494245	0.569312
O11	O	0.719883	0.101777	0.069310
O12	O	1.219883	0.601777	0.569310
O13	O	0.923198	0.090024	0.069283
O14	O	1.423198	0.590024	0.569283
Zn15	Zn	0.820601	0.096837	0.091343
Zn16	Zn	1.320601	0.596837	0.591343
Zn17	Zn	0.828399	0.089070	-0.091609
Zn18	Zn	1.328399	0.589070	0.408391
O19	O	0.815674	0.197556	0.069281
O20	O	1.315674	0.697556	0.569281
C21	C	0.696831	0.098453	-0.000116
C22	C	1.196831	0.598453	0.499884
C23	C	0.619325	0.097319	-0.000105
C24	C	1.119325	0.597319	0.499895
C25	C	0.586160	0.093562	-0.075799
C26	C	1.086160	0.593562	0.424201
C27	C	0.513336	0.092488	-0.075809
C28	C	1.013336	0.592488	0.424191
C29	C	0.473683	0.095159	-0.000121
C30	C	0.973683	0.595159	0.499879
C31	C	0.506857	0.098921	0.075583
C32	C	1.006857	0.598921	0.575583
C33	C	0.579678	0.100001	0.075591
C34	C	1.079678	0.600001	0.575591
N35	N	0.362262	0.056121	0.056213
N36	N	0.862262	0.556121	0.556213
N37	N	0.293086	0.055093	0.056200
N38	N	0.793086	0.555093	0.556200
C39	C	0.254278	0.091905	-0.000141
C40	C	0.754278	0.591905	0.499859
N41	N	0.287261	0.129775	-0.056480
N42	N	0.787261	0.629775	0.443520
N43	N	0.356444	0.130799	-0.056470
N44	N	0.856444	0.630799	0.443530
C45	C	0.394721	0.093988	-0.000121
C46	C	0.894721	0.593988	0.499879
C47	C	0.142149	0.086984	-0.075851
C48	C	0.642149	0.586984	0.424149
C49	C	0.069324	0.085915	-0.075858
C50	C	0.569324	0.585915	0.424142
C51	C	0.062846	0.092341	0.075536
C52	C	0.562846	0.592341	0.575536
C53	C	0.135669	0.093417	0.075541
C54	C	0.635669	0.593417	0.575541
C55	C	0.175317	0.090735	-0.000155
C56	C	0.675317	0.590735	0.499845
C57	C	0.829987	-0.034713	-0.000115
C58	C	1.329987	0.465287	0.499885
C59	C	0.828846	-0.112217	-0.000108
C60	C	1.328846	0.387783	0.499892
C61	C	0.891937	-0.157147	-0.000112
C62	C	1.391937	0.342853	0.499888
C63	C	0.890866	-0.229971	-0.000126
C64	C	1.390866	0.270029	0.499874
C65	C	0.826699	-0.257862	-0.000118
C66	C	1.326699	0.242138	0.499882
C67	C	0.763599	-0.212922	-0.000118
C68	C	1.263599	0.287078	0.499882
C69	C	0.764672	-0.140100	-0.000113
C70	C	1.264672	0.359900	0.499887
N71	N	0.775637	-0.363856	0.047145
N72	N	1.275637	0.136144	0.547145
N73	N	0.774621	-0.433035	0.047142
N74	N	1.274621	0.066965	0.547142
C75	C	0.823462	-0.477271	-0.000134
C76	C	1.323462	0.022729	0.499866
N77	N	0.873366	-0.449716	-0.047397
N78	N	1.373366	0.050284	0.452603
N79	N	0.874383	-0.380531	-0.047391
N80	N	1.374383	0.119469	0.452609
C81	C	0.825528	-0.336824	-0.000123
C82	C	1.325528	0.163176	0.499877
C83	C	0.885396	-0.601166	-0.000154
C84	C	1.385396	-0.101166	0.499846
C85	C	0.884323	-0.673991	-0.000172
C86	C	1.384323	-0.173991	0.499828
C87	C	0.757053	-0.656940	-0.000156
C88	C	1.257053	-0.156940	0.499844
C89	C	0.758129	-0.584117	-0.000146
C90	C	1.258129	-0.084117	0.499854
C91	C	0.822302	-0.556234	-0.000141
C92	C	1.322302	-0.056234	0.499859
C93	C	0.952169	0.087454	-0.000152
C94	C	1.452169	0.587454	0.499848
C95	C	1.029675	0.088587	-0.000169
C96	C	1.529675	0.588587	0.499831
C97	C	0.819014	0.220620	-0.000153
C98	C	1.319014	0.720620	0.499847
C99	C	0.820155	0.298124	-0.000166
C100	C	1.320155	0.798124	0.499834
N101	N	0.815285	0.102136	0.216203
N102	N	1.315285	0.602136	0.716203
N103	N	0.833721	0.083765	-0.216470
N104	N	1.333721	0.583765	0.283530
C105	C	0.861053	0.056397	0.259898
C106	C	1.361053	0.556397	0.759898
C107	C	0.857340	0.060111	0.347305
C108	C	1.357340	0.560111	0.847305
C109	C	0.807862	0.109568	0.391015
C110	C	1.307862	0.609568	0.891015
C111	C	0.762089	0.155309	0.347314
C112	C	1.262089	0.655309	0.847314
C113	C	0.765799	0.151591	0.259909
C114	C	1.265799	0.651591	0.759909
C115	C	0.791658	0.125788	0.652424
C116	C	1.291658	0.625788	1.152424
C117	C	0.787953	0.129504	0.739836
C118	C	1.287953	0.629504	1.239836
C119	C	0.883203	0.034305	0.739820
C120	C	1.383203	0.534305	1.239820
C121	C	0.886912	0.030594	0.652413
C122	C	1.386912	0.530594	1.152413
C123	C	0.841136	0.076333	0.608720
C124	C	1.341136	0.576333	1.108720
N125	N	0.804068	0.113367	0.480359
N126	N	1.304068	0.613367	0.980359
N127	N	0.844928	0.072530	0.519378
N128	N	1.344928	0.572530	1.019378
H129	H	0.174431	0.084808	-0.137487
H130	H	0.674431	0.584808	0.362513
Cl131	Cl	0.685350	-0.083613	-0.000107
Cl132	Cl	1.185350	0.416387	0.499893
H133	H	0.728529	0.188836	0.224334
H134	H	1.228529	0.688836	0.724334
H135	H	0.754387	0.163031	0.616856
H136	H	1.254387	0.663031	1.116856
Cl137	Cl	0.027628	0.081197	-0.171025
Cl138	Cl	0.527628	0.581197	0.328975
Cl139	Cl	0.682932	-0.247984	-0.000114
Cl140	Cl	1.182932	0.252016	0.499886
Cl141	Cl	0.471633	0.087763	-0.170975
Cl142	Cl	0.971633	0.587763	0.329025
Cl143	Cl	0.914878	0.002609	0.402237
Cl144	Cl	1.414878	0.502609	0.902237
H145	H	0.704807	-0.679648	-0.000154
H146	H	1.204807	-0.179648	0.499846
Cl147	Cl	0.678809	-0.527630	-0.000137
Cl148	Cl	1.178809	-0.027630	0.499863
Cl149	Cl	0.013002	0.095705	0.170689
Cl150	Cl	0.513002	0.595705	0.670689
Cl151	Cl	0.966069	-0.566109	-0.000143
Cl152	Cl	1.466069	-0.066109	0.499857
Cl153	Cl	0.963646	-0.730476	-0.000184
Cl154	Cl	1.463646	-0.230476	0.499816
H155	H	0.474566	0.101097	0.137209
H156	H	0.974566	0.601097	0.637209
Cl157	Cl	0.923261	-0.005777	0.204957
Cl158	Cl	1.423261	0.494223	0.704957
H159	H	0.920471	-0.002934	0.775403
H160	H	1.420471	0.497066	1.275403
Cl161	Cl	0.699884	0.217481	0.402262
Cl162	Cl	1.199884	0.717481	0.902262
Cl163	Cl	0.725747	0.191685	0.794780
Cl164	Cl	1.225747	0.691685	1.294780
H165	H	0.944192	-0.134450	-0.000111
H166	H	1.444192	0.365550	0.499889
H167	H	0.606680	0.103062	0.137232
H168	H	1.106680	0.603062	0.637232
H169	H	0.162673	0.096472	0.137180
H170	H	0.662673	0.596472	0.637180
H171	H	0.942245	-0.266560	-0.000133
H172	H	1.442245	0.233440	0.499867
H173	H	0.618436	0.091378	-0.137436
H174	H	1.118436	0.591378	0.362564
Cl175	Cl	0.949114	-0.031580	0.597463
Cl176	Cl	1.449114	0.468420	1.097463
