data_functionalizedCrystal
_audit_creation_method	'MofGen! by Chris Wilmer'
_symmetry_space_group_name_H-M	'P1'
_symmetry_Int_Tables_number	1
_symmetry_cell_setting	triclinic
loop_
_symmetry_equiv_pos_as_xyz
  x,y,z
_cell_length_a	14.519709
_cell_length_b	27.732048
_cell_length_c	13.596369
_cell_angle_alpha	89.989067
_cell_angle_beta	90.000291
_cell_angle_gamma	83.161400
loop_
_atom_site_label
_atom_site_type_symbol
_atom_site_fract_x
_atom_site_fract_y
_atom_site_fract_z
O1	O	1.222766	0.063362	-0.081675
O2	O	1.722766	0.563362	0.418325
O3	O	0.954159	0.070824	-0.081706
O4	O	1.454159	0.570824	0.418294
O5	O	1.096805	-0.003264	-0.081671
O6	O	1.596805	0.496736	0.418329
O7	O	1.080120	0.137450	-0.081710
O8	O	1.580120	0.637450	0.418290
O9	O	1.096791	-0.003268	0.081912
O10	O	1.596791	0.496732	0.581912
O11	O	0.954145	0.070820	0.081877
O12	O	1.454145	0.570820	0.581877
O13	O	1.222752	0.063358	0.081908
O14	O	1.722752	0.563358	0.581908
Zn15	Zn	1.088446	0.067088	0.107865
Zn16	Zn	1.588446	0.567088	0.607865
Zn17	Zn	1.088465	0.067094	-0.107663
Zn18	Zn	1.588465	0.567094	0.392337
O19	O	1.080106	0.137446	0.081873
O20	O	1.580106	0.637446	0.581873
C21	C	0.919799	0.070474	0.000082
C22	C	1.419799	0.570474	0.500082
C23	C	0.817435	0.069432	0.000071
C24	C	1.317435	0.569432	0.500071
C25	C	0.442606	0.065596	0.000116
C26	C	0.942606	0.565596	0.500116
C27	C	0.546896	0.066661	0.000103
C28	C	1.046896	0.566661	0.500103
C29	C	0.630018	0.067514	0.000093
C30	C	1.130018	0.567514	0.500093
C31	C	0.734314	0.068579	0.000081
C32	C	1.234314	0.568579	0.500081
C33	C	1.096448	-0.021274	0.000124
C34	C	1.596448	0.478726	0.500124
C35	C	1.095393	-0.074934	0.000132
C36	C	1.595393	0.425066	0.500132
C37	C	1.173048	-0.413378	0.000090
C38	C	1.673048	0.086622	0.500090
C39	C	1.169135	-0.615057	0.000076
C40	C	1.669135	-0.115057	0.500076
O41	O	1.240145	-0.645973	0.000041
O42	O	1.740145	-0.145973	0.500041
N43	N	1.084552	-0.634585	0.000067
N44	N	1.584552	-0.134585	0.500067
C45	C	1.000941	-0.603690	0.000055
C46	C	1.500941	-0.103690	0.500055
O47	O	0.928909	-0.624927	0.000037
O48	O	1.428909	-0.124927	0.500037
C49	C	1.004855	-0.402012	0.000062
C50	C	1.504855	0.097988	0.500062
C51	C	1.089444	-0.382487	0.000081
C52	C	1.589444	0.117513	0.500081
C53	C	1.257630	-0.393853	0.000108
C54	C	1.757630	0.106147	0.500108
C55	C	1.258607	-0.343436	0.000117
C56	C	1.758607	0.156564	0.500117
C57	C	1.175003	-0.312545	0.000108
C58	C	1.675003	0.187455	0.500108
C59	C	1.090421	-0.332071	0.000090
C60	C	1.590421	0.167929	0.500090
C61	C	0.921246	-0.371118	0.000043
C62	C	1.421246	0.128882	0.500043
C63	C	0.922232	-0.320696	0.000043
C64	C	1.422232	0.179304	0.500043
C65	C	1.006820	-0.301171	0.000062
C66	C	1.506820	0.198829	0.500062
C67	C	1.007794	-0.250763	0.000090
C68	C	1.507794	0.249237	0.500090
N69	N	1.092377	-0.231235	0.000099
N70	N	1.592377	0.268765	0.500099
C71	C	1.175981	-0.262126	0.000108
C72	C	1.675981	0.237874	0.500108
C73	C	0.998893	-0.709574	0.000053
C74	C	1.498893	-0.209574	0.500053
C75	C	0.997914	-0.759993	0.000053
C76	C	1.497914	-0.259993	0.500053
C77	C	1.166108	-0.771356	0.000072
C78	C	1.666108	-0.271356	0.500072
C79	C	1.167086	-0.720936	0.000079
C80	C	1.667086	-0.220936	0.500079
C81	C	1.083476	-0.690045	0.000062
C82	C	1.583476	-0.190045	0.500062
C83	C	1.178028	-0.156247	0.000128
C84	C	1.678028	0.343753	0.500128
C85	C	1.178998	-0.105825	0.000141
C86	C	1.678998	0.394175	0.500141
C87	C	1.010804	-0.094466	0.000116
C88	C	1.510804	0.405534	0.500116
C89	C	1.009833	-0.144883	0.000109
C90	C	1.509833	0.355117	0.500109
C91	C	1.093453	-0.175773	0.000111
C92	C	1.593453	0.324227	0.500111
O93	O	0.936822	-0.219818	0.000114
O94	O	1.436822	0.280182	0.500114
O95	O	1.248004	-0.240879	0.000104
O96	O	1.748004	0.259121	0.500104
C97	C	1.172071	-0.463795	0.000081
C98	C	1.672071	0.036205	0.500081
C99	C	1.087489	-0.483320	0.000063
C100	C	1.587489	0.016680	0.500063
C101	C	1.003885	-0.452429	0.000054
C102	C	1.503885	0.047571	0.500054
C103	C	1.086510	-0.533740	0.000063
C104	C	1.586510	-0.033740	0.500063
C105	C	1.170115	-0.564631	0.000072
C106	C	1.670115	-0.064631	0.500072
C107	C	1.254698	-0.545103	0.000081
C108	C	1.754698	-0.045103	0.500081
C109	C	1.255675	-0.494686	0.000090
C110	C	1.755675	0.005314	0.500090
C111	C	0.919302	-0.471957	0.000046
C112	C	1.419302	0.028043	0.500046
C113	C	0.918331	-0.522375	0.000038
C114	C	1.418331	-0.022375	0.500038
C115	C	1.001936	-0.553266	0.000047
C116	C	1.501936	-0.053266	0.500047
C117	C	1.257113	0.063708	0.000119
C118	C	1.757113	0.563708	0.500119
C119	C	1.359476	0.064750	0.000123
C120	C	1.859476	0.564750	0.500123
C121	C	1.080464	0.155456	0.000077
C122	C	1.580464	0.655456	0.500077
C123	C	1.081518	0.209116	0.000062
C124	C	1.581518	0.709116	0.500062
N125	N	1.088441	0.067085	0.254957
N126	N	1.588441	0.567085	0.754957
N127	N	1.088478	0.067094	-0.254754
N128	N	1.588478	0.567094	0.245246
C129	C	1.088464	0.067094	0.656248
C130	C	1.588464	0.567094	1.156248
C131	C	1.088454	0.067093	0.544596
C132	C	1.588454	0.567093	1.044596
C133	C	1.088453	0.067090	0.455606
C134	C	1.588453	0.567090	0.955606
C135	C	1.088442	0.067088	0.343947
C136	C	1.588442	0.567088	0.843947
H137	H	1.247882	-0.089931	0.000158
H138	H	1.747882	0.410069	0.500158
O139	O	0.915802	-0.779013	-0.000087
O140	O	1.415802	-0.279013	0.499913
C141	C	0.817058	-0.829300	-0.084886
C142	C	1.317058	-0.329300	0.415114
C143	C	0.910094	-0.807804	-0.084830
C144	C	1.410094	-0.307804	0.415170
H145	H	0.812403	-0.852575	-0.153404
H146	H	1.312403	-0.352575	0.346596
H147	H	0.812365	-0.852659	-0.016476
H148	H	1.312365	-0.352659	0.483524
H149	H	0.757494	-0.798548	-0.084848
H150	H	1.257494	-0.298548	0.415152
H151	H	0.969711	-0.838526	-0.084903
H152	H	1.469711	-0.338526	0.415097
H153	H	0.914705	-0.784433	-0.153234
H154	H	1.414705	-0.284433	0.346766
H155	H	0.851220	-0.446810	0.000036
H156	H	1.351220	0.053190	0.500036
O157	O	0.836237	-0.541418	0.000061
O158	O	1.336237	-0.041418	0.500061
C159	C	0.760169	-0.614048	-0.000047
C160	C	1.260169	-0.114048	0.499953
C161	C	0.853201	-0.592548	-0.000037
C162	C	1.353201	-0.092548	0.499963
H163	H	0.773853	-0.655389	-0.000148
H164	H	1.273853	-0.155389	0.499852
H165	H	0.718864	-0.601375	0.068419
H166	H	1.218864	-0.101375	0.568419
H167	H	0.718911	-0.601289	-0.068499
H168	H	1.218911	-0.101289	0.431501
H169	H	0.894535	-0.605296	0.068368
H170	H	1.394535	-0.105296	0.568368
H171	H	0.894436	-0.605218	-0.068549
H172	H	1.394436	-0.105218	0.431451
H173	H	1.246119	-0.181392	0.000126
H174	H	1.746119	0.318608	0.500126
O175	O	1.340858	-0.324553	0.000084
O176	O	1.840858	0.175447	0.500084
C177	C	1.507578	-0.341165	0.000156
C178	C	2.007578	0.158835	0.500156
C179	C	1.414489	-0.362609	0.000174
C180	C	1.914489	0.137391	0.500174
H181	H	1.567133	-0.371922	0.000250
H182	H	2.067133	0.128078	0.500250
H183	H	1.512316	-0.317856	-0.068319
H184	H	2.012316	0.182144	0.431681
H185	H	1.512195	-0.317835	0.068600
H186	H	2.012195	0.182165	0.568600
H187	H	1.409810	-0.385961	-0.068224
H188	H	1.909810	0.114039	0.431776
H189	H	1.409792	-0.385890	0.068693
H190	H	1.909792	0.114110	0.568693
O191	O	0.838994	-0.389996	-0.000023
O192	O	1.338994	0.110004	0.499977
C193	C	0.672274	-0.373382	-0.000006
C194	C	1.172274	0.126618	0.499994
C195	C	0.765365	-0.351940	0.000048
C196	C	1.265365	0.148060	0.500048
H197	H	0.612721	-0.342624	0.000072
H198	H	1.112721	0.157376	0.500072
H199	H	0.667552	-0.396676	-0.068486
H200	H	1.167552	0.103324	0.431514
H201	H	0.667639	-0.396727	0.068432
H202	H	1.167639	0.103273	0.568432
H203	H	0.770063	-0.328574	-0.068344
H204	H	1.270063	0.171426	0.431656
H205	H	0.770047	-0.328674	0.068573
H206	H	1.270047	0.171326	0.568573
H207	H	1.325714	-0.419000	0.000112
H208	H	1.825714	0.081000	0.500112
H209	H	0.942736	-0.069306	0.000113
H210	H	1.442736	0.430694	0.500113
H211	H	0.930803	-0.684426	0.000040
H212	H	1.430803	-0.184426	0.500040
H213	H	1.235965	-0.705043	0.000094
H214	H	1.735965	-0.205043	0.500094
O215	O	1.247299	-0.801388	-0.000101
O216	O	1.747299	-0.301388	0.499899
C217	C	1.343760	-0.864924	-0.084833
C218	C	1.843760	-0.364924	0.415167
C219	C	1.251794	-0.830931	-0.084759
C220	C	1.751794	-0.330931	0.415241
H221	H	1.347415	-0.888826	-0.153261
H222	H	1.847415	-0.388826	0.346739
H223	H	1.404425	-0.842336	-0.084896
H224	H	1.904425	-0.342336	0.415104
H225	H	1.347494	-0.888800	-0.016346
H226	H	1.847494	-0.388800	0.483654
H227	H	1.247969	-0.807049	-0.153234
H228	H	1.747969	-0.307049	0.346766
H229	H	1.191172	-0.853549	-0.084645
H230	H	1.691172	-0.353549	0.415355
H231	H	0.854144	-0.295547	0.000027
H232	H	1.354144	0.204453	0.500027
O233	O	0.927688	-0.163875	0.000273
O234	O	1.427688	0.336125	0.500273
C235	C	0.828977	-0.214236	0.084955
C236	C	1.328977	0.285764	0.584955
C237	C	0.922031	-0.192758	0.084915
C238	C	1.422031	0.307242	0.584915
H239	H	0.824381	-0.237601	0.153370
H240	H	1.324381	0.262399	0.653370
H241	H	0.769357	-0.183512	0.085018
H242	H	1.269357	0.316488	0.585018
H243	H	0.824331	-0.237524	0.016455
H244	H	1.324331	0.262476	0.516455
H245	H	0.926768	-0.169475	0.153403
H246	H	1.426768	0.330525	0.653403
H247	H	0.981606	-0.223505	0.084801
H248	H	1.481606	0.276495	0.584801
H249	H	1.324556	-0.478794	0.000105
H250	H	1.824556	0.021206	0.500105
H251	H	1.322771	-0.570263	0.000093
H252	H	1.822771	-0.070263	0.500093
