data_functionalizedCrystal
_audit_creation_method	'MofGen! by Chris Wilmer'
_symmetry_space_group_name_H-M	'P1'
_symmetry_Int_Tables_number	1
_symmetry_cell_setting	triclinic
loop_
_symmetry_equiv_pos_as_xyz
  x,y,z
_cell_length_a	20.875641
_cell_length_b	14.560438
_cell_length_c	14.560438
_cell_angle_alpha	60.000905
_cell_angle_beta	89.999936
_cell_angle_gamma	57.589171
loop_
_atom_site_label
_atom_site_type_symbol
_atom_site_fract_x
_atom_site_fract_y
_atom_site_fract_z
Zr1	Zr	0.641476	0.937870	-0.086821
O2	O	0.535150	1.140646	-0.239050
O3	O	0.674070	0.742844	-0.040157
O4	O	0.674067	0.934448	-0.231758
O5	O	0.535156	0.949039	0.103692
O6	O	0.783648	0.922934	-0.226004
O7	O	0.535153	0.949042	-0.047449
O8	O	0.783653	0.580189	0.116735
O9	O	0.535150	1.291784	-0.239047
O10	O	0.769750	0.811598	-0.015958
O11	O	0.687974	0.820189	0.092542
O12	O	0.687970	1.045778	-0.133043
O13	O	0.606193	1.054369	-0.024543
Zr14	Zr	0.816249	0.919501	0.163409
Zr15	Zr	0.816244	0.919506	-0.077643
Zr16	Zr	0.641480	0.937866	0.154231
Zr17	Zr	0.641476	1.178918	-0.086816
Zr18	Zr	0.816248	0.678454	0.163404
O19	O	0.783654	1.114528	0.116745
O20	O	0.783648	1.114534	-0.226000
O21	O	0.535156	1.140640	0.103696
O22	O	0.922575	0.716725	0.315638
O23	O	0.922568	0.716732	-0.027108
O24	O	0.674077	0.742838	0.302588
O25	O	0.922569	0.908333	-0.027104
O26	O	0.783657	0.922924	0.308346
O27	O	0.674077	0.934438	0.302592
O28	O	0.922571	0.908330	0.124037
O29	O	0.674067	1.277187	-0.231752
O30	O	0.783657	0.580185	0.308340
O31	O	0.922574	0.565587	0.315635
O32	O	0.922571	0.565591	0.124030
O33	O	0.535154	1.291781	-0.047442
O34	O	0.674071	1.277183	-0.040147
O35	O	0.769755	0.811594	0.209631
O36	O	0.851531	0.803002	0.101131
O37	O	0.769751	1.037183	-0.015954
O38	O	0.687974	1.045774	0.092546
C39	C	0.728862	0.627172	0.038288
C40	C	0.728862	0.524841	0.038286
C41	C	0.771547	0.472281	-0.018350
C42	C	0.771550	0.376121	-0.018339
C43	C	0.686177	0.385095	0.094945
C44	C	0.686179	0.481246	0.094941
C45	C	0.510254	0.951657	0.026814
C46	C	0.436060	0.959454	0.022918
C47	C	0.443890	0.840880	0.082199
C48	C	0.374174	0.848213	0.078535
C49	C	0.296629	0.974122	0.015584
C50	C	0.288801	1.092705	-0.043699
C51	C	0.358516	1.085370	-0.040028
C52	C	0.083551	1.009166	-0.001942
C53	C	0.013834	1.016492	-0.005611
C54	C	0.099213	0.772000	0.116626
C55	C	0.168925	0.764676	0.120285
C56	C	0.161091	0.883259	0.061007
N57	N	0.225368	0.981621	0.011835
N58	N	0.232352	0.875758	0.064764
C59	C	0.947471	0.905715	0.049774
C60	C	1.021664	0.897918	0.053670
C61	C	0.728857	0.928692	-0.263226
C62	C	0.728855	0.928693	-0.365559
C63	C	0.728863	1.230200	0.038300
C64	C	0.728863	1.332531	0.038302
C65	C	0.686167	1.050931	-0.474752
C66	C	0.686177	1.050924	-0.570900
C67	C	0.771563	0.806431	-0.448648
C68	C	0.771557	0.806439	-0.352502
C69	C	0.728868	0.928680	0.339814
C70	C	0.728870	0.928678	0.442147
C71	C	0.947470	0.604201	0.049768
C72	C	1.021664	0.494073	0.053662
C73	C	0.728867	0.627166	0.339808
C74	C	0.728869	0.524834	0.442139
C75	C	0.947476	0.604195	0.351288
C76	C	1.021671	0.494066	0.457515
C77	C	0.510249	1.253177	-0.274700
C78	C	0.436053	1.363306	-0.380927
C79	C	0.510254	1.253171	0.026820
C80	C	0.436061	1.363298	0.022926
C81	C	0.728857	1.230205	-0.263220
C82	C	0.728855	1.332538	-0.365551
C83	C	1.013817	0.446843	-0.005638
C84	C	1.083523	0.343381	-0.002002
C85	C	1.161075	0.287144	0.060942
C86	C	1.168920	0.334384	0.120244
C87	C	1.099215	0.437851	0.116601
C88	C	1.099208	0.437863	0.450765
C89	C	1.168929	0.334397	0.550568
C90	C	1.161112	0.287130	0.657120
C91	C	1.083567	0.343344	0.663868
C92	C	1.013847	0.446814	0.564066
C93	C	0.358516	1.419521	-0.374177
C94	C	0.288795	1.523016	-0.473980
C95	C	0.296613	1.570288	-0.580532
C96	C	0.374158	1.514068	-0.587280
C97	C	0.443877	1.410582	-0.487478
C98	C	0.443907	1.410539	0.082216
C99	C	0.374201	1.514027	0.078553
C100	C	0.296649	1.570268	0.015606
C101	C	0.288804	1.523023	-0.043692
C102	C	0.358509	1.419543	-0.040035
C103	C	0.771558	0.472269	0.551334
C104	C	0.771550	0.376126	0.647481
C105	C	0.686164	0.385118	0.525224
C106	C	0.686167	0.481266	0.429080
H107	H	0.651425	0.349590	0.141070
H108	H	0.507027	0.738351	0.133466
H109	H	0.651399	0.349631	0.514605
Br110	Br	0.628220	0.552623	0.280874
H111	H	0.806323	0.706892	-0.263585
Br112	Br	0.347888	1.246298	-0.120475
H113	H	1.217889	0.202878	0.738376
Br114	Br	0.347846	1.355438	-0.120504
Br115	Br	0.274162	0.593794	0.205719
H116	H	0.950677	0.492630	-0.056908
Br117	Br	1.274158	0.258126	0.541384
H118	H	0.806309	0.333327	-0.064456
Br119	Br	0.829509	0.531395	0.569060
Br120	Br	0.628254	0.552571	0.171823
H121	H	0.380557	0.751658	0.126810
H122	H	0.352136	1.381039	-0.287427
Br123	Br	0.109839	0.611075	0.197073
Br124	Br	1.109840	0.501994	0.306172
Br125	Br	0.829475	0.531439	-0.095234
Br126	Br	-0.091409	1.187380	-0.091068
H127	H	1.232072	0.288581	0.171492
H128	H	0.806310	0.333333	0.736389
Br129	Br	0.072910	1.170101	-0.082392
Br130	Br	1.072971	0.279181	0.808484
Br131	Br	0.549103	1.334295	-0.496659
H132	H	0.507048	1.364755	0.133482
H133	H	0.225661	1.568773	-0.468464
H134	H	0.651396	1.150478	-0.485390
Br135	Br	1.072857	0.279290	-0.082488
H136	H	0.651417	1.150462	-0.659808
Br137	Br	0.183561	1.263583	-0.129123
H138	H	0.806328	0.706896	-0.438032
H139	H	1.217827	0.202894	0.063900
H140	H	1.105615	0.476292	0.164898
H141	H	0.239836	1.654554	-0.661788
H142	H	0.380605	1.552476	0.126846
Br143	Br	0.908621	0.523072	0.573247
H144	H	0.380513	1.552571	-0.674046
Br145	Br	0.202056	1.710706	0.010655
H146	H	0.225652	1.568830	-0.094943
