data_functionalizedCrystal
_audit_creation_method	'MofGen! by Chris Wilmer'
_symmetry_space_group_name_H-M	'P1'
_symmetry_Int_Tables_number	1
_symmetry_cell_setting	triclinic
loop_
_symmetry_equiv_pos_as_xyz
  x,y,z
_cell_length_a	16.120530
_cell_length_b	18.101395
_cell_length_c	16.120256
_cell_angle_alpha	92.874436
_cell_angle_beta	90.128265
_cell_angle_gamma	87.126665
loop_
_atom_site_label
_atom_site_type_symbol
_atom_site_fract_x
_atom_site_fract_y
_atom_site_fract_z
Zn1	Zn	1.247384	-0.375205	-0.534567
Zn2	Zn	1.747384	0.124795	-0.034567
Zn3	Zn	1.254317	-0.493093	-0.395509
Zn4	Zn	1.754317	0.006907	0.104491
Zn5	Zn	1.115376	-0.362686	-0.388485
Zn6	Zn	1.615376	0.137314	0.111515
Zn7	Zn	1.108274	-0.492415	-0.527479
Zn8	Zn	1.608274	0.007585	-0.027479
O9	O	1.181338	-0.430850	-0.461510
O10	O	1.681338	0.069150	0.038490
O11	O	1.364669	-0.396365	-0.522027
O12	O	1.864669	0.103635	-0.022027
O13	O	1.241760	-0.470839	-0.278212
O14	O	1.741760	0.029161	0.221788
O15	O	1.132958	-0.260718	-0.407890
O16	O	1.632958	0.239282	0.092110
O17	O	1.369763	-0.482978	-0.419862
O18	O	1.869763	0.017022	0.080138
O19	O	1.229944	-0.269915	-0.515216
O20	O	1.729944	0.230085	-0.015216
O21	O	1.139681	-0.375030	-0.273051
O22	O	1.639681	0.124970	0.226949
O23	O	0.998069	-0.374372	-0.401017
O24	O	1.498069	0.125628	0.098983
O25	O	1.120853	-0.481821	-0.644785
O26	O	1.620853	0.018179	-0.144785
O27	O	0.992850	-0.469683	-0.503135
O28	O	1.492850	0.030317	-0.003135
O29	O	1.223057	-0.395708	-0.649993
O30	O	1.723057	0.104292	-0.149993
O31	O	1.234873	-0.596632	-0.412989
O32	O	1.734873	-0.096632	0.087011
O33	O	1.127576	-0.596133	-0.509947
O34	O	1.627576	-0.096133	-0.009947
C35	C	0.965287	-0.420596	-0.450545
C36	C	1.465287	0.079404	0.049455
C37	C	0.872859	-0.416229	-0.445874
C38	C	1.372859	0.083771	0.054126
C39	C	0.703630	-0.408237	-0.437352
C40	C	1.203630	0.091763	0.062648
C41	C	0.659882	-0.453519	-0.485729
C42	C	1.159882	0.046481	0.014271
C43	C	0.565718	-0.449073	-0.480988
C44	C	1.065718	0.050927	0.019012
C45	C	0.797803	-0.412683	-0.442092
C46	C	1.297803	0.087317	0.057908
C47	C	1.181228	-0.623254	-0.461480
C48	C	1.681228	-0.123254	0.038520
C49	C	1.181255	-0.705570	-0.461499
C50	C	1.681255	-0.205570	0.038501
C51	C	1.181435	-1.004672	-0.461553
C52	C	1.681435	-0.504672	0.038447
C53	C	1.114068	-0.973078	-0.522723
C54	C	1.614068	-0.473078	-0.022723
C55	C	1.113773	-0.887437	-0.522506
C56	C	1.613773	-0.387437	-0.022506
C57	C	1.181346	-0.856284	-0.461527
C58	C	1.681346	-0.356284	0.038473
C59	C	1.162064	-0.882558	-0.372687
C60	C	1.662064	-0.382558	0.127313
C61	C	1.161631	-0.968200	-0.373052
C62	C	1.661631	-0.468200	0.126948
C63	C	1.268265	-0.978145	-0.488458
C64	C	1.768265	-0.478145	0.011542
C65	C	1.267650	-0.892552	-0.490354
C66	C	1.767650	-0.392552	0.009646
C67	C	1.181297	-0.772421	-0.461507
C68	C	1.681297	-0.272421	0.038493
C69	C	1.181483	-1.088534	-0.461567
C70	C	1.681483	-0.588534	0.038433
C71	C	1.398232	-0.441144	-0.472519
C72	C	1.898232	0.058856	0.027481
C73	C	1.490659	-0.445530	-0.477210
C74	C	1.990659	0.054470	0.022790
C75	C	1.170389	-0.440085	-0.678405
C76	C	1.670389	0.059915	-0.178405
C77	C	1.165723	-0.444021	-0.770833
C78	C	1.665723	0.055979	-0.270833
C79	C	1.181470	-0.237696	-0.461560
C80	C	1.681470	0.262304	0.038440
C81	C	1.181526	-0.155385	-0.461581
C82	C	1.681526	0.344615	0.038419
C83	C	1.205667	-0.410307	-0.983817
C84	C	1.705667	0.089693	-0.483817
C85	C	1.157177	-0.451174	-0.940053
C86	C	1.657177	0.048826	-0.440053
C87	C	1.161934	-0.447193	-0.845890
C88	C	1.661934	0.052807	-0.345890
C89	C	1.200912	-0.414287	-1.077988
C90	C	1.700912	0.085713	-0.577988
C91	C	1.192292	-0.421599	-0.245461
C92	C	1.692292	0.078401	0.254539
C93	C	1.197118	-0.417462	-0.153042
C94	C	1.697118	0.082538	0.346958
H95	H	1.125322	-0.869858	-0.588241
H96	H	1.625322	-0.369858	-0.088241
H97	H	0.693148	-0.495625	-0.530708
H98	H	1.193148	0.004375	-0.030708
N99	N	1.129143	-1.004916	-0.610067
N100	N	1.629143	-0.504916	-0.110067
H101	H	1.179788	-1.040131	-0.610836
H102	H	1.679788	-0.540131	-0.110836
H103	H	1.079193	-1.032442	-0.629694
H104	H	1.579193	-0.532442	-0.129694
N105	N	0.659572	-0.352475	-0.377766
N106	N	1.159572	0.147525	0.122234
H107	H	0.701886	-0.322873	-0.346135
H108	H	1.201886	0.177127	0.153865
H109	H	0.621846	-0.318026	-0.409900
H110	H	1.121846	0.181974	0.090100
N111	N	1.097464	-0.501487	-0.984097
N112	N	1.597464	-0.001487	-0.484097
H113	H	1.111094	-0.554386	-0.969689
H114	H	1.611094	-0.054386	-0.469689
H115	H	1.038824	-0.486485	-0.965997
H116	H	1.538824	0.013515	-0.465997
H117	H	1.050005	-0.990964	-0.504757
H118	H	1.550005	-0.490964	-0.004757
N119	N	1.265409	-0.360023	-0.939782
N120	N	1.765409	0.139977	-0.439782
H121	H	1.260389	-0.364285	-0.877784
H122	H	1.760389	0.135715	-0.377784
H123	H	1.324030	-0.375019	-0.957945
H124	H	1.824030	0.124981	-0.457945
H125	H	1.049324	-0.863287	-0.504333
H126	H	1.549324	-0.363287	-0.004333
H127	H	1.098292	-0.984382	-0.350778
H128	H	1.598292	-0.484382	0.149222
H129	H	1.208811	-0.988909	-0.325682
H130	H	1.708811	-0.488909	0.174318
N131	N	1.225269	-0.855623	-0.310405
N132	N	1.725269	-0.355623	0.189595
H133	H	1.267110	-0.826057	-0.339248
H134	H	1.767110	-0.326057	0.160752
H135	H	1.196220	-0.823297	-0.265377
H136	H	1.696220	-0.323297	0.234623
H137	H	1.099423	-0.857330	-0.350107
H138	H	1.599423	-0.357330	0.149893
H139	H	1.286710	-1.003408	-0.552370
H140	H	1.786710	-0.503408	-0.052370
N141	N	1.287027	-0.870363	-0.576986
N142	N	1.787027	-0.370363	-0.076986
H143	H	1.240103	-0.836956	-0.597481
H144	H	1.740103	-0.336956	-0.097481
H145	H	1.340248	-0.843178	-0.576101
H146	H	1.840248	-0.343178	-0.076101
N147	N	1.337179	-0.864876	-0.436110
N148	N	1.837179	-0.364876	0.063890
H149	H	1.327259	-0.877586	-0.376766
H150	H	1.827259	-0.377586	0.123234
H151	H	1.391771	-0.889123	-0.456170
H152	H	1.891771	-0.389123	0.043830
N153	N	1.334681	-1.005300	-0.429519
N154	N	1.834681	-0.505300	0.070481
H155	H	1.308699	-1.034642	-0.385602
H156	H	1.808699	-0.534642	0.114398
H157	H	1.377538	-1.037889	-0.461417
H158	H	1.877538	-0.537889	0.038583
