data_functionalizedCrystal
_audit_creation_method	'MofGen! by Chris Wilmer'
_symmetry_space_group_name_H-M	'P1'
_symmetry_Int_Tables_number	1
_symmetry_cell_setting	triclinic
loop_
_symmetry_equiv_pos_as_xyz
  x,y,z
_cell_length_a	17.699083
_cell_length_b	7.681481
_cell_length_c	17.699083
_cell_angle_alpha	95.731310
_cell_angle_beta	83.283015
_cell_angle_gamma	84.282230
loop_
_atom_site_label
_atom_site_type_symbol
_atom_site_fract_x
_atom_site_fract_y
_atom_site_fract_z
O1	O	0.996918	0.146188	0.102878
O2	O	1.496918	0.646188	0.602878
O3	O	0.776537	0.146246	0.115334
O4	O	1.276537	0.646246	0.615334
O5	O	0.892955	0.146200	-0.001084
O6	O	1.392955	0.646200	0.498916
O7	O	0.880500	0.146234	0.219296
O8	O	1.380500	0.646234	0.719296
O9	O	0.907284	-0.146663	-0.015446
O10	O	1.407284	0.353337	0.484554
O11	O	0.790866	-0.146617	0.100972
O12	O	1.290866	0.353383	0.600972
O13	O	1.011247	-0.146675	0.088517
O14	O	1.511247	0.353325	0.588517
Zn15	Zn	0.903332	-0.193144	0.092464
Zn16	Zn	1.403332	0.306856	0.592464
Zn17	Zn	0.884452	0.192716	0.111386
Zn18	Zn	1.384452	0.692716	0.611386
O19	O	0.894830	-0.146629	0.204934
O20	O	1.394830	0.353371	0.704934
C21	C	0.755504	-0.000178	0.107707
C22	C	1.255504	0.499822	0.607707
C23	C	0.671485	-0.000156	0.106369
C24	C	1.171485	0.499844	0.606369
C25	C	0.622864	-0.000146	0.174703
C26	C	1.122864	0.499854	0.674703
C27	C	0.543921	-0.000169	0.173440
C28	C	1.043921	0.499831	0.673440
C29	C	0.513602	-0.000190	0.103842
C30	C	1.013602	0.499810	0.603842
C31	C	0.562229	-0.000205	0.035503
C32	C	1.062229	0.499795	0.535503
C33	C	0.641171	-0.000195	0.036767
C34	C	1.141171	0.499805	0.536767
C35	C	0.243869	-0.000249	0.030406
C36	C	0.743869	0.499751	0.530406
C37	C	0.164921	-0.000255	0.029148
C38	C	0.664921	0.499745	0.529148
C39	C	0.146619	-0.000224	0.167079
C40	C	0.646619	0.499776	0.667079
C41	C	0.225560	-0.000214	0.168342
C42	C	0.725560	0.499786	0.668342
C43	C	0.274182	-0.000238	0.100003
C44	C	0.774182	0.499762	0.600003
C45	C	0.359780	-0.000217	0.101374
C46	C	0.859780	0.499783	0.601374
C47	C	0.428004	-0.000199	0.102472
C48	C	0.928004	0.499801	0.602472
N49	N	0.916222	-0.456484	0.079550
N50	N	1.416222	0.043516	0.579550
C51	C	1.032280	-0.000247	0.096144
C52	C	1.532280	0.499753	0.596144
C53	C	1.116298	-0.000257	0.097482
C54	C	1.616298	0.499743	0.597482
C55	C	0.899673	-0.000232	-0.036462
C56	C	1.399673	0.499768	0.463538
C57	C	0.898334	-0.000232	-0.120480
C58	C	1.398334	0.499768	0.379520
N59	N	0.871568	0.456055	0.124294
N60	N	1.371568	0.956055	0.624294
C61	C	0.966669	-0.000253	-0.169102
C62	C	1.466669	0.499747	0.330898
C63	C	0.965406	-0.000237	-0.248045
C64	C	1.465406	0.499763	0.251955
C65	C	0.895808	-0.000213	-0.278364
C66	C	1.395808	0.499787	0.221636
C67	C	0.827468	-0.000187	-0.229736
C68	C	1.327468	0.499813	0.270264
C69	C	0.828731	-0.000190	-0.150794
C70	C	1.328731	0.499810	0.349206
C71	C	0.822372	-0.000171	-0.548098
C72	C	1.322372	0.499829	-0.048098
C73	C	0.821114	-0.000173	-0.627046
C74	C	1.321114	0.499827	-0.127046
C75	C	0.959046	-0.000218	-0.645348
C76	C	1.459046	0.499782	-0.145348
C77	C	0.960310	-0.000221	-0.566407
C78	C	1.460310	0.499779	-0.066407
C79	C	0.891970	-0.000186	-0.517785
C80	C	1.391970	0.499814	-0.017785
C81	C	0.893340	-0.000200	-0.432186
C82	C	1.393340	0.499800	0.067814
C83	C	0.894438	-0.000212	-0.363962
C84	C	1.394438	0.499788	0.136038
C85	C	0.888111	-0.000193	0.240312
C86	C	1.388111	0.499807	0.740312
C87	C	0.889449	-0.000181	0.324331
C88	C	1.389449	0.499819	0.824331
H89	H	0.504336	-0.000159	0.229084
H90	H	1.004336	0.499841	0.729084
H91	H	1.021051	-0.000257	-0.287630
H92	H	1.521051	0.499743	0.212370
H93	H	0.647543	-0.000128	0.231378
H94	H	1.147543	0.499872	0.731378
H95	H	0.961813	-0.531708	0.033882
H96	H	1.461813	-0.031708	0.533882
H97	H	1.023344	-0.000283	-0.144423
H98	H	1.523344	0.499717	0.355577
H99	H	1.016984	-0.000249	-0.541726
H100	H	1.516984	0.499751	-0.041726
C101	C	0.747202	-0.000171	-0.494623
C102	C	1.247202	0.499829	0.005377
C103	C	0.670650	-0.000174	-0.527977
C104	C	1.170650	0.499826	-0.027977
C105	C	0.595476	-0.000186	-0.474498
C106	C	1.095476	0.499814	0.025502
C107	C	0.596855	-0.000195	-0.387664
C108	C	1.096855	0.499805	0.112336
C109	C	0.673410	-0.000192	-0.354305
C110	C	1.173410	0.499808	0.145695
C111	C	0.748583	-0.000180	-0.407784
C112	C	1.248583	0.499820	0.092216
H113	H	0.669627	-0.000168	-0.592261
H114	H	1.169627	0.499832	-0.092261
H115	H	0.538805	-0.000188	-0.499193
H116	H	1.038805	0.499812	0.000807
H117	H	0.541207	-0.000204	-0.348076
H118	H	1.041207	0.499796	0.151924
H119	H	0.674433	-0.000198	-0.290021
H120	H	1.174433	0.499802	0.209979
H121	H	0.805255	-0.000178	-0.383089
H122	H	1.305255	0.499822	0.116911
H123	H	1.014692	-0.000237	-0.684946
H124	H	1.514692	0.499763	-0.184946
C125	C	0.297344	-0.000246	-0.044764
C126	C	0.797344	0.499754	0.455236
C127	C	0.263989	-0.000245	-0.121317
C128	C	0.763989	0.499755	0.378683
C129	C	0.317468	-0.000232	-0.196490
C130	C	0.817468	0.499768	0.303510
C131	C	0.404302	-0.000221	-0.195111
C132	C	0.904302	0.499779	0.304889
C133	C	0.437661	-0.000222	-0.118556
C134	C	0.937661	0.499778	0.381444
C135	C	0.384182	-0.000235	-0.043383
C136	C	0.884182	0.499765	0.456617
H137	H	0.199706	-0.000253	-0.122340
H138	H	0.699706	0.499747	0.377660
H139	H	0.292773	-0.000231	-0.253161
H140	H	0.792773	0.499769	0.246839
H141	H	0.443891	-0.000212	-0.250759
H142	H	0.943891	0.499788	0.249241
H143	H	0.501945	-0.000214	-0.117533
H144	H	1.001945	0.499786	0.382467
H145	H	0.408877	-0.000235	0.013288
H146	H	0.908877	0.499765	0.513288
H147	H	0.250242	-0.000189	0.225016
H148	H	0.750242	0.499811	0.725016
H149	H	0.764437	-0.000157	-0.651729
H150	H	1.264437	0.499843	-0.151729
H151	H	0.107022	-0.000213	0.222724
H152	H	0.607022	0.499787	0.722724
H153	H	0.140238	-0.000274	-0.027531
H154	H	0.640238	0.499726	0.472469
H155	H	0.537538	-0.000247	-0.021166
H156	H	1.037538	0.499753	0.478834
H157	H	0.825986	-0.468730	0.169964
H158	H	1.325986	0.031270	0.669964
H159	H	0.680758	-0.000202	-0.018878
H160	H	1.180758	0.499798	0.481122
H161	H	0.770800	-0.000157	-0.254428
H162	H	1.270800	0.499843	0.245572
H163	H	0.773086	-0.000173	-0.111206
H164	H	1.273086	0.499827	0.388794
