data_functionalizedCrystal
_audit_creation_method	'MofGen! by Chris Wilmer'
_symmetry_space_group_name_H-M	'P1'
_symmetry_Int_Tables_number	1
_symmetry_cell_setting	triclinic
loop_
_symmetry_equiv_pos_as_xyz
  x,y,z
_cell_length_a	19.805407
_cell_length_b	15.297327
_cell_length_c	19.805398
_cell_angle_alpha	80.352693
_cell_angle_beta	90.013121
_cell_angle_gamma	99.707092
loop_
_atom_site_label
_atom_site_type_symbol
_atom_site_fract_x
_atom_site_fract_y
_atom_site_fract_z
Zn1	Zn	0.988051	-0.359179	0.429335
Zn2	Zn	1.321384	-0.025846	0.762668
Zn3	Zn	1.654717	0.307488	1.096002
Zn4	Zn	0.968387	-0.510050	0.335727
Zn5	Zn	1.301720	-0.176717	0.669060
Zn6	Zn	1.635053	0.156616	1.002394
Zn7	Zn	0.874875	-0.359207	0.316163
Zn8	Zn	1.208208	-0.025873	0.649496
Zn9	Zn	1.541541	0.307460	0.982830
Zn10	Zn	0.855244	-0.510000	0.448867
Zn11	Zn	1.188577	-0.176666	0.782201
Zn12	Zn	1.521910	0.156667	1.115534
O13	O	0.921639	-0.434609	0.382523
O14	O	1.254972	-0.101276	0.715856
O15	O	1.588306	0.232058	1.049190
O16	O	1.080158	-0.379202	0.416931
O17	O	1.413491	-0.045869	0.750264
O18	O	1.746824	0.287465	1.083598
O19	O	0.955968	-0.490073	0.238420
O20	O	1.289301	-0.156740	0.571753
O21	O	1.622635	0.176593	0.905086
O22	O	0.906333	-0.232955	0.314814
O23	O	1.239666	0.100378	0.648147
O24	O	1.572999	0.433711	0.981480
O25	O	1.065710	-0.490047	0.348158
O26	O	1.399044	-0.156713	0.681491
O27	O	1.732377	0.176620	1.014824
O28	O	0.989483	-0.232935	0.397960
O29	O	1.322816	0.100398	0.731294
O30	O	1.656149	0.433732	1.064627
O31	O	0.887265	-0.379249	0.224046
O32	O	1.220599	-0.045916	0.557379
O33	O	1.553932	0.287418	0.890713
O34	O	0.777555	-0.379200	0.333753
O35	O	1.110889	-0.045867	0.667087
O36	O	1.444222	0.287467	1.000420
O37	O	0.872875	-0.489960	0.540989
O38	O	1.206208	-0.156627	0.874322
O39	O	1.539542	0.176706	1.207655
O40	O	0.763133	-0.489987	0.431251
O41	O	1.096466	-0.156654	0.764584
O42	O	1.429799	0.176680	1.097917
O43	O	0.970448	-0.379153	0.526638
O44	O	1.303781	-0.045820	0.859972
O45	O	1.637114	0.287514	1.193305
O46	O	0.936933	-0.636291	0.367097
O47	O	1.270266	-0.302958	0.700431
O48	O	1.603600	0.030375	1.033764
O49	O	0.853807	-0.636254	0.450221
O50	O	1.187141	-0.302921	0.783554
O51	O	1.520474	0.030412	1.116888
C52	C	0.745785	-0.434592	0.382499
C53	C	1.079119	-0.101258	0.715832
C54	C	1.412452	0.232075	1.049166
C55	C	0.670551	-0.434606	0.382508
C56	C	1.003885	-0.101273	0.715841
C57	C	1.337218	0.232061	1.049174
C58	C	0.627704	-0.492380	0.433216
C59	C	0.961037	-0.159046	0.766549
C60	C	1.294370	0.174287	1.099882
C61	C	0.557015	-0.492381	0.433225
C62	C	0.890348	-0.159048	0.766559
C63	C	1.223682	0.174285	1.099892
C64	C	0.529175	-0.434613	0.382524
C65	C	0.862508	-0.101280	0.715857
C66	C	1.195841	0.232054	1.049190
C67	C	0.572028	-0.376833	0.331813
C68	C	0.905362	-0.043500	0.665146
C69	C	1.238695	0.289834	0.998480
C70	C	0.642716	-0.376828	0.331807
C71	C	0.976049	-0.043494	0.665140
C72	C	1.309383	0.289839	0.998473
C73	C	0.286952	-0.376853	0.331838
C74	C	0.620286	-0.043520	0.665171
C75	C	0.953619	0.289814	0.998504
C76	C	0.216259	-0.376865	0.331847
C77	C	0.549592	-0.043531	0.665180
C78	C	0.882925	0.289802	0.998514
C79	C	0.201251	-0.492407	0.433257
C80	C	0.534585	-0.159073	0.766590
C81	C	0.867918	0.174260	1.099923
C82	C	0.271939	-0.492401	0.433250
C83	C	0.605273	-0.159068	0.766584
C84	C	0.938606	0.174265	1.099917
C85	C	0.314787	-0.434618	0.382542
C86	C	0.648120	-0.101285	0.715875
C87	C	0.981453	0.232048	1.049209
C88	C	0.391435	-0.434616	0.382533
C89	C	0.724769	-0.101283	0.715866
C90	C	1.058102	0.232051	1.049199
C91	C	0.452527	-0.434619	0.382529
C92	C	0.785860	-0.101286	0.715863
C93	C	1.119194	0.232047	1.049196
C94	C	0.891125	-0.669007	0.412916
C95	C	1.224458	-0.335674	0.746250
C96	C	1.557791	-0.002341	1.079583
C97	C	0.878132	-0.769284	0.425942
C98	C	1.211466	-0.435951	0.759275
C99	C	1.544799	-0.102617	1.092608
C100	C	1.014776	-1.051899	0.289662
C101	C	1.348109	-0.718566	0.622995
C102	C	1.681442	-0.385233	0.956329
C103	C	1.026982	-0.957684	0.277421
C104	C	1.360315	-0.624351	0.610754
C105	C	1.693649	-0.291018	0.944087
C106	C	0.989771	-0.910580	0.314550
C107	C	1.323104	-0.577246	0.647883
C108	C	1.656438	-0.243913	0.981217
C109	C	0.940351	-0.957699	0.363922
C110	C	1.273684	-0.624366	0.697256
C111	C	1.607017	-0.291032	1.030589
C112	C	0.928139	-1.051923	0.376161
C113	C	1.261473	-0.718590	0.709494
C114	C	1.594806	-0.385256	1.042828
C115	C	0.903135	-0.910604	0.401049
C116	C	1.236468	-0.577270	0.734382
C117	C	1.569801	-0.243937	1.067716
C118	C	0.853714	-0.957723	0.450421
C119	C	1.187048	-0.624390	0.783755
C120	C	1.520381	-0.291056	1.117088
C121	C	0.841505	-1.051938	0.462658
C122	C	1.174839	-0.718604	0.795991
C123	C	1.508172	-0.385271	1.129325
C124	C	0.878717	-1.099043	0.425529
C125	C	1.212050	-0.765709	0.758862
C126	C	1.545383	-0.432376	1.092195
C127	C	0.915346	-0.816379	0.388810
C128	C	1.248679	-0.483046	0.722144
C129	C	1.582013	-0.149713	1.055477
C130	C	0.828710	-0.816403	0.475309
C131	C	1.162043	-0.483070	0.808643
C132	C	1.495376	-0.149737	1.141976
C133	C	0.816503	-0.910618	0.487550
C134	C	1.149837	-0.577285	0.820884
C135	C	1.483170	-0.243952	1.154217
C136	C	1.098179	-0.434627	0.382548
C137	C	1.431513	-0.101294	0.715881
C138	C	1.764846	0.232040	1.049214
C139	C	1.173410	-0.434635	0.382558
C140	C	1.506744	-0.101301	0.715892
C141	C	1.840077	0.232032	1.049225
C142	C	0.921665	-0.434548	0.559058
C143	C	1.254998	-0.101215	0.892391
C144	C	1.588332	0.232119	1.225725
C145	C	0.921676	-0.434522	0.634287
C146	C	1.255009	-0.101189	0.967620
C147	C	1.588343	0.232145	1.300953
C148	C	0.952291	-0.199295	0.352026
C149	C	1.285624	0.134038	0.685359
C150	C	1.618958	0.467371	1.018692
C151	C	0.965353	-0.099019	0.339030
C152	C	1.298686	0.234315	0.672363
C153	C	1.632020	0.567648	1.005696
C154	C	0.921660	-0.434605	0.206667
C155	C	1.254994	-0.101271	0.540000
C156	C	1.588327	0.232062	0.873333
C157	C	0.921814	-0.434377	0.131405
C158	C	1.255147	-0.101043	0.464739
C159	C	1.588480	0.232290	0.798072
C160	C	0.957575	-0.492085	1.103541
C161	C	1.290908	-0.158751	1.436875
C162	C	1.624242	0.174582	1.770208
C163	C	0.957553	-0.492109	1.032856
C164	C	1.290886	-0.158776	1.366189
C165	C	1.624220	0.174557	1.699523
C166	C	0.921773	-0.434420	0.990035
C167	C	1.255107	-0.101087	1.323369
C168	C	1.588440	0.232246	1.656702
C169	C	0.886007	-0.376709	1.017904
C170	C	1.219341	-0.043376	1.351237
C171	C	1.552674	0.289957	1.684571
C172	C	0.886026	-0.376690	1.088589
C173	C	1.219359	-0.043357	1.421922
C174	C	1.552692	0.289976	1.755255
C175	C	0.885932	-0.376787	0.732841
C176	C	1.219265	-0.043453	1.066174
C177	C	1.552599	0.289880	1.399507
C178	C	0.885918	-0.376809	0.662151
C179	C	1.219251	-0.043475	0.995485
C180	C	1.552585	0.289858	1.328818
C181	C	0.957459	-0.492206	0.677108
C182	C	1.290793	-0.158872	1.010441
C183	C	1.624126	0.174461	1.343774
C184	C	0.957478	-0.492186	0.747792
C185	C	1.290811	-0.158853	1.081126
C186	C	1.624144	0.174480	1.414459
C187	C	0.921709	-0.434479	0.775656
C188	C	1.255042	-0.101146	1.108989
C189	C	1.588376	0.232187	1.442322
C190	C	0.921732	-0.434455	0.852301
C191	C	1.255066	-0.101121	1.185634
C192	C	1.588399	0.232212	1.518967
C193	C	0.921754	-0.434440	0.913391
C194	C	1.255087	-0.101106	1.246724
C195	C	1.588420	0.232227	1.580057
H196	H	0.166356	-0.539453	0.474548
H197	H	0.499690	-0.206120	0.807881
H198	H	0.833023	0.127214	1.141215
H199	H	0.856906	-0.329697	1.111274
H200	H	1.190239	0.003636	1.444607
H201	H	1.523572	0.336969	1.777941
H202	H	0.321830	-0.329809	0.290544
H203	H	0.655163	0.003524	0.623877
H204	H	0.988497	0.336857	0.957210
Cl205	Cl	0.181261	-0.304235	0.268104
Cl206	Cl	0.514595	0.029099	0.601437
Cl207	Cl	0.847928	0.362432	0.934770
Cl208	Cl	0.841038	-0.304173	0.964071
Cl209	Cl	1.174371	0.029160	1.297404
Cl210	Cl	1.507704	0.362493	1.630737
H211	H	0.522131	-0.539427	0.474516
H212	H	0.855464	-0.206094	0.807850
H213	H	1.188798	0.127239	1.141183
Cl214	Cl	1.002424	-0.564756	0.642076
Cl215	Cl	1.335758	-0.231422	0.975409
Cl216	Cl	1.669091	0.101911	1.308743
Cl217	Cl	0.696582	-0.304192	0.268058
Cl218	Cl	1.029916	0.029141	0.601391
Cl219	Cl	1.363249	0.362474	0.934725
Cl220	Cl	0.779374	-1.111172	0.524723
Cl221	Cl	1.112707	-0.777838	0.858056
Cl222	Cl	1.446041	-0.444505	1.191390
H223	H	0.955584	-0.778023	0.348611
H224	H	1.288918	-0.444690	0.681944
H225	H	1.622251	-0.111357	1.015278
Cl226	Cl	1.002514	-0.564658	0.997830
Cl227	Cl	1.335848	-0.231325	1.331163
Cl228	Cl	1.669181	0.102008	1.664496
Cl229	Cl	0.754377	-0.969865	0.549616
Cl230	Cl	1.087710	-0.636531	0.882949
Cl231	Cl	1.421043	-0.303198	1.216283
Cl232	Cl	0.840930	-0.304281	0.767865
Cl233	Cl	1.174263	0.029052	1.101198
Cl234	Cl	1.507597	0.362386	1.434531
H235	H	0.650365	-0.539424	0.474501
H236	H	0.983698	-0.206091	0.807834
H237	H	1.317032	0.127242	1.141168
H238	H	0.856780	-0.329829	0.627288
H239	H	1.190113	0.003505	0.960621
H240	H	1.523447	0.336838	1.293954
H241	H	0.549356	-0.329793	0.290533
H242	H	0.882689	0.003540	0.623866
H243	H	1.216022	0.336873	0.957200
Cl244	Cl	1.089114	-0.898455	0.215362
Cl245	Cl	1.422447	-0.565122	0.548696
Cl246	Cl	1.755781	-0.231789	0.882029
Cl247	Cl	0.306934	-0.565030	0.496990
Cl248	Cl	0.640267	-0.231697	0.830323
Cl249	Cl	0.973600	0.101637	1.163657
Cl250	Cl	1.005303	-0.792137	0.299346
Cl251	Cl	1.338636	-0.458803	0.632679
Cl252	Cl	1.671969	-0.125470	0.966012
Cl253	Cl	1.061547	-1.111120	0.242990
Cl254	Cl	1.394881	-0.777787	0.576323
Cl255	Cl	1.728214	-0.444453	0.909657
H256	H	0.868782	-1.175760	0.435494
H257	H	1.202116	-0.842427	0.768828
H258	H	1.535449	-0.509093	1.102161
Cl259	Cl	0.781923	-0.757193	0.521985
Cl260	Cl	1.115256	-0.423860	0.855318
Cl261	Cl	1.448589	-0.090526	1.188651
Cl262	Cl	1.002461	-0.564712	0.801620
Cl263	Cl	1.335794	-0.231378	1.134954
Cl264	Cl	1.669127	0.101955	1.468287
Cl265	Cl	1.002563	-0.564607	1.157366
Cl266	Cl	1.335896	-0.231274	1.490699
Cl267	Cl	1.669229	0.102059	1.824032
