data_functionalizedCrystal
_audit_creation_method	'MofGen! by Chris Wilmer'
_symmetry_space_group_name_H-M	'P1'
_symmetry_Int_Tables_number	1
_symmetry_cell_setting	triclinic
loop_
_symmetry_equiv_pos_as_xyz
  x,y,z
_cell_length_a	29.917948
_cell_length_b	29.917021
_cell_length_c	29.913391
_cell_angle_alpha	60.005297
_cell_angle_beta	60.010472
_cell_angle_gamma	59.993667
loop_
_atom_site_label
_atom_site_type_symbol
_atom_site_fract_x
_atom_site_fract_y
_atom_site_fract_z
O1	O	0.061938	-0.653075	0.546110
O2	O	0.561938	-0.153075	1.046110
O3	O	0.023328	-0.508466	0.440017
O4	O	0.523328	-0.008466	0.940017
O5	O	0.114898	-0.599963	0.439941
O6	O	0.614898	-0.099963	0.939941
O7	O	-0.029633	-0.561578	0.546186
O8	O	0.470367	-0.061578	1.046186
O9	O	0.145278	-0.569587	0.470242
O10	O	0.645278	-0.069587	0.970242
O11	O	0.053708	-0.478090	0.470318
O12	O	0.553708	0.021910	0.970318
O13	O	0.092318	-0.622699	0.576411
O14	O	0.592318	-0.122699	1.076411
Zn15	Zn	0.077836	-0.545572	0.528175
Zn16	Zn	0.577836	-0.045572	1.028175
Zn17	Zn	0.037809	-0.585593	0.488253
Zn18	Zn	0.537809	-0.085593	0.988253
O19	O	0.000747	-0.531202	0.576487
O20	O	0.500747	-0.031202	1.076487
N21	N	0.105154	-0.518262	0.555424
N22	N	0.605154	-0.018262	1.055424
N23	N	0.010496	-0.612908	0.461004
N24	N	0.510496	-0.112908	0.961004
C25	C	0.164136	-0.309209	0.614352
C26	C	0.664136	0.190791	1.114352
C27	C	0.164251	-0.459335	0.764424
C28	C	0.664251	0.040665	1.264424
C29	C	0.164150	-0.459313	0.614341
C30	C	0.664150	0.040687	1.114341
C31	C	0.314282	-0.459305	0.614278
C32	C	0.814282	0.040695	1.114278
C33	C	0.180666	-0.358742	0.630849
C34	C	0.680666	0.141258	1.130849
C35	C	0.180732	-0.442815	0.714891
C36	C	0.680732	0.057185	1.214891
C37	C	0.264747	-0.442797	0.630809
C38	C	0.764747	0.057203	1.130809
C39	C	0.180676	-0.442802	0.630843
C40	C	0.680676	0.057198	1.130843
C41	C	0.143097	-0.246161	0.593354
C42	C	0.643097	0.253839	1.093354
C43	C	0.143120	-0.480326	0.593337
C44	C	0.643120	0.019674	1.093337
C45	C	0.201706	-0.421790	0.651848
C46	C	0.701706	0.078210	1.151848
C47	C	0.405963	-0.443499	0.565998
C48	C	0.905963	0.056501	1.065998
C49	C	0.463273	-0.462598	0.546874
C50	C	0.963273	0.037402	1.046874
C51	C	0.463297	-0.555329	0.582235
C52	C	0.963297	-0.055329	1.082235
C53	C	0.405988	-0.536228	0.601360
C54	C	0.905988	-0.036228	1.101360
C55	C	0.156905	-0.217495	0.537012
C56	C	0.656905	0.282505	1.037012
C57	C	0.137776	-0.160180	0.517926
C58	C	0.637776	0.339820	1.017926
C59	C	0.091035	-0.160201	0.611524
C60	C	0.591035	0.339799	1.111524
C61	C	0.110164	-0.217516	0.630611
C62	C	0.610164	0.282484	1.130611
C63	C	0.086772	-0.466488	0.607209
C64	C	0.586772	0.033512	1.107209
C65	C	0.067659	-0.485590	0.588108
C66	C	0.567659	0.014410	1.088108
C67	C	0.161236	-0.532368	0.541277
C68	C	0.661236	-0.032368	1.041277
C69	C	0.180352	-0.513266	0.560371
C70	C	0.680352	-0.013266	1.060371
C71	C	0.086942	-0.466529	0.856152
C72	C	0.586942	0.033471	1.356152
C73	C	0.067877	-0.485647	0.913465
C74	C	0.567877	0.014353	1.413465
C75	C	0.161489	-0.532436	0.913415
C76	C	0.661489	-0.032436	1.413415
C77	C	0.180552	-0.513318	0.856101
C78	C	0.680552	-0.013318	1.356101
C79	C	0.143277	-0.480363	0.827471
C80	C	0.643277	0.019637	1.327471
C81	C	0.377323	-0.480313	0.593239
C82	C	0.877323	0.019687	1.093239
C83	C	-0.111377	-0.650681	0.422736
C84	C	0.388623	-0.150681	0.922736
C85	C	-0.027364	-0.650787	0.422929
C86	C	0.472636	-0.150787	0.922929
C87	C	-0.048335	-0.671770	0.401835
C88	C	0.451665	-0.171770	0.901835
C89	C	-0.064214	-0.763416	0.450041
C90	C	0.435786	-0.263416	0.950041
C91	C	-0.045160	-0.820731	0.469172
C92	C	0.454840	-0.320731	0.969172
C93	C	0.047573	-0.820841	0.433980
C94	C	0.547573	-0.320841	0.933980
C95	C	0.028517	-0.763527	0.414847
C96	C	0.528517	-0.263527	0.914847
C97	C	-0.140115	-0.664483	0.479060
C98	C	0.359885	-0.164483	0.979060
C99	C	-0.197425	-0.645309	0.498058
C100	C	0.302575	-0.145309	0.998058
C101	C	-0.197256	-0.598535	0.404405
C102	C	0.302744	-0.098535	0.904405
C103	C	-0.139946	-0.617709	0.385407
C104	C	0.360054	-0.117709	0.885407
C105	C	-0.041168	-0.594444	0.409067
C106	C	0.458832	-0.094444	0.909067
C107	C	-0.022104	-0.575374	0.428250
C108	C	0.477896	-0.075374	0.928250
C109	C	0.024568	-0.668986	0.475143
C110	C	0.524568	-0.168986	0.975143
C111	C	0.005504	-0.688059	0.455967
C112	C	0.505504	-0.188059	0.955967
C113	C	-0.041000	-0.594453	0.310105
C114	C	0.459000	-0.094453	0.810105
C115	C	-0.021803	-0.575386	0.252792
C116	C	0.478197	-0.075386	0.752792
C117	C	0.024951	-0.669004	0.252854
C118	C	0.524951	-0.169004	0.752854
C119	C	0.005755	-0.688070	0.310168
C120	C	0.505755	-0.188070	0.810168
C121	C	-0.027222	-0.650793	0.338792
C122	C	0.472778	-0.150793	0.838792
C123	C	-0.027377	-0.734817	0.422881
C124	C	0.472623	-0.234817	0.922881
N125	N	0.491125	-0.518235	0.555255
N126	N	0.991125	-0.018235	1.055255
O127	O	0.678406	-0.527360	0.420422
O128	O	1.178406	-0.027360	0.920422
O129	O	0.678588	-0.633782	0.564887
O130	O	1.178588	-0.133782	1.064887
O131	O	0.678516	-0.633539	0.473265
O132	O	1.178516	-0.133539	0.973265
O133	O	0.678478	-0.527602	0.512044
O134	O	1.178478	-0.027602	1.012044
O135	O	0.587469	-0.603251	0.503685
O136	O	1.087469	-0.103251	1.003685
O137	O	0.587541	-0.603493	0.595307
O138	O	1.087541	-0.103493	1.095307
O139	O	0.587359	-0.497071	0.450842
O140	O	1.087359	0.002929	0.950842
Zn141	Zn	0.572994	-0.545473	0.527905
Zn142	Zn	1.072994	-0.045473	1.027905
Zn143	Zn	0.692953	-0.585380	0.487825
Zn144	Zn	1.192953	-0.085380	0.987825
O145	O	0.587431	-0.497313	0.542465
O146	O	1.087431	0.002687	1.042465
N147	N	0.774821	-0.612618	0.460470
N148	N	1.274821	-0.112618	0.960470
N149	N	0.105125	-0.132348	0.555445
N150	N	0.605125	0.367652	1.055445
O151	O	-0.029633	0.055031	0.546198
O152	O	0.470367	0.555031	1.046198
O153	O	0.114837	0.055047	0.439777
O154	O	0.614837	0.555047	0.939777
O155	O	0.023189	0.055024	0.440050
O156	O	0.523189	0.555024	0.940050
O157	O	0.062016	0.055054	0.545925
O158	O	0.562016	0.555054	1.045925
O159	O	0.053572	-0.036031	0.470398
O160	O	0.553572	0.463969	0.970398
O161	O	0.145220	-0.036008	0.470125
O162	O	0.645220	0.463992	0.970125
O163	O	0.000750	-0.036024	0.576546
O164	O	0.500750	0.463976	1.076546
Zn165	Zn	0.077809	-0.050473	0.528154
Zn166	Zn	0.577809	0.449527	1.028154
Zn167	Zn	0.037778	0.069496	0.488169
Zn168	Zn	0.537778	0.569496	0.988169
O169	O	0.092399	-0.036001	0.576273
O170	O	0.592399	0.463999	1.076273
N171	N	0.010456	0.151371	0.460879
N172	N	0.510456	0.651371	0.960879
N173	N	0.105414	-0.518315	0.941279
N174	N	0.605414	-0.018315	1.441279
O175	O	0.096182	-0.653057	1.128644
O176	O	0.596182	-0.153057	1.628644
O177	O	-0.010215	-0.508539	1.128670
O178	O	0.489785	-0.008539	1.628670
O179	O	-0.009968	-0.600172	1.128636
O180	O	0.490032	-0.100172	1.628636
O181	O	0.095935	-0.561424	1.128678
O182	O	0.595935	-0.061424	1.628678
O183	O	0.020367	-0.569808	1.037586
O184	O	0.520367	-0.069808	1.537586
O185	O	0.020121	-0.478175	1.037620
O186	O	0.520121	0.021825	1.537620
O187	O	0.126517	-0.622693	1.037594
O188	O	0.626517	-0.122693	1.537594
Zn189	Zn	0.078135	-0.545613	1.023151
Zn190	Zn	0.578135	-0.045613	1.523151
Zn191	Zn	0.038167	-0.585619	1.143113
Zn192	Zn	0.538167	-0.085619	1.643113
O193	O	0.126270	-0.531061	1.037628
O194	O	0.626270	-0.031061	1.537628
N195	N	0.010887	-0.612923	1.224985
N196	N	0.510887	-0.112923	1.724985
C197	C	0.034899	-0.475056	0.440551
C198	C	0.534899	0.024944	0.940551
C199	C	0.148298	-0.588365	0.440456
C200	C	0.648298	-0.088365	0.940456
C201	C	0.080746	-0.656109	0.575876
C202	C	0.580746	-0.156109	1.075876
C203	C	-0.032653	-0.542801	0.575971
C204	C	0.467347	-0.042801	1.075971
C205	C	0.633086	-0.633292	0.598298
C206	C	1.133086	-0.133292	1.098298
C207	C	0.632998	-0.632993	0.484834
C208	C	1.132998	-0.132993	0.984834
C209	C	0.632857	-0.497559	0.417433
C210	C	1.132857	0.002441	0.917433
C211	C	0.632949	-0.497860	0.530895
C212	C	1.132949	0.002140	1.030895
C213	C	0.148191	0.009634	0.440259
C214	C	0.648191	0.509634	0.940259
C215	C	0.034733	0.009493	0.440634
C216	C	0.534733	0.509493	0.940634
C217	C	-0.032641	0.009502	0.576027
C218	C	0.467359	0.509502	1.076027
C219	C	0.080854	0.009529	0.575690
C220	C	0.580854	0.509529	1.075690
C221	C	-0.009699	-0.475150	1.083148
C222	C	0.490301	0.024850	1.583148
C223	C	-0.009388	-0.588620	1.083088
C224	C	0.490612	-0.088620	1.583088
C225	C	0.126001	-0.656082	1.083116
C226	C	0.626001	-0.156082	1.583116
C227	C	0.125697	-0.542605	1.083155
C228	C	0.625697	-0.042605	1.583155
H229	H	0.056584	-0.439691	0.832846
H230	H	0.556584	0.060309	1.332846
H231	H	0.016979	-0.733950	0.333522
H232	H	0.516979	-0.233950	0.833522
H233	H	0.189808	-0.596548	0.407092
H234	H	0.689808	-0.096548	0.907092
H235	H	0.159407	-0.697586	1.083101
H236	H	0.659407	-0.197586	1.583101
H237	H	0.026652	-0.433515	0.407232
H238	H	0.526652	0.066485	0.907232
O239	O	0.632863	-0.458088	0.540749
O240	O	1.132863	0.041912	1.040749
C241	C	0.585667	-0.411948	0.534721
C242	C	1.085667	0.088052	1.034721
H243	H	0.569919	-0.412387	0.507279
H244	H	1.069919	0.087613	1.007279
H245	H	0.596237	-0.373075	0.515405
H246	H	1.096237	0.126925	1.015405
H247	H	0.552682	-0.413070	0.576602
H248	H	1.052682	0.086930	1.076602
H249	H	0.088995	-0.697649	0.609197
H250	H	0.588995	-0.197649	1.109197
O251	O	-0.049114	-0.598495	1.083124
O252	O	0.450886	-0.098495	1.583124
C253	C	-0.095301	-0.592398	1.130257
C254	C	0.404699	-0.092398	1.630257
H255	H	-0.082224	-0.598350	1.163252
H256	H	0.417776	-0.098350	1.663252
H257	H	-0.114716	-0.624277	1.146040
H258	H	0.385284	-0.124277	1.646040
H259	H	-0.126310	-0.549639	1.119591
H260	H	0.373690	-0.049639	1.619591
O261	O	-0.225322	-0.658810	0.552779
O262	O	0.274678	-0.158810	1.052779
C263	C	-0.211366	-0.716212	0.576600
C264	C	0.288634	-0.216212	1.076600
H265	H	-0.195561	-0.734697	0.543960
H266	H	0.304439	-0.234697	1.043960
H267	H	-0.249097	-0.727132	0.610323
H268	H	0.250903	-0.227132	1.110323
H269	H	-0.178155	-0.733222	0.594781
H270	H	0.321845	-0.233222	1.094781
O271	O	0.165339	-0.532621	1.083138
O272	O	0.665339	-0.032621	1.583138
C273	C	0.145394	-0.478807	1.083165
C274	C	0.645394	0.021193	1.583165
H275	H	0.110246	-0.452899	1.065929
H276	H	0.610246	0.047101	1.565929
H277	H	0.179676	-0.460391	1.056736
H278	H	0.679676	0.039609	1.556736
H279	H	0.130132	-0.479616	1.126851
H280	H	0.630132	0.020384	1.626851
O281	O	-0.082128	-0.533087	0.615844
O282	O	0.417872	-0.033087	1.115844
C283	C	-0.074931	-0.539206	0.661961
C284	C	0.425069	-0.039206	1.161961
H285	H	-0.031264	-0.566593	0.661397
H286	H	0.468736	-0.066593	1.161397
H287	H	-0.104962	-0.558629	0.700849
H288	H	0.395038	-0.058629	1.200849
H289	H	-0.082749	-0.497344	0.660928
H290	H	0.417251	0.002656	1.160928
O291	O	0.197606	0.009968	0.400350
O292	O	0.697606	0.509968	0.900350
C293	C	0.231661	0.010070	0.420011
C294	C	0.731661	0.510070	0.920011
H295	H	0.205330	0.027129	0.455282
H296	H	0.705330	0.527129	0.955282
H297	H	0.257674	0.036719	0.385633
H298	H	0.757674	0.536719	0.885633
H299	H	0.259516	-0.033554	0.435018
H300	H	0.759516	0.466446	0.935018
O301	O	-0.082099	0.009474	0.615955
O302	O	0.417901	0.509474	1.115955
C303	C	-0.082066	0.009499	0.663060
C304	C	0.417934	0.509499	1.163060
H305	H	-0.038144	-0.007732	0.662401
H306	H	0.461856	0.492268	1.162401
H307	H	-0.106389	-0.016938	0.701173
H308	H	0.393611	0.483062	1.201173
H309	H	-0.101637	0.053185	0.663699
H310	H	0.398363	0.553185	1.163699
H311	H	0.089168	0.009538	0.608950
H312	H	0.589168	0.509538	1.108950
H313	H	0.633014	-0.666272	0.476534
H314	H	1.133014	-0.166272	0.976534
H315	H	0.633132	-0.666701	0.639790
H316	H	1.133132	-0.166701	1.139790
O317	O	0.013138	-0.472221	0.941260
O318	O	0.513138	0.027779	1.441260
C319	C	-0.010676	-0.491827	0.927275
C320	C	0.489324	0.008173	1.427275
H321	H	0.016476	-0.497437	0.885655
H322	H	0.516476	0.002563	1.385655
H323	H	-0.052841	-0.461107	0.925334
H324	H	0.447159	0.038893	1.425334
H325	H	-0.014921	-0.532788	0.959525
H326	H	0.485079	-0.032788	1.459525
O327	O	-0.049619	-0.425682	1.083228
O328	O	0.450381	0.074318	1.583228
C329	C	-0.095737	-0.432893	1.130386
C330	C	0.404263	0.067107	1.630386
H331	H	-0.095116	-0.476577	1.146097
H332	H	0.404884	0.023423	1.646097
H333	H	-0.134622	-0.402889	1.119778
H334	H	0.365378	0.097111	1.619778
H335	H	-0.094766	-0.425042	1.163415
H336	H	0.405234	0.074958	1.663415
H337	H	0.026418	0.009490	0.407371
H338	H	0.526418	0.509490	0.907371
O339	O	0.197772	-0.564459	0.941142
O340	O	0.697772	-0.064459	1.441142
C341	C	0.251584	-0.572559	0.903537
C342	C	0.751584	-0.072559	1.403537
H343	H	0.251453	-0.566142	0.862687
H344	H	0.751453	-0.066142	1.362687
H345	H	0.278812	-0.616030	0.920075
H346	H	0.778812	-0.116030	1.420075
H347	H	0.268002	-0.542057	0.897443
H348	H	0.768002	-0.042057	1.397443
O349	O	0.632812	-0.457763	0.367901
O350	O	1.132812	0.042237	0.867901
C351	C	0.632780	-0.477470	0.333838
C352	C	1.132780	0.022530	0.833838
H353	H	0.650063	-0.524104	0.348640
H354	H	1.150063	-0.024104	0.848640
H355	H	0.659165	-0.460657	0.289973
H356	H	1.159165	0.039343	0.789973
H357	H	0.589089	-0.463584	0.335356
H358	H	1.089089	0.036416	0.835356
H359	H	-0.067926	-0.564092	0.382165
H360	H	0.432074	-0.064092	0.882165
O361	O	0.235275	-0.526823	0.828218
O362	O	0.735275	-0.026823	1.328218
C363	C	0.249107	-0.555658	0.795051
C364	C	0.749107	-0.055658	1.295051
H365	H	0.216805	-0.575056	0.812333
H366	H	0.716805	-0.075056	1.312333
H367	H	0.290721	-0.589055	0.794380
H368	H	0.790721	-0.089055	1.294380
H369	H	0.250982	-0.526181	0.751622
H370	H	0.750982	-0.026181	1.251622
H371	H	0.056452	-0.439666	0.634048
H372	H	0.556452	0.060334	1.134048
H373	H	0.021776	-0.474310	0.599390
H374	H	0.521776	0.025690	1.099390
H375	H	0.191560	-0.559196	0.514439
H376	H	0.691560	-0.059196	1.014439
H377	H	0.226235	-0.524529	0.549071
H378	H	0.726235	-0.024529	1.049071
H379	H	0.093086	-0.844219	0.427442
H380	H	0.593086	-0.344219	0.927442
H381	H	0.486634	-0.600858	0.588843
H382	H	0.986634	-0.100858	1.088843
O383	O	0.378198	-0.572004	0.627732
O384	O	0.878198	-0.072004	1.127732
C385	C	0.392201	-0.598847	0.592655
C386	C	0.892201	-0.098847	1.092655
H387	H	0.407925	-0.572744	0.548289
H388	H	0.907925	-0.072744	1.048289
H389	H	0.354514	-0.605299	0.599435
H390	H	0.854514	-0.105299	1.099435
H391	H	0.425487	-0.640205	0.601878
H392	H	0.925487	-0.140205	1.101878
O393	O	0.491073	-0.426803	0.520327
O394	O	0.991073	0.073197	1.020327
C395	C	0.477024	-0.387888	0.473094
C396	C	0.977024	0.112112	0.973094
H397	H	0.461254	-0.405548	0.459936
H398	H	0.961254	0.094452	0.959936
H399	H	0.514699	-0.377395	0.438680
H400	H	1.014699	0.122605	0.938680
H401	H	0.443759	-0.349253	0.482474
H402	H	0.943759	0.150747	0.982474
O403	O	0.378031	-0.389196	0.558137
O404	O	0.878031	0.110804	1.058137
C405	C	0.321305	-0.380229	0.580868
C406	C	0.821305	0.119771	1.080868
H407	H	0.313478	-0.415259	0.583629
H408	H	0.813478	0.084741	1.083629
H409	H	0.299504	-0.339974	0.553772
H410	H	0.799504	0.160026	1.053772
H411	H	0.305065	-0.378202	0.623582
H412	H	0.805065	0.121798	1.123582
O413	O	0.188869	-0.245234	0.500746
O414	O	0.688869	0.254766	1.000746
C415	C	0.196960	-0.207640	0.446922
C416	C	0.696960	0.292360	0.946922
H417	H	0.162398	-0.166789	0.447043
H418	H	0.662398	0.333211	0.947043
H419	H	0.197242	-0.224196	0.419718
H420	H	0.697242	0.275804	0.919718
H421	H	0.237782	-0.201536	0.430483
H422	H	0.737782	0.298464	0.930483
H423	H	0.149018	-0.136838	0.472047
H424	H	0.649018	0.363162	0.972047
H425	H	0.098918	-0.240852	0.676488
H426	H	0.598918	0.259148	1.176488
O427	O	0.059035	-0.132457	0.647789
O428	O	0.559035	0.367543	1.147789
C429	C	0.050969	-0.170051	0.701612
C430	C	0.550969	0.329949	1.201612
H431	H	0.057377	-0.210907	0.701508
H432	H	0.557377	0.289093	1.201508
H433	H	0.007513	-0.153502	0.728842
H434	H	0.507513	0.346498	1.228842
H435	H	0.081493	-0.176143	0.718010
H436	H	0.581493	0.323857	1.218010
H437	H	-0.067855	-0.564093	0.333408
H438	H	0.432145	-0.064093	0.833408
O439	O	-0.035267	-0.520635	0.225015
O440	O	0.464733	-0.020635	0.725015
C441	C	-0.068479	-0.491827	0.262573
C442	C	0.431521	0.008173	0.762573
H443	H	-0.089371	-0.519127	0.303403
H444	H	0.410629	-0.019127	0.803403
H445	H	-0.100858	-0.453557	0.245945
H446	H	0.399142	0.046443	0.745945
H447	H	-0.042065	-0.479500	0.268739
H448	H	0.457935	0.020500	0.768739
H449	H	-0.033345	-0.529494	0.416965
H450	H	0.466655	-0.029494	0.916965
O451	O	0.056912	-0.705270	0.225113
O452	O	0.556912	-0.205270	0.725113
C453	C	0.027948	-0.738343	0.239042
C454	C	0.527948	-0.238343	0.739042
H455	H	-0.005466	-0.738855	0.280615
H456	H	0.494534	-0.238855	0.780615
H457	H	0.057326	-0.781830	0.241056
H458	H	0.557326	-0.281830	0.741056
H459	H	0.008565	-0.721089	0.206720
H460	H	0.508565	-0.221089	0.706720
O461	O	0.056553	-0.705246	0.507168
O462	O	0.556553	-0.205246	1.007168
C463	C	0.104644	-0.738421	0.478288
C464	C	0.604644	-0.238421	0.978288
H465	H	0.097017	-0.738973	0.444875
H466	H	0.597017	-0.238973	0.944875
H467	H	0.116671	-0.781884	0.507727
H468	H	0.616671	-0.281884	1.007727
H469	H	0.139131	-0.721234	0.458909
H470	H	0.639131	-0.221234	0.958909
O471	O	0.018834	-0.742783	0.469457
O472	O	0.518834	-0.242783	0.969457
C473	C	-0.029330	-0.756589	0.498190
C474	C	0.470670	-0.256589	0.998190
H475	H	-0.063778	-0.724277	0.517580
H476	H	0.436222	-0.224277	1.017580
H477	H	-0.021823	-0.798208	0.531583
H478	H	0.478177	-0.298208	1.031583
H479	H	-0.041336	-0.758445	0.468643
H480	H	0.458664	-0.258445	0.968643
O481	O	0.064374	-0.735829	0.388496
O482	O	0.564374	-0.235829	0.888496
C483	C	0.117794	-0.773463	0.385501
C484	C	0.617794	-0.273463	0.885501
H485	H	0.115556	-0.814299	0.419355
H486	H	0.615556	-0.314299	0.919355
H487	H	0.141299	-0.756936	0.390755
H488	H	0.641299	-0.256936	0.890755
H489	H	0.139725	-0.779586	0.343973
H490	H	0.639725	-0.279586	0.843973
H491	H	-0.075156	-0.844016	0.491279
H492	H	0.424844	-0.344016	0.991279
H493	H	-0.109727	-0.740044	0.456586
H494	H	0.390273	-0.240044	0.956586
H495	H	-0.116855	-0.691337	0.509456
H496	H	0.383145	-0.191337	1.009456
H497	H	-0.116547	-0.606465	0.339541
H498	H	0.383453	-0.106465	0.839541
O499	O	-0.224926	-0.566498	0.368072
O500	O	0.275074	-0.066498	0.868072
C501	C	-0.187272	-0.558449	0.314283
C502	C	0.312728	-0.058449	0.814283
H503	H	-0.146440	-0.564901	0.314469
H504	H	0.353560	-0.064901	0.814469
H505	H	-0.203767	-0.514981	0.287029
H506	H	0.296233	-0.014981	0.787029
H507	H	-0.181163	-0.588956	0.297854
H508	H	0.318837	-0.088956	0.797854
