data_functionalizedCrystal
_audit_creation_method	'MofGen! by Chris Wilmer'
_symmetry_space_group_name_H-M	'P1'
_symmetry_Int_Tables_number	1
_symmetry_cell_setting	triclinic
loop_
_symmetry_equiv_pos_as_xyz
  x,y,z
_cell_length_a	12.759401
_cell_length_b	12.759399
_cell_length_c	12.759393
_cell_angle_alpha	89.969094
_cell_angle_beta	89.979062
_cell_angle_gamma	90.016641
loop_
_atom_site_label
_atom_site_type_symbol
_atom_site_fract_x
_atom_site_fract_y
_atom_site_fract_z
Zn1	Zn	1.606263	-0.418173	-0.594017
Zn2	Zn	1.606153	-0.593888	-0.418336
Zn3	Zn	1.430562	-0.418229	-0.418352
Zn4	Zn	1.430553	-0.593815	-0.593973
O5	O	1.518383	-0.506026	-0.506170
O6	O	1.753270	-0.441489	-0.570724
O7	O	1.582818	-0.570641	-0.271317
O8	O	1.453919	-0.271200	-0.441680
O9	O	1.753189	-0.570587	-0.441652
O10	O	1.583006	-0.271159	-0.570740
O11	O	1.453812	-0.441584	-0.271329
O12	O	1.283540	-0.441513	-0.441637
O13	O	1.453903	-0.570461	-0.741000
O14	O	1.283533	-0.570516	-0.570665
O15	O	1.582997	-0.441418	-0.741032
O16	O	1.582809	-0.740900	-0.441609
O17	O	1.453796	-0.740846	-0.570649
C18	C	1.245415	-0.506013	-0.506149
C19	C	1.128639	-0.506033	-0.506165
C20	C	1.073801	-0.573307	-0.573244
C21	C	0.964077	-0.573311	-0.573265
C22	C	0.964038	-0.438764	-0.439118
C23	C	1.073760	-0.438756	-0.439104
C24	C	1.518318	-0.778994	-0.506146
C25	C	1.518387	-0.895770	-0.506171
C26	C	1.585641	-0.950625	-0.439056
C27	C	1.585708	-1.060349	-0.439091
C28	C	1.451259	-1.060353	-0.573359
C29	C	1.451198	-0.950631	-0.573328
C30	C	1.709717	-1.210225	-0.401704
C31	C	1.776961	-1.265084	-0.334573
C32	C	1.793124	-1.229543	-0.232062
C33	C	1.742027	-1.139145	-0.196662
C34	C	1.674775	-1.084292	-0.263788
C35	C	1.658632	-1.119831	-0.366313
C36	C	1.327188	-0.800754	-0.610705
C37	C	1.259930	-0.745899	-0.677826
C38	C	1.243756	-0.781437	-0.780338
C39	C	1.294835	-0.871838	-0.815734
C40	C	1.362093	-0.926694	-0.748613
C41	C	1.378268	-0.891147	-0.646102
C42	C	1.792416	-0.506040	-0.506191
C43	C	1.909193	-0.506046	-0.506200
C44	C	1.518461	-0.505925	-0.780203
C45	C	1.518495	-0.505882	-0.896980
C46	C	1.518476	-0.231993	-0.506217
C47	C	1.518516	-0.115216	-0.506237
C48	C	1.585719	-0.438679	-0.951860
C49	C	1.585737	-0.438633	-1.061584
C50	C	1.451303	-0.573004	-1.061538
C51	C	1.451281	-0.573044	-0.951816
C52	C	1.518365	-0.506051	-0.233202
C53	C	1.518535	-0.505798	-0.116426
H54	H	0.919343	-0.383991	-0.384518
O55	O	1.385843	-1.113531	-0.638535
C56	C	1.281127	-1.086844	-0.615459
H57	H	1.278927	-1.007214	-0.575047
H58	H	1.233978	-1.083066	-0.691242
H59	H	1.245800	-1.148671	-0.561432
H60	H	1.640476	-0.383908	-1.106263
O61	O	1.126875	-0.373369	-0.373839
C62	C	1.054912	-0.313979	-0.314664
H63	H	0.976686	-0.357011	-0.310956
H64	H	1.086581	-0.302669	-0.231904
H65	H	1.043280	-0.234234	-0.353279
H66	H	1.340359	-0.771804	-0.527233
O67	O	1.386172	-0.638359	-1.114856
C68	C	1.445976	-0.706181	-1.178339
H69	H	1.528712	-0.712689	-1.145284
H70	H	1.407947	-0.787031	-1.179564
H71	H	1.449625	-0.673668	-1.261502
H72	H	1.696573	-1.239164	-0.485179
H73	H	1.396532	-0.627768	-0.907131
H74	H	1.640446	-0.383989	-0.907216
H75	H	1.847877	-1.274216	-0.177404
O76	O	1.127157	-0.638761	-0.638242
C77	C	1.190601	-0.706529	-0.578307
H78	H	1.157495	-0.712926	-0.495553
H79	H	1.191845	-0.787425	-0.616170
H80	H	1.273763	-0.674035	-0.574734
O81	O	0.910970	-0.638762	-0.638457
C82	C	0.982940	-0.698116	-0.697659
H83	H	1.061129	-0.701695	-0.654605
H84	H	0.951225	-0.780909	-0.708726
H85	H	0.994662	-0.659740	-0.777518
H86	H	1.640352	-0.905960	-0.384374
O87	O	1.625093	-0.996576	-0.229251
C88	C	1.561495	-1.022013	-0.142497
H89	H	1.592152	-1.096529	-0.103885
H90	H	1.563421	-0.954962	-0.083514
H91	H	1.477489	-1.035114	-0.169939
O92	O	1.757872	-1.104746	-0.097060
C93	C	1.828165	-1.172559	-0.045396
H94	H	1.877722	-1.215761	-0.105881
H95	H	1.881460	-1.124975	0.008222
H96	H	1.782158	-1.231777	0.003249
H97	H	1.818565	-1.338685	-0.363405
H98	H	1.403688	-1.000300	-0.777443
H99	H	1.281666	-0.900774	-0.899208
H100	H	1.188985	-0.736765	-0.834986
H101	H	1.218345	-0.672285	-0.649000
