data_functionalizedCrystal
_audit_creation_method	'MofGen! by Chris Wilmer'
_symmetry_space_group_name_H-M	'P1'
_symmetry_Int_Tables_number	1
_symmetry_cell_setting	triclinic
loop_
_symmetry_equiv_pos_as_xyz
  x,y,z
_cell_length_a	14.044220
_cell_length_b	14.044220
_cell_length_c	12.503572
_cell_angle_alpha	93.843168
_cell_angle_beta	86.164750
_cell_angle_gamma	93.188878
loop_
_atom_site_label
_atom_site_type_symbol
_atom_site_fract_x
_atom_site_fract_y
_atom_site_fract_z
O1	O	-1.282200	-0.225116	0.089210
O2	O	-0.782200	0.274884	0.589210
O3	O	-1.005530	-0.216809	0.089237
O4	O	-0.505530	0.283191	0.589237
O5	O	-1.139712	-0.082627	0.089213
O6	O	-0.639712	0.417373	0.589213
O7	O	-1.148019	-0.359298	0.089234
O8	O	-0.648019	0.140702	0.589234
O9	O	-1.129622	-0.092737	-0.089427
O10	O	-0.629622	0.407263	0.410573
O11	O	-0.995440	-0.226918	-0.089403
O12	O	-0.495440	0.273082	0.410597
O13	O	-1.272110	-0.235226	-0.089430
O14	O	-0.772110	0.264774	0.410570
Cu15	Cu	-1.132854	-0.231995	-0.105728
Cu16	Cu	-0.632854	0.268005	0.394272
Cu17	Cu	-1.144786	-0.220040	0.105535
Cu18	Cu	-0.644786	0.279960	0.605535
O19	O	-1.137929	-0.369407	-0.089406
O20	O	-0.637929	0.130593	0.410594
C21	C	-0.964864	-0.218228	-0.000080
C22	C	-0.464864	0.281772	0.499920
C23	C	-0.858721	-0.207383	-0.000070
C24	C	-0.358721	0.292617	0.499930
C25	C	-1.131031	-0.052060	-0.000107
C26	C	-0.631031	0.447940	0.499893
C27	C	-1.120187	0.054082	-0.000107
C28	C	-0.620187	0.554082	0.499893
C29	C	-1.312777	-0.233807	-0.000111
C30	C	-0.812777	0.266193	0.499889
C31	C	-1.418920	-0.244651	-0.000114
C32	C	-0.918920	0.255349	0.499886
C33	C	-0.664382	-0.187558	-0.000092
C34	C	-0.164382	0.312442	0.499908
C35	C	-0.613253	-0.264472	-0.000091
C36	C	-0.113253	0.235528	0.499909
C37	C	-0.505116	-0.253441	-0.000104
C38	C	-0.005116	0.246559	0.499896
C39	C	-0.772529	-0.198587	-0.000080
C40	C	-0.272529	0.301413	0.499920
C41	C	-1.146609	-0.399974	-0.000084
C42	C	-0.646609	0.100026	0.499916
C43	C	-1.157454	-0.506117	-0.000077
C44	C	-0.657454	-0.006117	0.499923
N45	N	-1.124469	-0.240404	-0.254319
N46	N	-0.624469	0.259596	0.245681
C47	C	-1.100361	0.248421	-0.000090
C48	C	-0.600361	0.748421	0.499910
C49	C	-1.177275	0.299551	-0.000094
C50	C	-0.677275	0.799551	0.499906
C51	C	-1.166244	0.407687	-0.000084
C52	C	-0.666244	0.907687	0.499916
C53	C	-1.111391	0.140274	-0.000099
C54	C	-0.611391	0.640274	0.499901
C55	C	-1.112134	-0.252782	-0.473432
C56	C	-0.612134	0.247218	0.026568
C57	C	-1.165511	-0.199249	-0.526768
C58	C	-0.665511	0.300751	-0.026768
C59	C	-1.158648	-0.206136	-0.648690
C60	C	-0.658648	0.293864	-0.148690
C61	C	-1.118996	-0.245896	-0.351499
C62	C	-0.618996	0.254104	0.148501
N63	N	-1.153179	-0.211624	0.254126
N64	N	-0.653179	0.288376	0.754126
H65	H	-0.626945	-0.113431	-0.000104
H66	H	-0.126945	0.386569	0.499896
N67	N	-1.275473	0.249963	-0.000130
N68	N	-0.775473	0.749963	0.499870
H69	H	-1.325267	0.299154	-0.000137
H70	H	-0.825267	0.799154	0.499863
H71	H	-1.287135	0.212486	0.066085
H72	H	-0.787135	0.712486	0.566085
N73	N	-0.662849	-0.362666	-0.000057
N74	N	-0.162849	0.137334	0.499943
H75	H	-0.647517	-0.394768	0.066172
H76	H	-0.147517	0.105232	0.566172
H77	H	-0.640050	-0.402216	-0.066316
H78	H	-0.140050	0.097784	0.433684
N79	N	-1.002168	0.298004	-0.000079
N80	N	-0.502168	0.798004	0.499921
H81	H	-1.008108	0.369344	-0.000077
H82	H	-0.508108	0.869344	0.499923
H83	H	-0.962620	0.275132	-0.066305
H84	H	-0.462620	0.775132	0.433695
N85	N	-1.232874	-0.131687	-0.465975
N86	N	-0.732874	0.368313	0.034025
H87	H	-1.228295	-0.136280	-0.386233
H88	H	-0.728295	0.363720	0.113767
H89	H	-1.300467	-0.149461	-0.485564
H90	H	-0.800467	0.350539	0.014436
H91	H	-1.061285	-0.303783	-0.519330
H92	H	-0.561285	0.196217	-0.019330
