data_functionalizedCrystal
_audit_creation_method	'MofGen! by Chris Wilmer'
_symmetry_space_group_name_H-M	'P1'
_symmetry_Int_Tables_number	1
_symmetry_cell_setting	triclinic
loop_
_symmetry_equiv_pos_as_xyz
  x,y,z
_cell_length_a	27.732048
_cell_length_b	9.482900
_cell_length_c	10.967829
_cell_angle_alpha	87.494390
_cell_angle_beta	83.700828
_cell_angle_gamma	80.794297
loop_
_atom_site_label
_atom_site_type_symbol
_atom_site_fract_x
_atom_site_fract_y
_atom_site_fract_z
O1	O	0.651222	-0.151710	0.123768
O2	O	0.510907	-0.157185	0.145451
O3	O	0.581605	-0.110702	-0.039982
O4	O	0.580523	-0.198193	0.309201
O5	O	0.567248	0.121611	-0.002166
O6	O	0.496549	0.075128	0.183267
O7	O	0.636864	0.080603	0.161584
Cu8	Cu	0.565396	0.099078	0.175878
Cu9	Cu	0.582375	-0.175659	0.131157
O10	O	0.566166	0.034120	0.347016
C11	C	0.485711	-0.040920	0.163903
C12	C	0.432028	-0.040592	0.162529
N13	N	0.553457	0.292313	0.207332
N14	N	0.594318	-0.368893	0.099693
C15	C	0.095424	-0.065826	0.263489
C16	C	-0.106348	-0.064539	0.258404
O17	O	-0.135581	-0.087608	0.350725
N18	N	-0.127885	-0.036991	0.148448
C19	C	-0.098976	-0.009753	0.039756
O20	O	-0.121925	0.013722	-0.053883
C21	C	0.102795	-0.011031	0.044844
C22	C	0.124330	-0.038595	0.154805
C23	C	0.116959	-0.093386	0.373441
C24	C	0.167400	-0.093715	0.374710
C25	C	0.196305	-0.066484	0.266026
C26	C	0.174770	-0.038924	0.156074
C27	C	0.131702	0.016216	-0.063845
C28	C	0.182147	0.015898	-0.062562
C29	C	0.203682	-0.011666	0.047399
C30	C	0.254116	-0.012022	0.048659
N31	N	0.275653	-0.039570	0.158615
C32	C	0.246747	-0.066801	0.267299
C33	C	-0.204908	-0.009087	0.037093
C34	C	-0.255350	-0.008770	0.035820
C35	C	-0.262719	-0.063553	0.254469
C36	C	-0.212275	-0.063880	0.255738
C37	C	-0.183371	-0.036635	0.147049
C38	C	0.352676	-0.067491	0.269955
C39	C	0.403122	-0.067823	0.271213
C40	C	0.410486	-0.013033	0.052566
C41	C	0.360045	-0.012708	0.051306
C42	C	0.331141	-0.039935	0.160011
O43	O	0.283378	0.011051	-0.043610
O44	O	0.269704	-0.090242	0.360929
C45	C	0.044984	-0.065497	0.262220
C46	C	0.023449	-0.037936	0.152267
C47	C	0.052354	-0.010705	0.043584
C48	C	-0.026994	-0.037620	0.150995
C49	C	-0.055899	-0.064851	0.259679
C50	C	-0.034362	-0.092399	0.369635
C51	C	0.016078	-0.092728	0.370904
C52	C	0.030817	0.016843	-0.066373
C53	C	-0.019623	0.017168	-0.067633
C54	C	-0.048529	-0.010063	0.041051
C55	C	0.662060	-0.035665	0.143132
C56	C	0.715744	-0.036002	0.144504
C57	C	0.573263	0.016641	-0.065733
C58	C	0.569790	0.049973	-0.198805
C59	C	0.578850	0.381284	0.140428
C60	C	0.568921	0.542138	0.166607
C61	C	0.575680	-0.055513	-0.277716
C62	C	0.572091	-0.021066	-0.415252
C63	C	0.574508	-0.093226	0.372768
C64	C	0.577981	-0.126567	0.505837
H65	H	0.420653	-0.090271	0.360760
H66	H	0.562088	0.165786	-0.233067
H67	H	0.524363	0.335228	0.283988
Br68	Br	0.559252	0.171979	-0.472338
Br69	Br	0.313457	-0.104439	0.417484
Br70	Br	0.196617	-0.131119	0.523952
Br71	Br	0.102491	0.053596	-0.213092
Br72	Br	0.077739	-0.130348	0.520961
Br73	Br	0.588524	-0.248549	-0.220626
Br74	Br	0.590793	-0.319615	-0.437071
H75	H	0.623410	0.588202	0.023024
H76	H	-0.194746	-0.086317	0.345280
H77	H	0.342512	0.009716	-0.038236
H78	H	0.434030	0.009132	-0.035922
H79	H	-0.286263	-0.085726	0.342963
H80	H	-0.181378	0.013100	-0.051421
Br81	Br	0.221371	0.052882	-0.210077
Br82	Br	-0.284567	0.028597	-0.113426
H83	H	-0.057906	-0.114577	0.458128
Br84	Br	-0.048841	0.054556	-0.216884
Br85	Br	0.627212	0.309848	0.012353
H86	H	0.033607	-0.115171	0.460445
H87	H	0.539825	0.585046	0.243268
H88	H	0.054347	0.039021	-0.154878
