data_functionalizedCrystal
_audit_creation_method	'MofGen! by Chris Wilmer'
_symmetry_space_group_name_H-M	'P1'
_symmetry_Int_Tables_number	1
_symmetry_cell_setting	triclinic
loop_
_symmetry_equiv_pos_as_xyz
  x,y,z
_cell_length_a	27.731994
_cell_length_b	27.732048
_cell_length_c	26.210047
_cell_angle_alpha	89.999521
_cell_angle_beta	89.997128
_cell_angle_gamma	82.631595
loop_
_atom_site_label
_atom_site_type_symbol
_atom_site_fract_x
_atom_site_fract_y
_atom_site_fract_z
O1	O	0.640948	0.057385	-0.042362
O2	O	0.890948	0.307385	0.207638
O3	O	1.140948	0.557385	0.457638
O4	O	1.390948	0.807385	0.707638
O5	O	0.500151	0.066158	-0.042379
O6	O	0.750151	0.316158	0.207621
O7	O	1.000151	0.566158	0.457621
O8	O	1.250151	0.816158	0.707621
O9	O	0.574923	-0.008626	-0.042360
O10	O	0.824923	0.241374	0.207640
O11	O	1.074923	0.491374	0.457640
O12	O	1.324923	0.741374	0.707640
O13	O	0.566177	0.132169	-0.042381
O14	O	0.816177	0.382169	0.207619
O15	O	1.066177	0.632169	0.457619
O16	O	1.316177	0.882169	0.707619
O17	O	0.574908	-0.008614	0.042498
O18	O	0.824908	0.241386	0.292498
O19	O	1.074908	0.491386	0.542498
O20	O	1.324908	0.741386	0.792498
O21	O	0.500137	0.066170	0.042479
O22	O	0.750137	0.316170	0.292479
O23	O	1.000137	0.566170	0.542479
O24	O	1.250137	0.816170	0.792479
O25	O	0.640934	0.057397	0.042496
O26	O	0.890934	0.307397	0.292496
O27	O	1.140934	0.557397	0.542496
O28	O	1.390934	0.807397	0.792496
Cu29	Cu	0.570534	0.061784	0.050236
Cu30	Cu	0.820534	0.311784	0.300236
Cu31	Cu	1.070534	0.561784	0.550236
Cu32	Cu	1.320534	0.811784	0.800236
Cu33	Cu	0.570551	0.061771	-0.050119
Cu34	Cu	0.820551	0.311771	0.199881
Cu35	Cu	1.070551	0.561771	0.449881
Cu36	Cu	1.320551	0.811771	0.699881
O37	O	0.566162	0.132181	0.042477
O38	O	0.816162	0.382181	0.292477
O39	O	1.066162	0.632181	0.542477
O40	O	1.316162	0.882181	0.792477
C41	C	0.482137	0.065984	0.000047
C42	C	0.732137	0.315984	0.250047
C43	C	0.982137	0.565984	0.500047
C44	C	1.232137	0.815984	0.750047
C45	C	0.428480	0.065442	0.000041
C46	C	0.678480	0.315442	0.250041
C47	C	0.928480	0.565442	0.500041
C48	C	1.178480	0.815442	0.750041
C49	C	0.095754	0.062032	0.046317
C50	C	0.345754	0.312032	0.296317
C51	C	0.595754	0.562032	0.546317
C52	C	0.845754	0.812032	0.796317
C53	C	-0.105904	0.059971	0.046324
C54	C	0.144096	0.309971	0.296324
C55	C	0.394096	0.559971	0.546324
C56	C	0.644096	0.809971	0.796324
O57	O	-0.131984	0.059689	0.085663
O58	O	0.118016	0.309689	0.335663
O59	O	0.368016	0.559689	0.585663
O60	O	0.618016	0.809689	0.835663
N61	N	-0.131111	0.059708	0.000067
N62	N	0.118889	0.309708	0.250067
N63	N	0.368889	0.559708	0.500067
N64	N	0.618889	0.809708	0.750067
C65	C	-0.105900	0.059958	-0.046193
C66	C	0.144100	0.309958	0.203807
C67	C	0.394100	0.559958	0.453807
C68	C	0.644100	0.809958	0.703807
O69	O	-0.131967	0.059683	-0.085537
O70	O	0.118033	0.309683	0.164463
O71	O	0.368033	0.559683	0.414463
O72	O	0.618033	0.809683	0.664463
C73	C	0.095758	0.062016	-0.046199
C74	C	0.345758	0.312016	0.203801
C75	C	0.595758	0.562016	0.453801
C76	C	0.845758	0.812016	0.703801
C77	C	0.120961	0.062283	0.000060
C78	C	0.370961	0.312283	0.250060
C79	C	0.620961	0.562283	0.500060
C80	C	0.870961	0.812283	0.750060
C81	C	0.120958	0.062299	0.092573
C82	C	0.370958	0.312299	0.342573
C83	C	0.620958	0.562299	0.592573
C84	C	0.870958	0.812299	0.842573
C85	C	0.171369	0.062817	0.092571
C86	C	0.421369	0.312817	0.342571
C87	C	0.671369	0.562817	0.592571
C88	C	0.921369	0.812817	0.842571
C89	C	0.196576	0.063068	0.046313
C90	C	0.446576	0.313068	0.296313
C91	C	0.696576	0.563068	0.546313
C92	C	0.946576	0.813068	0.796313
C93	C	0.171372	0.062802	0.000058
C94	C	0.421372	0.312802	0.250058
C95	C	0.671372	0.562802	0.500058
C96	C	0.921372	0.812802	0.750058
C97	C	0.120968	0.062263	-0.092459
C98	C	0.370968	0.312263	0.157541
C99	C	0.620968	0.562263	0.407541
C100	C	0.870968	0.812263	0.657541
C101	C	0.171386	0.062776	-0.092457
C102	C	0.421386	0.312776	0.157543
C103	C	0.671386	0.562776	0.407543
C104	C	0.921386	0.812776	0.657543
C105	C	0.196590	0.063043	-0.046197
C106	C	0.446590	0.313043	0.203803
C107	C	0.696590	0.563043	0.453803
C108	C	0.946590	0.813043	0.703803
C109	C	0.246991	0.063571	-0.046201
C110	C	0.496991	0.313571	0.203799
C111	C	0.746991	0.563571	0.453799
C112	C	0.996991	0.813571	0.703799
N113	N	0.272198	0.063833	0.000055
N114	N	0.522198	0.313833	0.250055
N115	N	0.772198	0.563833	0.500055
N116	N	1.022198	0.813833	0.750055
C117	C	0.246991	0.063582	0.046312
C118	C	0.496991	0.313582	0.296312
C119	C	0.746991	0.563582	0.546312
C120	C	0.996991	0.813582	0.796312
C121	C	-0.211773	0.058878	-0.046187
C122	C	0.038227	0.308878	0.203813
C123	C	0.288227	0.558878	0.453813
C124	C	0.538227	0.808878	0.703813
C125	C	-0.262188	0.058365	-0.046186
C126	C	-0.012188	0.308365	0.203814
C127	C	0.237812	0.558365	0.453814
C128	C	0.487812	0.808365	0.703814
C129	C	-0.262188	0.058376	0.046331
C130	C	-0.012188	0.308376	0.296331
C131	C	0.237812	0.558376	0.546331
C132	C	0.487812	0.808376	0.796331
C133	C	-0.211774	0.058894	0.046329
C134	C	0.038226	0.308894	0.296329
C135	C	0.288226	0.558894	0.546329
C136	C	0.538226	0.808894	0.796329
C137	C	-0.186566	0.059141	0.000069
C138	C	0.063434	0.309141	0.250069
C139	C	0.313434	0.559141	0.500069
C140	C	0.563434	0.809141	0.750069
C141	C	0.352858	0.064670	0.046305
C142	C	0.602858	0.314670	0.296305
C143	C	0.852858	0.564670	0.546305
C144	C	1.102858	0.814670	0.796305
C145	C	0.403273	0.065190	0.046298
C146	C	0.653273	0.315190	0.296298
C147	C	0.903273	0.565190	0.546298
C148	C	1.153273	0.815190	0.796298
C149	C	0.403269	0.065176	-0.046218
C150	C	0.653269	0.315176	0.203782
C151	C	0.903269	0.565176	0.453782
C152	C	1.153269	0.815176	0.703782
C153	C	0.352858	0.064659	-0.046213
C154	C	0.602858	0.314659	0.203787
C155	C	0.852858	0.564659	0.453787
C156	C	1.102858	0.814659	0.703787
C157	C	0.327654	0.064404	0.000053
C158	C	0.577654	0.314404	0.250053
C159	C	0.827654	0.564404	0.500053
C160	C	1.077654	0.814404	0.750053
O161	O	0.273102	0.063848	-0.085520
O162	O	0.523102	0.313848	0.164480
O163	O	0.773102	0.563848	0.414480
O164	O	1.023102	0.813848	0.664480
O165	O	0.273067	0.063847	0.085650
O166	O	0.523067	0.313847	0.335650
O167	O	0.773067	0.563847	0.585650
O168	O	1.023067	0.813847	0.835650
C169	C	0.045343	0.061514	0.046319
C170	C	0.295343	0.311514	0.296319
C171	C	0.545343	0.561514	0.546319
C172	C	0.795343	0.811514	0.796319
C173	C	0.020139	0.061247	0.000064
C174	C	0.270139	0.311247	0.250064
C175	C	0.520139	0.561247	0.500064
C176	C	0.770139	0.811247	0.750064
C177	C	0.045346	0.061499	-0.046193
C178	C	0.295346	0.311499	0.203807
C179	C	0.545346	0.561499	0.453807
C180	C	0.795346	0.811499	0.703807
C181	C	-0.030275	0.060734	0.000065
C182	C	0.219725	0.310734	0.250065
C183	C	0.469725	0.560734	0.500065
C184	C	0.719725	0.810734	0.750065
C185	C	-0.055483	0.060482	0.046323
C186	C	0.194517	0.310482	0.296323
C187	C	0.444517	0.560482	0.546323
C188	C	0.694517	0.810482	0.796323
C189	C	-0.030276	0.060745	0.092579
C190	C	0.219724	0.310745	0.342579
C191	C	0.469724	0.560745	0.592579
C192	C	0.719724	0.810745	0.842579
C193	C	0.020135	0.061263	0.092577
C194	C	0.270135	0.311263	0.342577
C195	C	0.520135	0.561263	0.592577
C196	C	0.770135	0.811263	0.842577
C197	C	0.020139	0.061236	-0.092449
C198	C	0.270139	0.311236	0.157551
C199	C	0.520139	0.561236	0.407551
C200	C	0.770139	0.811236	0.657551
C201	C	-0.030272	0.060719	-0.092443
C202	C	0.219728	0.310719	0.157557
C203	C	0.469728	0.560719	0.407557
C204	C	0.719728	0.810719	0.657557
C205	C	-0.055479	0.060468	-0.046186
C206	C	0.194521	0.310468	0.203814
C207	C	0.444521	0.560468	0.453814
C208	C	0.694521	0.810468	0.703814
C209	C	0.574732	-0.026627	0.000070
C210	C	0.824732	0.223373	0.250070
C211	C	1.074732	0.473373	0.500070
C212	C	1.324732	0.723373	0.750070
C213	C	0.574179	-0.080282	0.000074
C214	C	0.824179	0.169718	0.250074
C215	C	1.074179	0.419718	0.500074
C216	C	1.324179	0.669718	0.750074
C217	C	0.614884	-0.419105	0.000053
C218	C	0.864884	-0.169105	0.250053
C219	C	1.114884	0.080895	0.500053
C220	C	1.364884	0.330895	0.750053
C221	C	0.612833	-0.620764	0.000046
C222	C	0.862833	-0.370764	0.250046
C223	C	1.112833	-0.120764	0.500046
C224	C	1.362833	0.129236	0.750046
O225	O	0.650055	-0.652027	0.000028
O226	O	0.900055	-0.402027	0.250028
O227	O	1.150055	-0.152027	0.500028
O228	O	1.400055	0.097973	0.750028
N229	N	0.568496	-0.639879	0.000041
N230	N	0.818496	-0.389879	0.250041
N231	N	1.068496	-0.139879	0.500041
N232	N	1.318496	0.110121	0.750041
C233	C	0.524670	-0.608576	0.000034
C234	C	0.774670	-0.358576	0.250034
C235	C	1.024670	-0.108576	0.500034
C236	C	1.274670	0.141424	0.750034
O237	O	0.486912	-0.629462	0.000024
O238	O	0.736912	-0.379462	0.250024
O239	O	0.986912	-0.129462	0.500024
O240	O	1.236912	0.120538	0.750024
C241	C	0.526721	-0.406918	0.000038
C242	C	0.776721	-0.156918	0.250038
C243	C	1.026721	0.093082	0.500038
C244	C	1.276721	0.343082	0.750038
C245	C	0.571061	-0.387805	0.000048
C246	C	0.821061	-0.137805	0.250048
C247	C	1.071061	0.112195	0.500048
C248	C	1.321061	0.362195	0.750048
C249	C	0.659220	-0.399992	0.000063
C250	C	0.909220	-0.149992	0.250063
C251	C	1.159220	0.100008	0.500063
C252	C	1.409220	0.350008	0.750063
C253	C	0.659732	-0.349580	0.000068
C254	C	0.909732	-0.099580	0.250068
C255	C	1.159732	0.150420	0.500068
C256	C	1.409732	0.400420	0.750068
C257	C	0.615908	-0.318281	0.000062
C258	C	0.865908	-0.068281	0.250062
C259	C	1.115908	0.181719	0.500062
C260	C	1.365908	0.431719	0.750062
C261	C	0.571573	-0.337394	0.000053
C262	C	0.821573	-0.087394	0.250053
C263	C	1.071573	0.162606	0.500053
C264	C	1.321573	0.412606	0.750053
C265	C	0.482895	-0.375615	0.000028
C266	C	0.732895	-0.125615	0.250028
C267	C	0.982895	0.124385	0.500028
C268	C	1.232895	0.374385	0.750028
C269	C	0.483412	-0.325198	0.000027
C270	C	0.733412	-0.075198	0.250027
C271	C	0.983412	0.174802	0.500027
C272	C	1.233412	0.424802	0.750027
C273	C	0.527751	-0.306086	0.000037
C274	C	0.777751	-0.056086	0.250037
C275	C	1.027751	0.193914	0.500037
C276	C	1.277751	0.443914	0.750037
C277	C	0.528262	-0.255683	0.000052
C278	C	0.778262	-0.005683	0.250052
C279	C	1.028262	0.244317	0.500052
C280	C	1.278262	0.494317	0.750052
N281	N	0.572598	-0.236567	0.000057
N282	N	0.822598	0.013433	0.250057
N283	N	1.072598	0.263433	0.500057
N284	N	1.322598	0.513433	0.750057
C285	C	0.616421	-0.267867	0.000062
C286	C	0.866421	-0.017867	0.250062
C287	C	1.116421	0.232133	0.500062
C288	C	1.366421	0.482133	0.750062
C289	C	0.523596	-0.714450	0.000033
C290	C	0.773596	-0.464450	0.250033
C291	C	1.023596	-0.214450	0.500033
C292	C	1.273596	0.035550	0.750033
C293	C	0.523083	-0.764864	0.000033
C294	C	0.773083	-0.514864	0.250033
C295	C	1.023083	-0.264864	0.500033
C296	C	1.273083	-0.014864	0.750033
C297	C	0.611246	-0.777049	0.000044
C298	C	0.861246	-0.527049	0.250044
C299	C	1.111246	-0.277049	0.500044
C300	C	1.361246	-0.027049	0.750044
C301	C	0.611759	-0.726633	0.000048
C302	C	0.861759	-0.476633	0.250048
C303	C	1.111759	-0.226633	0.500048
C304	C	1.361759	0.023367	0.750048
C305	C	0.567932	-0.695335	0.000038
C306	C	0.817932	-0.445335	0.250038
C307	C	1.067932	-0.195335	0.500038
C308	C	1.317932	0.054665	0.750038
C309	C	0.617494	-0.161998	0.000073
C310	C	0.867494	0.088002	0.250073
C311	C	1.117494	0.338002	0.500073
C312	C	1.367494	0.588002	0.750073
C313	C	0.618002	-0.111581	0.000079
C314	C	0.868002	0.138419	0.250079
C315	C	1.118002	0.388419	0.500079
C316	C	1.368002	0.638419	0.750079
C317	C	0.529839	-0.099401	0.000066
C318	C	0.779839	0.150599	0.250066
C319	C	1.029839	0.400599	0.500066
C320	C	1.279839	0.650599	0.750066
C321	C	0.529331	-0.149813	0.000062
C322	C	0.779331	0.100187	0.250062
C323	C	1.029331	0.350187	0.500062
C324	C	1.279331	0.600187	0.750062
C325	C	0.573162	-0.181111	0.000063
C326	C	0.823162	0.068889	0.250063
C327	C	1.073162	0.318889	0.500063
C328	C	1.323162	0.568889	0.750063
O329	O	0.491060	-0.224391	0.000064
O330	O	0.741060	0.025609	0.250064
O331	O	0.991060	0.275609	0.500064
O332	O	1.241060	0.525609	0.750064
O333	O	0.654174	-0.246971	0.000061
O334	O	0.904174	0.003029	0.250061
O335	O	1.154174	0.253029	0.500061
O336	O	1.404174	0.503029	0.750061
C337	C	0.614372	-0.469517	0.000049
C338	C	0.864372	-0.219517	0.250049
C339	C	1.114372	0.030483	0.500049
C340	C	1.364372	0.280483	0.750049
C341	C	0.570036	-0.488629	0.000039
C342	C	0.820036	-0.238629	0.250039
C343	C	1.070036	0.011371	0.500039
C344	C	1.320036	0.261371	0.750039
C345	C	0.526213	-0.457330	0.000034
C346	C	0.776213	-0.207330	0.250034
C347	C	1.026213	0.042670	0.500034
C348	C	1.276213	0.292670	0.750034
C349	C	0.569523	-0.539043	0.000039
C350	C	0.819523	-0.289043	0.250039
C351	C	1.069523	-0.039043	0.500039
C352	C	1.319523	0.210957	0.750039
C353	C	0.613346	-0.570343	0.000044
C354	C	0.863346	-0.320343	0.250044
C355	C	1.113346	-0.070343	0.500044
C356	C	1.363346	0.179657	0.750044
C357	C	0.657683	-0.551228	0.000049
C358	C	0.907683	-0.301228	0.250049
C359	C	1.157683	-0.051228	0.500049
C360	C	1.407683	0.198772	0.750049
C361	C	0.658195	-0.500816	0.000054
C362	C	0.908195	-0.250816	0.250054
C363	C	1.158195	-0.000816	0.500054
C364	C	1.408195	0.249184	0.750054
C365	C	0.481876	-0.476445	0.000029
C366	C	0.731876	-0.226445	0.250029
C367	C	0.981876	0.023555	0.500029
C368	C	1.231876	0.273555	0.750029
C369	C	0.481367	-0.526857	0.000025
C370	C	0.731367	-0.276857	0.250025
C371	C	0.981367	-0.026857	0.500025
C372	C	1.231367	0.223143	0.750025
C373	C	0.525191	-0.558157	0.000030
C374	C	0.775191	-0.308157	0.250030
C375	C	1.025191	-0.058157	0.500030
C376	C	1.275191	0.191843	0.750030
C377	C	0.658949	0.057571	0.000068
C378	C	0.908949	0.307571	0.250068
C379	C	1.158949	0.557571	0.500068
C380	C	1.408949	0.807571	0.750068
C381	C	0.712605	0.058114	0.000071
C382	C	0.962605	0.308114	0.250071
C383	C	1.212605	0.558114	0.500071
C384	C	1.462605	0.808114	0.750071
C385	C	0.566353	0.150182	0.000046
C386	C	0.816353	0.400182	0.250046
C387	C	1.066353	0.650182	0.500046
C388	C	1.316353	0.900182	0.750046
C389	C	0.566906	0.203837	0.000038
C390	C	0.816906	0.453837	0.250038
C391	C	1.066906	0.703837	0.500038
C392	C	1.316906	0.953837	0.750038
N393	N	0.570526	0.061794	0.120820
N394	N	0.820526	0.311794	0.370820
N395	N	1.070526	0.561794	0.620820
N396	N	1.320526	0.811794	0.870820
N397	N	0.570563	0.061757	-0.120703
N398	N	0.820563	0.311757	0.129297
N399	N	1.070563	0.561757	0.379297
N400	N	1.320563	0.811757	0.629297
C401	C	0.603656	0.028664	0.473342
C402	C	0.853656	0.278664	0.723342
C403	C	1.103656	0.528664	0.973342
C404	C	1.353656	0.778664	1.223342
C405	C	0.603667	0.028657	0.687001
C406	C	0.853667	0.278657	0.937001
C407	C	1.103667	0.528657	1.187001
C408	C	1.353667	0.778657	1.437001
O409	O	0.631818	0.000491	0.714630
O410	O	0.881818	0.250491	0.964630
O411	O	1.131818	0.500491	1.214630
O412	O	1.381818	0.750491	1.464630
N413	N	0.570554	0.061760	0.713714
N414	N	0.820554	0.311760	0.963714
N415	N	1.070554	0.561760	1.213714
N416	N	1.320554	0.811760	1.463714
C417	C	0.537433	0.094865	0.687008
C418	C	0.787433	0.344865	0.937008
C419	C	1.037433	0.594865	1.187008
C420	C	1.287433	0.844865	1.437008
O421	O	0.509265	0.123018	0.714632
O422	O	0.759265	0.373018	0.964632
O423	O	1.009265	0.623018	1.214632
O424	O	1.259265	0.873018	1.464632
C425	C	0.537421	0.094869	0.473351
C426	C	0.787421	0.344869	0.723351
C427	C	1.037421	0.594869	0.973351
C428	C	1.287421	0.844869	1.223351
C429	C	0.570539	0.061767	0.446641
C430	C	0.820539	0.311767	0.696641
C431	C	1.070539	0.561767	0.946641
C432	C	1.320539	0.811767	1.196641
C433	C	0.636772	-0.004436	0.446632
C434	C	0.886772	0.245564	0.696632
C435	C	1.136772	0.495564	0.946632
C436	C	1.386772	0.745564	1.196632
C437	C	0.636771	-0.004432	0.393221
C438	C	0.886771	0.245568	0.643221
C439	C	1.136771	0.495568	0.893221
C440	C	1.386771	0.745568	1.143221
C441	C	0.603654	0.028671	0.366519
C442	C	0.853654	0.278671	0.616519
C443	C	1.103654	0.528671	0.866519
C444	C	1.353654	0.778671	1.116519
C445	C	0.570538	0.061771	0.393229
C446	C	0.820538	0.311771	0.643229
C447	C	1.070538	0.561771	0.893229
C448	C	1.320538	0.811771	1.143229
C449	C	0.504298	0.127971	0.446647
C450	C	0.754298	0.377971	0.696647
C451	C	1.004298	0.627971	0.946647
C452	C	1.254298	0.877971	1.196647
C453	C	0.504297	0.127969	0.393229
C454	C	0.754297	0.377969	0.643229
C455	C	1.004297	0.627969	0.893229
C456	C	1.254297	0.877969	1.143229
C457	C	0.537416	0.094867	0.366519
C458	C	0.787416	0.344867	0.616519
C459	C	1.037416	0.594867	0.866519
C460	C	1.287416	0.844867	1.116519
C461	C	0.537420	0.094878	0.313117
C462	C	0.787420	0.344878	0.563117
C463	C	1.037420	0.594878	0.813117
C464	C	1.287420	0.844878	1.063117
N465	N	0.570533	0.061775	0.286404
N466	N	0.820533	0.311775	0.536404
N467	N	1.070533	0.561775	0.786404
N468	N	1.320533	0.811775	1.036404
C469	C	0.603650	0.028672	0.313105
C470	C	0.853650	0.278672	0.563105
C471	C	1.103650	0.528672	0.813105
C472	C	1.353650	0.778672	1.063105
C473	C	0.537443	0.094861	0.799182
C474	C	0.787443	0.344861	1.049182
C475	C	1.037443	0.594861	1.299182
C476	C	1.287443	0.844861	1.549182
C477	C	0.537446	0.094861	0.852596
C478	C	0.787446	0.344861	1.102596
C479	C	1.037446	0.594861	1.352596
C480	C	1.287446	0.844861	1.602596
C481	C	0.603680	0.028652	0.852585
C482	C	0.853680	0.278652	1.102585
C483	C	1.103680	0.528652	1.352585
C484	C	1.353680	0.778652	1.602585
C485	C	0.603678	0.028655	0.799169
C486	C	0.853678	0.278655	1.049169
C487	C	1.103678	0.528655	1.299169
C488	C	1.353678	0.778655	1.549169
C489	C	0.570556	0.061758	0.772469
C490	C	0.820556	0.311758	1.022469
C491	C	1.070556	0.561758	1.272469
C492	C	1.320556	0.811758	1.522469
C493	C	0.603645	0.028682	0.200937
C494	C	0.853645	0.278682	0.450937
C495	C	1.103645	0.528682	0.700937
C496	C	1.353645	0.778682	0.950937
C497	C	0.603643	0.028690	0.147521
C498	C	0.853643	0.278690	0.397521
C499	C	1.103643	0.528690	0.647521
C500	C	1.353643	0.778690	0.897521
C501	C	0.537408	0.094897	0.147537
C502	C	0.787408	0.344897	0.397537
C503	C	1.037408	0.594897	0.647537
C504	C	1.287408	0.844897	0.897537
C505	C	0.537412	0.094891	0.200949
C506	C	0.787412	0.344891	0.450949
C507	C	1.037412	0.594891	0.700949
C508	C	1.287412	0.844891	0.950949
C509	C	0.570533	0.061780	0.227647
C510	C	0.820533	0.311780	0.477647
C511	C	1.070533	0.561780	0.727647
C512	C	1.320533	0.811780	0.977647
O513	O	0.509281	0.123026	0.285454
O514	O	0.759281	0.373026	0.535454
O515	O	1.009281	0.623026	0.785454
O516	O	1.259281	0.873026	1.035454
O517	O	0.631807	0.000516	0.285473
O518	O	0.881807	0.250516	0.535473
O519	O	1.131807	0.500516	0.785473
O520	O	1.381807	0.750516	1.035473
C521	C	0.603658	0.028660	0.526754
C522	C	0.853658	0.278660	0.776754
C523	C	1.103658	0.528660	1.026754
C524	C	1.353658	0.778660	1.276754
C525	C	0.570542	0.061760	0.553464
C526	C	0.820542	0.311760	0.803464
C527	C	1.070542	0.561760	1.053464
C528	C	1.320542	0.811760	1.303464
C529	C	0.537425	0.094863	0.526762
C530	C	0.787425	0.344863	0.776762
C531	C	1.037425	0.594863	1.026762
C532	C	1.287425	0.844863	1.276762
C533	C	0.570546	0.061759	0.606878
C534	C	0.820546	0.311759	0.856878
C535	C	1.070546	0.561759	1.106878
C536	C	1.320546	0.811759	1.356878
C537	C	0.603663	0.028656	0.633579
C538	C	0.853663	0.278656	0.883579
C539	C	1.103663	0.528656	1.133579
C540	C	1.353663	0.778656	1.383579
C541	C	0.636776	-0.004447	0.606866
C542	C	0.886776	0.245553	0.856866
C543	C	1.136776	0.495553	1.106866
C544	C	1.386776	0.745553	1.356866
C545	C	0.636775	-0.004443	0.553455
C546	C	0.886775	0.245557	0.803455
C547	C	1.136775	0.495557	1.053455
C548	C	1.386775	0.745557	1.303455
C549	C	0.504311	0.127966	0.553475
C550	C	0.754311	0.377966	0.803475
C551	C	1.004311	0.627966	1.053475
C552	C	1.254311	0.877966	1.303475
C553	C	0.504316	0.127960	0.606887
C554	C	0.754316	0.377960	0.856887
C555	C	1.004316	0.627960	1.106887
C556	C	1.254316	0.877960	1.356887
C557	C	0.537433	0.094857	0.633588
C558	C	0.787433	0.344857	0.883588
C559	C	1.037433	0.594857	1.133588
C560	C	1.287433	0.844857	1.383588
H561	H	0.423791	0.065410	0.083970
H562	H	0.673791	0.315410	0.333970
H563	H	0.923791	0.565410	0.583970
H564	H	1.173791	0.815410	0.833970
N565	N	0.468589	0.163662	0.635692
N566	N	0.718589	0.413662	0.885692
N567	N	0.968589	0.663662	1.135692
N568	N	1.218589	0.913662	1.385692
H569	H	0.486891	0.184939	0.657856
H570	H	0.736891	0.434939	0.907856
H571	H	0.986891	0.684939	1.157856
H572	H	1.236891	0.934939	1.407856
H573	H	0.447619	0.184596	0.610634
H574	H	0.697619	0.434596	0.860634
H575	H	0.947619	0.684596	1.110634
H576	H	1.197619	0.934596	1.360634
N577	N	0.047316	0.061553	0.142471
N578	N	0.297316	0.311553	0.392471
N579	N	0.547316	0.561553	0.642471
N580	N	0.797316	0.811553	0.892471
H581	H	0.023691	0.061315	0.171771
H582	H	0.273691	0.311315	0.421771
H583	H	0.523691	0.561315	0.671771
H584	H	0.773691	0.811315	0.921771
H585	H	0.072379	0.031790	0.144495
H586	H	0.322379	0.281790	0.394495
H587	H	0.572379	0.531790	0.644495
H588	H	0.822379	0.781790	0.894495
H589	H	0.646929	-0.802541	0.000048
H590	H	0.896929	-0.552541	0.250048
H591	H	1.146929	-0.302541	0.500048
H592	H	1.396929	-0.052541	0.750048
H593	H	0.493226	-0.165375	0.000068
H594	H	0.743226	0.084625	0.250068
H595	H	0.993226	0.334625	0.500068
H596	H	1.243226	0.584625	0.750068
H597	H	0.694301	-0.485260	0.000062
H598	H	0.944301	-0.235260	0.250062
H599	H	1.194301	0.014740	0.500062
H600	H	1.444301	0.264740	0.750062
N601	N	0.482574	-0.065638	0.000074
N602	N	0.732574	0.184362	0.250074
N603	N	0.982574	0.434362	0.500074
N604	N	1.232574	0.684362	0.750074
H605	H	0.489631	-0.030802	0.000080
H606	H	0.739631	0.219198	0.250080
H607	H	0.989631	0.469198	0.500080
H608	H	1.239631	0.719198	0.750080
H609	H	0.463235	-0.071781	-0.031385
H610	H	0.713235	0.178219	0.218615
H611	H	0.963235	0.428219	0.468615
H612	H	1.213235	0.678219	0.718615
H613	H	0.510470	0.121819	0.777446
H614	H	0.760470	0.371819	1.027446
H615	H	1.010470	0.621819	1.277446
H616	H	1.260470	0.871819	1.527446
N617	N	0.704950	-0.584991	0.000059
N618	N	0.954950	-0.334991	0.250059
N619	N	1.204950	-0.084991	0.500059
N620	N	1.454950	0.165009	0.750059
H621	H	0.697892	-0.619827	0.000056
H622	H	0.947892	-0.369827	0.250056
H623	H	1.197892	-0.119827	0.500056
H624	H	1.447892	0.130173	0.750056
H625	H	0.724296	-0.578842	-0.031396
H626	H	0.974296	-0.328842	0.218604
H627	H	1.224296	-0.078842	0.468604
H628	H	1.474296	0.171158	0.718604
H629	H	0.477343	0.154922	0.531739
H630	H	0.727343	0.404922	0.781739
H631	H	0.977343	0.654922	1.031739
H632	H	1.227343	0.904922	1.281739
H633	H	0.191907	0.062977	-0.130128
H634	H	0.441907	0.312977	0.119872
H635	H	0.691907	0.562977	0.369872
H636	H	0.941907	0.812977	0.619872
N637	N	0.707558	-0.328977	0.000068
N638	N	0.957558	-0.078977	0.250068
N639	N	1.207558	0.171023	0.500068
N640	N	1.457558	0.421023	0.750068
H641	H	0.709742	-0.308333	-0.031390
H642	H	0.959742	-0.058333	0.218610
H643	H	1.209742	0.191667	0.468610
H644	H	1.459742	0.441667	0.718610
H645	H	0.709713	-0.308355	0.031545
H646	H	0.959713	-0.058355	0.281545
H647	H	1.209713	0.191645	0.531545
H648	H	1.459713	0.441645	0.781545
H649	H	0.486977	-0.780420	0.000034
H650	H	0.736977	-0.530420	0.250034
H651	H	0.986977	-0.280420	0.500034
H652	H	1.236977	-0.030420	0.750034
H653	H	0.100456	0.062044	-0.130128
H654	H	0.350456	0.312044	0.119872
H655	H	0.600456	0.562044	0.369872
H656	H	0.850456	0.812044	0.619872
N657	N	0.433538	-0.547462	0.000013
N658	N	0.683538	-0.297462	0.250013
N659	N	0.933538	-0.047462	0.500013
N660	N	1.183538	0.202538	0.750013
H661	H	0.431365	-0.568103	-0.031447
H662	H	0.681365	-0.318103	0.218553
H663	H	0.931365	-0.068103	0.468553
H664	H	1.181365	0.181897	0.718553
H665	H	0.431376	-0.568085	0.031488
H666	H	0.681376	-0.318085	0.281488
H667	H	0.931376	-0.068085	0.531488
H668	H	1.181376	0.181915	0.781488
N669	N	0.672488	-0.040138	0.364415
N670	N	0.922488	0.209862	0.614415
N671	N	1.172488	0.459862	0.864415
N672	N	1.422488	0.709862	1.114415
H673	H	0.706753	-0.034815	0.373710
H674	H	0.956753	0.215185	0.623710
H675	H	1.206753	0.465185	0.873710
H676	H	1.456753	0.715185	1.123710
H677	H	0.667134	-0.074389	0.373726
H678	H	0.917134	0.175611	0.623726
H679	H	1.167134	0.425611	0.873726
H680	H	1.417134	0.675611	1.123726
H681	H	0.332335	0.064449	-0.083880
H682	H	0.582335	0.314449	0.166120
H683	H	0.832335	0.564449	0.416120
H684	H	1.082335	0.814449	0.666120
N685	N	0.476323	-0.680695	0.000024
N686	N	0.726323	-0.430695	0.250024
N687	N	0.976323	-0.180695	0.500024
N688	N	1.226323	0.069305	0.750024
H689	H	0.448162	-0.700459	0.000022
H690	H	0.698162	-0.450459	0.250022
H691	H	0.948162	-0.200459	0.500022
H692	H	1.198162	0.049541	0.750022
H693	H	0.474608	-0.659512	0.031482
H694	H	0.724608	-0.409512	0.281482
H695	H	0.974608	-0.159512	0.531482
H696	H	1.224608	0.090488	0.781482
N697	N	-0.057470	0.060477	0.142471
N698	N	0.192530	0.310477	0.392471
N699	N	0.442530	0.560477	0.642471
N700	N	0.692530	0.810477	0.892471
H701	H	-0.093318	0.060783	0.135450
H702	H	0.156682	0.310783	0.385450
H703	H	0.406682	0.560783	0.635450
H704	H	0.656682	0.810783	0.885450
H705	H	-0.044973	0.030255	0.162368
H706	H	0.205027	0.280255	0.412368
H707	H	0.455027	0.530255	0.662368
H708	H	0.705027	0.780255	0.912368
N709	N	-0.057451	0.060426	-0.142342
N710	N	0.192549	0.310426	0.107658
N711	N	0.442549	0.560426	0.357658
N712	N	0.692549	0.810426	0.607658
H713	H	-0.093213	0.060058	-0.135327
H714	H	0.156787	0.310058	0.114673
H715	H	0.406787	0.560058	0.364673
H716	H	0.656787	0.810058	0.614673
H717	H	-0.052785	0.090489	-0.162550
H718	H	0.197215	0.340489	0.087450
H719	H	0.447215	0.590489	0.337450
H720	H	0.697215	0.840489	0.587450
H721	H	0.423802	0.065383	-0.083880
H722	H	0.673802	0.315383	0.166120
H723	H	0.923802	0.565383	0.416120
H724	H	1.173802	0.815383	0.666120
N725	N	0.639363	-0.007021	0.118719
N726	N	0.889363	0.242979	0.368719
N727	N	1.139363	0.492979	0.618719
N728	N	1.389363	0.742979	0.868719
H729	H	0.621051	-0.028292	0.096559
H730	H	0.871051	0.221708	0.346559
H731	H	1.121051	0.471708	0.596559
H732	H	1.371051	0.721708	0.846559
H733	H	0.660622	0.011331	0.096585
H734	H	0.910622	0.261331	0.346585
H735	H	1.160622	0.511331	0.596585
H736	H	1.410622	0.761331	0.846585
H737	H	-0.191254	0.059079	-0.083860
H738	H	0.058746	0.309079	0.166140
H739	H	0.308746	0.559079	0.416140
H740	H	0.558746	0.809079	0.666140
N741	N	0.664766	-0.195753	0.000078
N742	N	0.914766	0.054247	0.250078
N743	N	1.164766	0.304247	0.500078
N744	N	1.414766	0.554247	0.750078
H745	H	0.684134	-0.189640	-0.031374
H746	H	0.934134	0.060360	0.218626
H747	H	1.184134	0.310360	0.468626
H748	H	1.434134	0.560360	0.718626
H749	H	0.684078	-0.189625	0.031561
H750	H	0.934078	0.060375	0.281561
H751	H	1.184078	0.310375	0.531561
H752	H	1.434078	0.560375	0.781561
H753	H	0.477329	0.154926	0.468387
H754	H	0.727329	0.404926	0.718387
H755	H	0.977329	0.654926	0.968387
H756	H	1.227329	0.904926	1.218387
H757	H	0.446189	-0.450966	0.000023
H758	H	0.696189	-0.200966	0.250023
H759	H	0.946189	0.049034	0.500023
H760	H	1.196189	0.299034	0.750023
N761	N	-0.289378	0.058100	0.096225
N762	N	-0.039378	0.308100	0.346225
N763	N	0.210622	0.558100	0.596225
N764	N	0.460622	0.808100	0.846225
H765	H	-0.284215	0.087833	0.116750
H766	H	-0.034215	0.337833	0.366750
H767	H	0.215785	0.587833	0.616750
H768	H	0.465785	0.837833	0.866750
H769	H	-0.325215	0.058380	0.089165
H770	H	-0.075215	0.308380	0.339165
H771	H	0.174785	0.558380	0.589165
H772	H	0.424785	0.808380	0.839165
N773	N	0.325678	0.064395	0.096204
N774	N	0.575678	0.314395	0.346204
N775	N	0.825678	0.564395	0.596204
N776	N	1.075678	0.814395	0.846204
H777	H	0.349346	0.064313	0.125501
H778	H	0.599346	0.314313	0.375501
H779	H	0.849346	0.564313	0.625501
H780	H	1.099346	0.814313	0.875501
H781	H	0.300839	0.094325	0.098369
H782	H	0.550839	0.344325	0.348369
H783	H	0.800839	0.594325	0.598369
H784	H	1.050839	0.844325	0.848369
H785	H	0.040658	0.061439	-0.130118
H786	H	0.290658	0.311439	0.119882
H787	H	0.540658	0.561439	0.369882
H788	H	0.790658	0.811439	0.619882
H789	H	0.446789	-0.391167	0.000016
H790	H	0.696789	-0.141167	0.250016
H791	H	0.946789	0.108833	0.500016
H792	H	1.196789	0.358833	0.750016
H793	H	0.630615	0.001719	0.222669
H794	H	0.880615	0.251719	0.472669
H795	H	1.130615	0.501719	0.722669
H796	H	1.380615	0.751719	0.972669
H797	H	0.654110	-0.096023	0.000089
H798	H	0.904110	0.153977	0.250089
H799	H	1.154110	0.403977	0.500089
H800	H	1.404110	0.653977	0.750089
N801	N	0.436141	-0.291440	0.000015
N802	N	0.686141	-0.041440	0.250015
N803	N	0.936141	0.208560	0.500015
N804	N	1.186141	0.458560	0.750015
H805	H	0.407978	-0.311201	0.000008
H806	H	0.657978	-0.061201	0.250008
H807	H	0.907978	0.188799	0.500008
H808	H	1.157978	0.438799	0.750008
H809	H	0.434424	-0.270259	0.031474
H810	H	0.684424	-0.020259	0.281474
H811	H	0.934424	0.229741	0.531474
H812	H	1.184424	0.479741	0.781474
H813	H	0.100439	0.062093	0.130243
H814	H	0.350439	0.312093	0.380243
H815	H	0.600439	0.562093	0.630243
H816	H	0.850439	0.812093	0.880243
N817	N	0.672502	-0.040136	0.475426
N818	N	0.922502	0.209864	0.725426
N819	N	1.172502	0.459864	0.975426
N820	N	1.422502	0.709864	1.225426
H821	H	0.693479	-0.061098	0.450393
H822	H	0.943479	0.188902	0.700393
H823	H	1.193479	0.438902	0.950393
H824	H	1.443479	0.688902	1.200393
H825	H	0.693732	-0.021772	0.497578
H826	H	0.943732	0.228228	0.747578
H827	H	1.193732	0.478228	0.997578
H828	H	1.443732	0.728228	1.247578
N829	N	0.706490	-0.433746	0.000069
N830	N	0.956490	-0.183746	0.250069
N831	N	1.206490	0.066254	0.500069
N832	N	1.456490	0.316254	0.750069
H833	H	0.734650	-0.413981	0.000076
H834	H	0.984650	-0.163981	0.250076
H835	H	1.234650	0.086019	0.500076
H836	H	1.484650	0.336019	0.750076
H837	H	0.708193	-0.454926	0.031529
H838	H	0.958193	-0.204926	0.281529
H839	H	1.208193	0.045074	0.531529
H840	H	1.458193	0.295074	0.781529
N841	N	0.672498	-0.040150	0.635671
N842	N	0.922498	0.209850	0.885671
N843	N	1.172498	0.459850	1.135671
N844	N	1.422498	0.709850	1.385671
H845	H	0.667470	-0.035125	0.673561
H846	H	0.917470	0.214875	0.923561
H847	H	1.167470	0.464875	1.173561
H848	H	1.417470	0.714875	1.423561
H849	H	0.667172	-0.074404	0.626336
H850	H	0.917172	0.175596	0.876336
H851	H	1.167172	0.425596	1.126336
H852	H	1.417172	0.675596	1.376336
N853	N	0.639394	-0.007058	0.770371
N854	N	0.889394	0.242942	1.020371
N855	N	1.139394	0.492942	1.270371
N856	N	1.389394	0.742942	1.520371
H857	H	0.621081	-0.028333	0.748216
H858	H	0.871081	0.221667	0.998216
H859	H	1.121081	0.471667	1.248216
H860	H	1.371081	0.721667	1.498216
H861	H	0.660653	0.011288	0.748232
H862	H	0.910653	0.261288	0.998232
H863	H	1.160653	0.511288	1.248232
H864	H	1.410653	0.761288	1.498232
H865	H	0.647863	-0.711076	0.000056
H866	H	0.897863	-0.461076	0.250056
H867	H	1.147863	-0.211076	0.500056
H868	H	1.397863	0.038924	0.750056
N869	N	0.639401	-0.007053	0.881389
N870	N	0.889401	0.242947	1.131389
N871	N	1.139401	0.492947	1.381389
N872	N	1.389401	0.742947	1.631389
H873	H	0.634374	-0.002027	0.919278
H874	H	0.884374	0.247973	1.169278
H875	H	1.134374	0.497973	1.419278
H876	H	1.384374	0.747973	1.669278
H877	H	0.634071	-0.041305	0.872055
H878	H	0.884071	0.208695	1.122055
H879	H	1.134071	0.458695	1.372055
H880	H	1.384071	0.708695	1.622055
H881	H	-0.191256	0.059112	0.083998
H882	H	0.058744	0.309112	0.333998
H883	H	0.308744	0.559112	0.583998
H884	H	0.558744	0.809112	0.833998
N885	N	0.501728	0.130566	0.881402
N886	N	0.751728	0.380566	1.131402
N887	N	1.001728	0.630566	1.381402
N888	N	1.251728	0.880566	1.631402
H889	H	0.480748	0.151533	0.856377
H890	H	0.730748	0.401533	1.106377
H891	H	0.980748	0.651533	1.356377
H892	H	1.230748	0.901533	1.606377
H893	H	0.480500	0.112208	0.903564
H894	H	0.730500	0.362208	1.153564
H895	H	0.980500	0.612208	1.403564
H896	H	1.230500	0.862208	1.653564
N897	N	0.468570	0.163671	0.364431
N898	N	0.718570	0.413671	0.614431
N899	N	0.968570	0.663671	0.864431
N900	N	1.218570	0.913671	1.114431
H901	H	0.447592	0.184638	0.389460
H902	H	0.697592	0.434638	0.639460
H903	H	0.947592	0.684638	0.889460
H904	H	1.197592	0.934638	1.139460
H905	H	0.486910	0.184915	0.342268
H906	H	0.736910	0.434915	0.592268
H907	H	0.986910	0.684915	0.842268
H908	H	1.236910	0.934915	1.092268
N909	N	0.501700	0.130601	0.229761
N910	N	0.751700	0.380601	0.479761
N911	N	1.001700	0.630601	0.729761
N912	N	1.251700	0.880601	0.979761
H913	H	0.480723	0.151574	0.204739
H914	H	0.730723	0.401574	0.454739
H915	H	0.980723	0.651574	0.704739
H916	H	1.230723	0.901574	0.954739
H917	H	0.480468	0.112246	0.251923
H918	H	0.730468	0.362246	0.501923
H919	H	0.980468	0.612246	0.751923
H920	H	1.230468	0.862246	1.001923
H921	H	0.191886	0.063032	0.130240
H922	H	0.441886	0.313032	0.380240
H923	H	0.691886	0.563032	0.630240
H924	H	0.941886	0.813032	0.880240
N925	N	0.501687	0.130600	0.118735
N926	N	0.751687	0.380600	0.368735
N927	N	1.001687	0.630600	0.618735
N928	N	1.251687	0.880600	0.868735
H929	H	0.519995	0.151873	0.096570
H930	H	0.769995	0.401873	0.346570
H931	H	1.019995	0.651873	0.596570
H932	H	1.269995	0.901873	0.846570
H933	H	0.480436	0.112239	0.096606
H934	H	0.730436	0.362239	0.346606
H935	H	0.980436	0.612239	0.596606
H936	H	1.230436	0.862239	0.846606
N937	N	-0.289370	0.058084	-0.096079
N938	N	-0.039370	0.308084	0.153921
N939	N	0.210630	0.558084	0.403921
N940	N	0.460630	0.808084	0.653921
H941	H	-0.265747	0.058320	-0.125381
H942	H	-0.015747	0.308320	0.124619
H943	H	0.234253	0.558320	0.374619
H944	H	0.484253	0.808320	0.624619
H945	H	-0.306141	0.027892	-0.098090
H946	H	-0.056141	0.277892	0.151910
H947	H	0.193859	0.527892	0.401910
H948	H	0.443859	0.777892	0.651910
N949	N	0.672496	-0.040146	0.524650
N950	N	0.922496	0.209854	0.774650
N951	N	1.172496	0.459854	1.024650
N952	N	1.422496	0.709854	1.274650
H953	H	0.693472	-0.061115	0.549677
H954	H	0.943472	0.188885	0.799677
H955	H	1.193472	0.438885	1.049677
H956	H	1.443472	0.688885	1.299677
H957	H	0.654153	-0.061388	0.502490
H958	H	0.904153	0.188612	0.752490
H959	H	1.154153	0.438612	1.002490
H960	H	1.404153	0.688612	1.252490
