data_functionalizedCrystal
_audit_creation_method	'MofGen! by Chris Wilmer'
_symmetry_space_group_name_H-M	'P1'
_symmetry_Int_Tables_number	1
_symmetry_cell_setting	triclinic
loop_
_symmetry_equiv_pos_as_xyz
  x,y,z
_cell_length_a	12.645330
_cell_length_b	19.077105
_cell_length_c	19.077271
_cell_angle_alpha	89.912562
_cell_angle_beta	87.708706
_cell_angle_gamma	87.714233
loop_
_atom_site_label
_atom_site_type_symbol
_atom_site_fract_x
_atom_site_fract_y
_atom_site_fract_z
Zn1	Zn	-0.513030	1.058228	0.440441
Zn2	Zn	-0.013030	1.558228	0.940441
Zn3	Zn	-0.683435	1.062902	0.322944
Zn4	Zn	-0.183435	1.562902	0.822944
Zn5	Zn	-0.498782	0.945467	0.318234
Zn6	Zn	0.001218	1.445467	0.818234
Zn7	Zn	-0.682840	0.940703	0.435695
Zn8	Zn	-0.182840	1.440703	0.935695
O9	O	-0.594522	1.001825	0.379329
O10	O	-0.094522	1.501825	0.879329
O11	O	-0.541847	1.157179	0.428811
O12	O	-0.041847	1.657179	0.928811
O13	O	-0.653227	1.051275	0.223988
O14	O	-0.153227	1.551275	0.723988
O15	O	-0.352328	0.960462	0.334460
O16	O	0.147672	1.460462	0.834460
O17	O	-0.667043	1.160614	0.342487
O18	O	-0.167043	1.660614	0.842487
O19	O	-0.362796	1.043307	0.424245
O20	O	0.137204	1.543307	0.924245
O21	O	-0.517563	0.964995	0.220528
O22	O	-0.017563	1.464995	0.720528
O23	O	-0.516985	0.846504	0.329859
O24	O	-0.016985	1.346504	0.829859
O25	O	-0.666028	0.952343	0.534656
O26	O	-0.166028	1.452343	1.034656
O27	O	-0.652211	0.843004	0.416157
O28	O	-0.152211	1.343004	0.916157
O29	O	-0.541269	1.038688	0.538142
O30	O	-0.041269	1.538688	1.038142
O31	O	-0.831700	1.046655	0.337885
O32	O	-0.331700	1.546655	0.837885
O33	O	-0.831263	0.956876	0.420724
O34	O	-0.331263	1.456876	0.920724
C35	C	-0.582988	0.819257	0.371983
C36	C	-0.082988	1.319257	0.871983
C37	C	-0.578081	0.741153	0.368857
C38	C	-0.078081	1.241153	0.868857
C39	C	-0.646278	0.702659	0.412248
C40	C	-0.146278	1.202659	0.912248
C41	C	-0.641653	0.629272	0.409314
C42	C	-0.141653	1.129272	0.909314
C43	C	-0.568835	0.594381	0.362985
C44	C	-0.068835	1.094381	0.862985
C45	C	-0.500630	0.632880	0.319592
C46	C	-0.000630	1.132880	0.819592
C47	C	-0.505251	0.706266	0.322529
C48	C	-0.005251	1.206266	0.822529
C49	C	-0.547451	0.375094	0.349391
C50	C	-0.047451	0.875094	0.849391
C51	C	-0.542838	0.301703	0.346455
C52	C	-0.042838	0.801703	0.846455
C53	C	-0.683860	0.298100	0.436179
C54	C	-0.183860	0.798100	0.936179
C55	C	-0.688479	0.371487	0.439110
C56	C	-0.188479	0.871487	0.939110
C57	C	-0.620270	0.409980	0.395719
C58	C	-0.120270	0.909980	0.895719
N59	N	-0.564108	0.519367	0.359983
N60	N	-0.064108	1.019367	0.859983
N61	N	-0.624992	0.484992	0.398725
N62	N	-0.124992	0.984992	0.898725
C63	C	-0.869948	1.001774	0.379317
C64	C	-0.369948	1.501774	0.879317
C65	C	-0.987781	1.001816	0.379338
C66	C	-0.487781	1.501816	0.879338
C67	C	-1.155138	0.945553	0.431628
C68	C	-0.655138	1.445553	0.931628
C69	C	-1.032551	0.945283	0.431441
C70	C	-0.532551	1.445283	0.931441
C71	C	-1.026777	0.984764	0.304480
C72	C	-0.526777	1.484764	0.804480
C73	C	-1.149374	0.984420	0.304797
C74	C	-0.649374	1.484420	0.804797
C75	C	-1.160676	1.075486	0.401318
C76	C	-0.660676	1.575486	0.901318
C77	C	-1.038135	1.074965	0.402919
C78	C	-0.538135	1.574965	0.902919
C79	C	-0.318022	1.001895	0.379357
C80	C	0.181978	1.501895	0.879357
C81	C	-0.200195	1.001924	0.379369
C82	C	0.299805	1.501924	0.879369
C83	C	-0.605171	0.994462	0.562608
C84	C	-0.105171	1.494462	1.062608
C85	C	-0.609710	0.991325	0.640711
C86	C	-0.109710	1.491325	1.140711
C87	C	-0.606101	1.185106	0.386704
C88	C	-0.106101	1.685106	0.886704
C89	C	-0.611035	1.263209	0.389847
C90	C	-0.111035	1.763209	0.889847
C91	C	-0.546890	1.034804	0.679220
C92	C	-0.046890	1.534804	1.179220
C93	C	-0.551149	1.031847	0.752605
C94	C	-0.051149	1.531847	1.252605
C95	C	-0.618235	0.985415	0.787480
C96	C	-0.118235	1.485415	1.287480
C97	C	-0.681057	0.941931	0.748966
C98	C	-0.181057	1.441931	1.248966
C99	C	-0.676791	0.944885	0.675582
C100	C	-0.176791	1.444885	1.175582
C101	C	-0.637953	0.971758	1.006761
C102	C	-0.137953	1.471758	1.506761
C103	C	-0.642216	0.968809	1.080150
C104	C	-0.142216	1.468809	1.580150
C105	C	-0.512306	1.058724	1.083784
C106	C	-0.012306	1.558724	1.583784
C107	C	-0.508051	1.061677	1.010399
C108	C	-0.008051	1.561677	1.510399
C109	C	-0.570869	1.018190	0.971891
C110	C	-0.070869	1.518190	1.471891
N111	N	-0.622593	0.982393	0.862492
N112	N	-0.122593	1.482393	1.362492
N113	N	-0.566505	1.021209	0.896880
N114	N	-0.066505	1.521209	1.396880
C115	C	-0.583936	1.009153	1.196762
C116	C	-0.083936	1.509153	1.696762
C117	C	-0.579396	1.012288	1.118659
C118	C	-0.079396	1.512288	1.618659
H119	H	-0.697188	0.597933	0.444648
H120	H	-0.197188	1.097933	0.944648
F121	F	-0.743650	0.898607	0.634598
F122	F	-0.243650	1.398607	1.134598
H123	H	-0.999106	0.890688	0.416665
H124	H	-0.499106	1.390688	0.916665
F125	F	-1.198876	1.130336	0.351624
F126	F	-0.698876	1.630336	0.851624
F127	F	-0.981089	0.915347	0.280278
F128	F	-0.481089	1.415347	0.780278
F129	F	-1.181171	0.914250	0.280947
F130	F	-0.681171	1.414250	0.780947
H131	H	-0.747777	0.399891	0.476835
H132	H	-0.247777	0.899891	0.976835
F133	F	-0.998369	0.958773	0.503871
F134	F	-0.498369	1.458773	1.003871
F135	F	-0.423125	0.595744	0.270288
F136	F	0.076875	1.095744	0.770288
H137	H	-1.188558	0.955752	0.487216
H138	H	-0.688558	1.455752	0.987216
F139	F	-0.723787	0.739786	0.461555
F140	F	-0.223787	1.239786	0.961555
F141	F	-0.713617	0.919384	1.117265
F142	F	-0.213617	1.419384	1.617265
F143	F	-0.475493	1.084227	0.642110
F144	F	0.024507	1.584227	1.142110
F145	F	-1.190084	0.874635	0.412553
F146	F	-0.690084	1.374635	0.912553
H147	H	-0.453426	1.099489	0.982008
H148	H	0.046574	1.599489	1.482008
H149	H	-0.689120	0.936358	0.975416
H150	H	-0.189120	1.436358	1.475416
F151	F	-0.756449	0.257128	0.482354
F152	F	-0.256449	0.757128	0.982354
H153	H	-0.461162	1.094127	1.115145
H154	H	0.038838	1.594127	1.615145
H155	H	-1.178956	1.023859	0.264372
H156	H	-0.678956	1.523859	0.764372
F157	F	-0.752451	0.892511	0.786084
F158	F	-0.252451	1.392511	1.286084
H159	H	-0.483528	0.273297	0.308732
H160	H	0.016472	0.773297	0.808732
F161	F	-0.474854	0.416052	0.303212
F162	F	0.025146	0.916052	0.803212
F163	F	-0.988628	1.036900	0.252023
F164	F	-0.488628	1.536900	0.752023
H165	H	-0.449711	0.737607	0.287199
H166	H	0.050289	1.237607	0.787199
H167	H	-1.195781	1.091627	0.455134
H168	H	-0.695781	1.591627	0.955134
F169	F	-1.005451	1.091846	0.474947
F170	F	-0.505451	1.591846	0.974947
F171	F	-0.998756	1.132441	0.357106
F172	F	-0.498756	1.632441	0.857106
H173	H	-0.499997	1.067254	0.783956
H174	H	0.000003	1.567254	1.283956
