data_functionalizedCrystal
_audit_creation_method	'MofGen! by Chris Wilmer'
_symmetry_space_group_name_H-M	'P1'
_symmetry_Int_Tables_number	1
_symmetry_cell_setting	triclinic
loop_
_symmetry_equiv_pos_as_xyz
  x,y,z
_cell_length_a	11.792241
_cell_length_b	14.750779
_cell_length_c	15.538191
_cell_angle_alpha	97.569385
_cell_angle_beta	114.267245
_cell_angle_gamma	102.734008
loop_
_atom_site_label
_atom_site_type_symbol
_atom_site_fract_x
_atom_site_fract_y
_atom_site_fract_z
O1	O	1.419926	-0.079727	-0.149087
O2	O	1.084007	-0.079748	-0.162371
O3	O	1.317355	-0.079738	-0.018933
O4	O	1.186579	-0.079737	-0.292524
O5	O	1.383317	0.079916	0.021610
O6	O	1.149970	0.079905	-0.121827
O7	O	1.485889	0.079927	-0.108543
Zn8	Zn	1.328402	0.105264	-0.108748
Zn9	Zn	1.241494	-0.105086	-0.162166
O10	O	1.252542	0.079916	-0.251980
C11	C	1.075046	0.000075	-0.141266
C12	C	0.950076	0.000067	-0.138771
N13	N	1.387724	0.248823	-0.072291
N14	N	1.182185	-0.248644	-0.198615
C15	C	0.721301	0.000095	-0.134173
C16	C	0.848610	0.000079	-0.136728
C17	C	1.494849	0.000101	-0.129649
C18	C	1.619817	0.000103	-0.132145
C19	C	1.364017	0.000087	0.036364
C20	C	1.404770	0.000080	0.140727
C21	C	1.016526	0.600624	-0.300392
C22	C	1.058100	0.701125	-0.274852
C23	C	1.264741	0.701097	-0.147885
C24	C	1.223182	0.600594	-0.173412
C25	C	1.099074	0.550365	-0.249667
C26	C	1.305730	0.550335	-0.122687
C27	C	1.264176	0.449841	-0.148215
C28	C	1.140074	0.399606	-0.224468
C29	C	1.057520	0.449871	-0.275195
C30	C	1.429841	0.600566	-0.046437
C31	C	1.512389	0.550307	0.004289
C32	C	1.470832	0.449811	-0.021235
C33	C	1.346730	0.399575	-0.097488
C34	C	1.553386	0.399545	0.029492
C35	C	1.511832	0.299051	0.003964
C36	C	1.305176	0.299081	-0.123016
C37	C	1.205878	0.000090	-0.307278
C38	C	1.165123	0.000090	-0.411643
C39	C	0.999870	0.000074	0.430584
C40	C	1.038197	0.000079	0.528656
C41	C	1.253770	0.000092	0.550001
C42	C	1.215460	0.000083	0.451929
C43	C	1.088508	0.000075	0.392228
C44	C	1.304098	0.000084	0.413572
C45	C	1.265792	0.000079	0.315509
C46	C	1.138848	0.000074	0.255803
C47	C	1.050202	0.000071	0.294165
C48	C	1.431052	0.000099	0.473276
C49	C	1.519690	0.000099	0.434919
C50	C	1.481382	0.000088	0.336853
C51	C	1.354438	0.000083	0.277147
C52	C	1.570028	0.000092	0.298491
C53	C	1.531722	0.000088	0.200428
C54	C	1.316132	0.000079	0.179084
H55	H	1.204109	0.258183	-0.185104
H56	H	1.673395	0.000108	0.347116
O57	O	0.882649	0.546426	-0.382615
H58	H	0.892534	0.500620	-0.440202
H59	H	1.579052	0.258130	0.045269
H60	H	1.603901	0.000089	0.169198
H61	H	1.623056	0.000110	0.483542
H62	H	1.212752	0.000065	0.130470
O63	O	1.095243	0.291214	-0.251999
H64	H	1.162673	0.264697	-0.274235
O65	O	1.097516	0.000074	0.150033
H66	H	1.107047	-0.065001	0.112254
H67	H	0.946823	0.000057	0.245551
O68	O	0.862943	0.000064	0.366179
H69	H	0.807736	0.000068	0.409324
H70	H	0.956453	0.408973	-0.337283
O71	O	1.474664	0.708957	-0.018909
H72	H	1.574838	0.735441	0.042625
H73	H	0.966012	0.000092	0.559884
H74	H	0.990869	0.742041	-0.316167
O75	O	1.646243	0.604483	0.086536
H76	H	1.661270	0.682807	0.095771
H77	H	1.357136	0.000103	0.598623
O78	O	1.398599	0.755271	-0.065642
H79	H	1.388692	0.801056	-0.008053
O80	O	1.687244	0.453723	0.111733
H81	H	1.702270	0.532047	0.120963
O82	O	1.472384	0.000106	0.579047
H83	H	1.409084	-0.064975	0.583779
