data_functionalizedCrystal
_audit_creation_method	'MofGen! by Chris Wilmer'
_symmetry_space_group_name_H-M	'P1'
_symmetry_Int_Tables_number	1
_symmetry_cell_setting	triclinic
loop_
_symmetry_equiv_pos_as_xyz
  x,y,z
_cell_length_a	29.839134
_cell_length_b	29.839131
_cell_length_c	18.050582
_cell_angle_alpha	90.033130
_cell_angle_beta	90.026973
_cell_angle_gamma	90.027971
loop_
_atom_site_label
_atom_site_type_symbol
_atom_site_fract_x
_atom_site_fract_y
_atom_site_fract_z
Zn1	Zn	0.686751	-0.178969	0.420097
Zn2	Zn	1.020084	0.154365	0.753430
Zn3	Zn	1.353417	0.487698	1.086763
Zn4	Zn	0.686688	-0.254091	0.295884
Zn5	Zn	1.020021	0.079242	0.629217
Zn6	Zn	1.353354	0.412576	0.962550
Zn7	Zn	0.611630	-0.178966	0.295895
Zn8	Zn	0.944963	0.154367	0.629228
Zn9	Zn	1.278297	0.487700	0.962561
Zn10	Zn	0.611589	-0.254063	0.420006
Zn11	Zn	0.944923	0.079270	0.753340
Zn12	Zn	1.278256	0.412604	1.086673
O13	O	0.649164	-0.216522	0.357970
O14	O	0.982498	0.116811	0.691304
O15	O	1.315831	0.450144	1.024637
O16	O	0.749609	-0.188947	0.403653
O17	O	1.082943	0.144387	0.736986
O18	O	1.416276	0.477720	1.070320
O19	O	0.676722	-0.244136	0.191961
O20	O	1.010055	0.089197	0.525294
O21	O	1.343388	0.422530	0.858627
O22	O	0.621638	-0.116100	0.312413
O23	O	0.954972	0.217234	0.645746
O24	O	1.288305	0.550567	0.979080
O25	O	0.749563	-0.244139	0.312394
O26	O	1.082896	0.089195	0.645728
O27	O	1.416230	0.422528	0.979061
O28	O	0.676829	-0.116101	0.403664
O29	O	1.010163	0.217232	0.736997
O30	O	1.343496	0.550565	1.070330
O31	O	0.621577	-0.188942	0.191969
O32	O	0.954910	0.144391	0.525302
O33	O	1.288244	0.477724	0.858635
O34	O	0.548758	-0.188915	0.312325
O35	O	0.882091	0.144418	0.645658
O36	O	1.215424	0.477751	0.978992
O37	O	0.621569	-0.244091	0.523943
O38	O	0.954902	0.089242	0.857276
O39	O	1.288236	0.422576	1.190610
O40	O	0.548728	-0.244088	0.403509
O41	O	0.882061	0.089245	0.736843
O42	O	1.215394	0.422578	1.070176
O43	O	0.676790	-0.188919	0.524009
O44	O	1.010123	0.144414	0.857343
O45	O	1.343457	0.477747	1.190676
O46	O	0.676682	-0.316954	0.312306
O47	O	1.010015	0.016379	0.645640
O48	O	1.343349	0.349712	0.978973
O49	O	0.621508	-0.316934	0.403499
O50	O	0.954841	0.016400	0.736832
O51	O	1.288175	0.349733	1.070165
C52	C	0.532442	-0.216499	0.357909
C53	C	0.865775	0.116834	0.691242
C54	C	1.199109	0.450168	1.024576
C55	C	0.482507	-0.216500	0.357900
C56	C	0.815841	0.116834	0.691234
C57	C	1.149174	0.450167	1.024567
C58	C	0.125923	-0.187751	0.310588
C59	C	0.459257	0.145582	0.643921
C60	C	0.792590	0.478916	0.977254
C61	C	0.313596	-0.187738	0.310543
C62	C	0.646930	0.145595	0.643876
C63	C	0.980263	0.478928	0.977209
O64	O	0.337864	-0.163257	0.270247
O65	O	0.671197	0.170076	0.603580
O66	O	1.004530	0.503409	0.936913
N67	N	0.337062	-0.216507	0.357938
N68	N	0.670396	0.116826	0.691271
N69	N	1.003729	0.450160	1.024604
C70	C	0.313607	-0.245279	0.405351
C71	C	0.646940	0.088055	0.738684
C72	C	0.980274	0.421388	1.072017
O73	O	0.337873	-0.269745	0.445667
O74	O	0.671206	0.063589	0.779001
O75	O	1.004539	0.396922	1.112334
C76	C	0.125935	-0.245289	0.405399
C77	C	0.459268	0.088045	0.738732
C78	C	0.792602	0.421378	1.072066
C79	C	0.102471	-0.216522	0.357996
C80	C	0.435805	0.116812	0.691329
C81	C	0.769138	0.450145	1.024662
C82	C	0.102460	-0.158986	0.263189
C83	C	0.435793	0.174347	0.596522
C84	C	0.769126	0.507681	0.929855
C85	C	0.055544	-0.158991	0.263198
C86	C	0.388878	0.174342	0.596531
C87	C	0.722211	0.507676	0.929864
C88	C	0.032092	-0.187761	0.310606
C89	C	0.365426	0.145572	0.643939
C90	C	0.698759	0.478905	0.977272
C91	C	0.055556	-0.216527	0.358004
C92	C	0.388889	0.116807	0.691338
C93	C	0.722223	0.450140	1.024671
C94	C	0.102480	-0.274058	0.452815
C95	C	0.435814	0.059275	0.786149
C96	C	0.769147	0.392609	1.119482
C97	C	0.055559	-0.274057	0.452824
C98	C	0.388893	0.059276	0.786158
C99	C	0.722226	0.392610	1.119491
C100	C	0.032096	-0.245290	0.405421
C101	C	0.365429	0.088044	0.738754
C102	C	0.698763	0.421377	1.072088
C103	C	-0.014811	-0.245302	0.405421
C104	C	0.318522	0.088031	0.738755
C105	C	0.651855	0.421364	1.072088
N106	N	-0.038277	-0.216534	0.358026
N107	N	0.295056	0.116800	0.691360
N108	N	0.628389	0.450133	1.024693
C109	C	-0.014825	-0.187763	0.310618
C110	C	0.318508	0.145570	0.643952
C111	C	0.651841	0.478903	0.977285
C112	C	0.412138	-0.245272	0.405321
C113	C	0.745471	0.088061	0.738654
C114	C	1.078804	0.421395	1.071988
C115	C	0.459056	-0.245270	0.405308
C116	C	0.792389	0.088063	0.738641
C117	C	1.125722	0.421397	1.071975
C118	C	0.459042	-0.187729	0.310501
C119	C	0.792375	0.145604	0.643834
C120	C	1.125708	0.478938	0.977168
C121	C	0.412123	-0.187734	0.310511
C122	C	0.745456	0.145600	0.643844
C123	C	1.078790	0.478933	0.977177
C124	C	0.388672	-0.216503	0.357926
C125	C	0.722005	0.116830	0.691259
C126	C	1.055338	0.450163	1.024593
C127	C	-0.113351	-0.187777	0.310640
C128	C	0.219982	0.145557	0.643974
C129	C	0.553315	0.478890	0.977307
C130	C	-0.160271	-0.187786	0.310651
C131	C	0.173062	0.145548	0.643984
C132	C	0.506396	0.478881	0.977318
C133	C	-0.160253	-0.245325	0.405461
C134	C	0.173080	0.088008	0.738794
C135	C	0.506414	0.421342	1.072127
C136	C	-0.113337	-0.245318	0.405447
C137	C	0.219996	0.088016	0.738781
C138	C	0.553329	0.421349	1.072114
C139	C	-0.089888	-0.216540	0.358035
C140	C	0.243446	0.116793	0.691368
C141	C	0.576779	0.450127	1.024701
O142	O	-0.039108	-0.269767	0.445702
O143	O	0.294226	0.063566	0.779035
O144	O	0.627559	0.396899	1.112369
O145	O	-0.039099	-0.163294	0.270319
O146	O	0.294234	0.170039	0.603653
O147	O	0.627568	0.503373	0.936986
C148	C	0.172839	-0.187746	0.310579
C149	C	0.506172	0.145587	0.643912
C150	C	0.839505	0.478921	0.977246
C151	C	0.196302	-0.216511	0.357978
C152	C	0.529636	0.116822	0.691311
C153	C	0.862969	0.450155	1.024644
C154	C	0.172850	-0.245282	0.405386
C155	C	0.506184	0.088052	0.738719
C156	C	0.839517	0.421385	1.072052
C157	C	0.243220	-0.216509	0.357965
C158	C	0.576553	0.116824	0.691298
C159	C	0.909887	0.450157	1.024632
C160	C	0.266672	-0.187739	0.310557
C161	C	0.600005	0.145594	0.643890
C162	C	0.933339	0.478928	0.977224
C163	C	0.243206	-0.158970	0.263162
C164	C	0.576540	0.174363	0.596495
C165	C	0.909873	0.507696	0.929829
C166	C	0.196291	-0.158975	0.263171
C167	C	0.529624	0.174358	0.596504
C168	C	0.862957	0.507691	0.929838
C169	C	0.196316	-0.274050	0.452781
C170	C	0.529650	0.059283	0.786114
C171	C	0.862983	0.392616	1.119447
C172	C	0.243232	-0.274043	0.452767
C173	C	0.576565	0.059290	0.786101
C174	C	0.909898	0.392624	1.119434
C175	C	0.266684	-0.245273	0.405359
C176	C	0.600017	0.088061	0.738693
C177	C	0.933350	0.421394	1.072026
C178	C	0.649096	-0.333245	0.357908
C179	C	0.982429	0.000088	0.691241
C180	C	1.315763	0.333422	1.024574
C181	C	0.649108	-0.383179	0.357906
C182	C	0.982441	-0.049846	0.691239
C183	C	1.315774	0.283487	1.024572
C184	C	0.677896	-0.692789	0.405552
C185	C	1.011229	-0.359455	0.738886
C186	C	1.344563	-0.026122	1.072219
C187	C	0.677945	-0.880462	0.405597
C188	C	1.011278	-0.547128	0.738930
C189	C	1.344611	-0.213795	1.072264
O190	O	0.702355	-0.904698	0.446061
O191	O	1.035688	-0.571364	0.779395
O192	O	1.369021	-0.238031	1.112728
N193	N	0.649241	-0.903964	0.358053
N194	N	0.982574	-0.570631	0.691386
N195	N	1.315907	-0.237298	1.024719
C196	C	0.620520	-0.880546	0.310498
C197	C	0.953854	-0.547212	0.643831
C198	C	1.287187	-0.213879	0.977164
O199	O	0.596104	-0.904842	0.270065
O200	O	0.929437	-0.571509	0.603398
O201	O	1.262770	-0.238176	0.936731
C202	C	0.620470	-0.692874	0.310457
C203	C	0.953803	-0.359540	0.643791
C204	C	1.287136	-0.026207	0.977124
C205	C	0.649179	-0.669373	0.357999
C206	C	0.982512	-0.336040	0.691333
C207	C	1.315845	-0.002707	1.024666
C208	C	0.706603	-0.669289	0.453091
C209	C	1.039936	-0.335955	0.786424
C210	C	1.373269	-0.002622	1.119758
C211	C	0.706592	-0.622373	0.453076
C212	C	1.039925	-0.289040	0.786410
C213	C	1.373258	0.044294	1.119743
C214	C	0.677875	-0.598958	0.405523
C215	C	1.011208	-0.265624	0.738857
C216	C	1.344541	0.067709	1.072190
C217	C	0.649168	-0.622458	0.357985
C218	C	0.982501	-0.289125	0.691318
C219	C	1.315835	0.044209	1.024651
C220	C	0.591747	-0.669456	0.262906
C221	C	0.925081	-0.336123	0.596240
C222	C	1.258414	-0.002789	0.929573
C223	C	0.591736	-0.622535	0.262902
C224	C	0.925070	-0.289202	0.596235
C225	C	1.258403	0.044132	0.929568
C226	C	0.620446	-0.599035	0.310444
C227	C	0.953779	-0.265701	0.643777
C228	C	1.287112	0.067632	0.977110
C229	C	0.620440	-0.552127	0.310417
C230	C	0.953773	-0.218794	0.643750
C231	C	1.287107	0.114539	0.977084
N232	N	0.649144	-0.528625	0.357961
N233	N	0.982477	-0.195291	0.691295
N234	N	1.315811	0.138042	1.024628
C235	C	0.677861	-0.552040	0.405514
C236	C	1.011195	-0.218707	0.738848
C237	C	1.344528	0.114627	1.072181
C238	C	0.620550	-0.979076	0.310521
C239	C	0.953883	-0.645743	0.643854
C240	C	1.287216	-0.312410	0.977188
C241	C	0.620563	-1.025994	0.310530
C242	C	0.953896	-0.692661	0.643863
C243	C	1.287229	-0.359328	0.977197
C244	C	0.677987	-1.025907	0.405631
C245	C	1.011320	-0.692574	0.738964
C246	C	1.344653	-0.359240	1.072297
C247	C	0.677976	-0.978988	0.405617
C248	C	1.011309	-0.645655	0.738951
C249	C	1.344642	-0.312322	1.072284
C250	C	0.649254	-0.955574	0.358065
C251	C	0.982587	-0.622240	0.691399
C252	C	1.315920	-0.288907	1.024732
C253	C	0.677837	-0.453514	0.405480
C254	C	1.011170	-0.120181	0.738813
C255	C	1.344504	0.213153	1.072146
C256	C	0.677825	-0.406595	0.405459
C257	C	1.011158	-0.073261	0.738792
C258	C	1.344492	0.260072	1.072126
C259	C	0.620399	-0.406686	0.310362
C260	C	0.953733	-0.073353	0.643695
C261	C	1.287066	0.259981	0.977028
C262	C	0.620413	-0.453601	0.310379
C263	C	0.953746	-0.120268	0.643713
C264	C	1.287080	0.213065	0.977046
C265	C	0.649133	-0.477014	0.357944
C266	C	0.982466	-0.143681	0.691278
C267	C	1.315800	0.189652	1.024611
O268	O	0.596040	-0.527862	0.269980
O269	O	0.929373	-0.194529	0.603313
O270	O	1.262706	0.138804	0.936647
O271	O	0.702267	-0.527735	0.445953
O272	O	1.035601	-0.194402	0.779286
O273	O	1.368934	0.138931	1.112619
C274	C	0.677907	-0.739704	0.405567
C275	C	1.011240	-0.406371	0.738900
C276	C	1.344573	-0.073037	1.072233
C277	C	0.649200	-0.763204	0.358028
C278	C	0.982534	-0.429871	0.691361
C279	C	1.315867	-0.096538	1.024695
C280	C	0.620483	-0.739789	0.310475
C281	C	0.953816	-0.406456	0.643808
C282	C	1.287150	-0.073122	0.977142
C283	C	0.649213	-0.810122	0.358037
C284	C	0.982547	-0.476789	0.691370
C285	C	1.315880	-0.143455	1.024704
C286	C	0.677931	-0.833537	0.405590
C287	C	1.011264	-0.500204	0.738924
C288	C	1.344597	-0.166871	1.072257
C289	C	0.706635	-0.810035	0.453134
C290	C	1.039968	-0.476702	0.786468
C291	C	1.373301	-0.143368	1.119801
C292	C	0.706624	-0.763119	0.453120
C293	C	1.039957	-0.429786	0.786453
C294	C	1.373291	-0.096453	1.119787
C295	C	0.591779	-0.763292	0.262931
C296	C	0.925112	-0.429958	0.596264
C297	C	1.258446	-0.096625	0.929598
C298	C	0.591792	-0.810207	0.262949
C299	C	0.925126	-0.476874	0.596282
C300	C	1.258459	-0.143540	0.929615
C301	C	0.620510	-0.833622	0.310502
C302	C	0.953843	-0.500289	0.643835
C303	C	1.287176	-0.166956	0.977168
C304	C	0.766343	-0.216546	0.358032
C305	C	1.099676	0.116787	0.691366
C306	C	1.433009	0.450121	1.024699
C307	C	0.816277	-0.216556	0.358059
C308	C	1.149611	0.116777	0.691392
C309	C	1.482944	0.450110	1.024726
C310	C	0.649182	-0.216502	0.551676
C311	C	0.982515	0.116831	0.885009
C312	C	1.315849	0.450164	1.218343
C313	C	0.649190	-0.216494	0.634222
C314	C	0.982523	0.116839	0.967555
C315	C	1.315856	0.450173	1.300889
C316	C	0.649245	-0.099344	0.358049
C317	C	0.982579	0.233989	0.691383
C318	C	1.315912	0.567323	1.024716
C319	C	0.649280	-0.049409	0.358083
C320	C	0.982613	0.283924	0.691417
C321	C	1.315947	0.617257	1.024750
C322	C	0.649173	-0.216510	0.165018
C323	C	0.982506	0.116824	0.498352
C324	C	1.315839	0.450157	0.831685
C325	C	0.649252	-0.216392	0.082473
C326	C	0.982586	0.116942	0.415806
C327	C	1.315919	0.450275	0.749140
C328	C	0.619183	-0.246455	0.833637
C329	C	0.952517	0.086878	1.166970
C330	C	1.285850	0.420212	1.500303
C331	C	0.660169	-0.257442	0.883039
C332	C	0.993503	0.075891	1.216372
C333	C	1.326836	0.409225	1.549705
C334	C	0.649212	-0.216460	0.785352
C335	C	0.982545	0.116874	1.118686
C336	C	1.315878	0.450207	1.452019
C337	C	0.608248	-0.205460	0.883032
C338	C	0.941582	0.127873	1.216365
C339	C	1.274915	0.461206	1.549699
C340	C	0.649229	-0.216427	0.931338
C341	C	0.982563	0.116906	1.264671
C342	C	1.315896	0.450239	1.598004
C343	C	0.690219	-0.227468	0.833667
C344	C	1.023552	0.105865	1.167001
C345	C	1.356886	0.439199	1.500334
C346	C	0.638270	-0.175467	0.833656
C347	C	0.971604	0.157866	1.166990
C348	C	1.304937	0.491199	1.500323
C349	C	0.679285	-0.186438	0.883036
C350	C	1.012618	0.146895	1.216369
C351	C	1.345951	0.480228	1.549703
C352	C	0.649201	-0.216479	0.701254
C353	C	0.982534	0.116854	1.034587
C354	C	1.315868	0.450187	1.367921
C355	C	0.649245	-0.216408	1.015434
C356	C	0.982578	0.116926	1.348768
C357	C	1.315912	0.450259	1.682101
H358	H	0.393022	-0.164307	0.271913
H359	H	0.726355	0.169026	0.605246
H360	H	1.059689	0.502359	0.938580
H361	H	0.724879	-0.236797	0.812074
H362	H	1.058212	0.096536	1.145407
H363	H	1.391545	0.429870	1.478741
H364	H	0.478144	-0.164304	0.271899
H365	H	0.811477	0.169030	0.605232
H366	H	1.144811	0.502363	0.938565
H367	H	0.568393	-0.744231	0.224208
H368	H	0.901727	-0.410897	0.557542
H369	H	1.235060	-0.077564	0.890875
H370	H	0.597160	-0.960015	0.271797
H371	H	0.930494	-0.626682	0.605130
H372	H	1.263827	-0.293349	0.938463
H373	H	0.121576	-0.297484	0.491416
H374	H	0.454910	0.035850	0.824749
H375	H	0.788243	0.369183	1.158083
H376	H	0.628993	-0.140825	0.811948
H377	H	0.962327	0.192509	1.145281
H378	H	1.295660	0.525842	1.478615
H379	H	0.573599	-0.196171	0.904717
H380	H	0.906932	0.137163	1.238050
H381	H	1.240265	0.470496	1.571383
H382	H	0.701353	-0.959857	0.444330
H383	H	1.034686	-0.626524	0.777664
H384	H	1.368019	-0.293190	1.110997
H385	H	0.568346	-0.603473	0.224180
H386	H	0.901679	-0.270140	0.557513
H387	H	1.235013	0.063194	0.890847
H388	H	-0.179373	-0.164359	0.272047
H389	H	0.153961	0.168974	0.605381
H390	H	0.487294	0.502307	0.938714
H391	H	0.730002	-0.743989	0.491833
H392	H	1.063335	-0.410656	0.825166
H393	H	1.396668	-0.077322	1.158500
H394	H	0.121549	-0.135555	0.224584
H395	H	0.454883	0.197778	0.557917
H396	H	0.788216	0.531112	0.891250
H397	H	0.701221	-0.472571	0.444217
H398	H	1.034554	-0.139238	0.777550
H399	H	1.367887	0.194095	1.110884
H400	H	0.704715	-0.161058	0.904589
H401	H	1.038049	0.172275	1.237922
H402	H	1.371382	0.505608	1.571256
H403	H	0.701205	-0.387462	0.444173
H404	H	1.034538	-0.054129	0.777506
H405	H	1.367872	0.279205	1.110840
H406	H	0.729987	-0.688348	0.491819
H407	H	1.063321	-0.355015	0.825152
H408	H	1.396654	-0.021682	1.158485
H409	H	-0.094264	-0.164341	0.272036
H410	H	0.239069	0.168992	0.605369
H411	H	0.572403	0.502326	0.938702
H412	H	0.729968	-0.603242	0.491791
H413	H	1.063301	-0.269909	0.825125
H414	H	1.396635	0.063425	1.158458
H415	H	0.478156	-0.268700	0.443901
H416	H	0.811489	0.064633	0.777234
H417	H	1.144822	0.397967	1.110567
H418	H	0.036445	-0.135566	0.224597
H419	H	0.369778	0.197768	0.557930
H420	H	0.703111	0.531101	0.891264
H421	H	0.701370	-1.044980	0.444349
H422	H	1.034703	-0.711646	0.777683
H423	H	1.368037	-0.378313	1.111016
H424	H	0.593813	-0.271854	0.811947
H425	H	0.927147	0.061479	1.145281
H426	H	1.260480	0.394812	1.478614
H427	H	0.568369	-0.688582	0.224192
H428	H	0.901703	-0.355248	0.557526
H429	H	1.235036	-0.021915	0.890859
H430	H	0.036468	-0.297484	0.491439
H431	H	0.369801	0.035849	0.824773
H432	H	0.703135	0.369183	1.158106
H433	H	-0.094232	-0.268746	0.444041
H434	H	0.239101	0.064588	0.777375
H435	H	0.572434	0.397921	1.110708
H436	H	0.393048	-0.268702	0.443934
H437	H	0.726381	0.064632	0.777267
H438	H	1.059715	0.397965	1.110601
H439	H	0.568415	-0.829337	0.224227
H440	H	0.901748	-0.496004	0.557561
H441	H	1.235081	-0.162670	0.890894
H442	H	-0.179356	-0.268751	0.444056
H443	H	0.153977	0.064583	0.777390
H444	H	0.487311	0.397916	1.110723
H445	H	0.597039	-0.472736	0.271661
H446	H	0.930372	-0.139403	0.604994
H447	H	1.263706	0.193930	0.938328
H448	H	0.597190	-1.045124	0.271809
H449	H	0.930523	-0.711791	0.605142
H450	H	1.263856	-0.378457	0.938475
H451	H	0.262309	-0.135546	0.224558
H452	H	0.595642	0.197787	0.557892
H453	H	0.928976	0.531121	0.891225
H454	H	0.177191	-0.135550	0.224571
H455	H	0.510524	0.197784	0.557904
H456	H	0.843858	0.531117	0.891238
H457	H	0.262332	-0.297473	0.491368
H458	H	0.595665	0.035860	0.824701
H459	H	0.928998	0.369194	1.158034
H460	H	0.730019	-0.829108	0.491851
H461	H	1.063352	-0.495774	0.825185
H462	H	1.396686	-0.162441	1.158518
H463	H	0.177226	-0.297479	0.491387
H464	H	0.510560	0.035855	0.824721
H465	H	0.843893	0.369188	1.158054
H466	H	0.597020	-0.387614	0.271642
H467	H	0.930353	-0.054281	0.604975
H468	H	1.263686	0.279053	0.938309
H469	H	0.669434	-0.292094	0.904730
H470	H	1.002768	0.041239	1.238064
H471	H	1.336101	0.374572	1.571397
