data_functionalizedCrystal
_audit_creation_method	'MofGen! by Chris Wilmer'
_symmetry_space_group_name_H-M	'P1'
_symmetry_Int_Tables_number	1
_symmetry_cell_setting	triclinic
loop_
_symmetry_equiv_pos_as_xyz
  x,y,z
_cell_length_a	16.625547
_cell_length_b	16.625545
_cell_length_c	19.076919
_cell_angle_alpha	92.272080
_cell_angle_beta	92.276735
_cell_angle_gamma	90.025495
loop_
_atom_site_label
_atom_site_type_symbol
_atom_site_fract_x
_atom_site_fract_y
_atom_site_fract_z
Zn1	Zn	1.214314	-0.339340	-0.398033
Zn2	Zn	1.547647	-0.006007	-0.064700
Zn3	Zn	1.880980	0.327327	0.268633
Zn4	Zn	1.219635	-0.468761	-0.280341
Zn5	Zn	1.552969	-0.135427	0.052992
Zn6	Zn	1.886302	0.197906	0.386325
Zn7	Zn	1.084901	-0.333946	-0.280344
Zn8	Zn	1.418234	-0.000612	0.052989
Zn9	Zn	1.751568	0.332721	0.386323
Zn10	Zn	1.079441	-0.474132	-0.397988
Zn11	Zn	1.412774	-0.140799	-0.064654
Zn12	Zn	1.746107	0.192535	0.268679
O13	O	1.149573	-0.404045	-0.339177
O14	O	1.482906	-0.070711	-0.005843
O15	O	1.816239	0.262622	0.327490
O16	O	1.327851	-0.356518	-0.382439
O17	O	1.661185	-0.023184	-0.049106
O18	O	1.994518	0.310149	0.284227
O19	O	1.206275	-0.446372	-0.181853
O20	O	1.539608	-0.113038	0.151480
O21	O	1.872941	0.220295	0.484814
O22	O	1.102126	-0.221830	-0.295976
O23	O	1.435459	0.111503	0.037357
O24	O	1.768793	0.444837	0.370691
O25	O	1.331761	-0.451602	-0.295972
O26	O	1.665094	-0.118269	0.037362
O27	O	1.998428	0.215064	0.370695
O28	O	1.197205	-0.225793	-0.382442
O29	O	1.530538	0.107540	-0.049108
O30	O	1.863872	0.440874	0.284225
O31	O	1.107286	-0.347324	-0.181855
O32	O	1.440619	-0.013991	0.151479
O33	O	1.773953	0.319343	0.484812
O34	O	0.971345	-0.352532	-0.295931
O35	O	1.304679	-0.019199	0.037402
O36	O	1.638012	0.314134	0.370735
O37	O	1.092820	-0.460757	-0.496482
O38	O	1.426153	-0.127424	-0.163149
O39	O	1.759486	0.205910	0.170184
O40	O	0.967334	-0.455527	-0.382364
O41	O	1.300667	-0.122193	-0.049030
O42	O	1.634000	0.211140	0.284303
O43	O	1.191910	-0.361726	-0.496516
O44	O	1.525244	-0.028393	-0.163183
O45	O	1.858577	0.304941	0.170151
O46	O	1.200980	-0.582305	-0.295927
O47	O	1.534313	-0.248971	0.037406
O48	O	1.867647	0.084362	0.370739
O49	O	1.097980	-0.586251	-0.382361
O50	O	1.431313	-0.252918	-0.049028
O51	O	1.764647	0.080416	0.284305
C52	C	0.940083	-0.404027	-0.339143
C53	C	1.273417	-0.070694	-0.005810
C54	C	1.606750	0.262639	0.327523
C55	C	0.850462	-0.404040	-0.339146
C56	C	1.183795	-0.070707	-0.005812
C57	C	1.517129	0.262626	0.327521
C58	C	1.149486	-0.613535	-0.339154
C59	C	1.482819	-0.280201	-0.005821
C60	C	1.816153	0.053132	0.327512
C61	C	1.149522	-0.703156	-0.339168
C62	C	1.482855	-0.369823	-0.005835
C63	C	1.816188	-0.036490	0.327498
C64	C	0.777679	-0.404042	-0.339155
C65	C	1.111013	-0.070709	-0.005821
C66	C	1.444346	0.262624	0.327512
C67	C	0.686370	-0.404047	-0.339172
C68	C	1.019703	-0.070714	-0.005839
C69	C	1.353037	0.262619	0.327495
C70	C	0.613593	-0.404056	-0.339190
C71	C	0.946926	-0.070722	-0.005857
C72	C	1.280259	0.262611	0.327477
C73	C	0.522278	-0.404062	-0.339207
C74	C	0.855611	-0.070729	-0.005874
C75	C	1.188944	0.262605	0.327460
C76	C	1.149552	-0.775939	-0.339182
C77	C	1.482886	-0.442606	-0.005849
C78	C	1.816219	-0.109273	0.327484
C79	C	1.149599	-0.867248	-0.339198
C80	C	1.482932	-0.533915	-0.005865
C81	C	1.816265	-0.200582	0.327469
C82	C	1.149640	-0.940025	-0.339207
C83	C	1.482973	-0.606692	-0.005874
C84	C	1.816307	-0.273359	0.327460
C85	C	1.149686	-1.031340	-0.339221
C86	C	1.483019	-0.698007	-0.005888
C87	C	1.816352	-0.364674	0.327445
C88	C	1.359880	-0.404063	-0.339210
C89	C	1.693213	-0.070729	-0.005877
C90	C	2.026547	0.262604	0.327456
C91	C	1.449500	-0.404070	-0.339225
C92	C	1.782834	-0.070737	-0.005891
C93	C	2.116167	0.262597	0.327442
C94	C	1.141162	-0.412442	-0.522750
C95	C	1.474496	-0.079109	-0.189417
C96	C	1.807829	0.254224	0.143916
C97	C	1.137578	-0.416021	-0.600979
C98	C	1.470912	-0.082688	-0.267645
C99	C	1.804245	0.250646	0.065688
C100	C	1.149681	-0.193737	-0.339214
C101	C	1.483014	0.139596	-0.005881
C102	C	1.816348	0.472929	0.327452
C103	C	1.149727	-0.104117	-0.339230
C104	C	1.483060	0.229216	-0.005897
C105	C	1.816394	0.562550	0.327436
C106	C	1.187483	-0.366144	-0.637749
C107	C	1.520816	-0.032811	-0.304416
C108	C	1.854150	0.300522	0.028918
C109	C	1.184106	-0.369504	-0.711253
C110	C	1.517439	-0.036170	-0.377919
C111	C	1.850772	0.297163	-0.044586
C112	C	1.130827	-0.422744	-0.747985
C113	C	1.464160	-0.089411	-0.414651
C114	C	1.797494	0.243922	-0.081318
C115	C	1.080917	-0.472623	-0.711209
C116	C	1.414250	-0.139290	-0.377876
C117	C	1.747584	0.194044	-0.044542
C118	C	1.084291	-0.469259	-0.637707
C119	C	1.417624	-0.135926	-0.304373
C120	C	1.750957	0.197408	0.028960
C121	C	1.115201	-0.438330	-0.967811
C122	C	1.448534	-0.104997	-0.634478
C123	C	1.781867	0.228336	-0.301145
C124	C	1.111832	-0.441692	-1.041319
C125	C	1.445166	-0.108359	-0.707985
C126	C	1.778499	0.224974	-0.374652
C127	C	1.215020	-0.338572	-1.041357
C128	C	1.548354	-0.005238	-0.708024
C129	C	1.881687	0.328095	-0.374691
C130	C	1.218393	-0.335216	-0.967854
C131	C	1.551726	-0.001882	-0.634520
C132	C	1.885060	0.331451	-0.301187
C133	C	1.168480	-0.385091	-0.931084
C134	C	1.501813	-0.051758	-0.597751
C135	C	1.835147	0.281575	-0.264418
N136	N	1.127375	-0.426181	-0.823117
N137	N	1.460709	-0.092848	-0.489784
N138	N	1.794042	0.240485	-0.156451
N139	N	1.171928	-0.381650	-0.855953
N140	N	1.505261	-0.048316	-0.522620
N141	N	1.838595	0.285017	-0.189286
C142	C	1.157997	-0.395621	-0.156317
C143	C	1.491330	-0.062288	0.177016
C144	C	1.824663	0.271045	0.510350
C145	C	1.161737	-0.391816	-0.078089
C146	C	1.495070	-0.058482	0.255244
C147	C	1.828404	0.274851	0.588577
H148	H	1.224745	-0.328891	-0.741188
H149	H	1.558079	0.004443	-0.407855
H150	H	1.891412	0.337776	-0.074521
O151	O	1.023445	-0.530044	-0.750822
O152	O	1.356778	-0.196711	-0.417488
O153	O	1.690111	0.136622	-0.084155
H154	H	1.029486	-0.524010	-0.808111
H155	H	1.362819	-0.190676	-0.474777
H156	H	1.696153	0.142657	-0.141444
O157	O	1.061346	-0.492125	-0.928182
O158	O	1.394679	-0.158792	-0.594848
O159	O	1.728013	0.174542	-0.261515
H160	H	1.098920	-0.531632	-0.894683
H161	H	1.432254	-0.198298	-0.561349
H162	H	1.765587	0.135035	-0.228016
H163	H	1.043645	-0.509866	-0.607769
H164	H	1.376978	-0.176533	-0.274436
H165	H	1.710311	0.156801	0.058898
O166	O	1.054352	-0.499107	-1.080940
O167	O	1.387686	-0.165774	-0.747606
O168	O	1.721019	0.167560	-0.414273
H169	H	1.088876	-0.541673	-1.114425
H170	H	1.422210	-0.208340	-0.781092
H171	H	1.755543	0.124994	-0.447758
H172	H	1.261780	-0.291864	-0.937951
H173	H	1.595114	0.041470	-0.604618
H174	H	1.928447	0.374803	-0.271285
O175	O	1.268827	-0.284763	-1.081024
O176	O	1.602161	0.048570	-0.747691
O177	O	1.935494	0.381904	-0.414357
H178	H	1.308291	-0.322375	-1.114526
H179	H	1.641625	0.010958	-0.781193
H180	H	1.974958	0.344292	-0.447860
O181	O	1.244948	-0.308720	-0.598131
O182	O	1.578282	0.024613	-0.264798
O183	O	1.911615	0.357946	0.068535
H184	H	1.279077	-0.274598	-0.636052
H185	H	1.612410	0.058736	-0.302719
H186	H	1.945743	0.392069	0.030614
