data_functionalizedCrystal
_audit_creation_method	'MofGen! by Chris Wilmer'
_symmetry_space_group_name_H-M	'P1'
_symmetry_Int_Tables_number	1
_symmetry_cell_setting	triclinic
loop_
_symmetry_equiv_pos_as_xyz
  x,y,z
_cell_length_a	16.625539
_cell_length_b	19.077105
_cell_length_c	19.077068
_cell_angle_alpha	90.115316
_cell_angle_beta	92.266981
_cell_angle_gamma	87.682252
loop_
_atom_site_label
_atom_site_type_symbol
_atom_site_fract_x
_atom_site_fract_y
_atom_site_fract_z
Zn1	Zn	-0.519613	1.063000	-0.322975
Zn2	Zn	-0.019613	1.563000	0.177025
Zn3	Zn	-0.389957	1.058185	-0.440485
Zn4	Zn	0.110043	1.558185	0.059515
Zn5	Zn	-0.379175	0.945490	-0.318271
Zn6	Zn	0.120825	1.445490	0.181729
Zn7	Zn	-0.519129	0.940735	-0.435716
Zn8	Zn	-0.019129	1.440735	0.064284
O9	O	-0.451969	1.001852	-0.379362
O10	O	0.048031	1.501852	0.120638
O11	O	-0.507129	1.160693	-0.342527
O12	O	-0.007129	1.660693	0.157473
O13	O	-0.275694	1.043210	-0.424300
O14	O	0.224306	1.543210	0.075700
O15	O	-0.393495	0.965083	-0.220565
O16	O	0.106505	1.465083	0.279435
O17	O	-0.411871	1.157155	-0.428861
O18	O	0.088129	1.657155	0.071139
O19	O	-0.496674	1.051417	-0.224021
O20	O	0.003326	1.551417	0.275979
O21	O	-0.267773	0.960413	-0.334510
O22	O	0.232227	1.460413	0.165490
O23	O	-0.393026	0.846528	-0.329886
O24	O	0.106974	1.346528	0.170114
O25	O	-0.632025	0.956980	-0.420734
O26	O	-0.132025	1.456980	0.079266
O27	O	-0.495849	0.843034	-0.416173
O28	O	0.004151	1.343034	0.083827
O29	O	-0.632381	1.046807	-0.337903
O30	O	-0.132381	1.546807	0.162097
O31	O	-0.411401	1.038599	-0.538182
O32	O	0.088599	1.538599	-0.038182
O33	O	-0.506303	0.952310	-0.534679
O34	O	-0.006303	1.452310	-0.034679
C35	C	-0.443215	0.819285	-0.372002
C36	C	0.056785	1.319285	0.127998
C37	C	-0.439490	0.741181	-0.368870
C38	C	0.060510	1.241181	0.131130
C39	C	-0.491197	0.702684	-0.412391
C40	C	0.008803	1.202684	0.087609
C41	C	-0.487700	0.629298	-0.409440
C42	C	0.012300	1.129298	0.090560
C43	C	-0.432493	0.594409	-0.362970
C44	C	0.067507	1.094409	0.137030
C45	C	-0.380784	0.632910	-0.319443
C46	C	0.119216	1.132910	0.180557
C47	C	-0.384285	0.706296	-0.322392
C48	C	0.115715	1.206296	0.177608
C49	C	-0.416294	0.375123	-0.349322
C50	C	0.083706	0.875123	0.150678
C51	C	-0.412795	0.301733	-0.346378
C52	C	0.087205	0.801733	0.153622
C53	C	-0.519713	0.298125	-0.436374
C54	C	-0.019713	0.798125	0.063626
C55	C	-0.523205	0.371512	-0.439322
C56	C	-0.023205	0.871512	0.060678
C57	C	-0.471500	0.410007	-0.395793
C58	C	0.028500	0.910007	0.104207
N59	N	-0.428916	0.519396	-0.359953
N60	N	0.071084	1.019396	0.140047
N61	N	-0.475081	0.485019	-0.398807
N62	N	0.024919	0.985019	0.101193
C63	C	-0.662277	1.001900	-0.379311
C64	C	-0.162277	1.501900	0.120689
C65	C	-0.751898	1.001921	-0.379290
C66	C	-0.251898	1.501921	0.120710
C67	C	-1.080072	1.001956	-0.379212
C68	C	-0.580072	1.501956	0.120788
C69	C	-0.988764	1.001944	-0.379236
C70	C	-0.488764	1.501944	0.120764
C71	C	-0.915988	1.001939	-0.379252
C72	C	-0.415988	1.501939	0.120748
C73	C	-0.824675	1.001926	-0.379274
C74	C	-0.324675	1.501926	0.120726
C75	C	-0.242478	1.001847	-0.379363
C76	C	0.257522	1.501847	0.120637
C77	C	-0.152855	1.001971	-0.379192
C78	C	0.347145	1.501971	0.120808
C79	C	-0.459988	0.994435	-0.561927
C80	C	0.040012	1.494435	-0.061927
C81	C	-0.463449	0.991327	-0.640032
C82	C	0.036551	1.491327	-0.140032
C83	C	-0.460757	1.185133	-0.386751
C84	C	0.039243	1.685133	0.113249
C85	C	-0.464502	1.263236	-0.389900
C86	C	0.035498	1.763236	0.110100
C87	C	-0.415709	1.034827	-0.678528
C88	C	0.084291	1.534827	-0.178528
C89	C	-0.418969	1.031907	-0.751916
C90	C	0.081031	1.531907	-0.251916
C91	C	-0.469965	0.985483	-0.786806
C92	C	0.030035	1.485483	-0.286806
C93	C	-0.517711	0.941980	-0.748305
C94	C	-0.017711	1.441980	-0.248305
C95	C	-0.514454	0.944904	-0.674919
C96	C	-0.014454	1.444904	-0.174919
C97	C	-0.485002	0.971920	-1.006095
C98	C	0.014998	1.471920	-0.506095
C99	C	-0.488253	0.968998	-1.079486
C100	C	0.011747	1.468998	-0.579486
C101	C	-0.389512	1.058927	-1.083092
C102	C	0.110488	1.558927	-0.583092
C103	C	-0.386257	1.061843	-1.009704
C104	C	0.113743	1.561843	-0.509704
C105	C	-0.434005	1.018343	-0.971209
C106	C	0.065995	1.518343	-0.471209
N107	N	-0.473297	0.982496	-0.861820
N108	N	0.026703	1.482496	-0.361820
N109	N	-0.430677	1.021335	-0.896197
N110	N	0.069323	1.521335	-0.396197
C111	C	-0.443936	1.009318	-0.196084
C112	C	0.056064	1.509318	0.303916
C113	C	-0.440513	1.012499	-0.117982
C114	C	0.059487	1.512499	0.382018
H115	H	-0.561810	0.266774	-0.471812
H116	H	-0.061810	0.766774	0.028188
Cl117	Cl	-0.581826	0.883622	-0.792167
Cl118	Cl	-0.081826	1.383622	-0.292167
H119	H	-0.374179	1.072628	-0.650125
H120	H	0.125821	1.572628	-0.150125
Cl121	Cl	-0.574476	0.890218	-0.626523
Cl122	Cl	-0.074476	1.390218	-0.126523
H123	H	-0.367843	0.273329	-0.308529
H124	H	0.132157	0.773329	0.191471
H125	H	-0.374185	0.406458	-0.313884
H126	H	0.125815	0.906458	0.186116
Cl127	Cl	-0.552706	0.580905	-0.464155
Cl128	Cl	-0.052706	1.080905	0.035845
H129	H	-0.523879	0.936500	-0.974758
H130	H	-0.023879	1.436500	-0.474758
Cl131	Cl	-0.311385	0.589050	-0.261019
Cl132	Cl	0.188615	1.089050	0.238981
H133	H	-0.536150	0.731085	-0.450235
H134	H	-0.036150	1.231085	0.049765
H135	H	-0.342184	0.737639	-0.286949
H136	H	0.157816	1.237639	0.213051
Cl137	Cl	-0.322156	1.120218	-0.965848
Cl138	Cl	0.177844	1.620218	-0.465848
Cl139	Cl	-0.358953	1.086599	-0.800308
Cl140	Cl	0.141047	1.586599	-0.300308
H141	H	-0.350640	1.094343	-1.114442
H142	H	0.149360	1.594343	-0.614442
H143	H	-0.568159	0.399913	-0.477164
H144	H	-0.068159	0.899913	0.022836
Cl145	Cl	-0.552357	0.910622	-1.123347
Cl146	Cl	-0.052357	1.410622	-0.623347
