data_functionalizedCrystal
_audit_creation_method	'MofGen! by Chris Wilmer'
_symmetry_space_group_name_H-M	'P1'
_symmetry_Int_Tables_number	1
_symmetry_cell_setting	triclinic
loop_
_symmetry_equiv_pos_as_xyz
  x,y,z
_cell_length_a	12.594516
_cell_length_b	18.215407
_cell_length_c	18.215399
_cell_angle_alpha	89.982223
_cell_angle_beta	90.022106
_cell_angle_gamma	89.988327
loop_
_atom_site_label
_atom_site_type_symbol
_atom_site_fract_x
_atom_site_fract_y
_atom_site_fract_z
Zn1	Zn	-0.423877	-1.125117	0.416105
Zn2	Zn	-0.601875	-1.125044	0.293052
Zn3	Zn	-0.423897	-1.002050	0.293057
Zn4	Zn	-0.601801	-1.002035	0.416081
O5	O	-0.512863	-1.063561	0.354574
O6	O	-0.447512	-1.228092	0.399790
O7	O	-0.578305	-1.108705	0.190068
O8	O	-0.274949	-1.018412	0.309392
O9	O	-0.578286	-1.228038	0.309383
O10	O	-0.274934	-1.108829	0.399795
O11	O	-0.447546	-1.018341	0.190072
O12	O	-0.447474	-0.899063	0.309369
O13	O	-0.578159	-1.018386	0.519068
O14	O	-0.578179	-0.899052	0.399754
O15	O	-0.447440	-1.108814	0.519086
O16	O	-0.750811	-1.108690	0.309359
O17	O	-0.750756	-1.018315	0.399748
C18	C	-0.512821	-0.872355	0.354560
C19	C	-0.512829	-0.790556	0.354571
C20	C	-0.444866	-0.602389	0.401719
C21	C	-0.444872	-0.525530	0.401721
C22	C	-0.580843	-0.525486	0.307434
C23	C	-0.580831	-0.602343	0.307429
C24	C	-0.512844	-0.640793	0.354576
C25	C	-0.512862	-0.487077	0.354583
C26	C	-0.512868	-0.403743	0.354585
C27	C	-0.512836	-0.724132	0.354573
C28	C	-0.789404	-1.063513	0.354567
C29	C	-0.907709	-1.063560	0.354588
C30	C	-0.976971	-1.014400	0.403716
C31	C	-1.047828	-0.996471	0.336564
C32	C	-1.047652	-1.081556	0.421752
C33	C	-0.977007	-1.045595	0.287400
C34	C	-0.976825	-1.130712	0.372634
C35	C	-1.047649	-1.112808	0.305435
C36	C	-0.235242	-1.063630	0.354597
C37	C	-0.116936	-1.063659	0.354607
C38	C	-0.512789	-1.063606	0.546527
C39	C	-0.512758	-1.063625	0.628326
C40	C	-0.512893	-0.255514	0.354587
C41	C	-0.512877	-0.337313	0.354588
C42	C	-0.512859	-1.063559	0.163368
C43	C	-0.512590	-1.063683	0.081569
C44	C	-0.444629	-1.110728	0.816530
C45	C	-0.444598	-1.110737	0.893389
C46	C	-0.580723	-1.016574	0.893359
C47	C	-0.580747	-1.016563	0.816502
C48	C	-0.512702	-1.063644	0.778089
C49	C	-0.512646	-1.063664	0.931805
C50	C	-0.512613	-1.063674	1.015139
C51	C	-0.512733	-1.063634	0.694750
H52	H	-0.636196	-0.494171	0.269050
H53	H	-0.636188	-0.633612	0.269036
H54	H	-0.636180	-0.978215	0.785202
H55	H	-0.389164	-1.149077	0.924684
H56	H	-0.945936	-0.972753	0.445202
H57	H	-0.946104	-1.030348	0.230593
H58	H	-0.389504	-0.633693	0.440106
H59	H	-0.389516	-0.494266	0.440108
H60	H	-0.636125	-0.978244	0.924644
H61	H	-1.079039	-0.939728	0.321316
H62	H	-1.078488	-1.154423	0.263849
H63	H	-0.945617	-1.187442	0.387913
H64	H	-1.078683	-1.096738	0.478544
H65	H	-0.389219	-1.149063	0.785257
