data_functionalizedCrystal
_audit_creation_method	'MofGen! by Chris Wilmer'
_symmetry_space_group_name_H-M	'P1'
_symmetry_Int_Tables_number	1
_symmetry_cell_setting	triclinic
loop_
_symmetry_equiv_pos_as_xyz
  x,y,z
_cell_length_a	10.654562
_cell_length_b	15.995292
_cell_length_c	9.130313
_cell_angle_alpha	90.001944
_cell_angle_beta	89.996930
_cell_angle_gamma	83.979360
loop_
_atom_site_label
_atom_site_type_symbol
_atom_site_fract_x
_atom_site_fract_y
_atom_site_fract_z
O1	O	1.666251	0.117652	-0.121884
O2	O	1.300625	0.128846	-0.121865
O3	O	1.493471	0.001417	-0.121877
O4	O	1.473405	0.245082	-0.121872
O5	O	1.493468	0.001420	0.121722
O6	O	1.300622	0.128849	0.121734
O7	O	1.666249	0.117656	0.121715
Cu8	Cu	1.483435	0.123253	0.143967
Cu9	Cu	1.483438	0.123249	-0.144117
O10	O	1.473403	0.245085	0.121727
C11	C	1.253837	0.128024	-0.000063
C12	C	1.114427	0.125558	-0.000056
C13	C	1.048911	0.124410	0.132718
C14	C	0.917920	0.122100	0.132693
C15	C	0.917972	0.122090	-0.132891
C16	C	1.048962	0.124394	-0.132865
C17	C	1.114376	0.125574	0.265527
C18	C	1.048859	0.124427	0.398312
C19	C	0.917868	0.122117	0.398288
C20	C	0.852393	0.120954	0.265478
C21	C	1.492653	-0.029782	-0.000082
C22	C	1.490204	-0.122749	-0.000092
C23	C	1.481204	-0.460540	-0.000079
C24	C	1.620395	-0.436415	0.000458
C25	C	1.623040	-0.339724	-0.000096
C26	C	1.485670	-0.292958	-0.000085
C27	C	1.416082	-0.322467	-0.139183
C28	C	1.414407	-0.419268	-0.139294
C29	C	1.411562	-0.419137	0.137723
C30	C	1.416720	-0.322615	0.139556
C31	C	1.488187	-0.198247	-0.000093
C32	C	1.478683	-0.555251	-0.000080
C33	C	1.713037	0.118478	-0.000090
C34	C	1.852446	0.120944	-0.000107
C35	C	1.474221	0.276284	-0.000072
C36	C	1.476669	0.369251	-0.000071
N37	N	1.483442	0.123255	0.346589
N38	N	1.483441	0.123240	-0.346740
C39	C	1.568856	0.066849	0.423236
C40	C	1.568853	0.066839	0.576573
C41	C	1.398018	0.179649	0.576603
C42	C	1.398016	0.179654	0.423269
C43	C	1.654282	0.010450	0.346556
C44	C	1.739704	-0.045960	0.423203
C45	C	1.739701	-0.045970	0.576540
C46	C	1.654276	0.010430	0.653230
H47	H	0.864652	0.121145	-0.241018
H48	H	1.677863	-0.321001	-0.099987
H49	H	1.328470	0.225568	0.639054
Cl50	Cl	1.654267	0.010406	0.845998
H51	H	1.221035	0.127458	0.265562
Cl52	Cl	1.290631	0.250565	0.326911
Cl53	Cl	1.703234	-0.479154	0.154471
Cl54	Cl	1.707152	-0.309851	0.153869
Cl55	Cl	1.253381	-0.441663	0.139188
H56	H	1.673748	-0.465123	-0.098741
H57	H	1.102178	0.125367	0.506440
Cl58	Cl	1.260014	-0.274175	-0.147170
Cl59	Cl	0.687721	0.118026	0.265452
H60	H	0.864529	0.121176	0.506407
Cl61	Cl	1.847078	-0.116867	0.326797
H62	H	1.312351	-0.434414	-0.145588
Cl63	Cl	1.131333	0.125835	-0.299785
H64	H	1.464408	-0.302126	-0.242708
H65	H	1.462602	-0.445804	-0.243282
Cl66	Cl	1.478792	-0.462432	0.300501
H67	H	1.316453	-0.290231	0.147965
Cl68	Cl	1.494938	-0.293485	0.298438
H69	H	1.654295	0.010455	0.221702
Cl70	Cl	1.847075	-0.116890	0.672894
