data_functionalizedCrystal
_audit_creation_method	'MofGen! by Chris Wilmer'
_symmetry_space_group_name_H-M	'P1'
_symmetry_Int_Tables_number	1
_symmetry_cell_setting	triclinic
loop_
_symmetry_equiv_pos_as_xyz
  x,y,z
_cell_length_a	21.395362
_cell_length_b	12.759400
_cell_length_c	21.395356
_cell_angle_alpha	89.977601
_cell_angle_beta	89.964122
_cell_angle_gamma	90.029045
loop_
_atom_site_label
_atom_site_type_symbol
_atom_site_fract_x
_atom_site_fract_y
_atom_site_fract_z
Zn1	Zn	0.957886	-0.417842	-0.354611
Zn2	Zn	1.457886	0.082158	0.145389
Zn3	Zn	0.957835	-0.593537	-0.249844
Zn4	Zn	1.457835	-0.093537	0.250156
Zn5	Zn	0.853116	-0.417921	-0.249812
Zn6	Zn	1.353116	0.082079	0.250188
Zn7	Zn	0.853102	-0.593529	-0.354549
Zn8	Zn	1.353102	-0.093529	0.145451
O9	O	0.905485	-0.505707	-0.302204
O10	O	1.405485	-0.005707	0.197796
O11	O	1.045557	-0.441119	-0.340753
O12	O	1.545557	0.058881	0.159247
O13	O	0.943928	-0.570277	-0.162162
O14	O	1.443928	-0.070277	0.337838
O15	O	0.867041	-0.270889	-0.263727
O16	O	1.367041	0.229111	0.236273
O17	O	1.045520	-0.570201	-0.263781
O18	O	1.545520	-0.070201	0.236219
O19	O	0.944015	-0.270832	-0.340722
O20	O	1.444015	0.229168	0.159278
O21	O	0.866991	-0.441253	-0.162138
O22	O	1.366991	0.058747	0.337862
O23	O	0.765436	-0.441245	-0.263666
O24	O	1.265436	0.058755	0.236334
O25	O	0.867018	-0.570187	-0.442235
O26	O	1.367018	-0.070187	0.057765
O27	O	0.765426	-0.570263	-0.340616
O28	O	1.265426	-0.070263	0.159384
O29	O	0.944002	-0.441111	-0.442280
O30	O	1.444002	0.058889	0.057720
O31	O	0.943915	-0.740557	-0.263721
O32	O	1.443915	-0.240557	0.236279
O33	O	0.866968	-0.740551	-0.340647
O34	O	1.366968	-0.240551	0.159353
C35	C	0.742697	-0.505763	-0.302131
C36	C	1.242697	-0.005763	0.197869
C37	C	0.673056	-0.505812	-0.302115
C38	C	1.173056	-0.005812	0.197885
C39	C	0.640354	-0.573081	-0.342123
C40	C	1.140354	-0.073081	0.157877
C41	C	0.574919	-0.573055	-0.342150
C42	C	1.074919	-0.073055	0.157850
C43	C	0.542188	-0.505771	-0.302160
C44	C	1.042188	-0.005771	0.197840
C45	C	0.574897	-0.438489	-0.262149
C46	C	1.074897	0.061511	0.237851
C47	C	0.640331	-0.438510	-0.262127
C48	C	1.140331	0.061490	0.237873
C49	C	0.438469	-0.497323	-0.245754
C50	C	0.938469	0.002677	0.254246
C51	C	0.373036	-0.497311	-0.245775
C52	C	0.873036	0.002689	0.254225
C53	C	0.340367	-0.505703	-0.302229
C54	C	0.840367	-0.005703	0.197771
C55	C	0.373138	-0.514130	-0.358663
C56	C	0.873138	-0.014130	0.141337
C57	C	0.438573	-0.514150	-0.358641
C58	C	0.938573	-0.014150	0.141359
C59	C	0.471235	-0.505741	-0.302180
C60	C	0.971235	-0.005741	0.197820
C61	C	0.236712	-0.572947	-0.342270
C62	C	0.736712	-0.072947	0.157730
C63	C	0.171276	-0.572914	-0.342299
C64	C	0.671276	-0.072914	0.157701
C65	C	0.171256	-0.438354	-0.262292
C66	C	0.671256	0.061646	0.237708
C67	C	0.236691	-0.438382	-0.262269
C68	C	0.736691	0.061618	0.237731
C69	C	0.269416	-0.505684	-0.302257
C70	C	0.769416	-0.005684	0.197743
C71	C	0.905452	-0.778674	-0.302194
C72	C	1.405452	-0.278674	0.197806
C73	C	0.905495	-0.895451	-0.302211
C74	C	1.405495	-0.395451	0.197789
C75	C	0.945556	-0.950203	-0.342335
C76	C	1.445556	-0.450203	0.157665
C77	C	0.945585	-1.059927	-0.342350
C78	C	1.445585	-0.559927	0.157650
C79	C	0.865491	-1.060137	-0.262112
C80	C	1.365491	-0.560137	0.237888
C81	C	0.865459	-0.950415	-0.262100
C82	C	1.365459	-0.450415	0.237900
C83	C	0.985591	-0.895239	-0.382446
C84	C	1.485591	-0.395239	0.117554
C85	C	1.025656	-0.949992	-0.422573
C86	C	1.525656	-0.449992	0.077427
C87	C	1.025685	-1.059716	-0.422588
C88	C	1.525685	-0.559716	0.077412
C89	C	0.985650	-1.114687	-0.382476
C90	C	1.485650	-0.614687	0.117524
C91	C	1.068908	-0.505652	-0.302277
C92	C	1.568908	-0.005652	0.197723
C93	C	1.138549	-0.505629	-0.302308
C94	C	1.638549	-0.005629	0.197692
C95	C	0.905514	-0.505640	-0.465627
C96	C	1.405514	-0.005640	0.034373
C97	C	0.905526	-0.505611	-0.535268
C98	C	1.405526	-0.005611	-0.035268
C99	C	0.905535	-0.231674	-0.302228
C100	C	1.405535	0.268326	0.197772
C101	C	0.905556	-0.114897	-0.302238
C102	C	1.405556	0.385103	0.197762
C103	C	0.945671	-0.438234	-1.037090
C104	C	1.445671	0.061766	-0.537090
C105	C	0.945666	-0.438259	-0.971654
C106	C	1.445666	0.061741	-0.471654
C107	C	0.905580	-0.505471	-0.938907
C108	C	1.405580	-0.005471	-0.438907
C109	C	0.865507	-0.572682	-0.971601
C110	C	1.365507	-0.072682	-0.471601
C111	C	0.865518	-0.572662	-1.037035
C112	C	1.365518	-0.072662	-0.537035
C113	C	0.849112	-0.513817	-0.835212
C114	C	1.349112	-0.013817	-0.335212
C115	C	0.849101	-0.513830	-0.769779
C116	C	1.349101	-0.013830	-0.269779
C117	C	0.905548	-0.505538	-0.737086
C118	C	1.405548	-0.005538	-0.237086
C119	C	0.962008	-0.497212	-0.769834
C120	C	1.462008	0.002788	-0.269834
C121	C	0.962019	-0.497192	-0.835268
C122	C	1.462019	0.002808	-0.335268
C123	C	0.905564	-0.505500	-0.867955
C124	C	1.405564	-0.005500	-0.367955
C125	C	0.945616	-0.438364	-0.633448
C126	C	1.445616	0.061636	-0.133448
C127	C	0.945612	-0.438397	-0.568011
C128	C	1.445612	0.061603	-0.068011
C129	C	0.865448	-0.572814	-0.567959
C130	C	1.365448	-0.072814	-0.067959
C131	C	0.865457	-0.572787	-0.633394
C132	C	1.365457	-0.072787	-0.133394
C133	C	0.905540	-0.505556	-0.666135
C134	C	1.405540	-0.005556	-0.166135
C135	C	0.905492	-0.505699	-0.139416
C136	C	1.405492	-0.005699	0.360584
C137	C	0.905601	-0.505431	-0.069775
C138	C	1.405601	-0.005431	0.430225
H139	H	0.346540	-0.520962	-0.404633
H140	H	0.846540	-0.020962	0.095367
Br141	Br	0.482800	-0.485934	-0.169131
Br142	Br	0.982800	0.014066	0.330869
H143	H	0.144607	-0.383566	-0.229734
H144	H	0.644607	0.116434	0.270266
Br145	Br	0.985794	-1.263600	-0.382394
Br146	Br	1.485794	-0.763600	0.117606
H147	H	0.803143	-0.520571	-0.861826
H148	H	1.303143	-0.020571	-0.361826
Br149	Br	0.811108	-0.663905	-0.927160
Br150	Br	1.311108	-0.163905	-0.427160
H151	H	1.058302	-1.104292	-0.455266
H152	H	1.558302	-0.604292	0.044734
Br153	Br	0.811092	-0.876101	-0.207644
Br154	Br	1.311092	-0.376101	0.292356
Br155	Br	0.811161	-1.134741	-0.207678
Br156	Br	1.311161	-0.634741	0.292322
Br157	Br	0.999999	-0.347103	-0.677885
Br158	Br	1.499999	0.152897	-0.177885
H159	H	0.978312	-0.383494	-1.063743
H160	H	1.478312	0.116506	-0.563743
H161	H	0.144651	-0.627690	-0.374882
H162	H	0.644651	-0.127690	0.125118
H163	H	0.978295	-0.383535	-0.945036
H164	H	1.478295	0.116465	-0.445036
Br165	Br	1.038639	-0.485907	-0.879710
Br166	Br	1.538639	0.014093	-0.379710
H167	H	0.985573	-0.805896	-0.382436
H168	H	1.485573	-0.305896	0.117564
Br169	Br	0.811134	-0.663868	-1.081397
Br170	Br	1.311134	-0.163868	-0.581397
Br171	Br	0.811053	-0.664048	-0.523523
Br172	Br	1.311053	-0.164048	-0.023523
Br173	Br	0.530527	-0.664353	-0.396452
Br174	Br	1.030527	-0.164353	0.103548
H175	H	0.263317	-0.383609	-0.229687
H176	H	0.763317	0.116391	0.270313
H177	H	0.465253	-0.521009	-0.404591
H178	H	0.965253	-0.021009	0.095409
H179	H	0.978246	-0.383679	-0.541400
H180	H	1.478246	0.116321	-0.041400
H181	H	0.263358	-0.627743	-0.374834
H182	H	0.763358	-0.127743	0.125166
Br183	Br	0.811074	-0.663989	-0.677757
Br184	Br	1.311074	-0.163989	-0.177757
Br185	Br	0.328567	-0.485876	-0.169187
Br186	Br	0.828567	0.014124	0.330813
H187	H	0.548243	-0.383705	-0.229589
H188	H	1.048243	0.116295	0.270411
Br189	Br	0.684716	-0.347207	-0.207828
Br190	Br	1.184716	0.152793	0.292172
H191	H	0.666994	-0.627882	-0.374685
H192	H	1.166994	-0.127882	0.125315
Br193	Br	0.772477	-0.525114	-0.725343
Br194	Br	1.272477	-0.025114	-0.225343
H195	H	1.058247	-0.905228	-0.455234
H196	H	1.558247	-0.405228	0.044766
H197	H	1.007972	-0.490456	-0.743217
H198	H	1.507972	0.009544	-0.243217
