data_functionalizedCrystal
_audit_creation_method	'MofGen! by Chris Wilmer'
_symmetry_space_group_name_H-M	'P1'
_symmetry_Int_Tables_number	1
_symmetry_cell_setting	triclinic
loop_
_symmetry_equiv_pos_as_xyz
  x,y,z
_cell_length_a	9.065215
_cell_length_b	14.519709
_cell_length_c	12.996460
_cell_angle_alpha	90.007090
_cell_angle_beta	90.005021
_cell_angle_gamma	84.347421
loop_
_atom_site_label
_atom_site_type_symbol
_atom_site_fract_x
_atom_site_fract_y
_atom_site_fract_z
O1	O	1.957872	0.135216	0.085558
O2	O	2.207872	0.385216	0.335558
O3	O	2.457872	0.635216	0.585558
O4	O	2.707872	0.885216	0.835558
O5	O	1.528379	0.146310	0.085562
O6	O	1.778379	0.396310	0.335562
O7	O	2.028379	0.646310	0.585562
O8	O	2.278379	0.896310	0.835562
O9	O	1.754513	0.006608	0.085551
O10	O	2.004513	0.256608	0.335551
O11	O	2.254513	0.506608	0.585551
O12	O	2.504513	0.756608	0.835551
O13	O	1.731738	0.274918	0.085569
O14	O	1.981738	0.524918	0.335569
O15	O	2.231738	0.774918	0.585569
O16	O	2.481738	1.024918	0.835569
O17	O	1.754489	0.006600	-0.085583
O18	O	2.004489	0.256600	0.164417
O19	O	2.254489	0.506600	0.414417
O20	O	2.504489	0.756600	0.664417
O21	O	1.528355	0.146302	-0.085571
O22	O	1.778355	0.396302	0.164429
O23	O	2.028355	0.646302	0.414429
O24	O	2.278355	0.896302	0.664429
O25	O	1.957848	0.135208	-0.085576
O26	O	2.207848	0.385208	0.164424
O27	O	2.457848	0.635208	0.414424
O28	O	2.707848	0.885208	0.664424
Cu29	Cu	1.743100	0.140754	-0.101200
Cu30	Cu	1.993100	0.390754	0.148800
Cu31	Cu	2.243100	0.640754	0.398800
Cu32	Cu	2.493100	0.890754	0.648800
Cu33	Cu	1.743127	0.140764	0.101186
Cu34	Cu	1.993127	0.390764	0.351186
Cu35	Cu	2.243127	0.640764	0.601186
Cu36	Cu	2.493127	0.890764	0.851186
O37	O	1.731714	0.274910	-0.085564
O38	O	1.981714	0.524910	0.164436
O39	O	2.231714	0.774910	0.414436
O40	O	2.481714	1.024910	0.664436
C41	C	1.473400	0.145241	-0.000004
C42	C	1.723400	0.395241	0.249996
C43	C	1.973400	0.645241	0.499996
C44	C	2.223400	0.895241	0.749996
C45	C	1.309617	0.142054	-0.000002
C46	C	1.559617	0.392054	0.249998
C47	C	1.809617	0.642054	0.499998
C48	C	2.059617	0.892054	0.749998
C49	C	1.753439	-0.027764	-0.000016
C50	C	2.003439	0.222236	0.249984
C51	C	2.253439	0.472236	0.499984
C52	C	2.503439	0.722236	0.749984
C53	C	1.750259	-0.130168	-0.000017
C54	C	2.000259	0.119832	0.249983
C55	C	2.250259	0.369832	0.499983
C56	C	2.500259	0.619832	0.749983
C57	C	1.738550	-0.505150	0.000010
C58	C	1.988550	-0.255150	0.250010
C59	C	2.238550	-0.005150	0.500010
C60	C	2.488550	0.244850	0.750010
C61	C	1.741801	-0.400818	0.000002
C62	C	1.991801	-0.150818	0.250002
C63	C	2.241801	0.099182	0.500002
C64	C	2.491801	0.349182	0.750002
C65	C	1.744404	-0.317662	-0.000005
C66	C	1.994404	-0.067662	0.249995
C67	C	2.244404	0.182338	0.499995
C68	C	2.494404	0.432338	0.749995
C69	C	1.747656	-0.213324	-0.000010
C70	C	1.997656	0.036676	0.249990
C71	C	2.247656	0.286676	0.499990
C72	C	2.497656	0.536676	0.749990
C73	C	2.012827	0.136277	-0.000008
C74	C	2.262827	0.386277	0.249992
C75	C	2.512827	0.636277	0.499992
C76	C	2.762827	0.886277	0.749992
C77	C	2.176610	0.139464	-0.000002
C78	C	2.426610	0.389464	0.249998
C79	C	2.676610	0.639464	0.499998
C80	C	2.926610	0.889464	0.749998
C81	C	1.732788	0.309282	0.000005
C82	C	1.982788	0.559282	0.250005
C83	C	2.232788	0.809282	0.500005
C84	C	2.482788	1.059282	0.750005
C85	C	1.735968	0.411686	0.000012
C86	C	1.985968	0.661686	0.250012
C87	C	2.235968	0.911686	0.500012
C88	C	2.485968	1.161686	0.750012
N89	N	1.743091	0.140747	-0.243547
N90	N	1.993091	0.390747	0.006453
N91	N	2.243091	0.640747	0.256453
N92	N	2.493091	0.890747	0.506453
C93	C	1.743125	0.140765	-0.663361
C94	C	1.993125	0.390765	-0.413361
C95	C	2.243125	0.640765	-0.163361
C96	C	2.493125	0.890765	0.086639
C97	C	1.743111	0.140763	-0.546556
C98	C	1.993111	0.390763	-0.296556
C99	C	2.243111	0.640763	-0.046556
C100	C	2.493111	0.890763	0.203444
C101	C	1.743109	0.140757	-0.453458
C102	C	1.993109	0.390757	-0.203458
C103	C	2.243109	0.640757	0.046542
C104	C	2.493109	0.890757	0.296542
C105	C	1.743093	0.140753	-0.336645
C106	C	1.993093	0.390753	-0.086645
C107	C	2.243093	0.640753	0.163355
C108	C	2.493093	0.890753	0.413355
N109	N	1.743148	0.140764	0.243533
N110	N	1.993148	0.390764	0.493533
N111	N	2.243148	0.640764	0.743533
N112	N	2.493148	0.890764	0.993533
