data_functionalizedCrystal
_audit_creation_method	'MofGen! by Chris Wilmer'
_symmetry_space_group_name_H-M	'P1'
_symmetry_Int_Tables_number	1
_symmetry_cell_setting	triclinic
loop_
_symmetry_equiv_pos_as_xyz
  x,y,z
_cell_length_a	17.077404
_cell_length_b	18.215405
_cell_length_c	17.077396
_cell_angle_alpha	89.968409
_cell_angle_beta	89.980499
_cell_angle_gamma	90.025110
loop_
_atom_site_label
_atom_site_type_symbol
_atom_site_fract_x
_atom_site_fract_y
_atom_site_fract_z
Zn1	Zn	1.200044	-0.292980	-0.443826
Zn2	Zn	1.533377	0.040353	-0.110492
Zn3	Zn	1.866710	0.373687	0.222841
Zn4	Zn	1.199946	-0.416053	-0.312553
Zn5	Zn	1.533280	-0.082720	0.020781
Zn6	Zn	1.866613	0.250613	0.354114
Zn7	Zn	1.068776	-0.293006	-0.312574
Zn8	Zn	1.402109	0.040328	0.020760
Zn9	Zn	1.735442	0.373661	0.354093
Zn10	Zn	1.068739	-0.416010	-0.443776
Zn11	Zn	1.402072	-0.082676	-0.110443
Zn12	Zn	1.735406	0.250657	0.222890
O13	O	1.134376	-0.354512	-0.378182
O14	O	1.467709	-0.021179	-0.044849
O15	O	1.801043	0.312155	0.288485
O16	O	1.309878	-0.309313	-0.426424
O17	O	1.643211	0.024020	-0.093091
O18	O	1.976544	0.357353	0.240243
O19	O	1.182521	-0.399760	-0.202708
O20	O	1.515854	-0.066427	0.130625
O21	O	1.849187	0.266907	0.463958
O22	O	1.086245	-0.190018	-0.330014
O23	O	1.419578	0.143315	0.003319
O24	O	1.752911	0.476649	0.336653
O25	O	1.309806	-0.399735	-0.329978
O26	O	1.643139	-0.066402	0.003355
O27	O	1.976473	0.266932	0.336688
O28	O	1.182687	-0.189999	-0.426444
O29	O	1.516020	0.143334	-0.093111
O30	O	1.849353	0.476668	0.240222
O31	O	1.086150	-0.309357	-0.202724
O32	O	1.419483	0.023976	0.130609
O33	O	1.752817	0.357309	0.463943
O34	O	0.958924	-0.309315	-0.329966
O35	O	1.292257	0.024018	0.003367
O36	O	1.625590	0.357352	0.336701
O37	O	1.086182	-0.399660	-0.553630
O38	O	1.419516	-0.066327	-0.220296
O39	O	1.752849	0.267006	0.113037
O40	O	0.958897	-0.399685	-0.426360
O41	O	1.292230	-0.066352	-0.093027
O42	O	1.625564	0.266981	0.240307
O43	O	1.182651	-0.309271	-0.553666
O44	O	1.515985	0.024062	-0.220333
O45	O	1.849318	0.357396	0.113001
O46	O	1.182485	-0.519032	-0.329930
O47	O	1.515819	-0.185699	0.003403
O48	O	1.849152	0.147635	0.336737
O49	O	1.086088	-0.519000	-0.426340
O50	O	1.419421	-0.185666	-0.093006
O51	O	1.752754	0.147667	0.240327
C52	C	0.930428	-0.354499	-0.378160
C53	C	1.263762	-0.021165	-0.044827
C54	C	1.597095	0.312168	0.288506
C55	C	0.843178	-0.354511	-0.378170
C56	C	1.176512	-0.021178	-0.044836
C57	C	1.509845	0.312156	0.288497
C58	C	0.802195	-0.401638	-0.428282
C59	C	1.135528	-0.068304	-0.094948
C60	C	1.468861	0.265029	0.238385
C61	C	0.720214	-0.401639	-0.428294
C62	C	1.053548	-0.068306	-0.094961
C63	C	1.386881	0.265027	0.238373
C64	C	0.679219	-0.354517	-0.378190
C65	C	1.012552	-0.021184	-0.044857
C66	C	1.345886	0.312149	0.288476
C67	C	0.720208	-0.307385	-0.328076
C68	C	1.053542	0.025948	0.005257
C69	C	1.386875	0.359282	0.338590
C70	C	0.802187	-0.307380	-0.328068
C71	C	1.135521	0.025953	0.005265
C72	C	1.468854	0.359286	0.338598
C73	C	0.549338	-0.307400	-0.328095
C74	C	0.882672	0.025934	0.005238
C75	C	1.216005	0.359267	0.338571
C76	C	0.467354	-0.307405	-0.328102
C77	C	0.800687	0.025928	0.005231
C78	C	1.134020	0.359262	0.338565
C79	C	0.467365	-0.401659	-0.428321
C80	C	0.800699	-0.068325	-0.094988
C81	C	1.134032	0.265008	0.238346
C82	C	0.549344	-0.401654	-0.428313
C83	C	0.882678	-0.068321	-0.094980
C84	C	1.216011	0.265013	0.238354
C85	C	0.590328	-0.354522	-0.378198
C86	C	0.923661	-0.021189	-0.044864
C87	C	1.256995	0.312144	0.288469
C88	C	1.134293	-0.545718	-0.378144
C89	C	1.467627	-0.212385	-0.044811
C90	C	1.800960	0.120948	0.288522
C91	C	1.134330	-0.627517	-0.378154
C92	C	1.467663	-0.294184	-0.044821
C93	C	1.800996	0.039149	0.288512
C94	C	1.184642	-0.815703	-0.328046
C95	C	1.517975	-0.482370	0.005287
C96	C	1.851308	-0.149037	0.338620
C97	C	1.184677	-0.892562	-0.328065
C98	C	1.518010	-0.559229	0.005268
C99	C	1.851343	-0.225896	0.338601
C100	C	1.084211	-0.892569	-0.428374
C101	C	1.417544	-0.559235	-0.095041
C102	C	1.750878	-0.225902	0.238293
C103	C	1.084180	-0.815711	-0.428359
C104	C	1.417514	-0.482378	-0.095025
C105	C	1.750847	-0.149045	0.238308
C106	C	1.134395	-0.777281	-0.378190
C107	C	1.467728	-0.443947	-0.044857
C108	C	1.801061	-0.110614	0.288476
C109	C	1.134460	-0.930997	-0.378225
C110	C	1.467794	-0.597663	-0.044892
C111	C	1.801127	-0.264330	0.288442
C112	C	1.134498	-1.014330	-0.378246
C113	C	1.467831	-0.680997	-0.044912
C114	C	1.801165	-0.347664	0.288421
C115	C	1.134358	-0.693942	-0.378170
C116	C	1.467691	-0.360609	-0.044837
C117	C	1.801025	-0.027275	0.288497
C118	C	1.339120	-0.354526	-0.378204
C119	C	1.672454	-0.021193	-0.044871
C120	C	2.005787	0.312141	0.288462
C121	C	1.426370	-0.354532	-0.378214
C122	C	1.759703	-0.021199	-0.044880
C123	C	2.093037	0.312135	0.288453
C124	C	1.134424	-0.354458	-0.582926
C125	C	1.467757	-0.021125	-0.249593
C126	C	1.801090	0.312209	0.083740
C127	C	1.134444	-0.354435	-0.670176
C128	C	1.467777	-0.021101	-0.336843
C129	C	1.801111	0.312232	-0.003510
C130	C	1.134481	-0.162559	-0.378237
C131	C	1.467814	0.170774	-0.044904
C132	C	1.801147	0.504107	0.288430
C133	C	1.134525	-0.080760	-0.378261
C134	C	1.467859	0.252573	-0.044927
C135	C	1.801192	0.585906	0.288406
C136	C	1.184677	-0.307365	-0.711187
C137	C	1.518010	0.025968	-0.377853
C138	C	1.851344	0.359302	-0.044520
C139	C	1.184687	-0.307341	-0.793167
C140	C	1.518020	0.025993	-0.459834
C141	C	1.851353	0.359326	-0.126501
C142	C	1.134466	-0.354390	-0.834136
C143	C	1.467799	-0.021057	-0.500802
C144	C	1.801133	0.312277	-0.167469
C145	C	1.084227	-0.401462	-0.793120
C146	C	1.417561	-0.068129	-0.459786
C147	C	1.750894	0.265205	-0.126453
C148	C	1.084214	-0.401482	-0.711141
C149	C	1.417548	-0.068149	-0.377807
C150	C	1.750881	0.265185	-0.044474
C151	C	1.084259	-0.401418	-0.963990
C152	C	1.417592	-0.068084	-0.630656
C153	C	1.750926	0.265249	-0.297323
C154	C	1.084273	-0.401399	-1.045974
C155	C	1.417606	-0.068065	-0.712641
C156	C	1.750939	0.265268	-0.379308
C157	C	1.184731	-0.307276	-1.046016
C158	C	1.518064	0.026057	-0.712683
C159	C	1.851398	0.359391	-0.379350
C160	C	1.184718	-0.307296	-0.964037
C161	C	1.518051	0.026037	-0.630704
C162	C	1.851385	0.359370	-0.297371
C163	C	1.134480	-0.354369	-0.923027
C164	C	1.467814	-0.021036	-0.589694
C165	C	1.801147	0.312297	-0.256360
C166	C	1.134374	-0.354513	-0.174234
C167	C	1.467707	-0.021180	0.159099
C168	C	1.801041	0.312154	0.492432
C169	C	1.134506	-0.354329	-0.086985
C170	C	1.467839	-0.020996	0.246348
C171	C	1.801172	0.312338	0.579682
H172	H	0.433993	-0.440032	-0.469129
H173	H	0.767326	-0.106699	-0.135796
H174	H	1.100659	0.226634	0.197538
F175	F	0.845818	-0.451796	-0.481606
F176	F	1.179151	-0.118463	-0.148273
F177	F	1.512485	0.214871	0.185061
F178	F	1.238199	-0.257178	-1.089663
F179	F	1.571532	0.076156	-0.756330
F180	F	1.904866	0.409489	-0.422997
F181	F	1.030816	-0.451468	-1.089575
F182	F	1.364149	-0.118134	-0.756242
F183	F	1.697483	0.215199	-0.422908
H184	H	1.043327	-0.923868	-0.469218
H185	H	1.376661	-0.590535	-0.135885
H186	H	1.709994	-0.257202	0.197448
F187	F	1.030788	-0.451517	-0.920345
F188	F	1.364121	-0.118183	-0.587012
F189	F	1.697455	0.215150	-0.253679
H190	H	0.835555	-0.269001	-0.287266
H191	H	1.168889	0.064332	0.046067
H192	H	1.502222	0.397666	0.379400
F193	F	1.238179	-0.257268	-0.836810
F194	F	1.571512	0.076066	-0.503477
F195	F	1.904845	0.409399	-0.170143
H196	H	0.686849	-0.440016	-0.469099
H197	H	1.020182	-0.106682	-0.135766
H198	H	1.353516	0.226651	0.197567
H199	H	1.043263	-0.784426	-0.469195
H200	H	1.376597	-0.451092	-0.135862
H201	H	1.709930	-0.117759	0.197471
H202	H	0.582705	-0.269014	-0.287293
H203	H	0.916038	0.064320	0.046040
H204	H	1.249371	0.397653	0.379374
H205	H	1.225575	-0.269054	-0.677836
H206	H	1.558908	0.064279	-0.344503
H207	H	1.892242	0.397613	-0.011169
H208	H	1.225530	-0.784415	-0.287197
H209	H	1.558863	-0.451082	0.046136
H210	H	1.892197	-0.117748	0.379469
H211	H	0.582721	-0.440029	-0.469108
H212	H	0.916054	-0.106696	-0.135774
H213	H	1.249387	0.226638	0.197559
F214	F	0.423725	-0.257255	-0.274773
F215	F	0.757058	0.076078	0.058560
F216	F	1.090392	0.409411	0.391894
H217	H	1.225594	-0.923843	-0.287234
H218	H	1.558927	-0.590509	0.046099
H219	H	1.892261	-0.257176	0.379432
H220	H	0.686823	-0.269014	-0.287284
H221	H	1.020157	0.064319	0.046049
H222	H	1.353490	0.397652	0.379382
H223	H	1.225616	-0.268989	-0.930683
H224	H	1.558950	0.064345	-0.597350
H225	H	1.892283	0.397678	-0.264016
F226	F	1.030747	-0.451578	-0.667495
F227	F	1.364081	-0.118245	-0.334161
F228	F	1.697414	0.215088	-0.000828
H229	H	1.043334	-0.439768	-0.826483
H230	H	1.376667	-0.106434	-0.493150
H231	H	1.710001	0.226899	-0.159816
