data_functionalizedCrystal
_audit_creation_method	'MofGen! by Chris Wilmer'
_symmetry_space_group_name_H-M	'P1'
_symmetry_Int_Tables_number	1
_symmetry_cell_setting	triclinic
loop_
_symmetry_equiv_pos_as_xyz
  x,y,z
_cell_length_a	14.853567
_cell_length_b	9.016244
_cell_length_c	14.853567
_cell_angle_alpha	89.998439
_cell_angle_beta	83.634930
_cell_angle_gamma	90.004370
loop_
_atom_site_label
_atom_site_type_symbol
_atom_site_fract_x
_atom_site_fract_y
_atom_site_fract_z
O1	O	1.196369	0.123225	0.117700
O2	O	0.933909	0.123249	0.131722
O3	O	1.072150	0.123241	-0.006519
O4	O	1.058128	0.123233	0.255941
O5	O	1.072130	-0.123440	-0.006515
O6	O	0.933889	-0.123432	0.131725
O7	O	1.196349	-0.123456	0.117704
Cu8	Cu	1.065117	-0.145968	0.124715
Cu9	Cu	1.065141	0.145761	0.124711
O10	O	1.058108	-0.123447	0.255944
C11	C	0.900311	-0.000088	0.131088
C12	C	0.800227	-0.000078	0.129184
N13	N	1.065107	-0.351154	0.124717
C14	C	0.387693	-0.000109	0.039019
C15	C	0.366412	-0.000112	0.203251
C16	C	0.460446	-0.000108	0.205042
C17	C	0.518108	-0.000101	0.123819
C18	C	0.481736	-0.000100	0.040806
C19	C	0.496825	-0.000094	0.288053
C20	C	0.590864	-0.000088	0.289846
C21	C	0.648528	-0.000092	0.208623
C22	C	0.612150	-0.000092	0.125607
C23	C	0.669812	-0.000086	0.044384
C24	C	0.633437	-0.000097	-0.038633
C25	C	0.539399	-0.000104	-0.040417
C26	C	0.742565	-0.000085	0.210407
C27	C	0.763855	-0.000077	0.046172
C28	C	0.990934	-0.586182	0.198422
C29	C	0.991095	-0.414291	0.198694
C30	C	1.159203	-0.413502	0.145382
C31	C	1.158797	-0.585446	0.145903
C32	C	1.046122	-0.585692	0.030100
C33	C	1.043954	-0.413738	0.030731
C34	C	1.229947	-0.000115	0.118337
C35	C	1.330031	-0.000115	0.120241
C36	C	1.071504	-0.000095	-0.040106
C37	C	1.069601	-0.000082	-0.140189
N38	N	1.065158	0.350947	0.124702
C39	C	0.979435	-0.000102	-0.552723
C40	C	1.143668	-0.000117	-0.574004
C41	C	1.145458	-0.000108	-0.479971
C42	C	1.064235	-0.000099	-0.422309
C43	C	0.981223	-0.000098	-0.458680
C44	C	1.228469	-0.000124	-0.443591
C45	C	1.230262	-0.000117	-0.349552
C46	C	1.149039	-0.000097	-0.291889
C47	C	1.066023	-0.000095	-0.328266
C48	C	0.984800	-0.000085	-0.270604
C49	C	0.901783	-0.000072	-0.306979
C50	C	0.899999	-0.000078	-0.401017
C51	C	1.150823	-0.000091	-0.197851
C52	C	0.986588	-0.000081	-0.176561
C53	C	1.058754	-0.000108	0.289531
C54	C	1.060657	-0.000111	0.389615
H55	H	0.810798	-0.000077	-0.019971
H56	H	0.835652	-0.000075	-0.260019
H57	H	0.680397	-0.000081	-0.104764
H58	H	0.921156	-0.372140	0.186364
H59	H	0.772178	-0.000078	0.277998
N60	N	0.502228	-0.000114	-0.125202
N61	N	0.418264	-0.000114	-0.126783
H62	H	0.392007	-0.000117	-0.186662
N63	N	0.350557	-0.000134	-0.045785
N64	N	0.368194	-0.104115	-0.100564
H65	H	0.341967	-0.104135	-0.160459
H66	H	1.215754	-0.372601	0.093123
N67	N	0.307533	-0.000100	0.286224
N68	N	0.310919	0.103881	0.341405
H69	H	0.269335	0.103890	0.400010
N70	N	1.114002	-0.636698	-0.038741
N71	N	1.111155	-0.598625	-0.119295
H72	H	1.159097	-0.634655	-0.167909
N73	N	0.894629	-0.000084	-0.589856
N74	N	0.839853	0.103900	-0.572222
H75	H	0.779957	0.103912	-0.598445
N76	N	1.311422	-0.000147	-0.502502
N77	N	1.309810	-0.000142	-0.586461
H78	H	1.368398	-0.000155	-0.628072
H79	H	0.832411	-0.000069	-0.430643
N80	N	1.006366	-0.362638	0.286750
N81	N	1.009140	-0.226547	0.302255
H82	H	1.019929	-0.190065	0.364447
H83	H	1.209795	-0.000136	-0.620958
H84	H	1.002935	-0.629379	0.268227
N85	N	0.902921	-0.638105	0.183197
N86	N	0.893868	-0.722059	0.117841
H87	H	0.831706	-0.758738	0.107085
H88	H	1.218414	-0.000112	-0.168238
N89	N	1.180728	-0.359512	0.230959
N90	N	1.253340	-0.396729	0.259836
H91	H	1.268539	-0.358605	0.320278
N92	N	1.315065	-0.000132	-0.312415
N93	N	1.387577	-0.000145	-0.363909
H94	H	1.447471	-0.000152	-0.337681
H95	H	0.978996	-0.629133	0.010257
H96	H	1.094490	-0.370765	-0.026706
N97	N	0.437921	-0.000124	0.371009
N98	N	0.441287	-0.104105	0.426197
H99	H	0.399679	-0.104130	0.484787
N100	N	0.628014	-0.000125	0.374642
N101	N	0.678103	-0.104118	0.393961
H102	H	0.704341	-0.104153	0.453849
H103	H	1.175554	-0.625539	0.214899
H104	H	1.215760	-0.627032	0.094332
N105	N	0.957125	-0.362635	0.011038
N106	N	0.927428	-0.400186	-0.061110
H107	H	0.866103	-0.364091	-0.075017
N108	N	0.903610	-0.000051	-0.117677
N109	N	0.829501	-0.000031	-0.150169
H110	H	0.770897	-0.000007	-0.108584
