data_functionalizedCrystal
_audit_creation_method	'MofGen! by Chris Wilmer'
_symmetry_space_group_name_H-M	'P1'
_symmetry_Int_Tables_number	1
_symmetry_cell_setting	triclinic
loop_
_symmetry_equiv_pos_as_xyz
  x,y,z
_cell_length_a	23.532361
_cell_length_b	23.532407
_cell_length_c	9.130307
_cell_angle_alpha	89.992076
_cell_angle_beta	90.002768
_cell_angle_gamma	82.839173
loop_
_atom_site_label
_atom_site_type_symbol
_atom_site_fract_x
_atom_site_fract_y
_atom_site_fract_z
O1	O	0.755274	0.069008	-0.121667
O2	O	1.255274	0.569008	0.378333
O3	O	0.589407	0.079039	-0.121705
O4	O	1.089407	0.579039	0.378295
O5	O	0.677343	-0.008909	-0.121658
O6	O	1.177343	0.491091	0.378342
O7	O	0.667339	0.156956	-0.121714
O8	O	1.167339	0.656956	0.378286
O9	O	0.677340	-0.008910	0.121941
O10	O	1.177340	0.491090	0.621941
O11	O	0.589404	0.079038	0.121894
O12	O	1.089404	0.579038	0.621894
O13	O	0.755272	0.069007	0.121932
O14	O	1.255272	0.569007	0.621932
Cu15	Cu	0.672338	0.074022	0.144156
Cu16	Cu	1.172338	0.574022	0.644156
Cu17	Cu	0.672341	0.074023	-0.143928
Cu18	Cu	1.172341	0.574023	0.356072
O19	O	0.667336	0.156955	0.121885
O20	O	1.167336	0.656955	0.621885
C21	C	0.568189	0.078787	0.000091
C22	C	1.068189	0.578787	0.500091
C23	C	0.504971	0.078032	0.000078
C24	C	1.004971	0.578032	0.500078
C25	C	0.231729	0.074729	-0.132698
C26	C	0.731729	0.574729	0.367302
C27	C	0.291128	0.075444	-0.132702
C28	C	0.791128	0.575444	0.367298
O29	O	0.321856	0.075794	-0.245629
O30	O	0.821856	0.575794	0.254371
N31	N	0.320832	0.075804	0.000084
N32	N	0.820832	0.575804	0.500084
C33	C	0.291135	0.075444	0.132883
C34	C	0.791135	0.575444	0.632883
O35	O	0.321855	0.075816	0.245828
O36	O	0.821855	0.575816	0.745828
C37	C	0.231736	0.074725	0.132885
C38	C	0.731736	0.574725	0.632885
C39	C	0.202035	0.074370	0.000090
C40	C	0.702035	0.574370	0.500090
C41	C	0.202027	0.074373	-0.265482
C42	C	0.702027	0.574373	0.234518
C43	C	0.142631	0.073659	-0.265478
C44	C	0.642631	0.573659	0.234522
C45	C	0.112937	0.073301	-0.132690
C46	C	0.612937	0.573301	0.367310
C47	C	0.142639	0.073657	0.000095
C48	C	0.642639	0.573657	0.500095
C49	C	0.202040	0.074361	0.265682
C50	C	0.702040	0.574361	0.765682
C51	C	0.142638	0.073642	0.265673
C52	C	0.642638	0.573642	0.765673
C53	C	0.112936	0.073287	0.132878
C54	C	0.612936	0.573287	0.632878
C55	C	0.053549	0.072584	0.132888
C56	C	0.553549	0.572584	0.632888
N57	N	0.023845	0.072224	0.000101
N58	N	0.523845	0.572224	0.500101
C59	C	0.053539	0.072582	-0.132687
C60	C	0.553539	0.572582	0.367313
C61	C	0.415875	0.076953	0.132868
C62	C	0.915875	0.576953	0.632868
C63	C	0.475271	0.077676	0.132867
C64	C	0.975271	0.577676	0.632867
C65	C	0.475261	0.077675	-0.132718
C66	C	0.975261	0.577675	0.367282
C67	C	0.415863	0.076956	-0.132716
C68	C	0.915863	0.576956	0.367284
C69	C	0.386171	0.076593	0.000082
C70	C	0.886171	0.576593	0.500082
C71	C	-0.071197	0.071083	-0.132668
C72	C	0.428803	0.571083	0.367332
C73	C	-0.130598	0.070372	-0.132652
C74	C	0.369402	0.570372	0.367348
C75	C	-0.130582	0.070371	0.132933
C76	C	0.369418	0.570371	0.632933
C77	C	-0.071187	0.071085	0.132918
C78	C	0.428813	0.571085	0.632918
C79	C	-0.041495	0.071440	0.000105
C80	C	0.458505	0.571440	0.500105
O81	O	0.022784	0.072231	0.245757
O82	O	0.522784	0.572231	0.745757
O83	O	0.022813	0.072202	-0.245613
O84	O	0.522813	0.572202	0.254387
C85	C	0.677086	-0.030126	0.000145
C86	C	1.177086	0.469874	0.500145
C87	C	0.676320	-0.093343	0.000156
C88	C	1.176320	0.406657	0.500156
C89	C	0.723555	-0.492454	0.000087
C90	C	1.223555	0.007546	0.500087
C91	C	0.722844	-0.551854	0.000075
C92	C	1.222844	-0.051854	0.500075
O93	O	0.766630	-0.588606	0.000031
O94	O	1.266630	-0.088606	0.500031
N95	N	0.670566	-0.574471	0.000065
N96	N	1.170566	-0.074471	0.500065
C97	C	0.618997	-0.537685	0.000050
C98	C	1.118997	-0.037685	0.500050
O99	O	0.574465	-0.562377	0.000039
O100	O	1.074465	-0.062377	0.500039
C101	C	0.619709	-0.478286	0.000051
C102	C	1.119709	0.021714	0.500051
C103	C	0.671990	-0.455672	0.000077
C104	C	1.171990	0.044328	0.500077
C105	C	0.775832	-0.469839	0.000111
C106	C	1.275832	0.030161	0.500111
C107	C	0.776543	-0.410443	0.000125
C108	C	1.276543	0.089557	0.500125
C109	C	0.724977	-0.373662	0.000115
C110	C	1.224977	0.126338	0.500115
C111	C	0.672701	-0.396276	0.000091
C112	C	1.172701	0.103724	0.500091
C113	C	0.568140	-0.441501	0.000026
C114	C	1.068140	0.058499	0.500026
C115	C	0.568857	-0.382099	0.000026
C116	C	1.068857	0.117901	0.500026
C117	C	0.621137	-0.359485	0.000052
C118	C	1.121137	0.140515	0.500052
C119	C	0.621847	-0.300099	0.000095
C120	C	1.121847	0.199901	0.500095
N121	N	0.674124	-0.277481	0.000106
N122	N	1.174124	0.222519	0.500106
C123	C	0.725690	-0.314263	0.000115
C124	C	1.225690	0.185737	0.500115
C125	C	0.617505	-0.662427	0.000046
C126	C	1.117505	-0.162427	0.500046
C127	C	0.616793	-0.721825	0.000056
C128	C	1.116793	-0.221825	0.500056
C129	C	0.720640	-0.735990	0.000078
C130	C	1.220640	-0.235990	0.500078
C131	C	0.721352	-0.676591	0.000079
C132	C	1.221352	-0.176591	0.500079
C133	C	0.669783	-0.639810	0.000057
C134	C	1.169783	-0.139810	0.500057
C135	C	0.727179	-0.189526	0.000146
C136	C	1.227179	0.310474	0.500146
C137	C	0.727886	-0.130124	0.000166
C138	C	1.227886	0.369876	0.500166
C139	C	0.624039	-0.115965	0.000136
C140	C	1.124039	0.384035	0.500136
C141	C	0.623332	-0.175361	0.000124
C142	C	1.123332	0.324639	0.500124
C143	C	0.674907	-0.212141	0.000124
C144	C	1.174907	0.287859	0.500124
O145	O	0.578083	-0.263312	0.000133
O146	O	1.078083	0.236688	0.500133
O147	O	0.770214	-0.289562	0.000108
O148	O	1.270214	0.210438	0.500108
C149	C	0.776489	0.069258	0.000133
C150	C	1.276489	0.569258	0.500133
C151	C	0.839708	0.070014	0.000137
C152	C	1.339708	0.570014	0.500137
C153	C	0.667592	0.178171	0.000079
C154	C	1.167592	0.678171	0.500079
C155	C	0.668358	0.241388	0.000058
C156	C	1.168358	0.741388	0.500058
N157	N	0.672339	0.074021	0.346778
N158	N	1.172339	0.574021	0.846778
N159	N	0.672344	0.074020	-0.346551
N160	N	1.172344	0.574020	0.153449
C161	C	0.750238	-0.003835	0.346810
C162	C	1.250238	0.496165	0.846810
C163	C	0.789190	-0.042761	0.423492
C164	C	1.289190	0.457239	0.923492
C165	C	0.789196	-0.042762	0.576825
C166	C	1.289196	0.457238	1.076825
C167	C	0.750244	-0.003833	0.653480
C168	C	1.250244	0.496167	1.153480
C169	C	0.711291	0.035094	0.576798
C170	C	1.211291	0.535094	1.076798
C171	C	0.711290	0.035091	0.423461
C172	C	1.211290	0.535091	0.923461
C173	C	0.633391	0.112946	0.576766
C174	C	1.133391	0.612946	1.076766
C175	C	0.633387	0.112950	0.423433
C176	C	1.133387	0.612950	0.923433
C177	C	0.594439	0.151875	0.653421
C178	C	1.094439	0.651875	1.153421
C179	C	0.555488	0.190805	0.576739
C180	C	1.055488	0.690805	1.076739
C181	C	0.555484	0.190804	0.423396
C182	C	1.055484	0.690804	0.923396
C183	C	0.594434	0.151876	0.346751
C184	C	1.094434	0.651876	0.846751
H185	H	0.226213	0.074648	0.373818
H186	H	0.726213	0.574648	0.873818
H187	H	-0.047029	0.071373	-0.240816
H188	H	0.452971	0.571373	0.259184
H189	H	0.819115	-0.392037	0.000139
H190	H	1.319115	0.107963	0.500139
H191	H	0.820904	-0.074458	0.361066
H192	H	1.320904	0.425542	0.861066
H193	H	0.118453	0.073368	-0.373613
H194	H	0.618453	0.573368	0.126387
H195	H	0.750241	-0.003834	0.221957
H196	H	1.250241	0.496166	0.721957
H197	H	0.226198	0.074663	-0.373621
H198	H	0.726198	0.574663	0.126379
H199	H	0.118465	0.073351	0.373816
H200	H	0.618465	0.573351	0.873816
H201	H	0.499449	0.077966	-0.240842
H202	H	0.999449	0.577966	0.259158
H203	H	0.594443	0.151871	0.778273
H204	H	1.094443	0.651871	1.278273
H205	H	0.523773	0.222496	0.639160
H206	H	1.023773	0.722496	1.139160
H207	H	0.525567	-0.459902	-0.000003
H208	H	1.025567	0.040098	0.499997
H209	H	0.526862	-0.352154	0.000006
H210	H	1.026862	0.147846	0.500006
H211	H	-0.154770	0.070081	0.241046
H212	H	0.345230	0.570081	0.741046
H213	H	0.820913	-0.074461	0.639260
H214	H	1.320913	0.425539	1.139260
H215	H	0.750246	-0.003840	0.778332
H216	H	1.250246	0.496160	1.278332
H217	H	0.523762	0.222501	0.360969
H218	H	1.023762	0.722501	0.860969
H219	H	0.817825	-0.499782	0.000113
H220	H	1.317825	0.000218	0.500113
H221	H	0.763923	-0.658183	0.000098
H222	H	1.263923	-0.158183	0.500098
H223	H	0.499448	0.077975	0.241002
H224	H	0.999448	0.577975	0.741002
H225	H	0.575509	-0.632483	0.000041
H226	H	1.075509	-0.132483	0.500041
H227	H	0.594437	0.151874	0.221899
H228	H	1.094437	0.651874	0.721899
H229	H	0.574220	-0.740232	0.000060
H230	H	1.074220	-0.240232	0.500060
H231	H	0.762627	-0.765949	0.000080
H232	H	1.262627	-0.265949	0.500080
H233	H	-0.154779	0.070085	-0.240794
H234	H	0.345221	0.570085	0.259206
H235	H	0.391702	0.076665	0.241014
H236	H	0.891702	0.576665	0.741014
H237	H	0.391684	0.076667	-0.240850
H238	H	0.891684	0.576667	0.259150
H239	H	-0.047004	0.071385	0.241050
H240	H	0.452996	0.571385	0.741050
H241	H	0.770461	-0.111716	0.000191
H242	H	1.270461	0.388284	0.500191
H243	H	0.769176	-0.219466	0.000140
H244	H	1.269176	0.280534	0.500140
H245	H	0.582056	-0.086007	0.000133
H246	H	1.082056	0.413993	0.500133
H247	H	0.580761	-0.193774	0.000144
H248	H	1.080761	0.306226	0.500144
