data_functionalizedCrystal
_audit_creation_method	'MofGen! by Chris Wilmer'
_symmetry_space_group_name_H-M	'P1'
_symmetry_Int_Tables_number	1
_symmetry_cell_setting	triclinic
loop_
_symmetry_equiv_pos_as_xyz
  x,y,z
_cell_length_a	12.759401
_cell_length_b	13.032721
_cell_length_c	12.759393
_cell_angle_alpha	97.149226
_cell_angle_beta	89.979062
_cell_angle_gamma	97.205831
loop_
_atom_site_label
_atom_site_type_symbol
_atom_site_fract_x
_atom_site_fract_y
_atom_site_fract_z
Zn1	Zn	1.553113	-0.415945	-0.647098
Zn2	Zn	2.053113	0.084055	-0.147098
Zn3	Zn	1.530669	-0.590725	-0.493722
Zn4	Zn	2.030669	-0.090725	0.006278
Zn5	Zn	1.377404	-0.416001	-0.471441
Zn6	Zn	1.877404	0.083999	0.028559
Zn7	Zn	1.355078	-0.590652	-0.669350
Zn8	Zn	1.855078	-0.090652	-0.169350
O9	O	1.454066	-0.503331	-0.570403
O10	O	1.954066	-0.003331	-0.070403
O11	O	1.697156	-0.439137	-0.626765
O12	O	2.197156	0.060863	-0.126765
O13	O	1.510289	-0.567601	-0.343752
O14	O	2.010289	-0.067601	0.156248
O15	O	1.419449	-0.269756	-0.476105
O16	O	1.919449	0.230244	0.023895
O17	O	1.680666	-0.567547	-0.514080
O18	O	2.180666	-0.067547	-0.014080
O19	O	1.548541	-0.269715	-0.605160
O20	O	2.048541	0.230285	-0.105160
O21	O	1.397686	-0.439232	-0.327382
O22	O	1.897686	0.060768	0.172618
O23	O	1.227423	-0.439161	-0.497681
O24	O	1.727423	0.060839	0.002319
O25	O	1.381397	-0.567423	-0.813412
O26	O	1.881397	-0.067423	-0.313412
O27	O	1.211019	-0.567477	-0.643084
O28	O	1.711019	-0.067477	-0.143084
O29	O	1.526892	-0.439067	-0.797064
O30	O	2.026892	0.060933	-0.297064
O31	O	1.488640	-0.736953	-0.535656
O32	O	1.988640	-0.236953	-0.035656
O33	O	1.359634	-0.736899	-0.664689
O34	O	1.859634	-0.236899	-0.164689
C35	C	1.181100	-0.503318	-0.570380
C36	C	1.681100	-0.003318	-0.070380
C37	C	1.064321	-0.503338	-0.570399
C38	C	1.564321	-0.003338	-0.070399
C39	C	1.000932	-0.570253	-0.646017
C40	C	1.500932	-0.070253	-0.146017
C41	C	0.891208	-0.570257	-0.646038
C42	C	1.391208	-0.070257	-0.146038
C43	C	0.908271	-0.436427	-0.494813
C44	C	1.408271	0.063573	0.005187
C45	C	1.017994	-0.436419	-0.494797
C46	C	1.517994	0.063581	0.005203
C47	C	1.419307	-0.774844	-0.605028
C48	C	1.919307	-0.274844	-0.105028
C49	C	1.404533	-0.890999	-0.619876
C50	C	1.904533	-0.390999	-0.119876
C51	C	1.461832	-0.942776	-0.562700
C52	C	1.961832	-0.442776	-0.062700
C53	C	1.446564	-1.062828	-0.578045
C54	C	1.946564	-0.562828	-0.078045
C55	C	1.728097	-0.503344	-0.570426
C56	C	2.228097	-0.003344	-0.070426
C57	C	1.844873	-0.503350	-0.570436
C58	C	2.344873	-0.003350	-0.070436
C59	C	1.454157	-0.503230	-0.844423
C60	C	1.954157	-0.003230	-0.344423
C61	C	1.454196	-0.503188	-0.961194
C62	C	1.954196	-0.003188	-0.461194
C63	C	1.488989	-0.230757	-0.535665
C64	C	1.988989	0.269243	-0.035665
C65	C	1.503872	-0.114602	-0.520862
C66	C	2.003872	0.385398	-0.020862
C67	C	1.529962	-0.436342	-1.007544
C68	C	2.029962	0.063658	-0.507544
C69	C	1.529986	-0.436297	-1.117263
C70	C	2.029986	0.063703	-0.617263
C71	C	1.378473	-0.569952	-1.134273
C72	C	1.878473	-0.069952	-0.634273
C73	C	1.378446	-0.569991	-1.024556
C74	C	1.878446	-0.069991	-0.524556
C75	C	1.454045	-0.503355	-0.297438
C76	C	1.954045	-0.003355	0.202562
C77	C	1.454247	-0.503104	-0.180630
C78	C	1.954247	-0.003104	0.319370
H79	H	1.038649	-0.624740	-0.707579
H80	H	1.538649	-0.124740	-0.207579
Cl81	Cl	1.097690	-0.352283	-0.399732
Cl82	Cl	1.597690	0.147717	0.100268
H83	H	1.591680	-0.381863	-1.154995
H84	H	2.091680	0.118137	-0.654995
Cl85	Cl	1.283184	-0.654027	-0.966282
Cl86	Cl	1.783184	-0.154027	-0.466282
Cl87	Cl	1.283255	-0.653935	-1.213934
Cl88	Cl	1.783255	-0.153935	-0.713934
H89	H	0.839601	-0.624745	-0.707616
H90	H	1.339601	-0.124745	-0.207616
Cl91	Cl	1.625187	-0.352356	-0.927893
Cl92	Cl	2.125187	0.147644	-0.427893
H93	H	0.870537	-0.381946	-0.433260
H94	H	1.370537	0.118054	0.066740
H95	H	1.522197	-0.898229	-0.502394
H96	H	2.022197	-0.398229	-0.002394
Cl97	Cl	1.597076	-1.045837	-0.427744
Cl98	Cl	2.097076	-0.545837	0.072256
Cl99	Cl	1.353372	-1.131596	-0.671173
Cl100	Cl	1.853372	-0.631596	-0.171173
Cl101	Cl	1.311345	-0.959770	-0.713000
Cl102	Cl	1.811345	-0.459770	-0.213000
