data_functionalizedCrystal
_audit_creation_method	'MofGen! by Chris Wilmer'
_symmetry_space_group_name_H-M	'P1'
_symmetry_Int_Tables_number	1
_symmetry_cell_setting	triclinic
loop_
_symmetry_equiv_pos_as_xyz
  x,y,z
_cell_length_a	19.805407
_cell_length_b	16.625545
_cell_length_c	19.805399
_cell_angle_alpha	90.025578
_cell_angle_beta	90.024201
_cell_angle_gamma	90.024805
loop_
_atom_site_label
_atom_site_type_symbol
_atom_site_fract_x
_atom_site_fract_y
_atom_site_fract_z
Zn1	Zn	1.034740	-0.321036	0.382813
Zn2	Zn	1.534740	0.178964	0.882813
Zn3	Zn	1.034656	-0.455874	0.269628
Zn4	Zn	1.534656	0.044126	0.769628
Zn5	Zn	0.921554	-0.321057	0.269628
Zn6	Zn	1.421554	0.178943	0.769628
Zn7	Zn	0.921520	-0.455829	0.382766
Zn8	Zn	1.421520	0.044171	0.882766
O9	O	0.978117	-0.388449	0.326209
O10	O	1.478117	0.111551	0.826209
O11	O	1.129445	-0.338933	0.367818
O12	O	1.629445	0.161067	0.867818
O13	O	1.019633	-0.438017	0.174912
O14	O	1.519633	0.061983	0.674912
O15	O	0.936618	-0.208222	0.284662
O16	O	1.436618	0.291778	0.784662
O17	O	1.129384	-0.437997	0.284662
O18	O	1.629384	0.062003	0.784662
O19	O	1.019775	-0.208207	0.367818
O20	O	1.519775	0.291793	0.867818
O21	O	0.936537	-0.338968	0.174912
O22	O	1.436537	0.161032	0.674912
O23	O	0.826833	-0.338925	0.284616
O24	O	1.326833	0.161075	0.784616
O25	O	0.936559	-0.437921	0.477489
O26	O	1.436559	0.062079	0.977489
O27	O	0.826808	-0.437941	0.367738
O28	O	1.326808	0.062059	0.867738
O29	O	1.019741	-0.338890	0.477523
O30	O	1.519741	0.161110	0.977523
O31	O	1.019599	-0.568700	0.284617
O32	O	1.519599	-0.068700	0.784617
O33	O	0.936478	-0.568667	0.367739
O34	O	1.436478	-0.068667	0.867739
C35	C	0.802261	-0.388431	0.326173
C36	C	1.302261	0.111569	0.826173
C37	C	0.727029	-0.388442	0.326173
C38	C	1.227029	0.111558	0.826173
C39	C	0.265243	-0.440104	0.369466
C40	C	0.765243	0.059896	0.869466
C41	C	0.335931	-0.440102	0.369451
C42	C	0.835931	0.059898	0.869451
C43	C	0.371268	-0.388468	0.326235
C44	C	0.871268	0.111532	0.826235
C45	C	0.335912	-0.336838	0.283026
C46	C	0.835912	0.163162	0.783026
C47	C	0.265225	-0.336844	0.283037
C48	C	0.765225	0.163156	0.783037
C49	C	0.620985	-0.336814	0.282978
C50	C	1.120985	0.163186	0.782978
C51	C	0.691677	-0.336810	0.282971
C52	C	1.191677	0.163190	0.782971
C53	C	0.691692	-0.440072	0.369392
C54	C	1.191692	0.059928	0.869392
C55	C	0.621005	-0.440078	0.369404
C56	C	1.121005	0.059922	0.869404
C57	C	0.585655	-0.388451	0.326192
C58	C	1.085655	0.111549	0.826192
C59	C	0.509007	-0.388454	0.326207
C60	C	1.009007	0.111546	0.826207
C61	C	0.447915	-0.388461	0.326223
C62	C	0.947915	0.111539	0.826223
C63	C	0.978044	-0.597940	0.326187
C64	C	1.478044	-0.097940	0.826187
C65	C	0.978074	-0.687561	0.326201
C66	C	1.478074	-0.187561	0.826201
C67	C	0.978101	-0.760343	0.326214
C68	C	1.478101	-0.260343	0.826214
C69	C	0.978140	-0.851652	0.326229
C70	C	1.478140	-0.351652	0.826229
C71	C	0.978175	-0.924428	0.326238
C72	C	1.478175	-0.424428	0.826238
C73	C	0.978214	-1.015743	0.326252
C74	C	1.478214	-0.515743	0.826252
C75	C	1.154660	-0.388468	0.326245
C76	C	1.654660	0.111532	0.826245
C77	C	1.229892	-0.388476	0.326261
C78	C	1.729892	0.111524	0.826261
C79	C	0.978155	-0.388398	0.502752
C80	C	1.478155	0.111602	1.002752
C81	C	0.978172	-0.388377	0.577984
C82	C	1.478172	0.111623	1.077984
C83	C	0.978210	-0.178140	0.326245
C84	C	1.478210	0.321860	0.826245
C85	C	0.978249	-0.088519	0.326260
C86	C	1.478249	0.411481	0.826260
C87	C	0.978119	-0.388441	0.150353
C88	C	1.478119	0.111559	0.650353
C89	C	0.978234	-0.388236	0.075121
C90	C	1.478234	0.111764	0.575121
C91	C	1.021486	-0.336808	0.613347
C92	C	1.521486	0.163192	1.113347
C93	C	1.021493	-0.336785	0.684035
C94	C	1.521493	0.163215	1.184035
C95	C	0.978188	-0.388334	0.719359
C96	C	1.478188	0.111666	1.219359
C97	C	0.934870	-0.439905	0.683991
C98	C	1.434870	0.060095	1.183991
C99	C	0.934860	-0.439924	0.613304
C100	C	1.434860	0.060076	1.113304
C101	C	0.934908	-0.439830	0.969065
C102	C	1.434908	0.060170	1.469065
C103	C	0.934922	-0.439809	1.039757
C104	C	1.434922	0.060191	1.539757
C105	C	1.021541	-0.336691	1.039796
C106	C	1.521541	0.163309	1.539796
C107	C	1.021531	-0.336710	0.969109
C108	C	1.521531	0.163290	1.469109
C109	C	0.978210	-0.388277	0.933747
C110	C	1.478210	0.111723	1.433747
C111	C	0.978202	-0.388301	0.857098
C112	C	1.478202	0.111699	1.357098
C113	C	0.978199	-0.388315	0.796006
C114	C	1.478199	0.111685	1.296006
H115	H	0.364711	-0.482145	0.404631
H116	H	0.864711	0.017855	0.904631
N117	N	0.888141	-0.495549	0.575167
N118	N	1.388141	0.004451	1.075167
H119	H	0.915624	-0.532927	0.545838
H120	H	1.415624	-0.032927	1.045838
H121	H	0.856792	-0.462729	0.545877
H122	H	1.356792	0.037271	1.045877
H123	H	0.236477	-0.482146	0.404661
H124	H	0.736477	0.017854	0.904661
H125	H	0.592237	-0.482121	0.404597
H126	H	1.092237	0.017879	0.904597
N127	N	0.729786	-0.281111	0.236357
N128	N	1.229786	0.218889	0.736357
H129	H	0.717457	-0.293563	0.187979
H130	H	1.217457	0.206437	0.687979
H131	H	0.779918	-0.288961	0.242966
H132	H	1.279918	0.211039	0.742966
H133	H	0.592212	-0.294779	0.247790
H134	H	1.092212	0.205221	0.747790
N135	N	1.068202	-0.281216	0.575252
N136	N	1.568202	0.218784	1.075252
H137	H	1.061629	-0.289056	0.525105
H138	H	1.561629	0.210944	1.025105
H139	H	1.116534	-0.293780	0.587627
H140	H	1.616534	0.206220	1.087627
N141	N	1.068266	-0.281068	1.077936
N142	N	1.568266	0.218932	1.577936
H143	H	1.061702	-0.288872	1.128076
H144	H	1.561702	0.211128	1.628076
H145	H	1.057757	-0.223484	1.065585
H146	H	1.557757	0.276516	1.565585
H147	H	0.720482	-0.482111	0.404576
H148	H	1.220482	0.017889	0.904576
N149	N	0.374021	-0.281150	0.236409
N150	N	0.874021	0.218850	0.736409
H151	H	0.424166	-0.288977	0.242959
H152	H	0.924166	0.211023	0.742959
H153	H	0.361687	-0.223582	0.247030
H154	H	0.861687	0.276418	0.747030
H155	H	0.236443	-0.294801	0.247857
H156	H	0.736443	0.205199	0.747857
H157	H	1.056765	-0.294795	0.712825
H158	H	1.556765	0.205205	1.212825
H159	H	1.056796	-0.294736	0.940351
H160	H	1.556796	0.205264	1.440351
H161	H	0.899656	-0.481788	1.068516
H162	H	1.399656	0.018212	1.568516
H163	H	0.899643	-0.481831	0.940281
H164	H	1.399643	0.018169	1.440281
H165	H	0.899608	-0.481875	0.712758
H166	H	1.399608	0.018125	1.212758
