data_functionalizedCrystal
_audit_creation_method	'MofGen! by Chris Wilmer'
_symmetry_space_group_name_H-M	'P1'
_symmetry_Int_Tables_number	1
_symmetry_cell_setting	triclinic
loop_
_symmetry_equiv_pos_as_xyz
  x,y,z
_cell_length_a	18.215407
_cell_length_b	25.639240
_cell_length_c	18.215399
_cell_angle_alpha	90.032103
_cell_angle_beta	89.980167
_cell_angle_gamma	89.956389
loop_
_atom_site_label
_atom_site_type_symbol
_atom_site_fract_x
_atom_site_fract_y
_atom_site_fract_z
Zn1	Zn	1.124978	0.208150	-0.416095
Zn2	Zn	1.624978	0.708150	0.083905
Zn3	Zn	1.124848	0.295586	-0.293019
Zn4	Zn	1.624848	0.795586	0.206981
Zn5	Zn	1.001911	0.208167	-0.293042
Zn6	Zn	1.501911	0.708167	0.206958
Zn7	Zn	1.001838	0.295557	-0.416044
Zn8	Zn	1.501838	0.795557	0.083956
O9	O	1.063394	0.251865	-0.354550
O10	O	1.563394	0.751865	0.145450
O11	O	1.227945	0.219754	-0.399780
O12	O	1.727945	0.719754	0.100220
O13	O	1.108516	0.284009	-0.190038
O14	O	1.608516	0.784009	0.309962
O15	O	1.018322	0.135000	-0.309396
O16	O	1.518322	0.635000	0.190604
O17	O	1.227849	0.283992	-0.309357
O18	O	1.727849	0.783992	0.190643
O19	O	1.108739	0.134987	-0.399802
O20	O	1.608739	0.634987	0.100198
O21	O	1.018195	0.219783	-0.190055
O22	O	1.518195	0.719783	0.309945
O23	O	0.898917	0.219754	-0.309347
O24	O	1.398917	0.719754	0.190653
O25	O	1.018197	0.283943	-0.519035
O26	O	1.518197	0.783943	-0.019035
O27	O	0.898863	0.283959	-0.399716
O28	O	1.398863	0.783959	0.100284
O29	O	1.108668	0.219725	-0.519072
O30	O	1.608668	0.719725	-0.019072
O31	O	1.108445	0.368747	-0.309308
O32	O	1.608445	0.868747	0.190692
O33	O	1.018070	0.368726	-0.399694
O34	O	1.518070	0.868726	0.100306
C35	C	0.872187	0.251856	-0.354529
C36	C	1.372187	0.751856	0.145471
C37	C	0.790389	0.251865	-0.354537
C38	C	1.290389	0.751865	0.145463
C39	C	0.602186	0.285349	-0.401534
C40	C	1.102186	0.785349	0.098466
C41	C	0.525327	0.285350	-0.401543
C42	C	1.025327	0.785350	0.098457
C43	C	0.525354	0.218391	-0.307583
C44	C	1.025354	0.718391	0.192417
C45	C	0.602211	0.218387	-0.307578
C46	C	1.102211	0.718387	0.192422
C47	C	0.640625	0.251869	-0.354552
C48	C	1.140625	0.751869	0.145448
C49	C	0.486909	0.251874	-0.354566
C50	C	0.986909	0.751874	0.145434
C51	C	0.403575	0.251876	-0.354576
C52	C	0.903575	0.751876	0.145424
C53	C	0.723964	0.251867	-0.354544
C54	C	1.223964	0.751867	0.145456
C55	C	1.063255	0.387708	-0.354509
C56	C	1.563255	0.887708	0.145491
C57	C	1.063263	0.445822	-0.354517
C58	C	1.563263	0.945822	0.145483
C59	C	1.110514	0.806183	-0.307538
C60	C	1.610514	1.306183	0.192462
C61	C	1.110536	0.860787	-0.307545
C62	C	1.610536	1.360787	0.192455
O63	O	1.150613	0.889023	-0.267580
O64	O	1.650613	1.389023	0.232420
N65	N	1.063453	0.888104	-0.354566
N66	N	1.563453	1.388104	0.145434
C67	C	1.016350	0.860813	-0.401589
C68	C	1.516350	1.360813	0.098411
O69	O	0.976304	0.889062	-0.441585
O70	O	1.476304	1.389062	0.058415
C71	C	1.016331	0.806210	-0.401585
C72	C	1.516331	1.306210	0.098415
C73	C	1.063412	0.778896	-0.354555
C74	C	1.563412	1.278896	0.145445
C75	C	1.157591	0.778869	-0.260513
C76	C	1.657591	1.278869	0.239487
C77	C	1.157568	0.724269	-0.260505
C78	C	1.657568	1.224269	0.239495
C79	C	1.110466	0.696982	-0.307522
C80	C	1.610466	1.196982	0.192478
C81	C	1.063389	0.724296	-0.354548
C82	C	1.563389	1.224296	0.145452
C83	C	0.969232	0.778920	-0.448611
C84	C	1.469232	1.278920	0.051389
C85	C	0.969218	0.724313	-0.448603
C86	C	1.469218	1.224313	0.051397
C87	C	1.016299	0.697000	-0.401574
C88	C	1.516299	1.197000	0.098426
C89	C	1.016264	0.642409	-0.401557
C90	C	1.516264	1.142409	0.098443
N91	N	1.063347	0.615092	-0.354536
N92	N	1.563347	1.115092	0.145464
C93	C	1.110448	0.642379	-0.307519
C94	C	1.610448	1.142379	0.192481
C95	C	1.016392	0.975484	-0.401595
C96	C	1.516392	1.475484	0.098405
C97	C	1.016406	1.030086	-0.401595
C98	C	1.516406	1.530086	0.098405
C99	C	1.110594	1.030057	-0.307552
C100	C	1.610594	1.530057	0.192448
C101	C	1.110576	0.975453	-0.307548
C102	C	1.610576	1.475453	0.192452
C103	C	1.063476	0.948167	-0.354573
C104	C	1.563476	1.448167	0.145427
C105	C	1.110394	0.527714	-0.307505
C106	C	1.610394	1.027714	0.192495
C107	C	1.110364	0.473108	-0.307499
C108	C	1.610364	0.973108	0.192501
C109	C	1.016180	0.473143	-0.401545
C110	C	1.516180	0.973143	0.098455
C111	C	1.016207	0.527743	-0.401548
C112	C	1.516207	1.027743	0.098452
C113	C	1.063320	0.555028	-0.354526
C114	C	1.563320	1.055028	0.145474
O115	O	0.976210	0.614138	-0.441505
O116	O	1.476210	1.114138	0.058495
O117	O	1.150494	0.614123	-0.267536
O118	O	1.650494	1.114123	0.232464
C119	C	1.255347	0.251874	-0.354572
C120	C	1.755347	0.751874	0.145428
C121	C	1.337145	0.251878	-0.354581
C122	C	1.837145	0.751878	0.145419
C123	C	1.063439	0.251829	-0.546503
C124	C	1.563439	0.751829	-0.046503
C125	C	1.063458	0.251814	-0.628302
C126	C	1.563458	0.751814	-0.128302
C127	C	1.063525	1.115492	-0.354594
C128	C	1.563525	1.615492	0.145406
C129	C	1.063511	1.057378	-0.354580
C130	C	1.563511	1.557378	0.145420
C131	C	1.110583	0.218344	-0.816516
C132	C	1.610583	0.718344	-0.316516
C133	C	1.110592	0.218329	-0.893375
C134	C	1.610592	0.718329	-0.393375
C135	C	1.016385	0.285202	-0.893325
C136	C	1.516385	0.785202	-0.393325
C137	C	1.016373	0.285214	-0.816468
C138	C	1.516373	0.785214	-0.316468
C139	C	1.063476	0.251786	-0.778066
C140	C	1.563476	0.751786	-0.278066
C141	C	1.063497	0.251759	-0.931782
C142	C	1.563497	0.751759	-0.431782
C143	C	1.063506	0.251742	-1.015115
C144	C	1.563506	0.751742	-0.515115
C145	C	1.063466	0.251802	-0.694727
C146	C	1.563466	0.751802	-0.194727
C147	C	1.063391	0.251863	-0.163344
C148	C	1.563391	0.751863	0.336656
C149	C	1.063515	0.251731	-0.081545
C150	C	1.563515	0.751731	0.418455
H151	H	1.148703	0.450871	-0.269200
H152	H	1.648703	0.950871	0.230800
H153	H	0.978007	0.312446	-0.785161
H154	H	1.478007	0.812446	-0.285161
H155	H	0.494033	0.312613	-0.439801
H156	H	0.994033	0.812613	0.060199
Cl157	Cl	0.650475	0.327438	-0.460590
Cl158	Cl	1.150475	0.827438	0.039410
H159	H	0.633509	0.191120	-0.269320
H160	H	1.133509	0.691120	0.230680
Cl161	Cl	0.477056	0.176302	-0.248531
Cl162	Cl	0.977056	0.676302	0.251469
Cl163	Cl	1.169622	0.562005	-0.248389
Cl164	Cl	1.669622	1.062005	0.251611
H165	H	1.148914	0.953218	-0.269253
H166	H	1.648914	1.453218	0.230747
Cl167	Cl	1.216770	0.689940	-0.201390
Cl168	Cl	1.716770	1.189940	0.298610
Cl169	Cl	0.957176	0.327226	-0.941608
Cl170	Cl	1.457176	0.827226	-0.441608
H171	H	1.195951	0.801081	-0.222226
H172	H	1.695951	1.301081	0.277774
H173	H	1.148949	1.052283	-0.269271
H174	H	1.648949	1.552283	0.230729
H175	H	0.978061	1.052321	-0.439885
H176	H	1.478061	1.552321	0.060115
H177	H	1.148950	0.191096	-0.924679
H178	H	1.648950	0.691096	-0.424679
H179	H	0.978032	0.953271	-0.439886
H180	H	1.478032	1.453271	0.060114
Cl181	Cl	0.910049	0.813244	-0.507746
Cl182	Cl	1.410049	1.313244	-0.007746
H183	H	0.930864	0.702100	-0.486899
H184	H	1.430864	1.202100	0.013101
H185	H	0.977872	0.549983	-0.439846
H186	H	1.477872	1.049983	0.060154
Cl187	Cl	0.956974	0.438829	-0.460653
Cl188	Cl	1.456974	0.938829	0.039347
H189	H	1.148935	0.191123	-0.785251
H190	H	1.648935	0.691123	-0.285251
