data_functionalizedCrystal
_audit_creation_method	'MofGen! by Chris Wilmer'
_symmetry_space_group_name_H-M	'P1'
_symmetry_Int_Tables_number	1
_symmetry_cell_setting	triclinic
loop_
_symmetry_equiv_pos_as_xyz
  x,y,z
_cell_length_a	12.837932
_cell_length_b	12.837942
_cell_length_c	7.681481
_cell_angle_alpha	83.650030
_cell_angle_beta	96.333182
_cell_angle_gamma	94.829322
loop_
_atom_site_label
_atom_site_type_symbol
_atom_site_fract_x
_atom_site_fract_y
_atom_site_fract_z
O1	O	1.393419	0.281083	-0.146432
O2	O	1.090284	0.267638	-0.146435
O3	O	1.235130	0.122793	-0.146423
O4	O	1.248572	0.425928	-0.146445
O5	O	1.252954	0.104920	0.146436
O6	O	1.108108	0.249765	0.146424
O7	O	1.411242	0.263210	0.146427
Zn8	Zn	1.262505	0.253650	0.192923
Zn9	Zn	1.239022	0.277198	-0.192931
O10	O	1.266396	0.408055	0.146415
C11	C	1.060127	0.254160	-0.000006
C12	C	0.943712	0.240615	-0.000007
C13	C	0.782687	0.127401	0.000005
C14	C	0.892069	0.140122	0.000003
C15	C	0.885964	0.328394	-0.000009
C16	C	0.776582	0.315673	-0.000008
C17	C	0.724947	0.215174	-0.000003
C18	C	0.615561	0.202456	-0.000014
C19	C	0.609459	0.390726	-0.000014
C20	C	0.718842	0.403446	-0.000016
C21	C	1.239501	0.074788	0.000006
C22	C	1.225956	-0.041627	0.000003
C23	C	1.388784	-0.266498	-0.000033
C24	C	1.376062	-0.375881	-0.000036
C25	C	1.187792	-0.369776	-0.000019
C26	C	1.200513	-0.260393	-0.000016
C27	C	1.301013	-0.208759	-0.000020
C28	C	1.313734	-0.099375	-0.000005
C29	C	1.125464	-0.093271	-0.000001
C30	C	1.112742	-0.202654	-0.000004
C31	C	1.441399	0.276689	-0.000006
C32	C	1.557814	0.290234	-0.000017
C33	C	1.262026	0.456061	-0.000018
C34	C	1.275569	0.572477	-0.000026
N35	N	1.278540	0.237579	0.456259
N36	N	1.222995	0.293262	-0.456267
H37	H	0.573521	0.120624	-0.000018
C38	C	0.799702	-0.057420	-0.000005
C39	C	0.725921	0.016938	-0.000002
H40	H	0.764656	-0.125616	-0.000001
H41	H	0.836020	-0.042306	-0.102125
H42	H	0.848456	-0.054775	0.102129
H43	H	0.677171	0.014299	-0.102144
H44	H	0.689586	0.001819	0.102128
C45	C	1.097454	0.419106	0.561889
C46	C	1.146444	0.369986	0.442226
H47	H	1.050200	0.466477	0.499211
H48	H	1.059782	0.367490	0.633805
H49	H	1.149157	0.456677	0.633788
H50	H	1.094741	0.332409	0.370335
H51	H	1.184117	0.421610	0.370280
C52	C	1.009458	0.054398	-0.150543
C53	C	0.955541	0.043642	0.000003
H54	H	1.048647	-0.005165	-0.150533
H55	H	0.960443	0.059576	-0.252649
H56	H	1.055863	0.116072	-0.150529
H57	H	0.909130	-0.018028	-0.000018
H58	H	1.004561	0.038453	0.102135
C59	C	1.050941	0.431473	0.000064
C60	C	0.942738	0.438853	0.000037
H61	H	1.085988	0.499667	0.000095
H62	H	1.076312	0.388633	0.102174
H63	H	1.063903	0.401129	-0.102080
H64	H	0.929775	0.469189	0.102188
H65	H	0.917358	0.481709	-0.102084
C66	C	0.738153	0.577021	-0.150579
C67	C	0.775604	0.513912	-0.000025
H68	H	0.773191	0.645221	-0.150579
H69	H	0.751126	0.546657	-0.252679
H70	H	0.664745	0.581999	-0.150564
H71	H	0.849012	0.508928	-0.000047
H72	H	0.762640	0.544283	0.102102
C73	C	0.439074	0.454833	-0.000035
C74	C	0.545988	0.487216	-0.000030
H75	H	0.399892	0.514401	-0.000042
H76	H	0.416198	0.420306	-0.102149
H77	H	0.428624	0.407842	0.102105
H78	H	0.556440	0.534201	-0.102176
H79	H	0.568872	0.521759	0.102096
C80	C	1.498549	-0.116398	-0.000055
C81	C	1.424199	-0.042614	-0.000027
H82	H	1.566745	-0.081355	-0.000087
H83	H	1.495898	-0.165166	0.102067
H84	H	1.483436	-0.152702	-0.102187
H85	H	1.439308	-0.006316	0.102111
H86	H	1.426854	0.006172	-0.102160
H87	H	1.105968	-0.411834	-0.000035
H88	H	1.470615	-0.224458	-0.000019
C89	C	1.325323	0.058921	0.513350
C90	C	1.355094	0.160850	0.557774
H91	H	1.372588	0.011555	0.576015
H92	H	1.256150	0.038893	0.543509
H93	H	1.327060	0.057185	0.390396
H94	H	1.353350	0.162587	0.680727
H95	H	1.424285	0.180883	0.527627
H96	H	1.030918	-0.244709	-0.000007
H97	H	1.053995	-0.046249	0.000024
C98	C	1.563436	-0.370924	-0.000039
C99	C	1.472543	-0.439350	-0.000039
H100	H	1.623001	-0.410110	-0.000032
H101	H	1.558264	-0.321902	-0.102159
H102	H	1.570692	-0.334367	0.102095
H103	H	1.465282	-0.475901	-0.102180
H104	H	1.477716	-0.488390	0.102091
