data_functionalizedCrystal
_audit_creation_method	'MofGen! by Chris Wilmer'
_symmetry_space_group_name_H-M	'P1'
_symmetry_Int_Tables_number	1
_symmetry_cell_setting	triclinic
loop_
_symmetry_equiv_pos_as_xyz
  x,y,z
_cell_length_a	16.992694
_cell_length_b	10.540539
_cell_length_c	15.455313
_cell_angle_alpha	92.694186
_cell_angle_beta	87.142206
_cell_angle_gamma	87.596857
loop_
_atom_site_label
_atom_site_type_symbol
_atom_site_fract_x
_atom_site_fract_y
_atom_site_fract_z
O1	O	1.045302	0.264111	-0.072015
O2	O	0.817001	0.261155	-0.072041
O3	O	0.936360	0.078379	-0.072026
O4	O	0.925943	0.446887	-0.072030
O5	O	0.929534	0.088785	0.072235
O6	O	0.810175	0.271561	0.072220
O7	O	1.038476	0.274517	0.072246
Cu8	Cu	0.923702	0.273989	0.085405
Cu9	Cu	0.931774	0.261683	-0.085200
O10	O	0.919117	0.457293	0.072232
C11	C	0.784354	0.262557	0.000086
C12	C	0.697247	0.251216	0.000077
C13	C	0.932166	0.036211	0.000103
C14	C	0.929829	-0.104941	0.000098
C15	C	0.647619	0.360636	0.000076
C16	C	0.565773	0.349973	0.000088
C17	C	0.533555	0.229889	0.000094
C18	C	0.583189	0.120461	0.000097
C19	C	0.665034	0.131125	0.000092
C20	C	0.289709	0.185692	0.000118
C21	C	0.207858	0.175036	0.000121
C22	C	0.190446	0.404549	0.000114
C23	C	0.272294	0.415202	0.000103
C24	C	0.321921	0.305774	0.000110
N25	N	0.449895	0.218988	0.000104
N26	N	0.405579	0.316677	0.000107
C27	C	0.840284	-0.296163	-0.000236
C28	C	0.842638	-0.149316	0.000089
C29	C	0.967891	-0.157014	0.082483
C30	C	0.964912	-0.303812	0.082552
C31	C	0.974447	-0.316010	-0.081500
C32	C	0.975302	-0.169037	-0.082589
C33	C	1.071122	0.273115	0.000117
C34	C	1.158230	0.284456	0.000121
C35	C	0.923311	0.499461	0.000101
C36	C	0.925648	0.640612	0.000100
N37	N	0.918030	0.282645	0.205400
N38	N	0.937452	0.253018	-0.205195
C39	C	0.968756	0.205027	0.250801
C40	C	0.964474	0.211585	0.341608
C41	C	0.909469	0.295768	0.387013
C42	C	0.858738	0.373389	0.341607
C43	C	0.863017	0.366823	0.250801
C44	C	0.891000	0.324073	0.658593
C45	C	0.886727	0.330635	0.749405
C46	C	0.992462	0.168829	0.749400
C47	C	0.996739	0.162277	0.658592
C48	C	0.946005	0.239893	0.613193
N49	N	0.905093	0.302477	0.479833
N50	N	0.950379	0.233177	0.520375
H51	H	0.525368	0.439075	0.000087
H52	H	0.949182	-0.354516	-0.143942
N53	N	1.043347	-0.356835	0.087282
N54	N	1.060547	-0.422506	0.149486
H55	H	1.115940	-0.459951	0.152834
N56	N	0.940448	-0.126535	-0.159043
N57	N	0.882337	-0.049326	-0.152725
H58	H	0.857719	-0.019302	-0.206719
H59	H	0.813948	0.441928	0.378581
H60	H	0.298519	0.512986	0.000088
H61	H	0.808637	-0.332013	-0.059316
H62	H	0.150032	0.493639	0.000110
N63	N	0.174961	0.052356	0.000126
N64	N	0.219277	-0.045337	0.000132
H65	H	0.196044	-0.131976	0.000134
N66	N	0.797412	-0.095191	0.074283
N67	N	0.725675	-0.115796	0.083917
H68	H	0.693733	-0.077571	0.136321
N69	N	1.055338	-0.132153	-0.088825
N70	N	1.080280	-0.057701	-0.032172
H71	H	1.136807	-0.031645	-0.036572
H72	H	0.821710	0.430026	0.213837
N73	N	0.804707	-0.104790	-0.073982
N74	N	0.745727	-0.029612	-0.064115
H75	H	0.718932	0.001832	-0.116427
N76	N	1.024905	0.118956	0.204438
N77	N	1.070159	0.049607	0.244989
H78	H	1.109797	-0.011217	0.212248
H79	H	0.841933	0.399192	0.786370
H80	H	1.037451	-0.357811	-0.082047
N81	N	0.927700	-0.101218	0.159397
N82	N	0.964548	-0.037083	0.212706
H83	H	0.936159	0.002321	0.267026
N84	N	1.016292	0.132286	0.387969
N85	N	1.065402	0.057132	0.347419
H86	H	1.102001	0.001121	0.380160
N87	N	0.922354	-0.336981	0.159802
N88	N	0.895053	-0.251761	0.213288
H89	H	0.864994	-0.275179	0.267848
N90	N	0.715742	0.019367	0.000079
N91	N	0.788816	0.028903	0.000074
H92	H	0.824630	-0.050028	0.000068
H93	H	0.803202	-0.325110	0.058505
N94	N	0.340383	0.073905	0.000122
N95	N	0.311604	-0.033302	0.000123
H96	H	0.347395	-0.112259	0.000123
H97	H	1.031777	-0.128883	0.085553
H98	H	1.041528	0.093728	0.621625
N99	N	0.550270	-0.002192	0.000113
N100	N	0.477194	-0.011700	0.000117
H101	H	0.453944	-0.098326	0.000126
H102	H	1.033766	0.105637	0.786371
N103	N	0.839170	0.403357	0.612240
N104	N	0.790063	0.478512	0.652794
H105	H	0.753454	0.534510	0.620056
H106	H	0.673844	0.458421	0.000071
