data_functionalizedCrystal
_audit_creation_method	'MofGen! by Chris Wilmer'
_symmetry_space_group_name_H-M	'P1'
_symmetry_Int_Tables_number	1
_symmetry_cell_setting	triclinic
loop_
_symmetry_equiv_pos_as_xyz
  x,y,z
_cell_length_a	14.519731
_cell_length_b	14.519709
_cell_length_c	11.295483
_cell_angle_alpha	94.101713
_cell_angle_beta	85.886642
_cell_angle_gamma	83.684499
loop_
_atom_site_label
_atom_site_type_symbol
_atom_site_fract_x
_atom_site_fract_y
_atom_site_fract_z
O1	O	1.230057	0.114784	-0.099030
O2	O	1.563391	0.448118	0.234303
O3	O	1.896724	0.781451	0.567637
O4	O	0.961583	0.129000	-0.099032
O5	O	1.294917	0.462334	0.234301
O6	O	1.628250	0.795667	0.567635
O7	O	1.102938	-0.012345	-0.099020
O8	O	1.436271	0.320989	0.234313
O9	O	1.769604	0.654322	0.567646
O10	O	1.088703	0.256130	-0.099042
O11	O	1.422036	0.589463	0.234292
O12	O	1.755369	0.922796	0.567625
O13	O	1.090522	0.000051	0.099029
O14	O	1.423856	0.333384	0.432363
O15	O	1.757189	0.666717	0.765696
O16	O	0.949168	0.141396	0.099018
O17	O	1.282501	0.474729	0.432351
O18	O	1.615834	0.808063	0.765684
O19	O	1.217642	0.127180	0.099020
O20	O	1.550975	0.460513	0.432353
O21	O	1.884309	0.793847	0.765686
Cu22	Cu	1.082271	0.135420	0.117102
Cu23	Cu	1.415604	0.468753	0.450436
Cu24	Cu	1.748938	0.802086	0.783769
Cu25	Cu	1.096954	0.120761	-0.117115
Cu26	Cu	1.430287	0.454094	0.216219
Cu27	Cu	1.763621	0.787427	0.549552
O28	O	1.076287	0.268525	0.099008
O29	O	1.409621	0.601859	0.432341
O30	O	1.742954	0.935192	0.765675
C31	C	1.096067	-0.040507	0.000005
C32	C	1.429400	0.292826	0.333338
C33	C	1.762733	0.626160	0.666671
C34	C	1.094078	-0.142888	0.000005
C35	C	1.427412	0.190445	0.333339
C36	C	1.760745	0.523778	0.666672
C37	C	0.921016	0.134532	-0.000007
C38	C	1.254349	0.467865	0.333326
C39	C	1.587683	0.801199	0.666659
C40	C	0.818636	0.132536	-0.000008
C41	C	1.151969	0.465869	0.333325
C42	C	1.485303	0.799203	0.666659
C43	C	1.086761	-0.517787	-0.000026
C44	C	1.420094	-0.184453	0.333308
C45	C	1.753428	0.148880	0.666641
C46	C	1.088793	-0.413478	-0.000017
C47	C	1.422126	-0.080145	0.333317
C48	C	1.755460	0.253189	0.666650
C49	C	1.090419	-0.330341	-0.000009
C50	C	1.423753	0.002993	0.333324
C51	C	1.757086	0.336326	0.666658
C52	C	1.092452	-0.226025	-0.000002
C53	C	1.425785	0.107308	0.333331
C54	C	1.759119	0.440641	0.666665
C55	C	0.735492	0.130914	-0.000013
C56	C	1.068825	0.464247	0.333321
C57	C	1.402159	0.797580	0.666654
C58	C	0.631183	0.128887	-0.000013
C59	C	0.964517	0.462220	0.333320
C60	C	1.297850	0.795554	0.666654
C61	C	0.548044	0.127279	-0.000013
C62	C	0.881378	0.460612	0.333321
C63	C	1.214711	0.793945	0.666654
C64	C	0.443729	0.125252	-0.000015
C65	C	0.777062	0.458586	0.333318
C66	C	1.110396	0.791919	0.666652
C67	C	1.258209	0.121648	-0.000008
C68	C	1.591543	0.454982	0.333326
C69	C	1.924876	0.788315	0.666659
C70	C	1.360590	0.123644	-0.000015
C71	C	1.693923	0.456977	0.333318
C72	C	2.027257	0.790310	0.666652
C73	C	1.083159	0.296687	-0.000020
C74	C	1.416492	0.630020	0.333314
C75	C	1.749825	0.963354	0.666647
C76	C	1.085147	0.399068	-0.000028
C77	C	1.418481	0.732401	0.333305
C78	C	1.751814	1.065735	0.666638
N79	N	1.071951	0.145730	0.281838
N80	N	1.405284	0.479063	0.615171
N81	N	1.738618	0.812396	0.948504
N82	N	1.107282	0.110443	-0.281850
N83	N	1.440615	0.443777	0.051483
N84	N	1.773948	0.777110	0.384817
C85	C	1.181573	0.036176	0.531136
C86	C	1.514906	0.369509	0.864470
C87	C	1.848240	0.702842	1.197803
C88	C	1.173781	0.043974	0.655799
C89	C	1.507114	0.377307	0.989133
C90	C	1.840447	0.710640	1.322466
C91	C	1.048569	0.169118	0.655829
C92	C	1.381902	0.502451	0.989162
C93	C	1.715236	0.835785	1.322496
C94	C	1.056362	0.161320	0.531166
C95	C	1.389695	0.494654	0.864499
C96	C	1.723028	0.827987	1.197833
C97	C	1.122867	0.094848	0.468824
C98	C	1.456200	0.428181	0.802157
C99	C	1.789534	0.761515	1.135491
C100	C	1.130663	0.087055	0.344159
C101	C	1.463997	0.420388	0.677492
C102	C	1.797330	0.753722	1.010825
C103	C	1.005448	0.212195	0.344191
C104	C	1.338781	0.545528	0.677524
C105	C	1.672115	0.878861	1.010857
C106	C	0.997655	0.219992	0.468854
C107	C	1.330989	0.553326	0.802187
C108	C	1.664322	0.886659	1.135520
H109	H	1.184817	0.032932	0.293401
H110	H	1.518151	0.366266	0.626734
H111	H	1.851484	0.699599	0.960068
H112	H	1.221584	-0.003804	0.706531
H113	H	1.554917	0.329529	1.039864
H114	H	1.888251	0.662862	1.373197
C115	C	0.975397	0.242210	0.724427
C116	C	1.308730	0.575543	1.057760
C117	C	1.642064	0.908877	1.391093
N118	N	0.920277	0.297258	0.776096
N119	N	1.253611	0.630591	1.109429
N120	N	1.586944	0.963924	1.442762
C121	C	1.254732	-0.036940	0.462558
C122	C	1.588065	0.296394	0.795891
C123	C	1.921399	0.629727	1.129224
N124	N	1.309836	-0.092012	0.410906
N125	N	1.643170	0.241321	0.744239
N126	N	1.976503	0.574654	1.077572
C127	C	0.940867	0.276738	0.275637
C128	C	1.274200	0.610071	0.608970
C129	C	1.607533	0.943405	0.942304
N130	N	0.892227	0.325352	0.224001
N131	N	1.225560	0.658686	0.557334
N132	N	1.558894	0.992019	0.890668
H133	H	0.943506	0.274111	0.519627
H134	H	1.276839	0.607444	0.852960
H135	H	1.610172	0.940777	1.186293
