data_functionalizedCrystal
_audit_creation_method	'MofGen! by Chris Wilmer'
_symmetry_space_group_name_H-M	'P1'
_symmetry_Int_Tables_number	1
_symmetry_cell_setting	triclinic
loop_
_symmetry_equiv_pos_as_xyz
  x,y,z
_cell_length_a	18.215407
_cell_length_b	12.759400
_cell_length_c	18.215399
_cell_angle_alpha	90.023429
_cell_angle_beta	90.019833
_cell_angle_gamma	90.013614
loop_
_atom_site_label
_atom_site_type_symbol
_atom_site_fract_x
_atom_site_fract_y
_atom_site_fract_z
Zn1	Zn	1.125132	-0.418264	0.416139
Zn2	Zn	1.625132	0.081736	0.916139
Zn3	Zn	1.125065	-0.593962	0.293082
Zn4	Zn	1.625065	-0.093962	0.793082
Zn5	Zn	1.002064	-0.418299	0.293086
Zn6	Zn	1.502064	0.081701	0.793086
Zn7	Zn	1.002056	-0.593903	0.416107
Zn8	Zn	1.502056	-0.093903	0.916107
O9	O	1.063579	-0.506107	0.354604
O10	O	1.563579	-0.006107	0.854604
O11	O	1.228107	-0.441581	0.399827
O12	O	1.728107	0.058419	0.899827
O13	O	1.108725	-0.570699	0.190099
O14	O	1.608725	-0.070699	0.690099
O15	O	1.018421	-0.271273	0.309424
O16	O	1.518421	0.228727	0.809424
O17	O	1.228059	-0.570665	0.309418
O18	O	1.728059	-0.070665	0.809418
O19	O	1.108838	-0.271248	0.399831
O20	O	1.608838	0.228752	0.899831
O21	O	1.018357	-0.441640	0.190102
O22	O	1.518357	0.058360	0.690102
O23	O	0.899079	-0.441583	0.309394
O24	O	1.399079	0.058417	0.809394
O25	O	1.018406	-0.570566	0.519096
O26	O	1.518406	-0.070566	1.019096
O27	O	0.899072	-0.570599	0.399777
O28	O	1.399072	-0.070599	0.899777
O29	O	1.108830	-0.441525	0.519119
O30	O	1.608830	0.058475	1.019119
O31	O	1.108716	-0.740975	0.309387
O32	O	1.608716	-0.240975	0.809387
O33	O	1.018341	-0.740932	0.399773
O34	O	1.518341	-0.240932	0.899773
C35	C	0.872373	-0.506089	0.354583
C36	C	1.372373	-0.006089	0.854583
C37	C	0.790574	-0.506107	0.354591
C38	C	1.290574	-0.006107	0.854591
C39	C	0.602396	-0.573391	0.401594
C40	C	1.102396	-0.073391	0.901594
C41	C	0.525537	-0.573394	0.401604
C42	C	1.025537	-0.073394	0.901604
C43	C	0.525515	-0.438842	0.307629
C44	C	1.025515	0.061158	0.807629
C45	C	0.602372	-0.438835	0.307624
C46	C	1.102372	0.061165	0.807624
C47	C	0.640811	-0.506115	0.354606
C48	C	1.140811	-0.006115	0.854606
C49	C	0.487095	-0.506126	0.354620
C50	C	0.987095	-0.006126	0.854620
C51	C	0.403761	-0.506129	0.354630
C52	C	0.903761	-0.006129	0.854630
C53	C	0.724150	-0.506111	0.354597
C54	C	1.224150	-0.006111	0.854597
C55	C	1.063541	-0.779075	0.354592
C56	C	1.563541	-0.279075	0.854592
C57	C	1.063592	-0.895851	0.354612
C58	C	1.563592	-0.395851	0.854612
C59	C	1.110648	-0.950620	0.401725
C60	C	1.610648	-0.450620	0.901725
C61	C	1.110682	-1.060344	0.401743
C62	C	1.610682	-0.560344	0.901743
C63	C	1.016601	-1.060520	0.307528
C64	C	1.516601	-0.560520	0.807528
C65	C	1.016564	-0.950798	0.307515
C66	C	1.516564	-0.450798	0.807515
C67	C	1.157676	-0.895673	0.448822
C68	C	1.657676	-0.395673	0.948822
C69	C	1.204737	-0.950442	0.495938
C70	C	1.704737	-0.450442	0.995938
C71	C	1.204771	-1.060166	0.495956
C72	C	1.704771	-0.560166	0.995956
C73	C	1.157744	-1.115121	0.448858
C74	C	1.657744	-0.615121	0.948858
C75	C	1.255532	-0.506126	0.354625
C76	C	1.755532	-0.006126	0.854625
C77	C	1.337331	-0.506134	0.354635
C78	C	1.837331	-0.006134	0.854635
C79	C	1.063624	-0.506035	0.546557
C80	C	1.563624	-0.006035	1.046557
C81	C	1.063643	-0.506004	0.628356
C82	C	1.563643	-0.006004	1.128356
C83	C	1.063638	-0.232074	0.354632
C84	C	1.563638	0.267926	0.854632
C85	C	1.063663	-0.115297	0.354643
C86	C	1.563663	0.384703	0.854643
C87	C	1.063577	-0.506103	0.163398
C88	C	1.563577	-0.006103	0.663398
C89	C	1.063700	-0.505838	0.081599
C90	C	1.563700	-0.005838	0.581599
C91	C	1.110744	-0.438749	0.816563
C92	C	1.610744	0.061251	1.316563
C93	C	1.110753	-0.438719	0.893422
C94	C	1.610753	0.061281	1.393422
C95	C	1.016595	-0.573096	0.893386
C96	C	1.516595	-0.073096	1.393386
C97	C	1.016583	-0.573120	0.816529
C98	C	1.516583	-0.073120	1.316529
C99	C	1.063662	-0.505949	0.778119
C100	C	1.563662	-0.005949	1.278119
C101	C	1.063682	-0.505894	0.931835
C102	C	1.563682	-0.005894	1.431835
C103	C	1.063691	-0.505861	1.015169
C104	C	1.563691	-0.005861	1.515169
C105	C	1.063652	-0.505980	0.694780
C106	C	1.563652	-0.005980	1.194780
H107	H	0.633691	-0.628172	0.439852
H108	H	1.133691	-0.128172	0.939852
C109	C	1.006319	-0.714466	0.730067
C110	C	1.506319	-0.214466	1.230067
C111	C	0.964828	-0.646991	0.774263
C112	C	1.464828	-0.146991	1.274263
H113	H	0.974366	-0.760061	0.703971
H114	H	1.474366	-0.260061	1.203971
H115	H	1.038370	-0.754647	0.760051
H116	H	1.538370	-0.254647	1.260051
H117	H	1.034349	-0.674448	0.696198
H118	H	1.534349	-0.174448	1.196198
H119	H	0.936801	-0.687010	0.808136
H120	H	1.436801	-0.187010	1.308136
H121	H	0.932763	-0.606807	0.744277
H122	H	1.432763	-0.106807	1.244277
C123	C	1.209753	-0.424093	0.979884
C124	C	1.709753	0.075907	1.479884
C125	C	1.162504	-0.364851	0.935684
C126	C	1.662504	0.135149	1.435684
H127	H	1.241697	-0.378484	1.005978
H128	H	1.741697	0.121516	1.505978
H129	H	1.237892	-0.469868	0.949904
H130	H	1.737892	0.030132	1.449904
H131	H	1.181710	-0.464091	1.013756
H132	H	1.681710	0.035909	1.513756
H133	H	1.190546	-0.324859	0.901809
H134	H	1.690546	0.175141	1.401809
H135	H	1.134362	-0.319058	0.965667
H136	H	1.634362	0.180942	1.465667
C137	C	1.246463	-0.782167	0.537743
C138	C	1.746463	-0.282167	1.037743
C139	C	1.256426	-0.890040	0.547708
C140	C	1.756426	-0.390040	1.047708
H141	H	1.278378	-0.744881	0.569702
H142	H	1.778378	-0.244881	1.069702
H143	H	1.197011	-0.764229	0.548468
H144	H	1.697011	-0.264229	1.048468
H145	H	1.257256	-0.764231	0.488300
H146	H	1.757256	-0.264231	0.988300
H147	H	1.245627	-0.907978	0.597149
H148	H	1.745627	-0.407978	1.097149
H149	H	1.305889	-0.907986	0.536988
H150	H	1.805889	-0.407986	1.036988
H151	H	0.494208	-0.384067	0.269377
H152	H	0.994208	0.115933	0.769377
H153	H	0.494264	-0.628176	0.439868
H154	H	0.994264	-0.128176	0.939868
H155	H	0.633650	-0.384044	0.269360
H156	H	1.133650	0.115956	0.769360
C157	C	1.297765	-1.048966	0.589078
C158	C	1.797765	-0.548966	1.089078
C159	C	1.256497	-1.120370	0.547746
C160	C	1.756497	-0.620370	1.047746
H161	H	1.329704	-1.086134	0.621046
H162	H	1.829704	-0.586134	1.121046
H163	H	1.265672	-1.006181	0.617193
H164	H	1.765672	-0.506181	1.117193
H165	H	1.325915	-1.006168	0.557022
H166	H	1.825915	-0.506168	1.057022
H167	H	1.228343	-1.163163	0.579801
H168	H	1.728343	-0.663163	1.079801
H169	H	1.288594	-1.163174	0.519629
H170	H	1.788594	-0.663174	1.019629
H171	H	1.157655	-0.806330	0.448811
H172	H	1.657655	-0.306330	0.948811
H173	H	1.149076	-0.384051	0.785292
H174	H	1.649076	0.115949	1.285292
H175	H	1.157767	-1.204466	0.448885
H176	H	1.657767	-0.704466	0.948885
H177	H	0.978315	-1.105273	0.269183
H178	H	1.478315	-0.605273	0.769183
C179	C	0.891958	-0.917170	0.271555
C180	C	1.391958	-0.417170	0.771555
C181	C	0.964838	-0.890585	0.255730
C182	C	1.464838	-0.390585	0.755730
H183	H	0.860023	-0.879999	0.239584
H184	H	1.360023	-0.379999	0.739584
H185	H	0.881164	-0.899160	0.320986
H186	H	1.381164	-0.399160	0.820986
H187	H	0.885258	-0.990381	0.264815
H188	H	1.385258	-0.490381	0.764815
H189	H	0.971539	-0.817375	0.262475
H190	H	1.471539	-0.317375	0.762475
H191	H	0.975636	-0.908588	0.206287
H192	H	1.475636	-0.408588	0.706287
C193	C	0.974808	-0.632731	1.011188
C194	C	1.474808	-0.132731	1.511188
C195	C	0.964853	-0.646937	0.935609
C196	C	1.464853	-0.146937	1.435609
H197	H	0.942868	-0.678325	1.037252
H198	H	1.442868	-0.178325	1.537252
H199	H	0.964051	-0.562145	1.023788
H200	H	1.464051	-0.062145	1.523788
H201	H	1.024257	-0.648107	1.023783
H202	H	1.524257	-0.148107	1.523783
H203	H	0.915406	-0.631553	0.923014
H204	H	1.415406	-0.131553	1.423014
H205	H	0.975605	-0.717539	0.923004
H206	H	1.475605	-0.217539	1.423004
