data_functionalizedCrystal
_audit_creation_method	'MofGen! by Chris Wilmer'
_symmetry_space_group_name_H-M	'P1'
_symmetry_Int_Tables_number	1
_symmetry_cell_setting	triclinic
loop_
_symmetry_equiv_pos_as_xyz
  x,y,z
_cell_length_a	13.339070
_cell_length_b	10.868271
_cell_length_c	11.792254
_cell_angle_alpha	90.001586
_cell_angle_beta	99.913946
_cell_angle_gamma	90.005479
loop_
_atom_site_label
_atom_site_type_symbol
_atom_site_fract_x
_atom_site_fract_y
_atom_site_fract_z
O1	O	1.345432	0.102369	0.569976
O2	O	1.845432	0.602369	1.069976
O3	O	1.050492	0.102362	0.495162
O4	O	1.550492	0.602362	0.995162
O5	O	1.205113	0.102357	0.369602
O6	O	1.705113	0.602357	0.869602
O7	O	1.190811	0.102374	0.695536
O8	O	1.690811	0.602374	1.195536
O9	O	1.205099	-0.102288	0.369603
O10	O	1.705099	0.397712	0.869603
O11	O	1.050478	-0.102283	0.495163
O12	O	1.550478	0.397717	0.995163
O13	O	1.345418	-0.102275	0.569977
O14	O	1.845418	0.397725	1.069977
Zn15	Zn	1.197946	-0.134771	0.532570
Zn16	Zn	1.697946	0.365229	1.032570
Zn17	Zn	1.197964	0.134857	0.532569
Zn18	Zn	1.697964	0.634857	1.032569
O19	O	1.190797	-0.102271	0.695537
O20	O	1.690797	0.397729	1.195537
C21	C	1.012726	0.000038	0.482525
C22	C	1.512726	0.500038	0.982525
C23	C	0.900216	0.000035	0.444856
C24	C	1.400216	0.500035	0.944856
N25	N	1.197940	-0.318785	0.532573
N26	N	1.697940	0.181215	1.032573
C27	C	0.537041	0.000070	0.737752
C28	C	1.037041	0.500070	1.237752
C29	C	0.642750	0.000077	0.773148
C30	C	1.142750	0.500077	1.273148
C31	C	0.707121	0.000066	0.691078
C32	C	1.207121	0.500066	1.191078
C33	C	0.665774	0.000049	0.573606
C34	C	1.165774	0.500049	1.073606
C35	C	0.560056	0.000052	0.538207
C36	C	1.060056	0.500052	1.038207
C37	C	0.730136	0.000048	0.491533
C38	C	1.230136	0.500048	0.991533
C39	C	0.688789	0.000031	0.374061
C40	C	1.188789	0.500031	0.874061
C41	C	0.583080	0.000033	0.338668
C42	C	1.083080	0.500033	0.838668
C43	C	0.518709	0.000044	0.420738
C44	C	1.018709	0.500044	0.920738
C45	C	0.835854	0.000045	0.526932
C46	C	1.335854	0.500045	1.026932
C47	C	0.858869	0.000027	0.327387
C48	C	1.358869	0.500027	0.827387
C49	C	0.753160	0.000020	0.291991
C50	C	1.253160	0.500020	0.791991
C51	C	1.197948	-0.430123	0.532576
C52	C	1.697948	0.069877	1.032576
C53	C	1.197962	-0.569800	0.532569
C54	C	1.697962	-0.069800	1.032569
C55	C	1.383184	0.000051	0.582614
C56	C	1.883184	0.500051	1.082614
C57	C	1.495694	0.000062	0.620283
C58	C	1.995694	0.500062	1.120283
C59	C	1.204205	0.000035	0.327034
C60	C	1.704205	0.500035	0.827034
C61	C	1.201508	0.000036	0.200191
C62	C	1.701508	0.500036	0.700191
N63	N	1.197978	0.318871	0.532559
N64	N	1.697978	0.818871	1.032559
C65	C	1.199317	0.000040	0.097179
C66	C	1.699317	0.500040	0.597179
C67	C	1.196578	0.000052	-0.032051
C68	C	1.696578	0.500052	0.467949
C69	C	1.191705	0.000054	0.738105
C70	C	1.691705	0.500054	1.238105
C71	C	1.194402	0.000061	0.864948
C72	C	1.694402	0.500061	1.364948
H73	H	0.869508	0.000054	0.622578
H74	H	1.369508	0.500054	1.122578
H75	H	0.793193	0.000074	0.719904
H76	H	1.293193	0.500074	1.219904
C77	C	0.467032	0.000277	0.826719
C78	C	0.967032	0.500277	1.326719
C79	C	0.405667	0.105552	0.812197
C80	C	0.905667	0.605552	1.312197
C81	C	0.341151	0.105778	0.894129
C82	C	0.841151	0.605778	1.394129
H83	H	0.506664	0.000345	0.901806
H84	H	1.006664	0.500345	1.401806
H85	H	0.425245	-0.071047	0.817046
H86	H	0.925245	0.428953	1.317046
H87	H	0.447449	0.176857	0.821880
H88	H	0.947449	0.676857	1.321880
H89	H	0.366014	0.105506	0.737127
H90	H	0.866014	0.605506	1.237127
H91	H	0.299364	0.034454	0.884455
H92	H	0.799364	0.534454	1.384455
H93	H	0.380791	0.105843	0.969209
H94	H	0.880791	0.605843	1.469209
H95	H	0.299501	0.177199	0.884280
H96	H	0.799501	0.677199	1.384280
H97	H	0.676406	0.000100	0.868793
H98	H	1.176406	0.500100	1.368793
H99	H	0.719481	0.000017	0.196344
H100	H	1.219481	0.500017	0.696344
C101	C	0.538329	0.000216	0.211090
C102	C	1.038329	0.500216	0.711090
C103	C	0.571022	0.105479	0.159500
C104	C	1.071022	0.605479	0.659500
C105	C	0.529833	0.105681	0.041974
C106	C	1.029833	0.605681	0.541974
H107	H	0.466155	0.000284	0.201598
H108	H	0.966155	0.500284	0.701598
H109	H	0.560405	-0.071116	0.175847
H110	H	1.060405	0.428884	0.675847
H111	H	0.548941	0.176792	0.194732
H112	H	1.048941	0.676792	0.694732
H113	H	0.643191	0.105433	0.168960
H114	H	1.143191	0.605433	0.668960
H115	H	0.551908	0.034349	0.006732
H116	H	1.051908	0.534349	0.506732
H117	H	0.457660	0.105746	0.032494
H118	H	0.957660	0.605746	0.532494
H119	H	0.552016	0.177094	0.006954
H120	H	1.052016	0.677094	0.506954
C121	C	0.928866	0.000206	0.238396
C122	C	1.428866	0.500206	0.738396
C123	C	0.990259	0.105473	0.252909
C124	C	1.490259	0.605473	0.752909
C125	C	1.054768	0.105676	0.170970
C126	C	1.554768	0.605676	0.670970
H127	H	0.889229	0.000269	0.163312
H128	H	1.389229	0.500269	0.663312
H129	H	0.970635	-0.071123	0.248067
H130	H	1.470635	0.428877	0.748067
H131	H	0.948495	0.176783	0.243228
H132	H	1.448495	0.676783	0.743228
H133	H	1.029917	0.105432	0.327976
H134	H	1.529917	0.605432	0.827976
H135	H	1.096536	0.034347	0.180641
H136	H	1.596536	0.534347	0.680641
H137	H	1.015122	0.105735	0.095892
H138	H	1.515122	0.605735	0.595892
H139	H	1.096436	0.177092	0.180812
H140	H	1.596436	0.677092	0.680812
H141	H	0.432631	0.000038	0.391924
H142	H	0.932631	0.500038	0.891924
