data_functionalizedCrystal
_audit_creation_method	'MofGen! by Chris Wilmer'
_symmetry_space_group_name_H-M	'P1'
_symmetry_Int_Tables_number	1
_symmetry_cell_setting	triclinic
loop_
_symmetry_equiv_pos_as_xyz
  x,y,z
_cell_length_a	9.065218
_cell_length_b	12.503572
_cell_length_c	9.065218
_cell_angle_alpha	86.422702
_cell_angle_beta	85.015885
_cell_angle_gamma	93.570693
loop_
_atom_site_label
_atom_site_type_symbol
_atom_site_fract_x
_atom_site_fract_y
_atom_site_fract_z
O1	O	1.968796	0.089319	0.207934
O2	O	2.302130	0.422652	0.541268
O3	O	2.635463	0.755985	0.874601
O4	O	1.539511	0.089320	0.225681
O5	O	1.872845	0.422653	0.559014
O6	O	2.206178	0.755987	0.892347
O7	O	1.763027	0.089317	0.002165
O8	O	2.096360	0.422650	0.335499
O9	O	2.429694	0.755984	0.668832
O10	O	1.745281	0.089322	0.431450
O11	O	2.078614	0.422655	0.764783
O12	O	2.411947	0.755988	1.098117
O13	O	1.746218	-0.089325	0.019003
O14	O	2.079551	0.244009	0.352337
O15	O	2.412884	0.577342	0.685670
O16	O	1.522702	-0.089322	0.242519
O17	O	1.856035	0.244011	0.575852
O18	O	2.189369	0.577345	0.909185
O19	O	1.951987	-0.089323	0.224772
O20	O	2.285320	0.244010	0.558106
O21	O	2.618654	0.577344	0.891439
Cu22	Cu	1.735810	-0.105634	0.235183
Cu23	Cu	2.069143	0.227700	0.568516
Cu24	Cu	2.402476	0.561033	0.901850
Cu25	Cu	1.755689	0.105631	0.215270
Cu26	Cu	2.089022	0.438964	0.548604
Cu27	Cu	2.422355	0.772297	0.881937
O28	O	1.728471	-0.089320	0.448288
O29	O	2.061805	0.244013	0.781621
O30	O	2.395138	0.577346	1.114954
C31	C	1.476120	-0.000001	0.232394
C32	C	1.809454	0.333333	0.565728
C33	C	2.142787	0.666666	0.899061
C34	C	1.312277	-0.000000	0.227294
C35	C	1.645611	0.333333	0.560628
C36	C	1.978944	0.666666	0.893961
N37	N	1.721839	-0.254226	0.249188
N38	N	2.055172	0.079107	0.582521
N39	N	2.388505	0.412441	0.915854
C40	C	1.701287	-0.473341	0.269802
C41	C	2.034620	-0.140008	0.603135
C42	C	2.367953	0.193326	0.936468
C43	C	1.790218	-0.526669	0.180645
C44	C	2.123552	-0.193336	0.513978
C45	C	2.456885	0.139998	0.847311
C46	C	1.778783	-0.648592	0.192115
C47	C	2.112116	-0.315259	0.525448
C48	C	2.445450	0.018075	0.858781
C49	C	1.712720	-0.351407	0.258334
C50	C	2.046054	-0.018073	0.591667
C51	C	2.379387	0.315260	0.925000
C52	C	2.015378	0.000000	0.218059
C53	C	2.348712	0.333333	0.551392
C54	C	2.682045	0.666667	0.884725
C55	C	2.179222	0.000007	0.223158
C56	C	2.512555	0.333340	0.556491
C57	C	2.845889	0.666673	0.889824
N58	N	1.769671	0.254223	0.201254
N59	N	2.103005	0.587556	0.534587
N60	N	2.436338	0.920890	0.867921
C61	C	1.752917	-0.000002	-0.044402
C62	C	2.086250	0.333331	0.288931
C63	C	2.419583	0.666665	0.622264
C64	C	1.747818	0.000003	-0.208246
C65	C	2.081151	0.333336	0.125088
C66	C	2.414484	0.666670	0.458421
C67	C	1.738582	0.000001	0.494855
C68	C	2.071915	0.333335	0.828189
C69	C	2.405248	0.666668	1.161522
C70	C	1.743682	0.000003	0.658698
C71	C	2.077015	0.333337	0.992031
C72	C	2.410348	0.666670	1.325365
H73	H	1.874944	-0.480757	0.095702
H74	H	2.208277	-0.147424	0.429035
H75	H	2.541611	0.185909	0.762368
Cl76	Cl	1.570489	-0.544219	0.400947
Cl77	Cl	1.903822	-0.210885	0.734281
Cl78	Cl	2.237156	0.122448	1.067614
