data_functionalizedCrystal
_audit_creation_method	'MofGen! by Chris Wilmer'
_symmetry_space_group_name_H-M	'P1'
_symmetry_Int_Tables_number	1
_symmetry_cell_setting	triclinic
loop_
_symmetry_equiv_pos_as_xyz
  x,y,z
_cell_length_a	17.038272
_cell_length_b	17.038272
_cell_length_c	16.098538
_cell_angle_alpha	92.920305
_cell_angle_beta	87.069734
_cell_angle_gamma	91.111556
loop_
_atom_site_label
_atom_site_type_symbol
_atom_site_fract_x
_atom_site_fract_y
_atom_site_fract_z
O1	O	1.052033	0.167266	-0.069152
O2	O	1.552033	0.667266	0.430848
O3	O	0.824222	0.164557	-0.069177
O4	O	1.324222	0.664557	0.430823
O5	O	0.936773	0.052006	-0.069158
O6	O	1.436773	0.552006	0.430842
O7	O	0.939482	0.279817	-0.069171
O8	O	1.439482	0.779817	0.430829
O9	O	0.930197	0.058553	0.069354
O10	O	1.430197	0.558553	0.569354
O11	O	0.817646	0.171104	0.069335
O12	O	1.317646	0.671104	0.569335
O13	O	1.045456	0.173813	0.069359
O14	O	1.545456	0.673813	0.569359
Zn15	Zn	0.930507	0.173498	0.091339
Zn16	Zn	1.430507	0.673498	0.591339
Zn17	Zn	0.939172	0.164872	-0.091156
Zn18	Zn	1.439172	0.664872	0.408844
O19	O	0.932905	0.286364	0.069341
O20	O	1.432905	0.786364	0.569341
C21	C	0.791641	0.165367	0.000076
C22	C	1.291641	0.665367	0.500076
C23	C	0.704358	0.158019	0.000067
C24	C	1.204358	0.658019	0.500067
C25	C	0.931022	0.025987	0.000097
C26	C	1.431022	0.525987	0.500097
C27	C	0.923674	-0.061297	0.000096
C28	C	1.423674	0.438703	0.500096
C29	C	0.658749	0.225482	0.000064
C30	C	1.158749	0.725482	0.500064
C31	C	0.576737	0.218574	0.000075
C32	C	1.076737	0.718574	0.500075
C33	C	0.540335	0.144201	0.000085
C34	C	1.040335	0.644201	0.500085
C35	C	0.585950	0.076733	0.000090
C36	C	1.085950	0.576733	0.500090
C37	C	0.667961	0.083642	0.000084
C38	C	1.167961	0.583642	0.500084
C39	C	0.292946	0.119792	0.000108
C40	C	0.792946	0.619792	0.500108
C41	C	0.210929	0.112887	0.000112
C42	C	0.710929	0.612887	0.500112
C43	C	0.201722	0.254729	0.000098
C44	C	0.701722	0.754729	0.500098
C45	C	0.283734	0.261632	0.000088
C46	C	0.783734	0.761632	0.500088
C47	C	0.329342	0.194164	0.000098
C48	C	0.829342	0.694164	0.500098
C49	C	0.456505	0.137138	0.000094
C50	C	0.956505	0.637138	0.500094
C51	C	0.413170	0.201228	0.000094
C52	C	0.913170	0.701228	0.500094
C53	C	0.991137	-0.106906	0.000104
C54	C	1.491137	0.393094	0.500104
C55	C	0.984229	-0.188918	0.000096
C56	C	1.484229	0.311082	0.500096
C57	C	0.909856	-0.225320	0.000085
C58	C	1.409856	0.274680	0.500085
C59	C	0.842388	-0.179705	0.000074
C60	C	1.342388	0.320295	0.500074
C61	C	0.849297	-0.097694	0.000077
C62	C	1.349297	0.402306	0.500077
C63	C	0.885446	-0.472708	0.000071
C64	C	1.385446	0.027292	0.500071
C65	C	0.878541	-0.554725	0.000071
C66	C	1.378541	-0.054725	0.500071
C67	C	1.020383	-0.563932	0.000091
C68	C	1.520383	-0.063932	0.500091
C69	C	1.027286	-0.481920	0.000098
C70	C	1.527286	0.018080	0.500098
C71	C	0.959818	-0.436312	0.000083
C72	C	1.459818	0.063688	0.500083
C73	C	0.902792	-0.309149	0.000079
C74	C	1.402792	0.190851	0.500079
C75	C	0.966882	-0.352485	0.000084
C76	C	1.466882	0.147515	0.500084
C77	C	1.078037	0.173002	0.000105
C78	C	1.578037	0.673002	0.500105
C79	C	1.165320	0.180351	0.000108
C80	C	1.665320	0.680351	0.500108
C81	C	0.938656	0.312383	0.000083
C82	C	1.438656	0.812383	0.500083
C83	C	0.946005	0.399666	0.000079
C84	C	1.446005	0.899666	0.500079
N85	N	0.924599	0.179385	0.215887
N86	N	1.424599	0.679385	0.715887
N87	N	0.945085	0.158979	-0.215705
N88	N	1.445085	0.658979	0.284295
C89	C	0.972390	0.131633	0.259480
C90	C	1.472390	0.631633	0.759480
C91	C	0.968265	0.135759	0.346668
C92	C	1.468265	0.635759	0.846668
C93	C	0.916352	0.187642	0.390262
C94	C	1.416352	0.687642	0.890262
C95	C	0.868556	0.235395	0.346663
C96	C	1.368556	0.735395	0.846663
C97	C	0.872678	0.231265	0.259476
C98	C	1.372678	0.731265	0.759476
C99	C	0.901410	0.202602	0.653510
C100	C	1.401410	0.702602	1.153510
C101	C	0.897294	0.206731	0.740702
C102	C	1.397294	0.706731	1.240702
C103	C	0.997003	0.107093	0.740702
C104	C	1.497003	0.607093	1.240702
C105	C	1.001123	0.102971	0.653513
C106	C	1.501123	0.602971	1.153513
C107	C	0.953324	0.150721	0.609922
C108	C	1.453324	0.650721	1.109922
C109	C	0.912136	0.191862	0.479383
C110	C	1.412136	0.691862	0.979383
C111	C	0.957536	0.146496	0.520803
C112	C	1.457536	0.646496	1.020803
H113	H	0.539605	0.273510	0.000072
H114	H	1.039605	0.773510	0.500072
H115	H	0.833760	0.270148	0.223984
H116	H	1.333760	0.770148	0.723984
H117	H	0.313367	0.322194	0.000070
H118	H	0.813367	0.822194	0.500070
O119	O	0.806234	-0.589963	0.000014
O120	O	1.306234	-0.089963	0.500014
C121	C	0.748164	-0.532123	0.000019
C122	C	1.248164	-0.032123	0.500019
H123	H	0.775125	-0.476249	-0.026197
H124	H	1.275125	0.023751	0.473803
H125	H	0.698485	-0.554500	-0.040209
H126	H	1.198485	-0.054500	0.459791
H127	H	0.723927	-0.518849	0.066464
H128	H	1.223927	-0.018849	0.566464
H129	H	0.164579	0.309658	0.000092
H130	H	0.664579	0.809658	0.500092
H131	H	0.781832	-0.209350	0.000060
H132	H	1.281832	0.290650	0.500060
H133	H	0.826283	0.277636	0.382162
H134	H	1.326283	0.777636	0.882162
O135	O	1.085980	-0.608159	-0.000015
O136	O	1.585980	-0.108159	0.499985
C137	C	1.134206	-0.594318	-0.071758
C138	C	1.634206	-0.094318	0.428242
H139	H	1.120190	-0.534592	-0.095672
H140	H	1.620190	-0.034592	0.404328
H141	H	1.198556	-0.594964	-0.055620
H142	H	1.698556	-0.094964	0.444380
H143	H	1.122870	-0.642207	-0.121994
H144	H	1.622870	-0.142207	0.378006
O145	O	0.694234	0.297668	0.000015
O146	O	1.194234	0.797668	0.500015
C147	C	0.776399	0.289304	0.000029
C148	C	1.276399	0.789304	0.500029
H149	H	0.792801	0.228059	-0.026190
H150	H	1.292801	0.728059	0.473810
H151	H	0.806526	0.335321	-0.040192
H152	H	1.306526	0.835321	0.459808
H153	H	0.796310	0.297771	0.066477
H154	H	1.296310	0.797771	0.566477
H155	H	0.794361	-0.060560	0.000070
H156	H	1.294361	0.439440	0.500070
O157	O	0.819938	-0.428388	-0.000086
O158	O	1.319938	0.071612	0.499914
C159	C	0.823099	-0.384049	-0.071813
C160	C	1.323099	0.115951	0.428187
H161	H	0.863647	-0.413740	-0.121948
H162	H	1.363647	0.086260	0.378052
H163	H	0.761596	-0.380191	-0.095900
H164	H	1.261596	0.119809	0.404100
H165	H	0.846610	-0.322363	-0.055593
H166	H	1.346610	0.177637	0.444407
H167	H	0.181294	0.052321	0.000118
H168	H	0.681294	0.552321	0.500118
O169	O	0.550717	0.004428	0.000133
O170	O	1.050717	0.504428	0.500133
C171	C	0.608563	-0.053636	0.000113
C172	C	1.108563	0.446364	0.500113
H173	H	0.664430	-0.026681	0.026336
H174	H	1.164430	0.473319	0.526336
H175	H	0.586184	-0.103334	0.040328
H176	H	1.086184	0.396666	0.540328
H177	H	0.621850	-0.077846	-0.066338
H178	H	1.121850	0.422154	0.433662
H179	H	1.027437	-0.322844	0.000074
H180	H	1.527437	0.177156	0.500074
H181	H	1.007180	0.096876	0.382161
H182	H	1.507180	0.596876	0.882161
O183	O	1.022766	0.081268	0.217008
O184	O	1.522766	0.581268	0.717008
C185	C	1.016127	0.087827	0.130706
C186	C	1.516127	0.587827	0.630706
H187	H	0.991536	0.147748	0.118776
H188	H	1.491536	0.647748	0.618776
H189	H	1.076571	0.081449	0.097546
H190	H	1.576571	0.581449	0.597546
H191	H	0.974907	0.039589	0.106009
H192	H	1.474907	0.539589	0.606009
H193	H	0.862492	0.241484	0.618024
H194	H	1.362492	0.741484	1.118024
H195	H	0.330070	0.064854	0.000117
H196	H	0.830070	0.564854	0.500117
O197	O	0.712357	0.018160	-0.000027
O198	O	1.212357	0.518160	0.499973
C199	C	0.763454	0.014511	-0.071776
C200	C	1.263454	0.514511	0.428224
H201	H	0.772871	0.075989	-0.095698
H202	H	1.272871	0.575989	0.404302
H203	H	0.822311	-0.009881	-0.055642
H204	H	1.322311	0.490119	0.444358
H205	H	0.736500	-0.025527	-0.122004
H206	H	1.236500	0.474473	0.377996
H207	H	1.087848	-0.452287	0.000107
H208	H	1.587848	0.047713	0.500107
H209	H	0.442811	0.261782	0.000091
H210	H	0.942811	0.761782	0.500091
O211	O	1.063360	-0.071506	0.000261
O212	O	1.563360	0.428494	0.500261
C213	C	1.068193	-0.020943	0.071989
C214	C	1.568193	0.479057	0.571989
H215	H	1.023486	-0.040675	0.122125
H216	H	1.523486	0.459325	0.622125
H217	H	1.129853	-0.022953	0.096072
H218	H	1.629853	0.477047	0.596072
H219	H	1.055149	0.041684	0.055770
H220	H	1.555149	0.541684	0.555770
H221	H	0.999800	0.104250	0.485307
H222	H	1.499800	0.604250	0.985307
H223	H	0.426857	0.076584	0.000125
H224	H	0.926857	0.576584	0.500125
H225	H	1.043394	0.060724	0.618021
H226	H	1.543394	0.560724	1.118021
H227	H	1.035918	0.068216	0.776202
H228	H	1.535918	0.568216	1.276202
O229	O	0.846787	0.257142	0.782922
O230	O	1.346787	0.757142	1.282922
C231	C	0.805491	0.298413	0.725752
C232	C	1.305491	0.798413	1.225752
H233	H	0.805406	0.263215	0.663606
H234	H	1.305406	0.763215	1.163606
H235	H	0.742379	0.307364	0.750953
H236	H	1.242379	0.807364	1.250953
H237	H	0.835293	0.358031	0.716469
H238	H	1.335293	0.858031	1.216469
H239	H	0.869870	0.234107	0.514884
H240	H	1.369870	0.734107	1.014884
O241	O	1.049841	-0.233103	0.000146
O242	O	1.549841	0.266897	0.500146
C243	C	1.116966	-0.183389	0.000143
C244	C	1.616966	0.316611	0.500143
H245	H	1.099851	-0.122342	0.026364
H246	H	1.599851	0.377658	0.526364
H247	H	1.162657	-0.208407	0.040367
H248	H	1.662657	0.291593	0.540367
H249	H	1.142669	-0.179218	-0.066303
H250	H	1.642669	0.320782	0.433697
O251	O	0.830499	-0.344414	0.000184
O252	O	1.330499	0.155586	0.500184
C253	C	0.785643	-0.318208	0.071929
C254	C	1.285643	0.181792	0.571929
H255	H	0.809685	-0.258843	0.095852
H256	H	1.309685	0.241157	0.595852
H257	H	0.721766	-0.311953	0.055789
H258	H	1.221766	0.188047	0.555789
H259	H	0.789204	-0.362635	0.122158
H260	H	1.289204	0.137365	0.622158
