data_functionalizedCrystal
_audit_creation_method	'MofGen! by Chris Wilmer'
_symmetry_space_group_name_H-M	'P1'
_symmetry_Int_Tables_number	1
_symmetry_cell_setting	triclinic
loop_
_symmetry_equiv_pos_as_xyz
  x,y,z
_cell_length_a	11.026607
_cell_length_b	15.995350
_cell_length_c	10.065918
_cell_angle_alpha	99.814207
_cell_angle_beta	97.708363
_cell_angle_gamma	96.039196
loop_
_atom_site_label
_atom_site_type_symbol
_atom_site_fract_x
_atom_site_fract_y
_atom_site_fract_z
O1	O	1.626085	0.363946	0.113481
O2	O	1.272780	0.324021	0.113484
O3	O	1.459090	0.223551	0.113481
O4	O	1.439775	0.464415	0.113484
O5	O	1.427226	0.196893	-0.113507
O6	O	1.240916	0.297362	-0.113504
O7	O	1.594222	0.337287	-0.113508
Zn8	Zn	1.412510	0.313092	-0.149545
Zn9	Zn	1.454492	0.348216	0.149522
O10	O	1.407911	0.437757	-0.113505
C11	C	1.211637	0.303326	-0.000010
C12	C	1.076923	0.281370	-0.000008
C13	C	1.442360	0.178907	-0.000011
C14	C	1.439967	0.085597	-0.000003
C15	C	1.003118	0.341996	-0.000007
C16	C	0.863884	0.319304	-0.000005
C17	C	1.431369	-0.253447	-0.000007
C18	C	1.298753	-0.225953	0.000503
C19	C	1.301076	-0.128962	-0.000009
C20	C	1.435634	-0.085244	-0.000004
C21	C	1.482884	-0.131680	-0.129624
C22	C	1.479536	-0.228831	-0.129732
C23	C	1.518512	-0.198460	0.128396
C24	C	1.518721	-0.101318	0.130109
C25	C	1.438051	0.009818	-0.000007
C26	C	1.428955	-0.348510	-0.000014
C27	C	1.655365	0.357982	-0.000011
C28	C	1.790080	0.379940	-0.000003
C29	C	1.424642	0.482401	-0.000010
C30	C	1.427036	0.575713	-0.000009
N31	N	1.383867	0.289122	-0.353650
C32	C	1.444518	0.339875	-0.421430
C33	C	1.422484	0.321420	-0.578597
N34	N	1.483144	0.372181	0.353627
H35	H	1.043008	0.410699	-0.000014
N36	N	0.811063	0.228289	-0.000023
H37	H	0.719086	0.224978	-0.000025
H38	H	0.851255	0.209387	0.084122
N39	N	1.612933	-0.093973	-0.135987
H40	H	1.614316	-0.070436	-0.222799
H41	H	1.669023	-0.139936	-0.134644
N42	N	0.842893	0.470952	-0.000016
H43	H	0.934870	0.474264	-0.000019
H44	H	0.826324	0.509617	0.084132
N45	N	1.573548	0.447836	-0.569133
H46	H	1.529134	0.487871	-0.509854
H47	H	1.610972	0.479101	-0.636047
H48	H	1.512761	0.396986	-0.363104
H49	H	1.037037	0.212670	0.000026
N50	N	1.398302	-0.277676	-0.258078
H51	H	1.312141	-0.261330	-0.260269
H52	H	1.395415	-0.341132	-0.259360
N53	N	1.293482	0.213464	-0.430900
H54	H	1.208685	0.219697	-0.406126
H55	H	1.320755	0.159034	-0.406065
N56	N	1.250208	-0.087122	0.123063
H57	H	1.226069	-0.131664	0.178136
H58	H	1.175281	-0.060050	0.091995
H59	H	1.258768	-0.241561	0.093456
N60	N	1.332097	0.245755	-0.655834
H61	H	1.329171	0.243296	-0.757160
H62	H	1.247350	0.252037	-0.630951
H63	H	1.232979	-0.264361	-0.091931
H64	H	1.236220	-0.119834	-0.093083
N65	N	1.404743	-0.118157	-0.257393
H66	H	1.316070	-0.142227	-0.258682
H67	H	1.435965	-0.148270	-0.340182
N68	N	1.607468	-0.253023	-0.137568
H69	H	1.606290	-0.316262	-0.137706
H70	H	1.666658	-0.219397	-0.056094
N71	N	1.479328	-0.219042	0.258537
H72	H	1.404683	-0.264226	0.235572
H73	H	1.457993	-0.165586	0.314784
N74	N	1.650158	-0.060167	0.140481
H75	H	1.707323	-0.105562	0.139328
H76	H	1.673364	-0.016976	0.228429
H77	H	1.484332	-0.070020	0.225998
N78	N	1.648263	-0.220856	0.129564
H79	H	1.650646	-0.266388	0.047369
H80	H	1.674836	-0.243008	0.215611
