data_functionalizedCrystal
_audit_creation_method	'MofGen! by Chris Wilmer'
_symmetry_space_group_name_H-M	'P1'
_symmetry_Int_Tables_number	1
_symmetry_cell_setting	triclinic
loop_
_symmetry_equiv_pos_as_xyz
  x,y,z
_cell_length_a	9.198806
_cell_length_b	10.723024
_cell_length_c	10.723024
_cell_angle_alpha	84.467869
_cell_angle_beta	90.002012
_cell_angle_gamma	90.003648
loop_
_atom_site_label
_atom_site_type_symbol
_atom_site_fract_x
_atom_site_fract_y
_atom_site_fract_z
O1	O	-0.120879	-1.657188	-0.175024
O2	O	-0.120884	-1.294035	-0.191778
O3	O	-0.120876	-1.483988	-0.001825
O4	O	-0.120887	-1.467235	-0.364977
O5	O	0.120909	-1.483973	-0.001824
O6	O	0.120901	-1.294020	-0.191777
O7	O	0.120906	-1.657173	-0.175024
Cu8	Cu	0.142981	-1.475595	-0.183401
Cu9	Cu	-0.142958	-1.475613	-0.183401
O10	O	0.120898	-1.467220	-0.364977
C11	C	0.000008	-1.247528	-0.190558
C12	C	0.000007	-1.108974	-0.186911
N13	N	0.344095	-1.475592	-0.183399
N14	N	-0.344072	-1.475626	-0.183393
C15	C	0.000015	-1.482762	0.044675
C16	C	0.000010	-1.479114	0.183229
C17	C	0.416295	-1.555347	-0.103292
C18	C	0.583707	-1.555367	-0.103288
C19	C	0.000011	-1.703680	-0.176243
C20	C	0.000003	-1.842234	-0.179891
C21	C	0.000002	-1.033991	-0.293198
C22	C	0.000001	-0.890788	-0.289431
C23	C	0.000004	-1.468447	-0.411477
C24	C	-0.000000	-1.472094	-0.550031
C25	C	0.000009	-1.585401	0.258212
C26	C	0.000004	-1.581634	0.401415
H27	H	0.354171	-1.623611	-0.034707
C28	C	-0.000292	-1.053154	-0.061886
C29	C	-0.124704	-0.979240	-0.053370
C30	C	-0.125040	-0.927816	0.061795
H31	H	0.083924	-1.002840	-0.055767
H32	H	-0.000370	-1.118732	0.004347
H33	H	-0.124614	-0.913670	-0.119584
H34	H	-0.208941	-1.029524	-0.059466
H35	H	-0.125117	-0.993395	0.128028
H36	H	-0.040818	-0.877509	0.067903
H37	H	-0.209458	-0.877669	0.067593
H38	H	0.000019	-1.679187	0.216390
H39	H	0.645796	-1.623653	-0.034709
C40	C	-0.000225	-1.703066	0.487170
C41	C	-0.124599	-1.772467	0.463953
C42	C	-0.124851	-1.884348	0.542917
H43	H	-0.000303	-1.684585	0.572042
H44	H	0.084047	-1.750376	0.471593
H45	H	-0.208850	-1.725166	0.479539
H46	H	-0.124548	-1.790981	0.379096
H47	H	-0.040578	-1.931659	0.527340
H48	H	-0.124924	-1.865855	0.627784
H49	H	-0.209229	-1.931456	0.527167
H50	H	0.593848	-1.407345	-0.251984
C51	C	-0.000301	-1.350794	0.364012
C52	C	-0.124709	-1.346218	0.288480
C53	C	-0.125047	-1.234489	0.209285
H54	H	0.083918	-1.347349	0.312539
H55	H	-0.000384	-1.281547	0.413008
H56	H	-0.124613	-1.415446	0.239489
H57	H	-0.208948	-1.349643	0.339920
H58	H	-0.125130	-1.165242	0.258280
H59	H	-0.040822	-1.231054	0.157820
H60	H	-0.209462	-1.231364	0.158035
C61	C	0.427105	-1.384495	-0.274648
C62	C	0.514533	-1.307436	-0.207631
C63	C	0.591033	-1.223511	-0.291649
H64	H	0.360267	-1.334333	-0.324943
H65	H	0.486557	-1.430006	-0.326796
H66	H	0.455086	-1.261928	-0.155505
H67	H	0.581398	-1.357563	-0.157340
H68	H	0.650485	-1.269022	-0.343797
H69	H	0.524184	-1.173358	-0.341939
H70	H	0.650371	-1.171224	-0.246191
C71	C	0.000300	-1.089669	-0.418297
C72	C	0.124707	-1.049712	-0.486003
C73	C	0.125040	-1.100985	-0.601247
H74	H	-0.083920	-1.062720	-0.464574
H75	H	0.000381	-1.178514	-0.404264
H76	H	0.124613	-0.960887	-0.500041
H77	H	0.208947	-1.076660	-0.439765
H78	H	0.125122	-1.189830	-0.587213
H79	H	0.040816	-1.074033	-0.647512
H80	H	0.209455	-1.073892	-0.647194
H81	H	-0.000009	-0.826355	-0.380421
H82	H	-0.000003	-0.906659	-0.088896
H83	H	-0.000001	-1.385328	0.225051
