data_functionalizedCrystal
_audit_creation_method	'MofGen! by Chris Wilmer'
_symmetry_space_group_name_H-M	'P1'
_symmetry_Int_Tables_number	1
_symmetry_cell_setting	triclinic
loop_
_symmetry_equiv_pos_as_xyz
  x,y,z
_cell_length_a	10.686154
_cell_length_b	10.686203
_cell_length_c	14.909227
_cell_angle_alpha	97.924029
_cell_angle_beta	88.694188
_cell_angle_gamma	90.345070
loop_
_atom_site_label
_atom_site_type_symbol
_atom_site_fract_x
_atom_site_fract_y
_atom_site_fract_z
Zn1	Zn	-1.984604	0.318985	-0.383997
Zn2	Zn	-1.484604	0.818985	0.116003
Zn3	Zn	-1.988493	0.542895	-0.220682
Zn4	Zn	-1.488493	1.042895	0.279318
Zn5	Zn	-1.764436	0.347263	-0.243660
Zn6	Zn	-1.264436	0.847263	0.256340
Zn7	Zn	-1.790785	0.544952	-0.382210
Zn8	Zn	-1.290785	1.044952	0.117790
O9	O	-1.882080	0.438524	-0.307637
O10	O	-1.382080	0.938524	0.192363
O11	O	-2.160002	0.335991	-0.353465
O12	O	-1.660002	0.835991	0.146535
O13	O	-1.949372	0.527918	-0.097399
O14	O	-1.449372	1.027918	0.402601
O15	O	-1.780988	0.167071	-0.272641
O16	O	-1.280988	0.667071	0.227359
O17	O	-2.162859	0.500498	-0.233478
O18	O	-1.662859	1.000498	0.266522
O19	O	-1.942743	0.146295	-0.375746
O20	O	-1.442743	0.646295	0.124254
O21	O	-1.784759	0.384188	-0.114281
O22	O	-1.284759	0.884188	0.385719
O23	O	-1.593049	0.386182	-0.270908
O24	O	-1.093049	0.886182	0.229092
O25	O	-1.825895	0.504003	-0.508778
O26	O	-1.325895	1.004003	-0.008778
O27	O	-1.612408	0.531423	-0.372699
O28	O	-1.112408	1.031423	0.127301
O29	O	-1.968293	0.337986	-0.510091
O30	O	-1.468293	0.837986	-0.010091
O31	O	-1.974921	0.719609	-0.231745
O32	O	-1.474921	1.219609	0.268255
O33	O	-1.829666	0.721120	-0.350418
O34	O	-1.329666	1.221120	0.149582
C35	C	-1.557384	0.462095	-0.324104
C36	C	-1.057384	0.962095	0.175896
C37	C	-1.418481	0.472208	-0.331167
C38	C	-0.918481	0.972208	0.168833
C39	C	-1.905610	0.766110	-0.288412
C40	C	-1.405610	1.266110	0.211588
C41	C	-1.915793	0.906241	-0.280212
C42	C	-1.415793	1.406241	0.219788
C43	C	-1.899599	0.418069	-0.543107
C44	C	-1.399599	0.918069	-0.043107
C45	C	-1.907065	0.409353	-0.643450
C46	C	-1.407065	0.909353	-0.143450
C47	C	-1.208042	0.414849	-0.291102
C48	C	-0.708042	0.914849	0.208898
C49	C	-1.346945	0.404730	-0.284043
C50	C	-0.846945	0.904730	0.215957
C51	C	-1.858481	1.109654	-0.326966
C52	C	-1.358481	1.609654	0.173034
C53	C	-1.848396	0.969510	-0.335229
C54	C	-1.348396	1.469510	0.164771
C55	C	-1.991717	0.310641	-0.785564
C56	C	-1.491717	0.810641	-0.285564
C57	C	-1.984709	0.318825	-0.691283
C58	C	-1.484709	0.818825	-0.191283
C59	C	-1.836426	0.491704	-0.689905
C60	C	-1.336426	0.991704	-0.189905
C61	C	-1.843435	0.483520	-0.784187
C62	C	-1.343435	0.983520	-0.284187
C63	C	-1.921082	0.392984	-0.832013
C64	C	-1.421082	0.892984	-0.332013
C65	C	-1.928083	0.384794	-0.926297
C66	C	-1.428083	0.884794	-0.426297
C67	C	-1.779808	0.557678	-0.924917
C68	C	-1.279808	1.057678	-0.424917
C69	C	-1.772799	0.565863	-0.830635
C70	C	-1.272799	1.065863	-0.330635
C71	C	-1.864694	0.458802	-0.073086
C72	C	-1.364694	0.958802	0.426914
C73	C	-1.857444	0.467146	0.027248
C74	C	-1.357444	0.967146	0.527248
H75	H	-1.391964	0.339224	-0.238293
H76	H	-0.891964	0.839224	0.261707
H77	H	-2.054927	0.236911	-0.824506
H78	H	-1.554927	0.736911	-0.324506
Br79	Br	-1.683923	0.669423	-0.987960
Br80	Br	-1.183923	1.169423	-0.487960
Br81	Br	-1.343448	0.581418	-0.407414
Br82	Br	-0.843448	1.081418	0.092586
Br83	Br	-2.033444	0.261914	-0.991205
Br84	Br	-1.533444	0.761914	-0.491205
H85	H	-1.773220	0.565423	-0.650948
H86	H	-1.273220	1.065423	-0.150948
H87	H	-1.782904	0.916474	-0.388605
H88	H	-1.282904	1.416474	0.111395
H89	H	-1.981280	0.959287	-0.226826
H90	H	-1.481280	1.459287	0.273174
Br91	Br	-2.080582	0.207075	-0.628246
Br92	Br	-1.580582	0.707075	-0.128246
H93	H	-1.709585	0.639578	-0.791682
H94	H	-1.209585	1.139578	-0.291682
