data_functionalizedCrystal
_audit_creation_method	'MofGen! by Chris Wilmer'
_symmetry_space_group_name_H-M	'P1'
_symmetry_Int_Tables_number	1
_symmetry_cell_setting	triclinic
loop_
_symmetry_equiv_pos_as_xyz
  x,y,z
_cell_length_a	8.559649
_cell_length_b	13.930277
_cell_length_c	8.559649
_cell_angle_alpha	89.996782
_cell_angle_beta	110.221336
_cell_angle_gamma	90.006906
loop_
_atom_site_label
_atom_site_type_symbol
_atom_site_fract_x
_atom_site_fract_y
_atom_site_fract_z
O1	O	2.126888	0.079816	0.055037
O2	O	1.651403	0.079820	-0.028744
O3	O	1.931036	0.079816	0.250889
O4	O	1.847255	0.079819	-0.224596
O5	O	1.931002	-0.079845	0.250890
O6	O	1.651369	-0.079842	-0.028743
O7	O	2.126854	-0.079846	0.055038
Zn8	Zn	1.889106	-0.105194	0.013148
Zn9	Zn	1.889151	0.105167	0.013146
O10	O	1.847221	-0.079843	-0.224595
C11	C	1.591077	-0.000011	-0.035093
C12	C	1.411378	-0.000009	-0.053992
N13	N	1.889088	-0.248760	0.013151
C14	C	1.765331	-0.701028	-0.110632
C15	C	2.013018	-0.701000	0.136943
C16	C	2.012999	-0.600504	0.136946
C17	C	1.889146	-0.550266	0.013156
C18	C	1.765311	-0.600523	-0.110636
C19	C	2.136841	-0.550240	0.260726
C20	C	2.136829	-0.449738	0.260733
C21	C	2.012967	-0.399497	0.136949
C22	C	1.889126	-0.449761	0.013152
C23	C	1.765273	-0.399522	-0.110638
C24	C	1.641424	-0.449784	-0.234429
C25	C	1.641449	-0.550282	-0.234421
C26	C	2.012941	-0.298999	0.136941
C27	C	1.765253	-0.299017	-0.110641
C28	C	2.187180	-0.000014	0.061387
C29	C	2.366879	-0.000009	0.080286
C30	C	1.937369	-0.000013	0.311198
C31	C	1.956268	-0.000008	0.490898
N32	N	1.889184	0.248733	0.013157
C33	C	1.840889	-0.000012	-0.284904
C34	C	1.821990	-0.000010	-0.464604
H35	H	1.311990	-0.000003	-0.183420
C36	C	1.499203	-0.000159	0.252962
C37	C	1.480823	-0.082289	0.339320
C38	C	1.602686	-0.082452	0.498403
H39	H	1.606506	-0.000209	0.243395
H40	H	1.487011	0.055490	0.311879
H41	H	1.493029	-0.137923	0.280417
H42	H	1.373546	-0.082256	0.348932
H43	H	1.590494	-0.026803	0.557320
H44	H	1.709980	-0.082500	0.488819
H45	H	1.590222	-0.138171	0.557022
H46	H	1.692570	-0.000013	0.436018
H47	H	2.113784	-0.258080	0.237723
C48	C	1.630685	-0.244649	-0.245238
C49	C	1.522262	-0.310179	-0.353660
C50	C	1.398293	-0.260131	-0.477682
H51	H	1.570145	-0.205448	-0.195338
H52	H	1.680685	-0.205459	-0.305746
H53	H	1.472265	-0.349352	-0.293160
H54	H	1.582753	-0.349382	-0.403602
H55	H	1.448293	-0.220941	-0.538190
H56	H	1.337766	-0.220931	-0.427766
H57	H	1.324722	-0.304585	-0.551270
C58	C	2.128893	-0.000210	0.623335
C59	C	2.215201	-0.082362	0.605011
C60	C	2.374216	-0.082586	0.726994
H61	H	2.187940	0.055405	0.611270
H62	H	2.119162	-0.000267	0.730588
H63	H	2.224940	-0.082295	0.497785
H64	H	2.156205	-0.137989	0.617093
H65	H	2.364484	-0.082643	0.834247
H66	H	2.433247	-0.026968	0.714919
H67	H	2.432790	-0.138329	0.714588
C68	C	1.507196	-0.605026	-0.368728
C69	C	1.533758	-0.703791	-0.342257
C70	C	1.410138	-0.754253	-0.465962
H71	H	1.401008	-0.588694	-0.364456
H72	H	1.511532	-0.588603	-0.474881
H73	H	1.529407	-0.720207	-0.236132
H74	H	1.639923	-0.720151	-0.346545
H75	H	1.414473	-0.737831	-0.572115
H76	H	1.303958	-0.737913	-0.461680
H77	H	1.428152	-0.821270	-0.448027
H78	H	1.540587	-0.408868	-0.335226
H79	H	2.113863	-0.741908	0.237722
H80	H	1.664490	-0.741953	-0.211418
H81	H	2.237686	-0.591147	0.361506
H82	H	2.237671	-0.408821	0.361531
