data_functionalizedCrystal
_audit_creation_method	'MofGen! by Chris Wilmer'
_symmetry_space_group_name_H-M	'P1'
_symmetry_Int_Tables_number	1
_symmetry_cell_setting	triclinic
loop_
_symmetry_equiv_pos_as_xyz
  x,y,z
_cell_length_a	12.759401
_cell_length_b	21.295417
_cell_length_c	21.295412
_cell_angle_alpha	90.031187
_cell_angle_beta	90.014620
_cell_angle_gamma	90.032032
loop_
_atom_site_label
_atom_site_type_symbol
_atom_site_fract_x
_atom_site_fract_y
_atom_site_fract_z
Zn1	Zn	1.606085	-0.250596	0.355881
Zn2	Zn	1.605947	-0.355865	0.250606
Zn3	Zn	1.430404	-0.250617	0.250629
Zn4	Zn	1.430328	-0.355834	0.355841
O5	O	1.518191	-0.303228	0.303239
O6	O	1.753088	-0.264565	0.341923
O7	O	1.582635	-0.341926	0.162520
O8	O	1.453798	-0.162525	0.264617
O9	O	1.752987	-0.341906	0.264578
O10	O	1.582870	-0.162509	0.341945
O11	O	1.453664	-0.264600	0.162537
O12	O	1.283372	-0.264570	0.264579
O13	O	1.453668	-0.341852	0.443936
O14	O	1.283317	-0.341872	0.341878
O15	O	1.582797	-0.264534	0.443965
O16	O	1.582562	-0.443951	0.264540
O17	O	1.453534	-0.443928	0.341855
C18	C	1.245224	-0.303220	0.303227
C19	C	1.128447	-0.303232	0.303236
C20	C	1.073583	-0.343545	0.343423
C21	C	0.963859	-0.343547	0.343435
C22	C	0.963872	-0.262923	0.263070
C23	C	1.073594	-0.262918	0.263061
C24	C	0.813939	-0.366144	0.417644
C25	C	0.759072	-0.406466	0.457825
C26	C	0.794640	-0.467900	0.467372
C27	C	0.885073	-0.489024	0.436730
C28	C	0.939935	-0.448705	0.396544
C29	C	0.904368	-0.387262	0.387009
C30	C	1.223516	-0.240328	0.188851
C31	C	1.278380	-0.200011	0.148662
C32	C	1.242814	-0.138576	0.139108
C33	C	1.152378	-0.117455	0.169740
C34	C	1.097514	-0.157771	0.209929
C35	C	1.133087	-0.219205	0.219483
C36	C	1.518053	-0.466780	0.303204
C37	C	1.518090	-0.536748	0.303211
C38	C	1.585335	-0.569606	0.262994
C39	C	1.585384	-0.635348	0.263008
C40	C	1.518170	-0.668230	0.303232
C41	C	1.450921	-0.635365	0.343457
C42	C	1.450881	-0.569623	0.343446
N43	N	1.426262	-0.771498	0.308027
N44	N	1.426303	-0.833949	0.308034
C45	C	1.518288	-0.866305	0.303268
N46	N	1.610232	-0.833850	0.298484
N47	N	1.610190	-0.771393	0.298474
C48	C	1.518206	-0.739516	0.303249
C49	C	1.585591	-0.970448	0.263065
C50	C	1.585642	-1.036192	0.263083
C51	C	1.451170	-1.036207	0.343529
C52	C	1.451129	-0.970465	0.343514
C53	C	1.518338	-0.937589	0.303278
C54	C	1.792224	-0.303236	0.303252
C55	C	1.909001	-0.303240	0.303258
C56	C	1.518239	-0.303188	0.467430
C57	C	1.518260	-0.303170	0.537398
C58	C	1.518358	-0.139038	0.303288
C59	C	1.518429	-0.069070	0.303309
C60	C	1.518203	-0.303223	0.139688
C61	C	1.518386	-0.303063	0.069720
C62	C	1.585597	-0.262811	1.036872
C63	C	1.585589	-0.262826	0.971130
C64	C	1.518351	-0.303087	0.938237
C65	C	1.451136	-0.343347	0.971093
C66	C	1.451153	-0.343335	1.036835
N67	N	1.426354	-0.307932	0.835011
N68	N	1.426340	-0.307940	0.772559
C69	C	1.518296	-0.303126	0.740163
N70	N	1.610268	-0.298293	0.772577
N71	N	1.610280	-0.298282	0.835034
C72	C	1.518325	-0.303105	0.866952
C73	C	1.585503	-0.262889	0.636029
C74	C	1.585497	-0.262908	0.570285
C75	C	1.451035	-0.343426	0.570250
C76	C	1.451050	-0.343409	0.635993
C77	C	1.518283	-0.303137	0.668878
H78	H	0.685442	-0.389262	0.482775
H79	H	1.396197	-0.662142	0.376209
H80	H	0.784979	-0.316118	0.409881
N81	N	1.382436	-0.936888	0.384586
N82	N	1.382412	-0.878191	0.384572
H83	H	1.333899	-0.854476	0.413583
H84	H	1.396448	-1.062979	0.376284
N85	N	1.382475	-0.384449	1.070382
N86	N	1.285532	-0.380273	1.063031
H87	H	1.237023	-0.409308	1.086725
H88	H	1.396122	-0.542870	0.376197
N89	N	1.382338	-0.384552	0.536670
N90	N	1.322324	-0.420485	0.566010
H91	H	1.273806	-0.449533	0.542292
N92	N	1.370750	-0.221597	0.117369
N93	N	1.402501	-0.276451	0.125904
H94	H	1.467736	-0.291697	0.103804
H95	H	1.640248	-0.230096	0.662806
N96	N	1.298859	-0.097404	0.098046
N97	N	1.379595	-0.116268	0.070690
H98	H	1.419175	-0.087190	0.041691
H99	H	0.919198	-0.230101	0.230359
N100	N	1.005146	-0.136184	0.241223
N101	N	0.973403	-0.081328	0.232696
H102	H	0.908174	-0.066080	0.254801
H103	H	1.640320	-0.943680	0.230304
N104	N	1.382393	-0.384533	0.669540
N105	N	1.322371	-0.420483	0.640168
H106	H	1.273883	-0.449532	0.663860
N107	N	1.382436	-0.384461	0.937498
N108	N	1.285497	-0.380282	0.944837
H109	H	1.236976	-0.409322	0.921111
H110	H	1.123407	-0.067433	0.161951
N111	N	1.654281	-0.221674	1.070453
N112	N	1.714290	-0.185738	1.041111
H113	H	1.762802	-0.156685	1.064828
N114	N	1.654172	-0.221792	0.536739
N115	N	1.714195	-0.185842	0.566112
H116	H	1.762700	-0.156803	0.542421
H117	H	1.252489	-0.290351	0.196632
N118	N	1.653965	-0.536016	0.221892
N119	N	1.653909	-0.477319	0.221876
H120	H	1.702371	-0.453593	0.192843
N121	N	1.654237	-0.221695	0.937576
N122	N	1.647309	-0.163609	0.944940
H123	H	1.695790	-0.134558	0.921245
H124	H	1.640146	-0.662106	0.230258
H125	H	1.013563	-0.465903	0.371595
N126	N	1.129599	-0.384729	0.384462
N127	N	1.080595	-0.420719	0.420339
H128	H	1.120152	-0.449806	0.449326
H129	H	0.749959	-0.500731	0.500089
N130	N	0.921377	-0.551786	0.446479
N131	N	0.872381	-0.587778	0.482358
H132	H	0.898022	-0.632105	0.489245
N133	N	1.654354	-1.069748	0.222004
N134	N	1.714356	-1.040384	0.186088
H135	H	1.762888	-1.064082	0.157075
