data_functionalizedCrystal
_audit_creation_method	'MofGen! by Chris Wilmer'
_symmetry_space_group_name_H-M	'P1'
_symmetry_Int_Tables_number	1
_symmetry_cell_setting	triclinic
loop_
_symmetry_equiv_pos_as_xyz
  x,y,z
_cell_length_a	10.654550
_cell_length_b	10.723024
_cell_length_c	9.730223
_cell_angle_alpha	89.996766
_cell_angle_beta	89.999957
_cell_angle_gamma	84.476400
loop_
_atom_site_label
_atom_site_type_symbol
_atom_site_fract_x
_atom_site_fract_y
_atom_site_fract_z
O1	O	1.667813	0.175275	-0.114183
O2	O	1.302332	0.191974	-0.114208
O3	O	1.493503	0.002049	-0.114190
O4	O	1.476642	0.365199	-0.114202
O5	O	1.493490	0.002044	0.114390
O6	O	1.302319	0.191968	0.114372
O7	O	1.667800	0.175269	0.114396
Zn8	Zn	1.485058	0.183618	0.150676
Zn9	Zn	1.485074	0.183625	-0.150488
O10	O	1.476629	0.365194	0.114378
C11	C	1.255528	0.190745	0.000078
C12	C	1.116085	0.187077	0.000069
C13	C	1.036583	0.298901	0.000069
C14	C	0.905562	0.295447	0.000093
C15	C	0.933560	0.068334	0.000111
C16	C	1.064577	0.071789	0.000097
C17	C	1.492269	-0.044453	0.000098
C18	C	1.488598	-0.183008	0.000093
C19	C	1.595567	-0.257975	0.000098
C20	C	1.591776	-0.401179	0.000093
C21	C	1.714604	0.176498	0.000107
C22	C	1.854047	0.180167	0.000107
C23	C	1.477863	0.411696	0.000087
C24	C	1.481534	0.550251	0.000083
N25	N	1.485056	0.183613	0.356212
N26	N	1.485086	0.183621	-0.356024
C27	C	1.569735	0.099550	0.428146
C28	C	1.569748	0.099550	0.572029
C29	C	1.400397	0.267687	0.572032
C30	C	1.400380	0.267680	0.428151
H31	H	0.840836	0.386506	0.000097
H32	H	1.394211	-0.224844	0.000078
C33	C	1.661510	0.008040	0.350149
C34	C	1.640041	-0.114758	0.385187
C35	C	1.724547	-0.199109	0.313370
H36	H	1.745498	0.022189	0.373668
H37	H	1.649391	0.019958	0.254135
H38	H	1.652170	-0.126671	0.481179
H39	H	1.556070	-0.128947	0.361664
H40	H	1.712428	-0.187190	0.217356
H41	H	1.808530	-0.184948	0.336895
H42	H	1.709985	-0.282436	0.337123
C43	C	1.713986	-0.486915	-0.000117
C44	C	1.783831	-0.463685	-0.117694
C45	C	1.896429	-0.542632	-0.117925
H46	H	1.695387	-0.571790	-0.000191
H47	H	1.761601	-0.471333	0.079556
H48	H	1.736226	-0.479277	-0.197346
H49	H	1.802463	-0.378826	-0.117644
H50	H	1.944045	-0.527050	-0.038253
H51	H	1.877818	-0.627502	-0.117996
H52	H	1.943838	-0.526874	-0.197693
H53	H	1.638700	0.031098	0.630594
H54	H	1.389955	-0.385337	0.000088
H55	H	1.078515	0.392775	0.000057
H56	H	0.891606	-0.025530	0.000142
H57	H	1.689955	-0.216138	0.000113
C58	C	1.308414	0.358763	0.650321
C59	C	1.231004	0.291579	0.732974
C60	C	1.146267	0.375440	0.805125
H61	H	1.257853	0.408862	0.587030
H62	H	1.354011	0.411114	0.706512
H63	H	1.185411	0.239250	0.676788
H64	H	1.281530	0.241485	0.796290
H65	H	1.191864	0.427791	0.861316
H66	H	1.095716	0.425534	0.741825
H67	H	1.093743	0.329868	0.861223
H68	H	1.129312	-0.019278	0.000100
H69	H	1.331417	0.336134	0.369579
