data_functionalizedCrystal
_audit_creation_method	'MofGen! by Chris Wilmer'
_symmetry_space_group_name_H-M	'P1'
_symmetry_Int_Tables_number	1
_symmetry_cell_setting	triclinic
loop_
_symmetry_equiv_pos_as_xyz
  x,y,z
_cell_length_a	18.101398
_cell_length_b	25.639239
_cell_length_c	18.101389
_cell_angle_alpha	90.020449
_cell_angle_beta	90.024327
_cell_angle_gamma	90.033952
loop_
_atom_site_label
_atom_site_type_symbol
_atom_site_fract_x
_atom_site_fract_y
_atom_site_fract_z
Zn1	Zn	1.132082	-0.208272	0.418828
Zn2	Zn	1.632082	0.291728	0.918828
Zn3	Zn	1.131961	-0.295693	0.294982
Zn4	Zn	1.631961	0.204307	0.794982
Zn5	Zn	1.008241	-0.208266	0.294989
Zn6	Zn	1.508241	0.291734	0.794989
Zn7	Zn	1.008175	-0.295671	0.418771
Zn8	Zn	1.508175	0.204329	0.918771
O9	O	1.070115	-0.251975	0.356893
O10	O	1.570115	0.248025	0.856893
O11	O	1.235699	-0.219880	0.402421
O12	O	1.735699	0.280120	0.902421
O13	O	1.115527	-0.284103	0.191350
O14	O	1.615527	0.215897	0.691350
O15	O	1.024747	-0.135102	0.311444
O16	O	1.524747	0.364898	0.811444
O17	O	1.235610	-0.284108	0.311432
O18	O	1.735610	0.215892	0.811432
O19	O	1.115732	-0.135106	0.402428
O20	O	1.615732	0.364894	0.902428
O21	O	1.024630	-0.219871	0.191356
O22	O	1.524630	0.280129	0.691356
O23	O	0.904599	-0.219849	0.311388
O24	O	1.404599	0.280151	0.811388
O25	O	1.024635	-0.284070	0.522411
O26	O	1.524635	0.215930	1.022411
O27	O	0.904551	-0.284065	0.402330
O28	O	1.404551	0.215935	0.902330
O29	O	1.115668	-0.219858	0.522454
O30	O	1.615668	0.280142	1.022454
O31	O	1.115463	-0.368855	0.311376
O32	O	1.615463	0.131145	0.811376
O33	O	1.024518	-0.368839	0.402323
O34	O	1.524518	0.131161	0.902323
C35	C	0.877704	-0.251954	0.356854
C36	C	1.377704	0.248046	0.856854
C37	C	0.795390	-0.251958	0.356855
C38	C	1.295390	0.248042	0.856855
C39	C	0.496299	-0.251990	0.356917
C40	C	0.996299	0.248010	0.856917
C41	C	0.527630	-0.211386	0.299978
C42	C	1.027630	0.288614	0.799978
C43	C	0.613248	-0.211495	0.299735
C44	C	1.113248	0.288505	0.799735
C45	C	0.644682	-0.251974	0.356886
C46	C	1.144682	0.248026	0.856886
C47	C	0.613553	-0.307048	0.335559
C48	C	1.113553	0.192952	0.835559
C49	C	0.527908	-0.306822	0.335163
C50	C	1.027908	0.193178	0.835163
C51	C	0.527917	-0.238000	0.435317
C52	C	1.027917	0.262000	0.935317
C53	C	0.613568	-0.236773	0.434890
C54	C	1.113568	0.263227	0.934890
C55	C	0.728541	-0.251968	0.356870
C56	C	1.228541	0.248032	0.856870
C57	C	0.412440	-0.252000	0.356932
C58	C	0.912440	0.248000	0.856932
C59	C	1.069990	-0.387818	0.356859
C60	C	1.569990	0.112182	0.856859
C61	C	1.070005	-0.445932	0.356869
C62	C	1.570005	0.054068	0.856869
C63	C	1.117594	-0.806291	0.309617
C64	C	1.617594	-0.306291	0.809617
C65	C	1.117622	-0.860895	0.309627
C66	C	1.617622	-0.360895	0.809627
O67	O	1.157955	-0.889129	0.269415
O68	O	1.657955	-0.389129	0.769415
N69	N	1.070245	-0.888214	0.356942
N70	N	1.570245	-0.388214	0.856942
C71	C	1.022841	-0.860926	0.404255
C72	C	1.522841	-0.360926	0.904255
O73	O	0.982546	-0.889177	0.444501
O74	O	1.482546	-0.389177	0.944501
C75	C	1.022817	-0.806323	0.404248
C76	C	1.522817	-0.306323	0.904248
C77	C	1.070192	-0.779007	0.356925
C78	C	1.570192	-0.279007	0.856925
C79	C	1.164965	-0.778975	0.262299
C80	C	1.664965	-0.278975	0.762299
C81	C	1.164936	-0.724374	0.262288
C82	C	1.664936	-0.224374	0.762288
C83	C	1.117534	-0.697090	0.309596
C84	C	1.617534	-0.197090	0.809596
C85	C	1.070162	-0.724406	0.356914
C86	C	1.570162	-0.224406	0.856914
C87	C	0.975417	-0.779036	0.451564
C88	C	1.475417	-0.279036	0.951564
C89	C	0.975397	-0.724429	0.451554
C90	C	1.475397	-0.224429	0.951554
C91	C	1.022773	-0.697113	0.404231
C92	C	1.522773	-0.197113	0.904231
C93	C	1.022731	-0.642522	0.404212
C94	C	1.522731	-0.142522	0.904212
N95	N	1.070108	-0.615202	0.356897
N96	N	1.570108	-0.115202	0.856897
C97	C	1.117509	-0.642487	0.309589
C98	C	1.617509	-0.142487	0.809589
C99	C	1.022897	-0.975597	0.404266
C100	C	1.522897	-0.475597	0.904266
C101	C	1.022917	-1.030199	0.404270
C102	C	1.522917	-0.530199	0.904270
C103	C	1.117699	-1.030164	0.309643
C104	C	1.617699	-0.530164	0.809643
C105	C	1.117675	-0.975561	0.309636
C106	C	1.617675	-0.475561	0.809636
C107	C	1.070274	-0.948278	0.356952
C108	C	1.570274	-0.448278	0.856952
C109	C	1.117443	-0.527822	0.309570
C110	C	1.617443	-0.027822	0.809570
C111	C	1.117406	-0.473216	0.309561
C112	C	1.617406	0.026784	0.809561
C113	C	1.022627	-0.473256	0.404190
C114	C	1.522627	0.026744	0.904190
C115	C	1.022661	-0.527856	0.404197
C116	C	1.522661	-0.027856	0.904197
C117	C	1.070074	-0.555138	0.356884
C118	C	1.570074	-0.055138	0.856884
O119	O	0.982421	-0.614254	0.444405
O120	O	1.482421	-0.114254	0.944405
O121	O	1.157804	-0.614229	0.269357
O122	O	1.657804	-0.114229	0.769357
C123	C	1.263277	-0.251997	0.356932
C124	C	1.763277	0.248003	0.856932
C125	C	1.345591	-0.252006	0.356949
C126	C	1.845591	0.247994	0.856949
C127	C	1.070158	-0.251962	0.550055
C128	C	1.570158	0.248038	1.050055
C129	C	1.070176	-0.251957	0.632369
C130	C	1.570176	0.248043	1.132369
C131	C	1.070260	-0.115602	0.356943
C132	C	1.570260	0.384398	0.856943
C133	C	1.070322	-0.057488	0.356964
C134	C	1.570322	0.442512	0.856964
C135	C	1.070115	-0.251951	0.164482
C136	C	1.570115	0.248049	0.664482
C137	C	1.070240	-0.251809	0.082169
C138	C	1.570240	0.248191	0.582169
C139	C	1.070219	-0.251859	0.931460
C140	C	1.570219	0.248141	1.431460
C141	C	1.012746	-0.292130	0.900108
C142	C	1.512746	0.207870	1.400108
C143	C	1.012901	-0.292317	0.814490
C144	C	1.512901	0.207683	1.314490
C145	C	1.070197	-0.251907	0.783077
C146	C	1.570197	0.248093	1.283077
C147	C	1.148220	-0.266868	0.814182
C148	C	1.648220	0.233132	1.314182
C149	C	1.147899	-0.267132	0.899827
C150	C	1.647899	0.232868	1.399827
C151	C	1.050348	-0.196537	0.899887
C152	C	1.550348	0.303463	1.399887
C153	C	1.048612	-0.196856	0.814236
C154	C	1.548612	0.303144	1.314236
C155	C	1.070189	-0.251934	0.699218
C156	C	1.570189	0.248066	1.199218
C157	C	1.070232	-0.251833	1.015320
C158	C	1.570232	0.248167	1.515320
H159	H	0.633912	-0.338111	0.375733
H160	H	1.133912	0.161889	0.875733
C161	C	0.642469	-0.323355	0.258966
C162	C	1.142469	0.176645	0.758966
H163	H	0.673502	-0.296679	0.239883
H164	H	1.173502	0.203321	0.739883
H165	H	0.669808	-0.354820	0.263300
H166	H	1.169808	0.145180	0.763300
H167	H	0.601928	-0.328616	0.226455
H168	H	1.101928	0.171384	0.726455
H169	H	0.984086	-0.550098	0.442733
H170	H	1.484086	-0.050098	0.942733
C171	C	0.500543	-0.277949	0.492632
C172	C	1.000543	0.222051	0.992632
H173	H	0.469993	-0.303033	0.468938
H174	H	0.969993	0.196967	0.968938
H175	H	0.541723	-0.294958	0.514470
H176	H	1.041723	0.205042	1.014470
H177	H	0.473007	-0.260500	0.529838
H178	H	0.973007	0.239500	1.029838
C179	C	1.217101	-0.808982	0.210247
C180	C	1.717101	-0.308982	0.710247
H181	H	1.210340	-0.845415	0.217020
H182	H	1.710340	-0.345415	0.717020
H183	H	1.206277	-0.800047	0.160483
H184	H	1.706277	-0.300047	0.660483
H185	H	1.266853	-0.799997	0.221132
H186	H	1.766853	-0.299997	0.721132
C187	C	0.923314	-0.809075	0.503628
C188	C	1.423314	-0.309075	1.003628
H189	H	0.930109	-0.845504	0.496864
H190	H	1.430109	-0.345504	0.996864
H191	H	0.934131	-0.800095	0.553390
H192	H	1.434131	-0.300095	1.053390
H193	H	0.873554	-0.800162	0.492742
H194	H	1.373554	-0.300162	0.992742
C195	C	0.500867	-0.322846	0.257737
C196	C	1.000867	0.177154	0.757737
H197	H	0.542224	-0.329429	0.226820
H198	H	1.042224	0.170571	0.726820
H199	H	0.471620	-0.353509	0.261414
H200	H	0.971620	0.146491	0.761414
H201	H	0.472085	-0.295476	0.237202
H202	H	0.972085	0.204524	0.737202
H203	H	1.156053	-0.550028	0.271045
H204	H	1.656053	-0.050028	0.771045
H205	H	0.633700	-0.220743	0.241642
H206	H	1.133700	0.279257	0.741642
C207	C	1.171376	-0.320921	0.785225
C208	C	1.671376	0.179079	1.285225
H209	H	1.218667	-0.329627	0.804354
H210	H	1.718667	0.170373	1.304354
H211	H	1.136334	-0.346263	0.800657
H212	H	1.636334	0.153737	1.300657
H213	H	1.173423	-0.320215	0.732793
H214	H	1.673423	0.179785	1.232793
H215	H	0.991194	-0.185574	0.793905
H216	H	1.491194	0.314426	1.293905
C217	C	0.970493	-0.443236	0.456228
C218	C	1.470493	0.056764	0.956228
H219	H	0.977271	-0.406805	0.449447
H220	H	1.477271	0.093195	0.949447
H221	H	0.920743	-0.452217	0.445350
H222	H	1.420743	0.047783	0.945350
H223	H	0.981317	-0.452160	0.506001
H224	H	1.481317	0.047840	1.006001
C225	C	0.934746	-0.279663	0.786073
C226	C	1.434746	0.220337	1.286073
H227	H	0.902613	-0.274365	0.826872
H228	H	1.402613	0.225635	1.326872
H229	H	0.936340	-0.248932	0.756819
H230	H	1.436340	0.251068	1.256819
H231	H	0.917060	-0.307894	0.757008
H232	H	1.417060	0.192106	1.257008
C233	C	0.974825	-0.178122	0.929039
C234	C	1.474825	0.321878	1.429039
H235	H	0.963888	-0.144669	0.909326
H236	H	1.463888	0.355331	1.409326
H237	H	0.937680	-0.202177	0.914355
H238	H	1.437680	0.297823	1.414355
H239	H	0.976320	-0.176155	0.981428
H240	H	1.476320	0.323845	1.481428
H241	H	0.954715	-0.282864	0.920695
H242	H	1.454715	0.217136	1.420695
C243	C	1.106891	-0.156000	0.927279
C244	C	1.606891	0.344000	1.427279
H245	H	1.094598	-0.122651	0.908014
H246	H	1.594598	0.377349	1.408014
H247	H	1.106075	-0.154766	0.979722
H248	H	1.606075	0.345234	1.479722
H249	H	1.154889	-0.165574	0.910987
H250	H	1.654889	0.334426	1.410987
H251	H	1.087419	-0.165258	0.792854
H252	H	1.587419	0.334742	1.292854
H253	H	0.507180	-0.338099	0.374826
H254	H	1.007180	0.161901	0.874826
C255	C	1.030616	-0.347713	0.786812
C256	C	1.530616	0.152287	1.286812
H257	H	1.037757	-0.370188	0.827911
H258	H	1.537757	0.129812	1.327911
H259	H	0.990707	-0.360229	0.757671
H260	H	1.490707	0.139771	1.257671
H261	H	1.074314	-0.346900	0.757786
H262	H	1.574314	0.153100	1.257786
H263	H	0.634297	-0.170655	0.313104
H264	H	1.134297	0.329345	0.813104
H265	H	1.025734	-0.332886	0.921632
H266	H	1.525734	0.167114	1.421632
H267	H	1.155985	-0.450977	0.271023
H268	H	1.655985	0.049023	0.771023
H269	H	0.507068	-0.170421	0.313200
H270	H	1.007068	0.329579	0.813200
H271	H	0.506079	-0.220529	0.242223
H272	H	1.006079	0.279471	0.742223
C273	C	1.170650	-0.321764	0.926825
C274	C	1.670650	0.178236	1.426825
H275	H	1.179997	-0.343588	0.885450
H276	H	1.679997	0.156412	1.385450
H277	H	1.214080	-0.319112	0.956066
H278	H	1.714080	0.180888	1.456066
H279	H	1.131897	-0.336301	0.955602
H280	H	1.631897	0.163699	1.455602
H281	H	0.633919	-0.196245	0.450971
H282	H	1.133919	0.303755	0.950971
H283	H	1.203514	-0.702136	0.223756
H284	H	1.703514	-0.202136	0.723756
H285	H	1.192172	-0.239073	0.920569
H286	H	1.692172	0.260927	1.420569
H287	H	1.192191	-0.238457	0.793838
H288	H	1.692191	0.261543	1.293838
C289	C	0.498790	-0.184693	0.461517
C290	C	0.998790	0.315307	0.961517
H291	H	0.518531	-0.176995	0.508924
H292	H	1.018531	0.323005	1.008924
H293	H	0.513462	-0.158452	0.427510
H294	H	1.013462	0.341548	0.927510
H295	H	0.446403	-0.185750	0.464287
H296	H	0.946403	0.314250	0.964287
C297	C	0.642461	-0.273820	0.495272
C298	C	1.142461	0.226180	0.995272
H299	H	0.674016	-0.299158	0.473604
H300	H	1.174016	0.200842	0.973604
H301	H	0.669241	-0.254378	0.531061
H302	H	1.169241	0.245622	1.031061
H303	H	0.601943	-0.290794	0.518395
H304	H	1.101943	0.209206	1.018395
H305	H	0.984333	-1.052436	0.442798
H306	H	1.484333	-0.552436	0.942798
C307	C	1.169793	-0.945518	0.257588
C308	C	1.669793	-0.445518	0.757588
H309	H	1.198027	-0.969593	0.229419
H310	H	1.698027	-0.469593	0.729419
H311	H	1.141479	-0.924243	0.225287
H312	H	1.641479	-0.424243	0.725287
H313	H	1.202040	-0.924191	0.285951
H314	H	1.702040	-0.424191	0.785951
H315	H	1.156299	-1.052389	0.271125
H316	H	1.656299	-0.552389	0.771125
H317	H	0.984292	-0.953386	0.442794
H318	H	1.484292	-0.453386	0.942794
H319	H	0.936799	-0.702218	0.490086
H320	H	1.436799	-0.202218	0.990086
