data_functionalizedCrystal
_audit_creation_method	'MofGen! by Chris Wilmer'
_symmetry_space_group_name_H-M	'P1'
_symmetry_Int_Tables_number	1
_symmetry_cell_setting	triclinic
loop_
_symmetry_equiv_pos_as_xyz
  x,y,z
_cell_length_a	16.625546
_cell_length_b	12.759395
_cell_length_c	12.759387
_cell_angle_alpha	89.977170
_cell_angle_beta	90.035560
_cell_angle_gamma	89.978178
loop_
_atom_site_label
_atom_site_type_symbol
_atom_site_fract_x
_atom_site_fract_y
_atom_site_fract_z
Zn1	Zn	-0.320973	-1.606212	0.594035
Zn2	Zn	-0.455828	-1.606079	0.418341
Zn3	Zn	-0.321012	-1.430510	0.418365
Zn4	Zn	-0.455766	-1.430479	0.593973
O5	O	-0.388395	-1.518320	0.506179
O6	O	-0.338872	-1.753215	0.570745
O7	O	-0.437987	-1.582747	0.271323
O8	O	-0.208174	-1.453886	0.441704
O9	O	-0.437949	-1.753118	0.441663
O10	O	-0.208146	-1.582974	0.570768
O11	O	-0.338938	-1.453757	0.271341
O12	O	-0.338877	-1.283485	0.441644
O13	O	-0.437843	-1.453833	0.741003
O14	O	-0.437880	-1.283462	0.570662
O15	O	-0.338811	-1.582943	0.741048
O16	O	-0.568652	-1.582716	0.441603
O17	O	-0.568606	-1.453704	0.570639
C18	C	-0.388377	-1.245352	0.506150
C19	C	-0.388389	-1.128576	0.506162
C20	C	-0.491662	-0.909167	0.640326
C21	C	-0.543285	-0.964046	0.707387
C22	C	-0.543277	-1.073767	0.707377
C23	C	-0.491642	-1.128612	0.640295
C24	C	-0.440019	-1.073733	0.573234
C25	C	-0.440031	-0.964009	0.573254
C26	C	-0.336766	-1.073697	0.439101
C27	C	-0.336769	-0.963975	0.439115
C28	C	-0.285131	-1.128542	0.372019
C29	C	-0.233503	-1.073662	0.304962
C30	C	-0.233513	-0.963934	0.304976
C31	C	-0.285146	-0.909096	0.372054
C32	C	-0.597886	-1.518220	0.506135
C33	C	-0.687507	-1.518274	0.506151
C34	C	-1.015682	-1.518457	0.506260
C35	C	-0.924374	-1.518403	0.506233
C36	C	-0.851597	-1.518365	0.506205
C37	C	-0.760283	-1.518312	0.506179
C38	C	-0.178086	-1.518448	0.506246
C39	C	-0.088465	-1.518503	0.506274
C40	C	-0.388316	-1.518399	0.780212
C41	C	-0.388282	-1.518433	0.896989
C42	C	-0.388409	-0.792353	0.506202
C43	C	-0.388403	-0.909130	0.506197
C44	C	-0.388415	-1.518301	0.233211
C45	C	-0.388222	-1.518471	0.116435
C46	C	-0.285167	-1.652885	0.897056
C47	C	-0.233598	-1.720126	0.951951
C48	C	-0.233568	-1.720151	1.061673
C49	C	-0.285112	-1.652927	1.116502
C50	C	-0.336682	-1.585686	1.061608
C51	C	-0.336707	-1.585670	0.951884
C52	C	-0.439791	-1.451231	1.061541
C53	C	-0.439826	-1.451209	0.951819
C54	C	-0.491335	-1.384006	1.116370
C55	C	-0.542910	-1.316769	1.061476
C56	C	-0.542938	-1.316747	0.951747
C57	C	-0.491396	-1.383968	0.896924
H58	H	-0.491666	-0.819826	0.640352
N59	N	-0.598960	-1.132961	0.779700
H60	H	-0.586512	-1.113915	0.854801
H61	H	-0.591092	-1.210771	0.769419
H62	H	-0.191630	-1.774857	0.907297
N63	N	-0.491316	-1.384020	1.234712
H64	H	-0.476478	-1.311962	1.261127
H65	H	-0.450837	-1.436862	1.261097
N66	N	-0.491433	-1.383928	0.778583
H67	H	-0.506273	-1.455979	0.752150
H68	H	-0.436113	-1.364604	0.752256
H69	H	-0.285193	-1.652881	0.807715
H70	H	-0.191571	-1.774898	1.106368
N71	N	-0.285155	-0.790754	0.372063
H72	H	-0.270404	-0.764364	0.444173
H73	H	-0.340466	-0.764386	0.352579
H74	H	-0.584869	-1.262035	1.106127
N75	N	-0.598559	-1.244228	0.892534
H76	H	-0.565794	-1.195559	0.847012
H77	H	-0.631195	-1.201716	0.943980
H78	H	-0.585327	-0.919379	0.762001
H79	H	-0.491647	-1.217953	0.640283
H80	H	-0.285132	-1.217883	0.372011
H81	H	-0.191475	-0.919258	0.250366
N82	N	-0.177822	-1.132813	0.232610
H83	H	-0.185655	-1.210648	0.242774
H84	H	-0.120252	-1.113672	0.249104
N85	N	-0.285061	-1.652924	1.234844
H86	H	-0.244564	-1.705711	1.261300
H87	H	-0.340391	-1.672164	1.261197
