data_functionalizedCrystal
_audit_creation_method	'MofGen! by Chris Wilmer'
_symmetry_space_group_name_H-M	'P1'
_symmetry_Int_Tables_number	1
_symmetry_cell_setting	triclinic
loop_
_symmetry_equiv_pos_as_xyz
  x,y,z
_cell_length_a	17.038272
_cell_length_b	15.944551
_cell_length_c	15.021413
_cell_angle_alpha	89.996935
_cell_angle_beta	90.002222
_cell_angle_gamma	87.305147
loop_
_atom_site_label
_atom_site_type_symbol
_atom_site_fract_x
_atom_site_fract_y
_atom_site_fract_z
O1	O	-1.037425	-0.182391	-0.073924
O2	O	-0.537425	0.317609	0.426076
O3	O	-0.809794	-0.179495	-0.073950
O4	O	-0.309794	0.320505	0.426050
O5	O	-0.929826	-0.059112	-0.073929
O6	O	-0.429826	0.440888	0.426071
O7	O	-0.917393	-0.302774	-0.073946
O8	O	-0.417393	0.197226	0.426054
O9	O	-0.929806	-0.059129	0.074136
O10	O	-0.429806	0.440871	0.574136
O11	O	-0.809775	-0.179512	0.074114
O12	O	-0.309775	0.320488	0.574114
O13	O	-1.037406	-0.182408	0.074140
O14	O	-0.537406	0.317592	0.574140
Zn15	Zn	-0.923587	-0.180963	0.097635
Zn16	Zn	-0.423587	0.319037	0.597635
Zn17	Zn	-0.923612	-0.180940	-0.097446
Zn18	Zn	-0.423612	0.319060	0.402554
O19	O	-0.917374	-0.302791	0.074118
O20	O	-0.417374	0.197209	0.574118
C21	C	-0.780655	-0.176869	0.000079
C22	C	-0.280655	0.323131	0.500079
C23	C	-0.693860	-0.169010	0.000069
C24	C	-0.193860	0.330990	0.500069
C25	C	-0.929300	-0.027790	0.000104
C26	C	-0.429300	0.472210	0.500104
C27	C	-0.927753	0.065567	0.000104
C28	C	-0.427753	0.565567	0.500104
C29	C	-1.066545	-0.185034	0.000109
C30	C	-0.566545	0.314966	0.500109
C31	C	-1.153340	-0.192893	0.000113
C32	C	-0.653340	0.307107	0.500113
C33	C	-0.643767	-0.241168	0.000064
C34	C	-0.143767	0.258832	0.500064
C35	C	-0.562214	-0.233778	0.000077
C36	C	-0.062214	0.266222	0.500077
C37	C	-0.530756	-0.154230	0.000088
C38	C	-0.030756	0.345770	0.500088
C39	C	-0.580855	-0.082067	0.000095
C40	C	-0.080855	0.417933	0.500095
C41	C	-0.662406	-0.089457	0.000089
C42	C	-0.162406	0.410543	0.500089
C43	C	-0.284990	-0.128121	0.000114
C44	C	0.215010	0.371879	0.500114
C45	C	-0.203433	-0.120736	0.000118
C46	C	0.296567	0.379264	0.500118
C47	C	-0.184797	-0.272448	0.000101
C48	C	0.315203	0.227552	0.500101
C49	C	-0.266351	-0.279831	0.000089
C50	C	0.233649	0.220169	0.500089
C51	C	-0.316443	-0.207668	0.000101
C52	C	0.183557	0.292332	0.500101
C53	C	-0.447396	-0.146675	0.000098
C54	C	0.052604	0.353325	0.500098
C55	C	-0.399801	-0.215224	0.000097
C56	C	0.100199	0.284776	0.500097
C57	C	-0.917900	-0.334114	0.000084
C58	C	-0.417900	0.165886	0.500084
C59	C	-0.919447	-0.427470	0.000078
C60	C	-0.419447	0.072530	0.500078
N61	N	-0.923576	-0.180978	0.230773
N62	N	-0.423576	0.319022	0.730773
C63	C	-0.849653	0.286000	0.000083
C64	C	-0.349653	0.786000	0.500083
C65	C	-0.885910	0.344419	0.073092
C66	C	-0.385910	0.844419	0.573092
C67	C	-0.924953	0.236492	0.000097
C68	C	-0.424953	0.736492	0.500097
C69	C	-0.885947	0.344418	-0.072888
C70	C	-0.385947	0.844418	0.427112
C71	C	-0.922244	0.401598	0.000086
C72	C	-0.422244	0.901598	0.500086
C73	C	-0.961232	0.293682	0.073166
C74	C	-0.461232	0.793682	0.573166
C75	C	-0.961258	0.293676	-0.072879
C76	C	-0.461258	0.793676	0.427121
C77	C	-0.997570	0.352073	0.000147
C78	C	-0.497570	0.852073	0.500147
C79	C	-0.926512	0.141379	0.000104
C80	C	-0.426512	0.641379	0.500104
C81	C	-0.920691	0.496710	0.000085
C82	C	-0.420691	0.996710	0.500085
N83	N	-0.923630	-0.180919	-0.230583
N84	N	-0.423630	0.319081	0.269417
C85	C	-0.868065	-0.236615	0.470446
C86	C	-0.368065	0.263385	0.970446
C87	C	-0.938714	-0.257966	0.529787
C88	C	-0.438714	0.242034	1.029787
C89	C	-0.923596	-0.180959	0.412380
C90	C	-0.423596	0.319041	0.912380
C91	C	-0.852965	-0.159627	0.529780
C92	C	-0.352965	0.340373	1.029780
C93	C	-0.923609	-0.180941	0.587804
C94	C	-0.423609	0.319059	1.087804
C95	C	-0.994281	-0.202350	0.470415
C96	C	-0.494281	0.297650	0.970415
C97	C	-0.908486	-0.103976	0.470402
C98	C	-0.408486	0.396024	0.970402
C99	C	-0.979186	-0.125298	0.529717
C100	C	-0.479186	0.374702	1.029717
C101	C	-0.923587	-0.180971	0.311323
C102	C	-0.423587	0.319029	0.811323
C103	C	-0.923626	-0.180929	0.688859
C104	C	-0.423626	0.319071	1.188859
H105	H	-0.669373	-0.305944	0.000055
H106	H	-0.169373	0.194056	0.500055
C107	C	-1.074999	-0.226823	0.435337
C108	C	-0.574999	0.273177	0.935337
N109	N	-1.135794	-0.245259	0.408914
N110	N	-0.635794	0.254741	0.908914
H111	H	-0.854096	0.366777	-0.134616
H112	H	-0.354096	0.866777	0.365384
H113	H	-1.026204	-0.078225	0.555578
H114	H	-0.526204	0.421775	1.055578
C115	C	-0.891173	-0.016061	0.435129
C116	C	-0.391173	0.483939	0.935129
N117	N	-0.878123	0.050157	0.408558
N118	N	-0.378123	0.550157	0.908558
C119	C	-1.004258	0.263417	-0.156260
C120	C	-0.504258	0.763417	0.343740
N121	N	-1.036640	0.240624	-0.219070
N122	N	-0.536640	0.740624	0.280930
H123	H	-0.951506	-0.323062	0.555872
H124	H	-0.451506	0.176938	1.055872
H125	H	-0.821151	-0.283725	0.444422
H126	H	-0.321151	0.216275	0.944422
C127	C	-0.507115	-0.313158	0.000088
C128	C	-0.007115	0.186842	0.500088
N129	N	-0.465615	-0.372950	0.000103
N130	N	0.034385	0.127050	0.500103
H131	H	-0.793229	-0.141594	0.555860
H132	H	-0.293229	0.358406	1.055860
C133	C	-0.129690	-0.351821	0.000099
C134	C	0.370310	0.148179	0.500099
N135	N	-0.088183	-0.411609	0.000103
N136	N	0.411817	0.088391	0.500103
C137	C	-0.300948	-0.367340	0.000091
C138	C	0.199052	0.132660	0.500091
N139	N	-0.327007	-0.433253	0.000095
N140	N	0.172993	0.066747	0.500095
H141	H	-0.177823	-0.055955	0.000125
H142	H	0.322177	0.444045	0.500125
H143	H	-1.060128	0.380766	0.000196
H144	H	-0.560128	0.880766	0.500196
H145	H	-0.325766	-0.069360	0.000124
H146	H	0.174234	0.430640	0.500124
H147	H	-0.703192	-0.030699	0.000092
H148	H	-0.203192	0.469301	0.500092
C149	C	-0.546248	0.005437	0.000109
C150	C	-0.046248	0.505437	0.500109
N151	N	-0.520183	0.071347	0.000116
N152	N	-0.020183	0.571347	0.500116
H153	H	-0.425418	-0.279992	0.000093
H154	H	0.074582	0.220008	0.500093
H155	H	-0.421774	-0.081906	0.000132
H156	H	0.078226	0.418094	0.500132
H157	H	-0.787150	0.257155	0.000148
H158	H	-0.287150	0.757155	0.500148
C159	C	-1.004209	0.263600	0.156646
C160	C	-0.504209	0.763600	0.656646
N161	N	-1.036575	0.240939	0.219524
N162	N	-0.536575	0.740939	0.719524
C163	C	-0.842872	0.374652	0.156465
C164	C	-0.342872	0.874652	0.656465
N165	N	-0.810451	0.397421	0.219258
N166	N	-0.310451	0.897421	0.719258
