data_functionalizedCrystal
_audit_creation_method	'MofGen! by Chris Wilmer'
_symmetry_space_group_name_H-M	'P1'
_symmetry_Int_Tables_number	1
_symmetry_cell_setting	triclinic
loop_
_symmetry_equiv_pos_as_xyz
  x,y,z
_cell_length_a	18.426585
_cell_length_b	23.196402
_cell_length_c	23.196401
_cell_angle_alpha	60.008822
_cell_angle_beta	90.013019
_cell_angle_gamma	60.001912
loop_
_atom_site_label
_atom_site_type_symbol
_atom_site_fract_x
_atom_site_fract_y
_atom_site_fract_z
Zr1	Zr	0.699110	0.631022	-0.075641
O2	O	0.583210	0.751285	-0.167686
O3	O	0.734636	0.510758	-0.047429
O4	O	0.734604	0.631025	-0.167694
O5	O	0.583270	0.631017	0.047451
O6	O	0.854030	0.631029	-0.167696
O7	O	0.583242	0.631018	-0.047420
O8	O	0.854088	0.415893	0.047436
O9	O	0.583213	0.846153	-0.167682
O10	O	0.838918	0.560228	-0.035394
O11	O	0.749813	0.560224	0.035410
O12	O	0.749775	0.701823	-0.106187
O13	O	0.660670	0.701819	-0.035384
Zr14	Zr	0.889626	0.631027	0.075664
Zr15	Zr	0.889580	0.631029	-0.075645
Zr16	Zr	0.699155	0.631020	0.075667
Zr17	Zr	0.699115	0.782325	-0.075635
Zr18	Zr	0.889621	0.479724	0.075657
O19	O	0.854099	0.751291	0.047451
O20	O	0.854034	0.751294	-0.167691
O21	O	0.583275	0.751282	0.047456
O22	O	1.005526	0.510764	0.167708
O23	O	1.005461	0.510767	-0.047434
O24	O	0.734701	0.510755	0.167713
O25	O	1.005465	0.631032	-0.047429
O26	O	0.854131	0.631024	0.167716
O27	O	0.734705	0.631020	0.167718
O28	O	1.005494	0.631031	0.047442
O29	O	0.734612	0.846158	-0.167685
O30	O	0.854124	0.415891	0.167707
O31	O	1.005522	0.415896	0.167704
O32	O	1.005486	0.415898	0.047433
O33	O	0.583249	0.846151	-0.047411
O34	O	0.734648	0.846156	-0.047414
O35	O	0.838960	0.560226	0.106209
O36	O	0.928065	0.560230	0.035406
O37	O	0.838923	0.701825	-0.035388
O38	O	0.749818	0.701821	0.035416
C39	C	0.794361	0.441768	0.000003
C40	C	0.794359	0.377536	0.000000
C41	C	0.556118	0.631016	0.000016
C42	C	0.475258	0.631014	0.000017
C43	C	0.840865	0.347368	-0.036961
C44	C	0.840873	0.287007	-0.036955
C45	C	0.794359	0.256828	0.000002
C46	C	0.747851	0.287000	0.036971
C47	C	0.747851	0.347355	0.036970
C48	C	0.716430	0.194796	-0.005271
C49	C	0.716428	0.134447	-0.005275
C50	C	0.794360	0.070673	0.000009
C51	C	0.872294	0.067264	0.005283
C52	C	0.872294	0.127618	0.005282
C53	C	0.794354	0.191384	0.000008
C54	C	0.840879	-0.024946	-0.036948
C55	C	0.840890	-0.085312	-0.036937
C56	C	0.747859	-0.085311	0.036985
C57	C	0.747857	-0.024953	0.036979
C58	C	0.794365	0.005229	0.000009
C59	C	0.179144	0.631038	0.000005
C60	C	0.261530	0.631035	0.000007
C61	C	0.327198	0.631026	0.000011
C62	C	0.409590	0.631022	0.000013
C63	C	1.032617	0.631033	0.000006
C64	C	1.113477	0.631035	0.000005
C65	C	0.794311	0.631027	-0.189253
C66	C	0.794291	0.631028	-0.253488
C67	C	0.794374	0.820281	0.000019
C68	C	0.794377	0.884513	0.000022
C69	C	0.747764	0.704937	-0.320614
C70	C	0.747787	0.704938	-0.380970
C71	C	0.794325	0.631026	-0.374194
C72	C	0.840862	0.557108	-0.307056
C73	C	0.840845	0.557109	-0.246702
C74	C	0.787714	0.574398	-0.441514
C75	C	0.787724	0.574400	-0.501867
C76	C	0.794381	0.631020	-0.560342
C77	C	0.801009	0.687652	-0.558462
C78	C	0.800993	0.687653	-0.498109
C79	C	0.794348	0.631017	-0.439633
C80	C	0.747876	0.704935	-0.692915
C81	C	0.747905	0.704933	-0.753270
C82	C	0.840974	0.557101	-0.679354
C83	C	0.840951	0.557105	-0.619001
C84	C	0.794397	0.631024	-0.625786
C85	C	0.794425	0.631022	0.189275
C86	C	0.794444	0.631021	0.253510
C87	C	1.032611	0.441776	-0.000002
C88	C	1.113468	0.377547	-0.000006
C89	C	0.794418	0.441765	0.189267
C90	C	0.794435	0.377532	0.253499
C91	C	1.032668	0.441773	0.189262
C92	C	1.113545	0.377543	0.253493
C93	C	0.556068	0.820276	-0.189240
C94	C	0.475191	0.884506	-0.253471
C95	C	0.556125	0.820273	0.000024
C96	C	0.475267	0.884502	0.000028
C97	C	0.794317	0.820284	-0.189245
C98	C	0.794300	0.884517	-0.253477
C99	C	1.104906	0.347383	-0.036971
C100	C	1.180873	0.287042	-0.036990
C101	C	1.265401	0.256861	-0.000038
C102	C	1.273962	0.287030	0.036928
C103	C	1.197996	0.347375	0.036942
C104	C	0.840977	0.347369	0.320626
C105	C	0.840990	0.287024	0.380985
C106	C	0.794465	0.256839	0.374214
C107	C	0.747918	0.287009	0.307080
C108	C	0.747900	0.347357	0.246724
C109	C	1.198045	0.347382	0.246697
C110	C	1.274045	0.287040	0.307043
C111	C	1.265542	0.256855	0.374183
C112	C	1.181033	0.287022	0.380977
C113	C	1.105035	0.347368	0.320632
C114	C	0.390690	0.914674	-0.246675
C115	C	0.314691	0.975035	-0.307021
C116	C	0.323194	1.005223	-0.374161
C117	C	0.407703	0.975052	-0.380955
C118	C	0.483701	0.914696	-0.320610
C119	C	0.483830	0.914672	0.036987
C120	C	0.407863	0.975030	0.036989
C121	C	0.323334	1.005213	0.000035
C122	C	0.314773	0.975041	-0.036928
C123	C	0.390740	0.914688	-0.036933
C124	C	0.840834	0.914682	-0.246684
C125	C	0.840835	0.975028	-0.307031
C126	C	0.794297	1.005211	-0.374170
C127	C	0.747762	0.975039	-0.380961
C128	C	0.747766	0.914691	-0.320615
H129	H	0.878745	0.262439	-0.067054
H130	H	0.935757	0.015333	0.009595
N131	N	0.416868	1.007608	-0.453371
H132	H	0.450428	1.032652	-0.459037
H133	H	0.355868	1.050385	-0.490518
H134	H	0.383750	0.890098	-0.192012
H135	H	1.173885	0.262485	-0.067092
N136	N	0.697677	0.784662	-0.700235
H137	H	0.740340	0.787957	-0.676824
H138	H	0.650848	0.787915	-0.676871
H139	H	0.710003	0.371908	0.192068
N140	N	0.891015	1.007575	-0.299702
H141	H	0.937838	0.997068	-0.323085
H142	H	0.920431	0.979288	-0.248000
N143	N	0.574839	0.882157	-0.327944
H144	H	0.568685	0.910442	-0.379635
H145	H	0.608389	0.821576	-0.304525
H146	H	0.782322	0.528291	-0.503393
H147	H	1.327251	0.207723	-0.000055
N148	N	1.207240	0.379921	0.174291
H149	H	1.240798	0.404964	0.168638
H150	H	1.146253	0.422694	0.137127
N151	N	0.417108	1.007565	0.076859
H152	H	0.482185	0.979276	0.100272
H153	H	0.387621	0.997065	0.114013
N154	N	1.365134	0.254475	0.076780
H155	H	1.411952	0.211668	0.071160
H156	H	1.372194	0.229470	0.128466
N157	N	0.891132	0.477388	-0.546595
H158	H	0.920618	0.430564	-0.551459
H159	H	0.848408	0.474166	-0.519958
N160	N	1.365180	0.254505	0.299695
H161	H	1.398782	0.193924	0.323087
H162	H	1.398725	0.265068	0.323064
H163	H	1.204980	0.371927	0.067047
H164	H	0.710020	0.765121	-0.807929
N165	N	0.794490	0.191748	0.439317
H166	H	0.831039	0.177222	0.482867
H167	H	0.820948	0.141708	0.439284
N168	N	0.956351	0.123933	0.010980
H169	H	0.973772	0.120251	0.054597
H170	H	0.945816	0.174708	-0.032199
H171	H	0.383755	0.890125	-0.067028
N172	N	0.241410	1.070300	0.000058
H173	H	0.204849	1.049295	0.021096
H174	H	0.204888	1.120366	-0.050004
H175	H	0.878864	0.371939	0.326152
H176	H	1.174123	0.262437	0.435650
H177	H	0.552650	0.890101	0.067084
N178	N	0.223549	1.007568	-0.299684
H179	H	0.229702	0.979275	-0.247993
H180	H	0.189986	0.997070	-0.323118
N181	N	0.241223	1.070312	-0.439246
H182	H	0.241170	1.120398	-0.468297
H183	H	0.186449	1.084769	-0.424692
H184	H	0.245940	0.999625	-0.067015
H185	H	0.782287	0.528292	-0.393905
N186	N	1.013742	0.379925	-0.076827
H187	H	1.006608	0.404971	-0.128528
H188	H	0.966966	0.422698	-0.071156
N189	N	0.891022	0.477391	-0.174295
H190	H	0.937830	0.474100	-0.147592
H191	H	0.920454	0.430612	-0.179215
H192	H	0.878867	0.496920	-0.673836
H193	H	0.878731	0.890116	-0.192022
N194	N	0.697752	0.254437	0.299789
H195	H	0.722154	0.229390	0.273134
H196	H	0.632669	0.300505	0.273153
H197	H	0.794300	1.054351	-0.423302
H198	H	0.709872	0.999623	-0.435634
N199	N	0.697572	0.882159	-0.327947
H200	H	0.668091	0.910443	-0.379637
H201	H	0.650800	0.892667	-0.304522
N202	N	0.891041	0.007610	-0.076817
H203	H	0.920511	-0.020668	-0.100227
H204	H	0.937819	-0.002885	-0.042887
H205	H	0.878737	0.371938	-0.067062
H206	H	1.327432	0.207718	0.423313
N207	N	0.891200	0.254489	0.453387
H208	H	0.920677	0.282765	0.448512
H209	H	0.937977	0.193906	0.480038
H210	H	1.036234	0.371917	0.326175
H211	H	0.709987	-0.109883	0.067077
N212	N	0.891057	-0.117857	-0.076800
H213	H	0.920515	-0.089575	-0.100220
H214	H	0.848327	-0.107361	-0.113949
H215	H	0.709978	0.371918	0.067069
N216	N	0.697697	0.007591	0.076845
H217	H	0.668231	-0.020686	0.100259
H218	H	0.650916	0.068173	0.042914
H219	H	0.652959	0.246731	-0.009588
N220	N	0.632371	0.138130	-0.010949
H221	H	0.614916	0.141822	-0.054565
H222	H	0.583076	0.187682	-0.014252
N223	N	0.697687	0.254450	0.076838
H224	H	0.704742	0.211639	0.071229
H225	H	0.632621	0.300539	0.057438
H226	H	0.709860	0.765128	-0.326146
H227	H	0.709897	0.765126	-0.435634
H228	H	0.806392	0.733763	-0.496582
H229	H	0.806425	0.733760	-0.606075
H230	H	0.878754	0.496928	-0.301543
