data_functionalizedCrystal
_audit_creation_method	'MofGen! by Chris Wilmer'
_symmetry_space_group_name_H-M	'P1'
_symmetry_Int_Tables_number	1
_symmetry_cell_setting	triclinic
loop_
_symmetry_equiv_pos_as_xyz
  x,y,z
_cell_length_a	18.101398
_cell_length_b	18.101395
_cell_length_c	16.625539
_cell_angle_alpha	90.027648
_cell_angle_beta	90.015931
_cell_angle_gamma	90.029256
loop_
_atom_site_label
_atom_site_type_symbol
_atom_site_fract_x
_atom_site_fract_y
_atom_site_fract_z
Zn1	Zn	1.132133	-0.294865	0.455813
Zn2	Zn	1.132025	-0.418714	0.320982
Zn3	Zn	1.008288	-0.294887	0.321005
Zn4	Zn	1.008242	-0.418665	0.455783
O5	O	1.070172	-0.356783	0.388396
O6	O	1.235751	-0.311305	0.437931
O7	O	1.115585	-0.402318	0.208153
O8	O	1.024780	-0.191251	0.338910
O9	O	1.235672	-0.402296	0.338871
O10	O	1.115769	-0.191235	0.437953
O11	O	1.024676	-0.311342	0.208169
O12	O	0.904649	-0.311295	0.338880
O13	O	1.024702	-0.402213	0.568619
O14	O	0.904615	-0.402234	0.437901
O15	O	1.115724	-0.311258	0.568642
O16	O	1.115541	-0.522340	0.338841
O17	O	1.024598	-0.522304	0.437879
C18	C	0.877761	-0.356762	0.388390
C19	C	0.795447	-0.356771	0.388407
C20	C	0.644739	-0.356785	0.388406
C21	C	0.613389	-0.414090	0.450610
C22	C	0.527770	-0.414322	0.450426
C23	C	0.496356	-0.356799	0.388406
C24	C	0.527407	-0.377627	0.303328
C25	C	0.613052	-0.378035	0.303687
C26	C	0.613218	-0.278510	0.410536
C27	C	0.527568	-0.278939	0.412410
C28	C	0.412497	-0.356805	0.388400
C29	C	0.728598	-0.356781	0.388405
C30	C	1.070073	-0.549193	0.388372
C31	C	1.070098	-0.631507	0.388389
C32	C	1.070261	-0.930598	0.388432
C33	C	1.013175	-0.899281	0.450899
C34	C	1.012903	-0.813663	0.450703
C35	C	1.070180	-0.782216	0.388411
C36	C	1.049049	-0.813367	0.303435
C37	C	1.048681	-0.899012	0.303809
C38	C	1.148603	-0.898944	0.410194
C39	C	1.148142	-0.813293	0.412058
C40	C	1.070136	-0.698356	0.388394
C41	C	1.070303	-1.014458	0.388444
C42	C	1.263334	-0.356804	0.388402
C43	C	1.345648	-0.356813	0.388404
C44	C	1.070220	-0.356727	0.598705
C45	C	1.070241	-0.356704	0.688326
C46	C	1.070292	-0.163621	0.388437
C47	C	1.070343	-0.081307	0.388455
C48	C	1.070167	-0.356784	0.178905
C49	C	1.070290	-0.356599	0.089284
C50	C	1.070275	-0.356621	1.016502
C51	C	1.070263	-0.356646	0.925193
C52	C	1.070258	-0.356663	0.852417
C53	C	1.070246	-0.356687	0.761102
H54	H	0.634011	-0.401248	0.513880
H55	H	0.507277	-0.263227	0.475022
H56	H	0.506777	-0.401329	0.513500
O57	O	1.101366	-0.926470	0.240064
H58	H	1.070643	-0.960501	0.195691
O59	O	0.641836	-0.490489	0.431399
H60	H	0.678206	-0.487825	0.377738
H61	H	0.632994	-0.435242	0.284983
O62	O	0.499261	-0.219400	0.356806
H63	H	0.438044	-0.217462	0.359962
O64	O	0.972827	-0.925568	0.279387
H65	H	0.948782	-0.959203	0.328673
O66	O	0.640532	-0.325135	0.240172
H67	H	0.592647	-0.299379	0.209330
O68	O	0.500463	-0.324034	0.240245
H69	H	0.439195	-0.325398	0.237940
O70	O	0.500575	-0.491150	0.430960
H71	H	0.548597	-0.528282	0.421635
H72	H	0.505927	-0.434211	0.284305
O73	O	0.641865	-0.253295	0.491325
H74	H	0.678892	-0.296279	0.516609
O75	O	0.640080	-0.221953	0.350540
H76	H	0.675707	-0.249411	0.305177
O77	O	1.030358	-0.785752	0.534177
H78	H	1.039073	-0.833426	0.575048
H79	H	1.026265	-0.919829	0.514112
O80	O	1.169255	-0.786318	0.494894
H81	H	1.224413	-0.808525	0.511163
O82	O	0.973992	-0.785049	0.278571
H83	H	0.951619	-0.748798	0.326593
O84	O	0.936720	-0.927860	0.432040
H85	H	0.936682	-0.989110	0.435149
O86	O	1.207452	-0.784936	0.356168
H87	H	1.249151	-0.753621	0.391340
O88	O	1.204984	-0.925934	0.350065
H89	H	1.177386	-0.961698	0.304881
O90	O	0.935991	-0.786597	0.431589
H91	H	0.898847	-0.834681	0.422443
H92	H	1.089319	-0.792998	0.255624
O93	O	1.174125	-0.927475	0.490878
H94	H	1.131251	-0.964539	0.516370
