data_functionalizedCrystal
_audit_creation_method	'MofGen! by Chris Wilmer'
_symmetry_space_group_name_H-M	'P1'
_symmetry_Int_Tables_number	1
_symmetry_cell_setting	triclinic
loop_
_symmetry_equiv_pos_as_xyz
  x,y,z
_cell_length_a	18.215407
_cell_length_b	18.101395
_cell_length_c	18.215399
_cell_angle_alpha	89.971163
_cell_angle_beta	89.983176
_cell_angle_gamma	90.031552
loop_
_atom_site_label
_atom_site_type_symbol
_atom_site_fract_x
_atom_site_fract_y
_atom_site_fract_z
Zn1	Zn	1.125018	-0.294811	-0.416124
Zn2	Zn	1.124920	-0.418662	-0.293061
Zn3	Zn	1.001957	-0.294840	-0.293071
Zn4	Zn	1.001903	-0.418616	-0.416086
O5	O	1.063450	-0.356732	-0.354585
O6	O	1.227989	-0.311247	-0.399811
O7	O	1.108590	-0.402269	-0.190078
O8	O	1.018345	-0.191203	-0.309415
O9	O	1.227917	-0.402240	-0.309397
O10	O	1.108758	-0.191182	-0.399821
O11	O	1.018250	-0.311297	-0.190085
O12	O	0.898966	-0.311252	-0.309378
O13	O	1.018254	-0.402161	-0.519075
O14	O	0.898926	-0.402190	-0.399756
O15	O	1.108706	-0.311202	-0.519103
O16	O	1.108538	-0.522289	-0.309360
O17	O	1.018158	-0.522255	-0.399746
C18	C	0.872243	-0.356720	-0.354564
C19	C	0.790445	-0.356732	-0.354573
C20	C	0.602249	-0.404158	-0.401573
C21	C	0.525391	-0.404160	-0.401583
C22	C	0.525402	-0.309320	-0.307613
C23	C	0.602260	-0.309315	-0.307608
C24	C	0.640681	-0.356738	-0.354587
C25	C	0.486965	-0.356746	-0.354601
C26	C	0.403631	-0.356748	-0.354611
C27	C	0.724020	-0.356735	-0.354579
C28	C	1.063351	-0.549143	-0.354564
C29	C	1.063376	-0.631457	-0.354579
C30	C	1.063538	-0.930548	-0.354619
C31	C	1.006805	-0.899232	-0.411628
C32	C	1.006536	-0.813614	-0.411450
C33	C	1.063458	-0.782165	-0.354600
C34	C	1.042464	-0.813319	-0.277038
C35	C	1.042098	-0.898964	-0.277380
C36	C	1.141388	-0.898890	-0.374487
C37	C	1.140931	-0.813239	-0.376188
C38	C	1.063414	-0.698306	-0.354584
C39	C	1.063580	-1.014407	-0.354629
C40	C	1.255403	-0.356746	-0.354607
C41	C	1.337201	-0.356751	-0.354616
C42	C	1.063484	-0.356673	-0.546538
C43	C	1.063499	-0.356648	-0.628337
C44	C	1.063569	-0.163570	-0.354623
C45	C	1.063619	-0.081256	-0.354639
C46	C	1.016499	-0.309247	-0.816536
C47	C	1.016512	-0.309232	-0.893395
C48	C	1.110588	-0.403961	-0.893376
C49	C	1.110571	-0.403979	-0.816519
C50	C	1.063527	-0.356618	-0.778101
C51	C	1.063557	-0.356585	-0.931817
C52	C	1.063571	-0.356569	-1.015151
C53	C	1.063512	-0.356634	-0.694762
C54	C	1.063457	-0.356738	-0.163379
C55	C	1.063585	-0.356554	-0.081580
H56	H	0.633552	-0.270695	-0.269346
F57	F	1.023701	-0.786077	-0.486621
H58	H	1.019809	-0.919778	-0.469325
F59	F	0.931841	-0.927461	-0.394655
F60	F	0.643138	-0.454627	-0.451575
F61	F	0.484492	-0.454630	-0.451593
F62	F	1.160625	-0.454402	-0.775611
F63	F	0.931111	-0.786917	-0.394251
F64	F	0.966430	-0.258843	-0.775651
F65	F	0.967715	-0.925165	-0.255381
H66	H	1.148889	-0.442520	-0.924666
F67	F	1.093759	-0.926047	-0.219963
F68	F	0.966450	-0.258822	-0.934297
F69	F	1.094774	-0.786697	-0.220003
H70	H	0.986159	-0.791935	-0.259906
F71	F	0.484505	-0.258853	-0.257617
H72	H	1.160529	-0.920437	-0.430081
F73	F	1.161626	-0.786622	-0.450797
F74	F	1.199104	-0.785248	-0.325876
F75	F	1.196639	-0.925371	-0.320224
