data_functionalizedCrystal
_audit_creation_method	'MofGen! by Chris Wilmer'
_symmetry_space_group_name_H-M	'P1'
_symmetry_Int_Tables_number	1
_symmetry_cell_setting	triclinic
loop_
_symmetry_equiv_pos_as_xyz
  x,y,z
_cell_length_a	16.120484
_cell_length_b	13.897449
_cell_length_c	13.897441
_cell_angle_alpha	90.020722
_cell_angle_beta	92.866498
_cell_angle_gamma	87.074557
loop_
_atom_site_label
_atom_site_type_symbol
_atom_site_fract_x
_atom_site_fract_y
_atom_site_fract_z
Zn1	Zn	-0.331892	-1.455159	-0.564880
Zn2	Zn	0.168108	-0.955159	-0.064880
Zn3	Zn	-0.471321	-1.446857	-0.411750
Zn4	Zn	0.028679	-0.946857	0.088250
Zn5	Zn	-0.331926	-1.293852	-0.403594
Zn6	Zn	0.168074	-0.793852	0.096406
Zn7	Zn	-0.471265	-1.285631	-0.572993
Zn8	Zn	0.028735	-0.785631	-0.072993
O9	O	-0.401601	-1.370375	-0.488304
O10	O	0.098399	-0.870375	0.011696
O11	O	-0.350397	-1.589038	-0.544585
O12	O	0.149603	-1.089038	-0.044585
O13	O	-0.452867	-1.426526	-0.275688
O14	O	0.047133	-0.926526	0.224312
O15	O	-0.215256	-1.322164	-0.418181
O16	O	0.284744	-0.822164	0.081819
O17	O	-0.452835	-1.582939	-0.432081
O18	O	0.047165	-1.082939	0.067919
O19	O	-0.215231	-1.440676	-0.536676
O20	O	0.284769	-0.940676	-0.036676
O21	O	-0.350454	-1.314114	-0.269697
O22	O	0.149546	-0.814114	0.230303
O23	O	-0.350400	-1.157780	-0.426048
O24	O	0.149600	-0.657780	0.073952
O25	O	-0.452739	-1.308153	-0.706896
O26	O	0.047261	-0.808153	-0.206896
O27	O	-0.452772	-1.151740	-0.550504
O28	O	0.047228	-0.651740	-0.050504
O29	O	-0.350342	-1.432704	-0.700936
O30	O	0.149658	-0.932704	-0.200936
O31	O	-0.587979	-1.418555	-0.439948
O32	O	-0.087979	-0.918555	0.060052
O33	O	-0.587938	-1.300103	-0.558412
O34	O	-0.087938	-0.800103	-0.058412
C35	C	-0.401584	-1.119761	-0.488272
C36	C	0.098416	-0.619761	0.011728
C37	C	-0.401597	-1.012547	-0.488282
C38	C	0.098403	-0.512547	0.011718
C39	C	-0.401596	-0.816251	-0.488300
C40	C	0.098404	-0.316251	0.011700
C41	C	-0.401594	-0.925484	-0.488287
C42	C	0.098406	-0.425484	0.011713
C43	C	-0.618209	-1.357562	-0.500966
C44	C	-0.118209	-0.857562	-0.000966
C45	C	-0.710874	-1.352169	-0.506416
C46	C	-0.210874	-0.852169	-0.006416
C47	C	-0.880536	-1.342329	-0.516384
C48	C	-0.380536	-0.842329	-0.016384
C49	C	-0.921826	-1.398593	-0.460240
C50	C	-0.421826	-0.898593	0.039760
C51	C	-1.016231	-1.393118	-0.465787
C52	C	-0.516231	-0.893118	0.034213
C53	C	-0.786122	-1.347803	-0.510839
C54	C	-0.286122	-0.847803	-0.010839
C55	C	-0.184147	-1.383263	-0.475614
C56	C	0.315853	-0.883263	0.024386
C57	C	-0.091482	-1.388756	-0.470206
C58	C	0.408518	-0.888756	0.029794
C59	C	-0.401531	-1.370438	-0.739893
C60	C	0.098469	-0.870438	-0.239893
C61	C	-0.401501	-1.370465	-0.847106
C62	C	0.098499	-0.870465	-0.347106
C63	C	-0.401613	-0.621967	-0.488328
C64	C	0.098387	-0.121967	0.011672
C65	C	-0.401604	-0.729181	-0.488313
C66	C	0.098396	-0.229181	0.011687
C67	C	-0.401477	-1.370486	-0.934174
C68	C	0.098523	-0.870486	-0.434174
C69	C	-0.401440	-1.370516	-1.043404
C70	C	0.098560	-0.870516	-0.543404
C71	C	-0.401610	-1.370371	-0.237690
C72	C	0.098390	-0.870371	0.262310
C73	C	-0.401405	-1.370544	-0.130465
C74	C	0.098595	-0.870544	0.369535
H75	H	-0.886274	-1.450874	-0.408008
H76	H	-0.386274	-0.950874	0.091992
H77	H	-0.916085	-1.290051	-0.568611
H78	H	-0.416085	-0.790051	-0.068611
