data_functionalizedCrystal
_audit_creation_method	'MofGen! by Chris Wilmer'
_symmetry_space_group_name_H-M	'P1'
_symmetry_Int_Tables_number	1
_symmetry_cell_setting	triclinic
loop_
_symmetry_equiv_pos_as_xyz
  x,y,z
_cell_length_a	11.026607
_cell_length_b	10.908878
_cell_length_c	9.482900
_cell_angle_alpha	82.984801
_cell_angle_beta	101.363848
_cell_angle_gamma	84.335404
loop_
_atom_site_label
_atom_site_type_symbol
_atom_site_fract_x
_atom_site_fract_y
_atom_site_fract_z
O1	O	1.528431	0.498728	0.120894
O2	O	2.028431	0.998728	0.620894
O3	O	1.186931	0.440226	0.120896
O4	O	1.686931	0.940226	0.620896
O5	O	1.402950	0.293010	0.120889
O6	O	1.902950	0.793010	0.620889
O7	O	1.312412	0.645943	0.120901
O8	O	1.812412	1.145943	0.620901
O9	O	1.359040	0.323067	-0.120902
O10	O	1.859040	0.823067	0.379098
O11	O	1.143022	0.470282	-0.120895
O12	O	1.643022	0.970282	0.379105
O13	O	1.484521	0.528784	-0.120897
O14	O	1.984521	1.028784	0.379103
Cu15	Cu	1.309762	0.502278	-0.142974
Cu16	Cu	1.809762	1.002278	0.357026
Cu17	Cu	1.361690	0.466732	0.142972
Cu18	Cu	1.861690	0.966732	0.642972
O19	O	1.268502	0.676000	-0.120891
O20	O	1.768502	1.176000	0.379109
C21	C	1.121943	0.444461	0.000001
C22	C	1.621943	0.944461	0.500001
C23	C	0.993722	0.412288	0.000001
C24	C	1.493722	0.912288	0.500001
C25	C	0.901990	0.501123	0.000005
C26	C	1.401990	1.001123	0.500005
C27	C	0.769466	0.467873	0.000006
C28	C	1.269466	0.967873	0.500006
C29	C	1.389457	0.262153	-0.000005
C30	C	1.889457	0.762153	0.499995
C31	C	1.414656	0.125424	0.000000
C32	C	1.914656	0.625424	0.500000
C33	C	1.322712	0.055161	0.000003
C34	C	1.822712	0.555161	0.500003
C35	C	1.348755	-0.086155	0.000008
C36	C	1.848755	0.413845	0.500008
C37	C	1.549509	0.524548	0.000001
C38	C	2.049509	1.024548	0.500001
C39	C	1.677732	0.556720	0.000010
C40	C	2.177732	1.056720	0.500010
C41	C	1.281996	0.706857	0.000007
C42	C	1.781996	1.206857	0.500007
C43	C	1.256798	0.843584	0.000011
C44	C	1.756798	1.343584	0.500011
N45	N	1.273247	0.527279	-0.344093
N46	N	1.773247	1.027279	0.155907
C47	C	1.350913	0.474098	-0.416294
C48	C	1.850913	0.974098	0.083706
C49	C	1.320539	0.494912	-0.583711
C50	C	1.820539	0.994912	-0.083711
N51	N	1.398216	0.441723	0.344091
N52	N	1.898216	0.941723	0.844091
H53	H	0.921564	0.601794	0.000000
H54	H	1.421564	1.101794	0.500000
H55	H	1.224715	0.099628	-0.000005
H56	H	1.724715	0.599628	0.499995
Br57	Br	1.512100	-0.160246	-0.000007
Br58	Br	2.012100	0.339754	0.499993
H59	H	1.487198	0.380775	-0.593787
H60	H	1.987198	0.880775	-0.093787
H61	H	1.439890	0.413154	-0.354169
H62	H	1.939890	0.913154	0.145831
Br63	Br	0.961107	0.244493	-0.000020
Br64	Br	1.461107	0.744493	0.499980
Br65	Br	1.093445	-0.082324	-0.000013
Br66	Br	1.593445	0.417676	0.499987
Br67	Br	0.710329	0.724528	-0.000012
Br68	Br	1.210329	1.224528	0.499988
H69	H	1.512651	0.080959	-0.000005
H70	H	2.012651	0.580959	0.499995
H71	H	1.231550	0.555849	-0.645832
H72	H	1.731550	1.055849	-0.145832
H73	H	0.749903	0.367191	0.000040
H74	H	1.249903	0.867191	0.500040
Br75	Br	1.124930	0.628840	-0.447629
Br76	Br	1.624930	1.128840	0.052371
