data_functionalizedCrystal
_audit_creation_method	'MofGen! by Chris Wilmer'
_symmetry_space_group_name_H-M	'P1'
_symmetry_Int_Tables_number	1
_symmetry_cell_setting	triclinic
loop_
_symmetry_equiv_pos_as_xyz
  x,y,z
_cell_length_a	16.959455
_cell_length_b	12.645330
_cell_length_c	16.959447
_cell_angle_alpha	89.973930
_cell_angle_beta	89.985678
_cell_angle_gamma	90.014639
loop_
_atom_site_label
_atom_site_type_symbol
_atom_site_fract_x
_atom_site_fract_y
_atom_site_fract_z
Zn1	Zn	1.208397	-0.422105	-0.446932
Zn2	Zn	1.208325	-0.599396	-0.314763
Zn3	Zn	1.076225	-0.422138	-0.314770
Zn4	Zn	1.076195	-0.599317	-0.446902
O5	O	1.142286	-0.510739	-0.380842
O6	O	1.318998	-0.445642	-0.429410
O7	O	1.190784	-0.575930	-0.204153
O8	O	1.093801	-0.273786	-0.332316
O9	O	1.318945	-0.575898	-0.332306
O10	O	1.190907	-0.273762	-0.429416
O11	O	1.093731	-0.445699	-0.204158
O12	O	0.965610	-0.445622	-0.332287
O13	O	1.093750	-0.575763	-0.557517
O14	O	0.965589	-0.575795	-0.429364
O15	O	1.190878	-0.445565	-0.557539
O16	O	1.190755	-0.747733	-0.332277
O17	O	1.093680	-0.747675	-0.429358
C18	C	0.936919	-0.510704	-0.380824
C19	C	0.849063	-0.510715	-0.380835
C20	C	0.477574	-0.442903	-0.330399
C21	C	0.477600	-0.578663	-0.431329
C22	C	0.560146	-0.578648	-0.431325
C23	C	0.601410	-0.510760	-0.380855
C24	C	0.560128	-0.442888	-0.330391
C25	C	0.601434	-0.646526	-0.481782
C26	C	0.683985	-0.646515	-0.481779
C27	C	0.725251	-0.578621	-0.431313
C28	C	0.683963	-0.510745	-0.380847
C29	C	0.725227	-0.442857	-0.330378
C30	C	0.683941	-0.374975	-0.279916
C31	C	0.601393	-0.374994	-0.279925
C32	C	0.807799	-0.578602	-0.431304
C33	C	0.807781	-0.442842	-0.330370
C34	C	1.142228	-0.786169	-0.380831
C35	C	1.142276	-0.903999	-0.380852
C36	C	1.081458	-1.071570	-0.442115
C37	C	1.081147	-0.949011	-0.441918
C38	C	1.119734	-0.948594	-0.297551
C39	C	1.119363	-1.071192	-0.297922
C40	C	1.226007	-1.071094	-0.402216
C41	C	1.225494	-0.948487	-0.404038
C42	C	1.348454	-0.510775	-0.380860
C43	C	1.436310	-0.510790	-0.380868
C44	C	1.142319	-0.510651	-0.587010
C45	C	1.142333	-0.510614	-0.674867
C46	C	1.142365	-0.234234	-0.380870
C47	C	1.142399	-0.116404	-0.380882
C48	C	1.091857	-0.578290	-1.046333
C49	C	1.192997	-0.442715	-1.046352
C50	C	1.192976	-0.442737	-0.963806
C51	C	1.142395	-0.510538	-0.922520
C52	C	1.091836	-0.578317	-0.963780
C53	C	1.243540	-0.374967	-0.922539
C54	C	1.243522	-0.374988	-0.839988
C55	C	1.192937	-0.442784	-0.798701
C56	C	1.142375	-0.510565	-0.839966
C57	C	1.091794	-0.578366	-0.798680
C58	C	1.041227	-0.646142	-0.839944
C59	C	1.041251	-0.646113	-0.922492
C60	C	1.192913	-0.442813	-0.716153
C61	C	1.091773	-0.578393	-0.716127
C62	C	1.142298	-0.510750	-0.175475
C63	C	1.142437	-0.510489	-0.087619
H64	H	1.095249	-0.918856	-0.503685
H65	H	1.019862	-1.102467	-0.428161
N66	N	1.003386	-0.912339	-0.424189
N67	N	0.949178	-0.977289	-0.411917
H68	H	0.894256	-0.951392	-0.399395
N69	N	0.849926	-0.373509	-0.278804
N70	N	0.895963	-0.410716	-0.228379
H71	H	0.925728	-0.361750	-0.191959
H72	H	1.059254	-0.917979	-0.279151
H73	H	1.284696	-0.319800	-0.806398
N74	N	0.726107	-0.305648	-0.228362
N75	N	0.799811	-0.305660	-0.228362
H76	H	0.829595	-0.256700	-0.191952
N77	N	0.435465	-0.648020	-0.482877
N78	N	0.444677	-0.745829	-0.477512
H79	H	0.414916	-0.794816	-0.513920
H80	H	0.567771	-0.319729	-0.238841
H81	H	1.234182	-0.387520	-1.079971
N82	N	1.244568	-0.373591	-0.674015
N83	N	1.289730	-0.313066	-0.710887
H84	H	1.326214	-0.264172	-0.681129
H85	H	1.246571	-1.101937	-0.461927
H86	H	1.000048	-0.701350	-0.806318
H87	H	1.242493	-0.919336	-0.465343
H88	H	0.841410	-0.633874	-0.472387
H89	H	0.443956	-0.387632	-0.289316
N90	N	0.559274	-0.715865	-0.533323
N91	N	0.485570	-0.715860	-0.533325
H92	H	0.455790	-0.764830	-0.569730
H93	H	0.717593	-0.701788	-0.522869
H94	H	1.000085	-0.701296	-0.956097
H95	H	1.095430	-1.100982	-0.504085
N96	N	1.295207	-0.305734	-0.964722
N97	N	1.295216	-0.305723	-1.038426
H98	H	1.331708	-0.256825	-1.068222
H99	H	1.161824	-1.100854	-0.250744
N100	N	1.042691	-1.107171	-0.275244
N101	N	0.989827	-1.041737	-0.259255
H102	H	0.935675	-1.067142	-0.243238
H103	H	1.162714	-0.919440	-0.250681
H104	H	1.271410	-1.100086	-0.357618
N105	N	1.285446	-0.910041	-0.352157
N106	N	1.267737	-0.848960	-0.297001
H107	H	1.310076	-0.821811	-0.260352
N108	N	1.040093	-0.647649	-0.673969
N109	N	0.994951	-0.708149	-0.710823
H110	H	0.958450	-0.757062	-0.681050
N111	N	1.040206	-0.647504	-1.088490
N112	N	1.040224	-0.647470	-1.162193
H113	H	1.003744	-0.696352	-1.191968
