data_functionalizedCrystal
_audit_creation_method	'MofGen! by Chris Wilmer'
_symmetry_space_group_name_H-M	'P1'
_symmetry_Int_Tables_number	1
_symmetry_cell_setting	triclinic
loop_
_symmetry_equiv_pos_as_xyz
  x,y,z
_cell_length_a	10.908878
_cell_length_b	10.967829
_cell_length_c	14.048226
_cell_angle_alpha	77.865708
_cell_angle_beta	89.993336
_cell_angle_gamma	72.684712
loop_
_atom_site_label
_atom_site_type_symbol
_atom_site_fract_x
_atom_site_fract_y
_atom_site_fract_z
O1	O	1.702159	-0.192378	-0.047586
O2	O	1.329154	-0.095111	-0.063547
O3	O	1.524256	-0.327181	-0.025472
O4	O	1.507056	0.039691	-0.085661
O5	O	1.524232	-0.327187	0.132851
O6	O	1.329130	-0.095118	0.094776
O7	O	1.702135	-0.192385	0.110736
Zn8	Zn	1.515629	-0.143752	0.127893
Zn9	Zn	1.515660	-0.143744	-0.080704
O10	O	1.507032	0.039685	0.072661
C11	C	1.281380	-0.086024	0.014123
C12	C	1.139067	-0.058954	0.009680
C13	C	1.089186	-0.157729	0.025885
C14	C	0.942098	-0.129753	0.021294
C15	C	1.522991	-0.373414	0.061272
C16	C	1.519241	-0.511162	0.083865
C17	C	1.517582	-0.572565	0.011921
C18	C	1.513706	-0.714934	0.035270
C19	C	1.749908	-0.201471	0.033065
C20	C	1.892222	-0.228542	0.037501
C21	C	1.508298	0.085918	-0.014085
C22	C	1.512047	0.223666	-0.036684
N23	N	1.515617	-0.143760	0.270255
N24	N	1.515682	-0.143747	-0.223064
C25	C	1.602036	-0.246492	0.336928
C26	C	1.602044	-0.246494	0.436586
C27	C	1.515639	-0.143760	0.469568
C28	C	1.429211	-0.041022	0.402887
C29	C	1.429197	-0.041026	0.303232
C30	C	1.429248	-0.041021	0.610602
C31	C	1.429263	-0.041016	0.710263
C32	C	1.602095	-0.246489	0.743955
C33	C	1.602081	-0.246493	0.644300
C34	C	1.515654	-0.143754	0.577626
H35	H	1.519025	-0.519732	-0.066959
H36	H	1.672466	-0.330143	0.798248
H37	H	1.155375	-0.263006	0.043153
H38	H	1.512250	-0.767758	0.114155
H39	H	1.513481	-0.723504	-0.115571
H40	H	1.517785	-0.563990	0.162744
H41	H	1.072878	0.046323	-0.007596
H42	H	0.958405	-0.333827	0.054767
H43	H	1.672412	-0.330146	0.490872
H44	H	1.672402	-0.330146	0.310081
C45	C	0.775019	0.034029	-0.086966
C46	C	0.852760	0.012380	-0.002027
H47	H	0.719861	0.121772	-0.101357
H48	H	0.827786	0.019333	-0.139753
H49	H	0.724672	-0.024325	-0.077383
H50	H	0.903114	0.070728	-0.011612
H51	H	0.799987	0.027089	0.050773
C52	C	1.772915	-0.449601	0.687608
C53	C	1.697057	-0.359420	0.608044
H54	H	1.831541	-0.519322	0.665224
H55	H	1.819482	-0.407295	0.719522
H56	H	1.719165	-0.483361	0.732033
H57	H	1.750807	-0.325653	0.563622
H58	H	1.650487	-0.401732	0.576115
C59	C	1.402904	0.134245	0.469760
C60	C	1.334250	0.071909	0.537307
H61	H	1.344258	0.203957	0.424508
H62	H	1.456641	0.168011	0.503086
H63	H	1.454356	0.073043	0.435865
H64	H	1.282804	0.133109	0.571207
H65	H	1.280491	0.038144	0.503978
C66	C	1.258380	0.162055	0.666961
C67	C	1.334262	0.071892	0.746523
H68	H	1.199721	0.231751	0.689350
H69	H	1.312102	0.195845	0.622542
H70	H	1.211839	0.119716	0.635043
H71	H	1.380811	0.114228	0.778437
H72	H	1.280533	0.038099	0.790959
C73	C	1.258375	0.162084	0.279931
C74	C	1.334208	0.071904	0.229940
H75	H	1.199735	0.231805	0.234682
H76	H	1.211823	0.119777	0.325752
H77	H	1.312139	0.195844	0.313251
H78	H	1.280444	0.038137	0.196626
H79	H	1.380763	0.114217	0.184102
H80	H	1.358852	0.042623	0.429748
