data_functionalizedCrystal
_audit_creation_method	'MofGen! by Chris Wilmer'
_symmetry_space_group_name_H-M	'P1'
_symmetry_Int_Tables_number	1
_symmetry_cell_setting	triclinic
loop_
_symmetry_equiv_pos_as_xyz
  x,y,z
_cell_length_a	30.700809
_cell_length_b	30.711276
_cell_length_c	30.700862
_cell_angle_alpha	59.998386
_cell_angle_beta	89.999414
_cell_angle_gamma	60.000191
loop_
_atom_site_label
_atom_site_type_symbol
_atom_site_fract_x
_atom_site_fract_y
_atom_site_fract_z
O1	O	-0.371254	-0.311651	0.012944
O2	O	-0.307913	-0.222487	-0.012907
O3	O	-0.307911	-0.311650	0.076286
O4	O	-0.371257	-0.222488	-0.076249
O5	O	-0.235466	-0.384070	0.076286
O6	O	-0.235468	-0.294907	-0.012907
O7	O	-0.298809	-0.384071	0.012944
Cu8	Cu	-0.260524	-0.346102	0.000018
Cu9	Cu	-0.346199	-0.260456	0.000019
O10	O	-0.298812	-0.294908	-0.076249
C11	C	-0.234796	-0.137097	-0.018777
C12	C	-0.261674	-0.083360	-0.015076
C13	C	-0.182374	-0.163176	-0.019143
C14	C	-0.234798	-0.215942	-0.018783
C15	C	-0.261678	-0.246507	-0.015089
C16	C	-0.182376	-0.241901	-0.019150
C17	C	-0.155920	-0.215947	-0.018777
C18	C	-0.098463	-0.246515	-0.015075
C19	C	-0.261132	-0.163172	-0.019150
C20	C	-0.574961	-0.535511	0.039265
C21	C	-0.548506	-0.588283	0.039634
C22	C	-0.496086	-0.535509	0.039262
C23	C	-0.469751	-0.588281	0.039632
C24	C	-0.496085	-0.614360	0.039265
C25	C	-0.548507	-0.509552	0.039632
C26	C	-0.765169	-0.393516	0.024987
C27	C	-0.819034	-0.364488	0.020950
C28	C	-0.846055	-0.389406	0.018925
C29	C	-0.904462	-0.357927	0.014538
C30	C	-0.819206	-0.443357	0.020941
C31	C	-0.765344	-0.472385	0.024984
C32	C	-0.738325	-0.447463	0.027007
C33	C	-0.447920	-0.790230	0.024988
C34	C	-0.423094	-0.840041	0.020951
C35	C	-0.371150	-0.865027	0.018921
C36	C	-0.344230	-0.919028	0.014536
C37	C	-0.344030	-0.840201	0.020935
C38	C	-0.368852	-0.790399	0.024981
C39	C	-0.420803	-0.765414	0.027004
C40	C	-0.447922	-0.393510	0.024977
C41	C	-0.423099	-0.364475	0.020931
C42	C	-0.371152	-0.389391	0.018903
C43	C	-0.344235	-0.357911	0.014513
C44	C	-0.344034	-0.443338	0.020916
C45	C	-0.368860	-0.472368	0.024960
C46	C	-0.420804	-0.447452	0.026995
C47	C	-0.679920	-0.478941	0.031387
C48	C	-0.633366	-0.504032	0.034880
C49	C	-0.469171	-0.504029	0.034875
C50	C	-0.447717	-0.478936	0.031380
C51	C	-0.469170	-0.668361	0.034880
C52	C	-0.447716	-0.711408	0.031386
C53	C	-0.496432	-0.071057	-0.503890
C54	C	-0.548853	-0.018285	-0.530226
C55	C	-0.496432	-0.071056	-0.425015
C56	C	-0.548854	-0.018284	-0.451470
C57	C	-0.575308	0.007793	-0.503892
C58	C	-0.470097	-0.097014	-0.451469
C59	C	-0.368666	-0.213054	-0.552051
C60	C	-0.343664	-0.242084	-0.576877
C61	C	-0.370616	-0.217167	-0.628824
C62	C	-0.343513	-0.248647	-0.655741
C63	C	-0.422570	-0.163216	-0.655945
C64	C	-0.447565	-0.134187	-0.631122
C65	C	-0.420611	-0.159108	-0.579173
C66	C	-0.765518	0.183662	-0.631659
C67	C	-0.819384	0.233473	-0.656662
C68	C	-0.846408	0.258459	-0.629712
C69	C	-0.904813	0.312461	-0.656813
C70	C	-0.819559	0.233635	-0.577758
C71	C	-0.765694	0.183833	-0.552761
C72	C	-0.738677	0.158847	-0.579717
C73	C	-0.368668	-0.213052	-0.234803
C74	C	-0.343669	-0.242086	-0.180935
C75	C	-0.370621	-0.217169	-0.153914
C76	C	-0.343519	-0.248648	-0.095506
C77	C	-0.422573	-0.163222	-0.180762
C78	C	-0.447570	-0.134193	-0.234627
C79	C	-0.420610	-0.159111	-0.261646
C80	C	-0.447720	-0.127629	-0.552258
C81	C	-0.469327	-0.102536	-0.530805
C82	C	-0.469328	-0.102535	-0.366609
C83	C	-0.447721	-0.127627	-0.320054
C84	C	-0.633714	0.061794	-0.530997
C85	C	-0.680269	0.104841	-0.552605
O86	O	0.076277	-0.384081	0.012960
O87	O	-0.076257	-0.294916	-0.012894
O88	O	0.012931	-0.384083	0.076300
O89	O	-0.012910	-0.294914	-0.076234
O90	O	0.012933	-0.311666	0.076306
O91	O	-0.076254	-0.222499	-0.012888
O92	O	0.076280	-0.311664	0.012966
Cu93	Cu	0.000013	-0.260469	0.000040
Cu94	Cu	0.000010	-0.346111	0.000033
O95	O	-0.012908	-0.222497	-0.076228
O96	O	-0.298805	0.063292	0.012964
O97	O	-0.235462	-0.063346	-0.012888
O98	O	-0.235465	-0.063353	0.076305
O99	O	-0.298803	0.063300	-0.076229
O100	O	-0.307912	-0.063350	0.076299
O101	O	-0.307909	-0.063342	-0.012895
O102	O	-0.371252	0.063295	0.012958
Cu103	Cu	-0.346196	-0.000023	0.000031
Cu104	Cu	-0.260519	-0.000027	0.000039
O105	O	-0.371250	0.063303	-0.076236
O106	O	-1.076607	0.456783	-0.692421
O107	O	-0.924074	0.330140	-0.629074
O108	O	-1.013262	0.330138	-0.629073
O109	O	-0.987418	0.456785	-0.692422
O110	O	-1.013261	0.330136	-0.701518
O111	O	-0.924072	0.330138	-0.701518
O112	O	-1.076605	0.456781	-0.764865
Cu113	Cu	-1.000338	0.393460	-0.739807
Cu114	Cu	-1.000340	0.393461	-0.654133
O115	O	-0.987417	0.456783	-0.764866
O116	O	-0.307911	-0.311650	-0.764507
O117	O	-0.371254	-0.222491	-0.701165
O118	O	-0.371252	-0.311652	-0.701162
O119	O	-0.307912	-0.222489	-0.764510
O120	O	-0.298806	-0.384074	-0.628716
O121	O	-0.298807	-0.294912	-0.628719
O122	O	-0.235464	-0.384072	-0.692061
Cu123	Cu	-0.260521	-0.346105	-0.653775
Cu124	Cu	-0.346197	-0.260458	-0.739451
O125	O	-0.235466	-0.294910	-0.692064
C126	C	-0.155920	-0.469469	0.234827
C127	C	-0.098464	-0.523208	0.261706
C128	C	-0.182375	-0.443392	0.261162
C129	C	-0.234797	-0.390619	0.155950
C130	C	-0.261676	-0.360052	0.098494
C131	C	-0.261132	-0.364662	0.182405
C132	C	-0.234797	-0.390620	0.234826
C133	C	-0.261675	-0.360052	0.261704
C134	C	-0.182375	-0.443391	0.182406
C135	C	0.018810	-0.390643	0.234846
C136	C	0.015111	-0.360079	0.261727
C137	C	0.019176	-0.443414	0.261179
C138	C	0.018812	-0.390637	0.155967
C139	C	0.015115	-0.360067	0.098511
C140	C	0.019178	-0.443408	0.182420
C141	C	0.018807	-0.469488	0.234841
C142	C	0.015106	-0.523226	0.261717
C143	C	0.019180	-0.364683	0.182425
C144	C	-0.234799	-0.215977	0.234834
C145	C	-0.261678	-0.246545	0.261708
C146	C	-0.182376	-0.241940	0.261172
C147	C	-0.234798	-0.137119	0.155964
C148	C	-0.261676	-0.083372	0.098509
C149	C	-0.182375	-0.163202	0.182421
C150	C	-0.155921	-0.215981	0.234841
C151	C	-0.098464	-0.246554	0.261721
C152	C	-0.261134	-0.163198	0.182415
C153	C	-0.039199	0.007461	-0.503869
C154	C	-0.039568	-0.018614	-0.530207
C155	C	-0.039203	-0.071390	-0.424995
C156	C	-0.039572	-0.097344	-0.451452
C157	C	-0.039201	-0.071385	-0.503874
C158	C	-0.039570	-0.018618	-0.451448
C159	C	-0.024912	0.183325	-0.552025
C160	C	-0.020873	0.233135	-0.576849
C161	C	-0.018844	0.258123	-0.628796
C162	C	-0.014454	0.312124	-0.655711
C163	C	-0.020859	0.233301	-0.655918
C164	C	-0.024906	0.183500	-0.631097
C165	C	-0.026932	0.158512	-0.579148
C166	C	-0.024920	-0.133799	-0.631644
C167	C	-0.020882	-0.162650	-0.656647
C168	C	-0.018855	-0.216605	-0.629699
C169	C	-0.014470	-0.247897	-0.656801
C170	C	-0.020872	-0.241704	-0.577746
C171	C	-0.024919	-0.212847	-0.552747
C172	C	-0.026939	-0.158893	-0.579702
C173	C	-0.024929	-0.133823	-0.234783
C174	C	-0.020887	-0.162684	-0.180915
C175	C	-0.018862	-0.216639	-0.153896
C176	C	-0.014477	-0.247936	-0.095488
C177	C	-0.020875	-0.241733	-0.180745
C178	C	-0.024915	-0.212872	-0.234610
C179	C	-0.026947	-0.158912	-0.261627
C180	C	-0.031316	0.104507	-0.552235
C181	C	-0.034811	0.061462	-0.530782
C182	C	-0.034820	-0.102682	-0.366590
C183	C	-0.031328	-0.127624	-0.320035
C184	C	-0.034816	-0.102672	-0.530980
C185	C	-0.031322	-0.127610	-0.552588
O186	O	-0.012940	-0.294936	0.371303
O187	O	0.012923	-0.384099	0.307961
O188	O	-0.076273	-0.294935	0.307950
O189	O	0.076257	-0.384100	0.371315
O190	O	-0.076265	-0.222515	0.235508
O191	O	0.012932	-0.311679	0.235520
O192	O	-0.012931	-0.222517	0.298862
Cu193	Cu	0.000001	-0.260485	0.260576
Cu194	Cu	-0.000009	-0.346130	0.346247
O195	O	0.076266	-0.311681	0.298873
C196	C	-0.574962	0.464558	-0.503864
C197	C	-0.548506	0.490518	-0.530195
C198	C	-0.496085	0.385697	-0.424987
C199	C	-0.469749	0.411776	-0.451438
C200	C	-0.496084	0.464555	-0.503857
C201	C	-0.548507	0.411779	-0.451444
C202	C	-0.765173	0.526994	-0.552039
C203	C	-0.819039	0.555852	-0.576867
C204	C	-0.846061	0.609814	-0.628812
C205	C	-0.904469	0.641114	-0.655732
C206	C	-0.819211	0.634913	-0.655928
C207	C	-0.765348	0.606050	-0.631102
C208	C	-0.738329	0.552088	-0.579155
C209	C	-0.447916	0.606561	-0.631604
C210	C	-0.423088	0.635592	-0.656601
C211	C	-0.371143	0.610674	-0.629648
C212	C	-0.344222	0.642150	-0.656742
C213	C	-0.344023	0.556716	-0.577696
C214	C	-0.368845	0.527681	-0.552704
C215	C	-0.420798	0.552613	-0.579664
C216	C	-0.447920	0.209802	-0.234786
C217	C	-0.423096	0.159988	-0.180919
C218	C	-0.371148	0.134996	-0.153895
C219	C	-0.344230	0.080987	-0.095489
C220	C	-0.344029	0.159823	-0.180737
C221	C	-0.368856	0.209637	-0.234602
C222	C	-0.420801	0.234620	-0.261624
C223	C	-0.679923	0.520797	-0.552238
C224	C	-0.633367	0.495853	-0.530781
C225	C	-0.469169	0.331687	-0.366583
C226	C	-0.447714	0.288634	-0.320030
C227	C	-0.469167	0.496035	-0.530956
C228	C	-0.447712	0.521128	-0.552558
H229	H	-0.161137	-0.141349	-0.019737
O230	O	0.019782	-0.469370	0.312530
C231	C	-0.025136	-0.455817	0.373678
C232	C	-0.025892	-0.426352	0.315504
H233	H	-0.062054	-0.421047	0.376103
H234	H	-0.024972	-0.498073	0.388046
H235	H	0.012203	-0.470137	0.399961
H236	H	-0.063225	-0.411994	0.289179
H237	H	-0.026028	-0.384122	0.301179
O238	O	-0.312486	-0.137218	-0.019766
C239	C	-0.373648	-0.150778	0.025124
C240	C	-0.315469	-0.180241	0.025896
H241	H	-0.376080	-0.185553	0.062032
H242	H	-0.388022	-0.108526	0.024968
H243	H	-0.399920	-0.136453	-0.012225
H244	H	-0.289156	-0.194604	0.063240
H245	H	-0.301138	-0.222467	0.026024
O246	O	-0.157007	-0.292509	-0.019931
C247	C	-0.113547	-0.336126	-0.066964
C248	C	-0.142255	-0.278776	-0.066138
H249	H	-0.101622	-0.325039	-0.104324
H250	H	-0.076329	-0.375497	-0.030060
H251	H	-0.141475	-0.350291	-0.067134
H252	H	-0.114370	-0.264556	-0.065986
H253	H	-0.179480	-0.239442	-0.103039
O254	O	-0.845372	0.687310	-0.706395
C255	C	-0.839868	0.762699	-0.782178
C256	C	-0.810175	0.703348	-0.725030
H257	H	-0.811427	0.775692	-0.797258
H258	H	-0.855266	0.754797	-0.809422
H259	H	-0.874912	0.801576	-0.782146
H260	H	-0.775110	0.664443	-0.725011
H261	H	-0.794816	0.711302	-0.697811
H262	H	-0.426680	-0.610102	0.040221
H263	H	-0.304205	-0.141373	0.161175
O264	O	-0.040387	-0.147930	-0.426138
C265	C	-0.087406	-0.191555	-0.382643
C266	C	-0.086547	-0.134225	-0.411304
H267	H	-0.124717	-0.180498	-0.370632
H268	H	-0.087648	-0.205696	-0.410575
H269	H	-0.050461	-0.230930	-0.345468
H270	H	-0.123485	-0.094812	-0.448478
H271	H	-0.086278	-0.120137	-0.383336
O272	O	-0.845841	0.258010	-0.551658
C273	C	-0.894583	0.348018	-0.550926
C274	C	-0.864843	0.320497	-0.580547
H275	H	-0.909945	0.398539	-0.574265
H276	H	-0.929644	0.344176	-0.547061
H277	H	-0.866139	0.321695	-0.509497
H278	H	-0.893245	0.346800	-0.621991
H279	H	-0.829775	0.324330	-0.584370
O280	O	-0.040214	0.007462	-0.581571
C281	C	-0.041198	0.089207	-0.657460
C282	C	-0.040478	0.059751	-0.599297
H283	H	-0.041423	0.131496	-0.671813
H284	H	-0.004244	0.054473	-0.659882
H285	H	-0.078503	0.103483	-0.683758
H286	H	-0.003198	0.045476	-0.572964
H287	H	-0.077457	0.094504	-0.596917
H288	H	-0.019210	0.253653	-0.698214
O289	O	-0.342395	-0.237327	-0.501598
C290	C	-0.261506	-0.318630	-0.425785
C291	C	-0.291188	-0.291202	-0.482924
H292	H	-0.220104	-0.362200	-0.410666
H293	H	-0.257588	-0.283626	-0.425779
H294	H	-0.284874	-0.330392	-0.398593
H295	H	-0.267845	-0.279443	-0.510149
H296	H	-0.295112	-0.326223	-0.482888
H297	H	-0.161134	-0.465220	0.304234
O298	O	-0.573922	-0.614240	0.040336
C299	C	-0.654663	-0.609431	0.041449
C300	C	-0.625954	-0.579957	0.040631
H301	H	-0.696732	-0.581734	0.041699
H302	H	-0.656891	-0.609687	0.004518
H303	H	-0.631601	-0.658726	0.078777
H304	H	-0.648992	-0.530651	0.003328
H305	H	-0.623721	-0.579749	0.077586
H306	H	-0.040120	0.003178	-0.430195
O307	O	-0.738993	-0.369253	0.026992
C308	C	-0.744501	-0.287975	0.026589
C309	C	-0.774211	-0.315385	0.024315
H310	H	-0.772965	-0.244411	0.024415
H311	H	-0.709485	-0.322993	0.065531
H312	H	-0.729065	-0.276210	-0.008537
H313	H	-0.789682	-0.327148	0.059414
H314	H	-0.809201	-0.280351	-0.014649
H315	H	-0.569749	-0.467085	0.040220
O316	O	0.019817	-0.313975	0.157116
C317	C	-0.025124	-0.207926	0.125706
C318	C	-0.025903	-0.265309	0.154390
H319	H	-0.062090	-0.168561	0.123483
H320	H	0.012174	-0.218919	0.148732
H321	H	-0.024895	-0.193806	0.083629
H322	H	-0.026152	-0.279460	0.196466
H323	H	-0.063198	-0.254285	0.131323
O324	O	-0.018962	-0.138211	-0.154922
C325	C	-0.019380	-0.056774	-0.160770
C326	C	-0.021572	-0.084419	-0.190272
H327	H	-0.021478	-0.013286	-0.189334
H328	H	-0.054535	-0.044853	-0.145387
H329	H	0.019537	-0.091748	-0.125731
H330	H	-0.060467	-0.049475	-0.225333
H331	H	0.013609	-0.096354	-0.205617
O332	O	-0.293168	-0.294430	-0.550594
C333	C	-0.202314	-0.343998	-0.549616
C334	C	-0.259475	-0.284672	-0.579427
H335	H	-0.175060	-0.336133	-0.572921
H336	H	-0.187297	-0.356838	-0.508228
H337	H	-0.202279	-0.382963	-0.545644
H338	H	-0.259556	-0.245668	-0.583439
H339	H	-0.274469	-0.271886	-0.620796
H340	H	-0.161136	-0.141377	0.161182
O341	O	-0.449509	-0.312091	0.019001
C342	C	-0.530560	-0.236914	0.019412
C343	C	-0.500707	-0.296249	0.021612
H344	H	-0.571963	-0.224081	0.021511
H345	H	-0.507333	-0.244750	0.054563
H346	H	-0.534494	-0.197957	-0.019510
H347	H	-0.496766	-0.335235	0.060511
H348	H	-0.523946	-0.288362	-0.013566
O349	O	-0.312537	-0.314047	0.157137
C350	C	-0.403213	-0.270402	0.156932
C351	C	-0.345021	-0.327762	0.185612
H352	H	-0.429495	-0.281474	0.179936
H353	H	-0.405689	-0.231033	0.154766
H354	H	-0.417540	-0.256243	0.114835
H355	H	-0.330657	-0.341977	0.227722
H356	H	-0.342578	-0.367095	0.187736
O357	O	-0.026993	-0.081351	-0.261075
C358	C	-0.077390	0.026087	-0.334157
C359	C	-0.075130	-0.033287	-0.304422
H360	H	-0.116301	0.064959	-0.369216
H361	H	-0.075289	0.039115	-0.305749
H362	H	-0.042229	0.018127	-0.349541
H363	H	-0.110285	-0.025374	-0.289035
H364	H	-0.077207	-0.046297	-0.332850
H365	H	-0.426677	0.389946	-0.430194
O366	O	-0.845405	-0.467644	0.019070
C367	C	-0.849868	-0.555168	0.063659
C368	C	-0.820158	-0.527730	0.065852
H369	H	-0.829462	-0.603756	0.101473
H370	H	-0.892975	-0.525199	0.060457
H371	H	-0.849142	-0.556874	0.027399
H372	H	-0.820843	-0.526021	0.102109
H373	H	-0.777066	-0.557708	0.069026
H374	H	-0.161141	-0.284407	0.304244
H375	H	-0.444508	-0.142931	-0.698242
H376	H	-0.026563	0.162985	-0.509727
H377	H	-0.490220	-0.373215	0.026628
H378	H	-0.840890	-0.320560	0.019306
O379	O	-0.498373	-0.766057	0.026978
C380	C	-0.574184	-0.771134	0.026540
C381	C	-0.517045	-0.798581	0.024294
H382	H	-0.589301	-0.797410	0.024359
H383	H	-0.574190	-0.775046	0.065475
H384	H	-0.601376	-0.720591	-0.008594
H385	H	-0.489820	-0.849132	0.059401
H386	H	-0.517081	-0.794622	-0.014663
H387	H	-0.019230	0.253339	-0.554762
O388	O	-0.156964	-0.469400	0.157073
C389	C	-0.082310	-0.499037	0.125622
C390	C	-0.111022	-0.469607	0.154346
H391	H	-0.045166	-0.499202	0.123398
H392	H	-0.070263	-0.548354	0.148619
H393	H	-0.110273	-0.471299	0.083545
H394	H	-0.083088	-0.497296	0.196424
H395	H	-0.123078	-0.420285	0.131309
H396	H	-0.026547	0.163294	-0.653183
O397	O	-0.026906	-0.081375	-0.657912
C398	C	-0.026460	-0.006029	-0.738799
C399	C	-0.024218	-0.065391	-0.709120
H400	H	-0.024276	0.006904	-0.780201
H401	H	-0.065394	0.032900	-0.742719
H402	H	0.008674	-0.013972	-0.715428
H403	H	-0.059325	-0.057509	-0.732466
H404	H	0.014738	-0.104301	-0.705194
H405	H	-0.743523	0.163324	-0.653612
H406	H	-0.019237	-0.142213	-0.698946
O407	O	-0.018936	-0.294128	-0.154430
C408	C	-0.012698	-0.373630	-0.071372
C409	C	-0.014896	-0.314295	-0.101109
H410	H	-0.009420	-0.389961	-0.028254
H411	H	-0.050535	-0.364037	-0.091705
H412	H	0.023531	-0.410847	-0.072138
H413	H	-0.051101	-0.277051	-0.100352
H414	H	0.022965	-0.323938	-0.080767
H415	H	-0.019230	-0.285631	-0.555806
H416	H	-0.743487	-0.516312	0.026628
H417	H	-0.026564	-0.233284	-0.510448
O418	O	-0.573935	0.541214	-0.581562
C419	C	-0.654709	0.616082	-0.657465
C420	C	-0.625976	0.558670	-0.599296
H421	H	-0.696785	0.630205	-0.671824
H422	H	-0.656920	0.655451	-0.659896
H423	H	-0.631674	0.605065	-0.683751
H424	H	-0.648987	0.569627	-0.572974
H425	H	-0.623759	0.519319	-0.596907
O426	O	-0.498037	-0.081800	-0.657534
C427	C	-0.573646	-0.006613	-0.738591
C428	C	-0.516494	-0.065952	-0.708735
H429	H	-0.588582	0.006225	-0.779997
H430	H	-0.600962	-0.014446	-0.715368
H431	H	-0.573691	0.032339	-0.742521
H432	H	-0.516397	-0.104933	-0.704799
H433	H	-0.489202	-0.058068	-0.731971
H434	H	-0.490215	0.626864	-0.653559
H435	H	0.019779	-0.465234	0.161179
O436	O	-0.026886	-0.237316	-0.260615
C437	C	-0.026404	-0.318793	-0.254751
C438	C	-0.024186	-0.291164	-0.225242
H439	H	-0.024211	-0.362341	-0.226162
H440	H	-0.065335	-0.283877	-0.289769
H441	H	0.008733	-0.330636	-0.270164
H442	H	-0.059296	-0.279323	-0.209794
H443	H	0.014767	-0.326097	-0.190250
O444	O	-0.498025	-0.081778	-0.260634
C445	C	-0.573659	-0.006635	-0.254772
C446	C	-0.516516	-0.065991	-0.225260
H447	H	-0.588630	0.006140	-0.226182
H448	H	-0.573741	0.032369	-0.289786
H449	H	-0.600927	-0.014498	-0.270191
H450	H	-0.489215	-0.058188	-0.209807
H451	H	-0.516477	-0.104974	-0.190272
H452	H	-0.445180	-0.860248	0.019309
O453	O	-0.573915	0.385805	-0.426193
C454	C	-0.654699	0.390697	-0.432082
C455	C	-0.625985	0.420165	-0.460747
H456	H	-0.696806	0.418472	-0.460003
H457	H	-0.631716	0.341417	-0.420126
H458	H	-0.656841	0.390408	-0.394875
H459	H	-0.623836	0.420498	-0.497973
H460	H	-0.648978	0.469429	-0.472664
O461	O	-0.293180	-0.294445	-0.154819
C462	C	-0.202311	-0.343980	-0.106282
C463	C	-0.259470	-0.284651	-0.135830
H464	H	-0.175039	-0.336078	-0.090931
H465	H	-0.202211	-0.382971	-0.071227
H466	H	-0.187361	-0.356803	-0.134850
H467	H	-0.274455	-0.271771	-0.107304
H468	H	-0.259537	-0.245696	-0.170892
O469	O	-0.449506	0.135931	-0.154932
C470	C	-0.530559	0.141371	-0.160788
C471	C	-0.500706	0.168667	-0.190285
H472	H	-0.571964	0.167835	-0.189355
H473	H	-0.507334	0.090851	-0.145407
H474	H	-0.534491	0.145245	-0.125747
H475	H	-0.496767	0.164837	-0.225347
H476	H	-0.523943	0.219175	-0.205627
H477	H	-0.490217	0.230142	-0.256784
H478	H	-0.301733	-0.860548	0.019286
H479	H	-0.743179	0.483055	-0.509743
H480	H	-0.840896	0.535415	-0.554785
O481	O	-0.449520	0.688020	-0.707050
C482	C	-0.530562	0.763191	-0.782675
C483	C	-0.500690	0.703816	-0.725541
H484	H	-0.571934	0.775973	-0.797647
H485	H	-0.534559	0.802180	-0.782736
H486	H	-0.507287	0.755350	-0.809955
H487	H	-0.523940	0.711597	-0.698228
H488	H	-0.496687	0.664847	-0.725523
O489	O	-0.293573	0.532601	-0.551580
C490	C	-0.220273	0.542347	-0.555123
C491	C	-0.277413	0.569729	-0.584758
H492	H	-0.207186	0.572346	-0.581939
H493	H	-0.219249	0.540620	-0.517146
H494	H	-0.192067	0.493772	-0.544355
H495	H	-0.305652	0.618315	-0.595562
H496	H	-0.278394	0.571409	-0.622712
O497	O	-0.342437	0.475292	-0.502233
C498	C	-0.261385	0.400101	-0.426617
C499	C	-0.291236	0.459441	-0.483771
H500	H	-0.219979	0.387260	-0.411678
H501	H	-0.284610	0.407934	-0.399303
H502	H	-0.257457	0.361150	-0.426574
H503	H	-0.295171	0.498420	-0.483866
H504	H	-0.267998	0.451557	-0.511061
O505	O	-0.342427	0.233659	-0.260602
C506	C	-0.261395	0.228260	-0.254732
C507	C	-0.291260	0.200988	-0.225226
H508	H	-0.220025	0.201866	-0.226140
H509	H	-0.257393	0.224349	-0.289749
H510	H	-0.284678	0.278793	-0.270145
H511	H	-0.268002	0.150447	-0.209778
H512	H	-0.295268	0.204947	-0.190234
O513	O	-0.342443	-0.766342	0.026907
C514	C	-0.261393	-0.771776	0.026496
C515	C	-0.291243	-0.799073	0.024300
H516	H	-0.219988	-0.798235	0.024401
H517	H	-0.284620	-0.721254	-0.008659
H518	H	-0.257462	-0.775655	0.065415
H519	H	-0.295181	-0.795237	-0.014595
H520	H	-0.268004	-0.849582	0.059482
O521	O	-0.293560	0.135459	-0.154416
C522	C	-0.220283	0.058673	-0.071349
C523	C	-0.277432	0.086193	-0.101095
H524	H	-0.207229	0.018845	-0.028231
H525	H	-0.192032	0.041176	-0.091675
H526	H	-0.219293	0.095659	-0.072112
H527	H	-0.278473	0.049240	-0.100341
H528	H	-0.305657	0.103705	-0.080760
H529	H	-0.743490	0.626486	-0.653184
O530	O	-0.448704	-0.138976	-0.154521
C531	C	-0.449418	-0.097018	-0.105731
C532	C	-0.419776	-0.124455	-0.135441
H533	H	-0.426036	-0.085282	-0.090288
H534	H	-0.490834	-0.053450	-0.134162
H535	H	-0.453312	-0.132055	-0.070715
H536	H	-0.415841	-0.089464	-0.170457
H537	H	-0.378377	-0.168035	-0.106976
O538	O	-0.342432	-0.524784	0.026940
C539	C	-0.261400	-0.599927	0.026477
C540	C	-0.291265	-0.540571	0.024242
H541	H	-0.220031	-0.612702	0.024285
H542	H	-0.257396	-0.638930	0.065413
H543	H	-0.284684	-0.592067	-0.008655
H544	H	-0.268007	-0.548371	0.059346
H545	H	-0.295275	-0.501588	-0.014717
H546	H	-0.841239	0.253681	-0.698962
O547	O	-0.293537	-0.467587	0.019045
C548	C	-0.202777	-0.509547	0.060315
C549	C	-0.259937	-0.482105	0.062502
H550	H	-0.175598	-0.521281	0.095438
H551	H	-0.187623	-0.553117	0.062484
H552	H	-0.202804	-0.474514	0.021373
H553	H	-0.259955	-0.517092	0.101437
H554	H	-0.275068	-0.438524	0.060303
O555	O	-0.574108	0.007693	-0.426066
C556	C	-0.568222	0.002814	-0.345288
C557	C	-0.539554	-0.026659	-0.373997
H558	H	-0.540301	-0.024954	-0.303182
H559	H	-0.580181	0.052096	-0.368278
H560	H	-0.605426	0.003098	-0.343142
H561	H	-0.502332	-0.026987	-0.376150
H562	H	-0.527635	-0.075925	-0.350997
H563	H	-0.570087	0.003544	-0.573301
H564	H	-0.427024	-0.139478	-0.430231
O565	O	-0.342410	-0.237348	-0.260965
C566	C	-0.261490	-0.318596	-0.255469
C567	C	-0.291169	-0.291164	-0.225769
H568	H	-0.220052	-0.362104	-0.227029
H569	H	-0.284792	-0.330435	-0.270873
H570	H	-0.257646	-0.283526	-0.290509
H571	H	-0.295020	-0.326204	-0.190708
H572	H	-0.267855	-0.279310	-0.210404
O573	O	-0.739700	0.159780	-0.502288
C574	C	-0.745544	0.165224	-0.426679
C575	C	-0.775049	0.192513	-0.483832
H576	H	-0.774108	0.191685	-0.411744
H577	H	-0.730157	0.114701	-0.399362
H578	H	-0.710508	0.169107	-0.426635
H579	H	-0.810106	0.188674	-0.483928
H580	H	-0.790398	0.243024	-0.511125
