data_functionalizedCrystal
_audit_creation_method	'MofGen! by Chris Wilmer'
_symmetry_space_group_name_H-M	'P1'
_symmetry_Int_Tables_number	1
_symmetry_cell_setting	triclinic
loop_
_symmetry_equiv_pos_as_xyz
  x,y,z
_cell_length_a	19.805407
_cell_length_b	25.639240
_cell_length_c	19.805399
_cell_angle_alpha	89.969206
_cell_angle_beta	90.019573
_cell_angle_gamma	89.956837
loop_
_atom_site_label
_atom_site_type_symbol
_atom_site_fract_x
_atom_site_fract_y
_atom_site_fract_z
Zn1	Zn	1.034657	0.208163	0.382705
Zn2	Zn	1.034539	0.295597	0.269510
Zn3	Zn	0.921472	0.208177	0.269529
Zn4	Zn	0.921402	0.295569	0.382657
O5	O	0.978017	0.251877	0.326100
O6	O	1.129358	0.219767	0.367701
O7	O	1.019520	0.284018	0.174796
O8	O	0.936564	0.135010	0.284570
O9	O	1.129271	0.284004	0.284537
O10	O	1.019721	0.135000	0.367720
O11	O	0.936450	0.219791	0.174810
O12	O	0.826746	0.219764	0.284524
O13	O	0.936446	0.283957	0.477380
O14	O	0.826695	0.283971	0.367638
O15	O	1.019654	0.219740	0.477415
O16	O	1.019452	0.368758	0.284491
O17	O	0.936331	0.368738	0.367619
C18	C	0.802161	0.251867	0.326078
C19	C	0.726929	0.251875	0.326085
C20	C	0.691576	0.285357	0.369292
C21	C	0.620888	0.285358	0.369302
C22	C	0.585554	0.251879	0.326100
C23	C	0.620912	0.218393	0.282891
C24	C	0.691599	0.218390	0.282885
C25	C	0.335838	0.218404	0.282913
C26	C	0.265146	0.218411	0.282920
C27	C	0.265127	0.285373	0.369330
C28	C	0.335814	0.285370	0.369324
C29	C	0.371166	0.251882	0.326118
C30	C	0.447815	0.251881	0.326109
C31	C	0.508907	0.251883	0.326105
C32	C	0.977890	0.387719	0.326063
C33	C	0.977897	0.445833	0.326069
C34	C	1.021355	0.806194	0.282863
C35	C	1.021376	0.860799	0.282869
O36	O	1.058236	0.889034	0.246113
N37	N	0.978072	0.888116	0.326115
C38	C	0.934749	0.860826	0.369362
O39	O	0.897918	0.889075	0.406147
C40	C	0.934732	0.806222	0.369358
C41	C	0.978034	0.778908	0.326105
C42	C	1.064654	0.778880	0.239614
C43	C	1.064633	0.724280	0.239606
C44	C	1.021312	0.696993	0.282848
C45	C	0.978013	0.724307	0.326098
C46	C	0.891413	0.778933	0.412608
C47	C	0.891401	0.724326	0.412601
C48	C	0.934703	0.697012	0.369348
C49	C	0.934670	0.642421	0.369333
N50	N	0.977974	0.615104	0.326087
C51	C	1.021295	0.642390	0.282845
C52	C	0.934788	0.975496	0.369367
C53	C	0.934801	1.030098	0.369368
C54	C	1.021429	1.030068	0.282876
C55	C	1.021412	0.975464	0.282872
C56	C	0.978093	0.948179	0.326121
C57	C	1.021245	0.527725	0.282833
C58	C	1.021218	0.473120	0.282827
C59	C	0.934593	0.473155	0.369321
C60	C	0.934618	0.527756	0.369324
C61	C	0.977949	0.555039	0.326078
O62	O	0.897831	0.614151	0.406073
O63	O	1.058126	0.614134	0.246072
C64	C	1.154560	0.251887	0.326122
C65	C	1.229792	0.251891	0.326132
C66	C	0.978055	0.251844	0.502643
C67	C	0.978071	0.251830	0.577875
C68	C	0.978138	1.115504	0.326141
C69	C	0.978125	1.057390	0.326128
C70	C	0.978018	0.251872	0.150244
C71	C	0.978133	0.251738	0.075012
C72	C	1.021399	0.218390	0.613238
C73	C	1.021406	0.218375	0.683927
C74	C	0.978088	0.251802	0.719251
C75	C	0.934756	0.285243	0.683882
C76	C	0.934746	0.285255	0.613195
C77	C	0.934794	0.285195	0.968955
C78	C	0.934809	0.285181	1.039648
C79	C	1.021454	0.218314	1.039688
C80	C	1.021444	0.218326	0.969000
C81	C	0.978110	0.251765	0.933638
C82	C	0.978102	0.251780	0.856990
C83	C	0.978099	0.251790	0.795898
H84	H	0.720382	0.191122	0.247704
Br85	Br	0.875806	0.436113	0.428007
Br86	Br	1.080238	0.172962	0.921065
Br87	Br	1.080265	0.172931	1.087683
Br88	Br	0.383807	0.172953	0.224279
Br89	Br	0.875982	0.330575	0.920972
H90	H	1.099935	0.801091	0.204400
H91	H	0.592137	0.191131	0.247718
H92	H	0.236379	0.191145	0.247740
H93	H	1.099895	0.702043	0.204388
H94	H	1.056689	0.191146	0.712717
H95	H	1.056480	0.450882	0.247603
H96	H	0.856125	0.702113	0.447822
H97	H	1.056673	0.953228	0.247652
H98	H	0.899360	0.549996	0.404547
Br99	Br	0.876018	0.330550	1.087587
H100	H	1.056675	0.191171	0.584483
Br101	Br	0.572911	0.330800	0.427945
Br102	Br	0.383764	0.330811	0.427953
H103	H	0.236335	0.312639	0.404513
H104	H	1.056532	0.549933	0.247619
H105	H	1.056706	1.052294	0.247668
Br106	Br	0.876022	1.067161	0.428061
Br107	Br	0.875963	0.330606	0.731820
Br108	Br	0.875987	0.938472	0.428064
Br109	Br	0.832650	0.815989	0.471320
H110	H	0.899458	0.312480	0.584403
H111	H	0.720340	0.312622	0.404470
