data_functionalizedCrystal
_audit_creation_method	'MofGen! by Chris Wilmer'
_symmetry_space_group_name_H-M	'P1'
_symmetry_Int_Tables_number	1
_symmetry_cell_setting	triclinic
loop_
_symmetry_equiv_pos_as_xyz
  x,y,z
_cell_length_a	18.627243
_cell_length_b	18.627245
_cell_length_c	18.627297
_cell_angle_alpha	90.002039
_cell_angle_beta	59.997824
_cell_angle_gamma	119.999685
loop_
_atom_site_label
_atom_site_type_symbol
_atom_site_fract_x
_atom_site_fract_y
_atom_site_fract_z
O1	O	0.633240	-0.492484	-0.021356
O2	O	0.486232	-0.388088	0.021256
O3	O	0.633235	-0.388087	-0.125751
O4	O	0.486237	-0.492485	0.125650
O5	O	0.513833	-0.507489	-0.125750
O6	O	0.366830	-0.507489	0.021256
O7	O	0.513838	-0.611886	-0.021356
Cu8	Cu	0.429432	-0.570590	-0.000050
Cu9	Cu	0.570639	-0.429384	-0.000050
O10	O	0.366835	-0.611886	0.125650
C11	C	0.356044	-0.256979	0.030935
C12	C	0.406443	-0.162282	0.024836
C13	C	0.269040	-0.300580	0.031539
C14	C	0.356039	-0.386983	0.030943
C15	C	0.406432	-0.431286	0.024852
C16	C	0.269035	-0.430386	0.031548
C17	C	0.226044	-0.386979	0.030935
C18	C	0.137446	-0.431279	0.024835
C19	C	0.398838	-0.300583	0.031548
O20	O	-0.104350	-0.611881	-0.021369
O21	O	0.104442	-0.507482	0.021239
O22	O	0.104453	-0.507489	-0.125766
O23	O	-0.104360	-0.611875	0.125635
O24	O	0.104457	-0.388084	-0.125773
O25	O	0.104446	-0.388078	0.021231
O26	O	-0.104345	-0.492477	-0.021377
Cu27	Cu	0.000051	-0.429375	-0.000073
Cu28	Cu	0.000046	-0.570584	-0.000065
O29	O	-0.104356	-0.492470	0.125628
C30	C	0.644032	-0.386986	-0.387050
C31	C	0.593636	-0.431285	-0.431350
C32	C	0.731038	-0.300587	-0.430453
C33	C	0.644032	-0.386986	-0.257049
C34	C	0.593635	-0.431287	-0.162352
C35	C	0.731037	-0.300588	-0.300650
C36	C	0.774032	-0.256986	-0.387049
C37	C	0.862632	-0.162290	-0.431348
C38	C	0.601235	-0.430390	-0.300651
C39	C	0.774046	-0.612982	-0.031065
C40	C	0.862649	-0.568681	-0.024971
C41	C	0.731054	-0.699380	-0.031674
C42	C	0.644041	-0.612985	-0.031058
C43	C	0.593641	-0.568686	-0.024957
C44	C	0.601246	-0.699383	-0.031667
C45	C	0.644046	-0.742983	-0.031064
C46	C	0.593651	-0.837679	-0.024969
C47	C	0.731049	-0.569580	-0.031668
O48	O	0.513853	0.125721	-0.021375
O49	O	0.366846	-0.125678	0.021232
O50	O	0.513856	0.021315	-0.125772
O51	O	0.366843	-0.021272	0.125629
O52	O	0.633253	0.021311	-0.125765
O53	O	0.486243	-0.125682	0.021240
O54	O	0.633250	0.125717	-0.021368
Cu55	Cu	0.570648	0.000017	-0.000063
Cu56	Cu	0.429448	0.000022	-0.000072
O57	O	0.486240	-0.021275	0.125637
O58	O	1.104430	0.125707	-0.492538
O59	O	0.895633	-0.125690	-0.388147
O60	O	0.895628	0.021307	-0.388137
O61	O	1.104435	-0.021290	-0.492548
O62	O	0.895631	0.021311	-0.507540
O63	O	0.895636	-0.125686	-0.507550
O64	O	1.104433	0.125711	-0.611941
Cu65	Cu	1.000035	0.000013	-0.570648
Cu66	Cu	1.000031	0.000008	-0.429440
O67	O	1.104438	-0.021286	-0.611951
O68	O	0.486231	-0.492490	-0.611948
O69	O	0.633235	-0.388087	-0.507553
O70	O	0.486230	-0.388090	-0.507544
O71	O	0.633237	-0.492487	-0.611956
O72	O	0.366830	-0.507490	-0.388142
O73	O	0.513836	-0.507487	-0.388151
O74	O	0.366832	-0.611890	-0.492545
Cu75	Cu	0.429431	-0.570591	-0.429446
Cu76	Cu	0.570636	-0.429386	-0.570653
O77	O	0.513837	-0.611887	-0.492554
C78	C	0.226037	-0.742989	0.386948
C79	C	0.137437	-0.837686	0.431246
C80	C	0.269030	-0.699389	0.430353
C81	C	0.356038	-0.612988	0.256949
C82	C	0.406435	-0.568687	0.162252
C83	C	0.398834	-0.569585	0.300552
C84	C	0.356036	-0.612990	0.386950
C85	C	0.406432	-0.568691	0.431252
C86	C	0.269032	-0.699387	0.300549
C87	C	0.356073	-0.256995	-0.387073
C88	C	0.406473	-0.162299	-0.431376
C89	C	0.398871	-0.300599	-0.430474
C90	C	0.226065	-0.386990	-0.257069
C91	C	0.137460	-0.431286	-0.162372
C92	C	0.269060	-0.430398	-0.300668
C93	C	0.356070	-0.386997	-0.387067
C94	C	0.406468	-0.431300	-0.431364
C95	C	0.269063	-0.300593	-0.300674
C96	C	-0.355975	-0.612964	0.386929
C97	C	-0.406373	-0.568662	0.431227
C98	C	-0.398774	-0.699362	0.430336
C99	C	-0.225968	-0.612970	0.256931
C100	C	-0.137363	-0.568673	0.162234
C101	C	-0.268966	-0.699367	0.300535
C102	C	-0.355976	-0.742966	0.386934
C103	C	-0.406376	-0.837662	0.431237
C104	C	-0.268964	-0.569563	0.300530
C105	C	0.774043	0.030962	-0.387056
C106	C	0.862639	0.024856	-0.431349
C107	C	0.731051	0.031564	-0.430463
C108	C	0.644049	0.030986	-0.257064
C109	C	0.593654	0.024905	-0.162369
C110	C	0.601253	0.031588	-0.300669
C111	C	0.644048	0.030966	-0.387064
C112	C	0.593653	0.024863	-0.431366
C113	C	0.731051	0.031584	-0.300660
O114	O	0.633303	0.125701	-0.611972
O115	O	0.486281	-0.125700	-0.507577
O116	O	0.633272	0.021288	-0.507558
O117	O	0.486311	-0.021287	-0.611991
O118	O	0.513861	0.021292	-0.388162
O119	O	0.366869	-0.125696	-0.388181
O120	O	0.513891	0.125706	-0.492576
Cu121	Cu	0.429477	0.000005	-0.429476
Cu122	Cu	0.570695	0.000001	-0.570676
O123	O	0.366900	-0.021282	-0.492594
C124	C	0.356047	-0.030927	0.386929
C125	C	0.406443	-0.024826	0.431231
C126	C	0.269046	-0.031525	0.430327
C127	C	0.356047	-0.030947	0.256928
C128	C	0.406442	-0.024866	0.162234
C129	C	0.269045	-0.031545	0.300525
C130	C	0.226053	-0.030923	0.386920
C131	C	0.137458	-0.024816	0.431213
C132	C	0.398842	-0.031549	0.300533
H133	H	0.767008	-0.265581	-0.265636
C134	C	0.221244	-0.524997	0.032714
C135	C	0.291782	-0.529699	-0.042111
C136	C	0.247798	-0.616837	-0.041062
H137	H	0.163179	-0.544801	0.032946
H138	H	0.201640	-0.561113	0.083950
H139	H	0.311373	-0.493595	-0.093334
H140	H	0.349850	-0.509912	-0.042359
H141	H	0.228193	-0.652953	0.010173
H142	H	0.189733	-0.636634	-0.040828
H143	H	0.295653	-0.620040	-0.091826
C144	C	0.220967	-0.253925	0.033070
C145	C	0.192134	-0.229812	0.108723
C146	C	0.147809	-0.186860	0.110200
H147	H	0.162831	-0.292260	0.033423
H148	H	0.268609	-0.202796	-0.017597
H149	H	0.144495	-0.280933	0.159377
H150	H	0.250252	-0.191466	0.108387
H151	H	0.195451	-0.135731	0.059533
H152	H	0.089676	-0.225201	0.110550
H153	H	0.128248	-0.170487	0.161525
H154	H	0.468846	-0.498597	0.265543
C155	C	0.221247	-0.524989	-0.253963
C156	C	0.291785	-0.529666	-0.249656
C157	C	0.247775	-0.616781	-0.206627
H158	H	0.201600	-0.561178	-0.285520
H159	H	0.163195	-0.544715	-0.196128
H160	H	0.349818	-0.509951	-0.307482
H161	H	0.311437	-0.493496	-0.218093
H162	H	0.189724	-0.636508	-0.148791
H163	H	0.228130	-0.652963	-0.238188
H164	H	0.295625	-0.619965	-0.203691
C165	C	0.778860	0.032702	-0.253875
C166	C	0.708315	-0.042132	-0.178648
C167	C	0.752320	-0.041143	-0.135535
H168	H	0.798513	0.083912	-0.237344
H169	H	0.836907	0.032908	-0.292190
H170	H	0.650286	-0.042330	-0.140340
H171	H	0.688657	-0.093354	-0.195154
H172	H	0.810367	-0.040937	-0.173851
H173	H	0.771971	0.010070	-0.119010
H174	H	0.704466	-0.091920	-0.084494
C175	C	-0.221137	-0.746141	0.253840
C176	C	-0.291655	-0.821366	0.249525
C177	C	-0.247624	-0.864464	0.206506
H178	H	-0.201493	-0.762670	0.285407
H179	H	-0.163081	-0.707819	0.196006
H180	H	-0.349693	-0.859682	0.307349
H181	H	-0.311305	-0.804862	0.217953
H182	H	-0.189569	-0.826141	0.148672
H183	H	-0.227981	-0.880987	0.238077
H184	H	-0.295461	-0.915504	0.203566
C185	C	-0.220776	-0.474865	0.253784
C186	C	-0.120995	-0.421881	0.229626
C187	C	-0.076566	-0.334646	0.186549
H188	H	-0.258740	-0.455016	0.292057
H189	H	-0.220343	-0.471480	0.202664
H190	H	-0.121433	-0.425262	0.280739
H191	H	-0.083004	-0.441701	0.191343
H192	H	-0.076133	-0.331261	0.135429
H193	H	-0.114538	-0.314806	0.224827
H194	H	-0.008858	-0.298687	0.170146
H195	H	0.233069	-0.032523	0.265512
H196	H	0.233084	-0.265580	-0.265673
C197	C	0.220994	-0.745919	0.525073
C198	C	0.192147	-0.699114	0.578033
C199	C	0.147893	-0.741937	0.665293
H200	H	0.268651	-0.748912	0.528546
H201	H	0.162867	-0.803726	0.544873
H202	H	0.250266	-0.641323	0.558239
H203	H	0.144480	-0.696118	0.574586
H204	H	0.089766	-0.799743	0.685093
H205	H	0.195555	-0.744928	0.668758
H206	H	0.128306	-0.710190	0.701239
H207	H	0.468895	-0.265589	-0.501459
H208	H	0.233044	-0.734394	0.265547
C209	C	0.778831	0.032715	-0.525071
C210	C	0.708277	-0.042104	-0.529760
C211	C	0.752250	-0.041068	-0.616896
H212	H	0.836888	0.032932	-0.544877
H213	H	0.798445	0.083953	-0.561192
H214	H	0.688677	-0.093328	-0.493651
H215	H	0.650217	-0.042337	-0.509972
H216	H	0.771864	0.010170	-0.653018
H217	H	0.810307	-0.040848	-0.636695
H218	H	0.704383	-0.091827	-0.620091
C219	C	-0.492289	-0.746099	0.524916
C220	C	-0.571805	-0.750427	0.529559
C221	C	-0.657982	-0.793505	0.616657
H222	H	-0.477329	-0.714568	0.561141
H223	H	-0.511779	-0.803930	0.544620
H224	H	-0.552318	-0.692607	0.509865
H225	H	-0.586796	-0.781965	0.493353
H226	H	-0.677472	-0.851335	0.636361
H227	H	-0.643012	-0.761969	0.652875
H228	H	-0.711947	-0.796454	0.619817
H229	H	0.767042	-0.734382	-0.032654
H230	H	0.468865	-0.032513	0.265528
H231	H	0.531240	0.032565	-0.265661
C232	C	0.221040	-0.032666	0.524932
C233	C	0.220627	0.042161	0.529589
C234	C	0.176396	0.041139	0.616720
H235	H	0.259052	-0.032883	0.544764
H236	H	0.153289	-0.083898	0.561047
H237	H	0.288366	0.093380	0.493487
H238	H	0.182609	0.042394	0.509775
H239	H	0.108645	-0.010094	0.652835
H240	H	0.214413	0.040919	0.636544
H241	H	0.176101	0.091903	0.619893
C242	C	0.492058	-0.253939	0.033044
C243	C	0.469415	-0.229800	0.108680
C244	C	0.555253	-0.186848	0.110098
H245	H	0.546207	-0.202823	-0.017617
H246	H	0.511486	-0.292305	0.033378
H247	H	0.450000	-0.191436	0.108339
H248	H	0.415280	-0.280900	0.159354
H249	H	0.574682	-0.225214	0.110431
H250	H	0.609396	-0.135736	0.059433
H251	H	0.539899	-0.170472	0.161419
H252	H	0.767019	-0.265586	-0.501443
C253	C	0.507964	-0.525082	-0.253934
C254	C	0.530551	-0.578110	-0.229767
C255	C	0.444650	-0.665336	-0.186728
H256	H	0.488457	-0.544894	-0.292232
H257	H	0.453880	-0.528470	-0.202820
H258	H	0.584618	-0.574726	-0.280873
H259	H	0.550047	-0.558326	-0.191459
H260	H	0.390565	-0.668724	-0.135615
H261	H	0.425149	-0.685139	-0.225032
H262	H	0.459960	-0.701324	-0.170318
H263	H	0.767030	-0.498593	-0.032637
C264	C	0.507989	-0.746130	-0.033110
C265	C	0.530632	-0.770288	-0.108734
C266	C	0.444751	-0.813366	-0.110088
H267	H	0.488448	-0.707859	-0.033419
H268	H	0.453913	-0.797249	0.017579
H269	H	0.584691	-0.719177	-0.159409
H270	H	0.550161	-0.808569	-0.108441
H271	H	0.390675	-0.864485	-0.059400
H272	H	0.425216	-0.775090	-0.110395
H273	H	0.460100	-0.829770	-0.161394
