data_functionalizedCrystal
_audit_creation_method	'MofGen! by Chris Wilmer'
_symmetry_space_group_name_H-M	'P1'
_symmetry_Int_Tables_number	1
_symmetry_cell_setting	triclinic
loop_
_symmetry_equiv_pos_as_xyz
  x,y,z
_cell_length_a	16.109301
_cell_length_b	17.699083
_cell_length_c	14.586319
_cell_angle_alpha	89.995320
_cell_angle_beta	89.998857
_cell_angle_gamma	83.372299
loop_
_atom_site_label
_atom_site_type_symbol
_atom_site_fract_x
_atom_site_fract_y
_atom_site_fract_z
O1	O	1.102963	0.097285	-0.076192
O2	O	0.860880	0.109392	-0.076205
O3	O	0.988761	-0.006841	-0.076190
O4	O	0.975082	0.213518	-0.076207
O5	O	0.988752	-0.006842	0.076291
O6	O	0.860871	0.109390	0.076276
O7	O	1.102954	0.097284	0.076289
Cu8	Cu	0.981912	0.103337	0.090205
Cu9	Cu	0.981923	0.103339	-0.090121
O10	O	0.975073	0.213517	0.076274
C11	C	0.829902	0.108901	0.000034
C12	C	0.737609	0.107430	0.000029
C13	C	0.988267	-0.035039	0.000051
C14	C	0.986796	-0.119059	0.000051
C15	C	0.428500	0.171594	0.000040
C16	C	0.515218	0.172983	0.000035
C17	C	0.535329	0.035076	0.000033
C18	C	0.448613	0.033689	0.000032
C19	C	0.395200	0.101950	0.000040
C20	C	0.568634	0.104726	0.000036
C21	C	0.662658	0.106231	0.000030
C22	C	0.301171	0.100445	0.000044
C23	C	1.061859	-0.167573	0.000056
C24	C	1.060473	-0.246518	0.000048
C25	C	0.984022	-0.276948	0.000041
C26	C	0.908953	-0.228428	0.000033
C27	C	0.910340	-0.149485	0.000035
C28	C	0.903356	-0.546799	0.000025
C29	C	0.901974	-0.625749	0.000026
C30	C	1.053488	-0.643833	0.000039
C31	C	1.054876	-0.564889	0.000040
C32	C	0.979807	-0.516376	0.000027
C33	C	0.981312	-0.430775	0.000035
C34	C	0.982517	-0.362548	0.000041
C35	C	1.133933	0.097775	0.000048
C36	C	1.226225	0.099245	0.000047
C37	C	0.975568	0.241715	0.000031
C38	C	0.977038	0.325735	0.000025
N39	N	0.981911	0.103335	0.217037
N40	N	0.981930	0.103335	-0.216953
C41	C	1.038555	0.051884	0.452050
C42	C	1.038557	0.051883	0.548031
C43	C	0.925280	0.154788	0.548027
C44	C	0.925274	0.154786	0.452048
C45	C	0.981917	0.103335	0.404062
C46	C	0.981925	0.103335	0.596022
C47	C	0.981927	0.103334	0.700090
C48	C	0.981914	0.103335	0.299988
H49	H	0.385014	0.227177	0.000046
C50	C	0.411977	-0.042926	0.000033
C51	C	0.355122	-0.062848	0.079208
C52	C	0.318486	-0.139458	0.079205
C53	C	0.338706	-0.196147	0.000027
C54	C	0.395565	-0.176227	-0.079155
C55	C	0.432200	-0.099617	-0.079152
H56	H	0.340151	-0.020882	0.137827
H57	H	0.276395	-0.154204	0.137821
H58	H	0.311586	-0.252859	0.000024
H59	H	0.410536	-0.218193	-0.137773
H60	H	0.474291	-0.084871	-0.137767
C61	C	1.100853	-0.004716	0.399265
C62	C	1.100854	-0.004722	0.293691
C63	C	1.163153	-0.061326	0.240909
C64	C	1.225450	-0.117924	0.293701
C65	C	1.225451	-0.117919	0.399280
C66	C	1.163153	-0.061315	0.452062
H67	H	1.054736	0.037176	0.254606
H68	H	1.163151	-0.061329	0.162752
H69	H	1.271567	-0.159825	0.254628
H70	H	1.271569	-0.159818	0.438365
H71	H	1.163154	-0.061312	0.530220
C72	C	0.862969	0.211385	0.399252
C73	C	0.800695	0.268008	0.452029
C74	C	0.738390	0.324602	0.399232
C75	C	0.738360	0.324573	0.293659
C76	C	0.800636	0.267947	0.240876
C77	C	0.862941	0.211354	0.293673
H78	H	0.800715	0.268031	0.530186
H79	H	0.692289	0.366519	0.438306
H80	H	0.692238	0.366467	0.254575
H81	H	0.800616	0.267924	0.162719
H82	H	0.909042	0.169436	0.254599
C83	C	0.594086	-0.040007	0.000033
C84	C	0.656462	-0.058022	0.079216
C85	C	0.715218	-0.133107	0.079219
C86	C	0.711597	-0.190177	0.000039
C87	C	0.649218	-0.172164	-0.079150
C88	C	0.590462	-0.097079	-0.079153
H89	H	0.659145	-0.015773	0.137835
H90	H	0.761395	-0.146441	0.137840
H91	H	0.755091	-0.245760	0.000041
H92	H	0.646535	-0.214413	-0.137769
H93	H	0.544285	-0.083745	-0.137774
H94	H	1.124115	-0.142804	0.000068
H95	H	0.542326	0.229694	0.000034
H96	H	1.121597	-0.286016	0.000054
C97	C	1.138973	-0.531417	0.000043
C98	C	1.221544	-0.584781	0.000040
C99	C	1.305642	-0.551311	0.000037
C100	C	1.307170	-0.464476	0.000037
C101	C	1.224596	-0.411106	0.000040
C102	C	1.140497	-0.444577	0.000043
H103	H	1.220415	-0.649066	0.000041
H104	H	1.366769	-0.590819	0.000035
H105	H	1.369425	-0.439699	0.000035
H106	H	1.225724	-0.346821	0.000039
H107	H	1.079371	-0.405069	0.000045
C108	C	1.136067	-0.697200	0.000041
C109	C	1.155944	-0.753968	0.079218
C110	C	1.238520	-0.807332	0.079224
C111	C	1.301220	-0.803928	0.000053
C112	C	1.281345	-0.747158	-0.079129
C113	C	1.198768	-0.693793	-0.079135
H114	H	1.109529	-0.756490	0.137830
H115	H	1.253233	-0.849358	0.137840
H116	H	1.362348	-0.843431	0.000058
H117	H	1.327760	-0.744635	-0.137741
H118	H	1.184056	-0.651768	-0.137752
C119	C	0.820785	-0.493438	0.000021
C120	C	0.800901	-0.436682	0.079198
C121	C	0.718327	-0.383315	0.079196
C122	C	0.655637	-0.386704	0.000017
C123	C	0.675520	-0.443462	-0.079166
C124	C	0.758094	-0.496829	-0.079164
H125	H	0.847309	-0.434172	0.137817
H126	H	0.703609	-0.341299	0.137813
H127	H	0.594511	-0.347198	0.000015
H128	H	0.629112	-0.445973	-0.137785
H129	H	0.772812	-0.538846	-0.137781
C130	C	0.827770	-0.096115	0.000030
C131	C	0.765085	-0.099505	-0.079154
C132	C	0.682513	-0.046136	-0.079164
C133	C	0.662624	0.010622	0.000010
C134	C	0.725310	0.014014	0.079201
C135	C	0.807883	-0.039355	0.079211
H136	H	0.779807	-0.141522	-0.137769
H137	H	0.636108	-0.048646	-0.137787
H138	H	0.601499	0.050129	0.000003
H139	H	0.710589	0.056031	0.137816
H140	H	0.854287	-0.036845	0.137833
H141	H	0.839715	-0.650522	0.000022
H142	H	0.846705	-0.253211	0.000022
H143	H	1.084677	0.009986	0.587101
H144	H	0.879164	0.196679	0.587107
