data_functionalizedCrystal
_audit_creation_method	'MofGen! by Chris Wilmer'
_symmetry_space_group_name_H-M	'P1'
_symmetry_Int_Tables_number	1
_symmetry_cell_setting	triclinic
loop_
_symmetry_equiv_pos_as_xyz
  x,y,z
_cell_length_a	12.759395
_cell_length_b	12.759394
_cell_length_c	12.759387
_cell_angle_alpha	89.970214
_cell_angle_beta	89.978574
_cell_angle_gamma	90.015257
loop_
_atom_site_label
_atom_site_type_symbol
_atom_site_fract_x
_atom_site_fract_y
_atom_site_fract_z
Zn1	Zn	1.606270	-0.418192	-0.594038
Zn2	Zn	1.606161	-0.593909	-0.418362
Zn3	Zn	1.430568	-0.418246	-0.418372
Zn4	Zn	1.430561	-0.593831	-0.593998
O5	O	1.518390	-0.506045	-0.506193
O6	O	1.753276	-0.441510	-0.570747
O7	O	1.582825	-0.570662	-0.271342
O8	O	1.453924	-0.271218	-0.441696
O9	O	1.753196	-0.570609	-0.441678
O10	O	1.583011	-0.271178	-0.570757
O11	O	1.453818	-0.441604	-0.271350
O12	O	1.283546	-0.441529	-0.441657
O13	O	1.453911	-0.570477	-0.741025
O14	O	1.283540	-0.570530	-0.570688
O15	O	1.583004	-0.441436	-0.741054
O16	O	1.582818	-0.740920	-0.441639
O17	O	1.453806	-0.740863	-0.570678
C18	C	1.245422	-0.506028	-0.506170
C19	C	1.128646	-0.506046	-0.506185
C20	C	0.909255	-0.640617	-0.640369
C21	C	0.964143	-0.707880	-0.707435
C22	C	1.073865	-0.707867	-0.707422
C23	C	1.128701	-0.640586	-0.640332
C24	C	1.073812	-0.573322	-0.573266
C25	C	0.964088	-0.573340	-0.573289
C26	C	1.073757	-0.438782	-0.439119
C27	C	0.964035	-0.438788	-0.439136
C28	C	1.128593	-0.371501	-0.372029
C29	C	1.073704	-0.304231	-0.304966
C30	C	0.963976	-0.304245	-0.304983
C31	C	0.909147	-0.371525	-0.372069
C32	C	1.518328	-0.779012	-0.506176
C33	C	1.518398	-0.895789	-0.506204
C34	C	1.384201	-1.115440	-0.371757
C35	C	1.317015	-1.060682	-0.304495
C36	C	1.316955	-0.950961	-0.304466
C37	C	1.384086	-0.895995	-0.371709
C38	C	1.451272	-0.950752	-0.438971
C39	C	1.451327	-1.060477	-0.438990
C40	C	1.585583	-0.950547	-0.573466
C41	C	1.585650	-1.060268	-0.573492
C42	C	1.652714	-0.895581	-0.640709
C43	C	1.719906	-0.950338	-0.707968
C44	C	1.719964	-1.060067	-0.707993
C45	C	1.652835	-1.115026	-0.640754
C46	C	1.792423	-0.506062	-0.506216
C47	C	1.909200	-0.506070	-0.506226
C48	C	1.518469	-0.505942	-0.780226
C49	C	1.518503	-0.505898	-0.897003
C50	C	1.518480	-0.232011	-0.506232
C51	C	1.518519	-0.115234	-0.506249
C52	C	1.652936	-0.371535	-0.897053
C53	C	1.720167	-0.304339	-0.951940
C54	C	1.720193	-0.304300	-1.061661
C55	C	1.652978	-0.371464	-1.116499
C56	C	1.585747	-0.438661	-1.061613
C57	C	1.585730	-0.438694	-0.951889
C58	C	1.451310	-0.573016	-1.061563
C59	C	1.451288	-0.573061	-0.951841
C60	C	1.384094	-0.640180	-1.116401
C61	C	1.316867	-0.707384	-1.061515
C62	C	1.316845	-0.707420	-0.951786
C63	C	1.384056	-0.640258	-0.896955
C64	C	1.518371	-0.506071	-0.233225
C65	C	1.518541	-0.505819	-0.116449
H66	H	1.118360	-0.249460	-0.250343
H67	H	1.774891	-0.249654	-0.907278
N68	N	1.244621	-1.119970	-0.231967
H69	H	1.260970	-1.100913	-0.156913
H70	H	1.169563	-1.100901	-0.248300
N71	N	0.790913	-0.640617	-0.640395
H72	H	0.764504	-0.693441	-0.693073
H73	H	0.764520	-0.659814	-0.568261
N74	N	1.792308	-0.891053	-0.780480
H75	H	1.834885	-0.942388	-0.823091
H76	H	1.749492	-0.845531	-0.829055
N77	N	1.246935	-0.371497	-0.372011
H78	H	1.273405	-0.352267	-0.444112
H79	H	1.273261	-0.318682	-0.319289
N80	N	0.790805	-0.371540	-0.372081
H81	H	0.764412	-0.352320	-0.444189
H82	H	0.764447	-0.443611	-0.352605
N83	N	1.792411	-1.119125	-0.780560
H84	H	1.834918	-1.067651	-0.823154
H85	H	1.841086	-1.164648	-0.737864
H86	H	1.262085	-0.762129	-0.907105
N87	N	1.384016	-0.640307	-0.778613
H88	H	1.456070	-0.659641	-0.752181
H89	H	1.364683	-0.568225	-0.752280
H90	H	1.384116	-0.640140	-1.205742
N91	N	1.652649	-0.777239	-0.640688
H92	H	1.599904	-0.750888	-0.587874
H93	H	1.724754	-0.750853	-0.621468
H94	H	1.384251	-1.204781	-0.371765
H95	H	1.262140	-0.762057	-1.106173
N96	N	1.652905	-1.233368	-0.640774
H97	H	1.580838	-1.259844	-0.660027
H98	H	1.705700	-1.259631	-0.693577
H99	H	1.262243	-0.906377	-0.249699
H100	H	1.118555	-0.762641	-0.762031
N101	N	0.904992	-0.780445	-0.779786
H102	H	0.859501	-0.737813	-0.828554
H103	H	0.956476	-0.823043	-0.822199
N104	N	1.247042	-0.640584	-0.640318
H105	H	1.273499	-0.568536	-0.659752
H106	H	1.273345	-0.659851	-0.568193
N107	N	0.904777	-0.231703	-0.232639
H108	H	0.956168	-0.189085	-0.190139
H109	H	0.859283	-0.183135	-0.275491
H110	H	1.384022	-0.806653	-0.371688
H111	H	1.652932	-0.371570	-0.807712
N112	N	1.792695	-0.231817	-1.120868
H113	H	1.835269	-0.189272	-1.069484
H114	H	1.841306	-0.274576	-1.166394
N115	N	1.652993	-0.371391	-1.234841
H116	H	1.725060	-0.390695	-1.261293
H117	H	1.600168	-0.424118	-1.261179
