data_functionalizedCrystal
_audit_creation_method	'MofGen! by Chris Wilmer'
_symmetry_space_group_name_H-M	'P1'
_symmetry_Int_Tables_number	1
_symmetry_cell_setting	triclinic
loop_
_symmetry_equiv_pos_as_xyz
  x,y,z
_cell_length_a	23.532350
_cell_length_b	23.532357
_cell_length_c	22.010155
_cell_angle_alpha	90.010083
_cell_angle_beta	89.989880
_cell_angle_gamma	97.173233
loop_
_atom_site_label
_atom_site_type_symbol
_atom_site_fract_x
_atom_site_fract_y
_atom_site_fract_z
O1	O	-0.755278	0.068979	0.050453
O2	O	-0.589408	0.079017	0.050473
O3	O	-0.677359	-0.008936	0.050450
O4	O	-0.667326	0.156933	0.050476
O5	O	-0.677333	-0.008936	-0.050600
O6	O	-0.589382	0.079017	-0.050578
O7	O	-0.755251	0.068979	-0.050597
Cu8	Cu	-0.672314	0.073998	-0.059814
Cu9	Cu	-0.672345	0.073998	0.059690
O10	O	-0.667300	0.156933	-0.050574
C11	C	-0.568178	0.078767	-0.000050
C12	C	-0.504959	0.078014	-0.000043
C13	C	-0.112931	0.073283	-0.055154
C14	C	-0.053532	0.072567	-0.055156
O15	O	-0.022801	0.072177	-0.102002
N16	N	-0.023838	0.072212	-0.000074
C17	C	-0.053547	0.072567	0.055014
O18	O	-0.022835	0.072199	0.101866
C19	C	-0.112946	0.073280	0.055016
C20	C	-0.142636	0.073640	-0.000069
C21	C	-0.142622	0.073644	-0.110235
C22	C	-0.202017	0.074361	-0.110232
C23	C	-0.231722	0.074718	-0.055148
C24	C	-0.202031	0.074358	-0.000066
C25	C	-0.142654	0.073631	0.110104
C26	C	-0.202057	0.074343	0.110102
C27	C	-0.231748	0.074703	0.055016
C28	C	-0.291131	0.075432	0.055021
N29	N	-0.320825	0.075787	-0.000061
C30	C	-0.291120	0.075430	-0.055146
C31	C	0.071195	0.071071	0.055006
C32	C	0.130593	0.070363	0.055004
C33	C	0.130604	0.070361	-0.055167
C34	C	0.071205	0.071074	-0.055165
C35	C	0.041501	0.071426	-0.000077
C36	C	-0.415855	0.076937	-0.055135
C37	C	-0.475255	0.077657	-0.055127
C38	C	-0.475261	0.077655	0.055043
C39	C	-0.415865	0.076938	0.055036
C40	C	-0.386164	0.076578	-0.000058
O41	O	-0.321900	0.075820	0.101842
O42	O	-0.321840	0.075791	-0.101989
C43	C	-0.677095	-0.030153	-0.000077
C44	C	-0.676341	-0.093371	-0.000083
C45	C	-0.671618	-0.485382	0.055033
C46	C	-0.670901	-0.544781	0.055037
O47	O	-0.670523	-0.575497	0.101882
N48	N	-0.670531	-0.574492	-0.000045
C49	C	-0.670872	-0.544800	-0.055134
O50	O	-0.670491	-0.575526	-0.101985
C51	C	-0.671586	-0.485401	-0.055137
C52	C	-0.671961	-0.455694	-0.000051
C53	C	-0.671993	-0.455674	0.110114
C54	C	-0.672712	-0.396279	0.110110
C55	C	-0.673055	-0.366592	0.055026
C56	C	-0.672680	-0.396299	-0.000055
C57	C	-0.671923	-0.455710	-0.110225
C58	C	-0.672636	-0.396307	-0.110223
C59	C	-0.673012	-0.366600	-0.055138
C60	C	-0.673741	-0.307216	-0.055144
N61	N	-0.674111	-0.277505	-0.000062
C62	C	-0.673768	-0.307193	0.055023
C63	C	-0.669374	-0.669541	-0.055124
C64	C	-0.668665	-0.728940	-0.055121
C65	C	-0.668692	-0.728916	0.055050
C66	C	-0.669405	-0.669517	0.055047
C67	C	-0.669744	-0.639830	-0.000042
C68	C	-0.675277	-0.182459	0.055011
C69	C	-0.675998	-0.123059	0.055002
C70	C	-0.675967	-0.123087	-0.055169
C71	C	-0.675249	-0.182482	-0.055160
C72	C	-0.674902	-0.212167	-0.000066
O73	O	-0.674117	-0.276462	-0.101965
O74	O	-0.674142	-0.276459	0.101866
C75	C	0.223520	0.069235	-0.000074
C76	C	0.160303	0.070003	-0.000080
C77	C	-0.667564	0.178150	-0.000046
C78	C	-0.668319	0.241368	-0.000036
N79	N	-0.672296	0.073998	-0.143867
C80	C	-0.706686	0.108353	-0.563645
C81	C	-0.706692	0.108351	-0.627252
O82	O	-0.735911	0.137557	-0.660142
N83	N	-0.672356	0.073992	-0.659074
C84	C	-0.638016	0.039627	-0.627284
O85	O	-0.608812	0.010401	-0.660192
C86	C	-0.638013	0.039626	-0.563678
C87	C	-0.672346	0.073992	-0.531860
C88	C	-0.741017	0.142715	-0.531826
C89	C	-0.741009	0.142717	-0.468223
C90	C	-0.706670	0.108357	-0.436438
C91	C	-0.672339	0.073994	-0.468256
C92	C	-0.603676	0.005259	-0.531889
C93	C	-0.603676	0.005260	-0.468279
C94	C	-0.638009	0.039626	-0.436461
C95	C	-0.637992	0.039636	-0.372868
N96	N	-0.672328	0.073995	-0.341047
C97	C	-0.706667	0.108355	-0.372832
C98	C	-0.638026	0.039632	-0.760862
C99	C	-0.638026	0.039636	-0.824467
C100	C	-0.706703	0.108359	-0.824431
C101	C	-0.706700	0.108358	-0.760824
C102	C	-0.672362	0.073991	-0.729041
C103	C	-0.706648	0.108358	-0.239260
C104	C	-0.706635	0.108359	-0.175652
C105	C	-0.637961	0.039633	-0.175693
C106	C	-0.637971	0.039634	-0.239297
C107	C	-0.672319	0.073998	-0.271079
O108	O	-0.608790	0.010443	-0.339937
O109	O	-0.735872	0.137571	-0.339917
N110	N	-0.672368	0.073994	0.143742
H111	H	-0.118491	0.073336	0.154961
C112	C	-0.196097	0.074272	0.219002
C113	C	-0.234706	0.074737	0.170658
H114	H	-0.216253	0.074521	0.256385
H115	H	-0.177474	0.040777	0.216704
H116	H	-0.168385	0.107211	0.216707
H117	H	-0.262416	0.041796	0.172950
H118	H	-0.253339	0.108236	0.172957
H119	H	-0.734594	0.136346	-0.149748
H120	H	-0.674992	-0.206621	0.099874
H121	H	-0.391678	0.076648	-0.099998
C122	C	-0.744131	0.219304	-0.603332
C123	C	-0.778765	0.180489	-0.566760
H124	H	-0.767436	0.242625	-0.624898
H125	H	-0.717785	0.242774	-0.578519
H126	H	-0.723690	0.198837	-0.631389
H127	H	-0.799203	0.200957	-0.538699
H128	H	-0.805121	0.157017	-0.591575
C129	C	-0.672658	-0.402240	0.219006
C130	C	-0.673115	-0.363629	0.170662
H131	H	-0.672901	-0.382084	0.256390
H132	H	-0.705594	-0.429945	0.216712
H133	H	-0.639161	-0.420870	0.216707
H134	H	-0.706614	-0.345002	0.172959
H135	H	-0.640175	-0.335914	0.172958
C136	C	-0.719170	-0.609386	0.118963
C137	C	-0.669800	-0.636857	0.115593
H138	H	-0.719409	-0.589226	0.156344
H139	H	-0.719474	-0.583207	0.086158
H140	H	-0.752109	-0.637099	0.116680
H141	H	-0.636861	-0.609144	0.117871
H142	H	-0.669490	-0.663039	0.148407
C143	C	-0.082519	0.023874	-0.174179
C144	C	-0.109979	0.073250	-0.170792
H145	H	-0.062374	0.023633	-0.211569
H146	H	-0.056328	0.023564	-0.141386
H147	H	-0.110236	-0.009061	-0.171887
H148	H	-0.082262	0.106185	-0.173080
H149	H	-0.136173	0.073565	-0.203594
H150	H	-0.671712	-0.479839	0.154973
C151	C	-0.634868	-0.036954	-0.310839
C152	C	-0.600226	0.001864	-0.274274
H153	H	-0.611566	-0.060272	-0.332431
H154	H	-0.661205	-0.060425	-0.286018
H155	H	-0.655318	-0.016487	-0.338874
H156	H	-0.579779	-0.018603	-0.246236
H157	H	-0.573879	0.025338	-0.299097
H158	H	-0.610001	0.011659	-0.149803
H159	H	-0.668411	-0.753098	0.099903
H160	H	-0.668367	-0.753123	-0.099977
H161	H	-0.575713	-0.022726	-0.442404
C162	C	-0.669280	-0.675541	-0.164023
C163	C	-0.669754	-0.636913	-0.115683
H164	H	-0.669518	-0.655399	-0.201409
H165	H	-0.635788	-0.694166	-0.161724
H166	H	-0.702222	-0.703250	-0.161726
H167	H	-0.636811	-0.609207	-0.117978
H168	H	-0.703250	-0.618278	-0.117983
H169	H	-0.499426	0.077953	-0.099987
H170	H	-0.610059	0.011648	-0.734987
C171	C	-0.774583	0.176286	-0.767192
C172	C	-0.744445	0.146129	-0.725853
H173	H	-0.797890	0.199601	-0.745603
H174	H	-0.748236	0.199761	-0.791999
H175	H	-0.798072	0.149945	-0.792004
H176	H	-0.720953	0.172469	-0.701044
H177	H	-0.770796	0.122651	-0.701036
C178	C	-0.671948	-0.449738	-0.219120
C179	C	-0.671503	-0.488352	-0.170778
H180	H	-0.671684	-0.469890	-0.256504
H181	H	-0.705444	-0.431116	-0.216836
H182	H	-0.639011	-0.422026	-0.216809
H183	H	-0.704443	-0.516062	-0.173086
H184	H	-0.638003	-0.506984	-0.173064
C185	C	-0.624451	-0.322828	-0.174134
C186	C	-0.673007	-0.363673	-0.170778
H187	H	-0.624679	-0.302684	-0.211519
H188	H	-0.624782	-0.296636	-0.141334
H189	H	-0.590959	-0.341465	-0.171835
H190	H	-0.706498	-0.345035	-0.173073
H191	H	-0.672680	-0.389868	-0.203587
C192	C	-0.421844	0.077021	0.163935
C193	C	-0.383225	0.076551	0.115586
H194	H	-0.401696	0.076776	0.201316
H195	H	-0.440467	0.110515	0.161646
H196	H	-0.449556	0.044082	0.161637
H197	H	-0.355516	0.109492	0.117881
H198	H	-0.364593	0.043053	0.117875
H199	H	-0.674949	-0.206672	-0.100015
H200	H	-0.676249	-0.098905	-0.100017
H201	H	-0.226186	0.074651	-0.155088
H202	H	-0.499457	0.077948	0.099891
H203	H	-0.734618	0.136340	-0.265130
H204	H	0.047035	0.071368	-0.100020
H205	H	-0.768970	0.170699	-0.442322
H206	H	-0.734663	0.136338	-0.850322
C207	C	-0.675949	-0.129011	0.163904
C208	C	-0.676407	-0.090405	0.115556
H209	H	-0.676197	-0.108851	0.201285
H210	H	-0.708884	-0.156719	0.161610
H211	H	-0.642450	-0.147638	0.161611
H212	H	-0.709908	-0.071782	0.117847
H213	H	-0.643469	-0.062687	0.117852
C214	C	0.221666	0.069248	-0.104081
C215	C	0.163262	0.069956	-0.115718
H216	H	0.241826	0.068992	-0.141461
H217	H	0.235935	0.102348	-0.081452
H218	H	0.226845	0.035915	-0.081445
H219	H	0.158083	0.103291	-0.138351
H220	H	0.148988	0.036852	-0.138356
H221	H	0.154763	0.070078	0.099861
C222	C	-0.535808	-0.062684	-0.525516
C223	C	-0.565941	-0.032522	-0.566856
H224	H	-0.512514	-0.086013	-0.547105
H225	H	-0.512312	-0.036351	-0.500713
H226	H	-0.562163	-0.086152	-0.500701
H227	H	-0.539585	-0.009051	-0.591668
H228	H	-0.589438	-0.058859	-0.591669
H229	H	0.047014	0.071363	0.099868
H230	H	-0.610061	0.011658	-0.850368
