data_functionalizedCrystal
_audit_creation_method	'MofGen! by Chris Wilmer'
_symmetry_space_group_name_H-M	'P1'
_symmetry_Int_Tables_number	1
_symmetry_cell_setting	triclinic
loop_
_symmetry_equiv_pos_as_xyz
  x,y,z
_cell_length_a	10.654562
_cell_length_b	10.489716
_cell_length_c	9.130313
_cell_angle_alpha	90.002761
_cell_angle_beta	89.996930
_cell_angle_gamma	84.509620
loop_
_atom_site_label
_atom_site_type_symbol
_atom_site_fract_x
_atom_site_fract_y
_atom_site_fract_z
O1	O	1.667893	0.179235	-0.121881
O2	O	1.302423	0.196288	-0.121862
O3	O	1.493490	0.002158	-0.121877
O4	O	1.476826	0.373365	-0.121866
O5	O	1.493488	0.002163	0.121722
O6	O	1.302421	0.196293	0.121737
O7	O	1.667891	0.179241	0.121717
Cu8	Cu	1.485156	0.187767	0.143970
Cu9	Cu	1.485158	0.187761	-0.144114
O10	O	1.476824	0.373370	0.121733
C11	C	1.255624	0.195035	-0.000060
C12	C	1.116180	0.191279	-0.000053
C13	C	1.050647	0.189530	0.132721
C14	C	0.919624	0.186011	0.132696
C15	C	0.919676	0.185995	-0.132888
C16	C	1.050699	0.189505	-0.132862
C17	C	1.116129	0.191303	0.265530
C18	C	1.050596	0.189556	0.398315
C19	C	0.919572	0.186036	0.398290
C20	C	0.854081	0.184265	0.265481
C21	C	1.492237	-0.045371	-0.000082
C22	C	1.488491	-0.187000	-0.000095
C23	C	1.605659	-0.284725	-0.000088
C24	C	1.543746	-0.362061	-0.120188
C25	C	1.543717	-0.362020	0.119981
C26	C	1.426627	-0.262471	-0.120294
C27	C	1.426615	-0.262424	0.119983
C28	C	1.364615	-0.339711	-0.000146
C29	C	1.714690	0.180493	-0.000088
C30	C	1.854134	0.184250	-0.000104
C31	C	1.478077	0.420899	-0.000065
C32	C	1.481823	0.562529	-0.000062
N33	N	1.485163	0.187771	0.346592
N34	N	1.485161	0.187748	-0.346737
C35	C	1.569789	0.101840	0.423237
C36	C	1.569786	0.101825	0.576574
C37	C	1.400526	0.273683	0.576607
C38	C	1.400524	0.273691	0.423273
C39	C	1.654428	0.015920	0.346556
C40	C	1.739063	-0.070017	0.423202
C41	C	1.739059	-0.070033	0.576539
C42	C	1.654421	0.015889	0.653230
H43	H	1.104056	0.190936	-0.240979
Cl44	Cl	1.207148	-0.377369	-0.000232
Cl45	Cl	1.763007	-0.246689	-0.000279
Cl46	Cl	1.132926	0.191768	0.565266
Cl47	Cl	1.294129	0.381719	0.326917
Cl48	Cl	0.837345	0.183760	-0.299836
Cl49	Cl	1.294136	0.381696	0.673019
H50	H	1.807965	-0.139979	0.360752
H51	H	1.377193	-0.219148	-0.221942
Cl52	Cl	1.280842	0.195736	0.265570
H53	H	1.654417	0.015861	0.778087
Cl54	Cl	0.689369	0.179805	0.265455
H55	H	1.593208	-0.405580	-0.221732
Cl56	Cl	0.837192	0.183831	0.565216
H57	H	1.377195	-0.218882	0.221530
Cl58	Cl	1.620114	-0.429165	0.276743
H59	H	1.654441	0.015927	0.221702
Cl60	Cl	1.845443	-0.178075	0.672891
