data_functionalizedCrystal
_audit_creation_method	'MofGen! by Chris Wilmer'
_symmetry_space_group_name_H-M	'P1'
_symmetry_Int_Tables_number	1
_symmetry_cell_setting	triclinic
loop_
_symmetry_equiv_pos_as_xyz
  x,y,z
_cell_length_a	14.044220
_cell_length_b	17.699097
_cell_length_c	16.176319
_cell_angle_alpha	89.988988
_cell_angle_beta	89.992517
_cell_angle_gamma	88.238654
loop_
_atom_site_label
_atom_site_type_symbol
_atom_site_fract_x
_atom_site_fract_y
_atom_site_fract_z
O1	O	0.119911	1.012344	-0.068818
O2	O	0.453244	1.345677	0.264515
O3	O	0.786577	1.679011	0.597849
O4	O	0.135490	0.793042	-0.068805
O5	O	0.468824	1.126375	0.264528
O6	O	0.802157	1.459708	0.597862
O7	O	-0.010277	0.899401	-0.068803
O8	O	0.323057	1.232735	0.264530
O9	O	0.656390	1.566068	0.597863
O10	O	0.265678	0.905985	-0.068820
O11	O	0.599011	1.239318	0.264513
O12	O	0.932344	1.572651	0.597847
O13	O	-0.010286	0.899385	0.068690
O14	O	0.323047	1.232718	0.402023
O15	O	0.656381	1.566051	0.735357
O16	O	0.135481	0.793025	0.068688
O17	O	0.468814	1.126359	0.402021
O18	O	0.802148	1.459692	0.735355
O19	O	0.119901	1.012327	0.068675
O20	O	0.453235	1.345661	0.402008
O21	O	0.786568	1.678994	0.735342
Cu22	Cu	0.127690	0.902675	0.081236
Cu23	Cu	0.461024	1.236008	0.414569
Cu24	Cu	0.794357	1.569341	0.747903
Cu25	Cu	0.127701	0.902694	-0.081366
Cu26	Cu	0.461035	1.236028	0.251968
Cu27	Cu	0.794368	1.569361	0.585301
O28	O	0.265668	0.905968	0.068673
O29	O	0.599002	1.239301	0.402007
O30	O	0.932335	1.572635	0.735340
C31	C	0.134925	0.764798	-0.000057
C32	C	0.468259	1.098131	0.333277
C33	C	0.801592	1.431465	0.666610
C34	C	0.133244	0.680664	-0.000051
C35	C	0.466577	1.013998	0.333282
C36	C	0.799911	1.347331	0.666615
C37	C	0.122944	0.164244	-0.075032
C38	C	0.456278	0.497578	0.258302
C39	C	0.789611	0.830911	0.591635
C40	C	0.124518	0.243297	-0.075028
C41	C	0.457851	0.576630	0.258306
C42	C	0.791184	0.909964	0.591639
C43	C	0.125301	0.282808	-0.000077
C44	C	0.458634	0.616142	0.333256
C45	C	0.791967	0.949475	0.666590
C46	C	0.124501	0.243263	0.074875
C47	C	0.457834	0.576597	0.408208
C48	C	0.791167	0.909930	0.741542
C49	C	0.122921	0.164212	0.074870
C50	C	0.456254	0.497546	0.408203
C51	C	0.789588	0.830879	0.741537
C52	C	0.130871	0.562067	0.074896
C53	C	0.464205	0.895400	0.408230
C54	C	0.797538	1.228733	0.741563
C55	C	0.132454	0.641123	0.074895
C56	C	0.465787	0.974456	0.408229
C57	C	0.799121	1.307790	0.741562
C58	C	0.132468	0.641152	-0.075001
C59	C	0.465801	0.974485	0.258332
C60	C	0.799135	1.307818	0.591665
C61	C	0.130888	0.562101	-0.075006
C62	C	0.464221	0.895434	0.258327
C63	C	0.797555	1.228767	0.591660
C64	C	0.130083	0.522563	-0.000055
C65	C	0.463417	0.855896	0.333278
C66	C	0.796750	1.189229	0.666612
C67	C	0.128376	0.436845	-0.000060
C68	C	0.461709	0.770178	0.333273
C69	C	0.795042	1.103512	0.666606
C70	C	0.127015	0.368524	-0.000071
C71	C	0.460348	0.701858	0.333263
C72	C	0.793682	1.035191	0.666596
C73	C	-0.045589	0.896511	-0.000056
C74	C	0.287744	1.229844	0.333277
C75	C	0.621077	1.563178	0.666611
C76	C	-0.150796	0.887915	-0.000055
C77	C	0.182538	1.221249	0.333279
C78	C	0.515871	1.554582	0.666612
C79	C	-0.343422	0.872200	-0.000066
C80	C	-0.010089	1.205533	0.333268
C81	C	0.323245	1.538867	0.666601
C82	C	-0.401192	0.933166	-0.000072
C83	C	-0.067859	1.266499	0.333262
C84	C	0.265475	1.599833	0.666595
C85	C	-0.508376	0.924422	-0.000078
C86	C	-0.175042	1.257755	0.333256
C87	C	0.158291	1.591088	0.666589
C88	C	-0.236228	0.880943	-0.000059
C89	C	0.097105	1.214276	0.333274
C90	C	0.430439	1.547610	0.666607
C91	C	0.300981	0.908858	-0.000076
C92	C	0.634314	1.242191	0.333258
C93	C	0.967648	1.575525	0.666591
C94	C	0.406188	0.917454	-0.000083
C95	C	0.739521	1.250787	0.333251
C96	C	1.072854	1.584121	0.666584
C97	C	0.120466	1.040571	-0.000075
C98	C	0.453800	1.373905	0.333258
C99	C	0.787133	1.707238	0.666592
C100	C	0.122148	1.124705	-0.000086
C101	C	0.455481	1.458038	0.333248
C102	C	0.788814	1.791371	0.666581
N103	N	0.127682	0.902666	0.195601
N104	N	0.461015	1.236000	0.528934
N105	N	0.794349	1.569333	0.862268
N106	N	0.127702	0.902708	-0.195731
N107	N	0.461035	1.236042	0.137602
N108	N	0.794369	1.569375	0.470936
C109	C	0.063163	0.949780	0.238866
C110	C	0.396496	1.283113	0.572199
C111	C	0.729829	1.616446	0.905533
C112	C	0.063162	0.949783	0.325413
C113	C	0.396495	1.283117	0.658746
C114	C	0.729828	1.616450	0.992080
C115	C	0.127685	0.902677	0.368694
C116	C	0.461019	1.236011	0.702027
C117	C	0.794352	1.569344	1.035360
C118	C	0.192208	0.855559	0.325423
C119	C	0.525541	1.188892	0.658756
C120	C	0.858874	1.522226	0.992089
C121	C	0.192204	0.855552	0.238877
C122	C	0.525537	1.188885	0.572210
C123	C	0.858870	1.522218	0.905544
C124	C	0.192226	0.855586	0.674451
C125	C	0.525559	1.188919	1.007784
C126	C	0.858892	1.522253	1.341118
C127	C	0.192227	0.855598	0.761002
C128	C	0.525560	1.188932	1.094336
C129	C	0.858893	1.522265	1.427669
C130	C	0.063184	0.949818	0.760987
C131	C	0.396517	1.283151	1.094320
C132	C	0.729850	1.616484	1.427654
C133	C	0.063180	0.949811	0.674441
C134	C	0.396513	1.283144	1.007775
C135	C	0.729846	1.616477	1.341108
C136	C	0.127698	0.902690	0.631178
C137	C	0.461031	1.236023	0.964511
C138	C	0.794365	1.569356	1.297845
C139	C	0.127697	0.902685	0.537334
C140	C	0.461031	1.236018	0.870667
C141	C	0.794364	1.569352	1.204000
C142	C	0.127692	0.902685	0.462536
C143	C	0.461025	1.236019	0.795870
C144	C	0.794358	1.569352	1.129203
H145	H	0.133119	0.673353	-0.136030
H146	H	0.466453	1.006686	0.197303
H147	H	0.799786	1.340020	0.530636
C148	C	0.129999	0.518584	0.157339
C149	C	0.463333	0.851918	0.490672
C150	C	0.796666	1.185251	0.824006
H151	H	0.130704	0.553439	0.201975
H152	H	0.464038	0.886773	0.535308
H153	H	0.797371	1.220106	0.868642
H154	H	0.074139	0.489787	0.160463
H155	H	0.407472	0.823120	0.493796
H156	H	0.740805	1.156453	0.827129
H157	H	0.184636	0.485706	0.160448
H158	H	0.517969	0.819039	0.493782
H159	H	0.851303	1.152372	0.827115
H160	H	0.010642	0.988171	0.639205
H161	H	0.343975	1.321505	0.972538
H162	H	0.677308	1.654838	1.305872
C163	C	0.125365	0.286723	0.157319
C164	C	0.458698	0.620057	0.490653
C165	C	0.792031	0.953390	0.823986
H166	H	0.126430	0.339466	0.146590
H167	H	0.459764	0.672799	0.479923
H168	H	0.793097	1.006133	0.813256
H169	H	0.069859	0.275805	0.188120
H170	H	0.403193	0.609138	0.521453
H171	H	0.736526	0.942472	0.854786
H172	H	0.180356	0.271717	0.188108
H173	H	0.513690	0.605050	0.521441
H174	H	0.847023	0.938383	0.854774
H175	H	0.244771	0.817236	0.796240
H176	H	0.578105	1.150570	1.129573
H177	H	0.911438	1.483903	1.462907
C178	C	0.122049	0.120718	0.157310
C179	C	0.455383	0.454052	0.490644
C180	C	0.788716	0.787385	0.823977
H181	H	0.122751	0.155570	0.201950
H182	H	0.456084	0.488903	0.535283
H183	H	0.789418	0.822237	0.868616
H184	H	0.066188	0.091921	0.160428
H185	H	0.399521	0.425254	0.493761
H186	H	0.732855	0.758588	0.827095
H187	H	0.176685	0.087839	0.160420
H188	H	0.510019	0.421172	0.493754
H189	H	0.843352	0.754506	0.827087
H190	H	0.010646	0.988184	0.796221
H191	H	0.343979	1.321517	1.129555
H192	H	0.677313	1.654851	1.462888
C193	C	0.263201	0.803762	0.626872
C194	C	0.596534	1.137095	0.960205
C195	C	0.929867	1.470429	1.293538
H196	H	0.301635	0.775717	0.665046
H197	H	0.634968	1.109050	0.998379
H198	H	0.968301	1.442384	1.331712
H199	H	0.229159	0.769955	0.593126
H200	H	0.562492	1.103289	0.926459
H201	H	0.895825	1.436622	1.259792
H202	H	0.302614	0.833648	0.593096
H203	H	0.635948	1.166981	0.926430
H204	H	0.969281	1.500314	1.259763
H205	H	0.244741	0.817200	0.360667
H206	H	0.578074	1.150534	0.694000
H207	H	0.911408	1.483867	1.027333
C208	C	-0.359267	1.012548	-0.000058
C209	C	-0.025934	1.345881	0.333275
C210	C	0.307399	1.679215	0.666609
H211	H	-0.291682	1.008089	-0.000044
H212	H	0.041651	1.341423	0.333289
H213	H	0.374984	1.674756	0.666623
H214	H	-0.380107	1.039278	-0.048001
H215	H	-0.046773	1.372612	0.285332
H216	H	0.286560	1.705945	0.618665
H217	H	-0.380135	1.039243	0.047898
H218	H	-0.046802	1.372577	0.381232
H219	H	0.286531	1.705910	0.714565
H220	H	-0.374459	0.813443	-0.000064
H221	H	-0.041126	1.146777	0.333269
H222	H	0.292207	1.480110	0.666603
C223	C	-0.007816	1.001596	0.191265
C224	C	0.325518	1.334929	0.524598
C225	C	0.658851	1.668263	0.857932
H226	H	-0.046247	1.029650	0.229431
H227	H	0.287087	1.362983	0.562764
H228	H	0.620420	1.696316	0.896097
H229	H	0.026224	1.035395	0.157486
H230	H	0.359558	1.368729	0.490820
H231	H	0.692891	1.702062	0.824153
H232	H	-0.047232	0.971703	0.157521
H233	H	0.286101	1.305037	0.490855
H234	H	0.619435	1.638370	0.824188
H235	H	0.125161	0.275487	-0.136056
H236	H	0.458494	0.608820	0.197277
H237	H	0.791827	0.942154	0.530610
C238	C	-0.007809	1.001606	0.373005
C239	C	0.325525	1.334939	0.706338
C240	C	0.658858	1.668272	1.039672
H241	H	0.001424	0.994858	0.430747
H242	H	0.334757	1.328191	0.764080
H243	H	0.668091	1.661524	1.097414
H244	H	0.002407	1.052804	0.358807
H245	H	0.335740	1.386137	0.692141
H246	H	0.669074	1.719471	1.025474
H247	H	-0.071052	0.989114	0.358830
H248	H	0.262282	1.322447	0.692164
H249	H	0.595615	1.655780	1.025497
C250	C	0.122091	0.120789	-0.157479
C251	C	0.455425	0.454122	0.175854
C252	C	0.788758	0.787455	0.509188
H253	H	0.122785	0.155662	-0.202113
H254	H	0.456118	0.488996	0.131221
H255	H	0.789451	0.822329	0.464554
H256	H	0.176722	0.087911	-0.160598
H257	H	0.510055	0.421245	0.172735
H258	H	0.843388	0.754578	0.506069
H259	H	0.066225	0.091992	-0.160597
H260	H	0.399558	0.425326	0.172736
H261	H	0.732891	0.758659	0.506070
C262	C	0.130023	0.518642	-0.157452
C263	C	0.463356	0.851976	0.175882
C264	C	0.796690	1.185309	0.509215
H265	H	0.130714	0.553514	-0.202088
H266	H	0.464047	0.886847	0.131246
H267	H	0.797380	1.220180	0.464579
H268	H	0.184650	0.485761	-0.160575
H269	H	0.517983	0.819095	0.172758
H270	H	0.851316	1.152428	0.506092
H271	H	0.074153	0.489850	-0.160562
H272	H	0.407486	0.823183	0.172772
H273	H	0.740820	1.156517	0.506105
C274	C	0.263178	0.803731	0.191286
C275	C	0.596512	1.137064	0.524619
C276	C	0.929845	1.470397	0.857952
H277	H	0.301614	0.775682	0.229456
H278	H	0.634947	1.109015	0.562789
H279	H	0.968280	1.442349	0.896122
H280	H	0.229132	0.769927	0.157539
H281	H	0.562465	1.103260	0.490872
H282	H	0.895799	1.436594	0.824206
H283	H	0.302591	0.833617	0.157510
H284	H	0.635925	1.166950	0.490844
H285	H	0.969258	1.500283	0.824177
H286	H	0.133092	0.673291	0.135933
H287	H	0.466425	1.006624	0.469266
H288	H	0.799758	1.339958	0.802600
