data_functionalizedCrystal
_audit_creation_method	'MofGen! by Chris Wilmer'
_symmetry_space_group_name_H-M	'P1'
_symmetry_Int_Tables_number	1
_symmetry_cell_setting	triclinic
loop_
_symmetry_equiv_pos_as_xyz
  x,y,z
_cell_length_a	19.077105
_cell_length_b	18.101395
_cell_length_c	19.075868
_cell_angle_alpha	87.593339
_cell_angle_beta	85.264809
_cell_angle_gamma	87.727498
loop_
_atom_site_label
_atom_site_type_symbol
_atom_site_fract_x
_atom_site_fract_y
_atom_site_fract_z
Zn1	Zn	1.093925	-0.321803	-0.441940
Zn2	Zn	1.343925	-0.071803	-0.191940
Zn3	Zn	1.593925	0.178197	0.058060
Zn4	Zn	1.843925	0.428197	0.308060
Zn5	Zn	1.089028	-0.450605	-0.324029
Zn6	Zn	1.339028	-0.200605	-0.074029
Zn7	Zn	1.589028	0.049395	0.175971
Zn8	Zn	1.839028	0.299395	0.425971
Zn9	Zn	0.971239	-0.322001	-0.319312
Zn10	Zn	1.221239	-0.072001	-0.069312
Zn11	Zn	1.471239	0.177999	0.180688
Zn12	Zn	1.721239	0.427999	0.430688
Zn13	Zn	0.975988	-0.440822	-0.437171
Zn14	Zn	1.225988	-0.190822	-0.187171
Zn15	Zn	1.475988	0.059178	0.062829
Zn16	Zn	1.725988	0.309178	0.312829
O17	O	1.032545	-0.383808	-0.380613
O18	O	1.282545	-0.133808	-0.130613
O19	O	1.532545	0.116192	0.119387
O20	O	1.782545	0.366192	0.369387
O21	O	1.191927	-0.342900	-0.430269
O22	O	1.441927	-0.092900	-0.180269
O23	O	1.691927	0.157100	0.069731
O24	O	1.941927	0.407100	0.319731
O25	O	1.069367	-0.437723	-0.224733
O26	O	1.319367	-0.187723	0.025267
O27	O	1.569367	0.062277	0.275267
O28	O	1.819367	0.312277	0.525267
O29	O	0.987576	-0.218344	-0.335601
O30	O	1.237576	0.031656	-0.085601
O31	O	1.487576	0.281656	0.164399
O32	O	1.737576	0.531656	0.414399
O33	O	1.188330	-0.437530	-0.343641
O34	O	1.438330	-0.187530	-0.093641
O35	O	1.688330	0.062470	0.156359
O36	O	1.938330	0.312470	0.406359
O37	O	1.077712	-0.218198	-0.425695
O38	O	1.327712	0.031802	-0.175695
O39	O	1.577712	0.281802	0.074305
O40	O	1.827712	0.531802	0.324305
O41	O	0.982828	-0.343238	-0.221267
O42	O	1.232828	-0.093238	0.028733
O43	O	1.482828	0.156762	0.278733
O44	O	1.732828	0.406762	0.528733
O45	O	0.873217	-0.333752	-0.330976
O46	O	1.123217	-0.083752	-0.080976
O47	O	1.373217	0.166248	0.169024
O48	O	1.623217	0.416248	0.419024
O49	O	0.995669	-0.420857	-0.536474
O50	O	1.245669	-0.170857	-0.286474
O51	O	1.495669	0.079143	-0.036474
O52	O	1.745669	0.329143	0.213526
O53	O	0.876706	-0.421049	-0.417566
O54	O	1.126706	-0.171049	-0.167566
O55	O	1.376706	0.078951	0.082434
O56	O	1.626706	0.328951	0.332434
O57	O	1.082317	-0.333414	-0.539978
O58	O	1.332317	-0.083414	-0.289978
O59	O	1.582317	0.166586	-0.039978
O60	O	1.832317	0.416586	0.210022
O61	O	1.073971	-0.552939	-0.339016
O62	O	1.323971	-0.302939	-0.089016
O63	O	1.573971	-0.052939	0.160984
O64	O	1.823971	0.197061	0.410984
O65	O	0.990921	-0.545751	-0.422140
O66	O	1.240921	-0.295751	-0.172140
O67	O	1.490921	-0.045751	0.077860
O68	O	1.740921	0.204249	0.327860
C69	C	0.849382	-0.376361	-0.373242
C70	C	1.099382	-0.126361	-0.123242
C71	C	1.349382	0.123639	0.126758
C72	C	1.599382	0.373639	0.376758
C73	C	0.771025	-0.373192	-0.370106
C74	C	1.021025	-0.123192	-0.120106
C75	C	1.271025	0.126808	0.129894
C76	C	1.521025	0.376808	0.379894
C77	C	1.032450	-0.576215	-0.380589
C78	C	1.282450	-0.326215	-0.130589
C79	C	1.532450	-0.076215	0.119411
C80	C	1.782450	0.173785	0.369411
C81	C	1.032475	-0.658530	-0.380604
C82	C	1.282475	-0.408530	-0.130604
C83	C	1.532475	-0.158530	0.119396
C84	C	1.782475	0.091470	0.369396
C85	C	0.736045	-0.417229	-0.413644
C86	C	0.986045	-0.167229	-0.163644
C87	C	1.236045	0.082771	0.086356
C88	C	1.486045	0.332771	0.336356
C89	C	0.662420	-0.414242	-0.410700
C90	C	0.912420	-0.164242	-0.160700
C91	C	1.162420	0.085758	0.089300
C92	C	1.412420	0.335758	0.339300
C93	C	0.623777	-0.367222	-0.364214
C94	C	0.873777	-0.117222	-0.114214
C95	C	1.123777	0.132778	0.135786
C96	C	1.373777	0.382778	0.385786
C97	C	0.658762	-0.323180	-0.320674
C98	C	0.908762	-0.073180	-0.070674
C99	C	1.158762	0.176820	0.179326
C100	C	1.408762	0.426820	0.429326
C101	C	0.732386	-0.326164	-0.323622
C102	C	0.982386	-0.076164	-0.073622
C103	C	1.232386	0.173836	0.176378
C104	C	1.482386	0.423836	0.426378
C105	C	0.403390	-0.353412	-0.350574
C106	C	0.653390	-0.103412	-0.100574
C107	C	0.903390	0.146588	0.149426
C108	C	1.153390	0.396588	0.399426
C109	C	0.329761	-0.350433	-0.347628
C110	C	0.579761	-0.100433	-0.097628
C111	C	0.829761	0.149567	0.152372
C112	C	1.079761	0.399567	0.402372
C113	C	0.333424	-0.441495	-0.437656
C114	C	0.583424	-0.191495	-0.187656
C115	C	0.833424	0.058505	0.062344
C116	C	1.083424	0.308505	0.312344
C117	C	0.407048	-0.444478	-0.440597
C118	C	0.657048	-0.194478	-0.190597
C119	C	0.907048	0.055522	0.059403
C120	C	1.157048	0.305522	0.309403
C121	C	0.442028	-0.400433	-0.397059
C122	C	0.692028	-0.150433	-0.147059
C123	C	0.942028	0.099567	0.102941
C124	C	1.192028	0.349567	0.352941
N125	N	0.548521	-0.364169	-0.361202
N126	N	0.798521	-0.114169	-0.111202
N127	N	1.048521	0.135831	0.138798
N128	N	1.298521	0.385831	0.388798
N129	N	0.517283	-0.403483	-0.400075
N130	N	0.767283	-0.153483	-0.150075
N131	N	1.017283	0.096517	0.099925
N132	N	1.267283	0.346517	0.349925
C133	C	1.032631	-0.957625	-0.380648
C134	C	1.282631	-0.707625	-0.130648
C135	C	1.532631	-0.457625	0.119352
C136	C	1.782631	-0.207625	0.369352
C137	C	0.980510	-0.921808	-0.433089
C138	C	1.230510	-0.671808	-0.183089
C139	C	1.480510	-0.421808	0.066911
C140	C	1.730510	-0.171808	0.316911
C141	C	0.980244	-0.836187	-0.432907
C142	C	1.230244	-0.586187	-0.182907
C143	C	1.480244	-0.336187	0.067093
C144	C	1.730244	-0.086187	0.317093
C145	C	1.032553	-0.809241	-0.380627
C146	C	1.282553	-0.559241	-0.130627
C147	C	1.532553	-0.309241	0.119373
C148	C	1.782553	-0.059241	0.369373
C149	C	1.009416	-0.842701	-0.305508
C150	C	1.259416	-0.592701	-0.055508
C151	C	1.509416	-0.342701	0.194492
C152	C	1.759416	-0.092701	0.444492
C153	C	1.009079	-0.928318	-0.305821
C154	C	1.259079	-0.678318	-0.055821
C155	C	1.509079	-0.428318	0.194179
C156	C	1.759079	-0.178318	0.444179
C157	C	1.107981	-0.928195	-0.402678
C158	C	1.357981	-0.678195	-0.152678
C159	C	1.607981	-0.428195	0.097322
C160	C	1.857981	-0.178195	0.347322
C161	C	1.107609	-0.842458	-0.404290
C162	C	1.357609	-0.592458	-0.154290
C163	C	1.607609	-0.342458	0.095710
C164	C	1.857609	-0.092458	0.345710
C165	C	1.032510	-0.725380	-0.380611
C166	C	1.282510	-0.475380	-0.130611
C167	C	1.532510	-0.225380	0.119389
C168	C	1.782510	0.024620	0.369389
C169	C	1.032672	-1.041486	-0.380660
C170	C	1.282672	-0.791486	-0.130660
C171	C	1.532672	-0.541486	0.119340
C172	C	1.782672	-0.291486	0.369340
C173	C	1.216423	-0.391284	-0.388013
C174	C	1.466423	-0.141284	-0.138013
C175	C	1.716423	0.108716	0.111987
C176	C	1.966423	0.358716	0.361987
C177	C	1.294781	-0.394470	-0.391167
C178	C	1.544781	-0.144470	-0.141167
C179	C	1.794781	0.105530	0.108833
C180	C	2.044781	0.355530	0.358833
C181	C	1.040069	-0.376022	-0.564526
C182	C	1.290069	-0.126022	-0.314526
C183	C	1.540069	0.123978	-0.064526
C184	C	1.790069	0.373978	0.185474
C185	C	1.043275	-0.372704	-0.642898
C186	C	1.293275	-0.122704	-0.392898
C187	C	1.543275	0.127296	-0.142898
C188	C	1.793275	0.377296	0.107102
C189	C	1.032660	-0.190649	-0.380654
C190	C	1.282660	0.059351	-0.130654
C191	C	1.532660	0.309351	0.119346
C192	C	1.782660	0.559351	0.369346
C193	C	1.032709	-0.108336	-0.380671
C194	C	1.282709	0.141664	-0.130671
C195	C	1.532709	0.391664	0.119329
C196	C	1.782709	0.641664	0.369329
C197	C	1.025091	-0.391512	-0.197418
C198	C	1.275091	-0.141512	0.052582
C199	C	1.525091	0.108488	0.302582
C200	C	1.775091	0.358488	0.552582
C201	C	1.022022	-0.394627	-0.119051
C202	C	1.272022	-0.144627	0.130949
C203	C	1.522022	0.105373	0.380949
C204	C	1.772022	0.355373	0.630949
C205	C	1.065368	-0.350203	-0.084235
C206	C	1.315368	-0.100203	0.165765
C207	C	1.565368	0.149797	0.415765
C208	C	1.815368	0.399797	0.665765
C209	C	1.062485	-0.353140	-0.010601
C210	C	1.312485	-0.103140	0.239399
C211	C	1.562485	0.146860	0.489399
C212	C	1.812485	0.396860	0.739399
C213	C	1.016250	-0.400499	0.028215
C214	C	1.266250	-0.150499	0.278215
C215	C	1.516250	0.099501	0.528215
C216	C	1.766250	0.349501	0.778215
C217	C	0.972902	-0.444928	-0.006606
C218	C	1.222902	-0.194928	0.243394
C219	C	1.472902	0.055072	0.493394
C220	C	1.722902	0.305072	0.743394
C221	C	0.975789	-0.441993	-0.080238
C222	C	1.225789	-0.191993	0.169762
C223	C	1.475789	0.058007	0.419762
C224	C	1.725789	0.308007	0.669762
C225	C	1.002814	-0.414199	0.248648
C226	C	1.252814	-0.164199	0.498648
C227	C	1.502814	0.085801	0.748648
C228	C	1.752814	0.335801	0.998648
C229	C	0.999928	-0.417128	0.322286
C230	C	1.249928	-0.167128	0.572286
C231	C	1.499928	0.082872	0.822286
C232	C	1.749928	0.332872	1.072286
C233	C	1.089512	-0.325341	0.318285
C234	C	1.339512	-0.075341	0.568285
C235	C	1.589512	0.174659	0.818285
C236	C	1.839512	0.424659	1.068285
C237	C	1.092393	-0.322408	0.244652
C238	C	1.342393	-0.072408	0.494652
C239	C	1.592393	0.177592	0.744652
C240	C	1.842393	0.427592	0.994652
C241	C	1.049047	-0.366840	0.209837
C242	C	1.299047	-0.116840	0.459837
C243	C	1.549047	0.133160	0.709837
C244	C	1.799047	0.383160	0.959837
N245	N	1.013300	-0.403501	0.103481
N246	N	1.263300	-0.153501	0.353481
N247	N	1.513300	0.096499	0.603481
N248	N	1.763300	0.346499	0.853481
N249	N	1.052002	-0.363841	0.134572
N250	N	1.302002	-0.113841	0.384572
N251	N	1.552002	0.136159	0.634572
N252	N	1.802002	0.386159	0.884572
H253	H	0.767503	-0.455521	-0.451496
H254	H	1.017503	-0.205521	-0.201496
H255	H	1.267503	0.044479	0.048504
H256	H	1.517503	0.294479	0.298504
H257	H	0.760866	-0.290300	-0.288172
H258	H	1.010866	-0.040300	-0.038172
H259	H	1.260866	0.209700	0.211828
H260	H	1.510866	0.459700	0.461828
H261	H	0.995070	-0.813317	-0.488514
H262	H	1.245070	-0.563317	-0.238514
H263	H	1.495070	-0.313317	0.011486
H264	H	1.745070	-0.063317	0.261486
H265	H	1.097784	-0.316967	0.017743
H266	H	1.347784	-0.066967	0.267743
H267	H	1.597784	0.183033	0.517743
H268	H	1.847784	0.433033	0.767743
H269	H	1.125002	-0.820411	-0.459588
H270	H	1.375002	-0.570411	-0.209588
H271	H	1.625002	-0.320411	0.040412
H272	H	1.875002	-0.070411	0.290412
H273	H	0.304936	-0.477352	-0.473103
H274	H	0.554936	-0.227352	-0.223103
H275	H	0.804936	0.022648	0.026897
H276	H	1.054936	0.272648	0.276897
H277	H	0.995218	-0.940537	-0.488868
H278	H	1.245218	-0.690537	-0.238868
H279	H	1.495218	-0.440537	0.011132
H280	H	1.745218	-0.190537	0.261132
H281	H	0.962261	-0.455678	0.353889
H282	H	1.212261	-0.205678	0.603889
H283	H	1.462261	0.044322	0.853889
H284	H	1.712261	0.294322	1.103889
H285	H	0.954811	-0.819817	-0.286929
H286	H	1.204811	-0.569817	-0.036929
H287	H	1.454811	-0.319817	0.213071
H288	H	1.704811	-0.069817	0.463071
H289	H	1.124803	-0.289168	0.346640
H290	H	1.374803	-0.039168	0.596640
H291	H	1.624803	0.210832	0.846640
H292	H	1.874803	0.460832	1.096640
H293	H	0.967518	-0.450377	0.220311
H294	H	1.217518	-0.200377	0.470311
H295	H	1.467518	0.049623	0.720311
H296	H	1.717518	0.299623	0.970311
H297	H	1.148739	-0.824326	-0.369117
H298	H	1.398739	-0.574326	-0.119117
H299	H	1.648739	-0.324326	0.130883
H300	H	1.898739	-0.074326	0.380883
H301	H	0.953908	-0.946826	-0.287508
H302	H	1.203908	-0.696826	-0.037508
H303	H	1.453908	-0.446826	0.212492
H304	H	1.703908	-0.196826	0.462492
H305	H	0.935260	-0.483491	0.025004
H306	H	1.185260	-0.233491	0.275004
H307	H	1.435260	0.016509	0.525004
H308	H	1.685260	0.266509	0.775004
H309	H	0.940492	-0.478169	-0.108585
H310	H	1.190492	-0.228169	0.141415
H311	H	1.440492	0.021831	0.391415
H312	H	1.690492	0.271831	0.641415
H313	H	1.130045	-0.283847	0.213052
H314	H	1.380045	-0.033847	0.463052
H315	H	1.630045	0.216153	0.713052
H316	H	1.880045	0.466153	0.963052
H317	H	1.103013	-0.311633	-0.115834
H318	H	1.353013	-0.061633	0.134166
H319	H	1.603013	0.188367	0.384166
H320	H	1.853013	0.438367	0.634166
H321	H	1.128486	-0.948248	-0.456678
H322	H	1.378486	-0.698248	-0.206678
H323	H	1.628486	-0.448248	0.043322
H324	H	1.878486	-0.198248	0.293322
H325	H	0.431861	-0.317554	-0.315118
H326	H	0.681861	-0.067554	-0.065118
H327	H	0.931861	0.182446	0.184882
H328	H	1.181861	0.432446	0.434882
H329	H	0.438507	-0.482769	-0.478449
H330	H	0.688507	-0.232769	-0.228449
H331	H	0.938507	0.017231	0.021551
H332	H	1.188507	0.267231	0.271551
H333	H	1.146850	-0.951761	-0.364520
H334	H	1.396850	-0.701761	-0.114520
H335	H	1.646850	-0.451761	0.135480
H336	H	1.896850	-0.201761	0.385480
H337	H	0.627293	-0.284891	-0.282827
H338	H	0.877293	-0.034891	-0.032827
H339	H	1.127293	0.215109	0.217173
H340	H	1.377293	0.465109	0.467173
H341	H	0.633942	-0.450102	-0.446153
H342	H	0.883942	-0.200102	-0.196153
H343	H	1.133942	0.049898	0.053847
H344	H	1.383942	0.299898	0.303847
H345	H	1.046051	-0.825644	-0.265240
H346	H	1.296051	-0.575644	-0.015240
H347	H	1.546051	-0.325644	0.234760
H348	H	1.796051	-0.075644	0.484760
H349	H	0.298300	-0.312135	-0.309778
H350	H	0.548300	-0.062135	-0.059778
H351	H	0.798300	0.187865	0.190222
H352	H	1.048300	0.437865	0.440222
H353	H	0.924454	-0.814051	-0.418079
H354	H	1.174454	-0.564051	-0.168079
H355	H	1.424454	-0.314051	0.081921
H356	H	1.674454	-0.064051	0.331921
H357	H	0.925062	-0.941689	-0.418433
H358	H	1.175062	-0.691689	-0.168433
H359	H	1.425062	-0.441689	0.081567
H360	H	1.675062	-0.191689	0.331567
H361	H	1.045231	-0.952342	-0.265256
H362	H	1.295231	-0.702342	-0.015256
H363	H	1.545231	-0.452342	0.234744
H364	H	1.795231	-0.202342	0.484744
