data_functionalizedCrystal
_audit_creation_method	'MofGen! by Chris Wilmer'
_symmetry_space_group_name_H-M	'P1'
_symmetry_Int_Tables_number	1
_symmetry_cell_setting	triclinic
loop_
_symmetry_equiv_pos_as_xyz
  x,y,z
_cell_length_a	12.759401
_cell_length_b	11.169416
_cell_length_c	12.759393
_cell_angle_alpha	89.971981
_cell_angle_beta	89.980591
_cell_angle_gamma	90.010380
loop_
_atom_site_label
_atom_site_type_symbol
_atom_site_fract_x
_atom_site_fract_y
_atom_site_fract_z
Zn1	Zn	1.606287	-0.477742	-0.594030
Zn2	Zn	1.606195	-0.678471	-0.418358
Zn3	Zn	1.430589	-0.477801	-0.418366
Zn4	Zn	1.430591	-0.678383	-0.593996
O5	O	1.518416	-0.578099	-0.506188
O6	O	1.753295	-0.504381	-0.570738
O7	O	1.582862	-0.651913	-0.271338
O8	O	1.453933	-0.309844	-0.441686
O9	O	1.753229	-0.651856	-0.441672
O10	O	1.583017	-0.309800	-0.570746
O11	O	1.453845	-0.504482	-0.271344
O12	O	1.283568	-0.504397	-0.441653
O13	O	1.453936	-0.651706	-0.741022
O14	O	1.283570	-0.651763	-0.570687
O15	O	1.583019	-0.504296	-0.741047
O16	O	1.582864	-0.846409	-0.441639
O17	O	1.453848	-0.846344	-0.570679
C18	C	1.245448	-0.578078	-0.506168
C19	C	1.128672	-0.578097	-0.506185
C20	C	1.073778	-0.654764	-0.438888
C21	C	0.964054	-0.654785	-0.438907
C22	C	0.964126	-0.501461	-0.573520
C23	C	1.073848	-0.501448	-0.573507
C24	C	1.073736	-0.743281	-0.361167
C25	C	0.964012	-0.743301	-0.361185
C26	C	1.518375	-0.889924	-0.506177
C27	C	1.518453	-1.023324	-0.506208
C28	C	1.792449	-0.578122	-0.506208
C29	C	1.909225	-0.578132	-0.506217
C30	C	1.518488	-0.577984	-0.780221
C31	C	1.518519	-0.577935	-0.896998
C32	C	1.518485	-0.265057	-0.506221
C33	C	1.518515	-0.131657	-0.506235
C34	C	1.585702	-0.654673	-0.951854
C35	C	1.585733	-0.654622	-1.061578
C36	C	1.451391	-0.501092	-1.061580
C37	C	1.451365	-0.501138	-0.951858
C38	C	1.663260	-0.743317	-0.951854
C39	C	1.663292	-0.743266	-1.061578
C40	C	1.518404	-0.578127	-0.233220
C41	C	1.518576	-0.577838	-0.116444
H42	H	0.934196	-0.718295	-0.279856
Cl43	Cl	1.366919	-0.404645	-0.882899
H44	H	1.103516	-0.836261	-0.382816
H45	H	1.740607	-0.709970	-1.095619
Cl46	Cl	1.366974	-0.404551	-1.130555
Cl47	Cl	0.911476	-0.879696	-0.405985
Cl48	Cl	1.142854	-0.405082	-0.658129
Cl49	Cl	0.895198	-0.405109	-0.658150
H50	H	1.107735	-0.709873	-0.283920
H51	H	1.641481	-0.836204	-1.091345
Cl52	Cl	1.788884	-0.704919	-0.905891
Cl53	Cl	1.618208	-0.879649	-0.899282
