data_functionalizedCrystal
_audit_creation_method	'MofGen! by Chris Wilmer'
_symmetry_space_group_name_H-M	'P1'
_symmetry_Int_Tables_number	1
_symmetry_cell_setting	triclinic
loop_
_symmetry_equiv_pos_as_xyz
  x,y,z
_cell_length_a	13.339070
_cell_length_b	14.519709
_cell_length_c	12.376457
_cell_angle_alpha	101.296542
_cell_angle_beta	75.589755
_cell_angle_gamma	99.654719
loop_
_atom_site_label
_atom_site_type_symbol
_atom_site_fract_x
_atom_site_fract_y
_atom_site_fract_z
O1	O	1.362507	0.449827	-0.094056
O2	O	1.067869	0.389115	-0.094048
O3	O	1.222998	0.287221	-0.094042
O4	O	1.207378	0.551721	-0.094062
O5	O	1.184229	0.312650	0.093969
O6	O	1.029100	0.414544	0.093963
O7	O	1.323739	0.475256	0.093955
Zn8	Zn	1.170264	0.448937	0.123810
Zn9	Zn	1.221343	0.415434	-0.123903
O10	O	1.168610	0.577150	0.093949
C11	C	1.010777	0.391574	-0.000041
C12	C	0.898419	0.361005	-0.000038
C13	C	0.534063	0.598692	-0.000074
C14	C	0.639629	0.627415	-0.000081
C15	C	0.704332	0.560815	-0.000070
C16	C	0.663458	0.465487	-0.000053
C17	C	0.557883	0.436759	-0.000055
C18	C	0.728152	0.398883	-0.000050
C19	C	0.687278	0.303554	-0.000033
C20	C	0.581713	0.274832	-0.000035
C21	C	0.517011	0.341432	-0.000046
C22	C	0.833726	0.427610	-0.000048
C23	C	0.857547	0.265678	-0.000029
C24	C	0.751980	0.236954	-0.000022
C25	C	1.202885	0.265390	-0.000036
C26	C	1.200703	0.162454	-0.000036
C27	C	1.192677	-0.214489	-0.000065
C28	C	1.194906	-0.109612	-0.000056
C29	C	1.196690	-0.026021	-0.000049
C30	C	1.198919	0.078862	-0.000043
C31	C	1.380832	0.472796	-0.000054
C32	C	1.493191	0.503364	-0.000065
C33	C	1.188723	0.598980	-0.000059
C34	C	1.190906	0.701915	-0.000067
N35	N	1.135411	0.471804	0.292866
N36	N	1.256204	0.392562	-0.292960
C37	C	1.337109	0.339463	0.647859
C38	C	1.361497	0.323457	0.529520
C39	C	1.304977	0.360542	0.470351
C40	C	1.224066	0.413636	0.529532
C41	C	1.199681	0.429650	0.647883
C42	C	1.167550	0.450729	0.470375
C43	C	1.086639	0.503824	0.529556
C44	C	1.062257	0.519834	0.647895
C45	C	1.118777	0.482749	0.707064
C46	C	1.191935	0.434715	0.352024
C47	C	1.054507	0.524903	0.352048
C48	C	1.030119	0.540909	0.470387
H49	H	1.257813	0.391486	0.303849
C50	C	1.091955	0.500359	0.837238
H51	H	1.137208	0.470669	0.863995
H52	H	1.021731	0.474772	0.864029
H53	H	1.100404	0.566506	0.863999
C54	C	1.450484	0.265052	0.464429
H55	H	1.480646	0.245250	0.516614
H56	H	1.502185	0.302795	0.418248
H57	H	1.423514	0.211059	0.418279
H58	H	1.324838	0.347507	0.373994
H59	H	1.383125	0.309279	0.696043
C60	C	0.973266	0.578243	0.712997
H61	H	0.966845	0.582475	0.791951
H62	H	0.909697	0.548282	0.693621
H63	H	0.988368	0.640018	0.693592
H64	H	0.910229	0.211445	-0.000025
H65	H	0.964240	0.584140	0.518587
C66	C	0.684581	0.732268	-0.000086
H67	H	0.630928	0.767821	-0.000080
H68	H	0.738792	0.737977	-0.065647
H69	H	0.711742	0.755704	0.065488
H70	H	1.008485	0.555103	0.303873
H71	H	0.866994	0.505228	-0.000058
H72	H	0.790288	0.584207	-0.000078
H73	H	0.481376	0.652906	-0.000092
C74	C	0.400887	0.309838	-0.000039
H75	H	0.368212	0.363157	-0.000049
H76	H	0.367885	0.282304	0.065527
H77	H	0.394924	0.264571	-0.065608
C78	C	0.536755	0.169973	-0.000021
H79	H	0.590403	0.134423	-0.000004
H80	H	0.509588	0.146530	-0.065583
H81	H	0.482546	0.164277	0.065552
H82	H	0.718688	0.159335	-0.000018
