data_functionalizedCrystal
_audit_creation_method	'MofGen! by Chris Wilmer'
_symmetry_space_group_name_H-M	'P1'
_symmetry_Int_Tables_number	1
_symmetry_cell_setting	triclinic
loop_
_symmetry_equiv_pos_as_xyz
  x,y,z
_cell_length_a	10.686220
_cell_length_b	10.686685
_cell_length_c	11.169409
_cell_angle_alpha	85.655528
_cell_angle_beta	85.651653
_cell_angle_gamma	89.688259
loop_
_atom_site_label
_atom_site_type_symbol
_atom_site_fract_x
_atom_site_fract_y
_atom_site_fract_z
Zn1	Zn	1.956151	-0.351966	0.561788
Zn2	Zn	2.456151	0.148034	1.061788
Zn3	Zn	1.972122	-0.561767	0.375266
Zn4	Zn	2.472122	-0.061767	0.875266
Zn5	Zn	1.746374	-0.368150	0.377582
Zn6	Zn	2.246374	0.131850	0.877582
Zn7	Zn	1.762455	-0.577763	0.592349
Zn8	Zn	2.262455	-0.077763	1.092349
O9	O	1.859276	-0.464911	0.476746
O10	O	2.359276	0.035089	0.976746
O11	O	2.133808	-0.366330	0.523286
O12	O	2.633808	0.133670	1.023286
O13	O	1.942131	-0.536162	0.207632
O14	O	2.442131	-0.036162	0.707632
O15	O	1.760787	-0.190477	0.390197
O16	O	2.260787	0.309523	0.890197
O17	O	2.145543	-0.520469	0.386249
O18	O	2.645543	-0.020469	0.886249
O19	O	1.914909	-0.178587	0.525532
O20	O	2.414909	0.321413	1.025532
O21	O	1.776274	-0.393912	0.209334
O22	O	2.276274	0.106088	0.709334
O23	O	1.572968	-0.409423	0.419830
O24	O	2.072968	0.090577	0.919830
O25	O	1.788195	-0.547732	0.756235
O26	O	2.288195	-0.047732	1.256235
O27	O	1.584783	-0.563424	0.577619
O28	O	2.084783	-0.063424	1.077619
O29	O	1.930503	-0.381840	0.733783
O30	O	2.430503	0.118160	1.233783
O31	O	1.957724	-0.739415	0.415883
O32	O	2.457724	-0.239415	0.915883
O33	O	1.803683	-0.751167	0.575372
O34	O	2.303683	-0.251167	1.075372
C35	C	1.533361	-0.489916	0.502293
C36	C	2.033361	0.010084	1.002293
C37	C	1.393935	-0.500644	0.513252
C38	C	1.893935	-0.000644	1.013252
C39	C	1.884216	-0.790800	0.498716
C40	C	2.384216	-0.290800	0.998716
C41	C	1.895000	-0.930208	0.508146
C42	C	2.395000	-0.430208	1.008146
C43	C	2.186463	-0.439810	0.451100
C44	C	2.686463	0.060190	0.951100
C45	C	2.325891	-0.429113	0.440172
C46	C	2.825891	0.070887	0.940172
C47	C	1.859361	-0.464765	0.789772
C48	C	2.359361	0.035235	1.289772
C49	C	1.859398	-0.464702	0.923165
C50	C	2.359398	0.035298	1.423165
C51	C	1.834272	-0.137747	0.454714
C52	C	2.334272	0.362253	0.954714
C53	C	1.823618	0.001671	0.445325
C54	C	2.323618	0.501671	0.945325
C55	C	1.859256	-0.464962	0.164927
C56	C	2.359256	0.035038	0.664927
C57	C	1.859435	-0.464652	0.031491
C58	C	2.359435	0.035348	0.531491
H59	H	1.345520	-0.570102	0.584203
H60	H	1.845520	-0.070102	1.084203
H61	H	1.754255	-0.949995	0.384324
H62	H	2.254255	-0.449995	0.884324
O63	O	1.389999	-0.337109	0.346188
O64	O	1.889999	0.162891	0.846188
H65	H	1.493121	-0.342826	0.352048
H66	H	1.993121	0.157174	0.852048
O67	O	1.986876	-0.994212	0.588951
O68	O	2.486876	-0.494212	1.088951
H69	H	1.981203	-1.097337	0.583931
H70	H	2.481203	-0.597337	1.083931
