data_functionalizedCrystal
_audit_creation_method	'MofGen! by Chris Wilmer'
_symmetry_space_group_name_H-M	'P1'
_symmetry_Int_Tables_number	1
_symmetry_cell_setting	triclinic
loop_
_symmetry_equiv_pos_as_xyz
  x,y,z
_cell_length_a	14.044191
_cell_length_b	13.330367
_cell_length_c	14.853579
_cell_angle_alpha	90.002677
_cell_angle_beta	91.584210
_cell_angle_gamma	89.987475
loop_
_atom_site_label
_atom_site_type_symbol
_atom_site_fract_x
_atom_site_fract_y
_atom_site_fract_z
O1	O	1.257985	0.083372	-0.217394
O2	O	0.982004	0.083385	-0.209543
O3	O	1.127360	0.083373	-0.082823
O4	O	1.112628	0.083383	-0.344114
O5	O	1.127388	-0.083474	-0.082835
O6	O	0.982031	-0.083463	-0.209555
O7	O	1.258012	-0.083475	-0.217405
Cu8	Cu	1.120024	-0.098703	-0.213481
Cu9	Cu	1.119992	0.098613	-0.213468
O10	O	1.112656	-0.083464	-0.344125
C11	C	0.946699	-0.000037	-0.206115
C12	C	0.841459	-0.000033	-0.195870
C13	C	0.591246	-0.000041	-0.249796
C14	C	0.648776	-0.000042	-0.177156
C15	C	0.755994	-0.000037	-0.187571
C16	C	0.484017	-0.000046	-0.239383
C17	C	1.126704	-0.000050	-0.049187
C18	C	1.124698	-0.000047	0.051055
C19	C	1.293317	-0.000051	-0.220834
C20	C	1.398557	-0.000050	-0.231078
N21	N	1.119970	0.237394	-0.213452
N22	N	1.120054	-0.237485	-0.213490
C23	C	1.055557	0.710022	-0.269465
C24	C	1.184532	0.709980	-0.157508
C25	C	1.184517	0.604962	-0.157500
C26	C	1.120021	0.552469	-0.213475
C27	C	1.055539	0.604994	-0.269457
C28	C	1.248992	0.552428	-0.101513
C29	C	1.248979	0.447404	-0.101502
C30	C	1.184486	0.394909	-0.157482
C31	C	1.120003	0.447441	-0.213467
C32	C	1.055506	0.394948	-0.269442
C33	C	0.991026	0.447477	-0.325432
C34	C	0.991046	0.552499	-0.325437
C35	C	1.184466	0.289887	-0.157477
C36	C	1.055488	0.289919	-0.269434
C37	C	1.123739	0.090906	0.098150
C38	C	1.123780	-0.090997	0.098151
C39	C	1.121900	-0.090998	0.192334
C40	C	1.120941	-0.000045	0.239429
C41	C	1.121862	0.090908	0.192342
C42	C	1.120988	-0.181949	0.239428
C43	C	1.119109	-0.181954	0.333617
C44	C	1.118143	-0.091000	0.380714
C45	C	1.119063	-0.000043	0.333621
C46	C	1.118104	0.090910	0.380717
C47	C	1.119018	0.181868	0.333625
C48	C	1.120896	0.181862	0.239439
C49	C	1.116265	-0.090994	0.474900
C50	C	1.116227	0.090912	0.474909
C51	C	1.113309	-0.000041	0.622239
C52	C	1.115306	-0.000041	0.521996
H53	H	0.938509	0.404726	-0.371003
H54	H	1.118242	0.255921	0.371983
H55	H	1.236961	0.247122	-0.111887
H56	H	1.003061	0.752794	-0.315054
C57	C	0.602834	0.085750	-0.391197
C58	C	0.633451	-0.000024	-0.344306
H59	H	0.628894	0.085757	-0.449543
H60	H	0.623568	0.143918	-0.359357
H61	H	0.535272	0.085735	-0.396503
H62	H	0.701013	-0.000005	-0.338994
H63	H	0.612721	-0.058207	-0.376153
C64	C	1.202990	-0.337021	0.214002
C65	C	1.122013	-0.281929	0.187674
H66	H	1.203613	-0.398747	0.182047
H67	H	1.201747	-0.350022	0.276830
H68	H	1.258527	-0.299662	0.200968
H69	H	1.066475	-0.319285	0.200714
H70	H	1.123248	-0.268931	0.124832
C71	C	0.933795	0.713507	-0.375142
C72	C	0.920164	0.610242	-0.386966
H73	H	0.890029	0.749155	-0.413121
H74	H	0.997032	0.730688	-0.390180
H75	H	0.923552	0.730713	-0.314106
H76	H	0.930415	0.593034	-0.448000
H77	H	0.856912	0.593054	-0.371934
C78	C	0.550368	0.085742	-0.072235
C79	C	0.606574	-0.000032	-0.082639
H80	H	0.524318	0.085753	-0.013884
H81	H	0.500185	0.085728	-0.116434
H82	H	0.588491	0.143916	-0.079316
H83	H	0.568449	-0.058207	-0.075564
H84	H	0.656764	-0.000027	-0.038427
C85	C	1.032659	0.196433	0.577256
C86	C	1.115167	0.190889	0.526678
H87	H	1.032002	0.258157	0.609212
H88	H	1.031856	0.142272	0.618775
H89	H	0.978161	0.192647	0.538077
H90	H	1.169665	0.194668	0.565858
H91	H	1.115978	0.245066	0.485154
C92	C	1.240348	0.742441	-0.006044
C93	C	1.255421	0.767737	-0.096027
H94	H	1.284112	0.778124	0.031898
H95	H	1.249608	0.672396	0.002010
H96	H	1.177102	0.759665	0.008989
H97	H	1.318665	0.750506	-0.111061
H98	H	1.246168	0.837797	-0.104085
H99	H	1.121643	0.255915	0.201089
H100	H	1.118365	-0.256017	0.371951
H101	H	1.002970	0.247186	-0.315019
C102	C	1.304871	0.585073	0.049923
C103	C	1.319881	0.610265	-0.040094
H104	H	1.348635	0.620828	0.087808
H105	H	1.314175	0.515044	0.058044
H106	H	1.241625	0.602278	0.064969
H107	H	1.383125	0.593053	-0.055142
H108	H	1.310585	0.680310	-0.048219
C109	C	1.116502	-0.270796	0.465436
C110	C	1.115259	-0.190965	0.526663
H111	H	1.115874	-0.332516	0.497393
H112	H	1.172469	-0.267010	0.431132
H113	H	1.061994	-0.267011	0.426268
H114	H	1.169771	-0.194746	0.565827
H115	H	1.059286	-0.194753	0.560982
H116	H	1.124479	0.164962	0.059804
H117	H	1.301482	0.404640	-0.055913
H118	H	1.124568	-0.165047	0.059800
