data_functionalizedCrystal
_audit_creation_method	'MofGen! by Chris Wilmer'
_symmetry_space_group_name_H-M	'P1'
_symmetry_Int_Tables_number	1
_symmetry_cell_setting	triclinic
loop_
_symmetry_equiv_pos_as_xyz
  x,y,z
_cell_length_a	21.295418
_cell_length_b	19.077068
_cell_length_c	19.077271
_cell_angle_alpha	90.123862
_cell_angle_beta	92.263831
_cell_angle_gamma	87.656381
loop_
_atom_site_label
_atom_site_type_symbol
_atom_site_fract_x
_atom_site_fract_y
_atom_site_fract_z
Zn1	Zn	0.938165	0.263493	-0.408879
Zn2	Zn	0.937747	0.385726	-0.296085
Zn3	Zn	0.836953	0.268268	-0.291349
Zn4	Zn	0.828474	0.381002	-0.413513
O5	O	0.885335	0.324622	-0.352457
O6	O	1.026198	0.279686	-0.393960
O7	O	0.927749	0.374120	-0.197127
O8	O	0.854102	0.169300	-0.303019
O9	O	1.025891	0.369490	-0.311091
O10	O	0.928462	0.165791	-0.389367
O11	O	0.853696	0.287824	-0.193647
O12	O	0.747739	0.283244	-0.307512
O13	O	0.839652	0.361439	-0.511228
O14	O	0.741510	0.366069	-0.397264
O15	O	0.920241	0.275105	-0.507824
O16	O	0.919528	0.483434	-0.315584
O17	O	0.839246	0.479964	-0.401857
C18	C	0.721784	0.324662	-0.352377
C19	C	0.651816	0.324696	-0.352361
C20	C	0.878438	0.507195	-0.359752
C21	C	0.875544	0.585300	-0.362897
C22	C	0.879047	0.317213	-0.535735
C23	C	0.876368	0.314055	-0.613837
C24	C	0.615722	0.367885	-0.399030
C25	C	0.549979	0.367867	-0.399061
C26	C	0.520332	0.324667	-0.352410
C27	C	0.556434	0.281469	-0.305737
C28	C	0.622176	0.281483	-0.305712
N29	N	0.419388	0.321646	-0.290731
N30	N	0.356936	0.321636	-0.290756
C31	C	0.322257	0.324619	-0.352483
N32	N	0.352389	0.327625	-0.414185
N33	N	0.414846	0.327639	-0.414158
C34	C	0.449047	0.324646	-0.352432
C35	C	0.214877	0.367790	-0.399190
C36	C	0.149133	0.367767	-0.399222
C37	C	0.155590	0.281373	-0.305891
C38	C	0.221332	0.281392	-0.305866
C39	C	0.250972	0.324605	-0.352514
C40	C	1.049523	0.324582	-0.352537
C41	C	1.119491	0.324565	-0.352571
C42	C	0.892275	0.141336	-0.345148
C43	C	0.895232	0.063230	-0.342033
C44	C	0.916013	0.623776	-0.319494
C45	C	0.913295	0.697163	-0.322456
C46	C	0.870105	0.732073	-0.368818
C47	C	0.829634	0.693592	-0.412225
C48	C	0.832356	0.620206	-0.409267
C49	C	0.857483	0.951363	-0.382483
C50	C	0.854763	1.024754	-0.385437
C51	C	0.938426	1.028320	-0.295667
C52	C	0.941141	0.954932	-0.292710
C53	C	0.900672	0.916457	-0.336120
N54	N	0.867324	0.807087	-0.371845
N55	N	0.903456	0.841445	-0.333096
C56	C	0.857150	0.291464	-1.053277
C57	C	0.859670	0.294429	-0.979892
C58	C	0.899482	0.340844	-0.945010
C59	C	0.936781	0.384293	-0.983517
C60	C	0.934263	0.381325	-1.056901
C61	C	0.911149	0.354536	-0.725729
C62	C	0.913662	0.357502	-0.652340
C63	C	0.836552	0.267637	-0.648719
C64	C	0.834035	0.264676	-0.722105
C65	C	0.871336	0.308122	-0.760606
N66	N	0.902058	0.343877	-0.869998
N67	N	0.868763	0.305085	-0.835616
C68	C	0.891636	0.331952	-0.169889
C69	C	0.894444	0.334912	-0.091779
H70	H	0.520586	0.403036	-0.437068
O71	O	0.647685	0.414486	-0.449351
H72	H	0.677328	0.451475	-0.419261
O73	O	0.788700	0.578710	-0.456079
H74	H	0.816861	0.543784	-0.490525
O75	O	0.974487	0.428193	-1.098426
H76	H	1.006564	0.395385	-1.130616
H77	H	0.532292	0.246293	-0.267755
H78	H	0.651563	0.246311	-0.267708
O79	O	0.246853	0.414385	-0.449508
H80	H	0.210707	0.444406	-0.481976
H81	H	0.119746	0.402935	-0.437230
H82	H	0.829300	0.259050	-0.948546
O83	O	0.814220	0.241391	-1.090899
H84	H	0.779848	0.271486	-1.125573
H85	H	0.969200	0.422082	-0.955111
H86	H	0.806185	0.232264	-0.617364
O87	O	0.123625	0.234782	-0.255567
H88	H	0.071846	0.242032	-0.263419
H89	H	0.824531	0.920042	-0.417828
O90	O	0.982079	1.069810	-0.248850
H91	H	1.031581	1.055157	-0.260403
H92	H	0.250720	0.246226	-0.267859
H93	H	0.801613	0.226882	-0.750500
O94	O	0.951375	0.401409	-0.767238
H95	H	0.983459	0.368610	-0.799429
H96	H	0.951181	0.595357	-0.281738
H97	H	0.946249	0.728487	-0.287112
H98	H	0.976310	0.926510	-0.254958
H99	H	0.946097	0.395287	-0.623941
H100	H	0.819599	1.053175	-0.423202
H101	H	0.794470	0.722022	-0.449977
