data_functionalizedCrystal
_audit_creation_method	'MofGen! by Chris Wilmer'
_symmetry_space_group_name_H-M	'P1'
_symmetry_Int_Tables_number	1
_symmetry_cell_setting	triclinic
loop_
_symmetry_equiv_pos_as_xyz
  x,y,z
_cell_length_a	19.121112
_cell_length_b	19.120786
_cell_length_c	19.805399
_cell_angle_alpha	92.468930
_cell_angle_beta	92.456608
_cell_angle_gamma	89.915581
loop_
_atom_site_label
_atom_site_type_symbol
_atom_site_fract_x
_atom_site_fract_y
_atom_site_fract_z
Zn1	Zn	1.059854	-0.324937	0.412841
Zn2	Zn	1.054766	-0.442178	0.294621
Zn3	Zn	0.942618	-0.319946	0.295060
Zn4	Zn	0.937583	-0.437133	0.403167
O5	O	0.998705	-0.381048	0.351422
O6	O	1.157284	-0.344689	0.401024
O7	O	1.039868	-0.425987	0.199961
O8	O	0.962406	-0.222499	0.314917
O9	O	1.153546	-0.430826	0.314168
O10	O	1.048539	-0.226165	0.401450
O11	O	0.957473	-0.336183	0.200284
O12	O	0.843845	-0.331291	0.305536
O13	O	0.953825	-0.422227	0.499168
O14	O	0.840146	-0.417388	0.384961
O15	O	1.043657	-0.339797	0.506276
O16	O	1.034985	-0.539618	0.304787
O17	O	0.948892	-0.535912	0.384535
C18	C	0.816558	-0.373251	0.344247
C19	C	0.738634	-0.369933	0.341193
C20	C	0.298008	-0.348878	0.321850
C21	C	0.371226	-0.352000	0.324723
C22	C	0.405922	-0.398461	0.367439
C23	C	0.367396	-0.441797	0.407289
C24	C	0.294180	-0.438671	0.404419
C25	C	0.626892	-0.410143	0.378173
C26	C	0.700114	-0.413267	0.381038
C27	C	0.703938	-0.323469	0.298473
C28	C	0.630720	-0.320350	0.295604
C29	C	0.592201	-0.363683	0.335457
C30	C	0.480762	-0.401655	0.370375
C31	C	0.517362	-0.360485	0.332523
C32	C	0.990859	-0.563204	0.343579
C33	C	0.987566	-0.641134	0.340249
C34	C	1.030831	-0.679593	0.383771
C35	C	1.027734	-0.752816	0.380643
C36	C	0.981376	-0.787579	0.333989
C37	C	0.938107	-0.749115	0.290465
C38	C	0.941201	-0.675893	0.293597
C39	C	0.969791	-1.008570	0.322281
C40	C	0.966702	-1.081797	0.319151
C41	C	1.056329	-1.085492	0.409331
C42	C	1.059421	-1.012269	0.412455
C43	C	1.016149	-0.973811	0.368934
C44	C	0.978212	-0.862425	0.330789
C45	C	1.019311	-0.898967	0.372137
C46	C	1.181564	-0.388877	0.358626
C47	C	1.259487	-0.392212	0.361695
C48	C	0.998747	-0.381006	0.527968
C49	C	0.998764	-0.380988	0.603202
C50	C	1.006602	-0.198182	0.359311
C51	C	1.009966	-0.120256	0.362673
C52	C	0.998707	-0.381042	0.175567
C53	C	0.998834	-0.380868	0.100347
C54	C	1.045541	-0.338064	0.642248
C55	C	1.045549	-0.338044	0.712938
C56	C	0.998783	-0.380952	0.744580
C57	C	0.952002	-0.423878	0.705528
C58	C	0.951991	-0.423893	0.634840
C59	C	0.952044	-0.423814	0.990606
C60	C	0.952060	-0.423796	1.061300
C61	C	1.045602	-0.337965	1.068704
C62	C	1.045591	-0.337981	0.998016
C63	C	0.998807	-0.380903	0.958970
C64	C	0.998798	-0.380923	0.882321
C65	C	0.998795	-0.380936	0.821228
H66	H	0.602476	-0.282521	0.260815
H67	H	1.097169	-0.983966	0.450445
H68	H	0.735309	-0.288188	0.266028
H69	H	0.402586	-0.316715	0.292273
H70	H	1.062970	-0.784126	0.416079
O71	O	0.260586	-0.298764	0.275780
H72	H	0.299676	-0.269150	0.248561
H73	H	0.728361	-0.451102	0.415826
H74	H	1.091557	-1.116812	0.444764
O75	O	1.095987	-0.291787	0.608126
H76	H	1.088129	-0.299013	0.552412
O77	O	0.901528	-0.470181	0.592726
H78	H	0.911171	-0.525721	0.604384
O79	O	0.916695	-1.119296	0.268834
H80	H	0.887119	-1.080253	0.239101
O81	O	0.901608	-0.470070	1.095427
H82	H	0.931446	-0.507084	1.127326
O83	O	0.923132	-0.967102	0.275326
H84	H	0.867506	-0.978852	0.284110
H85	H	0.900359	-0.777425	0.252481
O86	O	0.585344	-0.457021	0.421010
H87	H	0.621770	-0.489908	0.451137
O88	O	0.901555	-0.470154	0.739651
H89	H	0.909424	-0.462937	0.795365
O90	O	0.894544	-0.634407	0.246650
H91	H	0.861794	-0.670881	0.213676
O92	O	1.069318	-0.861478	0.422451
H93	H	1.039334	-0.826776	0.457052
H94	H	1.083675	-0.303043	0.972257
O95	O	0.404813	-0.491894	0.453380
H96	H	0.462197	-0.486787	0.448683
O97	O	0.252625	-0.485454	0.447349
H98	H	0.289049	-0.518307	0.477514
O99	O	0.928228	-0.899928	0.280459
H100	H	0.891135	-0.931784	0.307887
O101	O	1.096004	-0.291753	0.755055
H102	H	1.128528	-0.261927	0.721176
H103	H	1.083693	-0.303013	1.100503
O104	O	0.901590	-0.470095	0.948481
H105	H	0.867281	-0.437175	0.916235
H106	H	0.509019	-0.439485	0.405152
O107	O	0.479936	-0.310391	0.286442
H108	H	0.448114	-0.273343	0.317013
H109	H	1.068583	-0.651294	0.421759
