data_functionalizedCrystal
_audit_creation_method	'MofGen! by Chris Wilmer'
_symmetry_space_group_name_H-M	'P1'
_symmetry_Int_Tables_number	1
_symmetry_cell_setting	triclinic
loop_
_symmetry_equiv_pos_as_xyz
  x,y,z
_cell_length_a	17.699077
_cell_length_b	15.500227
_cell_length_c	17.019370
_cell_angle_alpha	83.303218
_cell_angle_beta	83.337776
_cell_angle_gamma	92.838078
loop_
_atom_site_label
_atom_site_type_symbol
_atom_site_fract_x
_atom_site_fract_y
_atom_site_fract_z
O1	O	1.007319	0.064751	0.096429
O2	O	0.786901	0.063785	0.109461
O3	O	0.903678	0.072848	-0.012335
O4	O	0.890542	0.055689	0.218225
O5	O	0.896592	-0.071589	-0.004973
O6	O	0.779815	-0.080651	0.116823
O7	O	1.000233	-0.079685	0.103791
Cu8	Cu	0.889377	-0.093356	0.110979
Cu9	Cu	0.897757	0.077456	0.102273
O10	O	0.883456	-0.088747	0.225587
C11	C	0.755163	-0.008398	0.112676
C12	C	0.671148	-0.008292	0.111278
C13	C	0.627820	-0.086976	0.114632
C14	C	0.548882	-0.086879	0.113305
C15	C	0.513272	-0.008096	0.108630
C16	C	0.556606	0.070594	0.105273
C17	C	0.635544	0.070496	0.106594
C18	C	0.238259	0.070993	0.099944
C19	C	0.159315	0.071085	0.098626
C20	C	0.151596	-0.086382	0.106655
C21	C	0.230534	-0.086480	0.107976
C22	C	0.273862	-0.007790	0.104615
C23	C	0.359457	-0.007897	0.106052
C24	C	0.427678	-0.007989	0.107198
N25	N	0.883488	-0.213497	0.117102
C26	C	0.932988	-0.254935	0.065512
C27	C	0.928541	-0.345853	0.070150
C28	C	0.874598	-0.395331	0.126383
C29	C	0.825093	-0.353887	0.177976
C30	C	0.829537	-0.262971	0.173333
C31	C	0.858591	-0.670042	0.143094
C32	C	0.854152	-0.760965	0.147734
C33	C	0.957600	-0.752924	0.039907
C34	C	0.962042	-0.662006	0.035272
C35	C	0.912534	-0.620570	0.086862
C36	C	0.870053	-0.488264	0.131127
C37	C	0.917076	-0.527638	0.082114
C38	C	1.031972	-0.007500	0.100576
C39	C	1.115986	-0.007600	0.101974
C40	C	0.899777	0.002827	-0.038154
C41	C	0.898699	0.009374	-0.126054
N42	N	0.903652	0.197597	0.096143
C43	C	0.894329	-0.066279	-0.163344
C44	C	0.893322	-0.060119	-0.245937
C45	C	0.896680	0.021693	-0.291237
C46	C	0.901053	0.097352	-0.253942
C47	C	0.902065	0.091191	-0.171352
C48	C	0.893821	0.044232	-0.540808
C49	C	0.892806	0.050387	-0.623404
C50	C	0.885076	-0.107085	-0.615393
C51	C	0.886084	-0.113238	-0.532801
C52	C	0.890461	-0.037580	-0.495513
C53	C	0.895648	0.027991	-0.375660
C54	C	0.891498	-0.043879	-0.411093
C55	C	0.887357	-0.018725	0.251406
C56	C	0.888435	-0.025266	0.339306
H57	H	0.273527	0.135067	0.097205
H58	H	0.897383	0.105839	-0.510459
H59	H	0.891582	-0.132900	-0.126464
O60	O	0.772657	-0.402038	0.232496
C61	C	0.723588	-0.451479	0.192835
H62	H	0.753363	-0.460484	0.131528
H63	H	0.708335	-0.517872	0.229166
H64	H	0.669390	-0.416063	0.185741
H65	H	0.997905	-0.786670	-0.002096
O66	O	0.889037	-0.133696	-0.282029
C67	C	0.886304	-0.207226	-0.224337
H68	H	0.864195	-0.188778	-0.163314
H69	H	0.846561	-0.260889	-0.240302
H70	H	0.945943	-0.231469	-0.222744
H71	H	0.883366	-0.179859	-0.495924
H72	H	0.881513	-0.168682	-0.645761
H73	H	1.005966	-0.621722	-0.010517
O74	O	0.801674	-0.808897	0.202377
C75	C	0.758939	-0.752830	0.246926
H76	H	0.761411	-0.685608	0.211157
H77	H	0.697156	-0.780020	0.260414
H78	H	0.783691	-0.747527	0.305231
H79	H	0.895533	0.117012	-0.660285
H80	H	0.130324	0.135243	0.094818
H81	H	0.903792	0.163965	-0.290833
O82	O	0.817690	-0.536239	0.185857
C83	C	0.830715	-0.519866	0.263095
H84	H	0.863115	-0.453839	0.259594
H85	H	0.773790	-0.519675	0.302008
H86	H	0.865769	-0.572844	0.290141
O87	O	0.521892	0.147045	0.100768
C88	C	0.442930	0.130262	0.100303
H89	H	0.425577	0.060745	0.128632
H90	H	0.410408	0.177725	0.135667
H91	H	0.428956	0.138747	0.036238
O92	O	0.506695	-0.163261	0.116659
C93	C	0.451906	-0.173029	0.184690
H94	H	0.440468	-0.106356	0.203866
H95	H	0.396765	-0.205127	0.170031
H96	H	0.474180	-0.215502	0.235183
H97	H	0.905625	0.152796	-0.140992
O98	O	0.888101	-0.123329	-0.367036
C99	C	0.822914	-0.132251	-0.309915
H100	H	0.778990	-0.086186	-0.330728
H101	H	0.797499	-0.202181	-0.302371
H102	H	0.839542	-0.115602	-0.250457
H103	H	0.259523	-0.150634	0.111787
O104	O	0.810440	-0.629747	0.193104
C105	C	0.766530	-0.574003	0.148084
H106	H	0.764200	-0.596761	0.087037
H107	H	0.706274	-0.575390	0.180428
H108	H	0.793606	-0.504784	0.140381
O109	O	0.899011	0.107492	-0.419632
C110	C	0.967133	0.154608	-0.410973
H111	H	1.010998	0.107346	-0.392312
H112	H	0.990191	0.194628	-0.470152
H113	H	0.955296	0.199950	-0.363455
O114	O	0.662392	-0.163519	0.119032
C115	C	0.649637	-0.206299	0.052608
H116	H	0.636418	-0.156636	0.001984
H117	H	0.702785	-0.240366	0.032285
H118	H	0.599396	-0.256488	0.069840
O119	O	0.109493	-0.162791	0.109767
C120	C	0.072490	-0.162342	0.040700
H121	H	0.104691	-0.114126	-0.009094
H122	H	0.071171	-0.230266	0.021226
H123	H	0.011688	-0.142271	0.054116
O124	O	0.677517	0.147005	0.103371
C125	C	0.629165	0.216564	0.098944
H126	H	0.568509	0.191687	0.124237
H127	H	0.649684	0.268741	0.134948
H128	H	0.630202	0.245511	0.034069
H129	H	0.968847	-0.379591	0.028140
O130	O	0.985274	-0.206794	0.010818
C131	C	0.947515	-0.150633	-0.040671
H132	H	0.888824	-0.139357	-0.009721
H133	H	0.982289	-0.085764	-0.056557
H134	H	0.940900	-0.181363	-0.097371
O135	O	0.781420	-0.222855	0.223534
C136	C	0.732843	-0.286019	0.274150
H137	H	0.760701	-0.350883	0.278314
H138	H	0.722277	-0.264450	0.336061
H139	H	0.676271	-0.293798	0.249007
H140	H	0.960994	-0.487350	0.036326
