data_functionalizedCrystal
_audit_creation_method	'MofGen! by Chris Wilmer'
_symmetry_space_group_name_H-M	'P1'
_symmetry_Int_Tables_number	1
_symmetry_cell_setting	triclinic
loop_
_symmetry_equiv_pos_as_xyz
  x,y,z
_cell_length_a	10.654554
_cell_length_b	10.654551
_cell_length_c	11.892095
_cell_angle_alpha	93.929772
_cell_angle_beta	86.062985
_cell_angle_gamma	84.486102
loop_
_atom_site_label
_atom_site_type_symbol
_atom_site_fract_x
_atom_site_fract_y
_atom_site_fract_z
O1	O	1.675798	0.168468	-0.094001
O2	O	1.310321	0.185268	-0.094001
O3	O	1.501462	-0.005871	-0.094002
O4	O	1.484657	0.359607	-0.094000
O5	O	1.485525	0.010041	0.094006
O6	O	1.294384	0.201180	0.094006
O7	O	1.659861	0.184380	0.094007
Zn8	Zn	1.474592	0.195306	0.123857
Zn9	Zn	1.495590	0.174342	-0.123851
O10	O	1.468720	0.375519	0.094007
C11	C	1.255554	0.191989	0.000002
C12	C	1.116111	0.188295	0.000002
C13	C	1.492259	-0.044713	-0.000000
C14	C	1.488568	-0.184157	-0.000008
C15	C	0.933550	0.068808	-0.000008
C16	C	1.064571	0.072279	0.000000
C17	C	1.036622	0.300848	0.000007
C18	C	0.905603	0.297377	0.000007
C19	C	0.882018	-0.047217	-0.000021
C20	C	0.961498	-0.159771	-0.000024
C21	C	1.092519	-0.156300	-0.000016
C22	C	1.144060	-0.040275	-0.000005
C23	C	1.495523	-0.258343	-0.102489
C24	C	1.492042	-0.389363	-0.102484
C25	C	1.474656	-0.372000	0.102492
C26	C	1.478128	-0.240981	0.102486
C27	C	1.505963	-0.201518	-0.204983
C28	C	1.512920	-0.275705	-0.307472
C29	C	1.509439	-0.406725	-0.307467
C30	C	1.499001	-0.463558	-0.204973
C31	C	1.714628	0.177659	0.000001
C32	C	1.854071	0.181352	-0.000006
C33	C	1.477923	0.414361	0.000003
C34	C	1.481615	0.553804	0.000004
N35	N	1.460271	0.209614	0.292911
N36	N	1.509921	0.160025	-0.292905
C37	C	1.609575	0.060396	0.529558
C38	C	1.599574	0.070406	0.647900
C39	C	1.430261	0.239636	0.647939
C40	C	1.440263	0.229627	0.529597
C41	C	1.529924	0.140005	0.470411
C42	C	1.539931	0.130002	0.352067
C43	C	1.370613	0.299225	0.352107
C44	C	1.360611	0.309235	0.470449
H45	H	0.775336	-0.050056	-0.000031
H46	H	1.078598	0.395311	0.000015
Cl47	Cl	0.805680	0.438865	0.000019
Cl48	Cl	1.270483	0.399316	0.277739
H49	H	1.508801	-0.094837	-0.204999
H50	H	0.919525	-0.254235	-0.000043
H51	H	1.682589	-0.012569	0.481368
Cl52	Cl	1.192432	-0.297792	-0.000005
Cl53	Cl	1.461539	-0.443450	0.231333
Cl54	Cl	1.526038	-0.204259	-0.436314
Cl55	Cl	1.652649	0.017339	0.277664
Cl56	Cl	1.518171	-0.499983	-0.436308
Cl57	Cl	1.308768	-0.035909	0.000084
H58	H	1.664433	0.005579	0.696055
H59	H	1.496149	-0.570242	-0.204977
Cl60	Cl	1.317538	0.352284	0.722355
Cl61	Cl	1.469392	-0.147714	0.231322
Cl62	Cl	1.247897	0.421894	0.544862
