data_functionalizedCrystal
_audit_creation_method	'MofGen! by Chris Wilmer'
_symmetry_space_group_name_H-M	'P1'
_symmetry_Int_Tables_number	1
_symmetry_cell_setting	triclinic
loop_
_symmetry_equiv_pos_as_xyz
  x,y,z
_cell_length_a	19.188905
_cell_length_b	15.944551
_cell_length_c	14.421503
_cell_angle_alpha	90.003340
_cell_angle_beta	90.014725
_cell_angle_gamma	96.683353
loop_
_atom_site_label
_atom_site_type_symbol
_atom_site_fract_x
_atom_site_fract_y
_atom_site_fract_z
O1	O	0.926431	-0.104754	0.077266
O2	O	0.723154	-0.118893	0.077235
O3	O	0.830343	0.010473	0.077243
O4	O	0.819241	-0.234120	0.077258
O5	O	0.830326	0.010453	-0.076980
O6	O	0.723136	-0.118912	-0.076988
O7	O	0.926413	-0.104773	-0.076957
Cu8	Cu	0.824773	-0.111845	-0.091055
Cu9	Cu	0.824794	-0.111822	0.091333
O10	O	0.819224	-0.234139	-0.076965
C11	C	0.697132	-0.118448	0.000119
C12	C	0.619623	-0.117084	0.000107
C13	C	0.583240	-0.116419	0.084177
C14	C	0.510413	-0.115128	0.084188
C15	C	0.473974	-0.114486	0.000125
C16	C	0.510366	-0.115156	-0.083956
C17	C	0.583191	-0.116455	-0.083965
N18	N	0.364818	-0.064653	-0.062438
N19	N	0.295638	-0.063417	-0.062424
C20	C	0.254557	-0.110573	0.000147
N21	N	0.285272	-0.159000	0.062717
N22	N	0.354459	-0.160233	0.062706
C23	C	0.395008	-0.113077	0.000126
C24	C	0.139206	-0.108508	0.084235
C25	C	0.066377	-0.107223	0.084243
C26	C	0.066333	-0.107243	-0.083903
C27	C	0.139160	-0.108537	-0.083909
C28	C	0.175592	-0.109166	0.000163
C29	C	0.829874	0.041755	0.000131
C30	C	0.828492	0.134996	0.000131
C31	C	0.952435	-0.105218	0.000161
C32	C	1.029944	-0.106582	0.000179
C33	C	0.819693	-0.265422	0.000149
C34	C	0.821075	-0.358662	0.000156
N35	N	0.824763	-0.111860	-0.219336
C36	C	0.758748	0.349584	0.000133
C37	C	0.791126	0.410717	-0.075904
C38	C	0.825992	0.305712	0.000137
C39	C	0.791159	0.410719	0.076148
C40	C	0.823573	0.470616	0.000148
C41	C	0.858389	0.365617	-0.075962
C42	C	0.858413	0.365613	0.076159
C43	C	0.890840	0.426728	0.000104
C44	C	0.827384	0.210715	0.000130
C45	C	0.822186	0.565611	0.000148
C46	C	0.775190	-0.171652	-0.468993
C47	C	0.838281	-0.187716	-0.530785
C48	C	0.824780	-0.111840	-0.408497
C49	C	0.761706	-0.095795	-0.530799
C50	C	0.824791	-0.111822	-0.591219
C51	C	0.887903	-0.127942	-0.468928
C52	C	0.811287	-0.035988	-0.468937
C53	C	0.874423	-0.052020	-0.530701
C54	C	0.824773	-0.111852	-0.303236
C55	C	0.824806	-0.111809	-0.696478
N56	N	0.824809	-0.111800	0.219614
H57	H	0.036754	-0.106686	0.152705
C58	C	0.623221	-0.117179	-0.176445
C59	C	0.681215	-0.045149	-0.199569
C60	C	0.721248	-0.045869	-0.292050
C61	C	0.703288	-0.118620	-0.361405
C62	C	0.645291	-0.190656	-0.338283
C63	C	0.605258	-0.189935	-0.245803
H64	H	0.694513	0.008710	-0.148226
H65	H	0.764181	0.007457	-0.309166
H66	H	0.732923	-0.119153	-0.429865
H67	H	0.631993	-0.244515	-0.389626
H68	H	0.562325	-0.243261	-0.228686
C69	C	0.752697	0.437733	-0.162755
C70	C	0.675384	0.403239	-0.179472
C71	C	0.636950	0.430252	-0.266318
C72	C	0.675828	0.491758	-0.336448
C73	C	0.753145	0.526255	-0.319733
C74	C	0.791579	0.499242	-0.232887
H75	H	0.646600	0.357706	-0.127556
H76	H	0.579714	0.404715	-0.278691
H77	H	0.647377	0.511754	-0.400737
H78	H	0.781929	0.571788	-0.371649
H79	H	0.848815	0.524779	-0.220513
H80	H	0.612899	-0.116931	0.152634
H81	H	0.849704	-0.251855	-0.557951
C82	C	0.470381	-0.114389	0.176671
C83	C	0.412384	-0.186410	0.199814
C84	C	0.372356	-0.185669	0.292296
C85	C	0.390326	-0.112908	0.361637
C86	C	0.448326	-0.040882	0.338496
C87	C	0.488354	-0.041622	0.246013
H88	H	0.399080	-0.240277	0.148482
H89	H	0.329421	-0.238988	0.309426
H90	H	0.360695	-0.112359	0.430098
H91	H	0.461631	0.012986	0.389827
H92	H	0.531289	0.011697	0.228883
H93	H	0.168784	-0.109073	-0.152367
C94	C	0.683348	0.304290	0.000024
C95	C	0.620486	0.356159	-0.000892
C96	C	0.545088	0.310864	-0.001005
C97	C	0.532553	0.213700	-0.000204
C98	C	0.595417	0.161825	0.000712
C99	C	0.670814	0.207121	0.000826
H100	H	0.629764	0.428091	-0.001485
H101	H	0.498552	0.349265	-0.001683
H102	H	0.476739	0.180170	-0.000288
H103	H	0.586139	0.089894	0.001306
H104	H	0.717350	0.168719	0.001504
H105	H	0.886799	0.345727	-0.140315
C106	C	0.931140	0.016324	-0.567088
C107	C	0.910220	0.088580	-0.628144
C108	C	0.966939	0.156919	-0.664536
C109	C	1.044578	0.153001	-0.639870
C110	C	1.065503	0.080742	-0.578811
C111	C	1.008784	0.012404	-0.542420
H112	H	0.852743	0.091483	-0.646406
H113	H	0.951449	0.210410	-0.709736
H114	H	1.086565	0.203590	-0.666809
H115	H	1.122980	0.077840	-0.560549
H116	H	1.024274	-0.041087	-0.497219
C117	C	0.959985	-0.146373	-0.432377
C118	C	0.973290	-0.149824	-0.327214
C119	C	1.045370	-0.168258	-0.290662
C120	C	1.104145	-0.183239	-0.359272
C121	C	1.090843	-0.179788	-0.464442
C122	C	1.018763	-0.161355	-0.500994
H123	H	0.929779	-0.138733	-0.276419
H124	H	1.055217	-0.170812	-0.212808
H125	H	1.157503	-0.196885	-0.332214
H126	H	1.134354	-0.190879	-0.515237
H127	H	1.008916	-0.158800	-0.578848
H128	H	0.946704	0.460101	0.000069
C129	C	0.896813	0.338566	0.163013
C130	C	0.868596	0.356046	0.260216
C131	C	0.906990	0.328996	0.347080
C132	C	0.973600	0.284467	0.336740
C133	C	1.001820	0.266985	0.239533
C134	C	0.963427	0.294035	0.152670
H135	H	0.819284	0.389011	0.267874
H136	H	0.886099	0.341937	0.419039
H137	H	1.002021	0.264443	0.401042
H138	H	1.051132	0.234020	0.231876
H139	H	0.984317	0.281093	0.080711
C140	C	0.752736	0.437720	0.162989
C141	C	0.675428	0.403213	0.179660
C142	C	0.636999	0.430210	0.266495
C143	C	0.675879	0.491714	0.336660
C144	C	0.753191	0.526225	0.319991
C145	C	0.791620	0.499228	0.233156
H146	H	0.646643	0.357680	0.127718
H147	H	0.579767	0.404662	0.278834
H148	H	0.647431	0.511699	0.400941
H149	H	0.781976	0.571757	0.371933
H150	H	0.848852	0.524775	0.220817
H151	H	0.733296	-0.222273	-0.441899
H152	H	0.480693	-0.114635	-0.152400
C153	C	0.795830	0.050630	-0.432197
C154	C	0.726042	0.084264	-0.456566
C155	C	0.710576	0.170881	-0.419823
C156	C	0.764898	0.223864	-0.358712
C157	C	0.834690	0.190230	-0.334341
C158	C	0.850157	0.103613	-0.371083
H159	H	0.685826	0.045043	-0.501807
H160	H	0.658910	0.195779	-0.437865
H161	H	0.753449	0.287983	-0.331513
H162	H	0.874907	0.229451	-0.289100
H163	H	0.901822	0.078715	-0.353042
C164	C	0.179287	-0.109211	0.176709
C165	C	0.139260	-0.108492	0.269189
C166	C	0.179338	-0.109195	0.361664
C167	C	0.259443	-0.110616	0.361659
C168	C	0.299474	-0.111335	0.269175
C169	C	0.259396	-0.110632	0.176701
H170	H	0.079957	-0.107440	0.269196
H171	H	0.149704	-0.108663	0.430126
H172	H	0.289111	-0.111136	0.430114
H173	H	0.358777	-0.112387	0.269168
H174	H	0.289031	-0.111164	0.108239
H175	H	0.036665	-0.106725	-0.152349
H176	H	0.708361	-0.082232	-0.557979
