data_functionalizedCrystal
_audit_creation_method	'MofGen! by Chris Wilmer'
_symmetry_space_group_name_H-M	'P1'
_symmetry_Int_Tables_number	1
_symmetry_cell_setting	triclinic
loop_
_symmetry_equiv_pos_as_xyz
  x,y,z
_cell_length_a	19.288864
_cell_length_b	10.654550
_cell_length_c	17.766277
_cell_angle_alpha	89.994852
_cell_angle_beta	89.976791
_cell_angle_gamma	83.810575
loop_
_atom_site_label
_atom_site_type_symbol
_atom_site_fract_x
_atom_site_fract_y
_atom_site_fract_z
O1	O	0.922379	0.156657	-0.062834
O2	O	0.720257	0.177789	-0.062782
O3	O	0.825965	-0.015616	-0.062807
O4	O	0.816670	0.350062	-0.062810
O5	O	0.825946	-0.015625	0.062382
O6	O	0.720238	0.177780	0.062406
O7	O	0.922360	0.156647	0.062355
Cu8	Cu	0.821297	0.167212	0.073811
Cu9	Cu	0.821319	0.167224	-0.074239
O10	O	0.816652	0.350052	0.062379
C11	C	0.694366	0.177105	-0.000181
C12	C	0.617249	0.175063	-0.000162
C13	C	0.573296	0.288545	-0.000175
C14	C	0.500836	0.286627	-0.000183
C15	C	0.472333	0.171222	-0.000193
C16	C	0.516296	0.057725	-0.000176
C17	C	0.588754	0.059646	-0.000160
C18	C	0.363484	0.080503	-0.044077
C19	C	0.291027	0.078587	-0.044098
C20	C	0.248849	0.165292	-0.000239
C21	C	0.279135	0.253934	0.043630
C22	C	0.351593	0.255855	0.043646
C23	C	0.393766	0.169126	-0.000210
C24	C	0.126326	0.276702	-0.000260
C25	C	0.053865	0.274779	-0.000263
C26	C	0.069327	0.045875	-0.000264
C27	C	0.141786	0.047800	-0.000253
C28	C	0.170281	0.163217	-0.000254
C29	C	0.825273	-0.062404	-0.000213
C30	C	0.823231	-0.201803	-0.000215
C31	C	0.885471	-0.282621	-0.000229
C32	C	0.883548	-0.413601	-0.000234
C33	C	0.757141	-0.382932	-0.000208
C34	C	0.759065	-0.251955	-0.000208
C35	C	0.958451	-0.300329	-0.000240
C36	C	0.956528	-0.431309	-0.000245
C37	C	0.948250	0.157332	-0.000248
C38	C	1.025367	0.159373	-0.000273
C39	C	0.817344	0.396840	-0.000216
C40	C	0.819385	0.536240	-0.000219
N41	N	0.821287	0.167203	0.177941
N42	N	0.821335	0.167223	-0.178369
C43	C	0.868110	0.081606	0.217318
C44	C	0.868114	0.081600	0.296119
C45	C	0.821301	0.167213	0.335542
C46	C	0.774469	0.252818	0.296156
C47	C	0.774462	0.252813	0.217356
C48	C	0.812752	0.281634	0.460380
C49	C	0.812764	0.281641	0.539179
C50	C	0.821320	0.167229	0.578588
C51	C	0.829879	0.052804	0.539189
C52	C	0.829871	0.052799	0.460389
C53	C	0.821304	0.167228	0.420988
C54	C	0.868150	0.081617	0.703410
C55	C	0.868149	0.081610	0.782214
C56	C	0.774508	0.252839	0.782249
C57	C	0.774506	0.252835	0.703447
C58	C	0.821330	0.167226	0.664033
H59	H	0.149528	0.370681	-0.000250
H60	H	0.836838	-0.040369	0.428313
C61	C	0.686562	-0.438097	-0.000200
H62	H	0.649770	-0.371202	-0.000198
H63	H	0.683172	-0.488566	0.043453
H64	H	0.683196	-0.488541	-0.043865
C65	C	0.997021	-0.261472	-0.071016
H66	H	0.998331	-0.172592	-0.071008
H67	H	0.973258	-0.285419	-0.114675
H68	H	1.043277	-0.302421	-0.071019
C69	C	0.384911	0.353342	0.091902
H70	H	0.434104	0.342069	0.085624
H71	H	0.373755	0.341988	0.143366
H72	H	0.367436	0.436119	0.076476
C73	C	0.722979	0.346994	0.339518
H74	H	0.729694	0.334747	0.392088
H75	H	0.676559	0.333570	0.326633
H76	H	0.730926	0.430774	0.326590
C77	C	0.257714	-0.018904	-0.092354
H78	H	0.208520	-0.007619	-0.086092
H79	H	0.275188	-0.101675	-0.076931
H80	H	0.268875	-0.007543	-0.143821
C81	C	0.989839	-0.252869	0.072768
H82	H	1.002489	-0.322370	0.105278
H83	H	0.956359	-0.194547	0.097036
H84	H	1.030044	-0.212427	0.061027
H85	H	0.805799	0.374812	0.571252
C86	C	0.005516	0.399616	-0.000278
H87	H	0.032867	0.468623	-0.000283
H88	H	-0.023095	0.403630	0.043373
H89	H	-0.023047	0.403618	-0.043945
H90	H	0.805772	0.374809	0.428300
C91	C	0.232749	0.349322	0.091873
H92	H	0.185259	0.335479	0.085587
H93	H	0.239022	0.432719	0.076450
H94	H	0.245342	0.338597	0.143346
C95	C	0.037982	-0.081069	-0.000281
H96	H	-0.011467	-0.065962	-0.000297
H97	H	0.053009	-0.127791	0.043375
H98	H	0.053057	-0.127766	-0.043942
C99	C	0.452479	0.411461	-0.000208
H100	H	0.479828	0.480472	-0.000213
H101	H	0.423862	0.415480	0.043437
H102	H	0.423923	0.415451	-0.043881
C103	C	0.839295	-0.073059	0.582524
H104	H	0.844397	-0.141201	0.547774
H105	H	0.799581	-0.079853	0.613287
H106	H	0.879732	-0.075777	0.613241
H107	H	0.906275	0.011905	0.671318
C108	C	0.919631	-0.012527	0.173962
H109	H	0.912932	-0.000256	0.121391
H110	H	0.911713	-0.096321	0.186876
H111	H	0.966043	0.000953	0.186863
C112	C	0.919659	-0.012551	0.825528
H113	H	0.947547	-0.063524	0.790765
H114	H	0.894432	-0.064718	0.856286
H115	H	0.948787	0.032509	0.856248
H116	H	0.177574	-0.044609	-0.000247
C117	C	0.409872	-0.014869	-0.092331
H118	H	0.381458	-0.067918	-0.118470
H119	H	0.441550	-0.064833	-0.060713
H120	H	0.435220	0.029319	-0.127593
C121	C	0.986679	-0.493694	-0.073098
H122	H	1.001392	-0.430830	-0.105561
H123	H	0.951950	-0.535658	-0.097560
H124	H	1.025409	-0.553096	-0.061066
H125	H	0.736332	0.322518	0.185295
H126	H	0.736390	0.322542	0.814346
H127	H	0.984018	-0.473662	0.052138
H128	H	0.906244	0.011893	0.328185
H129	H	0.493084	-0.036239	-0.000195
C130	C	0.690604	-0.163053	-0.000208
H131	H	0.700937	-0.077865	-0.000218
H132	H	0.664302	-0.178216	0.043448
H133	H	0.664338	-0.178222	-0.043870
C134	C	0.723007	0.347008	0.660131
H135	H	0.695131	0.398004	0.694894
H136	H	0.693876	0.301969	0.629409
H137	H	0.748245	0.399171	0.629376
H138	H	0.624542	-0.032767	-0.000150
C139	C	0.604637	0.415498	-0.000162
H140	H	0.568078	0.482809	-0.000163
H141	H	0.632609	0.421017	-0.043809
H142	H	0.632553	0.420997	0.043509
