data_functionalizedCrystal
_audit_creation_method	'MofGen! by Chris Wilmer'
_symmetry_space_group_name_H-M	'P1'
_symmetry_Int_Tables_number	1
_symmetry_cell_setting	triclinic
loop_
_symmetry_equiv_pos_as_xyz
  x,y,z
_cell_length_a	13.635800
_cell_length_b	20.659701
_cell_length_c	20.659169
_cell_angle_alpha	80.554139
_cell_angle_beta	121.789830
_cell_angle_gamma	121.792495
loop_
_atom_site_label
_atom_site_type_symbol
_atom_site_fract_x
_atom_site_fract_y
_atom_site_fract_z
V1	V	2.181721	0.237866	0.106123
O2	O	2.119008	0.233013	-0.004369
O3	O	2.207557	0.236552	0.209721
O4	O	2.207567	0.341465	0.104811
O5	O	2.118997	0.127373	0.101267
V6	V	2.410566	0.224612	0.092869
O7	O	2.340682	0.266939	0.135196
O8	O	2.476704	0.195539	0.063795
O9	O	2.273127	0.225926	-0.010730
O10	O	2.531978	0.229465	0.203360
O11	O	2.531989	0.335105	0.097724
O12	O	2.273117	0.121013	0.094181
V13	V	2.681721	0.237866	0.106123
O14	O	2.619008	0.233013	-0.004369
O15	O	2.707557	0.236552	0.209721
O16	O	2.707567	0.341465	0.104811
O17	O	2.618997	0.127373	0.101267
V18	V	2.910566	0.224612	0.092869
O19	O	2.840682	0.266939	0.135196
O20	O	2.976704	0.195539	0.063795
O21	O	2.773127	0.225926	-0.010730
O22	O	3.031978	0.229465	0.203360
O23	O	3.031989	0.335105	0.097724
O24	O	2.773117	0.121013	0.094181
C25	C	2.140610	0.232880	0.234966
C26	C	2.202711	0.232496	0.319661
C27	C	2.140622	0.366706	0.101141
C28	C	2.202728	0.451401	0.100754
C29	C	2.172179	0.162512	0.348362
C30	C	2.230541	0.162154	0.427942
C31	C	2.319427	0.231780	0.478820
C32	C	2.349962	0.301770	0.450115
C33	C	2.291608	0.302127	0.370536
C34	C	2.585299	0.300329	0.771048
C35	C	2.643650	0.299966	0.850632
C36	C	2.524233	0.160356	0.828455
C37	C	2.465879	0.160713	0.748876
C38	C	2.496424	0.230702	0.720177
C39	C	2.433143	0.231090	0.633887
C40	C	2.382700	0.231393	0.565109
C41	C	2.326734	0.495083	0.104390
C42	C	2.385082	0.574663	0.104026
C43	C	2.319426	0.610559	0.100031
C44	C	2.195406	0.566870	0.096393
C45	C	2.137056	0.487291	0.096752
C46	C	2.430725	0.887802	0.094945
C47	C	2.489089	0.967387	0.094588
C48	C	2.678751	0.975173	0.102219
C49	C	2.620400	0.895594	0.102578
C50	C	2.496383	0.851912	0.098935
C51	C	2.433115	0.765623	0.099329
C52	C	2.382696	0.696847	0.099643
C53	C	2.675211	1.095767	0.097848
C54	C	2.613092	1.011070	0.098219
C55	C	2.171746	0.229596	-0.035971
C56	C	2.099267	0.229985	-0.120665
C57	C	1.995779	0.160357	-0.171535
C58	C	1.927652	0.160712	-0.251115
C59	C	1.963022	0.230695	-0.279824
C60	C	2.066518	0.300328	-0.228947
C61	C	2.134636	0.299973	-0.149368
C62	C	2.675228	0.229595	0.964029
C63	C	2.613126	0.229981	0.879335
C64	C	2.171732	0.095768	0.097852
C65	C	2.099244	0.011073	0.098235
C66	C	2.640610	0.232880	0.234966
C67	C	2.702711	0.232496	0.319661
C68	C	2.640622	0.366706	0.101141
C69	C	2.702728	0.451401	0.100754
C70	C	1.982656	-0.024817	0.102223
C71	C	1.914523	-0.104399	0.102575
C72	C	1.962986	-0.148088	0.098943
C73	C	2.079582	-0.112193	0.094952
C74	C	2.147707	-0.032614	0.094596
C75	C	2.826716	0.236134	0.363331
C76	C	2.885091	0.235785	0.442913
C77	C	2.819453	0.231792	0.478823
C78	C	2.695438	0.228156	0.435148
C79	C	2.637071	0.228511	0.355568
C80	C	2.826728	0.495069	0.104383
C81	C	2.885088	0.574648	0.104009
C82	C	2.819451	0.610557	0.100012
C83	C	2.695437	0.566883	0.096381
C84	C	2.637074	0.487305	0.096750
H85	H	2.099796	0.105814	0.306941
C86	C	2.490652	0.083368	0.860026
H87	H	2.538146	0.093124	0.914707
H88	H	2.395893	0.052304	0.839942
H89	H	2.517228	0.057188	0.844913
C90	C	3.021491	0.239774	0.490940
H91	H	3.052202	0.242188	0.458149
H92	H	3.086413	0.284451	0.529237
H93	H	3.009995	0.195131	0.515052
C94	C	2.883668	0.231400	0.566359
H95	H	2.966917	0.234132	0.587218
H96	H	2.900050	0.274566	0.590025
H97	H	2.823657	0.185247	0.575837
C98	C	2.416911	1.006881	0.090251
H99	H	2.334703	0.969470	0.088145
H100	H	2.473974	1.044836	0.134631
H101	H	2.397524	1.030694	0.045309
H102	H	2.779735	1.010749	0.105182
C103	C	2.500690	0.439277	0.092777
H104	H	2.475318	0.386739	0.093568
H105	H	2.509517	0.457833	0.135811
H106	H	2.433086	0.443623	0.046492
H107	H	2.673873	0.866373	0.105835
H108	H	2.141949	0.596102	0.093136
C109	C	2.196944	0.085171	0.459510
H110	H	2.135635	0.043755	0.417810
H111	H	2.277883	0.084562	0.492580
H112	H	2.156557	0.079695	0.487603
H113	H	2.716030	0.356668	0.892057
C114	C	2.500653	0.224495	0.307537
H115	H	2.469925	0.222058	0.340325
H116	H	2.512112	0.269127	0.283416
H117	H	2.435748	0.179809	0.269245
H118	H	1.966960	0.103367	-0.148172
H119	H	2.316484	0.359116	0.347170
H120	H	2.329774	0.852249	0.092006
C121	C	3.021503	0.622680	0.108011
H122	H	3.046865	0.675217	0.107211
H123	H	3.089088	0.618329	0.154298
H124	H	3.012702	0.604131	0.064980
C125	C	2.883658	0.698092	0.099609
H126	H	2.826808	0.713229	0.096704
H127	H	2.970080	0.724623	0.145590
H128	H	2.893677	0.710425	0.056272
C129	C	2.623246	0.223758	0.474655
H130	H	2.675770	0.224058	0.528302
H131	H	2.612902	0.266901	0.467116
H132	H	2.536526	0.177583	0.452927
H133	H	1.943176	0.010744	0.105180
H134	H	1.907510	-0.212884	0.099243
C135	C	2.618889	0.377313	0.739489
H136	H	2.680170	0.418726	0.781189
H137	H	2.659276	0.382800	0.711395
H138	H	2.537935	0.377913	0.706419
H139	H	2.393500	0.104016	0.707453
C140	C	2.105424	0.377303	-0.260532
H141	H	2.176811	0.418727	-0.218842
H142	H	2.134524	0.377894	-0.293608
H143	H	2.028937	0.382783	-0.288625
H144	H	2.642007	0.596133	0.093128
C145	C	2.447732	0.378357	0.506078
H146	H	2.478103	0.368122	0.557584
H147	H	2.523367	0.409540	0.500082
H148	H	2.402024	0.404655	0.495100
H149	H	2.880194	0.465843	0.107639
C150	C	2.000652	0.439238	0.092755
H151	H	1.975296	0.386702	0.093533
H152	H	2.009436	0.457769	0.135784
H153	H	1.933056	0.443586	0.046466
C154	C	2.521483	0.622710	0.108022
H155	H	2.552234	0.589935	0.110460
H156	H	2.509992	0.646819	0.063381
H157	H	2.586387	0.661011	0.152700
H158	H	2.380211	0.465863	0.107648
C159	C	2.898933	0.240530	0.323841
H160	H	2.846419	0.240215	0.270189
H161	H	2.985652	0.286697	0.345575
H162	H	2.909268	0.197379	0.331391
C163	C	1.813833	0.084112	-0.307066
H164	H	1.802550	0.042386	-0.278567
H165	H	1.731566	0.083774	-0.336083
H166	H	1.837186	0.078915	-0.341060
C167	C	2.248486	0.376567	-0.093419
H168	H	2.259795	0.418291	-0.121921
H169	H	2.225172	0.381782	-0.059416
H170	H	2.330742	0.376887	-0.064414
C171	C	1.786287	-0.143867	0.106975
H172	H	1.767205	-0.106443	0.109101
H173	H	1.711854	-0.181839	0.062618
H174	H	1.800708	-0.167654	0.151936
H175	H	1.907541	0.230973	-0.344624
H176	H	2.119024	-0.147777	0.091993
C177	C	2.275963	0.006862	0.090219
H178	H	2.309603	0.060514	0.090523
H179	H	2.343108	-0.000696	0.133370
H180	H	2.254291	-0.014875	0.044051
