data_functionalizedCrystal
_audit_creation_method	'MofGen! by Chris Wilmer'
_symmetry_space_group_name_H-M	'P1'
_symmetry_Int_Tables_number	1
_symmetry_cell_setting	triclinic
loop_
_symmetry_equiv_pos_as_xyz
  x,y,z
_cell_length_a	14.519709
_cell_length_b	12.837942
_cell_length_c	11.892314
_cell_angle_alpha	93.956320
_cell_angle_beta	85.645655
_cell_angle_gamma	90.745457
loop_
_atom_site_label
_atom_site_type_symbol
_atom_site_fract_x
_atom_site_fract_y
_atom_site_fract_z
O1	O	1.229845	-0.129989	0.093852
O2	O	0.962749	-0.145992	0.093886
O3	O	1.090375	0.012923	0.093863
O4	O	1.102219	-0.288904	0.093875
O5	O	1.101914	0.001070	-0.094139
O6	O	0.974288	-0.157845	-0.094116
O7	O	1.241384	-0.141842	-0.094150
Zn8	Zn	1.109668	-0.151726	-0.123982
Zn9	Zn	1.094465	-0.136108	0.123718
O10	O	1.113758	-0.300757	-0.094127
C11	C	0.934094	-0.151172	-0.000110
C12	C	0.831519	-0.148936	-0.000097
C13	C	1.092143	0.045625	-0.000137
C14	C	1.080208	0.160724	-0.000134
N15	N	1.120050	-0.162383	-0.293032
C16	C	0.455915	-0.140711	-0.000149
C17	C	0.560420	-0.142995	-0.000134
C18	C	0.643714	-0.144823	-0.000122
C19	C	0.748225	-0.147108	-0.000110
C20	C	1.270039	-0.136661	-0.000151
C21	C	1.372614	-0.138897	-0.000157
C22	C	1.111990	-0.333458	-0.000124
C23	C	1.123924	-0.448557	-0.000120
C24	C	1.223679	0.401417	-0.000129
C25	C	1.212470	0.509564	-0.000125
C26	C	1.046581	0.485167	-0.000116
C27	C	1.057791	0.377020	-0.000119
C28	C	1.146342	0.335149	-0.000127
C29	C	1.157551	0.227000	-0.000139
C30	C	0.991663	0.202606	-0.000121
C31	C	0.980454	0.310753	-0.000118
C32	C	1.192445	-0.236589	-0.470534
C33	C	1.185158	-0.229134	-0.352195
C34	C	1.062224	-0.103085	-0.352215
C35	C	1.069511	-0.110539	-0.470553
C36	C	1.134625	-0.177292	-0.529709
C37	C	1.141916	-0.184741	-0.648049
C38	C	1.018978	-0.058697	-0.648067
C39	C	1.011691	-0.051243	-0.529728
N40	N	1.084089	-0.125442	0.292768
H41	H	1.295781	0.367324	-0.000146
H42	H	0.928691	0.148638	-0.000129
O43	O	1.255791	-0.301272	-0.528056
C44	C	1.389051	-0.315979	-0.661698
C45	C	1.317381	-0.242606	-0.596608
H46	H	1.438853	-0.268581	-0.717156
H47	H	1.429201	-0.357058	-0.599128
H48	H	1.352108	-0.376640	-0.717060
H49	H	1.354250	-0.181887	-0.541245
H50	H	1.277234	-0.201604	-0.659239
O51	O	1.243559	0.186262	-0.000342
C52	C	1.358460	0.072143	-0.097704
C53	C	1.261045	0.118213	-0.097634
H54	H	1.372620	0.017099	-0.176344
H55	H	1.411852	0.138043	-0.097772
H56	H	1.362999	0.027124	-0.018991
H57	H	1.256415	0.163221	-0.176334
H58	H	1.207698	0.052266	-0.097507
H59	H	0.958675	0.003103	-0.481548
H60	H	1.009207	-0.048743	-0.304030
O61	O	1.241425	-0.286772	-0.294887
C62	C	1.364089	-0.412631	-0.307361
C63	C	1.300438	-0.347393	-0.372402
H64	H	1.411803	-0.461676	-0.370003
H65	H	1.407209	-0.358324	-0.251980
H66	H	1.320324	-0.466244	-0.251935
H67	H	1.344132	-0.293773	-0.427890
H68	H	1.257314	-0.401760	-0.427711
H69	H	0.974486	0.519279	-0.000097
O70	O	1.287696	0.573785	-0.000179
C71	C	1.453413	0.586570	-0.000118
C72	C	1.368297	0.513719	-0.000086
H73	H	1.518598	0.538038	-0.000018
H74	H	1.457213	0.632836	-0.078813
H75	H	1.447427	0.642787	0.078544
H76	H	1.374224	0.457440	-0.078694
H77	H	1.364525	0.467528	0.078662
O78	O	0.894508	0.351600	-0.000163
C79	C	0.803715	0.507397	-0.000088
C80	C	0.901103	0.461279	-0.000058
H81	H	0.809012	0.596079	0.000021
H82	H	0.769835	0.475238	-0.078787
H83	H	0.760189	0.485008	0.078570
H84	H	0.944703	0.483650	-0.078663
H85	H	0.934910	0.493436	0.078693
H86	H	1.194936	-0.239092	-0.696212
H87	H	0.971895	-0.010414	-0.696259
