data_functionalizedCrystal
_audit_creation_method	'MofGen! by Chris Wilmer'
_symmetry_space_group_name_H-M	'P1'
_symmetry_Int_Tables_number	1
_symmetry_cell_setting	triclinic
loop_
_symmetry_equiv_pos_as_xyz
  x,y,z
_cell_length_a	6.817900
_cell_length_b	7.190410
_cell_length_c	25.583790
_cell_angle_alpha	98.540754
_cell_angle_beta	86.316962
_cell_angle_gamma	119.389325
loop_
_atom_site_label
_atom_site_type_symbol
_atom_site_fract_x
_atom_site_fract_y
_atom_site_fract_z
V1	V	3.923763	0.287265	0.162665
O2	O	3.823117	-0.021878	0.159953
O3	O	3.962658	0.577363	0.161183
O4	O	3.790898	0.279304	0.233778
O5	O	3.996067	0.278245	0.086856
V6	V	4.407024	0.250706	0.153643
O7	O	4.185596	0.367459	0.182457
O8	O	4.595389	0.170512	0.133851
O9	O	4.144922	-0.039391	0.155125
O10	O	4.625067	0.559849	0.156355
O11	O	4.452118	0.259727	0.229452
O12	O	4.316683	0.258668	0.082530
C13	C	3.946277	0.889786	0.157779
C14	C	3.831622	0.648187	0.158521
C15	C	3.612530	0.267986	0.251123
C16	C	3.585760	0.263397	0.309255
C17	C	3.899795	0.275770	0.423791
C18	C	3.874652	0.271458	0.478411
C19	C	3.510324	0.250447	0.473118
C20	C	3.535467	0.254759	0.418497
C21	C	3.730211	0.267423	0.393836
C22	C	3.755360	0.271750	0.339214
C23	C	3.391026	0.250724	0.333921
C24	C	3.365883	0.246412	0.388542
C25	C	4.158398	0.269992	0.065183
C26	C	4.164404	0.274571	0.007050
C27	C	3.653144	0.254201	0.561209
C28	C	3.679923	0.258801	0.503077
C29	C	3.830524	0.304160	-0.096895
C30	C	3.836160	0.308464	-0.151516
C31	C	4.181300	0.287468	-0.156814
C32	C	4.175665	0.283164	-0.102194
C33	C	4.000272	0.291514	-0.072236
C34	C	3.994647	0.287225	-0.017613
C35	C	4.339777	0.266214	-0.022913
C36	C	4.345412	0.270518	-0.077534
V37	V	3.882703	0.266119	0.657533
O38	O	4.075059	0.580549	0.661575
O39	O	3.640758	-0.035686	0.656065
O40	O	3.813273	0.262400	0.583478
O41	O	3.901350	0.280400	0.734666
V42	V	4.414548	0.361218	0.681320
O43	O	4.095244	0.213278	0.644642
O44	O	4.671712	0.467108	0.707591
O45	O	4.423614	0.636722	0.676154
O46	O	4.344675	0.060622	0.680767
O47	O	4.518385	0.360771	0.607677
O48	O	4.251099	0.338636	0.748742
C49	C	4.059978	0.307158	0.761007
C50	C	4.011543	0.300122	0.818523
C51	C	4.280051	0.687406	0.668417
C52	C	4.373240	0.926540	0.667042
H53	H	3.913934	0.282071	0.319136
H54	H	3.351765	0.240122	0.493206
H55	H	4.058373	0.286104	0.403712
H56	H	3.252942	0.243936	0.309526
H57	H	3.207324	0.236093	0.408629
H58	H	3.697925	0.318745	-0.171592
H59	H	4.488204	0.263710	-0.101934
H60	H	3.851835	0.294028	0.006778
H61	H	4.324068	0.280625	-0.181217
H62	H	4.012746	0.278256	0.502799
H63	H	3.687721	0.310974	-0.072502
H64	H	4.478006	0.255928	-0.002829
