data_functionalizedCrystal
_audit_creation_method	'MofGen! by Chris Wilmer'
_symmetry_space_group_name_H-M	'P1'
_symmetry_Int_Tables_number	1
_symmetry_cell_setting	triclinic
loop_
_symmetry_equiv_pos_as_xyz
  x,y,z
_cell_length_a	12.837943
_cell_length_b	11.892095
_cell_length_c	12.837942
_cell_angle_alpha	85.697431
_cell_angle_beta	94.828940
_cell_angle_gamma	94.310562
loop_
_atom_site_label
_atom_site_type_symbol
_atom_site_fract_x
_atom_site_fract_y
_atom_site_fract_z
O1	O	1.408367	0.093982	0.266110
O2	O	1.908367	0.593982	0.766110
O3	O	1.105234	0.093989	0.252667
O4	O	1.605234	0.593989	0.752667
O5	O	1.250078	0.093979	0.107822
O6	O	1.750078	0.593979	0.607822
O7	O	1.263522	0.093992	0.410955
O8	O	1.763522	0.593992	0.910955
O9	O	1.237999	-0.094028	0.119879
O10	O	1.737999	0.405972	0.619879
O11	O	1.093155	-0.094018	0.264723
O12	O	1.593155	0.405982	0.764723
O13	O	1.396288	-0.094025	0.278167
O14	O	1.896288	0.405975	0.778167
Zn15	Zn	1.242803	-0.123871	0.273359
Zn16	Zn	1.742803	0.376129	0.773359
Zn17	Zn	1.258718	0.123836	0.257474
Zn18	Zn	1.758718	0.623836	0.757474
O19	O	1.251443	-0.094014	0.423011
O20	O	1.751443	0.405986	0.923011
C21	C	1.060125	-0.000014	0.254153
C22	C	1.560125	0.499986	0.754153
C23	C	0.943710	-0.000011	0.240609
C24	C	1.443710	0.499989	0.740609
N25	N	1.231950	-0.292925	0.284200
N26	N	1.731950	0.207075	0.784200
C27	C	0.718835	-0.000020	0.403439
C28	C	1.218835	0.499980	0.903439
C29	C	0.609453	-0.000019	0.390717
C30	C	1.109453	0.499981	0.890717
C31	C	0.615561	-0.000015	0.202446
C32	C	1.115561	0.499985	0.702446
C33	C	0.724943	-0.000017	0.215167
C34	C	1.224943	0.499983	0.715167
C35	C	0.776577	-0.000017	0.315667
C36	C	1.276577	0.499983	0.815667
C37	C	0.885961	-0.000011	0.328387
C38	C	1.385961	0.499989	0.828387
C39	C	0.892066	-0.000015	0.140117
C40	C	1.392066	0.499985	0.640117
C41	C	0.782684	-0.000014	0.127395
C42	C	1.282684	0.499986	0.627395
C43	C	1.345098	-0.529580	0.171130
C44	C	1.845098	-0.029580	0.671130
C45	C	1.337519	-0.647922	0.178716
C46	C	1.837519	-0.147922	0.678716
C47	C	1.209210	-0.647951	0.306952
C48	C	1.709210	-0.147951	0.806952
C49	C	1.216788	-0.529610	0.299366
C50	C	1.716788	-0.029610	0.799366
C51	C	1.284736	-0.470428	0.231454
C52	C	1.784736	0.029572	0.731454
C53	C	1.292319	-0.352085	0.223874
C54	C	1.792319	0.147915	0.723874
C55	C	1.164005	-0.352116	0.352104
C56	C	1.664005	0.147884	0.852104
C57	C	1.156426	-0.470458	0.359690
C58	C	1.656426	0.029542	0.859690
C59	C	1.441397	-0.000020	0.276680
C60	C	1.941397	0.499980	0.776680
C61	C	1.557812	-0.000015	0.290224
C62	C	2.057812	0.499985	0.790224
C63	C	1.239497	-0.000024	0.074781
C64	C	1.739497	0.499976	0.574781
C65	C	1.225953	-0.000022	-0.041634
C66	C	1.725953	0.499978	0.458366
N67	N	1.269579	0.292889	0.246626
N68	N	1.769579	0.792889	0.746626
C69	C	1.388784	-0.000002	-0.266509
C70	C	1.888784	0.499998	0.233491
C71	C	1.376062	0.000000	-0.375892
C72	C	1.876062	0.500000	0.124108
C73	C	1.187791	-0.000007	-0.369784
C74	C	1.687791	0.499993	0.130216
C75	C	1.200512	-0.000009	-0.260402
C76	C	1.700512	0.499991	0.239598
C77	C	1.301011	-0.000008	-0.208768
C78	C	1.801011	0.499992	0.291232
C79	C	1.313731	-0.000019	-0.099383
C80	C	1.813731	0.499981	0.400617
C81	C	1.125461	-0.000018	-0.093278
C82	C	1.625461	0.499982	0.406722
C83	C	1.112740	-0.000016	-0.202660
C84	C	1.612740	0.499984	0.297340
C85	C	1.262024	-0.000009	0.456052
C86	C	1.762024	0.499991	0.956052
C87	C	1.275569	-0.000004	0.572467
C88	C	1.775569	0.499996	1.072467
H89	H	0.760876	-0.000019	0.485269
H90	H	1.260876	0.499981	0.985269
H91	H	1.386671	-0.696080	0.129593
H92	H	1.886671	-0.196080	0.629593
N93	N	0.954336	-0.000024	0.045436
N94	N	1.454336	0.499976	0.545436
H95	H	0.941108	0.069670	-0.002398
H96	H	1.441108	0.569670	0.497602
H97	H	1.031442	-0.000067	0.068821
H98	H	1.531442	0.499933	0.568821
N99	N	0.559872	-0.000015	0.094053
N100	N	1.059872	0.499985	0.594053
H101	H	0.575771	-0.069710	0.059583
H102	H	1.075771	0.430290	0.559583
H103	H	0.481834	0.000023	0.099393
H104	H	0.981834	0.500023	0.599393
H105	H	1.153882	-0.696151	0.362237
H106	H	1.653882	-0.196151	0.862237
H107	H	0.740628	-0.000026	0.045572
H108	H	1.240628	0.499974	0.545572
N109	N	0.941649	-0.000005	0.436780
N110	N	1.441649	0.499995	0.936780
H111	H	0.916801	-0.069702	0.480183
H112	H	1.416801	0.430298	0.980183
H113	H	1.019692	0.000041	0.431437
H114	H	1.519692	0.500041	0.931437
H115	H	1.400430	-0.481394	0.115841
H116	H	1.900430	0.018606	0.615841
N117	N	0.547170	-0.000066	0.485387
N118	N	1.047170	0.499934	0.985387
H119	H	0.596481	-0.000080	0.550980
H120	H	1.096481	0.499920	1.050980
H121	H	0.506114	0.069618	0.479770
H122	H	1.006114	0.569618	0.979770
N123	N	1.365604	-0.288249	0.150634
N124	N	1.865604	0.211751	0.650634
H125	H	1.402691	-0.343684	0.113569
H126	H	1.902691	0.156316	0.613569
H127	H	1.324099	-0.239157	0.097229
H128	H	1.824099	0.260843	0.597229
N129	N	1.004349	-0.000013	-0.258353
N130	N	1.504349	0.499987	0.241647
H131	H	1.009607	-0.000010	-0.336409
H132	H	1.509607	0.499990	0.163591
H133	H	0.960996	-0.069715	-0.233436
H134	H	1.460996	0.430285	0.266564
N135	N	1.079404	0.000004	-0.425484
N136	N	1.579404	0.500004	0.074516
H137	H	1.084669	0.000011	-0.503539
H138	H	1.584669	0.500011	-0.003539
H139	H	1.036042	-0.069695	-0.400574
H140	H	1.536042	0.430305	0.099426
N141	N	1.470731	-0.000010	-0.438168
N142	N	1.970731	0.499990	0.061832
H143	H	1.447426	-0.000010	-0.515297
H144	H	1.947426	0.499990	-0.015297
H145	H	1.518539	0.069686	-0.424849
H146	H	2.018539	0.569686	0.075151
H147	H	1.101102	-0.518656	0.414980
H148	H	1.601102	-0.018656	0.914980
H149	H	1.114857	-0.303941	0.401227
H150	H	1.614857	0.196059	0.901227
H151	H	1.395563	-0.000022	-0.057344
H152	H	1.895563	0.499978	0.442656
H153	H	1.470613	-0.000012	-0.224468
H154	H	1.970613	0.499988	0.275532
H155	H	1.053990	-0.000033	-0.046252
H156	H	1.553990	0.499967	0.453748
