data_functionalizedCrystal
_audit_creation_method	'MofGen! by Chris Wilmer'
_symmetry_space_group_name_H-M	'P1'
_symmetry_Int_Tables_number	1
_symmetry_cell_setting	triclinic
loop_
_symmetry_equiv_pos_as_xyz
  x,y,z
_cell_length_a	19.805407
_cell_length_b	12.759394
_cell_length_c	19.805399
_cell_angle_alpha	90.023967
_cell_angle_beta	90.019573
_cell_angle_gamma	90.014837
loop_
_atom_site_label
_atom_site_type_symbol
_atom_site_fract_x
_atom_site_fract_y
_atom_site_fract_z
Zn1	Zn	1.034790	-0.418291	0.382737
Zn2	Zn	1.534790	0.081709	0.882737
Zn3	Zn	1.034728	-0.593984	0.269556
Zn4	Zn	1.534728	-0.093984	0.769556
Zn5	Zn	0.921605	-0.418320	0.269561
Zn6	Zn	1.421605	0.081680	0.769561
Zn7	Zn	0.921591	-0.593928	0.382702
Zn8	Zn	1.421591	-0.093928	0.882702
O9	O	0.978178	-0.506131	0.326139
O10	O	1.478178	-0.006131	0.826139
O11	O	1.129498	-0.441608	0.367735
O12	O	1.629498	0.058392	0.867735
O13	O	1.019701	-0.570717	0.174840
O14	O	1.519701	-0.070717	0.674840
O15	O	0.936651	-0.271295	0.284591
O16	O	1.436651	0.228705	0.784591
O17	O	1.129453	-0.570689	0.284581
O18	O	1.629453	-0.070689	0.784581
O19	O	1.019808	-0.271274	0.367740
O20	O	1.519808	0.228726	0.867740
O21	O	0.936590	-0.441658	0.174844
O22	O	1.436590	0.058342	0.674844
O23	O	0.826886	-0.441603	0.284558
O24	O	1.326886	0.058397	0.784558
O25	O	0.936628	-0.570594	0.477423
O26	O	1.436628	-0.070594	0.977423
O27	O	0.826876	-0.570622	0.367682
O28	O	1.326876	-0.070622	0.867682
O29	O	1.019794	-0.441554	0.477449
O30	O	1.519794	0.058446	0.977449
O31	O	1.019688	-0.740998	0.284548
O32	O	1.519688	-0.240998	0.784548
O33	O	0.936567	-0.740957	0.367676
O34	O	1.436567	-0.240957	0.867676
C35	C	0.802322	-0.506111	0.326117
C36	C	1.302322	-0.006111	0.826117
C37	C	0.727090	-0.506127	0.326124
C38	C	1.227090	-0.006127	0.826124
C39	C	0.691759	-0.573409	0.369336
C40	C	1.191759	-0.073409	0.869336
C41	C	0.621070	-0.573411	0.369346
C42	C	1.121070	-0.073411	0.869346
C43	C	0.585715	-0.506136	0.326139
C44	C	1.085715	-0.006136	0.826139
C45	C	0.621051	-0.438847	0.282924
C46	C	1.121051	0.061153	0.782924
C47	C	0.691739	-0.438841	0.282919
C48	C	1.191739	0.061159	0.782919
C49	C	0.335978	-0.438870	0.282947
C50	C	0.835978	0.061130	0.782947
C51	C	0.265286	-0.438884	0.282954
C52	C	0.765286	0.061116	0.782954
C53	C	0.265310	-0.573440	0.369374
C54	C	0.765310	-0.073440	0.869374
C55	C	0.335997	-0.573434	0.369368
C56	C	0.835997	-0.073434	0.869368
C57	C	0.371327	-0.506142	0.326157
C58	C	0.871327	-0.006142	0.826157
C59	C	0.447976	-0.506139	0.326148
C60	C	0.947976	-0.006139	0.826148
C61	C	0.509068	-0.506143	0.326144
C62	C	1.009068	-0.006143	0.826144
C63	C	0.978138	-0.779098	0.326123
C64	C	1.478138	-0.279098	0.826123
C65	C	0.978182	-0.895875	0.326138
C66	C	1.478182	-0.395875	0.826138
C67	C	1.064801	-0.895864	0.239641
C68	C	1.564801	-0.395864	0.739641
C69	C	1.108128	-0.950720	0.196401
C70	C	1.608128	-0.450720	0.696401
C71	C	1.108168	-1.060441	0.196419
C72	C	1.608168	-0.560441	0.696419
C73	C	1.064877	-1.115310	0.239684
C74	C	1.564877	-0.615310	0.739684
C75	C	1.021550	-1.060455	0.282925
C76	C	1.521550	-0.560455	0.782925
C77	C	1.021514	-0.950730	0.282900
C78	C	1.521514	-0.450730	0.782900
C79	C	0.934936	-1.060465	0.369424
C80	C	1.434936	-0.560465	0.869424
C81	C	0.934892	-0.950744	0.369403
C82	C	1.434892	-0.450744	0.869403
C83	C	0.891645	-1.115334	0.412689
C84	C	1.391645	-0.615334	0.912689
C85	C	0.848314	-1.060478	0.455927
C86	C	1.348314	-0.560478	0.955927
C87	C	0.848275	-0.950750	0.455906
C88	C	1.348275	-0.450750	0.955906
C89	C	0.891565	-0.895888	0.412644
C90	C	1.391565	-0.395888	0.912644
C91	C	1.154721	-0.506152	0.326161
C92	C	1.654721	-0.006152	0.826161
C93	C	1.229953	-0.506161	0.326171
C94	C	1.729953	-0.006161	0.826171
C95	C	0.978216	-0.506065	0.502682
C96	C	1.478216	-0.006065	1.002682
C97	C	0.978233	-0.506036	0.577914
C98	C	1.478233	-0.006036	1.077914
C99	C	0.978238	-0.232097	0.326170
C100	C	1.478238	0.267903	0.826170
C101	C	0.978263	-0.115321	0.326183
C102	C	1.478263	0.384679	0.826183
C103	C	0.978180	-0.506121	0.150283
C104	C	1.478180	-0.006121	0.650283
C105	C	0.978295	-0.505853	0.075051
C106	C	1.478295	-0.005853	0.575051
C107	C	1.021539	-0.438842	0.613272
C108	C	1.521539	0.061158	1.113272
C109	C	1.021545	-0.438811	0.683961
C110	C	1.521545	0.061189	1.183961
C111	C	0.978249	-0.505982	0.719289
C112	C	1.478249	-0.005982	1.219289
C113	C	0.934939	-0.573179	0.683926
C114	C	1.434939	-0.073179	1.183926
C115	C	0.934929	-0.573203	0.613239
C116	C	1.434929	-0.073203	1.113239
C117	C	0.934977	-0.573081	0.969000
C118	C	1.434977	-0.073081	1.469000
C119	C	0.934992	-0.573054	1.039692
C120	C	1.434992	-0.073054	1.539692
C121	C	1.021594	-0.438689	1.039721
C122	C	1.521594	0.061311	1.539721
C123	C	1.021584	-0.438713	0.969034
C124	C	1.521584	0.061287	1.469034
C125	C	0.978271	-0.505907	0.933677
C126	C	1.478271	-0.005907	1.433677
C127	C	0.978263	-0.505937	0.857028
C128	C	1.478263	-0.005937	1.357028
C129	C	0.978260	-0.505957	0.795937
C130	C	1.478260	-0.005957	1.295937
H131	H	0.364736	-0.384085	0.247756
H132	H	0.864736	0.115915	0.747756
H133	H	0.720505	-0.384048	0.247734
H134	H	1.220505	0.115952	0.747734
Cl135	Cl	1.075975	-0.354399	0.568866
Cl136	Cl	1.575975	0.145601	1.068866
Cl137	Cl	0.880557	-0.657502	1.084104
Cl138	Cl	1.380557	-0.157502	1.584104
Cl139	Cl	0.793807	-0.881798	0.510273
Cl140	Cl	1.293807	-0.381798	1.010273
H141	H	1.064765	-0.806523	0.239613
H142	H	1.564765	-0.306523	0.739613
H143	H	0.236502	-0.384094	0.247770
H144	H	0.736502	0.115906	0.747770
H145	H	0.364780	-0.628219	0.404550
H146	H	0.864780	-0.128219	0.904550
H147	H	1.143377	-0.906036	0.161176
H148	H	1.643377	-0.406036	0.661176
H149	H	1.056859	-0.383973	1.068518
H150	H	1.556859	0.116027	1.568518
Cl151	Cl	0.891409	-1.253269	0.412426
Cl152	Cl	1.391409	-0.753269	0.912426
Cl153	Cl	0.891717	-0.757952	0.412811
Cl154	Cl	1.391717	-0.257952	0.912811
H155	H	0.592259	-0.384066	0.247747
H156	H	1.092259	0.115934	0.747747
Cl157	Cl	0.736199	-0.657993	0.423654
Cl158	Cl	1.236199	-0.157993	0.923654
Cl159	Cl	1.076020	-0.354381	0.728408
Cl160	Cl	1.576020	0.145619	1.228408
Cl161	Cl	1.162640	-1.129406	0.142063
Cl162	Cl	1.662640	-0.629406	0.642063
Cl163	Cl	0.220890	-0.658037	0.423699
Cl164	Cl	0.720890	-0.158037	0.923699
H165	H	1.064919	-1.204651	0.239701
H166	H	1.564919	-0.704651	0.739701
H167	H	1.056842	-0.384020	0.940273
H168	H	1.556842	0.115980	1.440273
Cl169	Cl	0.880527	-0.657553	0.924560
Cl170	Cl	1.380527	-0.157553	1.424560
H171	H	0.813073	-1.105161	0.491153
H172	H	1.313073	-0.605161	0.991153
H173	H	0.899658	-0.627910	0.584451
H174	H	1.399658	-0.127910	1.084451
Cl175	Cl	0.576656	-0.657997	0.423673
Cl176	Cl	1.076656	-0.157997	0.923673
Cl177	Cl	0.880506	-0.657619	0.728340
Cl178	Cl	1.380506	-0.157619	1.228340
