data_functionalizedCrystal
_audit_creation_method	'MofGen! by Chris Wilmer'
_symmetry_space_group_name_H-M	'P1'
_symmetry_Int_Tables_number	1
_symmetry_cell_setting	triclinic
loop_
_symmetry_equiv_pos_as_xyz
  x,y,z
_cell_length_a	19.121063
_cell_length_b	12.759401
_cell_length_c	12.759393
_cell_angle_alpha	90.020566
_cell_angle_beta	92.404035
_cell_angle_gamma	87.532891
loop_
_atom_site_label
_atom_site_type_symbol
_atom_site_fract_x
_atom_site_fract_y
_atom_site_fract_z
Zn1	Zn	-0.279612	-1.588330	-0.611802
Zn2	Zn	-0.397079	-1.580686	-0.443597
Zn3	Zn	-0.279643	-1.412627	-0.436140
Zn4	Zn	-0.397023	-1.405089	-0.619232
O5	O	-0.338339	-1.496683	-0.527693
O6	O	-0.295205	-1.734336	-0.589501
O7	O	-0.381537	-1.558348	-0.295589
O8	O	-0.181355	-1.442288	-0.453212
O9	O	-0.381507	-1.728720	-0.465921
O10	O	-0.181332	-1.571376	-0.582270
O11	O	-0.295257	-1.434875	-0.290111
O12	O	-0.295203	-1.264606	-0.460417
O13	O	-0.381412	-1.429441	-0.765265
O14	O	-0.381441	-1.259068	-0.594933
O15	O	-0.295151	-1.564067	-0.759807
O16	O	-0.495355	-1.551039	-0.473125
O17	O	-0.495314	-1.422028	-0.602163
C18	C	-0.338320	-1.223717	-0.527673
C19	C	-0.338329	-1.106939	-0.527690
C20	C	-0.293471	-1.054997	-0.592146
C21	C	-0.293475	-0.945273	-0.592151
C22	C	-0.383201	-0.939442	-0.463243
C23	C	-0.383193	-1.049165	-0.463232
C24	C	-0.520819	-1.484915	-0.539283
C25	C	-0.598884	-1.479976	-0.544276
C26	C	-0.635558	-1.544877	-0.479494
C27	C	-0.708909	-1.540239	-0.484197
C28	C	-0.745585	-1.470694	-0.553676
C29	C	-0.708906	-1.405790	-0.618465
C30	C	-0.635557	-1.410434	-0.613767
C31	C	-0.967053	-1.453313	-0.571224
C32	C	-1.040408	-1.448671	-0.575914
C33	C	-1.040405	-1.583122	-0.441647
C34	C	-0.967054	-1.587755	-0.436951
C35	C	-0.930382	-1.522856	-0.501743
C36	C	-0.820561	-1.465949	-0.558482
C37	C	-0.855407	-1.527607	-0.496942
C38	C	-0.155147	-1.508525	-0.516081
C39	C	-0.077081	-1.513572	-0.511132
C40	C	-0.338272	-1.496766	-0.801722
C41	C	-0.338243	-1.496801	-0.918497
C42	C	-0.338352	-0.770715	-0.527710
C43	C	-0.338341	-0.887492	-0.527706
C44	C	-0.293320	-1.566906	-0.970518
C45	C	-0.293289	-1.566926	-1.080240
C46	C	-0.383112	-1.426732	-1.085911
C47	C	-0.383138	-1.426708	-0.976191
C48	C	-0.338355	-1.496664	-0.254727
C49	C	-0.338186	-1.496845	-0.137940
H50	H	-0.605701	-1.601504	-0.422912
H51	H	-0.256707	-1.624011	-1.122590
H52	H	-0.419665	-1.369666	-1.132899
H53	H	-0.738774	-1.349169	-0.675041
O54	O	-0.431580	-1.351058	-0.920086
H55	H	-0.486705	-1.365494	-0.944624
O56	O	-0.245075	-1.117317	-0.661648
H57	H	-0.213877	-1.062760	-0.706459
H58	H	-0.738765	-1.593087	-0.431444
O59	O	-0.927496	-1.662774	-0.362022
H60	H	-0.965321	-1.707135	-0.317772
O61	O	-0.431590	-0.877128	-0.393724
H62	H	-0.467370	-0.824865	-0.442933
O63	O	-1.079956	-1.653149	-0.371795
H64	H	-1.137123	-1.638254	-0.386745
H65	H	-0.605698	-1.357586	-0.666521
O66	O	-0.244893	-1.642500	-0.908295
H67	H	-0.276345	-1.693918	-0.860317
O68	O	-0.245095	-0.889245	-0.661673
H69	H	-0.213902	-0.947857	-0.706493
H70	H	-1.070267	-1.392052	-0.632511
O71	O	-0.431574	-1.105201	-0.393706
H72	H	-0.462779	-1.046594	-0.348896
O73	O	-0.927503	-1.383285	-0.641071
H74	H	-0.965331	-1.334130	-0.690153
H75	H	-0.825543	-1.584235	-0.440376
O76	O	-0.860126	-1.390923	-0.633397
H77	H	-0.893498	-1.435799	-0.689023
