data_functionalizedCrystal
_audit_creation_method	'MofGen! by Chris Wilmer'
_symmetry_space_group_name_H-M	'P1'
_symmetry_Int_Tables_number	1
_symmetry_cell_setting	triclinic
loop_
_symmetry_equiv_pos_as_xyz
  x,y,z
_cell_length_a	18.426585
_cell_length_b	12.970454
_cell_length_c	12.970454
_cell_angle_alpha	60.000396
_cell_angle_beta	89.999509
_cell_angle_gamma	60.001296
loop_
_atom_site_label
_atom_site_type_symbol
_atom_site_fract_x
_atom_site_fract_y
_atom_site_fract_z
Zr1	Zr	0.699114	1.128553	-0.135315
O2	O	0.583239	1.343634	-0.299933
O3	O	0.734636	0.913466	-0.084852
O4	O	0.734637	1.128554	-0.299940
O5	O	0.583237	1.128547	0.084822
O6	O	0.854063	1.128561	-0.299944
O7	O	0.583238	1.128546	-0.084845
O8	O	0.854060	0.743808	0.084809
O9	O	0.583240	1.513300	-0.299931
O10	O	0.838912	1.001942	-0.063332
O11	O	0.749785	1.001937	0.063292
O12	O	0.749787	1.255175	-0.189947
O13	O	0.660660	1.255171	-0.063323
Zr14	Zr	0.889583	1.128566	0.135277
Zr15	Zr	0.889585	1.128564	-0.135322
Zr16	Zr	0.699113	1.128554	0.135284
Zr17	Zr	0.699115	1.399150	-0.135313
Zr18	Zr	0.889583	0.857968	0.135274
O19	O	0.854062	1.343652	0.084814
O20	O	0.854064	1.343650	-0.299942
O21	O	0.583237	1.343636	0.084824
O22	O	1.005458	0.913484	0.299894
O23	O	1.005460	0.913482	-0.084862
O24	O	0.734634	0.913468	0.299904
O25	O	1.005461	1.128571	-0.084860
O26	O	0.854060	1.128564	0.299902
O27	O	0.734634	1.128557	0.299906
O28	O	1.005460	1.128572	0.084807
O29	O	0.734638	1.513309	-0.299937
O30	O	0.854059	0.743809	0.299898
O31	O	1.005458	0.743818	0.299893
O32	O	1.005459	0.743817	0.084803
O33	O	0.583239	1.513301	-0.084841
O34	O	0.734637	1.513310	-0.084847
O35	O	0.838911	1.001943	0.189909
O36	O	0.928037	1.001948	0.063285
O37	O	0.838913	1.255181	-0.063330
O38	O	0.749786	1.255177	0.063294
C39	C	0.794348	0.790083	-0.000022
C40	C	0.794348	0.675207	-0.000023
C41	C	0.556099	1.128545	-0.000010
C42	C	0.475240	1.128540	-0.000008
C43	C	0.179125	1.128584	-0.000030
C44	C	0.261511	1.128578	-0.000027
C45	C	0.327179	1.128562	-0.000020
C46	C	0.409571	1.128556	-0.000015
C47	C	1.032598	1.128573	-0.000028
C48	C	1.113458	1.128578	-0.000031
C49	C	0.794350	1.128557	-0.338497
C50	C	0.794351	1.128557	-0.453373
C51	C	0.794350	1.467035	-0.000016
C52	C	0.794350	1.581911	-0.000015
C53	C	0.794347	1.128561	0.338458
C54	C	0.794347	1.128562	0.453335
C55	C	1.032597	0.790097	-0.000031
C56	C	1.113457	0.675226	-0.000034
C57	C	0.794346	0.790085	0.338456
C58	C	0.794345	0.675209	0.453331
C59	C	1.032596	0.790099	0.338447
C60	C	1.113455	0.675229	0.453319
C61	C	0.556102	1.467019	-0.338485
C62	C	0.475243	1.581890	-0.453357
C63	C	0.556100	1.467021	-0.000008
C64	C	0.475241	1.581892	-0.000004
C65	C	0.794351	1.467034	-0.338494
C66	C	0.794352	1.581909	-0.453369
C67	C	1.104907	0.621278	-0.066140
C68	C	1.180875	0.513360	-0.066169
C69	C	1.265394	0.459384	-0.000084
C70	C	1.273942	0.513342	0.066024
C71	C	1.197974	0.621266	0.066045
C72	C	1.197958	0.621287	0.441168
C73	C	1.273941	0.513369	0.549093
C74	C	1.265418	0.459388	0.669167
C75	C	1.180906	0.513340	0.681315
C76	C	1.104925	0.621263	0.573392
C77	C	0.390739	1.635845	-0.441206
C78	C	0.314757	1.743796	-0.549131
C79	C	0.323279	1.797783	-0.669205
C80	C	0.407792	1.743824	-0.681353
C81	C	0.483772	1.635882	-0.573430
C82	C	0.483791	1.635851	0.066091
C83	C	0.407822	1.743799	0.066090
C84	C	0.323304	1.797779	0.000001
C85	C	0.314756	1.743816	-0.066102
C86	C	0.390723	1.635877	-0.066107
H87	H	1.036095	0.665225	-0.119970
H88	H	0.245931	1.787783	-0.119909
O89	O	1.172518	0.460877	0.797889
C90	C	1.125679	0.398387	0.811756
H91	H	1.083734	0.447145	0.714603
H92	H	1.174896	0.275458	0.863328
C93	C	1.116209	0.370431	1.007804
C94	C	1.064686	0.430327	0.888478
H95	H	1.078588	0.390127	1.055134
H96	H	1.147768	0.412527	0.998465
H97	H	1.157220	0.267995	1.050764
H98	H	1.023683	0.532763	0.845515
H99	H	1.033118	0.388249	0.897812
H100	H	1.173898	0.469440	-0.120002
O101	O	1.022821	0.673873	0.585141
C102	C	0.976061	0.825121	0.526647
H103	H	1.025343	0.854703	0.521640
H104	H	0.930967	0.886838	0.427100
C105	C	0.858799	0.830672	0.610141
C106	C	0.919328	0.867003	0.604000
H107	H	0.823799	0.856510	0.657851
H108	H	0.890299	0.728774	0.649546
H109	H	0.821229	0.882106	0.527179
H110	H	0.956903	0.815555	0.686959
H111	H	0.887832	0.968893	0.564610
H112	H	1.204948	0.665177	0.119883
H113	H	0.414720	1.787794	-0.779130
H114	H	0.261453	1.885670	0.000016
H115	H	0.414800	1.787718	0.119924
H116	H	1.327244	0.371504	-0.000110
H117	H	0.383783	1.591894	-0.343446
O118	O	0.232716	1.796212	-0.537152
C119	C	0.222985	1.858641	-0.470563
H120	H	0.291382	1.809883	-0.411006
H121	H	0.186666	1.981579	-0.540450
C122	C	0.085017	1.886514	-0.457019
C123	C	0.169023	1.826620	-0.383862
H124	H	0.051728	1.866769	-0.403542
H125	H	0.091571	1.844461	-0.501886
H126	H	0.054762	1.988959	-0.515254
H127	H	0.199280	1.724176	-0.325640
H128	H	0.162473	1.868656	-0.338984
O129	O	1.206091	0.673832	0.324442
C130	C	1.120916	0.780687	0.231773
H131	H	1.070555	0.762953	0.273830
H132	H	1.101555	0.893583	0.198017
C133	C	1.183910	0.790641	0.067677
C134	C	1.122058	0.768852	0.119329
H135	H	1.184614	0.783347	-0.001687
H136	H	1.241295	0.718655	0.130109
H137	H	1.167768	0.884721	0.039557
H138	H	1.138206	0.674768	0.147462
H139	H	1.064675	0.840823	0.056900
H140	H	1.342767	0.469379	0.119827
O141	O	0.565873	1.583628	-0.585192
C142	C	0.612620	1.609972	-0.526699
H143	H	0.563330	1.704538	-0.521674
H144	H	0.657728	1.508078	-0.427158
C145	C	0.729873	1.532503	-0.610228
C146	C	0.669334	1.648658	-0.604066
H147	H	0.764861	1.556360	-0.657947
H148	H	0.698381	1.514749	-0.649632
H149	H	0.767454	1.447602	-0.527272
H150	H	0.631748	1.733552	-0.687019
H151	H	0.700822	1.666428	-0.564677
H152	H	0.261404	1.885676	-0.757073
H153	H	1.342748	0.469452	0.539179
O154	O	0.565906	1.583201	0.130453
C155	C	0.612648	1.431956	0.223203
H156	H	0.563353	1.402405	0.247780
H157	H	0.657728	1.370227	0.185369
C158	C	0.729944	1.426343	0.312241
C159	C	0.669399	1.390050	0.342434
H160	H	0.764955	1.400491	0.385787
H161	H	0.698456	1.528239	0.249751
H162	H	0.767502	1.374899	0.280711
H163	H	0.631835	1.441508	0.373948
H164	H	0.700882	1.288162	0.404933
H165	H	1.327294	0.371509	0.757034
H166	H	0.383749	1.591946	-0.119926
