data_functionalizedCrystal
_audit_creation_method	'MofGen! by Chris Wilmer'
_symmetry_space_group_name_H-M	'P1'
_symmetry_Int_Tables_number	1
_symmetry_cell_setting	triclinic
loop_
_symmetry_equiv_pos_as_xyz
  x,y,z
_cell_length_a	12.837943
_cell_length_b	14.853567
_cell_length_c	11.892095
_cell_angle_alpha	93.898435
_cell_angle_beta	85.689438
_cell_angle_gamma	89.231935
loop_
_atom_site_label
_atom_site_type_symbol
_atom_site_fract_x
_atom_site_fract_y
_atom_site_fract_z
O1	O	1.382409	0.229205	-0.093964
O2	O	1.080587	0.217625	-0.093972
O3	O	1.239561	0.092869	-0.093971
O4	O	1.223436	0.353961	-0.093965
O5	O	1.226306	0.103253	0.094036
O6	O	1.067332	0.228009	0.094035
O7	O	1.369154	0.239589	0.094043
Zn8	Zn	1.216139	0.235448	0.123889
Zn9	Zn	1.233603	0.221766	-0.123818
O10	O	1.210181	0.364345	0.094042
C11	C	1.035334	0.218906	0.000031
C12	C	0.920240	0.207240	0.000027
C13	C	0.679482	0.347487	0.000047
C14	C	0.571341	0.336530	0.000045
C15	C	0.595813	0.174369	0.000029
C16	C	0.703955	0.185327	0.000031
C17	C	0.745785	0.271888	0.000038
C18	C	0.853929	0.282844	0.000032
C19	C	0.878399	0.120685	0.000024
C20	C	0.770257	0.109727	0.000022
C21	C	1.232203	0.064410	0.000029
C22	C	1.230014	-0.035860	0.000019
C23	C	1.126324	-0.457187	0.000038
C24	C	1.315188	-0.462449	0.000043
C25	C	1.317247	-0.368241	0.000036
C26	C	1.223843	-0.318502	0.000032
C27	C	1.128380	-0.362970	0.000035
C28	C	1.412707	-0.323765	0.000045
C29	C	1.414770	-0.229551	0.000040
C30	C	1.321366	-0.179810	0.000028
C31	C	1.225899	-0.224285	0.000029
C32	C	1.132495	-0.174546	0.000025
C33	C	1.037028	-0.219019	0.000018
C34	C	1.034976	-0.313230	0.000023
C35	C	1.323418	-0.085599	0.000023
C36	C	1.134551	-0.080329	0.000022
C37	C	1.414408	0.238308	0.000038
C38	C	1.529502	0.249974	0.000034
C39	C	1.217539	0.392804	0.000040
C40	C	1.219728	0.493073	0.000042
N41	N	1.204228	0.244785	0.292943
N42	N	1.245522	0.212422	-0.292873
C43	C	1.328405	0.147396	0.529592
C44	C	1.320087	0.153930	0.647934
C45	C	1.179269	0.264382	0.647971
C46	C	1.187587	0.257848	0.529629
C47	C	1.262159	0.199354	0.470444
C48	C	1.270481	0.192826	0.352100
C49	C	1.129659	0.303272	0.352140
C50	C	1.121341	0.309806	0.470481
H51	H	0.887985	0.353327	0.000040
H52	H	1.118548	0.312000	0.696175
C53	C	0.934288	-0.164304	0.000016
H54	H	0.877135	-0.204278	0.000019
H55	H	0.935792	-0.131060	-0.065543
H56	H	0.926546	-0.123824	0.065590
H57	H	1.075720	0.345582	0.303968
C58	C	1.410430	0.083061	0.464484
H59	H	1.448692	0.053050	0.516661
H60	H	1.456873	0.116676	0.418309
H61	H	1.376323	0.039753	0.418328
H62	H	0.932395	0.059126	0.000010
C63	C	1.031808	-0.025619	0.000012
H64	H	1.046702	0.036860	0.000005
H65	H	0.988042	-0.036355	0.065569
H66	H	0.997302	-0.043601	-0.065564
C67	C	1.352508	0.128493	0.286991
H68	H	1.347986	0.132049	0.208039
H69	H	1.339806	0.068413	0.306381
H70	H	1.420350	0.145341	0.306377
C71	C	0.929974	-0.362151	0.000031
H72	H	0.942128	-0.425382	0.000049
H73	H	0.896124	-0.349260	-0.065529
H74	H	0.886894	-0.342002	0.065603
C75	C	1.392960	0.096780	0.712993
H76	H	1.438565	0.061014	0.660791
H77	H	1.352369	0.058575	0.759166
H78	H	1.432922	0.135496	0.759147
H79	H	1.391232	-0.502952	0.000055
C80	C	0.725501	0.442697	0.000045
H81	H	0.670523	0.486154	0.000052
H82	H	0.771801	0.446718	-0.065516
H83	H	0.762554	0.453964	0.065617
C84	C	0.498412	0.419688	0.000044
H85	H	0.538817	0.472807	0.000040
H86	H	0.451092	0.422406	0.065603
H87	H	0.460345	0.415163	-0.065530
C88	C	0.549785	0.079163	0.000032
H89	H	0.475884	0.083469	0.000031
H90	H	0.567917	0.051265	0.065592
H91	H	0.577148	0.044022	-0.065541
H92	H	1.060623	0.357428	0.518684
H93	H	0.736183	0.039252	0.000029
C94	C	1.021318	-0.506102	0.000036
H95	H	1.033465	-0.569335	0.000044
H96	H	0.987475	-0.493200	-0.065526
H97	H	0.978237	-0.485956	0.065607
H98	H	1.488751	-0.364268	0.000059
H99	H	1.492505	-0.193349	0.000043
C100	C	1.428417	-0.036682	0.000033
H101	H	1.483750	-0.079798	0.000034
H102	H	1.428518	0.003587	0.065592
H103	H	1.437772	-0.003667	-0.065541
