data_functionalizedCrystal
_audit_creation_method	'MofGen! by Chris Wilmer'
_symmetry_space_group_name_H-M	'P1'
_symmetry_Int_Tables_number	1
_symmetry_cell_setting	triclinic
loop_
_symmetry_equiv_pos_as_xyz
  x,y,z
_cell_length_a	23.532407
_cell_length_b	14.044220
_cell_length_c	22.010155
_cell_angle_alpha	90.010544
_cell_angle_beta	89.997764
_cell_angle_gamma	91.981222
loop_
_atom_site_label
_atom_site_type_symbol
_atom_site_fract_x
_atom_site_fract_y
_atom_site_fract_z
O1	O	0.137228	-1.256430	-0.050473
O2	O	0.132276	-0.980508	-0.050488
O3	O	0.052271	-1.126789	-0.050468
O4	O	0.217233	-1.110148	-0.050492
O5	O	0.052280	-1.126746	0.050582
O6	O	0.132285	-0.980464	0.050563
O7	O	0.137237	-1.256386	0.050578
Cu8	Cu	0.134762	-1.118421	0.059797
Cu9	Cu	0.134751	-1.118473	-0.059707
O10	O	0.217242	-1.110105	0.050559
C11	C	0.130113	-0.945192	0.000036
C12	C	0.123647	-0.840027	0.000031
C13	C	0.031037	-1.126344	0.000058
C14	C	-0.032249	-1.125070	0.000063
N15	N	0.134769	-1.118392	0.143849
C16	C	-0.427094	-1.203645	0.000034
C17	C	-0.486558	-1.202461	0.000029
O18	O	-0.519355	-1.275302	0.000011
N19	N	-0.513898	-1.115497	0.000025
C20	C	-0.481770	-1.029710	0.000019
O21	O	-0.510485	-0.955632	0.000014
C22	C	-0.422307	-1.030895	0.000019
C23	C	-0.394970	-1.117865	0.000030
C24	C	-0.399757	-1.290608	0.000044
C25	C	-0.340297	-1.291791	0.000049
C26	C	-0.308173	-1.206011	0.000045
C27	C	-0.335510	-1.119048	0.000036
C28	C	-0.390180	-0.945110	0.000009
C29	C	-0.330713	-0.946302	0.000009
C30	C	-0.303376	-1.033272	0.000020
C31	C	-0.243926	-1.034451	0.000038
N32	N	-0.216586	-1.121416	0.000042
C33	C	-0.248710	-1.207196	0.000046
C34	C	-0.606647	-1.027229	0.000017
C35	C	-0.666109	-1.026044	0.000021
C36	C	-0.670893	-1.198795	0.000030
C37	C	-0.611430	-1.199980	0.000031
C38	C	-0.579307	-1.114194	0.000022
C39	C	-0.123839	-1.209674	0.000058
C40	C	-0.064373	-1.210849	0.000067
C41	C	-0.059594	-1.038099	0.000055
C42	C	-0.119055	-1.036923	0.000050
C43	C	-0.151176	-1.122718	0.000049
O44	O	-0.211093	-0.961650	0.000053
O45	O	-0.219987	-1.281262	0.000042
C46	C	0.238476	-1.110550	0.000031
C47	C	0.301762	-1.111824	0.000022
C48	C	0.139400	-1.291702	0.000053
C49	C	0.145866	-1.396867	0.000054
C50	C	0.111826	-0.647477	0.000044
C51	C	0.157685	-0.589412	0.000041
C52	C	0.151107	-0.482270	0.000048
C53	C	0.118402	-0.754628	0.000037
C54	C	0.097287	-1.061312	0.436456
C55	C	0.097289	-1.061305	0.372849
O56	O	0.065416	-1.012741	0.339953
N57	N	0.134756	-1.118426	0.341034
C58	C	0.172220	-1.175567	0.372830
O59	O	0.204088	-1.224153	0.339928
C60	C	0.172215	-1.175578	0.436436
C61	C	0.134750	-1.118446	0.468248
C62	C	0.059825	-1.004185	0.468268
C63	C	0.059824	-1.004191	0.531871
C64	C	0.097286	-1.061325	0.563663
C65	C	0.134749	-1.118452	0.531851
C66	C	0.209676	-1.232723	0.468231
C67	C	0.209667	-1.232731	0.531842
C68	C	0.172202	-1.175598	0.563653
C69	C	0.172211	-1.175592	0.627246
N70	N	0.134744	-1.118471	0.659061
C71	C	0.097282	-1.061337	0.627269
C72	C	0.172226	-1.175538	0.239252
C73	C	0.172234	-1.175522	0.175647
C74	C	0.097302	-1.061261	0.175670
C75	C	0.097297	-1.061273	0.239276
C76	C	0.134759	-1.118417	0.271067
C77	C	0.097283	-1.061354	0.760840
C78	C	0.097288	-1.061363	0.824449
C79	C	0.172217	-1.175627	0.824420
C80	C	0.172215	-1.175615	0.760817
C81	C	0.134744	-1.118476	0.729029
O82	O	0.204065	-1.224134	0.660182
O83	O	0.065413	-1.012768	0.660179
N84	N	0.134750	-1.118496	0.856241
H85	H	-0.042119	-1.281674	0.000077
C86	C	0.250883	-1.295577	0.433249
H87	H	0.245528	-1.287394	0.390812
H88	H	0.243615	-1.360494	0.443669
H89	H	0.288932	-1.277606	0.443679
H90	H	-0.149985	-1.279537	0.000056
C91	C	0.056104	-0.998396	0.140691
H92	H	0.061475	-1.006577	0.098254
H93	H	0.063372	-0.933481	0.151130
H94	H	0.018049	-1.016359	0.151102
C95	C	-0.310234	-1.387459	0.000049
H96	H	-0.337889	-1.438369	0.000044
H97	H	-0.287137	-1.391512	0.035286
H98	H	-0.287139	-1.391524	-0.035195
C99	C	0.217397	-0.630952	0.000018
H100	H	0.214043	-0.698559	0.000008
H101	H	0.237502	-0.609967	0.035251
H102	H	0.237479	-0.609971	-0.035231
H103	H	-0.033429	-0.968259	0.000054
H104	H	0.067628	-0.616724	0.000054
C105	C	0.056074	-0.998515	0.859439
H106	H	0.033760	-0.964496	0.831391
H107	H	0.077168	-0.954694	0.884258
H108	H	0.031858	-1.037594	0.884245
H109	H	0.202748	-1.222034	0.149751
C110	C	0.213419	-1.238475	0.859399
H111	H	0.208044	-1.230300	0.901836
H112	H	0.251470	-1.220513	0.848983
H113	H	0.206150	-1.303397	0.848965
H114	H	-0.580496	-0.957368	0.000015
C115	C	0.250876	-1.295586	0.566810
H116	H	0.245510	-1.287418	0.609249
H117	H	0.288924	-1.277616	0.556387
H118	H	0.243610	-1.360509	0.556374
H119	H	-0.697059	-1.268642	0.000031
C120	C	0.056070	-0.998495	0.725882
H121	H	0.033765	-0.964471	0.753945
H122	H	0.031854	-1.037553	0.701061
H123	H	0.077171	-0.954664	0.701079
C124	C	0.213444	-1.238385	0.274216
H125	H	0.235760	-1.272392	0.246154
H126	H	0.192353	-1.282218	0.299022
H127	H	0.237658	-1.199310	0.299033
C128	C	-0.435084	-1.384974	0.000053
H129	H	-0.410279	-1.436927	0.000063
H130	H	-0.458382	-1.388136	-0.035183
H131	H	-0.458377	-1.388088	0.035298
H132	H	-0.589177	-1.270798	0.000039
C133	C	-0.696173	-0.930377	0.000015
H134	H	-0.668520	-0.879464	0.000009
H135	H	-0.719275	-0.926301	0.035250
H136	H	-0.719264	-0.926338	-0.035232
H137	H	0.029314	-0.957671	0.557767
H138	H	0.029315	-0.957660	0.442390
C139	C	0.056086	-0.998428	0.274264
H140	H	0.033777	-0.964404	0.246214
H141	H	0.077181	-0.954610	0.299086
H142	H	0.031867	-1.037503	0.299067
C143	C	-0.420237	-0.849441	-0.000007
H144	H	-0.392581	-0.798532	-0.000018
H145	H	-0.443338	-0.845355	0.035228
H146	H	-0.443328	-0.845405	-0.035254
C147	C	0.213424	-1.238462	0.725823
H148	H	0.235732	-1.272494	0.753869
H149	H	0.237637	-1.199401	0.701009
H150	H	0.192318	-1.282287	0.701011
H151	H	-0.304561	-0.876443	0.000001
H152	H	-0.141313	-0.966105	0.000058
