data_functionalizedCrystal
_audit_creation_method	'MofGen! by Chris Wilmer'
_symmetry_space_group_name_H-M	'P1'
_symmetry_Int_Tables_number	1
_symmetry_cell_setting	triclinic
loop_
_symmetry_equiv_pos_as_xyz
  x,y,z
_cell_length_a	15.944493
_cell_length_b	15.944551
_cell_length_c	7.681481
_cell_angle_alpha	84.256492
_cell_angle_beta	95.723158
_cell_angle_gamma	83.486891
loop_
_atom_site_label
_atom_site_type_symbol
_atom_site_fract_x
_atom_site_fract_y
_atom_site_fract_z
O1	O	1.106614	0.116053	-0.146410
O2	O	0.862057	0.129460	-0.146420
O3	O	0.991014	0.000479	-0.146399
O4	O	0.977656	0.245034	-0.146431
O5	O	1.006887	-0.015432	0.146461
O6	O	0.877929	0.113549	0.146441
O7	O	1.122486	0.100141	0.146450
Zn8	Zn	1.002728	0.104319	0.192943
Zn9	Zn	0.981815	0.125283	-0.192913
O10	O	0.993529	0.229122	0.146429
C11	C	0.838698	0.120957	0.000010
C12	C	0.745450	0.119314	0.000007
C13	C	0.998396	-0.038770	0.000032
C14	C	0.996734	-0.132016	0.000032
C15	C	0.509689	0.195235	-0.000005
C16	C	0.466957	0.146448	0.144404
C17	C	0.574729	0.116270	0.000010
C18	C	0.451313	0.162117	-0.144334
C19	C	0.409819	0.113335	0.000006
C20	C	0.533232	0.067498	0.144538
C21	C	0.517584	0.083185	-0.144329
C22	C	0.474887	0.034338	0.000115
C23	C	0.669729	0.117962	0.000014
C24	C	0.314822	0.111636	0.000015
C25	C	0.912826	-0.346854	0.000005
C26	C	0.959616	-0.415724	0.144404
C27	C	0.993726	-0.302740	0.000019
C28	C	0.943986	-0.400020	-0.144333
C29	C	0.990814	-0.467651	-0.000002
C30	C	1.040544	-0.370389	0.144537
C31	C	1.024896	-0.354672	-0.144330
C32	C	1.071746	-0.423527	0.000105
C33	C	0.995401	-0.207739	0.000032
C34	C	0.989146	-0.562652	-0.000003
C35	C	1.145845	0.108645	0.000017
C36	C	1.239093	0.110289	0.000008
C37	C	0.986147	0.268372	-0.000005
C38	C	0.987808	0.361618	-0.000018
N39	N	1.017007	0.090011	0.456280
N40	N	0.967543	0.139584	-0.456249
H41	H	0.444636	0.173164	0.266479
O42	O	1.057905	-0.322862	-0.289915
C43	C	1.178442	-0.327184	-0.456173
C44	C	1.141166	-0.363302	-0.291232
H45	H	1.245770	-0.359851	-0.457273
H46	H	1.137255	-0.338933	-0.579249
H47	H	1.179912	-0.255974	-0.454042
H48	H	1.139693	-0.434517	-0.293192
H49	H	1.182366	-0.351487	-0.168229
H50	H	0.568683	0.027530	0.266745
H51	H	0.917051	0.190183	0.468546
H52	H	0.903141	-0.413457	-0.266420
O53	O	0.528376	0.276371	-0.000167
C54	C	0.588076	0.391061	-0.152402
C55	C	0.566938	0.299180	-0.152471
H56	H	0.619273	0.409525	-0.275507
H57	H	0.527160	0.435870	-0.151160
H58	H	0.633499	0.395788	-0.030399
H59	H	0.521540	0.294371	-0.274454
H60	H	0.627890	0.254414	-0.153621
O61	O	0.408814	0.209709	-0.290024
C62	C	0.314207	0.211848	-0.555861
C63	C	0.362270	0.157850	-0.390933
H64	H	0.276578	0.169939	-0.637511
H65	H	0.268825	0.264799	-0.514307
H66	H	0.361692	0.240778	-0.637929
H67	H	0.314848	0.128862	-0.308792
H68	H	0.407665	0.104946	-0.432609
O69	O	1.077204	0.029539	0.545804
C70	C	1.129243	-0.119606	0.602644
C71	C	1.061031	-0.051208	0.501117
H72	H	1.116181	-0.184908	0.566581
H73	H	1.194614	-0.106851	0.566441
H74	H	1.127399	-0.117694	0.750188
H75	H	1.062797	-0.053081	0.353550
H76	H	0.995691	-0.063987	0.537467
O77	O	0.456491	-0.046902	0.000529
C78	C	0.477953	-0.188553	0.153091
C79	C	0.498843	-0.096579	0.152853
H80	H	0.512199	-0.228748	0.276214
H81	H	0.406485	-0.189229	0.152045
H82	H	0.499757	-0.215787	0.031103
H83	H	0.477093	-0.069289	0.274821
H84	H	0.570314	-0.095959	0.153807
O85	O	0.544304	0.051217	-0.289781
C86	C	0.635066	-0.056859	-0.403062
C87	C	0.604866	-0.020766	-0.238175
H88	H	0.684049	-0.115053	-0.361398
H89	H	0.578533	-0.075726	-0.486614
H90	H	0.665018	-0.006473	-0.483258
H91	H	0.574928	-0.071111	-0.157843
H92	H	0.661428	-0.001877	-0.154755
O93	O	0.832730	-0.307158	0.000475
C94	C	0.707859	-0.293418	0.153190
C95	C	0.798560	-0.338423	0.152889
H96	H	0.680198	-0.318690	0.276385
H97	H	0.709758	-0.222106	0.152044
H98	H	0.666449	-0.306179	0.031276
H99	H	0.840021	-0.325730	0.274783
H100	H	0.796595	-0.409721	0.153943
O101	O	0.926744	-0.447770	0.289981
C102	C	0.888985	-0.572257	0.453715
C103	C	0.926254	-0.536086	0.288810
H104	H	0.888560	-0.643661	0.452804
H105	H	0.929493	-0.559478	0.576836
H106	H	0.821250	-0.540388	0.453527
H107	H	0.993981	-0.567932	0.288828
H108	H	0.885685	-0.548853	0.165763
O109	O	1.151871	-0.463230	0.000069
C110	C	1.240247	-0.596141	-0.001261
C111	C	1.149462	-0.551291	-0.001244
H112	H	1.238332	-0.667348	-0.002286
H113	H	1.268373	-0.570098	-0.123244
H114	H	1.281259	-0.584180	0.121873
H115	H	1.108383	-0.563234	-0.124295
H116	H	1.121405	-0.577340	0.120820
H117	H	1.081356	-0.357046	0.266749
