data_functionalizedCrystal
_audit_creation_method	'MofGen! by Chris Wilmer'
_symmetry_space_group_name_H-M	'P1'
_symmetry_Int_Tables_number	1
_symmetry_cell_setting	triclinic
loop_
_symmetry_equiv_pos_as_xyz
  x,y,z
_cell_length_a	6.394984
_cell_length_b	17.699083
_cell_length_c	16.176319
_cell_angle_alpha	90.001389
_cell_angle_beta	89.994826
_cell_angle_gamma	95.110816
loop_
_atom_site_label
_atom_site_type_symbol
_atom_site_fract_x
_atom_site_fract_y
_atom_site_fract_z
O1	O	0.264132	-1.006772	-0.068628
O2	O	0.298496	-0.786744	-0.068654
O3	O	-0.022767	-0.899884	-0.068638
O4	O	0.585395	-0.893633	-0.068644
O5	O	-0.022787	-0.899867	0.068855
O6	O	0.298476	-0.786728	0.068839
O7	O	0.264112	-1.006756	0.068865
Cu8	Cu	0.281292	-0.896741	0.081406
Cu9	Cu	0.281316	-0.896760	-0.081195
O10	O	0.585375	-0.893617	0.068849
C11	C	0.297255	-0.758527	0.000089
C12	C	0.293561	-0.674471	0.000078
C13	C	0.899411	-0.898632	0.000111
C14	C	0.663193	-0.894866	0.000109
C15	C	0.265353	-1.034974	0.000120
C16	C	0.269047	-1.119029	0.000125
N17	N	0.281274	-0.896733	0.195772
N18	N	0.281318	-0.896774	-0.195561
C19	C	0.482136	-0.627773	0.000077
C20	C	0.478652	-0.548794	0.000088
C21	C	0.286592	-0.516515	0.000094
C22	C	0.098003	-0.563219	0.000098
C23	C	0.101488	-0.642196	0.000093
C24	C	0.083942	-0.244712	0.000119
C25	C	0.080471	-0.165729	0.000121
C26	C	0.461106	-0.151310	0.000113
C27	C	0.464591	-0.230288	0.000108
C28	C	0.276003	-0.276985	0.000117
C29	C	0.279783	-0.362622	0.000107
C30	C	0.282810	-0.430879	0.000098
C31	C	0.139077	-0.946847	0.239043
C32	C	0.139074	-0.946851	0.325590
C33	C	0.281281	-0.896743	0.368864
C34	C	0.423485	-0.846624	0.325587
C35	C	0.423476	-0.846617	0.239041
C36	C	0.423524	-0.846650	0.674615
C37	C	0.423527	-0.846663	0.761167
C38	C	0.139123	-0.946884	0.761164
C39	C	0.139114	-0.946877	0.674618
C40	C	0.281309	-0.896755	0.631348
C41	C	0.281307	-0.896750	0.537504
C42	C	0.281295	-0.896751	0.462707
H43	H	0.638533	-0.654048	0.000071
C44	C	-0.105946	-0.693568	0.000093
C45	C	-0.263445	-0.688659	0.071493
C46	C	-0.470885	-0.740030	0.071497
C47	C	-0.520826	-0.796310	0.000102
C48	C	-0.363323	-0.801222	-0.071304
C49	C	-0.155882	-0.749850	-0.071308
H50	H	-0.226480	-0.646995	0.124349
H51	H	-0.587480	-0.736395	0.124357
H52	H	-0.674386	-0.834339	0.000105
H53	H	-0.400288	-0.842885	-0.124160
H54	H	-0.039288	-0.753486	-0.124167
C55	C	-0.017357	-1.001967	0.191446
C56	C	-0.173779	-1.057088	0.239048
C57	C	-0.330223	-1.112207	0.191454
C58	C	-0.330245	-1.112206	0.096258
C59	C	-0.173817	-1.057083	0.048650
C60	C	-0.017373	-1.001964	0.096244
H61	H	-0.173769	-1.057090	0.309523
H62	H	-0.446022	-1.153013	0.226697
H63	H	-0.446054	-1.153009	0.061026
H64	H	-0.173827	-1.057081	-0.021825
H65	H	0.098426	-0.961158	0.061001
H66	H	0.023333	-0.987694	0.796403
H67	H	0.023286	-0.987657	0.360821
H68	H	-0.058376	-0.536931	0.000115
C69	C	-0.017318	-1.001994	0.627016
C70	C	-0.173749	-1.057117	0.674612
C71	C	-0.330189	-1.112233	0.627010
C72	C	-0.330198	-1.112225	0.531814
C73	C	-0.173761	-1.057099	0.484213
C74	C	-0.017321	-1.001984	0.531814
H75	H	-0.173747	-1.057125	0.745087
H76	H	-0.445994	-1.153040	0.662248
H77	H	-0.446005	-1.153024	0.496576
H78	H	-0.173763	-1.057091	0.413738
H79	H	0.098484	-0.961176	0.496577
C80	C	0.579947	-0.791525	0.627021
C81	C	0.736440	-0.736432	0.674617
C82	C	0.892871	-0.681306	0.627016
C83	C	0.892809	-0.681273	0.531820
C84	C	0.736310	-0.736369	0.484218
C85	C	0.579879	-0.791494	0.531819
H86	H	0.736491	-0.736455	0.745092
H87	H	1.008722	-0.640521	0.662255
H88	H	1.008609	-0.640466	0.496583
H89	H	0.736259	-0.736346	0.413743
H90	H	0.464028	-0.832279	0.496581
H91	H	0.632209	-0.510775	0.000086
H92	H	0.620986	-0.256565	0.000099
H93	H	0.614663	-0.113280	0.000111
H94	H	0.539333	-0.805856	0.796399
H95	H	-0.075937	-0.139451	0.000127
H96	H	-0.069619	-0.282724	0.000126
H97	H	0.539266	-0.805822	0.360826
H98	H	0.539264	-0.805808	0.203810
