data_functionalizedCrystal
_audit_creation_method	'MofGen! by Chris Wilmer'
_symmetry_space_group_name_H-M	'P1'
_symmetry_Int_Tables_number	1
_symmetry_cell_setting	triclinic
loop_
_symmetry_equiv_pos_as_xyz
  x,y,z
_cell_length_a	14.908520
_cell_length_b	14.908941
_cell_length_c	10.686551
_cell_angle_alpha	90.854594
_cell_angle_beta	89.137942
_cell_angle_gamma	83.580981
loop_
_atom_site_label
_atom_site_type_symbol
_atom_site_fract_x
_atom_site_fract_y
_atom_site_fract_z
Zn1	Zn	-0.244307	-1.399146	-0.620469
Zn2	Zn	-0.407132	-1.378868	-0.424225
Zn3	Zn	-0.264518	-1.236343	-0.424225
Zn4	Zn	-0.402881	-1.240500	-0.645976
O5	O	-0.329709	-1.313714	-0.528724
O6	O	-0.259227	-1.522498	-0.583762
O7	O	-0.398451	-1.349736	-0.249292
O8	O	-0.135789	-1.264685	-0.439582
O9	O	-0.378853	-1.507599	-0.439582
O10	O	-0.120940	-1.384296	-0.583762
O11	O	-0.293673	-1.245023	-0.249292
O12	O	-0.289551	-1.110853	-0.464316
O13	O	-0.371608	-1.271771	-0.817525
O14	O	-0.391206	-1.113908	-0.627236
O15	O	-0.255105	-1.388328	-0.798785
O16	O	-0.532616	-1.353767	-0.464315
O17	O	-0.529492	-1.252109	-0.627235
C18	C	-0.342111	-1.079699	-0.548544
C19	C	-0.347436	-0.979587	-0.557055
C20	C	-0.251404	-0.788255	-0.403609
C21	C	-0.256405	-0.694191	-0.411601
C22	C	-0.362444	-0.697392	-0.581026
C23	C	-0.357443	-0.791456	-0.573033
C24	C	-0.301920	-0.836885	-0.484323
C25	C	-0.296915	-0.930951	-0.476337
C26	C	-0.402957	-0.934150	-0.645755
C27	C	-0.407958	-0.840085	-0.653748
C28	C	-0.563734	-1.301215	-0.548568
C29	C	-0.663844	-1.295952	-0.557093
C30	C	-0.855138	-1.392046	-0.403581
C31	C	-0.949200	-1.387104	-0.411586
C32	C	-0.946031	-1.281132	-0.581113
C33	C	-0.851969	-1.286074	-0.573108
C34	C	-0.806526	-1.341531	-0.484338
C35	C	-0.712463	-1.346468	-0.476328
C36	C	-0.709295	-1.240501	-0.645859
C37	C	-0.803357	-1.235559	-0.653865
C38	C	-0.094768	-1.326289	-0.508827
C39	C	0.005350	-1.331648	-0.500348
C40	C	-0.310628	-1.332775	-0.854781
C41	C	-0.302497	-1.340898	-0.993728
C42	C	-0.317252	-0.548643	-0.508816
C43	C	-0.311922	-0.648756	-0.500308
C44	C	-0.348649	-1.294783	-0.203925
C45	C	-0.356517	-1.286848	-0.064943
H46	H	-0.251700	-0.967939	-0.404112
H47	H	-0.206184	-0.825246	-0.331391
H48	H	-0.408989	-1.234362	-1.019615
H49	H	-0.444086	-0.973754	-0.711486
C50	C	-0.656453	-1.185813	-0.733685
C51	C	-0.595002	-1.244284	-0.804979
C52	C	-0.546318	-1.193937	-0.885903
H53	H	-0.624610	-1.145718	-0.686160
H54	H	-0.696960	-1.152100	-0.787764
H55	H	-0.554499	-1.277981	-0.750908
H56	H	-0.626820	-1.284380	-0.852531
H57	H	-0.586826	-1.160224	-0.939982
H58	H	-0.514482	-1.153844	-0.838367
H59	H	-0.504624	-1.233602	-0.934294
H60	H	-0.407656	-0.660386	-0.653238
H61	H	-0.215269	-0.654601	-0.345876
H62	H	-0.250027	-1.393393	-1.039062
H63	H	-0.453166	-0.803084	-0.725969
H64	H	-0.818138	-1.437195	-0.331293
C65	C	-0.663281	-1.406764	-0.379910
C66	C	-0.725989	-1.449963	-0.310925
C67	C	-0.680718	-1.505526	-0.222105
H68	H	-0.631647	-1.371177	-0.325075
H69	H	-0.621676	-1.450752	-0.421299
H70	H	-0.767579	-1.405980	-0.269538
H71	H	-0.757626	-1.485565	-0.365725
H72	H	-0.639113	-1.549514	-0.263494
H73	H	-0.649086	-1.469932	-0.167280
H74	H	-0.723258	-1.534849	-0.175296
C75	C	-1.001824	-1.441981	-0.323750
C76	C	-0.941892	-1.491586	-0.244281
C77	C	-0.990337	-1.542142	-0.163337
H78	H	-1.033597	-1.482139	-0.371268
H79	H	-1.043561	-1.402460	-0.275212
H80	H	-0.900171	-1.531103	-0.292815
H81	H	-0.910117	-1.451450	-0.196736
H82	H	-1.032074	-1.502622	-0.114798
H83	H	-1.022108	-1.582296	-0.210865
H84	H	-0.949681	-1.575799	-0.109400
H85	H	-0.983047	-1.235987	-0.653393
H86	H	-0.840370	-1.190410	-0.726142
