data_functionalizedCrystal
_audit_creation_method	'MofGen! by Chris Wilmer'
_symmetry_space_group_name_H-M	'P1'
_symmetry_Int_Tables_number	1
_symmetry_cell_setting	triclinic
loop_
_symmetry_equiv_pos_as_xyz
  x,y,z
_cell_length_a	15.944499
_cell_length_b	15.944551
_cell_length_c	14.421503
_cell_angle_alpha	90.003340
_cell_angle_beta	89.989779
_cell_angle_gamma	83.488174
loop_
_atom_site_label
_atom_site_type_symbol
_atom_site_fract_x
_atom_site_fract_y
_atom_site_fract_z
O1	O	1.114556	0.108114	-0.077169
O2	O	0.870001	0.121515	-0.077159
O3	O	0.998957	-0.007462	-0.077156
O4	O	0.985600	0.237090	-0.077172
O5	O	0.998935	-0.007442	0.077067
O6	O	0.869979	0.121534	0.077064
O7	O	1.114535	0.108133	0.077054
Cu8	Cu	0.992255	0.114835	0.091141
Cu9	Cu	0.992281	0.114813	-0.091246
O10	O	0.985579	0.237110	0.077051
C11	C	0.838695	0.120976	-0.000046
C12	C	0.745447	0.119331	-0.000042
C13	C	0.453911	0.194263	-0.000061
C14	C	0.514951	0.155302	-0.076100
C15	C	0.409810	0.113355	-0.000063
C16	C	0.514916	0.155299	0.075952
C17	C	0.574719	0.116296	-0.000051
C18	C	0.469622	0.074371	-0.076165
C19	C	0.469581	0.074380	0.075955
C20	C	0.530603	0.035360	-0.000102
C21	C	0.314810	0.111663	-0.000071
C22	C	0.669718	0.117981	-0.000050
C23	C	0.998392	-0.038746	-0.000044
C24	C	0.996729	-0.131992	-0.000044
C25	C	0.912823	-0.346833	-0.000053
C26	C	0.951776	-0.407848	0.075987
C27	C	0.993722	-0.302717	-0.000051
C28	C	0.951816	-0.407850	-0.076065
C29	C	0.990811	-0.467629	-0.000061
C30	C	1.032697	-0.362504	0.076052
C31	C	1.032726	-0.362500	-0.076069
C32	C	1.071737	-0.423497	-0.000010
C33	C	0.995397	-0.207715	-0.000044
C34	C	0.989143	-0.562630	-0.000062
C35	C	1.145840	0.108672	-0.000061
C36	C	1.239089	0.110317	-0.000071
C37	C	0.986144	0.268394	-0.000063
C38	C	0.987806	0.361640	-0.000069
N39	N	0.992244	0.114851	0.219422
N40	N	0.992299	0.114791	-0.219527
C41	C	0.932604	0.174463	0.469075
C42	C	1.008506	0.190756	0.530873
C43	C	0.992264	0.114831	0.408584
C44	C	0.916382	0.098557	0.530879
C45	C	0.992277	0.114813	0.591305
C46	C	1.068204	0.131162	0.469021
C47	C	0.976030	0.038930	0.469022
C48	C	1.051987	0.055191	0.530793
C49	C	0.992255	0.114843	0.303323
C50	C	0.992294	0.114800	0.696564
H51	H	0.534982	0.189542	0.140235
O52	O	0.911004	-0.431676	-0.152827
C53	C	0.883234	-0.359769	-0.206192
H54	H	0.923353	-0.306961	-0.189318
H55	H	0.889592	-0.376091	-0.283021
H56	H	0.814305	-0.338110	-0.189389
H57	H	1.022248	0.254936	0.558040
O58	O	0.570291	-0.044772	-0.000268
C59	C	0.621680	-0.057092	-0.079779
H60	H	0.638022	0.006531	-0.105966
H61	H	0.682209	-0.098907	-0.061501
H62	H	0.586364	-0.088861	-0.136164
H63	H	0.535058	0.189518	-0.140386
H64	H	0.449652	0.040174	-0.140523
H65	H	0.845673	-0.313513	0.000026
O66	O	0.910814	-0.431769	0.152614
C67	C	0.827068	-0.392333	0.152361
H68	H	0.807584	-0.374092	0.078365
H69	H	0.783240	-0.437771	0.181088
H70	H	0.822661	-0.333250	0.197427
H71	H	0.449455	0.040195	0.140247
O72	O	0.414236	0.274402	-0.000028
C73	C	0.438290	0.317364	0.079395
H74	H	0.501669	0.286031	0.105627
H75	H	0.444117	0.385993	0.060984
H76	H	0.388536	0.314809	0.135796
O77	O	1.144707	0.147749	0.436595
C78	C	1.143762	0.147602	0.338835
H79	H	1.075893	0.160759	0.313276
H80	H	1.182128	0.198601	0.311853
H81	H	1.172501	0.083331	0.312323
H82	H	0.852204	0.084801	0.558053
O83	O	0.959657	-0.037572	0.436421
C84	C	0.960630	-0.036700	0.338666
H85	H	0.999813	0.014325	0.313465
H86	H	0.989556	-0.100811	0.311901
H87	H	0.893308	-0.022911	0.311586
O88	O	1.073400	-0.338516	-0.152860
C89	C	1.030551	-0.361373	-0.232876
H90	H	0.962066	-0.368124	-0.214655
H91	H	1.032611	-0.310454	-0.288056
H92	H	1.062325	-0.424023	-0.260621
H93	H	1.066876	-0.342512	0.140408
H94	H	1.138946	-0.456668	0.000030
O95	O	1.112133	-0.005073	0.562969
C96	C	1.073729	-0.063921	0.616785
H97	H	1.004632	-0.062533	0.595902
H98	H	1.107618	-0.129878	0.604659
H99	H	1.077882	-0.046938	0.693310
H100	H	0.882202	0.224932	0.441976
