data_functionalizedCrystal
_audit_creation_method	'MofGen! by Chris Wilmer'
_symmetry_space_group_name_H-M	'P1'
_symmetry_Int_Tables_number	1
_symmetry_cell_setting	triclinic
loop_
_symmetry_equiv_pos_as_xyz
  x,y,z
_cell_length_a	18.101397
_cell_length_b	18.101398
_cell_length_c	18.101389
_cell_angle_alpha	89.991407
_cell_angle_beta	90.018351
_cell_angle_gamma	89.985428
loop_
_atom_site_label
_atom_site_type_symbol
_atom_site_fract_x
_atom_site_fract_y
_atom_site_fract_z
Zn1	Zn	-0.295010	-1.132179	0.418528
Zn2	Zn	0.038323	-0.798846	0.751862
Zn3	Zn	0.371657	-0.465513	1.085195
Zn4	Zn	-0.418836	-1.132100	0.294687
Zn5	Zn	-0.085502	-0.798766	0.628020
Zn6	Zn	0.247831	-0.465433	0.961353
Zn7	Zn	-0.295001	-1.008338	0.294723
Zn8	Zn	0.038332	-0.675005	0.628057
Zn9	Zn	0.371665	-0.341672	0.961390
Zn10	Zn	-0.418803	-1.008313	0.418509
Zn11	Zn	-0.085470	-0.674980	0.751843
Zn12	Zn	0.247864	-0.341647	1.085176
O13	O	-0.356912	-1.070233	0.356612
O14	O	-0.023579	-0.736899	0.689945
O15	O	0.309754	-0.403566	1.023279
O16	O	-0.311453	-1.235802	0.402093
O17	O	0.021880	-0.902468	0.735426
O18	O	0.355214	-0.569135	1.068760
O19	O	-0.402419	-1.115659	0.191059
O20	O	-0.069085	-0.782326	0.524392
O21	O	0.264248	-0.448993	0.857725
O22	O	-0.191369	-1.024810	0.311169
O23	O	0.141964	-0.691476	0.644503
O24	O	0.475297	-0.358143	0.977836
O25	O	-0.402427	-1.235743	0.311107
O26	O	-0.069094	-0.902410	0.644441
O27	O	0.264239	-0.569076	0.977774
O28	O	-0.191376	-1.115795	0.402128
O29	O	0.141957	-0.782462	0.735462
O30	O	0.475291	-0.449128	1.068795
O31	O	-0.311438	-1.024732	0.191086
O32	O	0.021895	-0.691399	0.524419
O33	O	0.355228	-0.358066	0.857752
O34	O	-0.311406	-0.904702	0.311151
O35	O	0.021927	-0.571369	0.644485
O36	O	0.355260	-0.238035	0.977818
O37	O	-0.402371	-1.024767	0.522145
O38	O	-0.069038	-0.691434	0.855478
O39	O	0.264295	-0.358101	1.188811
O40	O	-0.402363	-0.904684	0.402096
O41	O	-0.069030	-0.571351	0.735430
O42	O	0.264304	-0.238017	1.068763
O43	O	-0.311421	-1.115771	0.522159
O44	O	0.021912	-0.782438	0.855492
O45	O	0.355245	-0.449104	1.188825
O46	O	-0.522464	-1.115635	0.311089
O47	O	-0.189131	-0.782302	0.644422
O48	O	0.144203	-0.448969	0.977756
O49	O	-0.522440	-1.024690	0.402061
O50	O	-0.189107	-0.691357	0.735394
O51	O	0.144227	-0.358024	1.068728
C52	C	-0.356881	-0.877822	0.356626
C53	C	-0.023547	-0.544489	0.689959
C54	C	0.309786	-0.211155	1.023293
C55	C	-0.356885	-0.795508	0.356650
C56	C	-0.023552	-0.462175	0.689983
C57	C	0.309782	-0.128841	1.023316
C58	C	-0.356925	-0.496417	0.356625
C59	C	-0.023591	-0.163084	0.689958
C60	C	0.309742	0.170250	1.023292
C61	C	-0.414429	-0.527756	0.413562
C62	C	-0.081096	-0.194422	0.746895
C63	C	0.252238	0.138911	1.080229
C64	C	-0.414250	-0.613374	0.413794
C65	C	-0.080917	-0.280041	0.747128
C66	C	0.252416	0.053293	1.080461
C67	C	-0.356906	-0.644800	0.356637
C68	C	-0.023572	-0.311466	0.689971
C69	C	0.309761	0.021867	1.023304
C70	C	-0.278907	-0.613730	0.377966
C71	C	0.054427	-0.280396	0.711299
C72	C	0.387760	0.052937	1.044632
C73	C	-0.279251	-0.528085	0.378372
C74	C	0.054082	-0.194751	0.711705
C75	C	0.387416	0.138582	1.045039
C76	C	-0.376732	-0.527968	0.278222
C77	C	-0.043399	-0.194635	0.611555
C78	C	0.289935	0.138698	0.944888
C79	C	-0.378445	-0.613619	0.278639
C80	C	-0.045111	-0.280285	0.611972
C81	C	0.288222	0.053048	0.945305
C82	C	-0.356890	-0.728659	0.356643
C83	C	-0.023557	-0.395326	0.689976
C84	C	0.309777	-0.061992	1.023310
C85	C	-0.356935	-0.412558	0.356621
C86	C	-0.023602	-0.079224	0.689954
C87	C	0.309732	0.254109	1.023288
C88	C	-0.549323	-1.070172	0.356585
C89	C	-0.215990	-0.736838	0.689918
C90	C	0.117344	-0.403505	1.023252
C91	C	-0.631637	-1.070213	0.356598
C92	C	-0.298304	-0.736880	0.689932
C93	C	0.035030	-0.403547	1.023265
C94	C	-0.782345	-1.070258	0.356624
C95	C	-0.449012	-0.736925	0.689957
C96	C	-0.115679	-0.403592	1.023290
C97	C	-0.813683	-1.127535	0.299442
C98	C	-0.480350	-0.794202	0.632775
C99	C	-0.147016	-0.460868	0.966109
C100	C	-0.899302	-1.127392	0.299232
C101	C	-0.565968	-0.794059	0.632565
C102	C	-0.232635	-0.460726	0.965898
C103	C	-0.930728	-1.070304	0.356648
C104	C	-0.597395	-0.736970	0.689982
C105	C	-0.264061	-0.403637	1.023315
C106	C	-0.899701	-0.992202	0.335655
C107	C	-0.566368	-0.658869	0.668989
C108	C	-0.233034	-0.325535	1.002322
C109	C	-0.814056	-0.992507	0.335226
C110	C	-0.480723	-0.659174	0.668559
C111	C	-0.147389	-0.325840	1.001893
C112	C	-0.813855	-1.090411	0.434947
C113	C	-0.480522	-0.757077	0.768280
C114	C	-0.147188	-0.423744	1.101614
C115	C	-0.899505	-1.092159	0.434544
C116	C	-0.566171	-0.758825	0.767877
C117	C	-0.232838	-0.425492	1.101210
C118	C	-1.014587	-1.070325	0.356664
C119	C	-0.681254	-0.736991	0.689997
C120	C	-0.347921	-0.403658	1.023330
C121	C	-0.698486	-1.070232	0.356606
C122	C	-0.365153	-0.736899	0.689940
C123	C	-0.031819	-0.403565	1.023273
C124	C	-0.163751	-1.070314	0.356655
C125	C	0.169583	-0.736981	0.689988
C126	C	0.502916	-0.403647	1.023322
C127	C	-0.081436	-1.070349	0.356673
C128	C	0.251897	-0.737015	0.690007
C129	C	0.585230	-0.403682	1.023340
C130	C	-0.356894	-1.070275	0.549774
C131	C	-0.023560	-0.736942	0.883107
C132	C	0.309773	-0.403609	1.216441
C133	C	-0.356886	-1.070294	0.632088
C134	C	-0.023552	-0.736960	0.965421
C135	C	0.309781	-0.403627	1.298755
C136	C	-0.356941	-0.263394	0.356603
C137	C	-0.023608	0.069939	0.689936
C138	C	0.309725	0.403272	1.023270
C139	C	-0.356945	-0.345709	0.356612
C140	C	-0.023612	-0.012375	0.689946
C141	C	0.309721	0.320958	1.023279
C142	C	-0.356878	-1.070233	0.164201
C143	C	-0.023544	-0.736899	0.497535
C144	C	0.309789	-0.403566	0.830868
C145	C	-0.356677	-1.070358	0.081888
C146	C	-0.023344	-0.737025	0.415221
C147	C	0.309990	-0.403691	0.748554
C148	C	-0.356747	-1.070337	0.931179
C149	C	-0.023414	-0.737003	1.264513
C150	C	0.309920	-0.403670	1.597846
C151	C	-0.413788	-1.012883	0.899845
C152	C	-0.080455	-0.679549	1.233179
C153	C	0.252878	-0.346216	1.566512
C154	C	-0.414053	-1.013038	0.814227
C155	C	-0.080720	-0.679705	1.147560
C156	C	0.252614	-0.346371	1.480894
C157	C	-0.356816	-1.070315	0.782797
C158	C	-0.023482	-0.736981	1.116130
C159	C	0.309851	-0.403648	1.449463
C160	C	-0.378007	-1.148344	0.813881
C161	C	-0.044674	-0.815011	1.147214
C162	C	0.288660	-0.481678	1.480548
C163	C	-0.378381	-1.148024	0.899526
C164	C	-0.045048	-0.814691	1.232859
C165	C	0.288285	-0.481358	1.566193
C166	C	-0.278388	-1.050440	0.899609
C167	C	0.054946	-0.717107	1.232942
C168	C	0.388279	-0.383773	1.566275
C169	C	-0.278840	-1.048704	0.813958
C170	C	0.054493	-0.715371	1.147292
C171	C	0.387827	-0.382037	1.480625
C172	C	-0.356853	-1.070307	0.698937
C173	C	-0.023520	-0.736974	1.032270
C174	C	0.309813	-0.403640	1.365604
C175	C	-0.356711	-1.070350	1.015039
C176	C	-0.023378	-0.737016	1.348372
C177	C	0.309956	-0.403683	1.681705
H178	H	-0.261802	-0.635191	0.434658
H179	H	0.071531	-0.301858	0.767991
H180	H	0.404865	0.031476	1.101324
H181	H	-0.432635	-0.506366	0.258840
H182	H	-0.099301	-0.173033	0.592173
H183	H	0.234032	0.160301	0.925507
H184	H	-0.472458	-0.507152	0.400345
H185	H	-0.139125	-0.173818	0.733678
H186	H	0.194208	0.159515	1.067011
H187	H	-0.792198	-1.114345	0.241738
H188	H	-0.458865	-0.781012	0.575072
H189	H	-0.125532	-0.447679	0.908405
H190	H	-0.259082	-0.994529	0.921210
H191	H	0.074251	-0.661196	1.254543
H192	H	0.407585	-0.327862	1.587877
H193	H	-0.262449	-0.508120	0.435688
H194	H	0.070884	-0.174787	0.769022
H195	H	0.404217	0.158546	1.102355
H196	H	-0.337766	-1.192302	0.793523
H197	H	-0.004433	-0.858969	1.126856
H198	H	0.328900	-0.525636	1.460189
H199	H	-0.920058	-0.948376	0.376031
H200	H	-0.586725	-0.615042	0.709364
H201	H	-0.253392	-0.281709	1.042698
Br202	Br	-0.933527	-1.105155	0.202515
Br203	Br	-0.600193	-0.771821	0.535849
Br204	Br	-0.266860	-0.438488	0.869182
H205	H	-0.401146	-0.633874	0.471885
H206	H	-0.067813	-0.300540	0.805218
H207	H	0.265521	0.032793	1.138552
Br208	Br	-0.474116	-0.647463	0.251831
Br209	Br	-0.140782	-0.314130	0.585165
Br210	Br	0.192551	0.019204	0.918498
H211	H	-0.234901	-0.634085	0.337788
H212	H	0.098432	-0.300752	0.671121
H213	H	0.431765	0.032581	1.004455
Br214	Br	-0.312095	-1.221747	0.934079
Br215	Br	0.021239	-0.888413	1.267412
Br216	Br	0.354572	-0.555080	1.600746
H217	H	-0.234871	-0.507354	0.338803
H218	H	0.098462	-0.174021	0.672137
H219	H	0.431795	0.159313	1.005470
H220	H	-0.339602	-0.635011	0.233937
H221	H	-0.006269	-0.301678	0.567270
H222	H	0.327065	0.031656	0.900604
Br223	Br	-0.780828	-0.964079	0.239813
Br224	Br	-0.447495	-0.630746	0.573147
Br225	Br	-0.114162	-0.297413	0.906480
Br226	Br	-0.306922	-0.494189	0.207512
Br227	Br	0.026412	-0.160856	0.540845
Br228	Br	0.359745	0.172477	0.874179
Br229	Br	-0.779293	-1.224337	0.321034
Br230	Br	-0.445960	-0.891003	0.654367
Br231	Br	-0.112627	-0.557670	0.987701
Br232	Br	-0.934267	-1.223906	0.321100
Br233	Br	-0.600934	-0.890572	0.654434
Br234	Br	-0.267601	-0.557239	0.987767
Br235	Br	-0.935519	-0.963306	0.241299
Br236	Br	-0.602186	-0.629972	0.574632
Br237	Br	-0.268853	-0.296639	0.907966
Br238	Br	-0.207553	-1.120187	0.933381
Br239	Br	0.125780	-0.786854	1.266714
Br240	Br	0.459113	-0.453521	1.600047
Br241	Br	-0.779503	-0.918938	0.401638
Br242	Br	-0.446169	-0.585605	0.734971
Br243	Br	-0.112836	-0.252271	1.068304
Br244	Br	-0.252207	-0.952989	0.780110
Br245	Br	0.081126	-0.619655	1.113444
Br246	Br	0.414460	-0.286322	1.446777
Br247	Br	-0.777794	-1.183704	0.466835
Br248	Br	-0.444461	-0.850371	0.800168
Br249	Br	-0.111127	-0.517037	1.133501
Br250	Br	-0.509995	-1.034510	0.935777
Br251	Br	-0.176661	-0.701176	1.269111
Br252	Br	0.156672	-0.367843	1.602444
H253	H	-0.919779	-1.149635	0.450377
H254	H	-0.586446	-0.816302	0.783710
H255	H	-0.253112	-0.482969	1.117043
Br256	Br	-0.935157	-1.027751	0.509348
Br257	Br	-0.601823	-0.694418	0.842681
Br258	Br	-0.268490	-0.361085	1.176014
Br259	Br	-0.472465	-1.176945	0.778137
Br260	Br	-0.139132	-0.843612	1.111470
Br261	Br	0.194201	-0.510279	1.444804
H262	H	-0.793585	-1.048698	0.477550
H263	H	-0.460252	-0.715365	0.810883
H264	H	-0.126918	-0.382031	1.144217
H265	H	-0.400791	-0.955176	0.793210
H266	H	-0.067458	-0.621843	1.126544
H267	H	0.265875	-0.288510	1.459877
Br268	Br	-0.391909	-0.916146	0.934173
Br269	Br	-0.058575	-0.582813	1.267506
Br270	Br	0.274758	-0.249479	1.600839
Br271	Br	-0.204242	-1.113368	0.778311
Br272	Br	0.129092	-0.780034	1.111645
Br273	Br	0.462425	-0.446701	1.444978
H274	H	-0.472135	-1.026175	0.793741
H275	H	-0.138802	-0.692842	1.127074
H276	H	0.194531	-0.359509	1.460408
H277	H	-0.472091	-0.634380	0.400427
H278	H	-0.138758	-0.301047	0.733760
H279	H	0.194575	0.032286	1.067093
Br280	Br	-0.392886	-0.491881	0.509824
Br281	Br	-0.059552	-0.158547	0.843157
Br282	Br	0.273781	0.174786	1.176490
Br283	Br	-0.473854	-1.176134	0.932830
Br284	Br	-0.140521	-0.842801	1.266163
Br285	Br	0.192813	-0.509468	1.599496
