data_functionalizedCrystal
_audit_creation_method	'MofGen! by Chris Wilmer'
_symmetry_space_group_name_H-M	'P1'
_symmetry_Int_Tables_number	1
_symmetry_cell_setting	triclinic
loop_
_symmetry_equiv_pos_as_xyz
  x,y,z
_cell_length_a	15.944551
_cell_length_b	15.944493
_cell_length_c	12.503572
_cell_angle_alpha	93.528588
_cell_angle_beta	86.485927
_cell_angle_gamma	83.486891
loop_
_atom_site_label
_atom_site_type_symbol
_atom_site_fract_x
_atom_site_fract_y
_atom_site_fract_z
O1	O	1.119339	0.103483	-0.089195
O2	O	1.452673	0.436816	0.244139
O3	O	1.786006	0.770149	0.577472
O4	O	0.874788	0.116838	-0.089220
O5	O	1.208121	0.450171	0.244114
O6	O	1.541455	0.783505	0.577447
O7	O	1.003768	-0.012118	-0.089215
O8	O	1.337101	0.321215	0.244118
O9	O	1.670434	0.654548	0.577451
O10	O	0.990360	0.232439	-0.089199
O11	O	1.323693	0.565772	0.244135
O12	O	1.657026	0.899106	0.577468
O13	O	0.994068	-0.002404	0.089426
O14	O	1.327401	0.330929	0.422760
O15	O	1.660734	0.664263	0.756093
O16	O	0.865088	0.126552	0.089422
O17	O	1.198421	0.459886	0.422755
O18	O	1.531755	0.793219	0.756089
O19	O	1.109639	0.113197	0.089447
O20	O	1.442973	0.446530	0.422780
O21	O	1.776306	0.779864	0.756114
Cu22	Cu	0.986478	0.120762	0.105746
Cu23	Cu	1.319811	0.454095	0.439079
Cu24	Cu	1.653145	0.787428	0.772413
Cu25	Cu	0.997949	0.109273	-0.105518
Cu26	Cu	1.331283	0.442607	0.227815
Cu27	Cu	1.664616	0.775940	0.561148
O28	O	0.980660	0.242153	0.089443
O29	O	1.313993	0.575487	0.422776
O30	O	1.647326	0.908820	0.756110
C31	C	0.838644	0.121140	0.000098
C32	C	1.171978	0.454474	0.333431
C33	C	1.505311	0.787807	0.666765
C34	C	0.745399	0.119478	0.000088
C35	C	1.078733	0.452811	0.333421
C36	C	1.412066	0.786144	0.666754
C37	C	0.530559	0.035572	0.000103
C38	C	0.863893	0.368905	0.333436
C39	C	1.197226	0.702238	0.666769
C40	C	0.474314	0.069746	-0.087974
C41	C	0.807647	0.403079	0.245359
C42	C	1.140980	0.736412	0.578692
C43	C	0.574673	0.116471	0.000100
C44	C	0.908007	0.449804	0.333433
C45	C	1.241340	0.783138	0.666767
C46	C	0.464772	0.079342	0.088152
C47	C	0.798106	0.412676	0.421486
C48	C	1.131439	0.746009	0.754819
C49	C	0.409760	0.113561	0.000117
C50	C	0.743094	0.446894	0.333450
C51	C	1.076427	0.780228	0.666784
C52	C	0.519660	0.150663	-0.088050
C53	C	0.852993	0.483996	0.245284
C54	C	1.186326	0.817330	0.578617
C55	C	0.510121	0.160253	0.088156
C56	C	0.843454	0.493586	0.421489
C57	C	1.176787	0.826919	0.754823
C58	C	0.453894	0.194484	0.000057
C59	C	0.787227	0.527818	0.333391
C60	C	1.120560	0.861151	0.666724
C61	C	0.669676	0.118145	0.000090
C62	C	1.003009	0.451478	0.333423
C63	C	1.336343	0.784812	0.666756
C64	C	0.314759	0.111893	0.000120
C65	C	0.648093	0.445226	0.333453
C66	C	0.981426	0.778559	0.666786
C67	C	0.998370	-0.038556	0.000101
C68	C	1.331703	0.294777	0.333434
C69	C	1.665037	0.628110	0.666768
C70	C	0.996728	-0.131806	0.000087
C71	C	1.330061	0.201528	0.333420
C72	C	1.663394	0.534861	0.666754
C73	C	1.072647	-0.367564	0.000115
C74	C	1.405980	-0.034231	0.333449
C75	C	1.739313	0.299103	0.666782
C76	C	1.036489	-0.422922	-0.087968
C77	C	1.369822	-0.089588	0.245365
C78	C	1.703155	0.243745	0.578699
C79	C	0.993683	-0.302526	0.000100
C80	C	1.327016	0.030807	0.333433
C81	C	1.660350	0.364141	0.666767
C82	C	1.026907	-0.413320	0.088159
C83	C	1.360240	-0.079987	0.421492
C84	C	1.693573	0.253346	0.754825
C85	C	0.990748	-0.467435	0.000117
C86	C	1.324081	-0.134101	0.333450
C87	C	1.657414	0.199232	0.666784
C88	C	0.957550	-0.356659	-0.088056
C89	C	1.290883	-0.023326	0.245277
C90	C	1.624217	0.310007	0.578611
C91	C	0.947975	-0.347050	0.088150
C92	C	1.281309	-0.013717	0.421483
C93	C	1.614642	0.319616	0.754816
C94	C	0.911760	-0.402377	0.000045
C95	C	1.245094	-0.069043	0.333378
C96	C	1.578427	0.264290	0.666712
C97	C	0.995376	-0.207527	0.000089
C98	C	1.328710	0.125807	0.333422
C99	C	1.662043	0.459140	0.666756
C100	C	0.989048	-0.562431	0.000120
C101	C	1.322382	-0.229098	0.333453
C102	C	1.655715	0.104235	0.666787
C103	C	1.145783	0.108894	0.000127
C104	C	1.479116	0.442228	0.333461
C105	C	1.812450	0.775561	0.666794
C106	C	1.239028	0.110557	0.000131
C107	C	1.572362	0.443890	0.333464
C108	C	1.905695	0.777224	0.666797
C109	C	0.986058	0.268591	0.000124
C110	C	1.319391	0.601924	0.333458
C111	C	1.652724	0.935258	0.666791
C112	C	0.987700	0.361840	0.000131
C113	C	1.321033	0.695173	0.333464
C114	C	1.654367	1.028507	0.666798
N115	N	0.978416	0.128841	0.254338
N116	N	1.311749	0.462175	0.587671
N117	N	1.645082	0.795508	0.921005
N118	N	1.006018	0.101187	-0.254110
N119	N	1.339352	0.434520	0.079223
N120	N	1.672685	0.767854	0.412556
C121	C	0.966556	0.140734	0.473453
C122	C	1.299889	0.474067	0.806786
C123	C	1.633222	0.807401	1.140120
C124	C	1.017875	0.089297	0.526782
C125	C	1.351209	0.422630	0.860115
C126	C	1.684542	0.755964	1.193448
C127	C	1.011276	0.095914	0.648705
C128	C	1.344610	0.429248	0.982038
C129	C	1.677943	0.762581	1.315371
C130	C	0.973154	0.134118	0.351519
C131	C	1.306487	0.467451	0.684852
C132	C	1.639820	0.800785	1.018186
H133	H	0.526201	0.198491	0.162627
H134	H	0.859534	0.531824	0.495960
H135	H	1.192868	0.865158	0.829294
Br136	Br	0.424566	0.029039	0.212257
Br137	Br	0.757900	0.362372	0.545591
Br138	Br	1.091233	0.695705	0.878924
Br139	Br	1.186019	-0.341519	-0.000013
Br140	Br	1.519353	-0.008186	0.333320
Br141	Br	1.852686	0.325147	0.666654
H142	H	1.066768	0.040291	0.480870
H143	H	1.400101	0.373624	0.814204
H144	H	1.733435	0.706958	1.147537
H145	H	0.543688	0.180801	-0.162593
H146	H	0.877021	0.514134	0.170740
H147	H	1.210355	0.847468	0.504074
H148	H	0.917667	0.189738	0.519359
H149	H	1.251001	0.523071	0.852692
H150	H	1.584334	0.856405	1.186025
H151	H	0.910613	-0.314040	0.162614
H152	H	1.243946	0.019293	0.495948
H153	H	1.577280	0.352626	0.829281
H154	H	1.073880	-0.455917	-0.162430
H155	H	1.407213	-0.122583	0.170903
H156	H	1.740546	0.210750	0.504237
H157	H	0.928269	-0.331894	-0.162603
H158	H	1.261602	0.001440	0.170730
H159	H	1.594936	0.334773	0.504064
H160	H	0.420724	0.261691	0.000013
H161	H	0.754057	0.595024	0.333346
H162	H	1.087390	0.928358	0.666679
H163	H	1.056228	-0.438202	0.162621
H164	H	1.389561	-0.104869	0.495955
H165	H	1.722894	0.228464	0.829288
Br166	Br	0.586105	-0.076356	-0.000042
Br167	Br	0.919439	0.256977	0.333291
Br168	Br	1.252772	0.590310	0.666624
H169	H	0.458254	0.031479	-0.162442
H170	H	0.791587	0.364812	0.170891
H171	H	1.124921	0.698146	0.504225
H172	H	0.843693	-0.417845	-0.000010
H173	H	1.177026	-0.084512	0.333323
H174	H	1.510359	0.248821	0.666656
