data_functionalizedCrystal
_audit_creation_method	'MofGen! by Chris Wilmer'
_symmetry_space_group_name_H-M	'P1'
_symmetry_Int_Tables_number	1
_symmetry_cell_setting	triclinic
loop_
_symmetry_equiv_pos_as_xyz
  x,y,z
_cell_length_a	14.044220
_cell_length_b	14.853569
_cell_length_c	13.330367
_cell_angle_alpha	89.994419
_cell_angle_beta	89.994700
_cell_angle_gamma	88.412221
loop_
_atom_site_label
_atom_site_type_symbol
_atom_site_fract_x
_atom_site_fract_y
_atom_site_fract_z
O1	O	0.123774	1.206174	-0.083380
O2	O	0.623774	1.706174	0.416620
O3	O	0.138516	0.944883	-0.083393
O4	O	0.638516	1.444883	0.416607
O5	O	-0.006845	1.071607	-0.083377
O6	O	0.493155	1.571607	0.416623
O7	O	0.269135	1.079451	-0.083396
O8	O	0.769135	1.579451	0.416604
O9	O	-0.006848	1.071586	0.083471
O10	O	0.493152	1.571586	0.583471
O11	O	0.138513	0.944863	0.083455
O12	O	0.638513	1.444863	0.583455
O13	O	0.123771	1.206154	0.083467
O14	O	0.623771	1.706154	0.583467
Cu15	Cu	0.131141	1.075506	0.098695
Cu16	Cu	0.631141	1.575506	0.598695
Cu17	Cu	0.131145	1.075531	-0.098621
Cu18	Cu	0.631145	1.575531	0.401379
O19	O	0.269131	1.079430	0.083451
O20	O	0.769131	1.579430	0.583451
C21	C	0.137846	0.911231	0.000030
C22	C	0.637846	1.411231	0.500030
C23	C	0.135844	0.810989	0.000025
C24	C	0.635844	1.310989	0.500025
C25	C	0.048557	0.767697	0.000028
C26	C	0.548557	1.267697	0.500028
C27	C	0.221249	0.760089	0.000027
C28	C	0.721249	1.260089	0.500027
C29	C	0.219371	0.665906	0.000028
C30	C	0.719371	1.165906	0.500028
C31	C	0.132084	0.622614	0.000031
C32	C	0.632084	1.122614	0.500031
C33	C	0.046675	0.673505	0.000032
C34	C	0.546675	1.173505	0.500032
C35	C	0.304778	0.615009	0.000037
C36	C	0.804778	1.115009	0.500037
C37	C	0.302903	0.520820	0.000039
C38	C	0.802903	1.020820	0.500039
C39	C	0.215615	0.477526	0.000035
C40	C	0.715615	0.977526	0.500035
C41	C	0.130203	0.528423	0.000035
C42	C	0.630203	1.028423	0.500035
C43	C	0.042916	0.485131	0.000038
C44	C	0.542916	0.985131	0.500038
C45	C	-0.042497	0.536026	0.000031
C46	C	0.457503	1.036026	0.500031
C47	C	-0.040613	0.630211	0.000027
C48	C	0.459387	1.130211	0.500027
C49	C	0.213730	0.383340	0.000038
C50	C	0.713730	0.883340	0.500038
C51	C	0.041034	0.390939	0.000042
C52	C	0.541034	0.890939	0.500042
C53	C	-0.042165	1.068163	0.000047
C54	C	0.457835	1.568163	0.500047
C55	C	-0.147405	1.057921	0.000048
C56	C	0.352595	1.557921	0.500048
C57	C	-0.340091	1.039197	0.000033
C58	C	0.159909	1.539197	0.500033
C59	C	-0.397628	1.111836	0.000033
C60	C	0.102372	1.611836	0.500033
C61	C	-0.504845	1.101417	0.000025
C62	C	-0.004845	1.601417	0.500025
C63	C	-0.232864	1.049614	0.000041
C64	C	0.267136	1.549614	0.500041
C65	C	0.304452	1.082874	0.000025
C66	C	0.804452	1.582874	0.500025
C67	C	0.409691	1.093116	0.000018
C68	C	0.909691	1.593116	0.500018
C69	C	0.124440	1.239806	0.000043
C70	C	0.624440	1.739806	0.500043
C71	C	0.126443	1.340048	0.000041
C72	C	0.626443	1.840048	0.500041
N73	N	0.131138	1.075496	0.237477
N74	N	0.631138	1.575496	0.737477
N75	N	0.131141	1.075547	-0.237402
N76	N	0.631141	1.575547	0.262598
C77	C	0.195486	1.019413	0.710093
C78	C	0.695486	1.519413	1.210093
C79	C	0.066797	1.131672	0.710075
C80	C	0.566797	1.631672	1.210075
C81	C	0.066794	1.131662	0.605056
C82	C	0.566794	1.631662	1.105056
C83	C	0.131139	1.075527	0.552551
C84	C	0.631139	1.575527	1.052551
C85	C	0.195487	1.019402	0.605065
C86	C	0.695487	1.519402	1.105065
C87	C	0.002455	1.187792	0.552535
C88	C	0.502455	1.687792	1.052535
C89	C	0.002450	1.187784	0.447510
C90	C	0.502450	1.687784	0.947510
C91	C	0.066791	1.131644	0.395004
C92	C	0.566791	1.631644	0.895004
C93	C	0.131140	1.075517	0.447523
C94	C	0.631140	1.575517	0.947523
C95	C	0.195485	1.019382	0.395018
C96	C	0.695485	1.519382	0.895018
C97	C	0.259830	0.963249	0.447536
C98	C	0.759830	1.463249	0.947536
C99	C	0.259828	0.963262	0.552558
C100	C	0.759828	1.463262	1.052558
C101	C	0.066793	1.131631	0.289982
C102	C	0.566793	1.631631	0.789982
C103	C	0.195486	1.019372	0.289990
C104	C	0.695486	1.519372	0.789990
H105	H	-0.113567	0.500765	0.000026
H106	H	0.386433	1.000765	0.500026
H107	H	-0.371353	0.969190	0.000027
H108	H	0.128647	1.469190	0.500027
F109	F	-0.356767	1.203348	0.000045
F110	F	0.143233	1.703348	0.500045
H111	H	-0.030046	0.355698	0.000039
H112	H	0.469954	0.855698	0.500039
F113	F	0.393806	0.466662	0.000041
F114	F	0.893806	0.966662	0.500041
H115	H	0.283272	0.341906	0.000052
H116	H	0.783272	0.841906	0.500052
H117	H	0.375842	0.650264	0.000041
H118	H	0.875842	1.150264	0.500041
H119	H	0.247880	0.973656	0.247247
H120	H	0.747880	1.473656	0.747247
H121	H	-0.049929	1.233500	0.595288
H122	H	0.450071	1.733500	1.095288
F123	F	0.328314	0.903514	0.391645
F124	F	0.828314	1.403514	0.891645
F125	F	-0.066033	1.247522	0.391624
F126	F	0.433967	1.747522	0.891624
F127	F	0.328306	0.903528	0.608454
F128	F	0.828306	1.403528	1.108454
H129	H	0.247873	0.973707	0.752855
H130	H	0.747873	1.473707	1.252855
F131	F	-0.001674	1.191418	0.765954
F132	F	0.498326	1.691418	1.265954
H133	H	-0.020984	0.809140	0.000018
H134	H	0.479016	1.309140	0.500018
H135	H	0.014408	1.177338	0.247227
H136	H	0.514408	1.677338	0.747227
H137	H	-0.110151	0.671658	0.000024
H138	H	0.389849	1.171658	0.500024
F139	F	0.314141	0.806166	0.000027
F140	F	0.814141	1.306166	0.500027
