data_functionalizedCrystal
_audit_creation_method	'MofGen! by Chris Wilmer'
_symmetry_space_group_name_H-M	'P1'
_symmetry_Int_Tables_number	1
_symmetry_cell_setting	triclinic
loop_
_symmetry_equiv_pos_as_xyz
  x,y,z
_cell_length_a	16.109301
_cell_length_b	13.930277
_cell_length_c	16.109301
_cell_angle_alpha	90.005979
_cell_angle_beta	83.461481
_cell_angle_gamma	90.004498
loop_
_atom_site_label
_atom_site_type_symbol
_atom_site_fract_x
_atom_site_fract_y
_atom_site_fract_z
O1	O	1.103135	0.079773	0.106867
O2	O	0.861073	0.079789	0.120166
O3	O	0.988754	0.079771	-0.007515
O4	O	0.975455	0.079791	0.234547
O5	O	0.988736	-0.079891	-0.007518
O6	O	0.861056	-0.079873	0.120163
O7	O	1.103117	-0.079889	0.106864
Zn8	Zn	0.982084	-0.105231	0.113513
Zn9	Zn	0.982107	0.105131	0.113517
O10	O	0.975437	-0.079871	0.234544
C11	C	0.830090	-0.000040	0.119626
C12	C	0.737794	-0.000035	0.118011
C13	C	0.515522	-0.000040	0.190018
C14	C	0.428801	-0.000046	0.188494
C15	C	0.448676	-0.000055	0.037006
C16	C	0.535394	-0.000055	0.038530
C17	C	0.568815	-0.000043	0.115039
C18	C	0.395376	-0.000049	0.111990
C19	C	0.301350	-0.000055	0.110337
C20	C	0.662847	-0.000038	0.116693
N21	N	0.982074	-0.248797	0.113510
C22	C	0.925568	-0.701058	0.170031
C23	C	1.038669	-0.701043	0.056995
C24	C	1.038659	-0.600548	0.056993
C25	C	0.982104	-0.550302	0.113511
C26	C	0.925558	-0.600553	0.170032
C27	C	1.095210	-0.550290	0.000478
C28	C	1.095203	-0.449788	0.000474
C29	C	1.038642	-0.399541	0.056989
C30	C	0.982094	-0.449797	0.113512
C31	C	0.925538	-0.399552	0.170030
C32	C	0.868985	-0.449807	0.226550
C33	C	0.868998	-0.550306	0.226547
C34	C	1.038629	-0.299042	0.056992
C35	C	0.925528	-0.299047	0.170031
C36	C	1.134101	-0.000057	0.107404
C37	C	1.226397	-0.000057	0.109019
C38	C	0.988206	-0.000061	-0.038491
C39	C	0.986591	-0.000062	-0.130786
N40	N	0.982123	0.248697	0.113513
C41	C	1.058599	-0.000051	-0.353059
C42	C	1.057075	-0.000043	-0.439779
C43	C	0.905586	-0.000037	-0.419905
C44	C	0.907111	-0.000038	-0.333186
C45	C	0.983620	-0.000050	-0.299766
C46	C	0.980571	-0.000041	-0.473205
C47	C	0.978918	-0.000032	-0.567231
C48	C	0.985273	-0.000057	-0.205734
C49	C	0.975984	-0.000037	0.265521
C50	C	0.977600	-0.000030	0.357816
H51	H	0.385413	-0.000045	0.249550
O52	O	0.416071	-0.000016	-0.037239
C53	C	0.291285	-0.000072	-0.106727
C54	C	0.328095	-0.000096	-0.022586
H55	H	0.220152	-0.000157	-0.094910
H56	H	0.313181	0.066760	-0.143788
H57	H	0.313279	-0.066877	-0.143781
H58	H	0.306117	0.066663	0.014535
H59	H	0.306203	-0.066972	0.014411
H60	H	0.822955	-0.591230	0.272564
H61	H	0.822940	-0.408886	0.272571
O62	O	0.548126	0.000009	0.264263
C63	C	0.672910	-0.000042	0.333755
C64	C	0.636101	-0.000073	0.249613
H65	H	0.744043	-0.000129	0.321939
H66	H	0.651022	0.066793	0.370822
H67	H	0.650906	-0.066844	0.370801
H68	H	0.658089	0.066683	0.212498
H69	H	0.657985	-0.066952	0.212609
O70	O	0.587288	-0.000097	-0.034232
C71	C	0.729694	-0.000042	-0.099013
C72	C	0.671021	-0.000014	-0.016554
H73	H	0.797404	0.000045	-0.084749
H74	H	0.717605	-0.066877	-0.136680
H75	H	0.717501	0.066760	-0.136661
H76	H	0.683179	-0.066770	0.021161
H77	H	0.683122	0.066865	0.021050
O78	O	0.831249	0.000137	-0.452333
C79	C	0.701292	0.082828	-0.461836
C80	C	0.785459	0.082764	-0.425074
H81	H	0.664239	0.149615	-0.439797
H82	H	0.713033	0.082888	-0.532974
H83	H	0.664270	0.015981	-0.439906
H84	H	0.822524	0.149600	-0.446940
H85	H	0.773659	0.082654	-0.353940
H86	H	0.846050	-0.000035	-0.289792
O87	O	1.129833	-0.000003	-0.491666
C88	C	1.194626	-0.000051	-0.634068
C89	C	1.112163	-0.000078	-0.575402
H90	H	1.180369	-0.000132	-0.701780
H91	H	1.232293	0.066780	-0.621970
H92	H	1.232271	-0.066856	-0.621876
H93	H	1.074450	0.066682	-0.587559
H94	H	1.074559	-0.066953	-0.587512
O95	O	0.870519	-0.749828	0.224848
C96	C	0.725946	-0.780550	0.273545
C97	C	0.788197	-0.725274	0.211408
H98	H	0.659375	-0.760704	0.262712
H99	H	0.735590	-0.861022	0.263836
H100	H	0.736796	-0.760795	0.340135
H101	H	0.777384	-0.744949	0.144793
H102	H	0.778537	-0.644816	0.221189
H103	H	1.084678	-0.258129	0.010978
O104	O	0.870557	-0.250391	0.225015
C105	C	0.758339	-0.261012	0.337096
C106	C	0.820560	-0.316234	0.274886
H107	H	0.717888	-0.314222	0.377421
H108	H	0.794170	-0.213978	0.378704
H109	H	0.716855	-0.213944	0.301172
H110	H	0.862060	-0.363354	0.310742
H111	H	0.784677	-0.363207	0.233279
H112	H	1.084719	-0.741956	0.010984
O113	O	1.150065	-0.599244	-0.054387
C114	C	1.200232	-0.754069	-0.104447
C115	C	1.138049	-0.698743	-0.042278
H116	H	1.190550	-0.834523	-0.094667
H117	H	1.189424	-0.734392	-0.171063
H118	H	1.266806	-0.734241	-0.093597
H119	H	1.071451	-0.718541	-0.053051
H120	H	1.148930	-0.718425	0.024316
O121	O	1.150162	-0.401124	-0.054511
C122	C	1.262376	-0.411724	-0.166598
C123	C	1.200170	-0.466957	-0.104384
H124	H	1.302835	-0.464926	-0.206925
H125	H	1.226531	-0.364718	-0.208203
H126	H	1.303853	-0.364627	-0.130677
H127	H	1.158677	-0.514105	-0.140238
H128	H	1.236066	-0.513903	-0.062780
H129	H	1.120897	-0.000059	-0.325851
