data_functionalizedCrystal
_audit_creation_method	'MofGen! by Chris Wilmer'
_symmetry_space_group_name_H-M	'P1'
_symmetry_Int_Tables_number	1
_symmetry_cell_setting	triclinic
loop_
_symmetry_equiv_pos_as_xyz
  x,y,z
_cell_length_a	15.944551
_cell_length_b	15.995350
_cell_length_c	14.472310
_cell_angle_alpha	90.003052
_cell_angle_beta	90.008536
_cell_angle_gamma	96.504444
loop_
_atom_site_label
_atom_site_type_symbol
_atom_site_fract_x
_atom_site_fract_y
_atom_site_fract_z
O1	O	-1.114529	0.107983	-0.076736
O2	O	-0.869979	0.121297	-0.076758
O3	O	-0.998939	-0.007247	-0.076750
O4	O	-0.985569	0.236527	-0.076744
O5	O	-0.998906	-0.007240	0.076932
O6	O	-0.869946	0.121304	0.076924
O7	O	-1.114496	0.107990	0.076946
Cu8	Cu	-0.992218	0.114648	0.090967
Cu9	Cu	-0.992257	0.114639	-0.090779
O10	O	-0.985536	0.236535	0.076938
C11	C	-0.838668	0.120748	0.000080
C12	C	-0.745422	0.119091	0.000071
C13	C	-0.998370	-0.038438	0.000088
C14	C	-0.996712	-0.131389	0.000079
C15	C	-1.145806	0.108539	0.000106
C16	C	-1.239052	0.110196	0.000109
C17	C	-0.530570	0.035452	0.000087
C18	C	-0.469564	0.074288	-0.075685
C19	C	-0.574697	0.116093	0.000082
C20	C	-0.469554	0.074314	0.075833
C21	C	-0.409784	0.113192	0.000097
C22	C	-0.514919	0.154950	-0.075753
C23	C	-0.514915	0.154966	0.075834
C24	C	-0.453926	0.193859	0.000043
C25	C	-0.669699	0.117762	0.000073
C26	C	-0.314783	0.111529	0.000099
C27	C	-0.986105	0.267726	0.000098
C28	C	-0.987762	0.360676	0.000101
N29	N	-0.992196	0.114654	0.218798
C30	C	-0.993713	0.698424	0.000087
C31	C	-1.085556	0.650995	-0.000248
C32	C	-1.083899	0.554305	0.000103
C33	C	-0.990761	0.530863	0.000093
C34	C	-0.945442	0.571948	0.087846
C35	C	-0.947749	0.668584	0.087914
C36	C	-0.945890	0.668923	-0.086851
C37	C	-0.945912	0.571977	-0.088006
C38	C	-0.989088	0.436166	0.000100
C39	C	-0.995384	0.793122	0.000086
N40	N	-0.992285	0.114627	-0.218610
C41	C	-0.992256	0.114636	0.592890
C42	C	-0.923020	0.183187	0.553719
C43	C	-0.923180	0.183437	0.446631
C44	C	-0.992226	0.114645	0.407298
C45	C	-1.079868	0.133731	0.446144
C46	C	-1.079479	0.134219	0.553266
C47	C	-0.974631	0.026795	0.553415
C48	C	-0.972621	0.027381	0.446287
C49	C	-0.992214	0.114648	0.302410
C50	C	-0.992273	0.114634	0.697778
H51	H	-0.563907	-0.031473	-0.000008
H52	H	-0.449470	0.040177	-0.139747
H53	H	-0.877995	0.556606	-0.093315
F54	F	-0.990908	0.692519	0.173664
F55	F	-0.937535	0.267912	0.588880
H56	H	-1.025121	-0.024218	0.578744
F57	F	-1.034258	-0.042422	0.411305
H58	H	-0.908150	0.012896	0.420898
H59	H	-0.534918	0.189029	-0.139882
H60	H	-0.979003	0.544673	-0.152925
F61	F	-1.100657	0.216510	0.411072
H62	H	-0.420764	0.260854	0.000002
H63	H	-0.535030	0.189048	0.139899
F64	F	-1.133309	0.676615	0.081554
H65	H	-1.122274	0.669512	-0.063187
F66	F	-0.443285	0.029720	0.159562
H67	H	-1.119526	0.525877	-0.062798
H68	H	-1.119731	0.526449	0.063125
H69	H	-0.880319	0.700828	0.091897
F70	F	-0.857380	0.710427	-0.087633
F71	F	-0.937864	0.268646	0.413125
H72	H	-0.877016	0.557819	0.091102
F73	F	-0.986552	0.534871	0.173217
F74	F	-1.148820	0.070207	0.412845
F75	F	-0.985151	0.695770	-0.173791
F76	F	-0.838017	0.168615	0.412302
F77	F	-0.837589	0.168557	0.587399
H78	H	-1.095010	0.198280	0.578245
H79	H	-1.132608	0.086259	0.579175
H80	H	-0.912110	0.008443	0.580476
