data_functionalizedCrystal
_audit_creation_method	'MofGen! by Chris Wilmer'
_symmetry_space_group_name_H-M	'P1'
_symmetry_Int_Tables_number	1
_symmetry_cell_setting	triclinic
loop_
_symmetry_equiv_pos_as_xyz
  x,y,z
_cell_length_a	17.640280
_cell_length_b	16.959455
_cell_length_c	16.959447
_cell_angle_alpha	90.017850
_cell_angle_beta	78.772658
_cell_angle_gamma	101.204785
loop_
_atom_site_label
_atom_site_type_symbol
_atom_site_fract_x
_atom_site_fract_y
_atom_site_fract_z
Zn1	Zn	-0.314766	-1.272086	-0.383369
Zn2	Zn	-0.446955	-1.298745	-0.224498
Zn3	Zn	-0.314786	-1.139912	-0.251200
Zn4	Zn	-0.446890	-1.166609	-0.356647
O5	O	-0.380849	-1.219338	-0.303928
O6	O	-0.332320	-1.386237	-0.362302
O7	O	-0.429457	-1.277660	-0.117422
O8	O	-0.204176	-1.135115	-0.291090
O9	O	-0.429438	-1.405824	-0.245580
O10	O	-0.204161	-1.232222	-0.388194
O11	O	-0.332354	-1.160966	-0.137040
O12	O	-0.332291	-1.032839	-0.265180
O13	O	-0.429328	-1.180616	-0.470810
O14	O	-0.429348	-1.052453	-0.342652
O15	O	-0.332257	-1.258109	-0.490442
O16	O	-0.557554	-1.303547	-0.219670
O17	O	-0.557506	-1.206467	-0.316760
C18	C	-0.380815	-1.013965	-0.303914
C19	C	-0.380820	-0.926109	-0.303923
C20	C	-0.330245	-0.544388	-0.263697
C21	C	-0.431468	-0.564894	-0.344181
C22	C	-0.431460	-0.647438	-0.344179
C23	C	-0.380844	-0.678461	-0.303935
C24	C	-0.330237	-0.626940	-0.263692
C25	C	-0.482071	-0.698966	-0.384414
C26	C	-0.482066	-0.781516	-0.384413
C27	C	-0.431446	-0.812540	-0.344173
C28	C	-0.380836	-0.761013	-0.303930
C29	C	-0.330221	-0.792037	-0.263685
C30	C	-0.279607	-0.740511	-0.223446
C31	C	-0.279617	-0.657964	-0.223452
C32	C	-0.431435	-0.895086	-0.344167
C33	C	-0.330213	-0.874588	-0.263680
C34	C	-0.586209	-1.260819	-0.262435
C35	C	-0.674063	-1.278637	-0.244710
C36	C	-0.963018	-1.084301	-0.438869
C37	C	-1.045570	-1.101045	-0.422188
C38	C	-1.045554	-1.202197	-0.321191
C39	C	-0.963000	-1.185464	-0.337866
C40	C	-0.921739	-1.126515	-0.396705
C41	C	-0.921721	-1.227678	-0.295702
C42	C	-0.839174	-1.210943	-0.312372
C43	C	-0.797907	-1.151995	-0.371207
C44	C	-0.839192	-1.109780	-0.413375
C45	C	-0.962984	-1.286623	-0.236859
C46	C	-0.921704	-1.328837	-0.194695
C47	C	-0.839156	-1.312107	-0.211369
C48	C	-0.797889	-1.253158	-0.270204
C49	C	-0.797871	-1.354321	-0.169201
C50	C	-0.715325	-1.337586	-0.185871
C51	C	-0.715343	-1.236423	-0.286874
C52	C	-0.174687	-1.177717	-0.345601
C53	C	-0.086833	-1.159980	-0.363360
C54	C	-0.380784	-1.219367	-0.510110
C55	C	-0.380756	-1.219379	-0.597972
C56	C	-0.380874	-0.425511	-0.303941
C57	C	-0.380861	-0.513365	-0.303942
C58	C	-0.330115	-1.158675	-0.979685
C59	C	-0.431230	-1.280189	-0.959245
C60	C	-0.431248	-1.280180	-0.876695
C61	C	-0.380700	-1.219416	-0.845637
C62	C	-0.330133	-1.158662	-0.897128
C63	C	-0.481820	-1.340928	-0.825196
C64	C	-0.481841	-1.340920	-0.742641
C65	C	-0.431288	-1.280158	-0.711582
C66	C	-0.380719	-1.219402	-0.763079
C67	C	-0.330170	-1.158639	-0.732021
C68	C	-0.279596	-1.097885	-0.783518
C69	C	-0.279580	-1.097900	-0.866069
C70	C	-0.431304	-1.280143	-0.629031
C71	C	-0.330189	-1.158625	-0.649464
C72	C	-0.380858	-1.219343	-0.098561
C73	C	-0.380663	-1.219439	-0.010744
H74	H	-0.238411	-0.616005	-0.190691
H75	H	-1.079160	-1.250192	-0.273282
H76	H	-0.831479	-1.402312	-0.121289
H77	H	-0.955311	-1.376832	-0.146786
H78	H	-0.238407	-1.048437	-0.908004
C79	C	-0.274571	-0.487711	-0.219437
N80	N	-0.232638	-0.445020	-0.186100
H81	H	-0.681715	-1.371961	-0.151536
C82	C	-0.274580	-1.091779	-0.615307
N83	N	-0.232697	-1.041429	-0.589581
H84	H	-0.288990	-0.899840	-0.230914
H85	H	-0.681746	-1.188426	-0.334793
H86	H	-0.522982	-1.390391	-0.850489
H87	H	-0.238399	-0.765781	-0.190675
C88	C	-0.223992	-1.031050	-0.749343
N89	N	-0.182109	-0.980713	-0.723600
C90	C	-0.537447	-1.407770	-0.686008
N91	N	-0.579320	-1.458130	-0.643353
C92	C	-0.793800	-1.044921	-0.478091
N93	N	-0.759610	-0.996066	-0.526826
H94	H	-0.472681	-0.539630	-0.376940
C95	C	-0.537747	-0.664835	-0.428676
N96	N	-0.579682	-0.639124	-0.462018
C97	C	-0.486935	-1.346965	-0.572388
N98	N	-0.528838	-1.397300	-0.529726
H99	H	-0.523279	-0.823461	-0.417178
H100	H	-0.472647	-0.937035	-0.376926
H101	H	-0.288937	-1.109213	-1.021618
H102	H	-0.472390	-1.329656	-0.984536
H103	H	-0.929421	-1.036304	-0.486787
C104	C	-0.707103	-1.133586	-0.389545
N105	N	-0.638709	-1.119722	-0.403358
H106	H	-1.079177	-1.066675	-0.456537
H107	H	-1.030198	-1.300249	-0.223290
