data_functionalizedCrystal
_audit_creation_method	'MofGen! by Chris Wilmer'
_symmetry_space_group_name_H-M	'P1'
_symmetry_Int_Tables_number	1
_symmetry_cell_setting	triclinic
loop_
_symmetry_equiv_pos_as_xyz
  x,y,z
_cell_length_a	14.044220
_cell_length_b	14.971482
_cell_length_c	13.101032
_cell_angle_alpha	86.633984
_cell_angle_beta	86.332749
_cell_angle_gamma	91.599257
loop_
_atom_site_label
_atom_site_type_symbol
_atom_site_fract_x
_atom_site_fract_y
_atom_site_fract_z
O1	O	-0.118296	1.201186	-0.085199
O2	O	-0.133094	0.941952	-0.085204
O3	O	0.012294	1.067678	-0.085197
O4	O	-0.263684	1.075460	-0.085206
O5	O	0.001851	1.058646	0.085233
O6	O	-0.143536	0.932920	0.085226
O7	O	-0.128739	1.192154	0.085230
Zn8	Zn	-0.137795	1.061103	0.112287
Zn9	Zn	-0.124037	1.073003	-0.112261
O10	O	-0.274126	1.066428	0.085224
C11	C	-0.137654	0.904059	0.000010
C12	C	-0.135672	0.804606	0.000008
C13	C	-0.140431	0.752964	0.092911
C14	C	-0.138555	0.659518	0.092912
C15	C	-0.131926	0.617714	0.000010
C16	C	-0.127163	0.669363	-0.092900
C17	C	-0.129033	0.762808	-0.092900
C18	C	-0.123269	0.474594	-0.092893
C19	C	-0.121400	0.381142	-0.092894
C20	C	-0.132790	0.371304	0.092919
C21	C	-0.134660	0.464749	0.092919
C22	C	-0.129899	0.516391	0.000009
C23	C	-0.304223	1.074351	0.000007
C24	C	-0.409460	1.084512	0.000004
C25	C	-0.602142	1.103089	0.000009
C26	C	-0.659695	1.031022	0.000008
C27	C	-0.766910	1.041358	0.000011
C28	C	-0.494917	1.092754	0.000006
C29	C	0.042391	1.059755	0.000017
C30	C	0.147628	1.049594	0.000013
C31	C	-0.124179	1.230047	0.000014
C32	C	-0.126159	1.329501	0.000009
N33	N	-0.147185	1.052988	0.265536
C34	C	-0.101874	1.092156	0.525448
C35	C	-0.159959	1.041955	0.474572
C36	C	-0.152850	1.048095	0.358254
C37	C	-0.108982	1.086017	0.641777
N38	N	-0.114652	1.081121	0.734490
H39	H	-0.145837	0.786993	0.168563
N40	N	-0.032798	1.151849	0.470492
N41	N	-0.027052	1.156813	0.374710
H42	H	0.021731	1.198973	0.335885
H43	H	-0.628446	0.961560	0.000008
H44	H	-0.142414	0.617476	0.168563
H45	H	-0.140064	0.498782	0.168568
H46	H	-0.633390	1.172544	0.000014
H47	H	-0.119392	0.516638	-0.168551
N48	N	-0.137669	0.318544	0.187817
N49	N	-0.136005	0.235112	0.187808
H50	H	-0.139460	0.197845	0.254827
N51	N	-0.229037	0.982254	0.529528
N52	N	-0.234790	0.977286	0.625311
H53	H	-0.283574	0.935125	0.664129
H54	H	-0.116003	0.347109	-0.168543
H55	H	-0.125160	0.804854	-0.168551
N56	N	-0.120371	0.626665	-0.187798
N57	N	-0.051286	0.578543	-0.208522
H58	H	-0.046489	0.548388	-0.275546
