data_functionalizedCrystal
_audit_creation_method	'MofGen! by Chris Wilmer'
_symmetry_space_group_name_H-M	'P1'
_symmetry_Int_Tables_number	1
_symmetry_cell_setting	triclinic
loop_
_symmetry_equiv_pos_as_xyz
  x,y,z
_cell_length_a	17.699083
_cell_length_b	15.944551
_cell_length_c	16.176319
_cell_angle_alpha	89.992246
_cell_angle_beta	89.998611
_cell_angle_gamma	83.390877
loop_
_atom_site_label
_atom_site_type_symbol
_atom_site_fract_x
_atom_site_fract_y
_atom_site_fract_z
O1	O	1.004260	0.106222	-0.068632
O2	O	0.783905	0.120042	-0.068660
O3	O	0.900100	-0.009156	-0.068638
O4	O	0.888065	0.235419	-0.068654
O5	O	0.900084	-0.009164	0.068855
O6	O	0.783889	0.120033	0.068833
O7	O	1.004244	0.106214	0.068861
Cu8	Cu	0.894065	0.113123	0.081401
Cu9	Cu	0.894084	0.113133	-0.081200
O10	O	0.888049	0.235411	0.068839
C11	C	0.755700	0.119542	0.000083
C12	C	0.671679	0.118057	0.000073
C13	C	0.623187	0.193893	0.000068
C14	C	0.544242	0.192492	0.000079
C15	C	0.513789	0.115254	0.000089
C16	C	0.562287	0.039412	0.000096
C17	C	0.641231	0.040814	0.000091
C18	C	0.243914	0.033758	0.000117
C19	C	0.164964	0.032362	0.000119
C20	C	0.146925	0.185436	0.000105
C21	C	0.225869	0.186837	0.000100
C22	C	0.274360	0.110996	0.000112
C23	C	0.359962	0.112516	0.000102
C24	C	0.428189	0.113733	0.000093
C25	C	0.899593	-0.040453	0.000109
C26	C	0.898095	-0.133696	0.000109
C27	C	0.822492	-0.348393	0.000088
C28	C	0.857591	-0.409488	0.067885
C29	C	0.895385	-0.304416	0.000102
C30	C	0.857624	-0.409464	-0.067672
C31	C	0.892762	-0.469323	0.000092
C32	C	0.930505	-0.364283	0.067955
C33	C	0.930527	-0.364252	-0.067663
C34	C	0.965680	-0.425329	0.000150
C35	C	0.896894	-0.209417	0.000109
C36	C	0.891259	-0.564321	0.000092
C37	C	1.032450	0.106713	0.000116
C38	C	1.116471	0.108199	0.000121
C39	C	0.888557	0.266708	0.000090
C40	C	0.890055	0.359951	0.000085
N41	N	0.894058	0.113116	0.195767
N42	N	0.894098	0.113133	-0.195565
C43	C	0.945524	0.055930	0.239040
C44	C	0.945528	0.055929	0.325588
C45	C	0.894068	0.113118	0.368859
C46	C	0.842596	0.170306	0.325579
C47	C	0.842589	0.170303	0.239034
C48	C	0.842622	0.170322	0.674608
C49	C	0.842634	0.170323	0.761159
C50	C	0.945561	0.055949	0.761161
C51	C	0.945554	0.055945	0.674616
C52	C	0.894080	0.113130	0.631343
C53	C	0.894075	0.113129	0.537499
C54	C	0.894076	0.113124	0.462702
H55	H	0.283386	-0.027997	0.000127
H56	H	0.800711	0.216885	0.639382
O57	O	0.792681	0.225829	0.367739
C58	C	0.747046	0.276497	0.501063
C59	C	0.803626	0.213582	0.453423
H60	H	0.755865	0.266606	0.570347
H61	H	0.756906	0.343779	0.484092
H62	H	0.686434	0.265643	0.484008
H63	H	0.864260	0.224359	0.470452
H64	H	0.793700	0.146322	0.470398
O65	O	0.688416	-0.032798	-0.000017
C66	C	0.787987	-0.120074	-0.071269
C67	C	0.734607	-0.036668	-0.071243
H68	H	0.825335	-0.123239	-0.128857
H69	H	0.825450	-0.123258	-0.013768
H70	H	0.752648	-0.175507	-0.071222
H71	H	0.769886	0.018812	-0.071319
H72	H	0.697140	-0.033558	-0.128739
H73	H	0.987432	0.009364	0.203814
H74	H	0.987472	0.009383	0.796403
H75	H	0.800727	0.216895	0.796389
O76	O	0.792568	0.225936	0.197123
C77	C	0.690446	0.339350	0.206249
C78	C	0.747069	0.276406	0.253814
H79	H	0.653634	0.380160	0.252063
H80	H	0.723077	0.381324	0.165740
H81	H	0.652669	0.303117	0.165720
H82	H	0.784860	0.312571	0.294387
H83	H	0.714391	0.234433	0.294271
H84	H	0.250659	0.249732	0.000088
H85	H	0.107434	0.247189	0.000100
H86	H	0.826790	-0.429472	-0.124993
H87	H	0.826754	-0.429535	0.125194
O88	O	0.652640	0.268997	0.000095
C89	C	0.626406	0.420682	0.000035
C90	C	0.592953	0.335685	0.000022
H91	H	0.578166	0.474622	-0.000041
H92	H	0.662889	0.425221	0.057586
H93	H	0.662938	0.425124	-0.057495
H94	H	0.556387	0.331186	0.057513
H95	H	0.556514	0.331183	-0.057567
H96	H	0.504763	0.254246	0.000074
H97	H	0.961339	-0.344183	-0.124975
H98	H	0.987435	0.009364	0.360821
O99	O	0.532582	-0.035544	0.000070
C100	C	0.418962	-0.105548	0.000131
C101	C	0.452499	-0.020600	0.000144
H102	H	0.354211	-0.093495	0.000207
H103	H	0.438878	-0.143026	-0.057420
H104	H	0.438979	-0.143017	0.057661
H105	H	0.432497	0.016938	-0.057348
H106	H	0.432587	0.016815	0.057733
O107	O	0.995570	0.000310	0.632711
C108	C	1.097689	-0.113109	0.641849
C109	C	1.041077	-0.050158	0.689408
H110	H	1.134508	-0.153916	0.687668
H111	H	1.065048	-0.155084	0.601367
H112	H	1.135459	-0.076882	0.601296
H113	H	1.003293	-0.086315	0.730006
H114	H	1.073766	-0.008183	0.729838
H115	H	0.761987	-0.314958	0.000149
H116	H	0.140173	-0.030538	0.000128
H117	H	1.026238	-0.458615	0.000196
O118	O	0.967196	-0.340375	0.136386
C119	C	1.009808	-0.225128	0.213136
C120	C	0.968228	-0.252087	0.135614
H121	H	1.010670	-0.153748	0.212529
H122	H	0.978938	-0.244077	0.270862
H123	H	1.070652	-0.257618	0.213379
H124	H	0.907382	-0.219611	0.135291
H125	H	0.999156	-0.233153	0.077922
