data_functionalizedCrystal
_audit_creation_method	'MofGen! by Chris Wilmer'
_symmetry_space_group_name_H-M	'P1'
_symmetry_Int_Tables_number	1
_symmetry_cell_setting	triclinic
loop_
_symmetry_equiv_pos_as_xyz
  x,y,z
_cell_length_a	23.532407
_cell_length_b	15.021413
_cell_length_c	15.944545
_cell_angle_alpha	89.989346
_cell_angle_beta	83.172425
_cell_angle_gamma	90.000307
loop_
_atom_site_label
_atom_site_type_symbol
_atom_site_fract_x
_atom_site_fract_y
_atom_site_fract_z
O1	O	0.755653	-0.073925	0.101969
O2	O	1.255653	0.426075	0.601969
O3	O	0.589847	-0.073952	0.116723
O4	O	1.089847	0.426048	0.616723
O5	O	0.677279	-0.073927	-0.012967
O6	O	1.177279	0.426073	0.487033
O7	O	0.668220	-0.073950	0.231659
O8	O	1.168220	0.426050	0.731659
O9	O	0.677272	0.074137	-0.012980
O10	O	1.177272	0.574137	0.487020
O11	O	0.589839	0.074112	0.116710
O12	O	1.089839	0.574112	0.616710
O13	O	0.755645	0.074139	0.101956
O14	O	1.255645	0.574139	0.601956
Zn15	Zn	0.672741	0.097634	0.109331
Zn16	Zn	1.172741	0.597634	0.609331
Zn17	Zn	0.672751	-0.097447	0.109348
Zn18	Zn	1.172751	0.402553	0.609348
O19	O	0.668212	0.074114	0.231646
O20	O	1.168212	0.574114	0.731646
C21	C	0.568625	0.000077	0.116341
C22	C	1.068625	0.500077	0.616341
C23	C	0.505404	0.000067	0.115211
C24	C	1.005404	0.500067	0.615211
C25	C	0.676900	0.000106	-0.044265
C26	C	1.176900	0.500106	0.455735
C27	C	0.675775	0.000108	-0.137502
C28	C	1.175775	0.500108	0.362498
N29	N	0.672738	0.230772	0.109318
N30	N	1.172738	0.730772	0.609318
C31	C	0.106570	0.000101	0.184874
C32	C	0.606570	0.500101	0.684874
C33	C	0.047165	0.000107	0.183825
C34	C	0.547165	0.500107	0.683825
O35	O	0.010670	0.000133	0.248403
O36	O	0.510670	0.500133	0.748403
N37	N	0.024242	0.000112	0.106724
N38	N	0.524242	0.500112	0.606724
C39	C	0.060726	0.000121	0.030668
C40	C	0.560726	0.500121	0.530668
O41	O	0.035773	0.000128	-0.035009
O42	O	0.535773	0.500128	0.464991
C43	C	0.120129	0.000122	0.031718
C44	C	0.620129	0.500122	0.531718
C45	C	0.143049	0.000108	0.108824
C46	C	0.643049	0.500108	0.608824
C47	C	0.129490	0.000087	0.261974
C48	C	0.629490	0.500087	0.761974
C49	C	0.188890	0.000080	0.263022
C50	C	0.688890	0.500080	0.763022
C51	C	0.225370	0.000087	0.186972
C52	C	0.725370	0.500087	0.686972
C53	C	0.202449	0.000100	0.109873
C54	C	0.702449	0.500100	0.609873
C55	C	0.156612	0.000138	-0.044338
C56	C	0.656612	0.500138	0.455662
C57	C	0.216018	0.000139	-0.043281
C58	C	0.716018	0.500139	0.456719
C59	C	0.238939	0.000125	0.033825
C60	C	0.738939	0.500125	0.533825
C61	C	0.298329	0.000100	0.034871
C62	C	0.798329	0.500100	0.534871
N63	N	0.321253	0.000094	0.111972
N64	N	0.821253	0.500094	0.611972
C65	C	0.284773	0.000088	0.188022
C66	C	0.784773	0.500088	0.688022
C67	C	-0.064025	0.000121	0.028468
C68	C	0.435975	0.500121	0.528468
C69	C	-0.123427	0.000114	0.027417
C70	C	0.376573	0.500114	0.527417
C71	C	-0.136984	0.000101	0.180574
C72	C	0.363016	0.500101	0.680574
C73	C	-0.077581	0.000102	0.181625
C74	C	0.422419	0.500102	0.681625
C75	C	-0.041102	0.000116	0.105569
C76	C	0.458898	0.500116	0.605569
C77	C	0.409518	0.000072	0.190219
C78	C	0.909518	0.500072	0.690219
C79	C	0.468924	0.000061	0.191261
C80	C	0.968924	0.500061	0.691261
C81	C	0.482476	0.000079	0.038105
C82	C	0.982476	0.500079	0.538105
C83	C	0.423075	0.000085	0.037062
C84	C	0.923075	0.500085	0.537062
C85	C	0.386597	0.000084	0.113126
C86	C	0.886597	0.500084	0.613126
O87	O	0.334859	0.000077	-0.029674
O88	O	0.834859	0.500077	0.470326
O89	O	0.309734	0.000093	0.253688
O90	O	0.809734	0.500093	0.753688
C91	C	0.776867	0.000108	0.102338
C92	C	1.276867	0.500108	0.602338
C93	C	0.840088	0.000112	0.103468
C94	C	1.340088	0.500112	0.603468
N95	N	0.672758	-0.230584	0.109354
N96	N	1.172758	0.269416	0.609354
C97	C	0.712864	0.529774	0.048879
C98	C	1.212864	1.029774	0.548879
C99	C	0.724381	0.470403	0.124452
C100	C	1.224381	0.970403	0.624452
C101	C	0.672752	0.587809	0.109344
C102	C	1.172752	1.087809	0.609344
C103	C	0.661256	0.470439	0.033759
C104	C	1.161256	0.970439	0.533759
C105	C	0.672747	0.412385	0.109327
C106	C	1.172747	0.912385	0.609327
C107	C	0.684294	0.529744	0.184955
C108	C	1.184294	1.029744	0.684955
C109	C	0.621146	0.529784	0.094213
C110	C	1.121146	1.029784	0.594213
C111	C	0.632641	0.470440	0.169842
C112	C	1.132641	0.970440	0.669842
C113	C	0.672756	0.688866	0.109352
C114	C	1.172756	1.188866	0.609352
C115	C	0.672742	0.311329	0.109327
C116	C	1.172742	0.811329	0.609327
C117	C	0.618216	0.000081	-0.407649
C118	C	1.118216	0.500081	0.092351
C119	C	0.645970	-0.072919	-0.357291
C120	C	1.145970	0.427081	0.142709
C121	C	0.671760	0.000082	-0.473112
C122	C	1.171760	0.500082	0.026888
C123	C	0.645977	0.073061	-0.357331
C124	C	1.145977	0.573061	0.142669
C125	C	0.673730	0.000096	-0.308215
C126	C	1.173730	0.500096	0.191785
C127	C	0.699500	-0.072977	-0.423982
C128	C	1.199500	0.427023	0.076018
C129	C	0.699499	0.073068	-0.424025
C130	C	1.199499	0.573068	0.075975
C131	C	0.727292	0.000051	-0.373700
C132	C	1.227292	0.500051	0.126300
C133	C	0.670624	0.000073	-0.568104
C134	C	1.170624	0.500073	-0.068104
C135	C	0.674870	0.000099	-0.213225
C136	C	1.174870	0.500099	0.286775
C137	C	0.668592	0.000080	0.262944
C138	C	1.168592	0.500080	0.762944
C139	C	0.669717	0.000071	0.356181
C140	C	1.169717	0.500071	0.856181
H141	H	0.487582	0.000048	0.254053
H142	H	0.987582	0.500048	0.754053
H143	H	0.572103	0.000002	-0.422913
H144	H	1.072103	0.500002	0.077087
H145	H	0.722099	-0.134761	-0.452973
H146	H	1.222099	0.365239	0.047027
H147	H	0.722089	0.134793	-0.453171
H148	H	1.222089	0.634793	0.046829
C149	C	0.369401	0.000059	0.273888
C150	C	0.869401	0.500059	0.773888
H151	H	0.391567	0.000041	0.319950
H152	H	0.891567	0.500041	0.819950
H153	H	0.345945	0.051691	0.276672
H154	H	0.845945	0.551691	0.776672
H155	H	0.345948	-0.051582	0.276664
H156	H	0.845948	0.448418	0.776664
H157	H	0.773441	0.000017	-0.358598
H158	H	1.273441	0.500017	0.141402
C159	C	0.615439	-0.156322	-0.317967
C160	C	1.115439	0.343678	0.182033
H161	H	0.641610	-0.190697	-0.290453
H162	H	1.141610	0.309303	0.209547
H163	H	0.584224	-0.138815	-0.278069
H164	H	1.084224	0.361185	0.221931
H165	H	0.601653	-0.190924	-0.361141
H166	H	1.101653	0.309076	0.138859
C167	C	0.615418	0.156433	-0.318020
C168	C	1.115418	0.656433	0.181980
H169	H	0.641576	0.190818	-0.290498
H170	H	1.141576	0.690818	0.209502
H171	H	0.601611	0.191033	-0.361183
H172	H	1.101611	0.691033	0.138817
H173	H	0.584214	0.138874	-0.278112
H174	H	1.084214	0.638874	0.221888
C175	C	0.214095	0.000081	0.347839
C176	C	0.714095	0.500081	0.847839
H177	H	0.183855	0.000089	0.392975
H178	H	0.683855	0.500089	0.892975
H179	H	0.236987	-0.051549	0.351451
H180	H	0.736987	0.448451	0.851451
H181	H	0.236984	0.051724	0.351425
H182	H	0.736984	0.551724	0.851425
H183	H	0.694062	0.555685	0.248884
H184	H	1.194062	1.055685	0.748884
H185	H	-0.166696	0.000100	0.242499
H186	H	0.333304	0.500100	0.742499
H187	H	0.746811	0.555826	-0.002191
H188	H	1.246811	1.055826	0.497809
H189	H	0.099794	0.000085	0.323907
H190	H	0.599794	0.500085	0.823907
C191	C	0.522610	0.000093	-0.045544
C192	C	1.022610	0.500093	0.454456
H193	H	0.561270	0.000098	-0.033870
H194	H	1.061270	0.500098	0.466130
H195	H	0.515664	-0.051532	-0.077187
H196	H	1.015664	0.448468	0.422813
H197	H	0.515662	0.051741	-0.077177
H198	H	1.015662	0.551741	0.422823
H199	H	-0.142083	0.000112	-0.035370
H200	H	0.357917	0.500112	0.464630
C201	C	-0.052374	0.000093	0.266440
C202	C	0.447626	0.500093	0.766440
H203	H	-0.082612	0.000094	0.311578
H204	H	0.417388	0.500094	0.811578
H205	H	-0.029481	-0.051537	0.270042
H206	H	0.470519	0.448463	0.770042
H207	H	-0.029485	0.051736	0.270031
H208	H	0.470515	0.551736	0.770031
H209	H	-0.034327	0.000125	-0.033470
H210	H	0.465673	0.500125	0.466530
C211	C	0.783330	0.435158	0.141739
C212	C	1.283330	0.935158	0.641739
H213	H	0.811791	0.455468	0.098734
H214	H	1.311791	0.955468	0.598734
H215	H	0.791772	0.456335	0.195012
H216	H	1.291772	0.956335	0.695012
H217	H	0.782797	0.371920	0.142116
H218	H	1.282797	0.871920	0.642116
H219	H	0.245717	0.000151	-0.105216
H220	H	0.745717	0.500151	0.394784
C221	C	0.586812	0.435457	0.238978
C222	C	1.086812	0.935457	0.738978
H223	H	0.595072	0.455873	0.292605
H224	H	1.095072	0.955873	0.792605
H225	H	0.550251	0.456688	0.228691
H226	H	1.050251	0.956688	0.728691
H227	H	0.586850	0.372218	0.238300
H228	H	1.086850	0.872218	0.738300
H229	H	0.137961	0.000151	-0.107125
H230	H	0.637961	0.500151	0.392875
H231	H	0.577520	0.555887	0.081392
H232	H	1.077520	1.055887	0.581392
H233	H	0.404412	0.000084	-0.025724
H234	H	0.904412	0.500084	0.474276
H235	H	0.651534	0.444387	-0.030154
H236	H	1.151534	0.944387	0.469846
