data_functionalizedCrystal
_audit_creation_method	'MofGen! by Chris Wilmer'
_symmetry_space_group_name_H-M	'P1'
_symmetry_Int_Tables_number	1
_symmetry_cell_setting	triclinic
loop_
_symmetry_equiv_pos_as_xyz
  x,y,z
_cell_length_a	15.297475
_cell_length_b	25.639239
_cell_length_c	15.299448
_cell_angle_alpha	80.298679
_cell_angle_beta	69.206248
_cell_angle_gamma	80.340538
loop_
_atom_site_label
_atom_site_type_symbol
_atom_site_fract_x
_atom_site_fract_y
_atom_site_fract_z
Zn1	Zn	1.512696	-0.282718	-0.771442
Zn2	Zn	2.012696	0.217282	-0.271442
Zn3	Zn	1.485600	-0.383037	-0.615885
Zn4	Zn	1.985600	0.116963	-0.115885
Zn5	Zn	1.330244	-0.282702	-0.589069
Zn6	Zn	1.830244	0.217298	-0.089069
Zn7	Zn	1.357091	-0.357196	-0.744504
Zn8	Zn	1.857091	0.142804	-0.244504
O9	O	1.421408	-0.326413	-0.680225
O10	O	1.921408	0.173587	-0.180225
O11	O	1.639240	-0.306846	-0.773303
O12	O	2.139240	0.193154	-0.273303
O13	O	1.442417	-0.380536	-0.482177
O14	O	1.942417	0.119464	0.017823
O15	O	1.354550	-0.209544	-0.613312
O16	O	1.854550	0.290456	-0.113312
O17	O	1.619333	-0.380551	-0.659016
O18	O	2.119333	0.119449	-0.159016
O19	O	1.488597	-0.209556	-0.747300
O20	O	1.988597	0.290444	-0.247300
O21	O	1.328277	-0.306820	-0.462475
O22	O	1.828277	0.193180	0.037525
O23	O	1.203667	-0.281762	-0.587191
O24	O	1.703667	0.218238	-0.087191
O25	O	1.400308	-0.336508	-0.878229
O26	O	1.900308	0.163492	-0.378229
O27	O	1.223392	-0.336493	-0.701389
O28	O	1.723392	0.163507	-0.201389
O29	O	1.514630	-0.281789	-0.898020
O30	O	2.014630	0.218211	-0.398020
O31	O	1.468450	-0.452769	-0.632896
O32	O	1.968450	0.047231	-0.132896
O33	O	1.374035	-0.433783	-0.727392
O34	O	1.874035	0.066217	-0.227392
C35	C	1.179786	-0.306322	-0.638457
C36	C	1.679786	0.193678	-0.138457
C37	C	1.076423	-0.297738	-0.620611
C38	C	1.576423	0.202262	-0.120611
C39	C	0.826177	-0.387770	-0.807777
C40	C	1.326177	0.112230	-0.307777
C41	C	0.923291	-0.395839	-0.824542
C42	C	1.423291	0.104161	-0.324542
C43	C	0.961579	-0.371314	-0.773561
C44	C	1.461579	0.128686	-0.273561
C45	C	0.902743	-0.338719	-0.705812
C46	C	1.402743	0.161281	-0.205812
C47	C	0.805618	-0.330652	-0.689040
C48	C	1.305618	0.169348	-0.189040
C49	C	0.941020	-0.314197	-0.654824
C50	C	1.441020	0.185803	-0.154824
C51	C	0.882184	-0.281601	-0.587075
C52	C	1.382184	0.218399	-0.087075
C53	C	0.785069	-0.273536	-0.570307
C54	C	1.285069	0.226464	-0.070307
C55	C	0.746781	-0.298060	-0.621288
C56	C	1.246781	0.201940	-0.121288
C57	C	1.038145	-0.322264	-0.671596
C58	C	1.538145	0.177736	-0.171596
C59	C	1.017586	-0.265146	-0.552859
C60	C	1.517586	0.234854	-0.052859
C61	C	0.920472	-0.257077	-0.536094
C62	C	1.420472	0.242923	-0.036094
C63	C	1.421244	-0.462246	-0.680155
C64	C	1.921244	0.037754	-0.180155
C65	C	1.421264	-0.520361	-0.680171
C66	C	1.921264	-0.020361	-0.180171
C67	C	1.470742	-0.890610	-0.631149
C68	C	1.970742	-0.390610	-0.131149
C69	C	1.470781	-0.945217	-0.631168
C70	C	1.970781	-0.445217	-0.131168
O71	O	1.512678	-0.981850	-0.589413
O72	O	2.012678	-0.481850	-0.089413
N73	N	1.421582	-0.962661	-0.680315
N74	N	1.921582	-0.462661	-0.180315
C75	C	1.372350	-0.925495	-0.729454
C76	C	1.872350	-0.425495	-0.229454
O77	O	1.330506	-0.945346	-0.771260
O78	O	1.830506	-0.445346	-0.271260
C79	C	1.372317	-0.870890	-0.729440
C80	C	1.872317	-0.370890	-0.229440
C81	C	1.421512	-0.853449	-0.680282
C82	C	1.921512	-0.353449	-0.180282
C83	C	1.519933	-0.873169	-0.581996
C84	C	2.019933	-0.373169	-0.081996
C85	C	1.519894	-0.818567	-0.581976
C86	C	2.019894	-0.318567	-0.081976
C87	C	1.470663	-0.781405	-0.631109
C88	C	1.970663	-0.281405	-0.131109
C89	C	1.421472	-0.798847	-0.680263
C90	C	1.921472	-0.298847	-0.180263
C91	C	1.323091	-0.833725	-0.778585
C92	C	1.823091	-0.333725	-0.278585
C93	C	1.323064	-0.779117	-0.778567
C94	C	1.823064	-0.279117	-0.278567
C95	C	1.372258	-0.761676	-0.729409
C96	C	1.872258	-0.261676	-0.229409
C97	C	1.372201	-0.707083	-0.729376
C98	C	1.872201	-0.207083	-0.229376
N99	N	1.421400	-0.689639	-0.680229
N100	N	1.921400	-0.189639	-0.180229
C101	C	1.470631	-0.726800	-0.631096
C102	C	1.970631	-0.226800	-0.131096
C103	C	1.372422	-1.040170	-0.729481
C104	C	1.872422	-0.540170	-0.229481
C105	C	1.372448	-1.094774	-0.729489
C106	C	1.872448	-0.594774	-0.229489
C107	C	1.470881	-1.114492	-0.631204
C108	C	1.970881	-0.614492	-0.131204
C109	C	1.470849	-1.059887	-0.631191
C110	C	1.970849	-0.559887	-0.131191
C111	C	1.421621	-1.022726	-0.680334
C112	C	1.921621	-0.522726	-0.180334
C113	C	1.470543	-0.612130	-0.631057
C114	C	1.970543	-0.112130	-0.131057
C115	C	1.470495	-0.557522	-0.631038
C116	C	1.970495	-0.057522	-0.131038
C117	C	1.372067	-0.537809	-0.729327
C118	C	1.872067	-0.037809	-0.229327
C119	C	1.372110	-0.592412	-0.729342
C120	C	1.872110	-0.092412	-0.229342
C121	C	1.421355	-0.629572	-0.680205
C122	C	1.921355	-0.129572	-0.180205
O123	O	1.330328	-0.670419	-0.771113
O124	O	1.830328	-0.170419	-0.271113
O125	O	1.512477	-0.706941	-0.589307
O126	O	2.012477	-0.206941	-0.089307
C127	C	1.663973	-0.346583	-0.722156
C128	C	2.163973	0.153417	-0.222156
C129	C	1.767340	-0.355178	-0.740025
C130	C	2.267340	0.144822	-0.240025
C131	C	1.463486	-0.306268	-0.922815
C132	C	1.963486	0.193732	-0.422815
C133	C	1.481417	-0.297683	-1.026192
C134	C	1.981417	0.202317	-0.526192
C135	C	1.421601	-0.190050	-0.680320
C136	C	1.921601	0.309950	-0.180320
C137	C	1.421683	-0.131940	-0.680360
C138	C	1.921683	0.368060	-0.180360
C139	C	1.549363	-0.265159	-1.085060
C140	C	2.049363	0.234841	-0.585060
C141	C	1.566202	-0.257086	-1.182187
C142	C	2.066202	0.242914	-0.682187
C143	C	1.515103	-0.281539	-1.220456
C144	C	2.015103	0.218461	-0.720456
C145	C	1.447160	-0.314066	-1.161588
C146	C	1.947160	0.185934	-0.661588
C147	C	1.430314	-0.322137	-1.064451
C148	C	1.930314	0.177863	-0.564451
C149	C	1.396053	-0.338516	-1.199847
C150	C	1.896053	0.161484	-0.699847
C151	C	1.328110	-0.371044	-1.140979
C152	C	1.828110	0.128956	-0.640979
C153	C	1.311268	-0.379113	-1.043851
C154	C	1.811268	0.120887	-0.543851
C155	C	1.362368	-0.354660	-1.005583
C156	C	1.862368	0.145340	-0.505583
C157	C	1.412899	-0.330445	-1.296984
C158	C	1.912899	0.169555	-0.796984
C159	C	1.293850	-0.387423	-1.276374
C160	C	1.793850	0.112577	-0.776374
C161	C	1.277011	-0.395496	-1.179248
C162	C	1.777011	0.104504	-0.679248
C163	C	1.379547	-0.346447	-0.438588
C164	C	1.879547	0.153553	0.061412
C165	C	1.361796	-0.354899	-0.335243
C166	C	1.861796	0.145101	0.164757
H167	H	1.510554	-0.543325	-0.591004
H168	H	2.010554	-0.043325	-0.091004
Br169	Br	1.586758	-0.923594	-0.515308
Br170	Br	2.086758	-0.423594	-0.015308
H171	H	1.528817	-0.274963	-1.299541
H172	H	2.028817	0.225037	-0.799541
Br173	Br	1.537613	-1.036224	-0.564473
Br174	Br	2.037613	-0.536224	-0.064473
Br175	Br	1.658443	-0.212967	-1.262078
Br176	Br	2.158443	0.287033	-0.762078
H177	H	1.348663	-0.361233	-0.926495
H178	H	1.848663	0.138767	-0.426495
H179	H	0.794992	-0.407738	-0.849273
H180	H	1.294992	0.092262	-0.349273
Br181	Br	1.093379	-0.382265	-0.796315
Br182	Br	1.593379	0.117735	-0.296315
Br183	Br	1.256255	-0.728686	-0.845270
Br184	Br	1.756255	-0.228686	-0.345270
Br185	Br	0.614980	-0.287105	-0.598546
Br186	Br	1.114980	0.212895	-0.098546
Br187	Br	1.618668	-0.231954	-1.033114
Br188	Br	2.118668	0.268046	-0.533114
Br189	Br	1.586677	-0.794907	-0.515274
Br190	Br	2.086677	-0.294907	-0.015274
H191	H	0.971188	-0.422380	-0.879701
H192	H	1.471188	0.077620	-0.379701
H193	H	1.048759	-0.245177	-0.511344
H194	H	1.548759	0.254823	-0.011344
H195	H	0.737165	-0.247001	-0.515131
H196	H	1.237165	0.252999	-0.015131
Br197	Br	1.537690	-1.164936	-0.564518
Br198	Br	2.037690	-0.664936	-0.064518
H199	H	1.510645	-0.642381	-0.591047
H200	H	2.010645	-0.142381	-0.091047
H201	H	1.468217	-0.303960	-1.344905
H202	H	1.968217	0.196040	-0.844905
H203	H	1.255942	-0.405597	-0.995923
H204	H	1.755942	0.094403	-0.495923
H205	H	0.872554	-0.230537	-0.480932
H206	H	1.372554	0.269463	0.019068
H207	H	1.331980	-0.507543	-0.769327
H208	H	1.831980	-0.007543	-0.269327
H209	H	1.332379	-1.108968	-0.769509
H210	H	1.832379	-0.608968	-0.269509
Br211	Br	1.305599	-0.989741	-0.796174
Br212	Br	1.805599	-0.489741	-0.296174
H213	H	1.252234	-0.407331	-1.307531
H214	H	1.752234	0.092669	-0.807531
H215	H	1.283027	-0.847914	-0.818609
H216	H	1.783027	-0.347914	-0.318609
Br217	Br	1.305320	-0.616082	-0.796030
Br218	Br	1.805320	-0.116082	-0.296030
H219	H	1.086040	-0.348803	-0.726758
H220	H	1.586040	0.151197	-0.226758
Br221	Br	1.184805	-0.439639	-1.099346
Br222	Br	1.684805	0.060361	-0.599346
