data_functionalizedCrystal
_audit_creation_method	'MofGen! by Chris Wilmer'
_symmetry_space_group_name_H-M	'P1'
_symmetry_Int_Tables_number	1
_symmetry_cell_setting	triclinic
loop_
_symmetry_equiv_pos_as_xyz
  x,y,z
_cell_length_a	12.759394
_cell_length_b	19.077142
_cell_length_c	19.076919
_cell_angle_alpha	90.074357
_cell_angle_beta	87.725879
_cell_angle_gamma	92.289549
loop_
_atom_site_label
_atom_site_type_symbol
_atom_site_fract_x
_atom_site_fract_y
_atom_site_fract_z
Zn1	Zn	-0.508301	-1.058326	0.440467
Zn2	Zn	-0.677228	-1.062984	0.322965
Zn3	Zn	-0.494224	-0.945542	0.318256
Zn4	Zn	-0.676592	-0.940806	0.435713
O5	O	-0.589086	-1.001914	0.379350
O6	O	-0.536867	-1.157276	0.428840
O7	O	-0.647327	-1.051337	0.224009
O8	O	-0.349073	-0.960535	0.334486
O9	O	-0.660977	-1.160699	0.342512
O10	O	-0.359416	-1.043397	0.424274
O11	O	-0.512875	-0.965053	0.220549
O12	O	-0.512258	-0.846581	0.329877
O13	O	-0.659893	-0.952464	0.534675
O14	O	-0.646243	-0.843102	0.416172
O15	O	-0.536250	-1.038805	0.538168
O16	O	-0.824162	-1.046745	0.337902
O17	O	-0.823694	-0.956981	0.420738
C18	C	-0.577654	-0.819345	0.371998
C19	C	-0.572790	-0.741241	0.368870
C20	C	-0.862050	-1.001873	0.379332
C21	C	-0.978831	-1.001919	0.379350
C22	C	-0.640361	-0.702757	0.412259
C23	C	-0.635776	-0.629369	0.409323
C24	C	-0.563626	-0.594467	0.362993
C25	C	-0.496048	-0.632956	0.319603
C26	C	-0.500628	-0.706342	0.322543
C27	C	-0.542433	-0.375177	0.349393
C28	C	-0.537860	-0.301786	0.346455
C29	C	-0.677588	-0.298204	0.436176
C30	C	-0.682165	-0.371592	0.439109
C31	C	-0.614584	-0.410074	0.395721
N32	N	-0.558941	-0.519453	0.359990
N33	N	-0.619265	-0.485087	0.398729
C34	C	-0.979272	-1.095454	0.293163
C35	C	-1.034356	-1.142240	0.250078
C36	C	-1.144081	-1.142281	0.250099
C37	C	-1.198726	-1.095532	0.293210
C38	C	-1.143642	-1.048746	0.336295
C39	C	-1.033914	-1.048709	0.336268
C40	C	-1.143201	-0.955214	0.422485
C41	C	-1.033475	-0.955169	0.422461
C42	C	-1.197846	-0.908465	0.465596
C43	C	-1.142762	-0.861675	0.508678
C44	C	-1.033030	-0.861636	0.508655
C45	C	-0.978392	-0.908384	0.465546
C46	C	-0.315059	-1.001975	0.379385
C47	C	-0.198284	-1.002000	0.379400
C48	C	-0.599571	-0.994586	0.562631
C49	C	-0.604038	-0.991463	0.640734
C50	C	-0.600558	-0.185197	0.386723
C51	C	-0.605431	-0.263302	0.389843
C52	C	-0.578570	-1.009255	0.196785
C53	C	-0.573814	-1.012514	0.118688
C54	C	-0.541766	-1.034947	0.679246
C55	C	-0.545960	-1.032004	0.752632
C56	C	-0.612431	-0.985581	0.787504
C57	C	-0.674706	-0.942092	0.748986
C58	C	-0.670506	-0.945032	0.675602
C59	C	-0.631889	-0.971965	1.006785
C60	C	-0.636086	-0.969030	1.080175
C61	C	-0.507338	-1.058941	1.083815
C62	C	-0.503149	-1.061880	1.010429
C63	C	-0.565419	-1.018389	0.971918
N64	N	-0.616722	-0.982573	0.862516
N65	N	-0.561123	-1.021393	0.896907
H66	H	-0.699117	-0.731169	0.449983
H67	H	-0.988187	-0.823540	0.543742
H68	H	-0.740920	-0.400004	0.476833
F69	F	-0.976192	-1.191994	0.204201
F70	F	-0.428708	-0.747299	0.276364
F71	F	-0.461070	-0.264642	0.297138
H72	H	-1.188930	-1.180381	0.215020
H73	H	-0.889927	-1.095417	0.293132
H74	H	-1.288070	-1.095574	0.293230
F75	F	-0.707694	-0.588414	0.455504
H76	H	-0.889047	-0.908352	0.465518
H77	H	-0.682610	-0.936562	0.975438
H78	H	-0.487641	-1.072752	0.650859
H79	H	-1.287190	-0.908504	0.465613
F80	F	-0.432401	-1.111291	0.973321
H81	H	-0.690218	-0.931224	1.108566
H82	H	-0.456640	-1.094348	1.115179
F83	F	-0.749509	-0.257243	0.482348
F84	F	-0.745446	-0.892682	0.786102
H85	H	-0.721204	-0.909616	0.644245
F86	F	-0.419253	-0.595808	0.270300
F87	F	-0.470503	-0.416124	0.303217
F88	F	-1.200924	-0.811931	0.554559
F89	F	-0.479719	-1.078310	0.793617
