data_functionalizedCrystal
_audit_creation_method	'MofGen! by Chris Wilmer'
_symmetry_space_group_name_H-M	'P1'
_symmetry_Int_Tables_number	1
_symmetry_cell_setting	triclinic
loop_
_symmetry_equiv_pos_as_xyz
  x,y,z
_cell_length_a	17.077404
_cell_length_b	18.215405
_cell_length_c	17.077396
_cell_angle_alpha	89.969540
_cell_angle_beta	89.981638
_cell_angle_gamma	90.021790
loop_
_atom_site_label
_atom_site_type_symbol
_atom_site_fract_x
_atom_site_fract_y
_atom_site_fract_z
Zn1	Zn	1.200050	-0.293024	-0.443808
Zn2	Zn	1.199954	-0.416098	-0.312537
Zn3	Zn	1.068781	-0.293045	-0.312559
Zn4	Zn	1.068747	-0.416049	-0.443764
O5	O	1.134383	-0.354554	-0.378167
O6	O	1.309884	-0.309362	-0.426404
O7	O	1.182529	-0.399804	-0.202693
O8	O	1.086248	-0.190058	-0.329997
O9	O	1.309814	-0.399783	-0.329961
O10	O	1.182691	-0.190043	-0.426425
O11	O	1.086156	-0.309397	-0.202709
O12	O	0.958930	-0.309350	-0.329954
O13	O	1.086190	-0.399701	-0.553617
O14	O	0.958905	-0.399721	-0.426349
O15	O	1.182657	-0.309315	-0.553649
O16	O	1.182495	-0.519075	-0.329918
O17	O	1.086098	-0.519040	-0.426329
C18	C	0.930435	-0.354533	-0.378149
C19	C	0.843185	-0.354542	-0.378160
C20	C	0.802232	-0.307543	-0.428455
C21	C	0.720252	-0.307548	-0.428459
C22	C	0.679226	-0.354556	-0.378171
C23	C	0.720185	-0.401557	-0.327871
C24	C	0.802164	-0.401548	-0.327864
C25	C	0.549315	-0.401573	-0.327890
C26	C	0.467330	-0.401583	-0.327898
C27	C	0.467403	-0.307574	-0.428486
C28	C	0.549382	-0.307565	-0.428479
C29	C	0.590335	-0.354567	-0.378179
C30	C	1.134304	-0.545760	-0.378133
C31	C	1.134342	-0.627559	-0.378145
C32	C	1.184683	-0.892611	-0.328050
C33	C	1.184651	-0.815752	-0.328032
C34	C	1.084180	-0.815756	-0.428337
C35	C	1.084209	-0.892613	-0.428351
C36	C	1.134465	-0.931039	-0.378208
C37	C	1.134404	-0.777323	-0.378177
C38	C	1.134368	-0.693989	-0.378158
C39	C	1.134500	-1.014378	-0.378226
C40	C	1.339127	-0.354575	-0.378185
C41	C	1.426377	-0.354585	-0.378193
C42	C	1.134431	-0.354500	-0.582911
C43	C	1.134451	-0.354477	-0.670161
C44	C	1.134484	-0.162601	-0.378218
C45	C	1.134527	-0.080802	-0.378240
C46	C	1.184683	-0.307409	-0.711170
C47	C	1.184693	-0.307384	-0.793150
C48	C	1.134473	-0.354432	-0.834121
C49	C	1.084235	-0.401502	-0.793107
C50	C	1.084222	-0.401522	-0.711128
C51	C	1.084267	-0.401458	-0.963977
C52	C	1.084281	-0.401439	-1.045961
C53	C	1.184737	-0.307320	-1.045999
C54	C	1.184724	-0.307340	-0.964020
C55	C	1.134487	-0.354411	-0.923012
C56	C	1.134381	-0.354555	-0.174219
C57	C	1.134513	-0.354371	-0.086970
H58	H	0.433929	-0.439862	-0.286949
O59	O	0.680508	-0.261973	-0.477431
C60	C	0.655534	-0.226386	-0.611028
C61	C	0.700575	-0.278061	-0.555655
H62	H	0.671753	-0.239365	-0.674283
H63	H	0.589884	-0.234462	-0.602465
H64	H	0.671660	-0.167032	-0.597318
H65	H	0.684514	-0.337435	-0.569330
H66	H	0.766214	-0.269922	-0.564228
O67	O	1.035541	-0.447282	-0.671198
C68	C	1.024926	-0.546687	-0.578639
C69	C	1.080147	-0.494900	-0.623797
H70	H	1.060969	-0.585209	-0.540317
H71	H	0.983908	-0.512943	-0.540208
H72	H	0.989016	-0.580281	-0.622011
H73	H	1.116109	-0.461295	-0.580481
H74	H	1.121114	-0.528687	-0.662240
O75	O	0.589186	-0.447268	-0.279140
C76	C	0.681675	-0.546634	-0.268394
C77	C	0.636583	-0.494919	-0.323683
H78	H	0.719995	-0.585183	-0.304385
H79	H	0.720103	-0.512835	-0.227422
H80	H	0.638260	-0.580203	-0.232436
H81	H	0.679942	-0.461339	-0.359692
H82	H	0.598144	-0.528759	-0.364603
H83	H	1.043312	-0.923902	-0.469197
H84	H	1.225542	-0.784466	-0.287187
H85	H	1.225604	-0.923895	-0.287220
O86	O	0.680371	-0.447143	-0.278909
C87	C	0.655259	-0.482746	-0.145321
C88	C	0.700380	-0.431057	-0.200678
H89	H	0.671432	-0.469769	-0.082061
H90	H	0.589622	-0.474680	-0.153897
H91	H	0.671361	-0.542096	-0.159032
H92	H	0.684343	-0.371688	-0.187001
H93	H	0.766006	-0.439186	-0.192092
H94	H	1.043346	-0.439776	-0.930590
H95	H	0.835630	-0.269266	-0.469408
H96	H	1.225580	-0.269099	-0.677817
H97	H	1.225641	-0.268992	-1.079392
O98	O	1.035443	-0.778314	-0.477023
C99	C	0.990841	-0.659913	-0.521428
C100	C	1.046087	-0.702222	-0.466262
H101	H	0.999415	-0.598386	-0.512735
H102	H	1.004592	-0.674921	-0.584757
H103	H	0.927568	-0.675120	-0.507594
H104	H	1.109378	-0.687038	-0.480025
H105	H	1.032268	-0.687211	-0.402949
O106	O	0.589323	-0.261868	-0.477219
C107	C	0.681886	-0.162489	-0.487956
C108	C	0.636714	-0.214206	-0.432671
H109	H	0.720199	-0.123931	-0.451960
H110	H	0.720326	-0.196284	-0.528917
H111	H	0.638522	-0.128929	-0.523925
H112	H	0.680021	-0.247777	-0.396651
H113	H	0.598262	-0.180368	-0.391762
O114	O	1.035421	-0.447160	-1.085640
C115	C	0.935805	-0.540539	-1.076957
C116	C	0.991085	-0.488785	-1.031923
H117	H	0.899957	-0.574217	-1.033546
H118	H	0.894738	-0.506767	-1.115321
H119	H	0.971842	-0.578984	-1.115352
H120	H	0.955112	-0.450328	-0.993485
H121	H	1.032154	-0.522602	-0.993608
H122	H	0.835507	-0.439818	-0.286908
H123	H	1.225599	-0.269059	-0.826535
H124	H	1.225622	-0.269034	-0.930664
H125	H	0.434055	-0.269301	-0.469440
O126	O	1.035490	-0.447306	-0.832818
C127	C	0.997356	-0.572481	-0.857895
C128	C	1.052595	-0.520688	-0.812862
H129	H	1.011176	-0.631822	-0.841790
H130	H	0.934051	-0.559615	-0.841757
H131	H	1.005982	-0.564346	-0.923528
H132	H	1.044038	-0.528795	-0.747219
H133	H	1.115879	-0.533567	-0.829065
