data_functionalizedCrystal
_audit_creation_method	'MofGen! by Chris Wilmer'
_symmetry_space_group_name_H-M	'P1'
_symmetry_Int_Tables_number	1
_symmetry_cell_setting	triclinic
loop_
_symmetry_equiv_pos_as_xyz
  x,y,z
_cell_length_a	14.519709
_cell_length_b	13.596369
_cell_length_c	11.792254
_cell_angle_alpha	90.000552
_cell_angle_beta	83.939371
_cell_angle_gamma	90.000316
loop_
_atom_site_label
_atom_site_type_symbol
_atom_site_fract_x
_atom_site_fract_y
_atom_site_fract_z
O1	O	1.224420	0.081664	0.148772
O2	O	1.557753	0.414997	0.482105
O3	O	1.891087	0.748330	0.815439
O4	O	0.956008	0.081694	0.166293
O5	O	1.289341	0.415027	0.499626
O6	O	1.622675	0.748360	0.832959
O7	O	1.096722	0.081671	-0.007673
O8	O	1.430055	0.415004	0.325660
O9	O	1.763388	0.748338	0.658993
O10	O	1.083706	0.081686	0.322738
O11	O	1.417040	0.415020	0.656071
O12	O	1.750373	0.748353	0.989405
O13	O	1.096704	-0.081912	-0.007664
O14	O	1.430037	0.251421	0.325670
O15	O	1.763371	0.584755	0.659003
O16	O	0.955991	-0.081889	0.166302
O17	O	1.289324	0.251444	0.499636
O18	O	1.622657	0.584778	0.832969
O19	O	1.224403	-0.081919	0.148781
O20	O	1.557736	0.251414	0.482115
O21	O	1.891069	0.584747	0.815448
Zn22	Zn	1.090194	-0.107876	0.157543
Zn23	Zn	1.423527	0.225457	0.490877
Zn24	Zn	1.756861	0.558790	0.824210
Zn25	Zn	1.090217	0.107651	0.157531
Zn26	Zn	1.423550	0.440984	0.490864
Zn27	Zn	1.756883	0.774318	0.824197
O28	O	1.083689	-0.081896	0.322748
O29	O	1.417022	0.251437	0.656081
O30	O	1.750356	0.584770	0.989414
C31	C	0.921636	-0.000094	0.165481
C32	C	1.254970	0.333240	0.498814
C33	C	1.588303	0.666573	0.832148
C34	C	0.819246	-0.000083	0.163034
C35	C	1.152580	0.333251	0.496367
C36	C	1.485913	0.666584	0.829701
N37	N	1.090185	-0.254968	0.157551
N38	N	1.423518	0.078365	0.490885
N39	N	1.756852	0.411698	0.824218
C40	C	0.444317	-0.000128	0.154026
C41	C	0.777650	0.333206	0.487359
C42	C	1.110984	0.666539	0.820693
C43	C	0.548634	-0.000115	0.156528
C44	C	0.881968	0.333219	0.489861
C45	C	1.215301	0.666552	0.823194
C46	C	0.631778	-0.000104	0.158530
C47	C	0.965112	0.333229	0.491863
C48	C	1.298445	0.666563	0.825196
C49	C	0.736102	-0.000093	0.161032
C50	C	1.069435	0.333240	0.494365
C51	C	1.402769	0.666574	0.827698
C52	C	1.090190	-0.343966	0.157554
C53	C	1.423523	-0.010633	0.490887
C54	C	1.756856	0.322701	0.824221
C55	C	1.090199	-0.455618	0.157546
C56	C	1.423532	-0.122284	0.490879
C57	C	1.756865	0.211049	0.824213
C58	C	1.090211	-0.544608	0.157533
C59	C	1.423544	-0.211275	0.490867
C60	C	1.756877	0.122059	0.824200
C61	C	1.090221	-0.656267	0.157527
C62	C	1.423554	-0.322933	0.490860
C63	C	1.756888	0.010400	0.824193
C64	C	1.258774	-0.000129	0.149593
C65	C	1.592108	0.333204	0.482927
C66	C	1.925441	0.666537	0.816260
C67	C	1.361164	-0.000134	0.152040
C68	C	1.694498	0.333199	0.485373
C69	C	2.027831	0.666532	0.818707
C70	C	1.095893	-0.000120	-0.049955
C71	C	1.429226	0.333213	0.283379
C72	C	1.762560	0.666547	0.616712
C73	C	1.093439	-0.000119	-0.175954
C74	C	1.426772	0.333215	0.157379
C75	C	1.760106	0.666548	0.490712
N76	N	1.090233	0.254743	0.157514
N77	N	1.423566	0.588076	0.490847
N78	N	1.756900	0.921410	0.824180
C79	C	1.091445	-0.000115	-0.278280
C80	C	1.424779	0.333218	0.055054
C81	C	1.758112	0.666552	0.388387
C82	C	1.088952	-0.000106	-0.406652
C83	C	1.422285	0.333228	-0.073319
C84	C	1.755619	0.666561	0.260014
C85	C	1.084518	-0.000103	0.365029
C86	C	1.417851	0.333230	0.698362
C87	C	1.751184	0.666563	1.031696
C88	C	1.086972	-0.000098	0.491028
C89	C	1.420305	0.333235	0.824362
C90	C	1.753638	0.666569	1.157695
