data_functionalizedCrystal
_audit_creation_method	'MofGen! by Chris Wilmer'
_symmetry_space_group_name_H-M	'P1'
_symmetry_Int_Tables_number	1
_symmetry_cell_setting	triclinic
loop_
_symmetry_equiv_pos_as_xyz
  x,y,z
_cell_length_a	21.295419
_cell_length_b	21.295417
_cell_length_c	12.827885
_cell_angle_alpha	90.038100
_cell_angle_beta	90.021249
_cell_angle_gamma	90.045308
loop_
_atom_site_label
_atom_site_type_symbol
_atom_site_fract_x
_atom_site_fract_y
_atom_site_fract_z
Zn1	Zn	0.962335	-0.250330	0.590844
Zn2	Zn	0.962244	-0.355612	0.416079
Zn3	Zn	0.857064	-0.250388	0.416111
Zn4	Zn	0.857028	-0.355593	0.590773
O5	O	0.909668	-0.302981	0.503452
O6	O	1.050412	-0.264280	0.567677
O7	O	0.948268	-0.341686	0.269847
O8	O	0.871082	-0.162291	0.439333
O9	O	1.050345	-0.341630	0.439278
O10	O	0.948424	-0.162248	0.567708
O11	O	0.870994	-0.264379	0.269871
O12	O	0.768970	-0.264360	0.439264
O13	O	0.871020	-0.341597	0.737018
O14	O	0.768943	-0.341653	0.567587
O15	O	0.948389	-0.264261	0.737070
O16	O	0.948233	-0.443699	0.439209
O17	O	0.870931	-0.443685	0.567556
C18	C	0.746116	-0.303011	0.503422
C19	C	0.676148	-0.303039	0.503434
C20	C	0.643339	-0.262829	0.570395
C21	C	0.577596	-0.262812	0.570399
C22	C	0.544665	-0.303016	0.503453
C23	C	0.577483	-0.343230	0.436480
C24	C	0.643224	-0.343241	0.436470
N25	N	0.441390	-0.358095	0.495286
N26	N	0.378939	-0.358083	0.495301
C27	C	0.346591	-0.302984	0.503477
N28	N	0.379053	-0.247897	0.511656
N29	N	0.441511	-0.247910	0.511647
C30	C	0.473380	-0.303008	0.503456
C31	C	0.242496	-0.262752	0.570445
C32	C	0.176752	-0.262734	0.570442
C33	C	0.176640	-0.343157	0.436528
C34	C	0.242382	-0.343170	0.436526
C35	C	0.275307	-0.302968	0.503490
C36	C	0.909585	-0.466532	0.503394
C37	C	0.909607	-0.536500	0.503404
C38	C	0.949894	-0.569354	0.436642
C39	C	0.949924	-0.635096	0.436666
C40	C	0.909655	-0.667983	0.503440
C41	C	0.869366	-0.635122	0.570215
C42	C	0.869342	-0.569381	0.570197
N43	N	0.854588	-0.771262	0.511397
N44	N	0.854612	-0.833714	0.511408
C45	C	0.909726	-0.866058	0.503500
N46	N	0.964815	-0.833591	0.495560
N47	N	0.964790	-0.771134	0.495544
C48	C	0.909677	-0.739268	0.503467
C49	C	0.950048	-0.970196	0.436760
C50	C	0.950078	-1.035940	0.436791
C51	C	0.869515	-1.035964	0.570334
C52	C	0.869490	-0.970222	0.570309
C53	C	0.909756	-0.937342	0.503516
C54	C	1.073858	-0.302951	0.503482
C55	C	1.143826	-0.302938	0.503494
C56	C	0.909711	-0.302920	0.776022
C57	C	0.909729	-0.302895	0.892175
C58	C	0.909768	-0.138790	0.503532
C59	C	0.909810	-0.068822	0.503567
C60	C	0.909661	-0.302996	0.231942
C61	C	0.909765	-0.302844	0.115789
C62	C	0.948018	-0.264619	0.943986
C63	C	0.948037	-0.264591	1.064036
H64	H	0.669937	-0.375986	0.381941
H65	H	0.876985	-0.335617	1.071240
H66	H	0.150040	-0.229986	0.624968
H67	H	0.836535	-0.542631	0.624563
H68	H	0.876959	-0.335639	0.936695
C69	C	0.992285	-0.220373	0.883856
C70	C	1.063854	-0.225485	0.898773
C71	C	1.108124	-0.181238	0.838647
C72	C	1.080825	-0.131879	0.763605
C73	C	1.009252	-0.126765	0.748685
C74	C	0.964983	-0.171012	0.808811
H75	H	1.084066	-0.262026	0.954326
H76	H	1.161107	-0.185024	0.849692
H77	H	1.113596	-0.099124	0.719097
H78	H	0.989040	-0.090224	0.693131
H79	H	0.912000	-0.167226	0.797765
H80	H	0.670142	-0.230092	0.624922
H81	H	0.269304	-0.230013	0.624965
H82	H	0.836580	-0.661902	0.624584
C83	C	0.994401	-1.072082	0.363353
C84	C	1.038690	-1.035911	0.289891
C85	C	1.083014	-1.072053	0.216454
C86	C	1.083049	-1.144366	0.216481
C87	C	1.038758	-1.180541	0.289946
C88	C	0.994434	-1.144398	0.363383
H89	H	1.038665	-0.982377	0.289869
H90	H	1.115801	-1.045274	0.162070
H91	H	1.115860	-1.171121	0.162119
H92	H	1.038782	-1.234075	0.289968
H93	H	0.961647	-1.171177	0.417767
H94	H	0.982837	-0.943424	0.382376
C95	C	0.278477	-0.387408	0.362876
C96	C	0.350790	-0.387422	0.362861
C97	C	0.386884	-0.431660	0.289204
C98	C	0.350666	-0.475885	0.215561
C99	C	0.278349	-0.475873	0.215573
C100	C	0.242254	-0.431635	0.289231
H101	H	0.377604	-0.354682	0.417378
H102	H	0.440418	-0.431669	0.289195
H103	H	0.377385	-0.508633	0.161036
H104	H	0.251534	-0.508613	0.161057
H105	H	0.188721	-0.431626	0.289239
H106	H	0.550878	-0.230064	0.624925
C107	C	0.825217	-1.072132	0.643786
C108	C	0.825239	-1.144444	0.643809
C109	C	0.780940	-1.180615	0.717264
C110	C	0.736619	-1.144473	0.790697
C111	C	0.736595	-1.072156	0.790677
C112	C	0.780894	-1.035985	0.717221
H113	H	0.858050	-1.171203	0.589447
H114	H	0.780959	-1.234149	0.717279
H115	H	0.703827	-1.171248	0.845073
H116	H	0.703785	-1.045398	0.845038
H117	H	0.780876	-0.982451	0.717207
C118	C	0.825168	-0.934081	0.643743
C119	C	0.753613	-0.943206	0.635109
C120	C	0.709291	-0.907066	0.708552
C121	C	0.736524	-0.861800	0.790628
C122	C	0.808083	-0.852672	0.799265
C123	C	0.852405	-0.888813	0.725823
H124	H	0.733449	-0.976717	0.574349
H125	H	0.656318	-0.913823	0.702157
H126	H	0.703714	-0.835047	0.844994
H127	H	0.828246	-0.819162	0.860025
H128	H	0.905378	-0.882055	0.732217
C129	C	0.994189	-0.533189	0.363174
C130	C	0.966922	-0.488069	0.281072
C131	C	1.011217	-0.451905	0.207602
C132	C	1.082779	-0.460860	0.216235
C133	C	1.110050	-0.505982	0.298340
C134	C	1.065755	-0.542147	0.371810
H135	H	0.913945	-0.481438	0.274678
H136	H	0.991030	-0.418503	0.146822
H137	H	1.115569	-0.434089	0.161848
H138	H	1.163027	-0.512614	0.304734
H139	H	1.085942	-0.575549	0.432590
H140	H	0.550666	-0.375964	0.381971
C141	C	0.994235	-0.671245	0.363213
C142	C	1.038523	-0.635079	0.289742
C143	C	1.082831	-0.671226	0.216286
C144	C	1.082853	-0.743538	0.216301
C145	C	1.038564	-0.779709	0.289775
C146	C	0.994255	-0.743562	0.363231
H147	H	1.038508	-0.581545	0.289728
H148	H	1.115617	-0.644450	0.161895
H149	H	1.115653	-0.770296	0.161925
H150	H	1.038578	-0.833243	0.289789
H151	H	0.961469	-0.770338	0.417622
H152	H	0.149828	-0.375893	0.382019
H153	H	0.980820	-0.231824	1.108592
