data_functionalizedCrystal
_audit_creation_method	'MofGen! by Chris Wilmer'
_symmetry_space_group_name_H-M	'P1'
_symmetry_Int_Tables_number	1
_symmetry_cell_setting	triclinic
loop_
_symmetry_equiv_pos_as_xyz
  x,y,z
_cell_length_a	19.805407
_cell_length_b	13.897448
_cell_length_c	19.805399
_cell_angle_alpha	89.977568
_cell_angle_beta	90.024201
_cell_angle_gamma	89.981184
loop_
_atom_site_label
_atom_site_type_symbol
_atom_site_fract_x
_atom_site_fract_y
_atom_site_fract_z
Zn1	Zn	1.034768	0.384057	0.382827
Zn2	Zn	1.534768	0.884057	0.882827
Zn3	Zn	1.034696	0.545363	0.269649
Zn4	Zn	1.534696	1.045363	0.769649
Zn5	Zn	0.921583	0.384081	0.269643
Zn6	Zn	1.421583	0.884081	0.769643
Zn7	Zn	0.921560	0.545309	0.382787
Zn8	Zn	1.421560	1.045309	0.882787
O9	O	0.978152	0.464702	0.326227
O10	O	1.478152	0.964702	0.826227
O11	O	1.129475	0.405466	0.367834
O12	O	1.629475	0.905466	0.867834
O13	O	1.019671	0.524001	0.174932
O14	O	1.519671	1.024001	0.674932
O15	O	0.936636	0.249096	0.284671
O16	O	1.436636	0.749096	0.784671
O17	O	1.129422	0.523977	0.284682
O18	O	1.629422	1.023977	0.784682
O19	O	1.019793	0.249078	0.367827
O20	O	1.519793	0.749078	0.867827
O21	O	0.936567	0.405508	0.174927
O22	O	1.436567	0.905508	0.674927
O23	O	0.826863	0.405456	0.284632
O24	O	1.326863	0.905456	0.784632
O25	O	0.936597	0.523886	0.477509
O26	O	1.436597	1.023886	0.977509
O27	O	0.826846	0.523910	0.367759
O28	O	1.326846	1.023910	0.867759
O29	O	1.019771	0.405414	0.477539
O30	O	1.519771	0.905414	0.977539
O31	O	1.019649	0.680337	0.284643
O32	O	1.519649	1.180337	0.784643
O33	O	0.936528	0.680298	0.367765
O34	O	1.436528	1.180298	0.867765
C35	C	0.802296	0.464681	0.326191
C36	C	1.302296	0.964681	0.826191
C37	C	0.727064	0.464695	0.326191
C38	C	1.227064	0.964695	0.826191
C39	C	0.265281	0.526497	0.369486
C40	C	0.765281	1.026497	0.869486
C41	C	0.335970	0.526495	0.369472
C42	C	0.835970	1.026495	0.869472
C43	C	0.371302	0.464726	0.326253
C44	C	0.871302	0.964726	0.826253
C45	C	0.335942	0.402960	0.283041
C46	C	0.835942	0.902960	0.783041
C47	C	0.265254	0.402967	0.283053
C48	C	0.765254	0.902967	0.783053
C49	C	0.621015	0.402931	0.282994
C50	C	1.121015	0.902931	0.782994
C51	C	0.691707	0.402926	0.282987
C52	C	1.191707	0.902926	0.782987
C53	C	0.691730	0.526459	0.369413
C54	C	1.191730	1.026459	0.869413
C55	C	0.621043	0.526466	0.369424
C56	C	1.121043	1.026466	0.869424
C57	C	0.585689	0.464705	0.326210
C58	C	1.085689	0.964705	0.826210
C59	C	0.509041	0.464708	0.326225
C60	C	1.009041	0.964708	0.826225
C61	C	0.447949	0.464716	0.326241
C62	C	0.947949	0.964716	0.826241
C63	C	0.978096	0.715317	0.326215
C64	C	1.478096	1.215317	0.826215
C65	C	0.978135	0.822531	0.326233
C66	C	1.478135	1.322531	0.826233
C67	C	0.978201	1.018826	0.326281
C68	C	1.478201	1.518826	0.826281
C69	C	0.978162	0.909593	0.326256
C70	C	1.478162	1.409593	0.826256
C71	C	1.154694	0.464725	0.326263
C72	C	1.654694	0.964725	0.826263
C73	C	1.229926	0.464734	0.326279
C74	C	1.729926	0.964734	0.826279
C75	C	0.978190	0.464642	0.502769
C76	C	1.478190	0.964642	1.002769
C77	C	0.978206	0.464616	0.578001
C78	C	1.478206	0.964616	1.078001
C79	C	0.978220	1.213109	0.326261
C80	C	1.478220	1.713109	0.826261
C81	C	0.978234	1.105895	0.326296
C82	C	1.478234	1.605895	0.826296
C83	C	0.978153	0.464693	0.150371
C84	C	1.478153	0.964693	0.650371
C85	C	0.978268	0.464447	0.075139
C86	C	1.478268	0.964447	0.575139
C87	C	1.021515	0.402924	0.613362
C88	C	1.521515	0.902924	1.113362
C89	C	1.021522	0.402896	0.684051
C90	C	1.521522	0.902896	1.184051
C91	C	0.978223	0.464565	0.719377
C92	C	1.478223	0.964565	1.219377
C93	C	0.934908	0.526259	0.684011
C94	C	1.434908	1.026259	1.184011
C95	C	0.934898	0.526282	0.613324
C96	C	1.434898	1.026282	1.113324
C97	C	0.934946	0.526169	0.969085
C98	C	1.434946	1.026169	1.469085
C99	C	0.934961	0.526144	1.039777
C100	C	1.434961	1.026144	1.539777
C101	C	1.021570	0.402784	1.039811
C102	C	1.521570	0.902784	1.539811
C103	C	1.021560	0.402807	0.969124
C104	C	1.521560	0.902807	1.469124
C105	C	0.978244	0.464496	0.933765
C106	C	1.478244	0.964496	1.433765
C107	C	0.978236	0.464525	0.857116
C108	C	1.478236	0.964525	1.357116
C109	C	0.978233	0.464543	0.796024
C110	C	1.478233	0.964543	1.296024
H111	H	0.364715	0.352670	0.247849
H112	H	0.864715	0.852670	0.747849
N113	N	1.068283	0.336227	1.077945
N114	N	1.568283	0.836227	1.577945
H115	H	1.116637	0.351220	1.065656
H116	H	1.616637	0.851220	1.565656
H117	H	1.061663	0.345589	1.128074
H118	H	1.561663	0.845589	1.628074
H119	H	0.899685	0.576415	0.940304
H120	H	1.399685	1.076415	1.440304
N121	N	1.068221	0.336339	0.722191
N122	N	1.568221	0.836339	1.222191
H123	H	1.095648	0.297275	0.689085
H124	H	1.595648	0.797275	1.189085
H125	H	1.099539	0.375581	0.751532
H126	H	1.599539	0.875581	1.251532
H127	H	0.899650	0.576468	0.712780
H128	H	1.399650	1.076468	1.212780
N129	N	0.227122	0.336357	0.236444
N130	N	0.727122	0.836357	0.736444
H131	H	0.197775	0.375514	0.205037
H132	H	0.697775	0.875514	0.705037
H133	H	0.260275	0.297244	0.209110
H134	H	0.760275	0.797244	0.709110
N135	N	0.729859	0.593087	0.416018
N136	N	1.229859	1.093087	0.916018
H137	H	0.759216	0.553946	0.447426
H138	H	1.259216	1.053946	0.947426
H139	H	0.759121	0.637725	0.388406
H140	H	1.259121	1.137725	0.888406
N141	N	1.068222	0.336416	0.575262
N142	N	1.568222	0.836416	1.075262
H143	H	1.095658	0.297330	0.608392
H144	H	1.595658	0.797330	1.108392
H145	H	1.040681	0.291782	0.545930
H146	H	1.540681	0.791782	1.045930
H147	H	1.056822	0.352593	0.940365
H148	H	1.556822	0.852593	1.440365
N149	N	0.227176	0.593118	0.416103
N150	N	0.727176	1.093118	0.916103
H151	H	0.260302	0.632246	0.443470
H152	H	0.760302	1.132246	0.943470
H153	H	0.197824	0.637708	0.388501
H154	H	0.697824	1.137708	0.888501
N155	N	0.374104	0.593116	0.416070
N156	N	0.874104	1.093116	0.916070
H157	H	0.340995	0.632244	0.443452
H158	H	0.840995	1.132244	0.943452
H159	H	0.403461	0.553909	0.447434
H160	H	0.903461	1.053909	0.947434
N161	N	0.888257	0.592661	1.077882
N162	N	1.388257	1.092661	1.577882
H163	H	0.860813	0.631744	1.044756
H164	H	1.360813	1.131744	1.544756
H165	H	0.856955	0.553379	1.107209
H166	H	1.356955	1.053379	1.607209
H167	H	0.899624	0.576507	0.584534
H168	H	1.399624	1.076507	1.084534
H169	H	0.592279	0.576762	0.404619
H170	H	1.092279	1.076762	0.904619
H171	H	0.720472	0.352622	0.247792
H172	H	1.220472	0.852622	0.747792
H173	H	0.592238	0.352645	0.247803
H174	H	1.092238	0.852645	0.747803
