data_functionalizedCrystal
_audit_creation_method	'MofGen! by Chris Wilmer'
_symmetry_space_group_name_H-M	'P1'
_symmetry_Int_Tables_number	1
_symmetry_cell_setting	triclinic
loop_
_symmetry_equiv_pos_as_xyz
  x,y,z
_cell_length_a	14.519709
_cell_length_b	15.021413
_cell_length_c	14.519709
_cell_angle_alpha	89.996924
_cell_angle_beta	83.680145
_cell_angle_gamma	90.001715
loop_
_atom_site_label
_atom_site_type_symbol
_atom_site_fract_x
_atom_site_fract_y
_atom_site_fract_z
O1	O	1.223873	0.073918	0.120879
O2	O	0.955396	0.073946	0.135115
O3	O	1.096752	0.073923	-0.006241
O4	O	1.082516	0.073941	0.262236
O5	O	1.096730	-0.074141	-0.006221
O6	O	0.955373	-0.074119	0.135136
O7	O	1.223850	-0.074146	0.120899
Zn8	Zn	1.089608	-0.097641	0.128021
Zn9	Zn	1.089638	0.097440	0.127994
O10	O	1.082493	-0.074124	0.262256
C11	C	0.921025	-0.000083	0.134462
C12	C	0.818643	-0.000073	0.132474
N13	N	1.089595	-0.230778	0.128038
C14	C	0.443748	-0.000114	0.125154
C15	C	0.548056	-0.000102	0.127187
C16	C	0.631192	-0.000093	0.128814
C17	C	0.735507	-0.000083	0.130847
C18	C	1.024221	-0.470451	0.193371
C19	C	1.107584	-0.529793	0.211408
C20	C	1.089618	-0.412385	0.128015
C21	C	1.006278	-0.529785	0.109999
C22	C	1.089633	-0.587809	0.127995
C23	C	1.173023	-0.470421	0.146094
C24	C	1.071663	-0.470408	0.044649
C25	C	1.155085	-0.529723	0.062650
C26	C	1.089608	-0.311328	0.128029
C27	C	1.089653	-0.688865	0.127980
C28	C	1.258221	-0.000116	0.121553
C29	C	1.360602	-0.000120	0.123541
C30	C	1.096078	-0.000109	-0.040591
C31	C	1.094090	-0.000109	-0.142972
N32	N	1.089659	0.230578	0.127969
C33	C	1.086770	-0.000086	-0.517868
C34	C	1.088803	-0.000092	-0.413560
C35	C	1.090430	-0.000098	-0.330423
C36	C	1.092463	-0.000104	-0.226109
C37	C	1.083168	-0.000090	0.296606
C38	C	1.085156	-0.000083	0.398987
H39	H	0.968973	-0.444427	0.248685
C40	C	1.127671	-0.564533	0.305474
C41	C	1.058982	-0.534528	0.373645
C42	C	1.077442	-0.566519	0.460309
H43	H	1.186393	-0.543355	0.318843
H44	H	1.128050	-0.627775	0.304653
H45	H	1.058612	-0.471300	0.374467
H46	H	1.000253	-0.555704	0.360306
H47	H	1.077821	-0.629760	0.459488
H48	H	1.136166	-0.545338	0.473668
H49	H	1.030835	-0.546172	0.506572
C50	C	1.229052	-0.564167	-0.010946
C51	C	1.316109	-0.533942	0.008345
C52	C	1.384271	-0.565666	-0.059420
H53	H	1.216920	-0.542954	-0.070051
H54	H	1.228376	-0.627411	-0.010883
H55	H	1.316783	-0.470711	0.008272
H56	H	1.328270	-0.555152	0.067437
H57	H	1.383595	-0.628910	-0.059357
H58	H	1.372131	-0.544451	-0.118520
H59	H	1.443348	-0.545170	-0.046336
C60	C	1.051231	-0.435465	-0.049223
C61	C	0.971157	-0.382888	-0.038053
C62	C	0.952302	-0.350672	-0.124504
H63	H	1.041988	-0.484107	-0.088984
H64	H	1.102001	-0.400616	-0.075678
H65	H	0.920398	-0.417736	-0.011612
H66	H	0.980379	-0.334232	0.001691
H67	H	1.003072	-0.315823	-0.150959
H68	H	0.943063	-0.399320	-0.164258
H69	H	0.897975	-0.314989	-0.116936
H70	H	1.243524	-0.444454	0.161407
H71	H	0.935793	-0.555864	0.094770
