data_functionalizedCrystal
_audit_creation_method	'MofGen! by Chris Wilmer'
_symmetry_space_group_name_H-M	'P1'
_symmetry_Int_Tables_number	1
_symmetry_cell_setting	triclinic
loop_
_symmetry_equiv_pos_as_xyz
  x,y,z
_cell_length_a	10.908891
_cell_length_b	10.967829
_cell_length_c	10.065875
_cell_angle_alpha	86.921207
_cell_angle_beta	96.556815
_cell_angle_gamma	107.315712
loop_
_atom_site_label
_atom_site_type_symbol
_atom_site_fract_x
_atom_site_fract_y
_atom_site_fract_z
O1	O	-1.712845	-0.205151	-0.065233
O2	O	-1.343422	-0.112161	-0.087108
O3	O	-1.529977	-0.334022	-0.034921
O4	O	-1.526290	0.016711	-0.117420
O5	O	-1.494410	-0.291577	0.182083
O6	O	-1.307855	-0.069715	0.129897
O7	O	-1.677278	-0.162705	0.151771
Zn8	Zn	-1.486919	-0.109471	0.175288
Zn9	Zn	-1.533780	-0.165395	-0.110625
O10	O	-1.490723	0.059157	0.099585
C11	C	-1.278212	-0.082247	0.019350
C12	C	-1.136896	-0.056367	0.013262
C13	C	-1.083377	-0.150797	0.035473
C14	C	-0.937319	-0.124050	0.029181
C15	C	-1.509238	-0.356996	0.083974
C16	C	-1.500416	-0.488686	0.114941
C17	C	-1.514908	-0.569380	0.016331
C18	C	-1.505791	-0.705488	0.048335
C19	C	-0.742488	-0.192617	0.045312
C20	C	-0.883804	-0.218494	0.051396
C21	C	-1.511462	0.082130	-0.019314
C22	C	-1.520285	0.213818	-0.050289
N23	N	-1.454947	-0.071306	0.370417
N24	N	-1.565762	-0.203571	-0.305751
C25	C	-1.522648	-0.152122	0.457205
C26	C	-1.498052	-0.122743	0.607462
H27	H	-0.946111	-0.319149	0.075062
H28	H	-0.875013	-0.023398	0.005500
H29	H	-1.486625	-0.737160	0.156458
Br30	Br	-1.327977	0.080265	0.431966
H31	H	-1.534060	-0.537698	-0.091786
H32	H	-1.074585	0.044278	-0.010418
Br33	Br	-1.693040	-0.354937	0.632662
H34	H	-1.539428	-0.754505	-0.158415
Br35	Br	-1.468471	-0.541469	0.295149
Br36	Br	-1.649272	-0.303935	0.395713
Br37	Br	-1.371076	0.028834	0.669004
H38	H	-1.145689	-0.251444	0.059141
