data_functionalizedCrystal
_audit_creation_method	'MofGen! by Chris Wilmer'
_symmetry_space_group_name_H-M	'P1'
_symmetry_Int_Tables_number	1
_symmetry_cell_setting	triclinic
loop_
_symmetry_equiv_pos_as_xyz
  x,y,z
_cell_length_a	19.805407
_cell_length_b	25.639239
_cell_length_c	25.639233
_cell_angle_alpha	89.981253
_cell_angle_beta	89.985655
_cell_angle_gamma	90.038686
loop_
_atom_site_label
_atom_site_type_symbol
_atom_site_fract_x
_atom_site_fract_y
_atom_site_fract_z
Zn1	Zn	1.034643	-0.208214	-0.295633
Zn2	Zn	1.034544	-0.295633	-0.208197
Zn3	Zn	0.921468	-0.208214	-0.208209
Zn4	Zn	0.921397	-0.295621	-0.295599
O5	O	0.978013	-0.251920	-0.251910
O6	O	1.129346	-0.219816	-0.284044
O7	O	1.019532	-0.284042	-0.135034
O8	O	0.936552	-0.135048	-0.219825
O9	O	1.129274	-0.284043	-0.219805
O10	O	1.019701	-0.135049	-0.284055
O11	O	0.936456	-0.219815	-0.135042
O12	O	0.826742	-0.219803	-0.219792
O13	O	0.936431	-0.284021	-0.368769
O14	O	0.826690	-0.284020	-0.283998
O15	O	1.019632	-0.219804	-0.368794
O16	O	1.019463	-0.368797	-0.219773
O17	O	0.936335	-0.368788	-0.283986
C18	C	0.802157	-0.251910	-0.251893
C19	C	0.726925	-0.251919	-0.251898
C20	C	0.691571	-0.285407	-0.285276
C21	C	0.620883	-0.285408	-0.285283
C22	C	0.585549	-0.251923	-0.251910
C23	C	0.620908	-0.218431	-0.218531
C24	C	0.691595	-0.218428	-0.218526
C25	C	0.335835	-0.218442	-0.218548
C26	C	0.265143	-0.218449	-0.218554
C27	C	0.265122	-0.285423	-0.285305
C28	C	0.335810	-0.285420	-0.285300
C29	C	0.371162	-0.251926	-0.251923
C30	C	0.447810	-0.251925	-0.251917
C31	C	0.508902	-0.251926	-0.251914
C32	C	0.977899	-0.387763	-0.251886
C33	C	0.977912	-0.445877	-0.251893
C34	C	1.021411	-0.806232	-0.218531
C35	C	1.021437	-0.860837	-0.218538
O36	O	1.058303	-0.889067	-0.190145
N37	N	0.978132	-0.888159	-0.251944
C38	C	0.934802	-0.860875	-0.285350
O39	O	0.897971	-0.889129	-0.313766
C40	C	0.934780	-0.806272	-0.285345
C41	C	0.978083	-0.778952	-0.251933
C42	C	1.064711	-0.778912	-0.185121
C43	C	1.064684	-0.724312	-0.185114
C44	C	1.021356	-0.697031	-0.218516
C45	C	0.978056	-0.724351	-0.251925
C46	C	0.891455	-0.778989	-0.318753
C47	C	0.891436	-0.724382	-0.318746
C48	C	0.934740	-0.697062	-0.285333
C49	C	0.934701	-0.642470	-0.285320
N50	N	0.978006	-0.615148	-0.251913
C51	C	1.021334	-0.642428	-0.218511
C52	C	0.934853	-0.975546	-0.285358
C53	C	0.934872	-1.030148	-0.285361
C54	C	1.021508	-1.030106	-0.218549
C55	C	1.021485	-0.975502	-0.218544
C56	C	0.978159	-0.948223	-0.251951
C57	C	1.021273	-0.527763	-0.218497
C58	C	1.021240	-0.473158	-0.218491
C59	C	0.934607	-0.473205	-0.285305
C60	C	0.934637	-0.527805	-0.285309
C61	C	0.977976	-0.555083	-0.251904
O62	O	0.897856	-0.614206	-0.313699
O63	O	1.058166	-0.614167	-0.190104
C64	C	1.154556	-0.251931	-0.251927
C65	C	1.229788	-0.251935	-0.251934
C66	C	0.978035	-0.251911	-0.388283
C67	C	0.978044	-0.251907	-0.446397
C68	C	0.978146	-0.115547	-0.251945
C69	C	0.978202	-0.057433	-0.251960
C70	C	1.021422	-0.218370	-0.806779
C71	C	1.021430	-0.218356	-0.861383
O72	O	1.058257	-0.189903	-0.889636
N73	N	0.978119	-0.251785	-0.888680
C74	C	0.934791	-0.285227	-0.861369
O75	O	0.897951	-0.313659	-0.889601
C76	C	0.934780	-0.285238	-0.806766
C77	C	0.978099	-0.251811	-0.779472
C78	C	1.064737	-0.184945	-0.779485
C79	C	1.064730	-0.184960	-0.724884
C80	C	1.021407	-0.218401	-0.697578
C81	C	0.978091	-0.251826	-0.724871
C82	C	0.891449	-0.318677	-0.779456
C83	C	0.891441	-0.318685	-0.724849
C84	C	0.934761	-0.285258	-0.697555
C85	C	0.934761	-0.285282	-0.642964
N86	N	0.978073	-0.251853	-0.615667
C87	C	1.021395	-0.218412	-0.642974
C88	C	0.934817	-0.285200	-0.976040
C89	C	0.934831	-0.285191	-1.030642
C90	C	1.021470	-0.218319	-1.030652
C91	C	1.021459	-0.218331	-0.976049
C92	C	0.978129	-0.251770	-0.948743
C93	C	1.021376	-0.218447	-0.528309
C94	C	1.021367	-0.218467	-0.473704
C95	C	0.934726	-0.285337	-0.473698
C96	C	0.934738	-0.285319	-0.528299
C97	C	0.978065	-0.251870	-0.555603
O98	O	0.897951	-0.313718	-0.614677
O99	O	1.058223	-0.189980	-0.614736
C100	C	0.978030	-0.251892	-0.116067
C101	C	0.978152	-0.251748	-0.057954
H102	H	0.592101	-0.312678	-0.312462
H103	H	0.899328	-0.450984	-0.312499
H104	H	0.856189	-0.801223	-0.345959
C105	C	1.030917	-0.148009	-0.914659
C106	C	1.069069	-0.181581	-0.946050
H107	H	1.060311	-0.125322	-0.896139
H108	H	1.001455	-0.128010	-0.935963
H109	H	1.005120	-0.167930	-0.890578
H110	H	1.094863	-0.161661	-0.970134
H111	H	1.098543	-0.201582	-0.924744
C112	C	0.805811	-0.729912	-0.384795
C113	C	0.843809	-0.694397	-0.355470
H114	H	0.776406	-0.711401	-0.407464
H115	H	0.835296	-0.751176	-0.404813
H116	H	0.779950	-0.751241	-0.361994
H117	H	0.869674	-0.673071	-0.378271
H118	H	0.814320	-0.673124	-0.335450
C119	C	1.059824	-0.188784	-0.390008
C120	C	1.068977	-0.181714	-0.443702
H121	H	1.089216	-0.166095	-0.371489
H122	H	1.014357	-0.181137	-0.381060
H123	H	1.069705	-0.223916	-0.381059
H124	H	1.059091	-0.146583	-0.452652
H125	H	1.114455	-0.189357	-0.452654
C126	C	0.357594	-0.311014	-0.373786
C127	C	0.374648	-0.322225	-0.321987
H128	H	0.381574	-0.333734	-0.396436
H129	H	0.310442	-0.315811	-0.378562
H130	H	0.369212	-0.275893	-0.381492
H131	H	0.363025	-0.357345	-0.314280
H132	H	0.421811	-0.317432	-0.317209
C133	C	0.843741	-0.292489	-0.914634
C134	C	0.887192	-0.321967	-0.946029
H135	H	0.814337	-0.315189	-0.896112
H136	H	0.869529	-0.272590	-0.890560
H137	H	0.817880	-0.269703	-0.935940
H138	H	0.913056	-0.344751	-0.924722
H139	H	0.861400	-0.341875	-0.970106
H140	H	1.056565	-0.549966	-0.191296
C141	C	0.185660	-0.292796	-0.355634
C142	C	0.226260	-0.322235	-0.322000
H143	H	0.161673	-0.315523	-0.378288
H144	H	0.154503	-0.272859	-0.335759
H145	H	0.213272	-0.270047	-0.375670
H146	H	0.198647	-0.344981	-0.301961
H147	H	0.257420	-0.342181	-0.341876
H148	H	0.856149	-0.345911	-0.702619
H149	H	1.056790	-1.052327	-0.191353
H150	H	0.899378	-0.550050	-0.312518
C151	C	1.107022	-0.152354	-0.522820
C152	C	1.069007	-0.181684	-0.558316
H153	H	1.136431	-0.129663	-0.541346
H154	H	1.077547	-0.132360	-0.501523
H155	H	1.132878	-0.175151	-0.501522
H156	H	1.043146	-0.158887	-0.579612
H157	H	1.098486	-0.201680	-0.579622
C158	C	0.357569	-0.192838	-0.130060
C159	C	0.374686	-0.181628	-0.181858
H160	H	0.381559	-0.170110	-0.107409
H161	H	0.310419	-0.188051	-0.125293
H162	H	0.369133	-0.227955	-0.122349
H163	H	0.363117	-0.146512	-0.189571
H164	H	0.421847	-0.186410	-0.186628
C165	C	1.150330	-0.729772	-0.119084
C166	C	1.112295	-0.694286	-0.148393
H167	H	1.179729	-0.711237	-0.096417
H168	H	1.120866	-0.751096	-0.099064
H169	H	1.176198	-0.751042	-0.141895
H170	H	1.086423	-0.673018	-0.125581
H171	H	1.141762	-0.672952	-0.168414
C172	C	0.858378	-0.407204	-0.796230
C173	C	0.843825	-0.355423	-0.809442
H174	H	0.828970	-0.429890	-0.814738
H175	H	0.903839	-0.414858	-0.805193
H176	H	0.852183	-0.411981	-0.759799
H177	H	0.850025	-0.350644	-0.845873
H178	H	0.798353	-0.347766	-0.800483
C179	C	0.185637	-0.211087	-0.148234
C180	C	0.226308	-0.181641	-0.181862
H181	H	0.161668	-0.188366	-0.125579
H182	H	0.154465	-0.231027	-0.168112
H183	H	0.213199	-0.233834	-0.128197
H184	H	0.198745	-0.158896	-0.201901
H185	H	0.257484	-0.161692	-0.161982
C186	C	0.512560	-0.188696	-0.188898
C187	C	0.582071	-0.181621	-0.181848
H188	H	0.488586	-0.165972	-0.166248
H189	H	0.501001	-0.181098	-0.224038
H190	H	0.500951	-0.223815	-0.181180
H191	H	0.593681	-0.146502	-0.189570
H192	H	0.593635	-0.189215	-0.146699
C193	C	0.684519	-0.152233	-0.152537
C194	C	0.730459	-0.181621	-0.181832
H195	H	0.708513	-0.129512	-0.129881
H196	H	0.656978	-0.132267	-0.175353
H197	H	0.656920	-0.174991	-0.132501
H198	H	0.758055	-0.158863	-0.201871
H199	H	0.758012	-0.201588	-0.159012
H200	H	1.100003	-0.157739	-0.702667
H201	H	1.056744	-0.191089	-1.052895
C202	C	0.849193	-0.351290	-1.025133
C203	C	0.887218	-0.321939	-1.060640
H204	H	0.819793	-0.373973	-1.043652
H205	H	0.878662	-0.371295	-1.003840
H206	H	0.823326	-0.328507	-1.003833
H207	H	0.913088	-0.344722	-1.081937
H208	H	0.857744	-0.301933	-1.081942
H209	H	1.056747	-0.953262	-0.191337
C210	C	0.925265	-0.355631	-0.589708
C211	C	0.887124	-0.322062	-0.558305
H212	H	0.895864	-0.378313	-0.608228
H213	H	0.951060	-0.335711	-0.613784
H214	H	0.954729	-0.375641	-0.568407
H215	H	0.857662	-0.302050	-0.579607
H216	H	0.861317	-0.341984	-0.534227
H217	H	0.899604	-1.052388	-0.312564
C218	C	0.799919	-0.315145	-0.314908
C219	C	0.730407	-0.322216	-0.321960
H220	H	0.823891	-0.337872	-0.337555
H221	H	0.811531	-0.280031	-0.322624
H222	H	0.811475	-0.322746	-0.279763
H223	H	0.718850	-0.314611	-0.357105
H224	H	0.718790	-0.357338	-0.314248
C225	C	1.097808	-0.096408	-0.796291
C226	C	1.112367	-0.148183	-0.809492
H227	H	1.127221	-0.073714	-0.814810
H228	H	1.052350	-0.088751	-0.805247
H229	H	1.103991	-0.091645	-0.759862
H230	H	1.106179	-0.152948	-0.845920
H231	H	1.157836	-0.155843	-0.800539
C232	C	1.106883	-0.478609	-0.152451
C233	C	1.068845	-0.443128	-0.181763
H234	H	1.136274	-0.460070	-0.129781
H235	H	1.077420	-0.499938	-0.132434
H236	H	1.132759	-0.499875	-0.175260
H237	H	1.042965	-0.421864	-0.158955
H238	H	1.098311	-0.421790	-0.201782
C239	C	1.155848	-0.840198	-0.177963
C240	C	1.112389	-0.808872	-0.148420
H241	H	1.185299	-0.858681	-0.155306
H242	H	1.130069	-0.864305	-0.197832
H243	H	1.181659	-0.818849	-0.200779
H244	H	1.086575	-0.830221	-0.125607
H245	H	1.138172	-0.784762	-0.128542
C246	C	0.849213	-0.981081	-0.351395
C247	C	0.887216	-0.945563	-0.322077
H248	H	0.819802	-0.962572	-0.374061
H249	H	0.878695	-1.002345	-0.371416
H250	H	0.823358	-1.002409	-0.328589
H251	H	0.913074	-0.924237	-0.344882
H252	H	0.857729	-0.924290	-0.302054
C253	C	0.896245	-0.315037	-0.389985
C254	C	0.887103	-0.322090	-0.443675
H255	H	0.866838	-0.337723	-0.371451
H256	H	0.941707	-0.322699	-0.381045
H257	H	0.886378	-0.279905	-0.381048
H258	H	0.896975	-0.357221	-0.452613
H259	H	0.841631	-0.314432	-0.452619
