data_functionalizedCrystal
_audit_creation_method	'MofGen! by Chris Wilmer'
_symmetry_space_group_name_H-M	'P1'
_symmetry_Int_Tables_number	1
_symmetry_cell_setting	triclinic
loop_
_symmetry_equiv_pos_as_xyz
  x,y,z
_cell_length_a	19.188930
_cell_length_b	27.732048
_cell_length_c	17.666332
_cell_angle_alpha	89.988553
_cell_angle_beta	89.976766
_cell_angle_gamma	82.893716
loop_
_atom_site_label
_atom_site_type_symbol
_atom_site_fract_x
_atom_site_fract_y
_atom_site_fract_z
O1	O	0.925765	0.060348	-0.063200
O2	O	1.425765	0.560348	0.436800
O3	O	0.722402	0.068472	-0.063149
O4	O	1.222402	0.568472	0.436851
O5	O	0.830399	-0.005968	-0.063161
O6	O	1.330399	0.494032	0.436839
O7	O	0.817767	0.134787	-0.063187
O8	O	1.317767	0.634787	0.436813
O9	O	0.830380	-0.005971	0.062735
O10	O	1.330380	0.494029	0.562735
O11	O	0.722383	0.068468	0.062748
O12	O	1.222383	0.568468	0.562748
O13	O	0.925746	0.060344	0.062697
O14	O	1.425746	0.560344	0.562697
Cu15	Cu	0.824063	0.064406	0.074218
Cu16	Cu	1.324063	0.564406	0.574218
Cu17	Cu	0.824085	0.064410	-0.074670
Cu18	Cu	1.324085	0.564410	0.425330
O19	O	0.817748	0.134783	0.062710
O20	O	1.317748	0.634783	0.562710
C21	C	0.696383	0.068207	-0.000194
C22	C	1.196383	0.568207	0.499806
C23	C	0.618883	0.067417	-0.000174
C24	C	1.118883	0.567417	0.499826
C25	C	0.573681	0.111096	-0.000194
C26	C	1.073681	0.611096	0.499806
C27	C	0.500862	0.110354	-0.000202
C28	C	1.000862	0.610354	0.499798
C29	C	0.473249	0.065931	-0.000205
C30	C	0.973249	0.565931	0.499795
C31	C	0.518461	0.022246	-0.000181
C32	C	1.018461	0.522246	0.499819
C33	C	0.591278	0.022990	-0.000165
C34	C	1.091278	0.522990	0.499835
N35	N	0.365491	0.031976	-0.043078
N36	N	0.865491	0.531976	0.456922
N37	N	0.296317	0.031273	-0.043094
N38	N	0.796317	0.531273	0.456906
C39	C	0.253854	0.063689	-0.000251
C40	C	0.753854	0.563689	0.499749
N41	N	0.283177	0.096841	0.042600
N42	N	0.783177	0.596841	0.542600
N43	N	0.352357	0.097546	0.042613
N44	N	0.852357	0.597546	0.542613
C45	C	0.394291	0.065120	-0.000222
C46	C	0.894291	0.565120	0.499778
C47	C	0.129692	0.106566	-0.000279
C48	C	0.629692	0.606566	0.499721
C49	C	0.056872	0.105822	-0.000282
C50	C	0.556872	0.605822	0.499718
C51	C	0.074473	0.017714	-0.000269
C52	C	0.574473	0.517714	0.499731
C53	C	0.147292	0.018459	-0.000258
C54	C	0.647292	0.518459	0.499742
C55	C	0.174897	0.062886	-0.000267
C56	C	0.674897	0.562886	0.499733
C57	C	0.830125	-0.023977	-0.000211
C58	C	1.330125	0.476023	0.499789
C59	C	0.829326	-0.077635	-0.000204
C60	C	1.329326	0.422365	0.499796
C61	C	0.888119	-0.416270	-0.000258
C62	C	1.388119	0.083730	0.499742
C63	C	0.885157	-0.617939	-0.000268
C64	C	1.385157	-0.117939	0.499732
O65	O	0.938918	-0.649030	-0.000314
O66	O	1.438918	-0.149030	0.499686
N67	N	0.821118	-0.637258	-0.000251
N68	N	1.321118	-0.137258	0.499749
C69	C	0.757816	-0.606157	-0.000237
C70	C	1.257816	-0.106157	0.499763
O71	O	0.703280	-0.627217	-0.000231
O72	O	1.203280	-0.127217	0.499769
C73	C	0.760780	-0.404489	-0.000233
C74	C	1.260780	0.095511	0.499767
C75	C	0.824822	-0.385173	-0.000242
C76	C	1.324822	0.114827	0.499758
C77	C	0.952156	-0.396953	-0.000268
C78	C	1.452156	0.103047	0.499732
C79	C	0.952896	-0.346539	-0.000261
C80	C	1.452896	0.153461	0.499739
C81	C	0.889599	-0.315441	-0.000245
C82	C	1.389599	0.184559	0.499755
C83	C	0.825562	-0.334759	-0.000235
C84	C	1.325562	0.165241	0.499765
C85	C	0.697478	-0.373389	-0.000224
C86	C	1.197478	0.126611	0.499776
C87	C	0.698225	-0.322969	-0.000225
C88	C	1.198225	0.177031	0.499775
C89	C	0.762267	-0.303653	-0.000234
C90	C	1.262267	0.196347	0.499766
C91	C	0.763005	-0.253247	-0.000212
C92	C	1.263005	0.246753	0.499788
N93	N	0.827043	-0.233928	-0.000229
N94	N	1.327043	0.266072	0.499771
C95	C	0.890340	-0.265025	-0.000245
C96	C	1.390340	0.234975	0.499755
C97	C	0.756265	-0.712036	-0.000238
C98	C	1.256265	-0.212036	0.499762
C99	C	0.755524	-0.762452	-0.000238
C100	C	1.255524	-0.262452	0.499762
C101	C	0.882865	-0.774231	-0.000270
C102	C	1.382865	-0.274231	0.499730
C103	C	0.883605	-0.723813	-0.000265
C104	C	1.383605	-0.223813	0.499735
C105	C	0.820303	-0.692716	-0.000254
C106	C	1.320303	-0.192716	0.499746
C107	C	0.891889	-0.159151	-0.000231
C108	C	1.391889	0.340849	0.499769
C109	C	0.892623	-0.108732	-0.000221
C110	C	1.392623	0.391268	0.499779
C111	C	0.765283	-0.096958	-0.000193
C112	C	1.265283	0.403042	0.499807
C113	C	0.764549	-0.147373	-0.000198
C114	C	1.264549	0.352627	0.499802
C115	C	0.827857	-0.178468	-0.000220
C116	C	1.327857	0.321532	0.499780
O117	O	0.709272	-0.222127	-0.000174
O118	O	1.209272	0.277873	0.499826
O119	O	0.944868	-0.243956	-0.000268
O120	O	1.444868	0.256044	0.499732
C121	C	0.887379	-0.466684	-0.000265
C122	C	1.387379	0.033316	0.499735
C123	C	0.823342	-0.486001	-0.000255
C124	C	1.323342	0.013999	0.499745
C125	C	0.760045	-0.454904	-0.000238
C126	C	1.260045	0.045096	0.499762
C127	C	0.822601	-0.536418	-0.000254
C128	C	1.322601	-0.036418	0.499746
C129	C	0.885898	-0.567515	-0.000271
C130	C	1.385898	-0.067515	0.499729
C131	C	0.949936	-0.548195	-0.000288
C132	C	1.449936	-0.048195	0.499712
C133	C	0.950676	-0.497781	-0.000281
C134	C	1.450676	0.002219	0.499719
C135	C	0.696007	-0.474223	-0.000222
C136	C	1.196007	0.025777	0.499778
C137	C	0.695272	-0.524638	-0.000227
C138	C	1.195272	-0.024638	0.499773
C139	C	0.758569	-0.555735	-0.000244
C140	C	1.258569	-0.055735	0.499756
C141	C	0.951765	0.060609	-0.000260
C142	C	1.451765	0.560609	0.499740
C143	C	1.029264	0.061399	-0.000285
C144	C	1.529264	0.561399	0.499715
C145	C	0.818023	0.152793	-0.000243
C146	C	1.318023	0.652793	0.499757
C147	C	0.818821	0.206450	-0.000254
C148	C	1.318821	0.706450	0.499746
N149	N	0.824052	0.064402	0.178937
N150	N	1.324052	0.564402	0.678937
N151	N	0.824101	0.064410	-0.179389
N152	N	1.324101	0.564410	0.320611
C153	C	0.871889	0.031456	0.218541
C154	C	1.371889	0.531456	0.718541
C155	C	0.871893	0.031454	0.297789
C156	C	1.371893	0.531454	0.797789
C157	C	0.824067	0.064406	0.337429
C158	C	1.324067	0.564406	0.837429
C159	C	0.776221	0.097354	0.297816
C160	C	1.276221	0.597354	0.797816
C161	C	0.776214	0.097352	0.218570
C162	C	1.276214	0.597352	0.718570
N163	N	0.814718	0.107196	0.461842
N164	N	1.314718	0.607196	0.961842
N165	N	0.814729	0.107196	0.537122
N166	N	1.314729	0.607196	1.037122
C167	C	0.824085	0.064412	0.576193
C168	C	1.324085	0.564412	1.076193
N169	N	0.833444	0.021627	0.537140
N170	N	1.333444	0.521627	1.037140
N171	N	0.833436	0.021628	0.461853
N172	N	1.333436	0.521628	0.961853
C173	C	0.824069	0.064411	0.423359
C174	C	1.324069	0.564411	0.923359
C175	C	0.871929	0.031462	0.701727
C176	C	1.371929	0.531462	1.201727
C177	C	0.871928	0.031459	0.780976
C178	C	1.371928	0.531459	1.280976
C179	C	0.776260	0.097363	0.781001
C180	C	1.276260	0.597363	1.281001
C181	C	0.776257	0.097361	0.701754
C182	C	1.276257	0.597361	1.201754
C183	C	0.824096	0.064411	0.662121
C184	C	1.324096	0.564411	1.162121
H185	H	0.596152	0.147272	-0.000202
H186	H	1.096152	0.647272	0.499798
H187	H	0.020068	0.141392	-0.000294
H188	H	0.520068	0.641392	0.499706
H189	H	0.184097	-0.017109	-0.000246
H190	H	0.684097	0.482891	0.499754
C191	C	1.023348	-0.325298	-0.000279
C192	C	1.523348	0.174702	0.499721
N193	N	1.076416	-0.309302	-0.000296
N194	N	1.576416	0.190698	0.499704
C195	C	0.488085	-0.026619	-0.000186
C196	C	0.988085	0.473381	0.499814
N197	N	0.465206	-0.063426	-0.000187
N198	N	0.965206	0.436574	0.499813
C199	C	0.451130	0.158405	-0.000233
C200	C	0.951130	0.658405	0.499767
N201	N	0.413674	0.194598	-0.000260
N202	N	0.913674	0.694598	0.499740
C203	C	0.044103	-0.031152	-0.000272
C204	C	0.544103	0.468848	0.499728
N205	N	0.021225	-0.067960	-0.000273
N206	N	0.521225	0.432040	0.499727
H207	H	0.910840	0.004625	0.186275
H208	H	1.410840	0.504625	0.686275
H209	H	0.910848	0.004625	0.330041
H210	H	1.410848	0.504625	0.830041
C211	C	0.160060	0.155437	-0.000279
C212	C	0.660060	0.655437	0.499721
N213	N	0.182931	0.192246	-0.000277
N214	N	0.682931	0.692246	0.499723
C215	C	0.628586	-0.288766	-0.000211
C216	C	1.128586	0.211234	0.499789
N217	N	0.576134	-0.263004	-0.000197
N218	N	1.076134	0.236996	0.499803
C219	C	0.723618	0.133617	0.175004
C220	C	1.223618	0.633617	0.675004
N221	N	0.684013	0.160941	0.142189
N222	N	1.184013	0.660941	0.642189
C223	C	0.961532	-0.193349	-0.000247
C224	C	1.461532	0.306651	0.499753
N225	N	1.013987	-0.219107	-0.000254
N226	N	1.513987	0.280893	0.499746
C227	C	1.021794	-0.431153	-0.000278
C228	C	1.521794	0.068847	0.499722
N229	N	1.074251	-0.456909	-0.000277
N230	N	1.574251	0.043091	0.499723
H231	H	0.944776	-0.093007	-0.000226
H232	H	1.444776	0.406993	0.499774
H233	H	0.628083	-0.012580	-0.000150
H234	H	1.128083	0.487420	0.499850
H235	H	0.737280	0.124183	0.330095
H236	H	1.237280	0.624183	0.830095
C237	C	0.685073	-0.783694	-0.000218
C238	C	1.185073	-0.283694	0.499782
N239	N	0.632006	-0.799692	-0.000208
N240	N	1.132006	-0.299692	0.499792
C241	C	0.723651	0.133610	0.824601
C242	C	1.223651	0.633610	1.324601
N243	N	0.684024	0.160913	0.857444
N244	N	1.184024	0.660913	1.357444
H245	H	0.737307	0.124191	0.669506
H246	H	1.237307	0.624191	1.169506
C247	C	0.954055	-0.702570	-0.000281
C248	C	1.454055	-0.202570	0.499719
N249	N	1.007122	-0.686572	-0.000296
N250	N	1.507122	-0.186572	0.499704
C251	C	0.924545	-0.004788	0.658129
C252	C	1.424545	0.495212	1.158129
N253	N	0.964175	-0.032093	0.625293
N254	N	1.464175	0.467907	1.125293
C255	C	1.019563	-0.582412	-0.000307
C256	C	1.519563	-0.082412	0.499693
N257	N	1.072003	-0.608186	-0.000326
N258	N	1.572003	-0.108186	0.499674
H259	H	0.934404	-0.799559	-0.000283
H260	H	1.434404	-0.299559	0.499717
H261	H	0.704714	-0.686720	-0.000229
H262	H	1.204714	-0.186720	0.499771
H263	H	0.645328	-0.389107	-0.000221
H264	H	1.145328	0.110893	0.499779
C265	C	0.694099	-0.168621	-0.000183
C266	C	1.194099	0.331379	0.499817
N267	N	0.641036	-0.184622	-0.000180
N268	N	1.141036	0.315378	0.499820
H269	H	0.713749	-0.071630	-0.000177
H270	H	1.213749	0.428370	0.499823
H271	H	1.002826	-0.482059	-0.000289
H272	H	1.502826	0.017941	0.499711
H273	H	0.910880	0.004628	0.813222
H274	H	1.410880	0.504628	1.313222
H275	H	0.643117	-0.540360	-0.000213
H276	H	1.143117	-0.040360	0.499787
H277	H	0.644461	-0.448908	-0.000210
H278	H	1.144461	0.051092	0.499790
