data_functionalizedCrystal
_audit_creation_method	'MofGen! by Chris Wilmer'
_symmetry_space_group_name_H-M	'P1'
_symmetry_Int_Tables_number	1
_symmetry_cell_setting	triclinic
loop_
_symmetry_equiv_pos_as_xyz
  x,y,z
_cell_length_a	15.297475
_cell_length_b	13.897448
_cell_length_c	13.897441
_cell_angle_alpha	89.970373
_cell_angle_beta	80.314882
_cell_angle_gamma	80.320483
loop_
_atom_site_label
_atom_site_type_symbol
_atom_site_fract_x
_atom_site_fract_y
_atom_site_fract_z
Zn1	Zn	1.379281	-0.639588	-0.800187
Zn2	Zn	1.379188	-0.800889	-0.638871
Zn3	Zn	1.228411	-0.611670	-0.611034
Zn4	Zn	1.228389	-0.772880	-0.772266
O5	O	1.303817	-0.706257	-0.705590
O6	O	1.505518	-0.684390	-0.802124
O7	O	1.359157	-0.775827	-0.500192
O8	O	1.248473	-0.480400	-0.636161
O9	O	1.505449	-0.802898	-0.683606
O10	O	1.359317	-0.500912	-0.775131
O11	O	1.248383	-0.636808	-0.479740
O12	O	1.102159	-0.609649	-0.609087
O13	O	1.248435	-0.755161	-0.910957
O14	O	1.102142	-0.728090	-0.727543
O15	O	1.359294	-0.657231	-0.931471
O16	O	1.359135	-0.932146	-0.656531
O17	O	1.248344	-0.911569	-0.754535
C18	C	1.069416	-0.662801	-0.662265
C19	C	0.969138	-0.644234	-0.643753
C20	C	0.686536	-0.838966	-0.837898
C21	C	0.780752	-0.856418	-0.855288
C22	C	0.827853	-0.803373	-0.802406
C23	C	0.780729	-0.732874	-0.732131
C24	C	0.686504	-0.715426	-0.714734
C25	C	0.827821	-0.679833	-0.679242
C26	C	0.780696	-0.609334	-0.608966
C27	C	0.686480	-0.591889	-0.591573
C28	C	0.639379	-0.644933	-0.644455
C29	C	0.922046	-0.697281	-0.696639
C30	C	0.922013	-0.573741	-0.573474
C31	C	0.827797	-0.556290	-0.556084
C32	C	1.303751	-0.956859	-0.705550
C33	C	1.303806	-1.064083	-0.705580
C34	C	1.303900	-1.260395	-0.705658
C35	C	1.303845	-1.151153	-0.705617
C36	C	1.539134	-0.749882	-0.749084
C37	C	1.639412	-0.768473	-0.767619
C38	C	1.303872	-0.706186	-0.957193
C39	C	1.303896	-0.706156	-1.064411
C40	C	1.303908	-0.454681	-0.705656
C41	C	1.303947	-0.347474	-0.705684
C42	C	1.303914	-0.706132	-1.151485
C43	C	1.303940	-0.706093	-1.260722
C44	C	1.303814	-0.706267	-0.454975
C45	C	1.303965	-0.706058	-0.347789
H46	H	0.789415	-0.498889	-0.498865
H47	H	0.960363	-0.530550	-0.530412
C48	C	0.537083	-0.625821	-0.625676
C49	C	0.505920	-0.528259	-0.644716
C50	C	0.411690	-0.510631	-0.627446
H51	H	0.515624	-0.638395	-0.559474
H52	H	0.515761	-0.667462	-0.667266
H53	H	0.527233	-0.486631	-0.603127
H54	H	0.527355	-0.515662	-0.710915
H55	H	0.390368	-0.552272	-0.669035
H56	H	0.390239	-0.523210	-0.561243
H57	H	0.390534	-0.444437	-0.640370
H58	H	0.904568	-0.817587	-0.816570
H59	H	0.819114	-0.913820	-0.912504
C60	C	0.973156	-0.773685	-0.773092
C61	C	0.950291	-0.748548	-0.864344
C62	C	0.997364	-0.818903	-0.934805
H63	H	0.957735	-0.835657	-0.756142
H64	H	1.036024	-0.776476	-0.775950
H65	H	0.887437	-0.745767	-0.861485
H66	H	0.965714	-0.686588	-0.881325
H67	H	1.060232	-0.821694	-0.937663
H68	H	0.981940	-0.880870	-0.917846
H69	H	0.981863	-0.801853	-0.996729
C70	C	0.635346	-0.896377	-0.895414
C71	C	0.581303	-0.831825	-0.947366
C72	C	0.534140	-0.884681	-1.000373
H73	H	0.598495	-0.931551	-0.851744
H74	H	0.676869	-0.940840	-0.939816
H75	H	0.539784	-0.787379	-0.902969
H76	H	0.618131	-0.796650	-0.991053
H77	H	0.575663	-0.929143	-1.044775
H78	H	0.497294	-0.919852	-0.956696
H79	H	0.497473	-0.840891	-1.035636
C80	C	0.635478	-0.515278	-0.515263
C81	C	0.696888	-0.472538	-0.472691
C82	C	0.649939	-0.401952	-0.402400
H83	H	0.598696	-0.545204	-0.466293
H84	H	0.598764	-0.466446	-0.545438
H85	H	0.733586	-0.521362	-0.442516
H86	H	0.733672	-0.442592	-0.521636
H87	H	0.613225	-0.353121	-0.432575
H88	H	0.613159	-0.431887	-0.353437
H89	H	0.691599	-0.372939	-0.373513
