data_functionalizedCrystal
_audit_creation_method	'MofGen! by Chris Wilmer'
_symmetry_space_group_name_H-M	'P1'
_symmetry_Int_Tables_number	1
_symmetry_cell_setting	triclinic
loop_
_symmetry_equiv_pos_as_xyz
  x,y,z
_cell_length_a	14.971491
_cell_length_b	17.699083
_cell_length_c	14.048226
_cell_angle_alpha	90.003140
_cell_angle_beta	90.009985
_cell_angle_gamma	83.449625
loop_
_atom_site_label
_atom_site_type_symbol
_atom_site_fract_x
_atom_site_fract_y
_atom_site_fract_z
O1	O	1.186608	0.098647	0.079203
O2	O	0.926168	0.110454	0.079196
O3	O	1.063746	-0.005620	0.079192
O4	O	1.049030	0.214722	0.079208
O5	O	1.063724	-0.005617	-0.079130
O6	O	0.926146	0.110457	-0.079125
O7	O	1.186586	0.098650	-0.079118
Zn8	Zn	1.056362	0.104554	-0.104258
Zn9	Zn	1.056391	0.104550	0.104337
O10	O	1.049008	0.214724	-0.079113
C11	C	0.892834	0.109927	0.000035
C12	C	0.793543	0.108343	0.000032
C13	C	0.365873	0.101504	0.086355
C14	C	0.459168	0.102990	0.086351
C15	C	0.505799	0.103740	0.000047
C16	C	0.459131	0.102995	-0.086260
C17	C	0.365839	0.101504	-0.086255
C18	C	0.653582	0.106107	-0.086263
C19	C	0.746881	0.107600	-0.086268
C20	C	0.746911	0.107594	0.086343
C21	C	0.653619	0.106102	0.086348
C22	C	0.606957	0.105359	0.000041
C23	C	1.063208	-0.033817	0.000031
C24	C	1.061626	-0.117839	0.000030
C25	C	1.142381	-0.166260	0.000031
C26	C	1.140889	-0.245207	0.000040
C27	C	1.058641	-0.275732	0.000040
C28	C	0.977880	-0.227305	0.000042
C29	C	0.979372	-0.148359	0.000041
C30	C	0.971858	-0.545683	0.000050
C31	C	0.970372	-0.624634	0.000049
C32	C	1.133375	-0.642531	0.000049
C33	C	1.134868	-0.563585	0.000047
C34	C	1.054107	-0.515165	0.000054
C35	C	1.055725	-0.429562	0.000047
C36	C	1.057022	-0.361333	0.000041
C37	C	1.219920	0.099177	0.000046
C38	C	1.319211	0.100762	0.000055
C39	C	1.049546	0.242921	0.000050
C40	C	1.051128	0.326943	0.000056
N41	N	1.056349	0.104556	-0.246619
C42	C	1.117340	0.053165	-0.703461
C43	C	1.117332	0.053170	-0.603803
C44	C	1.056391	0.104549	-0.553989
C45	C	0.995460	0.155932	-0.603838
C46	C	0.995473	0.155930	-0.703494
C47	C	0.995435	0.155931	-0.396124
C48	C	0.995421	0.155933	-0.296461
C49	C	1.117294	0.053172	-0.296433
C50	C	1.117307	0.053170	-0.396089
C51	C	1.056375	0.104552	-0.445931
N52	N	1.056412	0.104542	0.246697
H53	H	0.327911	0.100899	0.156634
F54	F	0.796571	0.108392	0.178198
H55	H	0.327847	0.100907	-0.156529
F56	F	0.930586	0.210621	-0.449165
H57	H	1.201843	-0.538737	0.000042
H58	H	0.913613	-0.108935	0.000040
F59	F	1.182141	-0.001512	-0.243384
H60	H	0.497156	0.103590	0.156625
F61	F	0.603991	0.105310	0.178202
F62	F	0.882827	-0.657118	0.000051
F63	F	0.930560	0.210619	-0.243452
H64	H	0.945843	0.197769	-0.563274
F65	F	1.229922	-0.133781	0.000021
H66	H	0.784845	0.108215	-0.156544
H67	H	1.206649	-0.284629	0.000038
H68	H	1.199135	-0.681964	0.000048
H69	H	0.615592	0.105511	-0.156543
F70	F	0.508762	0.103791	-0.178111
F71	F	1.182179	-0.001509	-0.550757
H72	H	0.906097	-0.506268	0.000056
H73	H	0.910912	-0.252164	0.000049
F74	F	1.182161	-0.001517	-0.449105
H75	H	1.166961	0.011323	-0.744013
F76	F	0.930627	0.210614	-0.756538
