data_functionalizedCrystal
_audit_creation_method	'MofGen! by Chris Wilmer'
_symmetry_space_group_name_H-M	'P1'
_symmetry_Int_Tables_number	1
_symmetry_cell_setting	triclinic
loop_
_symmetry_equiv_pos_as_xyz
  x,y,z
_cell_length_a	26.374263
_cell_length_b	26.373608
_cell_length_c	26.370205
_cell_angle_alpha	60.005297
_cell_angle_beta	60.010839
_cell_angle_gamma	59.993700
loop_
_atom_site_label
_atom_site_type_symbol
_atom_site_fract_x
_atom_site_fract_y
_atom_site_fract_z
O1	O	0.070152	-0.740800	0.619517
O2	O	0.570152	-0.240800	1.119517
O3	O	0.026377	-0.576764	0.499159
O4	O	0.526377	-0.076764	0.999159
O5	O	0.130245	-0.680560	0.499088
O6	O	0.630245	-0.180560	0.999088
O7	O	-0.033715	-0.637003	0.619589
O8	O	0.466285	-0.137003	1.119589
O9	O	0.164701	-0.646107	0.533470
O10	O	0.664701	-0.146107	1.033470
O11	O	0.060833	-0.542310	0.533541
O12	O	0.560833	-0.042310	1.033541
O13	O	0.104608	-0.706346	0.653899
O14	O	0.604608	-0.206346	1.153899
Cu15	Cu	0.085867	-0.621182	0.596859
Cu16	Cu	0.585867	-0.121182	1.096859
Cu17	Cu	0.045119	-0.661927	0.556199
Cu18	Cu	0.545119	-0.161927	1.056199
O19	O	0.000741	-0.602549	0.653971
O20	O	0.500741	-0.102549	1.153971
N21	N	0.114528	-0.592529	0.625461
N22	N	0.614528	-0.092529	1.125461
N23	N	0.016463	-0.690587	0.527598
N24	N	0.516463	-0.190587	1.027598
C25	C	0.181428	-0.355400	0.692330
C26	C	0.681428	0.144600	1.192330
C27	C	0.181530	-0.525690	0.862573
C28	C	0.681530	-0.025690	1.362573
C29	C	0.181440	-0.525667	0.692313
C30	C	0.681440	-0.025667	1.192313
C31	C	0.351736	-0.525673	0.692271
C32	C	0.851736	-0.025673	1.192271
C33	C	0.200174	-0.411588	0.711047
C34	C	0.700174	0.088412	1.211047
C35	C	0.200232	-0.506954	0.806384
C36	C	0.700232	-0.006954	1.306384
C37	C	0.295546	-0.506943	0.711016
C38	C	0.795546	-0.006943	1.211016
C39	C	0.200182	-0.506940	0.711037
C40	C	0.700182	-0.006940	1.211037
C41	C	0.157567	-0.283881	0.668507
C42	C	0.657567	0.216119	1.168507
C43	C	0.157587	-0.549500	0.668479
C44	C	0.657587	-0.049500	1.168479
C45	C	0.224035	-0.483107	0.734871
C46	C	0.724035	0.016893	1.234871
C47	C	0.455739	-0.507754	0.637520
C48	C	0.955739	-0.007754	1.137520
C49	C	0.520749	-0.529425	0.615835
C50	C	1.020749	-0.029425	1.115835
C51	C	0.520768	-0.634611	0.655947
C52	C	1.020768	-0.134611	1.155947
C53	C	0.455759	-0.612939	0.677633
C54	C	0.955759	-0.112939	1.177633
C55	C	0.173240	-0.251367	0.604595
C56	C	0.673240	0.248633	1.104595
C57	C	0.151546	-0.186351	0.582941
C58	C	0.651546	0.313649	1.082941
C59	C	0.098512	-0.186369	0.689113
C60	C	0.598512	0.313631	1.189113
C61	C	0.120206	-0.251385	0.710768
C62	C	0.620206	0.248615	1.210768
C63	C	0.093669	-0.533798	0.684205
C64	C	0.593669	-0.033798	1.184205
C65	C	0.071992	-0.555464	0.662532
C66	C	0.571992	-0.055464	1.162532
C67	C	0.178144	-0.608536	0.609422
C68	C	0.678144	-0.108536	1.109422
C69	C	0.199825	-0.586869	0.631088
C70	C	0.699825	-0.086869	1.131088
C71	C	0.093821	-0.533842	0.966616
C72	C	0.593821	-0.033842	1.466616
C73	C	0.072187	-0.555526	1.031630
C74	C	0.572187	-0.055526	1.531630
C75	C	0.178370	-0.608608	1.031591
C76	C	0.678370	-0.108608	1.531591
C77	C	0.200004	-0.586926	0.966576
C78	C	0.700004	-0.086926	1.466576
C79	C	0.157728	-0.549541	0.934090
C80	C	0.657728	-0.049541	1.434090
C81	C	0.423247	-0.549509	0.668416
C82	C	0.923247	-0.049509	1.168416
C83	C	-0.097522	-0.709158	0.508557
C84	C	0.402478	-0.209158	1.008557
C85	C	-0.002050	-0.709295	0.413344
C86	C	0.497950	-0.209295	0.913344
C87	C	-0.002241	-0.804604	0.508735
C88	C	0.497759	-0.304604	1.008735
C89	C	-0.002225	-0.709288	0.508793
C90	C	0.497775	-0.209288	1.008793
C91	C	-0.026009	-0.733087	0.484858
C92	C	0.473991	-0.233087	0.984858
N93	N	0.552340	-0.592538	0.625346
N94	N	1.052340	-0.092538	1.125346
O95	O	0.750867	-0.598274	0.477076
O96	O	1.250867	-0.098274	0.977076
O97	O	0.751048	-0.718989	0.640960
O98	O	1.251048	-0.218989	1.140960
O99	O	0.750981	-0.718715	0.537020
O100	O	1.250981	-0.218715	1.037020
O101	O	0.750934	-0.598547	0.581017
O102	O	1.250934	-0.098547	1.081017
O103	O	0.647701	-0.684348	0.571512
O104	O	1.147701	-0.184348	1.071512
O105	O	0.647768	-0.684622	0.675452
O106	O	1.147768	-0.184622	1.175452
O107	O	0.647587	-0.563907	0.511569
O108	O	1.147587	-0.063907	1.011569
Cu109	Cu	0.638247	-0.621127	0.596660
Cu110	Cu	1.138247	-0.121127	1.096660
Cu111	Cu	0.760388	-0.661769	0.555869
Cu112	Cu	1.260388	-0.161769	1.055869
O113	O	0.647654	-0.564181	0.615509
O114	O	1.147654	-0.064181	1.115509
N115	N	0.846295	-0.690358	0.527176
N116	N	1.346295	-0.190358	1.027176
N117	N	0.114503	-0.154778	0.625499
N118	N	0.614503	0.345222	1.125499
O119	O	-0.033701	0.043855	0.619632
O120	O	0.466299	0.543855	1.119632
O121	O	0.130190	0.043858	0.498933
O122	O	0.630190	0.543858	0.998933
O123	O	0.026233	0.043841	0.499224
O124	O	0.526233	0.543841	0.999224
O125	O	0.070257	0.043872	0.619341
O126	O	0.570257	0.543872	1.119341
O127	O	0.060690	-0.059448	0.533654
O128	O	0.560690	0.440552	1.033654
O129	O	0.164647	-0.059431	0.533363
O130	O	0.664647	0.440569	1.033363
O131	O	0.000756	-0.059434	0.654062
O132	O	0.500756	0.440566	1.154062
Cu133	Cu	0.085848	-0.068863	0.596857
Cu134	Cu	0.585848	0.431137	1.096857
Cu135	Cu	0.045099	0.053287	0.556138
Cu136	Cu	0.545099	0.553287	1.056138
O137	O	0.104714	-0.059417	0.653771
O138	O	0.604714	0.440583	1.153771
N139	N	0.016435	0.139202	0.527497
N140	N	0.516435	0.639202	1.027497
N141	N	0.114760	-0.592585	1.063190
N142	N	0.614760	-0.092585	1.563190
O143	O	0.108896	-0.740779	1.261808
O144	O	0.608896	-0.240779	1.761808
O145	O	-0.011787	-0.576838	1.261822
O146	O	0.488213	-0.076838	1.761822
O147	O	-0.011509	-0.680779	1.261780
O148	O	0.488491	-0.180779	1.761780
O149	O	0.108618	-0.636838	1.261850
O150	O	0.608618	-0.136838	1.761850
O151	O	0.022916	-0.646341	1.158496
O152	O	0.522916	-0.146341	1.658496
O153	O	0.022638	-0.542399	1.158538
O154	O	0.522638	-0.042399	1.658538
O155	O	0.143321	-0.706341	1.158524
O156	O	0.643321	-0.206341	1.658524
Cu157	Cu	0.086123	-0.621225	1.149100
Cu158	Cu	0.586123	-0.121225	1.649100
Cu159	Cu	0.045411	-0.661953	1.271246
Cu160	Cu	0.545411	-0.161953	1.771246
O161	O	0.143044	-0.602399	1.158566
O162	O	0.643044	-0.102399	1.658566
N163	N	0.016774	-0.690600	1.357156
N164	N	0.516774	-0.190600	1.857156
C165	C	0.039504	-0.538867	0.499769
C166	C	0.539504	-0.038867	0.999769
C167	C	0.168130	-0.667407	0.499680
C168	C	0.668130	-0.167407	0.999680
C169	C	0.091482	-0.744243	0.653289
C170	C	0.591482	-0.244243	1.153289
C171	C	-0.037145	-0.615703	0.653378
C172	C	0.462855	-0.115703	1.153378
C173	C	0.699429	-0.718429	0.678853
C174	C	1.199429	-0.218429	1.178853
C175	C	0.699348	-0.718091	0.550135
C176	C	1.199348	-0.218091	1.050135
C177	C	0.699202	-0.564465	0.473677
C178	C	1.199202	-0.064465	0.973677
C179	C	0.699287	-0.564805	0.602393
C180	C	1.199287	-0.064805	1.102393
C181	C	0.168023	-0.007659	0.499484
C182	C	0.668023	0.492341	0.999484
C183	C	0.039327	-0.007807	0.499887
C184	C	0.539327	0.492193	0.999887
C185	C	-0.037119	-0.007789	0.653468
C186	C	0.462881	0.492211	1.153468
C187	C	0.091620	-0.007770	0.653109
C188	C	0.591620	0.492230	1.153109
C189	C	-0.011194	-0.538964	1.210181
C190	C	0.488806	-0.038964	1.710181
C191	C	-0.010843	-0.667676	1.210109
C192	C	0.489157	-0.167676	1.710109
C193	C	0.142729	-0.744214	1.210165
C194	C	0.642729	-0.244214	1.710165
C195	C	0.142386	-0.615494	1.210214
C196	C	0.642386	-0.115494	1.710214
H197	H	0.059391	-0.503396	0.940172
H198	H	0.559391	-0.003396	1.440172
O199	O	0.552448	-0.696202	0.664820
O200	O	1.052448	-0.196202	1.164820
C201	C	0.616795	-0.706377	0.639068
C202	C	1.116795	-0.206377	1.139068
H203	H	0.625654	-0.661634	0.601804
H204	H	1.125654	-0.161634	1.101804
H205	H	0.635266	-0.721362	0.677115
H206	H	1.135266	-0.221362	1.177115
C207	C	0.639284	-0.812644	0.655649
C208	C	1.139284	-0.312644	1.155649
C209	C	0.650165	-0.757691	0.609876
C210	C	1.150165	-0.257691	1.109876
H211	H	0.659869	-0.844298	0.637644
H212	H	1.159869	-0.344298	1.137644
H213	H	0.595932	-0.805790	0.673000
H214	H	1.095932	-0.305790	1.173000
H215	H	0.654676	-0.825123	0.687351
H216	H	1.154676	-0.325123	1.187351
H217	H	0.634766	-0.745208	0.578180
H218	H	1.134766	-0.245208	1.078180
H219	H	0.693515	-0.764544	0.592519
H220	H	1.193515	-0.264544	1.092519
H221	H	-0.048566	-0.677061	1.210046
H222	H	0.451434	-0.177061	1.710046
O223	O	0.219522	-0.644937	1.063051
O224	O	0.719522	-0.144937	1.563051
C225	C	0.280567	-0.654131	1.020402
C226	C	0.780567	-0.154131	1.520402
H227	H	0.280425	-0.646852	0.974060
H228	H	0.780425	-0.146852	1.474060
H229	H	0.299192	-0.619533	1.013492
H230	H	0.799192	-0.119533	1.513492
C231	C	0.322458	-0.729682	1.102666
C232	C	0.822458	-0.229682	1.602666
C233	C	0.322284	-0.720747	1.045749
C234	C	0.822284	-0.220747	1.545749
H235	H	0.348193	-0.770773	1.118302
H236	H	0.848193	-0.270773	1.618302
H237	H	0.281331	-0.723486	1.131400
H238	H	0.781331	-0.223486	1.631400
H239	H	0.337977	-0.700846	1.096900
H240	H	0.837977	-0.200846	1.596900
H241	H	0.306758	-0.749577	1.051517
H242	H	0.806758	-0.249577	1.551517
H243	H	0.363410	-0.726949	1.017017
H244	H	0.863410	-0.226949	1.517017
O245	O	0.028076	-0.007711	0.454816
O246	O	0.528076	0.492289	0.954816
C247	C	0.034966	0.045769	0.402434
C248	C	0.534966	0.545769	0.902434
H249	H	0.028246	0.083169	0.417282
H250	H	0.528246	0.583169	0.917282
H251	H	0.083447	0.033672	0.367245
H252	H	0.583447	0.533672	0.867245
C253	C	-0.005668	0.024074	0.354456
C254	C	0.494332	0.524074	0.854456
C255	C	-0.013926	0.070011	0.372694
C256	C	0.486074	0.570011	0.872694
H257	H	-0.035824	0.039026	0.336109
H258	H	0.464176	0.539026	0.836109
H259	H	-0.010308	-0.011958	0.389746
H260	H	0.489692	0.488042	0.889746
H261	H	0.034735	0.013997	0.325135
H262	H	0.534735	0.513997	0.825135
H263	H	-0.054326	0.080081	0.402020
H264	H	0.445674	0.580081	0.902020
H265	H	-0.009294	0.106045	0.337408
H266	H	0.490706	0.606045	0.837408
O267	O	0.699573	-0.763719	0.734950
O268	O	1.199573	-0.263719	1.234950
C269	C	0.753099	-0.816021	0.726732
C270	C	1.253099	-0.316021	1.226732
H271	H	0.770901	-0.815312	0.677175
H272	H	1.270901	-0.315312	1.177175
H273	H	0.790558	-0.814896	0.735622
H274	H	1.290558	-0.314896	1.235622
C275	C	0.715051	-0.876499	0.833558
C276	C	1.215051	-0.376499	1.333558
C277	C	0.736913	-0.875631	0.772693
C278	C	1.236913	-0.375631	1.272693
H279	H	0.705069	-0.913270	0.861910
H280	H	1.205069	-0.413270	1.361910
H281	H	0.678991	-0.841262	0.839096
H282	H	1.178991	-0.341262	1.339096
H283	H	0.746271	-0.875559	0.840957
H284	H	1.246271	-0.375559	1.340957
H285	H	0.705691	-0.876563	0.765293
H286	H	1.205691	-0.376563	1.265293
H287	H	0.772968	-0.910869	0.767155
H288	H	1.272968	-0.410869	1.267155
H289	H	0.180620	-0.791296	1.210154
H290	H	0.680620	-0.291296	1.710154
H291	H	0.699366	-0.755841	0.540718
H292	H	1.199366	-0.255841	1.040718
O293	O	0.187353	-0.604172	1.210203
O294	O	0.687353	-0.104172	1.710203
C295	C	0.164730	-0.543129	1.210231
C296	C	0.664730	-0.043129	1.710231
H297	H	0.124865	-0.513737	1.190672
H298	H	0.624865	-0.013737	1.690672
H299	H	0.147410	-0.544044	1.259787
H300	H	0.647410	-0.044044	1.759787
C301	C	0.266227	-0.551013	1.193766
C302	C	0.766227	-0.051013	1.693766
C303	C	0.217267	-0.514913	1.169738
C304	C	0.717267	-0.014913	1.669738
H305	H	0.298634	-0.533609	1.168790
H306	H	0.798634	-0.033609	1.668790
H307	H	0.281468	-0.592141	1.193749
H308	H	0.781468	-0.092141	1.693749
H309	H	0.251786	-0.551773	1.235061
H310	H	0.751786	-0.051773	1.735061
H311	H	0.231706	-0.514160	1.128446
H312	H	0.731706	-0.014160	1.628446
H313	H	0.202029	-0.473785	1.169747
H314	H	0.702029	0.026215	1.669747
H315	H	0.699142	-0.526565	0.426612
H316	H	1.199142	-0.026565	0.926612
H317	H	-0.084239	-0.606419	0.691217
H318	H	0.415761	-0.106419	1.191217
O319	O	0.699243	-0.519827	0.613733
O320	O	1.199243	-0.019827	1.113733
C321	C	0.699314	-0.542457	0.674764
C322	C	1.199314	-0.042457	1.174764
H323	H	0.679803	-0.582342	0.704146
H324	H	1.179803	-0.082342	1.204146
H325	H	0.748875	-0.559755	0.673820
H326	H	1.248875	-0.059755	1.173820
C327	C	0.682764	-0.440943	0.666926
C328	C	1.182764	0.059057	1.166926
C329	C	0.658796	-0.489927	0.703016
C330	C	1.158796	0.010073	1.203016
H331	H	0.657773	-0.408540	0.684354
H332	H	1.157773	0.091460	1.184354
H333	H	0.682718	-0.425697	0.625808
H334	H	1.182718	0.074303	1.125808
H335	H	0.724064	-0.455367	0.666143
H336	H	1.224064	0.044633	1.166143
H337	H	0.617500	-0.475505	0.703793
H338	H	1.117500	0.024495	1.203793
H339	H	0.658834	-0.505169	0.744136
H340	H	1.158834	-0.005169	1.244136
O341	O	0.224112	-0.007398	0.454240
O342	O	0.724112	0.492602	0.954240
C343	C	0.271156	-0.060777	0.475223
C344	C	0.771156	0.439223	0.975223
H345	H	0.254241	-0.078810	0.528156
H346	H	0.754241	0.421190	1.028156
H347	H	0.282923	-0.098178	0.457448
H348	H	0.782923	0.401822	0.957448
C349	C	0.350273	-0.022057	0.385639
C350	C	0.850273	0.477943	0.885639
C351	C	0.329500	-0.044201	0.450652
C352	C	0.829500	0.455799	0.950652
H353	H	0.386264	-0.011834	0.370480
H354	H	0.886264	0.488166	0.870480
H355	H	0.318579	0.013905	0.371500
H356	H	0.818579	0.513905	0.871500
H357	H	0.360074	-0.053228	0.370834
H358	H	0.860074	0.446772	0.870834
H359	H	0.319692	-0.013028	0.465456
H360	H	0.819692	0.486972	0.965456
H361	H	0.361194	-0.080157	0.464792
H362	H	0.861194	0.419843	0.964792
O363	O	0.010085	-0.540184	1.063124
O364	O	0.510085	-0.040184	1.563124
C365	C	-0.022583	-0.502548	1.020506
C366	C	0.477417	-0.002548	1.520506
H367	H	0.008406	-0.478911	0.974160
H368	H	0.508406	0.021089	1.474160
H369	H	-0.036609	-0.532534	1.013591
H370	H	0.463391	-0.032534	1.513591
C371	C	-0.119246	-0.481890	1.102820
C372	C	0.380754	0.018110	1.602820
C373	C	-0.081186	-0.452855	1.045899
C374	C	0.418814	0.047145	1.545899
H375	H	-0.155397	-0.451239	1.118485
H376	H	0.344603	0.048761	1.618485
H377	H	-0.097238	-0.507248	1.131534
H378	H	0.402762	-0.007248	1.631534
H379	H	-0.130927	-0.506878	1.097050
H380	H	0.369073	-0.006878	1.597050
H381	H	-0.069499	-0.427875	1.051671
H382	H	0.430501	0.072125	1.551671
H383	H	-0.103194	-0.427492	1.017187
H384	H	0.396806	0.072508	1.517187
H385	H	0.100832	-0.791364	0.691090
H386	H	0.600832	-0.291364	1.191090
O387	O	-0.093317	-0.007750	0.698596
O388	O	0.406683	0.492250	1.198596
C389	C	-0.131973	-0.007772	0.676254
C390	C	0.368027	0.492228	1.176254
H391	H	-0.115164	0.011766	0.623355
H392	H	0.384836	0.511766	1.123355
H393	H	-0.130297	-0.057325	0.692056
H394	H	0.369703	0.442675	1.192056
C395	C	-0.219811	0.008751	0.766934
C396	C	0.280189	0.508751	1.266934
C397	C	-0.199170	0.032754	0.701962
C398	C	0.300830	0.532754	1.201962
H399	H	-0.261262	0.033747	0.782793
H400	H	0.238738	0.533747	1.282793
H401	H	-0.193768	0.008764	0.781988
H402	H	0.306232	0.508764	1.281988
H403	H	-0.218410	-0.032542	0.780093
H404	H	0.281590	0.467458	1.280093
H405	H	-0.200564	0.074043	0.688803
H406	H	0.299436	0.574043	1.188803
H407	H	-0.225215	0.032749	0.686906
H408	H	0.274785	0.532749	1.186906
O409	O	0.102974	-0.007799	0.698074
O410	O	0.602974	0.492201	1.198074
C411	C	0.164014	-0.007782	0.675445
C412	C	0.664014	0.492218	1.175445
H413	H	0.193381	-0.027332	0.635576
H414	H	0.693381	0.472668	1.135576
H415	H	0.163094	0.041770	0.658126
H416	H	0.663094	0.541770	1.158126
C417	C	0.156195	-0.024283	0.776943
C418	C	0.656195	0.475717	1.276943
C419	C	0.192266	-0.048299	0.727980
C420	C	0.692266	0.451701	1.227980
H421	H	0.173622	-0.049273	0.809349
H422	H	0.673622	0.450727	1.309349
H423	H	0.115071	-0.024292	0.792189
H424	H	0.615071	0.475708	1.292189
H425	H	0.155432	0.017010	0.762503
H426	H	0.655432	0.517010	1.262503
H427	H	0.193023	-0.089588	0.742418
H428	H	0.693023	0.410412	1.242418
H429	H	0.233392	-0.048298	0.712738
H430	H	0.733392	0.451702	1.212738
O431	O	-0.056321	-0.482742	1.210101
O432	O	0.443679	0.017258	1.710101
C433	C	-0.035095	-0.435930	1.156614
C434	C	0.464905	0.064070	1.656614
H435	H	0.017838	-0.453023	1.138791
H436	H	0.517838	0.046977	1.638791
H437	H	-0.052706	-0.424314	1.119144
H438	H	0.447294	0.075686	1.619144
C439	C	-0.124636	-0.356402	1.194769
C440	C	0.375364	0.143598	1.694769
C441	C	-0.059623	-0.377395	1.172882
C442	C	0.440377	0.122605	1.672882
H443	H	-0.139768	-0.320293	1.204803
H444	H	0.360232	0.179707	1.704803
H445	H	-0.138938	-0.387940	1.230804
H446	H	0.361062	0.112060	1.730804
H447	H	-0.139304	-0.346726	1.163541
H448	H	0.360696	0.153274	1.663541
H449	H	-0.044957	-0.387077	1.204113
H450	H	0.455043	0.112923	1.704113
H451	H	-0.045319	-0.345857	1.136853
H452	H	0.454681	0.154143	1.636853
O453	O	0.262066	-0.602141	0.934885
O454	O	0.762066	-0.102141	1.434885
C455	C	0.272099	-0.574978	0.870537
C456	C	0.772099	-0.074978	1.370537
H457	H	0.229429	-0.565173	0.861671
H458	H	0.729429	-0.065173	1.361671
H459	H	0.280752	-0.529625	0.852091
H460	H	0.780752	-0.029625	1.352091
C461	C	0.381419	-0.631856	0.848029
C462	C	0.881419	-0.131856	1.348029
C463	C	0.329013	-0.619819	0.837139
C464	C	0.829013	-0.119819	1.337139
H465	H	0.416528	-0.659514	0.827426
H466	H	0.916528	-0.159514	1.327426
H467	H	0.374661	-0.650155	0.891381
H468	H	0.874661	-0.150155	1.391381
H469	H	0.388622	-0.594058	0.832657
H470	H	0.888622	-0.094058	1.332657
H471	H	0.321807	-0.657615	0.852518
H472	H	0.821807	-0.157615	1.352518
H473	H	0.335772	-0.601527	0.793789
H474	H	0.835772	-0.101527	1.293789
O475	O	0.052614	-0.497405	0.720428
O476	O	0.552614	0.002595	1.220428
C477	C	0.014996	-0.442882	0.687619
C478	C	0.514996	0.057118	1.187619
H479	H	0.040079	-0.433838	0.635603
H480	H	0.540079	0.066162	1.135603
H481	H	-0.030677	-0.448787	0.701467
H482	H	0.469323	0.051213	1.201467
C483	C	-0.029089	-0.398673	0.767223
C484	C	0.470911	0.101327	1.267223
C485	C	0.001721	-0.387561	0.703336
C486	C	0.501721	0.112439	1.203336
H487	H	-0.037280	-0.364548	0.776919
H488	H	0.462720	0.135452	1.276919
H489	H	-0.003747	-0.435407	0.789328
H490	H	0.496253	0.064593	1.289328
H491	H	-0.067147	-0.403595	0.778755
H492	H	0.432853	0.096405	1.278755
H493	H	0.039781	-0.382647	0.691806
H494	H	0.539781	0.117353	1.191806
H495	H	-0.023615	-0.350825	0.681229
H496	H	0.476385	0.149175	1.181229
O497	O	0.009897	-0.540293	0.677912
O498	O	0.509897	-0.040293	1.177912
C499	C	-0.017068	-0.562534	0.743031
C500	C	0.482932	-0.062534	1.243031
H501	H	0.019971	-0.602633	0.763967
H502	H	0.519971	-0.102633	1.263967
H503	H	-0.037593	-0.523539	0.762302
H504	H	0.462407	-0.023539	1.262302
C505	C	-0.114320	-0.536091	0.734136
C506	C	0.385680	-0.036091	1.234136
C507	C	-0.068829	-0.585344	0.759850
C508	C	0.431171	-0.085344	1.259850
H509	H	-0.146251	-0.550159	0.744511
H510	H	0.353749	-0.050159	1.244511
H511	H	-0.096155	-0.521104	0.690264
H512	H	0.403845	-0.021104	1.190264
H513	H	-0.131417	-0.503599	0.750198
H514	H	0.368583	-0.003599	1.250198
H515	H	-0.051728	-0.617831	0.743782
H516	H	0.448272	-0.117831	1.243782
H517	H	-0.086993	-0.600337	0.803719
H518	H	0.413007	-0.100337	1.303719
H519	H	0.212545	-0.638970	0.578981
H520	H	0.712545	-0.138970	1.078981
H521	H	0.251872	-0.599651	0.618278
H522	H	0.751872	-0.099651	1.118278
O523	O	0.424231	-0.653517	0.707543
O524	O	0.924231	-0.153517	1.207543
C525	C	0.440121	-0.683968	0.667752
C526	C	0.940121	-0.183968	1.167752
H527	H	0.457964	-0.654360	0.617425
H528	H	0.957964	-0.154360	1.117425
H529	H	0.477875	-0.730884	0.678220
H530	H	0.977875	-0.230884	1.178220
C531	C	0.360459	-0.730215	0.739944
C532	C	0.860459	-0.230215	1.239944
C533	C	0.382370	-0.693847	0.678131
C534	C	0.882370	-0.193847	1.178131
H535	H	0.324837	-0.736312	0.746347
H536	H	0.824837	-0.236312	1.246347
H537	H	0.349755	-0.709702	0.766753
H538	H	0.849755	-0.209702	1.266753
H539	H	0.391926	-0.769308	0.748659
H540	H	0.891926	-0.269308	1.248659
H541	H	0.350905	-0.654752	0.669418
H542	H	0.850905	-0.154752	1.169418
H543	H	0.393067	-0.714354	0.651320
H544	H	0.893067	-0.214354	1.151320
O545	O	0.552288	-0.488824	0.585726
O546	O	1.052288	0.011176	1.085726
C547	C	0.536360	-0.444681	0.532143
C548	C	1.036360	0.055319	1.032143
H549	H	0.518474	-0.464711	0.517211
H550	H	1.018474	0.035289	1.017211
H551	H	0.498627	-0.400853	0.542778
H552	H	0.998627	0.099147	1.042778
C553	C	0.616062	-0.404005	0.497754
C554	C	1.116062	0.095995	0.997754
C555	C	0.594099	-0.428609	0.479412
C556	C	1.094099	0.071391	0.979412
H557	H	0.651677	-0.394088	0.465227
H558	H	1.151677	0.105912	0.965227
H559	H	0.626792	-0.433743	0.533855
H560	H	1.126792	0.066257	1.033855
H561	H	0.584612	-0.367485	0.506617
H562	H	1.084612	0.132515	1.006617
H563	H	0.625546	-0.465132	0.470557
H564	H	1.125546	0.034868	0.970557
H565	H	0.583376	-0.398876	0.443308
H566	H	1.083376	0.101124	0.943308
O567	O	0.424058	-0.446153	0.628599
O568	O	0.924058	0.053847	1.128599
C569	C	0.359710	-0.435976	0.654374
C570	C	0.859710	0.064024	1.154374
H571	H	0.350829	-0.475711	0.657503
H572	H	0.850829	0.024289	1.157503
H573	H	0.341281	-0.433675	0.702827
H574	H	0.841281	0.066325	1.202827
C575	C	0.337217	-0.325489	0.609006
C576	C	0.837217	0.174511	1.109006
C577	C	0.326310	-0.374290	0.612845
C578	C	0.826310	0.125710	1.112845
H579	H	0.316613	-0.287437	0.583391
H580	H	0.816613	0.212563	1.083391
H581	H	0.380570	-0.332345	0.591643
H582	H	0.880570	0.167655	1.091643
H583	H	0.321859	-0.323580	0.649387
H584	H	0.821859	0.176420	1.149387
H585	H	0.341674	-0.376203	0.572466
H586	H	0.841674	0.123797	1.072466
H587	H	0.282959	-0.367432	0.630200
H588	H	0.782959	0.132568	1.130200
O589	O	0.209438	-0.282903	0.563518
O590	O	0.709438	0.217097	1.063518
C591	C	0.176590	-0.267002	0.525936
C592	C	0.676590	0.232998	1.025936
H593	H	0.124583	-0.249137	0.551056
H594	H	0.624583	0.250863	1.051056
H595	H	0.190405	-0.229256	0.480261
H596	H	0.690405	0.270744	0.980261
C597	C	0.256176	-0.346694	0.481798
C598	C	0.756176	0.153306	0.981798
C599	C	0.192300	-0.324757	0.512653
C600	C	0.692300	0.175243	1.012653
H601	H	0.265868	-0.382319	0.473602
H602	H	0.765868	0.117681	0.973602
H603	H	0.278308	-0.357406	0.507116
H604	H	0.778308	0.142594	1.007116
H605	H	0.267680	-0.315234	0.443740
H606	H	0.767680	0.184766	0.943740
H607	H	0.180798	-0.356214	0.550714
H608	H	0.680798	0.143786	1.050714
H609	H	0.170166	-0.314051	0.487341
H610	H	0.670166	0.185949	0.987341
O611	O	0.062208	-0.154895	0.730248
O612	O	0.562208	0.345105	1.230248
C613	C	0.053049	-0.197538	0.791304
C614	C	0.553049	0.302462	1.291304
H615	H	0.060317	-0.243882	0.791185
H616	H	0.560317	0.256118	1.291185
H617	H	0.087670	-0.204451	0.809912
H618	H	0.587670	0.295549	1.309912
C619	C	-0.022467	-0.115255	0.833168
C620	C	0.477533	0.384745	1.333168
C621	C	-0.013545	-0.172174	0.833023
C622	C	0.486455	0.327826	1.333023
H623	H	-0.063544	-0.099609	0.858904
H624	H	0.436456	0.400391	1.358904
H625	H	-0.016295	-0.086525	0.792034
H626	H	0.483705	0.413475	1.292034
H627	H	0.006388	-0.121024	0.848674
H628	H	0.506388	0.378976	1.348674
H629	H	-0.042394	-0.166403	0.817511
H630	H	0.457606	0.333597	1.317511
H631	H	-0.019724	-0.200902	0.874156
H632	H	0.480276	0.299098	1.374156
O633	O	0.166795	-0.154694	0.520868
O634	O	0.666795	0.345306	1.020868
C635	C	0.199526	-0.117094	0.505149
C636	C	0.699526	0.382906	1.005149
H637	H	0.187816	-0.107360	0.547992
H638	H	0.687816	0.392640	1.047992
H639	H	0.251558	-0.142144	0.487290
H640	H	0.751558	0.357856	0.987290
C641	C	0.195194	-0.067289	0.401610
C642	C	0.695194	0.432711	0.901610
C643	C	0.180807	-0.055329	0.454229
C644	C	0.680807	0.444671	0.954229
H645	H	0.183650	-0.029190	0.370198
H646	H	0.683650	0.470810	0.870198
H647	H	0.173144	-0.092622	0.412199
H648	H	0.673144	0.407378	0.912199
H649	H	0.238554	-0.088165	0.386735
H650	H	0.738554	0.411835	0.886735
H651	H	0.137448	-0.034460	0.469108
H652	H	0.637448	0.465540	0.969108
H653	H	0.202850	-0.029990	0.443641
H654	H	0.702850	0.470010	0.943641
H655	H	0.030155	-0.491745	0.461969
H656	H	0.530155	0.008255	0.961969
O657	O	0.105108	-0.283019	0.772841
O658	O	0.605108	0.216981	1.272841
C659	C	0.159762	-0.320590	0.788512
C660	C	0.659762	0.179410	1.288512
H661	H	0.200582	-0.330339	0.745661
H662	H	0.700582	0.169661	1.245661
H663	H	0.168918	-0.295507	0.806310
H664	H	0.668918	0.204493	1.306310
C665	C	0.101819	-0.370371	0.892106
C666	C	0.601819	0.129629	1.392106
C667	C	0.151954	-0.382349	0.839475
C668	C	0.651954	0.117651	1.339475
H669	H	0.097002	-0.408465	0.923544
H670	H	0.597002	0.091535	1.423544
H671	H	0.064996	-0.345057	0.881549
H672	H	0.564996	0.154943	1.381549
H673	H	0.109454	-0.349467	0.906929
H674	H	0.609454	0.150533	1.406929
H675	H	0.144314	-0.403245	0.824648
H676	H	0.644314	0.096755	1.324648
H677	H	0.188775	-0.407667	0.850031
H678	H	0.688775	0.092333	1.350031
O679	O	0.224352	-0.678574	0.454610
O680	O	0.724352	-0.178574	0.954610
C681	C	0.262932	-0.739604	0.477059
C682	C	0.762932	-0.239604	0.977059
H683	H	0.246073	-0.756047	0.529956
H684	H	0.746073	-0.256047	1.029956
H685	H	0.261227	-0.771718	0.461324
H686	H	0.761227	-0.271718	0.961324
C687	C	0.350861	-0.720481	0.386410
C688	C	0.850861	-0.220481	0.886410
C689	C	0.330157	-0.740674	0.451380
C690	C	0.830157	-0.240674	0.951380
H691	H	0.392329	-0.721143	0.370569
H692	H	0.892329	-0.221143	0.870569
H693	H	0.324869	-0.679364	0.371284
H694	H	0.824869	-0.179364	0.871284
H695	H	0.349434	-0.747246	0.373307
H696	H	0.849434	-0.247246	0.873307
H697	H	0.331577	-0.713905	0.464483
H698	H	0.831577	-0.213905	0.964483
H699	H	0.356151	-0.781787	0.466508
H700	H	0.856151	-0.281787	0.966508
