data_functionalizedCrystal
_audit_creation_method	'MofGen! by Chris Wilmer'
_symmetry_space_group_name_H-M	'P1'
_symmetry_Int_Tables_number	1
_symmetry_cell_setting	triclinic
loop_
_symmetry_equiv_pos_as_xyz
  x,y,z
_cell_length_a	29.839134
_cell_length_b	13.897447
_cell_length_c	13.897441
_cell_angle_alpha	89.973472
_cell_angle_beta	90.031618
_cell_angle_gamma	89.983942
loop_
_atom_site_label
_atom_site_type_symbol
_atom_site_fract_x
_atom_site_fract_y
_atom_site_fract_z
Zn1	Zn	0.686826	0.384116	0.545689
Zn2	Zn	1.186826	0.884116	1.045689
Zn3	Zn	0.686772	0.545438	0.384401
Zn4	Zn	1.186772	1.045438	0.884401
Zn5	Zn	0.611696	0.384144	0.384376
Zn6	Zn	1.111696	0.884144	0.884376
Zn7	Zn	0.611683	0.545357	0.545623
Zn8	Zn	1.111683	1.045357	1.045623
O9	O	0.649244	0.464764	0.465022
O10	O	1.149244	0.964764	0.965022
O11	O	0.749685	0.405538	0.524331
O12	O	1.249685	0.905538	1.024331
O13	O	0.676796	0.524088	0.249416
O14	O	1.176796	1.024088	0.749416
O15	O	0.621690	0.249159	0.405791
O16	O	1.121690	0.749159	0.905791
O17	O	0.749646	0.524061	0.405834
O18	O	1.249646	1.024061	0.905834
O19	O	0.676887	0.249138	0.524307
O20	O	1.176887	0.749138	1.024307
O21	O	0.621638	0.405586	0.249398
O22	O	1.121638	0.905586	0.749398
O23	O	0.548827	0.405507	0.405728
O24	O	1.048827	0.905507	0.905728
O25	O	0.621668	0.523922	0.680614
O26	O	1.121668	1.023922	1.180614
O27	O	0.548817	0.523949	0.524196
O28	O	1.048817	1.023949	1.024196
O29	O	0.676875	0.405459	0.680662
O30	O	1.176875	0.905459	1.180662
O31	O	0.676783	0.680409	0.405771
O32	O	1.176783	1.180409	0.905771
O33	O	0.621615	0.680349	0.524220
O34	O	1.121615	1.180349	1.024220
C35	C	0.532521	0.464723	0.464953
C36	C	1.032521	0.964723	0.964953
C37	C	0.482587	0.464729	0.464946
C38	C	0.982587	0.964729	0.964946
C39	C	0.649204	0.715378	0.465012
C40	C	1.149204	1.215378	0.965012
C41	C	0.649228	0.822592	0.465040
C42	C	1.149228	1.322592	0.965040
C43	C	0.649248	0.909662	0.465066
C44	C	1.149248	1.409662	0.965066
C45	C	0.649279	1.018894	0.465097
C46	C	1.149279	1.518894	0.965097
C47	C	0.172948	0.526528	0.526633
C48	C	0.672948	1.026528	1.026633
C49	C	-0.014725	0.526555	0.526676
C50	C	0.485275	1.026555	1.026676
O51	O	-0.038986	0.579053	0.579083
O52	O	0.461014	1.079053	1.079083
N53	N	-0.038198	0.464799	0.465095
N54	N	0.461802	0.964799	0.965095
C55	C	-0.014750	0.403028	0.403504
C56	C	0.485250	0.903028	0.903504
O57	O	-0.039022	0.350494	0.351133
O58	O	0.460978	0.850494	0.851133
C59	C	0.172922	0.402996	0.403466
C60	C	0.672922	0.902996	0.903466
C61	C	0.196393	0.464763	0.465044
C62	C	0.696393	0.964763	0.965044
C63	C	0.196419	0.588289	0.588206
C64	C	0.696419	1.088289	1.088206
C65	C	0.243334	0.588285	0.588191
C66	C	0.743334	1.088285	1.088191
C67	C	0.266779	0.526520	0.526603
C68	C	0.766779	1.026520	1.026603
C69	C	0.243308	0.464759	0.465029
C70	C	0.743308	0.964759	0.965029
C71	C	0.196369	0.341221	0.341881
C72	C	0.696369	0.841221	0.841881
C73	C	0.243290	0.341217	0.341878
C74	C	0.743290	0.841217	0.841878
C75	C	0.266761	0.402983	0.403456
C76	C	0.766761	0.902983	0.903456
C77	C	0.313668	0.402991	0.403425
C78	C	0.813668	0.902991	0.903425
N79	N	0.337141	0.464747	0.465006
N80	N	0.837141	0.964747	0.965006
C81	C	0.313697	0.526511	0.526595
C82	C	0.813697	1.026511	1.026595
C83	C	-0.113281	0.403050	0.403526
C84	C	0.386719	0.903050	0.903526
C85	C	-0.160199	0.403059	0.403534
C86	C	0.339801	0.903059	0.903534
C87	C	-0.160170	0.526585	0.526708
C88	C	0.339830	1.026585	1.026708
C89	C	-0.113252	0.526580	0.526694
C90	C	0.386748	1.026580	1.026694
C91	C	-0.089808	0.464806	0.465107
C92	C	0.410192	0.964806	0.965107
C93	C	0.412223	0.526500	0.526558
C94	C	0.912223	1.026500	1.026558
C95	C	0.459142	0.526493	0.526535
C96	C	0.959142	1.026493	1.026535
C97	C	0.459110	0.402964	0.403365
C98	C	0.959110	0.902964	0.903365
C99	C	0.412194	0.402973	0.403384
C100	C	0.912194	0.902973	0.903384
C101	C	0.388752	0.464744	0.464989
C102	C	0.888752	0.964744	0.964989
O103	O	0.337958	0.350512	0.351053
O104	O	0.837958	0.850512	0.851053
O105	O	0.337976	0.579022	0.578972
O106	O	0.837976	1.079022	1.078972
C107	C	0.126032	0.526531	0.526648
C108	C	0.626032	1.026531	1.026648
C109	C	0.102562	0.464770	0.465074
C110	C	0.602562	0.964770	0.965074
C111	C	0.126007	0.403006	0.403486
C112	C	0.626007	0.903006	0.903486
C113	C	0.055644	0.464779	0.465082
C114	C	0.555644	0.964779	0.965082
C115	C	0.032199	0.526544	0.526671
C116	C	0.532199	1.026544	1.026671
C117	C	0.055672	0.588300	0.588252
C118	C	0.555672	1.088300	1.088252
C119	C	0.102588	0.588296	0.588237
C120	C	0.602588	1.088296	1.088237
C121	C	0.102533	0.341250	0.341905
C122	C	0.602533	0.841250	0.841905
C123	C	0.055618	0.341259	0.341924
C124	C	0.555618	0.841259	0.841924
C125	C	0.032173	0.403024	0.403513
C126	C	0.532173	0.903024	0.903513
C127	C	0.766422	0.464805	0.465093
C128	C	1.266422	0.964805	0.965093
C129	C	0.816357	0.464823	0.465123
C130	C	1.316357	0.964823	0.965123
C131	C	0.649276	0.464678	0.716615
C132	C	1.149276	0.964678	1.216615
C133	C	0.649289	0.464642	0.823829
C134	C	1.149289	0.964642	1.323829
C135	C	0.649293	1.213171	0.465066
C136	C	1.149293	1.713171	0.965066
C137	C	0.649305	1.105957	0.465116
C138	C	1.149305	1.605957	0.965116
C139	C	0.649238	0.464779	0.214408
C140	C	1.149238	0.964779	0.714408
C141	C	0.649311	0.464544	0.107195
C142	C	1.149311	0.964544	0.607195
C143	C	0.649302	0.464577	1.020125
C144	C	1.149302	0.964577	1.520125
C145	C	0.649293	0.464616	0.910892
C146	C	1.149293	0.964616	1.410892
H147	H	0.478250	0.576795	0.576679
H148	H	0.978250	1.076795	1.076679
H149	H	0.036575	0.638594	0.638397
H150	H	0.536575	1.138594	1.138397
H151	H	0.036512	0.290963	0.291771
H152	H	0.536512	0.790963	0.791771
C153	C	0.386443	0.594458	0.594319
C154	C	0.886443	1.094458	1.094319
N155	N	0.367026	0.645650	0.645350
N156	N	0.867026	1.145650	1.145350
C157	C	0.128316	0.273304	0.274144
C158	C	0.628316	0.773304	0.774144
N159	N	0.147734	0.222128	0.223098
N160	N	0.647734	0.722128	0.723098
C161	C	0.128399	0.656242	0.655981
C162	C	0.628399	1.156242	1.155981
N163	N	0.147838	0.707421	0.707011
N164	N	0.647838	1.207421	1.207011
C165	C	-0.087438	0.594522	0.594439
C166	C	0.412562	1.094522	1.094439
N167	N	-0.067998	0.645697	0.645470
N168	N	0.432002	1.145697	1.145470
H169	H	-0.179305	0.352772	0.353382
H170	H	0.320695	0.852772	0.853382
C171	C	0.269146	0.656229	0.655937
C172	C	0.769146	1.156229	1.155937
N173	N	0.288584	0.707406	0.706969
N174	N	0.788584	1.207406	1.206969
H175	H	0.177335	0.638585	0.638365
H176	H	0.677335	1.138585	1.138365
C177	C	-0.185968	0.594521	0.594461
C178	C	0.314032	1.094521	1.094461
N179	N	-0.205401	0.645682	0.645496
N180	N	0.294599	1.145682	1.145496
H181	H	-0.094197	0.352744	0.353370
H182	H	0.405803	0.852744	0.853370
H183	H	0.177267	0.290926	0.291735
H184	H	0.677267	0.790926	0.791735
H185	H	0.262376	0.290905	0.291731
H186	H	0.762376	0.790905	0.791731
H187	H	0.393083	0.352680	0.353241
H188	H	0.893083	0.852680	0.853241
C189	C	0.484908	0.335015	0.335632
C190	C	0.984908	0.835015	0.835632
N191	N	0.504341	0.283826	0.284624
N192	N	1.004341	0.783826	0.784624
