data_functionalizedCrystal
_audit_creation_method	'MofGen! by Chris Wilmer'
_symmetry_space_group_name_H-M	'P1'
_symmetry_Int_Tables_number	1
_symmetry_cell_setting	triclinic
loop_
_symmetry_equiv_pos_as_xyz
  x,y,z
_cell_length_a	16.120530
_cell_length_b	14.908520
_cell_length_c	14.908294
_cell_angle_alpha	96.360837
_cell_angle_beta	89.451255
_cell_angle_gamma	89.416769
loop_
_atom_site_label
_atom_site_type_symbol
_atom_site_fract_x
_atom_site_fract_y
_atom_site_fract_z
Zn1	Zn	1.217778	0.460873	0.603407
Zn2	Zn	1.717778	0.960873	1.103407
Zn3	Zn	1.217685	0.603512	0.460772
Zn4	Zn	1.717685	1.103512	0.960772
Zn5	Zn	1.087709	0.444592	0.444498
Zn6	Zn	1.587709	0.944592	0.944498
Zn7	Zn	1.070710	0.603617	0.603531
Zn8	Zn	1.570710	1.103617	1.103531
O9	O	1.148470	0.528148	0.528052
O10	O	1.648470	1.028148	1.028052
O11	O	1.333710	0.486564	0.591244
O12	O	1.833710	0.986564	1.091244
O13	O	1.207519	0.575574	0.332364
O14	O	1.707519	1.075574	0.832364
O15	O	1.112116	0.320504	0.458715
O16	O	1.612116	0.820504	0.958715
O17	O	1.333641	0.591361	0.486451
O18	O	1.833641	1.091361	0.986451
O19	O	1.207677	0.332465	0.575465
O20	O	1.707677	0.832465	1.075465
O21	O	1.112026	0.458815	0.320408
O22	O	1.612026	0.958815	0.820408
O23	O	0.969510	0.458917	0.458836
O24	O	1.469510	0.958917	0.958836
O25	O	1.083143	0.591539	0.729764
O26	O	1.583143	1.091539	1.229764
O27	O	0.957020	0.575752	0.575677
O28	O	1.457020	1.075752	1.075677
O29	O	1.191194	0.486665	0.729672
O30	O	1.691194	0.986665	1.229672
O31	O	1.191035	0.729774	0.486571
O32	O	1.691035	1.229774	0.986571
O33	O	1.083053	0.729850	0.591456
O34	O	1.583053	1.229850	1.091456
C35	C	1.135211	0.762549	0.540814
C36	C	1.635211	1.262549	1.040814
C37	C	1.129612	0.862833	0.546308
C38	C	1.629612	1.362833	1.046308
C39	C	0.933202	0.515579	0.515504
C40	C	1.433202	1.015579	1.015504
C41	C	0.841107	0.510225	0.510159
C42	C	1.341107	1.010225	1.010159
C43	C	1.135283	0.540930	0.763368
C44	C	1.635283	1.040930	1.263368
C45	C	1.129663	0.546376	0.863646
C46	C	1.629663	1.046376	1.363646
C47	C	0.672488	0.500430	0.500407
C48	C	1.172488	1.000430	1.000407
C49	C	0.625286	0.555937	0.555767
C50	C	1.125286	1.055937	1.055767
C51	C	0.531461	0.550486	0.550340
C52	C	1.031461	1.050486	1.050340
C53	C	0.766322	0.505879	0.505832
C54	C	1.266322	1.005879	1.005832
C55	C	1.364579	0.540767	0.540649
C56	C	1.864579	1.040767	1.040649
C57	C	1.456672	0.546144	0.546017
C58	C	1.956672	1.046144	1.046017
C59	C	1.161803	0.292834	0.515261
C60	C	1.661803	0.792834	1.015261
C61	C	1.167485	0.192558	0.509810
C62	C	1.667485	0.692558	1.009810
C63	C	1.231638	1.051147	0.447516
C64	C	1.731638	1.551147	0.947516
C65	C	1.226380	1.145372	0.452675
C66	C	1.726380	1.645372	0.952675
C67	C	1.113845	1.145511	0.561791
C68	C	1.613845	1.645511	1.061791
C69	C	1.119102	1.051286	0.556632
C70	C	1.619102	1.551286	1.056632
C71	C	1.178000	1.004107	0.499491
C72	C	1.678000	1.504107	0.999491
C73	C	1.183252	0.909879	0.494327
C74	C	1.683252	1.409879	0.994327
C75	C	1.070721	0.910020	0.603448
C76	C	1.570721	1.410020	1.103448
C77	C	1.065464	1.004246	0.608607
C78	C	1.565464	1.504246	1.108607
C79	C	1.161658	0.515354	0.293650
C80	C	1.661658	1.015354	0.793650
C81	C	1.167452	0.509663	0.193368
C82	C	1.667452	1.009663	0.693368
C83	C	1.065489	0.608644	1.005032
C84	C	1.565489	1.108644	1.505032
C85	C	1.070767	0.603533	0.910812
C86	C	1.570767	1.103533	1.410812
C87	C	1.183283	0.494325	0.910707
C88	C	1.683283	0.994325	1.410707
C89	C	1.178005	0.499436	1.004927
C90	C	1.678005	0.999436	1.504927
C91	C	1.119106	0.556599	1.052086
C92	C	1.619106	1.056599	1.552086
C93	C	1.113832	0.561714	1.146308
C94	C	1.613832	1.061714	1.646308
C95	C	1.226344	0.452502	1.146200
C96	C	1.726344	0.952502	1.646200
C97	C	1.231622	0.447391	1.051981
C98	C	1.731622	0.947391	1.551981
H99	H	0.655341	0.607551	0.607238
H100	H	1.155341	1.107551	1.107238
N101	N	1.291792	0.389006	1.003820
N102	N	1.791792	0.889006	1.503820
N103	N	1.339663	0.342545	1.045847
N104	N	1.839663	0.842545	1.545847
H105	H	1.382162	0.301310	1.011836
H106	H	1.882162	0.801310	1.511836
N107	N	1.005320	0.667029	1.053195
N108	N	1.505320	1.167029	1.553195
N109	N	0.957447	0.713490	1.011170
N110	N	1.457447	1.213490	1.511170
H111	H	0.914946	0.754720	1.045182
H112	H	1.414946	1.254720	1.545182
N113	N	1.005302	1.052426	0.666981
N114	N	1.505302	1.552426	1.166981
N115	N	1.006648	1.046701	0.749972
N116	N	1.506648	1.546701	1.249972
H117	H	0.964155	1.080724	0.791199
H118	H	1.464155	1.580724	1.291199
H119	H	0.642435	0.448820	0.448940
H120	H	1.142435	0.948820	0.948940
H121	H	1.231208	0.871467	0.447798
H122	H	1.731208	1.371467	0.947798
H123	H	1.279589	1.012732	0.400983
H124	H	1.779589	1.512732	0.900983
N125	N	1.281178	1.193409	0.399580
N126	N	1.781178	1.693409	0.899580
N127	N	1.333759	1.151270	0.348569
N128	N	1.833759	1.651270	0.848569
H129	H	1.372463	1.185196	0.311068
H130	H	1.872463	1.685196	0.811068
H131	H	1.065898	1.183941	0.608319
H132	H	1.565898	1.683941	1.108319
H133	H	1.065876	0.608261	1.184704
H134	H	1.565876	1.108261	1.684704
H135	H	1.027043	0.871709	0.645767
H136	H	1.527043	1.371709	1.145767
H137	H	1.027101	0.645908	0.872503
H138	H	1.527101	1.145908	1.372503
N139	N	1.243429	0.435935	0.862511
N140	N	1.743429	0.935935	1.362511
N141	N	1.248125	0.431377	0.778387
N142	N	1.748125	0.931377	1.278387
H143	H	1.290603	0.390138	0.744347
H144	H	1.790603	0.890138	1.244347
N145	N	1.281116	0.399346	1.194280
N146	N	1.781116	0.899346	1.694280
N147	N	1.276401	0.403920	1.278404
N148	N	1.776401	0.903920	1.778404
H149	H	1.315084	0.366383	1.312363
H150	H	1.815084	0.866383	1.812363
