data_functionalizedCrystal
_audit_creation_method	'MofGen! by Chris Wilmer'
_symmetry_space_group_name_H-M	'P1'
_symmetry_Int_Tables_number	1
_symmetry_cell_setting	triclinic
loop_
_symmetry_equiv_pos_as_xyz
  x,y,z
_cell_length_a	19.805407
_cell_length_b	19.805405
_cell_length_c	19.805399
_cell_angle_alpha	89.969291
_cell_angle_beta	89.983114
_cell_angle_gamma	90.026410
loop_
_atom_site_label
_atom_site_type_symbol
_atom_site_fract_x
_atom_site_fract_y
_atom_site_fract_z
Zn1	Zn	1.034718	-0.269469	-0.382712
Zn2	Zn	1.534718	0.230531	0.117288
Zn3	Zn	1.034638	-0.382661	-0.269520
Zn4	Zn	1.534638	0.117339	0.230480
Zn5	Zn	0.921538	-0.269491	-0.269536
Zn6	Zn	1.421538	0.230509	0.230464
Zn7	Zn	0.921496	-0.382622	-0.382667
Zn8	Zn	1.421496	0.117378	0.117333
O9	O	0.978097	-0.326061	-0.326109
O10	O	1.478097	0.173939	0.173891
O11	O	1.129424	-0.284492	-0.367708
O12	O	1.629424	0.215508	0.132292
O13	O	1.019619	-0.367674	-0.174805
O14	O	1.519619	0.132326	0.325195
O15	O	0.936602	-0.174771	-0.284575
O16	O	1.436602	0.325229	0.215425
O17	O	1.129365	-0.367653	-0.284547
O18	O	1.629365	0.132347	0.215453
O19	O	1.019755	-0.174756	-0.367724
O20	O	1.519755	0.325244	0.132276
O21	O	0.936525	-0.284528	-0.174817
O22	O	1.436525	0.215472	0.325183
O23	O	0.826816	-0.284491	-0.284531
O24	O	1.326816	0.215509	0.215469
O25	O	0.936531	-0.367587	-0.477389
O26	O	1.436531	0.132413	0.022611
O27	O	0.826785	-0.367608	-0.367648
O28	O	1.326785	0.132392	0.132352
O29	O	1.019715	-0.284454	-0.477422
O30	O	1.519715	0.215546	0.022578
O31	O	1.019578	-0.477372	-0.284503
O32	O	1.519578	0.022628	0.215497
O33	O	0.936454	-0.477344	-0.367632
O34	O	1.436454	0.022656	0.132368
C35	C	0.802241	-0.326048	-0.326087
C36	C	1.302241	0.173952	0.173913
C37	C	0.727009	-0.326059	-0.326093
C38	C	1.227009	0.173941	0.173907
C39	C	0.691667	-0.369403	-0.369302
C40	C	1.191667	0.130597	0.130698
C41	C	0.620978	-0.369404	-0.369312
C42	C	1.120978	0.130596	0.130688
C43	C	0.585634	-0.326064	-0.326109
C44	C	1.085634	0.173936	0.173891
C45	C	0.620981	-0.282715	-0.282898
C46	C	1.120981	0.217285	0.217102
C47	C	0.691668	-0.282711	-0.282892
C48	C	1.191668	0.217289	0.217108
C49	C	0.335908	-0.282730	-0.282920
C50	C	0.835908	0.217270	0.217080
C51	C	0.265216	-0.282739	-0.282928
C52	C	0.765216	0.217261	0.217072
C53	C	0.265218	-0.369423	-0.369340
C54	C	0.765218	0.130577	0.130660
C55	C	0.335905	-0.369419	-0.369334
C56	C	0.835905	0.130581	0.130666
C57	C	0.371246	-0.326068	-0.326126
C58	C	0.871246	0.173932	0.173874
C59	C	0.447895	-0.326066	-0.326117
C60	C	0.947895	0.173934	0.173883
C61	C	0.508987	-0.326068	-0.326114
C62	C	1.008987	0.173932	0.173886
C63	C	0.978021	-0.501917	-0.326076
C64	C	1.478021	-0.001917	0.173924
C65	C	0.978050	-0.577149	-0.326084
C66	C	1.478050	-0.077149	0.173916
C67	C	1.021376	-0.612485	-0.282845
C68	C	1.521376	-0.112485	0.217155
C69	C	1.021404	-0.683174	-0.282860
C70	C	1.521404	-0.183174	0.217140
C71	C	0.978104	-0.718524	-0.326111
C72	C	1.478104	-0.218524	0.173889
C73	C	0.934777	-0.683183	-0.369356
C74	C	1.434777	-0.183183	0.130644
C75	C	0.934752	-0.612496	-0.369344
C76	C	1.434752	-0.112496	0.130656
C77	C	0.934877	-0.968256	-0.369406
C78	C	1.434877	-0.468256	0.130594
C79	C	0.934904	-1.038948	-0.369413
C80	C	1.434904	-0.538948	0.130587
C81	C	1.021529	-1.038934	-0.282922
C82	C	1.521529	-0.538934	0.217078
C83	C	1.021504	-0.968247	-0.282910
C84	C	1.521504	-0.468247	0.217090
C85	C	0.978180	-0.932912	-0.326157
C86	C	1.478180	-0.432912	0.173843
C87	C	0.978150	-0.856263	-0.326141
C88	C	1.478150	-0.356263	0.173859
C89	C	0.978130	-0.795171	-0.326124
C90	C	1.478130	-0.295171	0.173876
C91	C	1.154640	-0.326074	-0.326131
C92	C	1.654640	0.173926	0.173869
C93	C	1.229872	-0.326080	-0.326140
C94	C	1.729872	0.173920	0.173860
C95	C	0.978127	-0.326014	-0.502651
C96	C	1.478127	0.173986	-0.002651
C97	C	0.978140	-0.325994	-0.577883
C98	C	1.478140	0.174006	-0.077883
C99	C	0.978192	-0.149518	-0.326156
C100	C	1.478192	0.350482	0.173844
C101	C	0.978233	-0.074286	-0.326177
C102	C	1.478233	0.425714	0.173823
C103	C	0.934885	-0.282696	-0.613233
C104	C	1.434885	0.217304	-0.113233
C105	C	0.934894	-0.282683	-0.683922
C106	C	1.434894	0.217317	-0.183922
C107	C	0.978162	-0.325964	-0.719259
C108	C	1.478162	0.174036	-0.219259
C109	C	1.021419	-0.369267	-0.683904
C110	C	1.521419	0.130733	-0.183904
C111	C	1.021406	-0.369283	-0.613217
C112	C	1.521406	0.130717	-0.113217
C113	C	1.021473	-0.369204	-0.968978
C114	C	1.521473	0.130796	-0.468978
C115	C	1.021484	-0.369183	-1.039670
C116	C	1.521484	0.130817	-0.539670
C117	C	0.934961	-0.282603	-1.039682
C118	C	1.434961	0.217397	-0.539682
C119	C	0.934948	-0.282619	-0.968995
C120	C	1.434948	0.217381	-0.468995
C121	C	0.978202	-0.325924	-0.933647
C122	C	1.478202	0.174076	-0.433647
C123	C	0.978190	-0.325939	-0.856998
C124	C	1.478190	0.174061	-0.356998
C125	C	0.978178	-0.325947	-0.795906
C126	C	1.478178	0.174053	-0.295906
C127	C	0.978107	-0.326059	-0.150253
C128	C	1.478107	0.173941	0.349747
C129	C	0.978225	-0.325888	-0.075021
C130	C	1.478225	0.174112	0.424979
H131	H	0.720443	-0.247412	-0.247711
H132	H	1.220443	0.252588	0.252289
Cl133	Cl	0.880286	-0.568072	-0.423707
Cl134	Cl	1.380286	-0.068072	0.076293
H135	H	1.056684	-0.711942	-0.247649
H136	H	1.556684	-0.211942	0.252351
H137	H	0.592206	-0.404700	-0.404496
H138	H	1.092206	0.095300	0.095504
H139	H	0.364679	-0.404713	-0.404512
H140	H	0.864679	0.095287	0.095488
H141	H	1.056808	-1.067713	-0.247711
H142	H	1.556808	-0.567713	0.252289
H143	H	0.592198	-0.247424	-0.247724
H144	H	1.092198	0.252576	0.252276
Cl145	Cl	1.075809	-0.423683	-0.728328
Cl146	Cl	1.575809	0.076317	-0.228328
H147	H	0.720439	-0.404697	-0.404481
H148	H	1.220439	0.095303	0.095519
H149	H	0.899740	-0.247344	-1.068472
H150	H	1.399740	0.252656	-0.568472
Cl151	Cl	0.880411	-0.923844	-0.423772
Cl152	Cl	1.380411	-0.423844	0.076228
H153	H	0.364674	-0.247436	-0.247733
H154	H	0.864674	0.252564	0.252267
H155	H	0.236435	-0.404719	-0.404524
H156	H	0.736435	0.095281	0.095476
H157	H	1.056633	-0.583707	-0.247621
H158	H	1.556633	-0.083707	0.252379
Cl159	Cl	1.075783	-0.423720	-0.568777
Cl160	Cl	1.575783	0.076280	-0.068777
H161	H	0.236440	-0.247442	-0.247747
H162	H	0.736440	0.252558	0.252253
Cl163	Cl	1.075941	-0.923810	-0.228535
Cl164	Cl	1.575941	-0.423810	0.271465
Cl165	Cl	0.880466	-1.083388	-0.423793
Cl166	Cl	1.380466	-0.583388	0.076207
H167	H	0.899655	-0.247447	-0.584467
H168	H	1.399655	0.252553	-0.084467
Cl169	Cl	0.880346	-0.727624	-0.423734
Cl170	Cl	1.380346	-0.227624	0.076266
Cl171	Cl	0.880482	-0.228280	-0.728359
Cl172	Cl	1.380482	0.271720	-0.228359
H173	H	0.899717	-0.247373	-0.940227
H174	H	1.399717	0.252627	-0.440227
Cl175	Cl	1.075881	-0.423600	-1.084093
Cl176	Cl	1.575881	0.076400	-0.584093
Cl177	Cl	1.075854	-0.423639	-0.924549
Cl178	Cl	1.575854	0.076361	-0.424549
