data_functionalizedCrystal
_audit_creation_method	'MofGen! by Chris Wilmer'
_symmetry_space_group_name_H-M	'P1'
_symmetry_Int_Tables_number	1
_symmetry_cell_setting	triclinic
loop_
_symmetry_equiv_pos_as_xyz
  x,y,z
_cell_length_a	15.944499
_cell_length_b	10.723024
_cell_length_c	9.198806
_cell_angle_alpha	90.003648
_cell_angle_beta	90.000063
_cell_angle_gamma	96.027261
loop_
_atom_site_label
_atom_site_type_symbol
_atom_site_fract_x
_atom_site_fract_y
_atom_site_fract_z
O1	O	0.117811	-1.655667	-0.120872
O2	O	0.129088	-1.292369	-0.120875
O3	O	0.001228	-1.483972	-0.120876
O4	O	0.245670	-1.464063	-0.120871
O5	O	0.001228	-1.483957	0.120909
O6	O	0.129087	-1.292354	0.120910
O7	O	0.117810	-1.655652	0.120914
Cu8	Cu	0.123449	-1.474001	0.142988
Cu9	Cu	0.123449	-1.474019	-0.142950
O10	O	0.245670	-1.464048	0.120914
C11	C	0.128267	-1.245872	0.000016
C12	C	0.125812	-1.107350	0.000015
C13	C	-0.030071	-1.483150	0.000013
C14	C	-0.123333	-1.480706	0.000002
C15	C	0.118631	-1.702148	0.000018
C16	C	0.121087	-1.840671	0.000011
C17	C	-0.414232	-1.592023	0.000011
C18	C	-0.353538	-1.534150	0.119228
C19	C	-0.459021	-1.471828	0.000019
C20	C	-0.353544	-1.534133	-0.119153
C21	C	-0.294087	-1.476197	0.000008
C22	C	-0.399555	-1.413922	0.119335
C23	C	-0.399568	-1.413922	-0.119154
C24	C	-0.338892	-1.355961	0.000093
C25	C	-0.554035	-1.469315	0.000026
C26	C	-0.199074	-1.478700	0.000011
C27	C	0.276969	-1.464871	0.000022
C28	C	0.370231	-1.467315	0.000023
N29	N	0.123448	-1.473998	0.344102
C30	C	0.197355	-1.031444	0.000015
C31	C	0.194819	-0.888273	0.000013
N32	N	0.123443	-1.474033	-0.344064
C33	C	0.069527	-1.554450	0.416299
C34	C	0.069524	-1.554469	0.583712
H35	H	-0.333157	-1.584983	0.220016
O36	O	0.178487	-1.391684	0.582047
C37	C	0.164315	-1.268047	0.619129
H38	H	0.132005	-1.267993	0.729676
H39	H	0.122305	-1.229349	0.533501
C40	C	0.288913	-1.185405	0.490196
C41	C	0.249235	-1.185338	0.625978
H42	H	0.341295	-1.134383	0.494415
H43	H	0.298460	-1.268701	0.465208
H44	H	0.253896	-1.153159	0.418854
H45	H	0.284247	-1.217598	0.697314
H46	H	0.239696	-1.102045	0.650979
H47	H	-0.446991	-1.691772	0.000126
O48	O	0.014450	-1.636462	0.342002
C49	C	-0.037611	-1.569378	0.253955
H50	H	-0.004600	-1.471794	0.231357
H51	H	-0.099768	-1.560772	0.312472
C52	C	-0.095650	-1.759401	0.137014
C53	C	-0.055102	-1.639549	0.109248
H54	H	-0.106443	-1.802687	0.047754
H55	H	-0.060578	-1.804598	0.196335
H56	H	-0.147443	-1.752212	0.185781
H57	H	-0.003306	-1.646740	0.060497
H58	H	-0.090166	-1.594355	0.049914
H59	H	0.256065	-0.823050	0.000007
H60	H	0.059837	-0.905887	0.000001
H61	H	0.169607	-1.405130	0.406231
H62	H	-0.419971	-1.363131	-0.219946
H63	H	0.062683	-1.066343	-0.000024
O64	O	-0.423880	-1.353395	0.239658
C65	C	-0.512184	-1.351793	0.238220
H66	H	-0.541940	-1.431898	0.167575
H67	H	-0.528444	-1.258619	0.192121
C68	C	-0.509939	-1.269311	0.481121
C69	C	-0.546485	-1.367704	0.394363
H70	H	-0.531098	-1.279120	0.577437
H71	H	-0.450446	-1.270386	0.482089
H72	H	-0.523492	-1.191676	0.442688
H73	H	-0.532924	-1.445336	0.432786
H74	H	-0.605977	-1.366643	0.393405
O75	O	-0.300117	-1.236782	0.000238
C76	C	-0.361488	-1.151221	0.001449
H77	H	-0.422964	-1.198993	0.047796
H78	H	-0.372589	-1.118542	-0.114239
C79	C	-0.254980	-0.978696	0.039514
C80	C	-0.330484	-1.037367	0.096451
H81	H	-0.235855	-0.908462	0.098110
H82	H	-0.213633	-1.036338	0.038693
H83	H	-0.264241	-0.951474	-0.056891
H84	H	-0.321220	-1.064601	0.192847
H85	H	-0.371830	-0.979726	0.097290
O86	O	-0.329355	-1.594973	-0.239346
C87	C	-0.368066	-1.719389	-0.238869
H88	H	-0.427436	-1.725350	-0.169083
H89	H	-0.322464	-1.784117	-0.192336
C90	C	-0.318838	-1.752480	-0.481192
C91	C	-0.391761	-1.759800	-0.395488
H92	H	-0.333451	-1.777412	-0.577801
H93	H	-0.292755	-1.668661	-0.481511
H94	H	-0.280843	-1.806420	-0.442397
H95	H	-0.429750	-1.705849	-0.434273
H96	H	-0.417852	-1.843612	-0.395179
O97	O	0.272598	-1.080559	-0.000041
C98	C	0.258379	-1.212574	0.000004
H99	H	0.192987	-1.243028	-0.045776
H100	H	0.262621	-1.248804	0.116004
C101	C	0.405767	-1.229297	-0.038576
C102	C	0.325454	-1.266701	-0.094816
H103	H	0.447143	-1.262687	-0.097059
H104	H	0.415348	-1.140356	-0.038601
H105	H	0.409290	-1.259491	0.058089
H106	H	0.321928	-1.236493	-0.191472
H107	H	0.315874	-1.355638	-0.094810
O108	O	0.014331	-1.636589	0.657611
C109	C	-0.068903	-1.615974	0.620556
H110	H	-0.069063	-1.567944	0.510016
H111	H	-0.095087	-1.553679	0.706201
C112	C	-0.124040	-1.801482	0.749474
C113	C	-0.124237	-1.742499	0.613701
H114	H	-0.158174	-1.879526	0.745252
H115	H	-0.067964	-1.815368	0.774444
H116	H	-0.145858	-1.749556	0.820830
H117	H	-0.102409	-1.794417	0.542351
H118	H	-0.180311	-1.728624	0.588719
