data_functionalizedCrystal
_audit_creation_method	'MofGen! by Chris Wilmer'
_symmetry_space_group_name_H-M	'P1'
_symmetry_Int_Tables_number	1
_symmetry_cell_setting	triclinic
loop_
_symmetry_equiv_pos_as_xyz
  x,y,z
_cell_length_a	17.699083
_cell_length_b	16.109301
_cell_length_c	16.776229
_cell_angle_alpha	89.991926
_cell_angle_beta	90.001114
_cell_angle_gamma	96.627752
loop_
_atom_site_label
_atom_site_type_symbol
_atom_site_fract_x
_atom_site_fract_y
_atom_site_fract_z
O1	O	1.004229	-0.105139	0.066179
O2	O	1.504229	0.394861	0.566179
O3	O	0.783870	-0.118818	0.066205
O4	O	1.283870	0.381182	0.566205
O5	O	0.900103	0.009063	0.066183
O6	O	1.400103	0.509063	0.566183
O7	O	0.887996	-0.233020	0.066201
O8	O	1.387996	0.266980	0.566201
O9	O	0.900087	0.009070	-0.066393
O10	O	1.400087	0.509070	0.433607
O11	O	0.783854	-0.118811	-0.066371
O12	O	1.283854	0.381189	0.433629
O13	O	1.004213	-0.105132	-0.066398
O14	O	1.504213	0.394868	0.433602
Zn15	Zn	0.894031	-0.111970	-0.087434
Zn16	Zn	1.394031	0.388030	0.412566
Zn17	Zn	0.894052	-0.111980	0.087242
Zn18	Zn	1.394052	0.388020	0.587242
O19	O	0.887980	-0.233012	-0.066375
O20	O	1.387980	0.266988	0.433625
C21	C	0.755664	-0.118324	-0.000080
C22	C	1.255664	0.381676	0.499920
C23	C	0.671644	-0.116854	-0.000070
C24	C	1.171644	0.383146	0.499930
C25	C	0.899604	0.040040	-0.000105
C26	C	1.399604	0.540040	0.499895
C27	C	0.898134	0.132333	-0.000106
C28	C	1.398134	0.632333	0.499894
N29	N	0.894023	-0.111962	-0.206645
N30	N	1.394023	0.388038	0.293355
C31	C	0.623130	-0.191917	-0.000064
C32	C	1.123130	0.308083	0.499936
C33	C	0.544185	-0.190531	-0.000075
C34	C	1.044185	0.309469	0.499925
C35	C	0.513755	-0.114080	-0.000085
C36	C	1.013755	0.385920	0.499915
C37	C	0.562275	-0.039011	-0.000093
C38	C	1.062275	0.460989	0.499907
C39	C	0.641219	-0.040398	-0.000088
C40	C	1.141219	0.459602	0.499912
C41	C	0.243904	-0.033414	-0.000113
C42	C	0.743904	0.466586	0.499887
C43	C	0.164954	-0.032032	-0.000115
C44	C	0.664954	0.467968	0.499885
C45	C	0.146870	-0.183546	-0.000100
C46	C	0.646870	0.316454	0.499900
C47	C	0.225814	-0.184934	-0.000095
C48	C	0.725814	0.315066	0.499905
C49	C	0.274327	-0.109865	-0.000107
C50	C	0.774327	0.390135	0.499893
C51	C	0.359928	-0.111369	-0.000097
C52	C	0.859928	0.388631	0.499903
C53	C	0.428155	-0.112575	-0.000089
C54	C	0.928155	0.387425	0.499911
C55	C	1.032419	-0.105626	-0.000111
C56	C	1.532419	0.394374	0.499889
C57	C	1.116439	-0.107096	-0.000115
C58	C	1.616439	0.392904	0.499885
C59	C	0.888478	-0.263990	-0.000085
C60	C	1.388478	0.236010	0.499915
C61	C	0.889949	-0.356283	-0.000079
C62	C	1.389949	0.143717	0.499921
C63	C	0.963686	0.354719	-0.000101
C64	C	1.463686	0.854719	0.499899
C65	C	0.962298	0.441437	-0.000095
C66	C	1.462298	0.941437	0.499905
C67	C	0.824392	0.421325	-0.000081
C68	C	1.324392	0.921325	0.499919
C69	C	0.825780	0.334608	-0.000082
C70	C	1.325780	0.834608	0.499918
C71	C	0.895429	0.301308	-0.000096
C72	C	1.395429	0.801308	0.499904
C73	C	0.892654	0.474742	-0.000089
C74	C	1.392654	0.974742	0.499911
C75	C	0.891149	0.568766	-0.000081
C76	C	1.391149	1.068766	0.499919
C77	C	0.896934	0.207278	-0.000102
C78	C	1.396934	0.707278	0.499898
C79	C	0.945507	-0.055360	-0.248372
C80	C	1.445507	0.444640	0.251628
C81	C	0.945511	-0.055359	-0.331824
C82	C	1.445511	0.444641	0.168176
C83	C	0.894034	-0.111965	-0.373548
C84	C	1.394034	0.388035	0.126452
C85	C	0.842545	-0.168571	-0.331815
C86	C	1.342545	0.331429	0.168185
C87	C	0.842538	-0.168567	-0.248364
C88	C	1.342538	0.331433	0.251636
C89	C	0.842573	-0.168587	-0.668362
C90	C	1.342573	0.331413	-0.168362
C91	C	0.842585	-0.168588	-0.751819
C92	C	1.342585	0.331412	-0.251819
C93	C	0.945545	-0.055379	-0.751822
C94	C	1.445545	0.444621	-0.251822
C95	C	0.945538	-0.055375	-0.668371
C96	C	1.445538	0.444625	-0.168371
C97	C	0.894047	-0.111977	-0.626646
C98	C	1.394047	0.388023	-0.126646
C99	C	0.894042	-0.111976	-0.536157
C100	C	1.394042	0.388024	-0.036157
C101	C	0.894042	-0.111971	-0.464035
C102	C	1.394042	0.388029	0.035965
N103	N	0.894066	-0.111981	0.206453
N104	N	1.394066	0.388019	0.706453
H105	H	0.647900	-0.254172	-0.000056
H106	H	1.147900	0.245828	0.499944
Cl107	Cl	0.777810	-0.239725	-0.195909
Cl108	Cl	1.277810	0.260275	0.304091
Cl109	Cl	1.010233	0.015800	-0.384282
Cl110	Cl	1.510233	0.515800	0.115718
Cl111	Cl	0.483199	-0.284901	-0.000063
Cl112	Cl	0.983199	0.215099	0.499937
H113	H	0.140182	0.030227	-0.000124
H114	H	0.640182	0.530227	0.499876
Cl115	Cl	1.051244	0.312858	-0.000117
Cl116	Cl	1.551244	0.812858	0.499883
H117	H	0.250585	-0.247188	-0.000083
H118	H	0.750585	0.252812	0.499917
H119	H	0.767686	0.448449	-0.000071
H120	H	1.267686	0.948449	0.499929
H121	H	0.770194	0.291119	-0.000076
H122	H	1.270194	0.791119	0.499924
H123	H	1.017880	0.484921	-0.000097
H124	H	1.517880	0.984921	0.499903
H125	H	0.987457	-0.009284	-0.634402
H126	H	1.487457	0.490716	-0.134402
Cl127	Cl	0.777845	-0.239745	-0.615913
Cl128	Cl	1.277845	0.260255	-0.115913
Cl129	Cl	1.010227	0.015803	-0.195928
Cl130	Cl	1.510227	0.515803	0.304072
H131	H	0.987470	-0.009288	-0.785804
H132	H	1.487470	0.490712	-0.285804
Cl133	Cl	0.524020	0.057100	-0.000110
Cl134	Cl	1.024020	0.557100	0.499890
H135	H	0.800664	-0.214686	-0.785789
H136	H	1.300664	0.285314	-0.285789
H137	H	0.107361	-0.244671	-0.000094
H138	H	0.607361	0.255329	0.499906
Cl139	Cl	0.777827	-0.239731	-0.384266
Cl140	Cl	1.277827	0.260269	0.115734
H141	H	0.283394	0.027712	-0.000123
H142	H	0.783394	0.527712	0.499877
H143	H	0.680719	0.020726	-0.000092
H144	H	1.180719	0.520726	0.499908
