data_functionalizedCrystal
_audit_creation_method	'MofGen! by Chris Wilmer'
_symmetry_space_group_name_H-M	'P1'
_symmetry_Int_Tables_number	1
_symmetry_cell_setting	triclinic
loop_
_symmetry_equiv_pos_as_xyz
  x,y,z
_cell_length_a	6.817900
_cell_length_b	11.102250
_cell_length_c	11.168136
_cell_angle_alpha	91.985249
_cell_angle_beta	108.508683
_cell_angle_gamma	108.605052
loop_
_atom_site_label
_atom_site_type_symbol
_atom_site_fract_x
_atom_site_fract_y
_atom_site_fract_z
V1	V	-4.110388	-0.175859	-0.393705
O2	O	-4.069442	0.008431	-0.386204
O3	O	-4.087172	-0.348680	-0.391017
O4	O	-4.086671	-0.173162	-0.565410
O5	O	-4.069948	-0.168301	-0.210604
V6	V	-4.587554	-0.153815	-0.371804
O7	O	-4.385590	-0.224215	-0.441746
O8	O	-4.762549	-0.105459	-0.323762
O9	O	-4.387563	0.019006	-0.374491
O10	O	-4.745896	-0.338105	-0.379304
O11	O	-4.745391	-0.161372	-0.554904
O12	O	-4.388065	-0.156511	-0.200098
C13	C	-3.937501	-0.390810	-0.384808
C14	C	-3.999972	-0.532093	-0.383755
C15	C	-4.028172	-0.713057	-0.266621
C16	C	-3.969477	-0.580307	-0.267619
C17	C	-4.089148	-0.616635	-0.498901
C18	C	-4.147827	-0.749382	-0.497901
C19	C	-3.959089	-0.692082	-0.133092
C20	C	-3.900393	-0.559333	-0.134090
C21	C	-3.936860	-0.166918	-0.607262
C22	C	-3.998918	-0.165857	-0.747632
C23	C	-4.201442	-0.171412	-0.816324
C24	C	-4.265587	-0.170315	-0.961405
C25	C	-4.200576	0.061129	-0.380697
C26	C	-4.117346	0.202411	-0.381758
C27	C	-4.201217	-0.162760	-0.158240
C28	C	-4.118396	-0.163814	-0.017868
H29	H	-3.807226	-0.715080	-0.076713
O30	O	-4.472591	-0.176155	-1.032004
C31	C	-4.808948	-0.293044	-1.205629
C32	C	-4.574536	-0.286570	-1.125790
H33	H	-4.891456	-0.382321	-1.281456
H34	H	-4.799268	-0.203597	-1.253952
H35	H	-4.909719	-0.298046	-1.140513
H36	H	-4.473633	-0.281610	-1.190818
H37	H	-4.584381	-0.376015	-1.077454
H38	H	-4.113955	-0.577368	-0.593461
H39	H	-3.873014	-0.160281	-0.796228
O40	O	-4.129041	-0.739352	-0.089166
C41	C	-4.388512	-0.692223	-0.007825
C42	C	-4.196016	-0.638514	-0.057515
H43	H	-4.442749	-0.610727	0.017753
H44	H	-4.332700	-0.738066	0.080640
H45	H	-4.532709	-0.767671	-0.085178
H46	H	-4.051745	-0.563020	0.019747
H47	H	-4.252005	-0.592752	-0.146011
H48	H	-3.944901	-0.159067	-0.958827
H49	H	-4.220411	-0.818203	-0.591656
O50	O	-4.018352	-0.512559	-0.079202
C51	C	-4.279318	-0.402901	-0.106061
C52	C	-4.145823	-0.455775	-0.168369
H53	H	-4.382447	-0.357002	-0.178132
H54	H	-4.161576	-0.327710	-0.019495
H55	H	-4.392883	-0.484941	-0.074444
H56	H	-4.032250	-0.373822	-0.200066
H57	H	-4.263692	-0.531000	-0.254880
O58	O	-4.351694	-0.178279	-0.758336
C59	C	-4.556074	-0.297330	-0.633781
C60	C	-4.385922	-0.289726	-0.699417
H61	H	-4.583767	-0.387413	-0.586105
H62	H	-4.718636	-0.301429	-0.708021
H63	H	-4.491661	-0.208710	-0.558544
H64	H	-4.450130	-0.378324	-0.774646
H65	H	-4.223392	-0.285565	-0.625101
H66	H	-3.715003	-0.506522	-0.087966
