data_functionalizedCrystal
_audit_creation_method	'MofGen! by Chris Wilmer'
_symmetry_space_group_name_H-M	'P1'
_symmetry_Int_Tables_number	1
_symmetry_cell_setting	triclinic
loop_
_symmetry_equiv_pos_as_xyz
  x,y,z
_cell_length_a	10.654549
_cell_length_b	10.654545
_cell_length_c	10.065875
_cell_angle_alpha	98.876977
_cell_angle_beta	81.165966
_cell_angle_gamma	84.486172
loop_
_atom_site_label
_atom_site_type_symbol
_atom_site_fract_x
_atom_site_fract_y
_atom_site_fract_z
O1	O	1.686058	0.158123	-0.113520
O2	O	1.320580	0.174924	-0.113515
O3	O	1.511721	-0.016215	-0.113517
O4	O	1.494917	0.349263	-0.113518
O5	O	1.475274	0.020380	0.113473
O6	O	1.284133	0.211519	0.113474
O7	O	1.649612	0.194719	0.113469
Zn8	Zn	1.461086	0.208929	0.149511
Zn9	Zn	1.509106	0.160713	-0.149557
O10	O	1.458470	0.385858	0.113471
C11	C	1.255558	0.191987	-0.000020
C12	C	1.116115	0.188293	-0.000018
C13	C	0.826138	0.409909	-0.000057
C14	C	0.877675	0.525929	-0.000052
C15	C	1.008690	0.529407	-0.000034
C16	C	1.088173	0.416853	-0.000026
C17	C	1.036637	0.300834	-0.000031
C18	C	0.905616	0.297368	-0.000045
C19	C	1.064578	0.072273	-0.000023
C20	C	0.933562	0.068794	-0.000031
C21	C	1.144062	-0.040281	-0.000014
C22	C	1.092524	-0.156301	-0.000010
C23	C	0.961500	-0.159775	-0.000026
C24	C	0.882025	-0.047226	-0.000036
C25	C	1.492264	-0.044716	-0.000025
C26	C	1.488573	-0.184161	-0.000033
C27	C	1.528323	-0.224066	-0.247503
C28	C	1.546468	-0.309529	-0.371238
C29	C	1.543000	-0.440548	-0.371239
C30	C	1.521380	-0.486105	-0.247493
C31	C	1.503235	-0.400642	-0.123758
C32	C	1.506709	-0.269623	-0.123770
C33	C	1.463476	-0.360736	0.123709
C34	C	1.466953	-0.229718	0.123714
C35	C	1.441856	-0.406293	0.247456
C36	C	1.423719	-0.320831	0.371193
C37	C	1.427190	-0.189805	0.371190
C38	C	1.448808	-0.144255	0.247448
C39	C	1.714634	0.177655	-0.000029
C40	C	1.854078	0.181348	-0.000040
C41	C	1.477928	0.414358	-0.000024
C42	C	1.481621	0.553801	-0.000025
N43	N	1.428322	0.241834	0.353617
N44	N	1.541879	0.127798	-0.353663
C45	C	1.497699	0.172154	0.421395
C46	C	1.472493	0.197489	0.578563
H47	H	1.050649	0.623880	-0.000028
H48	H	1.394427	0.275901	0.636884
C49	C	1.601630	0.067429	0.343673
C50	C	1.574336	-0.050557	0.378270
C51	C	1.670045	-0.147053	0.306673
H52	H	1.681970	0.085179	0.366932
H53	H	1.604710	0.064241	0.248367
H54	H	1.571270	-0.047367	0.473554
H55	H	1.494013	-0.068348	0.355007
H56	H	1.673125	-0.150240	0.211368
H57	H	1.750378	-0.129290	0.329938
H58	H	1.651533	-0.227118	0.330128
H59	H	1.531164	-0.117388	-0.247514
H60	H	0.812946	0.617567	-0.000064
C61	C	1.645779	0.022937	0.568824
C62	C	1.618267	-0.094904	0.603665
C63	C	1.713926	-0.191578	0.532349
H64	H	1.726107	0.040648	0.592147
H65	H	1.648987	0.019570	0.473478
H66	H	1.615073	-0.091534	0.698989
H67	H	1.537956	-0.112655	0.580338
H68	H	1.717134	-0.194946	0.437003
H69	H	1.794248	-0.173855	0.555677
H70	H	1.695266	-0.271546	0.555969
H71	H	0.919550	-0.254253	-0.000038
C72	C	1.400325	-0.370550	0.505391
C73	C	1.401189	-0.503584	0.478906
C74	C	1.379660	-0.549435	0.602496
H75	H	1.319621	-0.332075	0.556328
H76	H	1.465862	-0.349902	0.556250
H77	H	1.335656	-0.524220	0.428068
H78	H	1.481884	-0.542091	0.427988
H79	H	1.445197	-0.528787	0.653355
H80	H	1.298956	-0.510952	0.653425
H81	H	1.380255	-0.639704	0.584543
H82	H	1.518542	-0.592788	-0.247505
C83	C	1.324147	0.346217	0.431552
C84	C	1.233410	0.291991	0.513630
C85	C	1.137433	0.388113	0.585453
H86	H	1.283742	0.386711	0.368807
H87	H	1.361000	0.407706	0.487366
H88	H	1.196560	0.230525	0.457821
H89	H	1.273776	0.251506	0.576401
H90	H	1.174286	0.449601	0.641267
H91	H	1.097038	0.428600	0.522697
H92	H	1.075863	0.351336	0.641160
H93	H	1.194854	0.419693	-0.000027
C94	C	1.179017	-0.278342	0.000067
C95	C	1.304781	-0.250460	0.000104
C96	C	1.384494	-0.362850	0.000194
H97	H	1.176161	-0.338721	-0.079064
H98	H	1.150644	-0.313106	0.079258
H99	H	1.333146	-0.215716	-0.079079
H100	H	1.307677	-0.190100	0.079229
H101	H	1.356122	-0.397614	0.079385
H102	H	1.381627	-0.423221	-0.078938
H103	H	1.469831	-0.343946	0.000232
H104	H	1.250742	-0.037441	-0.000006
H105	H	0.719453	0.407092	-0.000048
H106	H	0.775342	-0.050041	-0.000038
H107	H	1.564069	-0.272422	-0.471989
H108	H	1.557763	-0.510132	-0.471995
H109	H	1.439025	-0.512976	0.247446
H110	H	1.412395	-0.120224	0.471950
H111	H	1.451642	-0.037576	0.247434
