data_functionalizedCrystal
_audit_creation_method	'MofGen! by Chris Wilmer'
_symmetry_space_group_name_H-M	'P1'
_symmetry_Int_Tables_number	1
_symmetry_cell_setting	triclinic
loop_
_symmetry_equiv_pos_as_xyz
  x,y,z
_cell_length_a	14.044220
_cell_length_b	15.995300
_cell_length_c	12.503572
_cell_angle_alpha	86.472848
_cell_angle_beta	93.835250
_cell_angle_gamma	88.330342
loop_
_atom_site_label
_atom_site_type_symbol
_atom_site_fract_x
_atom_site_fract_y
_atom_site_fract_z
O1	O	1.263124	0.197436	0.089186
O2	O	0.987158	0.190150	0.089214
O3	O	1.132710	0.072468	0.089205
O4	O	1.117572	0.315118	0.089195
O5	O	1.121764	0.081334	-0.089437
O6	O	0.976212	0.199017	-0.089427
O7	O	1.252178	0.206302	-0.089455
Cu8	Cu	1.113195	0.203469	-0.105753
Cu9	Cu	1.126141	0.192983	0.105511
O10	O	1.106626	0.323985	-0.089446
C11	C	0.946371	0.191395	-0.000103
C12	C	0.841148	0.181883	-0.000092
C13	C	1.126620	0.045659	-0.000112
C14	C	1.124769	-0.047432	-0.000101
C15	C	0.648489	0.164496	-0.000112
C16	C	0.590842	0.231953	-0.000119
C17	C	0.483640	0.222278	-0.000131
C18	C	0.755701	0.174169	-0.000101
C19	C	1.121351	-0.217870	-0.000112
C20	C	1.224987	-0.257595	-0.000120
C21	C	1.223071	-0.354404	-0.000529
C22	C	1.117986	-0.385678	-0.000120
C23	C	1.060330	-0.343331	-0.101926
C24	C	1.062947	-0.246498	-0.102008
C25	C	1.073861	-0.256420	0.101148
C26	C	1.073953	-0.353429	0.102482
C27	C	1.116078	-0.480515	-0.000129
C28	C	1.123254	-0.123032	-0.000110
C29	C	1.292965	0.205058	-0.000136
C30	C	1.398188	0.214569	-0.000140
C31	C	1.112716	0.350793	-0.000127
C32	C	1.114567	0.443884	-0.000131
N33	N	1.104097	0.210844	-0.254344
C34	C	1.090713	0.221700	-0.473459
C35	C	1.148627	0.174749	-0.526790
C36	C	1.141180	0.180789	-0.648712
C37	C	1.098159	0.215661	-0.351525
N38	N	1.135246	0.185602	0.254103
H39	H	0.622000	0.296970	-0.000117
H40	H	1.035543	0.266430	-0.519363
C41	C	1.270875	-0.382552	-0.098374
C42	C	1.365513	-0.357068	-0.094064
C43	C	1.409581	-0.382964	-0.184192
H44	H	1.269989	-0.441874	-0.099080
H45	H	1.237461	-0.358069	-0.161735
H46	H	1.398918	-0.381554	-0.030719
H47	H	1.366427	-0.297749	-0.093372
H48	H	1.376168	-0.358481	-0.247554
H49	H	1.408689	-0.442286	-0.184891
H50	H	1.473795	-0.365670	-0.181285
H51	H	0.617333	0.099483	-0.000116
H52	H	1.112710	-0.237201	0.178337
H53	H	1.267944	-0.383472	0.072432
H54	H	0.982883	-0.363025	-0.105419
H55	H	1.271103	-0.239630	0.072885
H56	H	1.261579	-0.231244	-0.072970
H57	H	1.095321	-0.221618	-0.178406
H58	H	1.090952	-0.365273	-0.177984
C59	C	0.961055	-0.210909	-0.107847
C60	C	0.897411	-0.276610	-0.111282
C61	C	0.803542	-0.243861	-0.116681
H62	H	0.951812	-0.180445	-0.046301
H63	H	0.949791	-0.174598	-0.170742
H64	H	0.908670	-0.312906	-0.048394
H65	H	0.906623	-0.307079	-0.172825
H66	H	0.792278	-0.207550	-0.179576
H67	H	0.794310	-0.213398	-0.055133
H68	H	0.760348	-0.288433	-0.119023
H69	H	1.116116	-0.381704	0.177799
H70	H	0.997719	-0.374818	0.108943
H71	H	0.997507	-0.230405	0.102126
H72	H	1.203802	0.130017	-0.480880
