data_functionalizedCrystal
_audit_creation_method	'MofGen! by Chris Wilmer'
_symmetry_space_group_name_H-M	'P1'
_symmetry_Int_Tables_number	1
_symmetry_cell_setting	triclinic
loop_
_symmetry_equiv_pos_as_xyz
  x,y,z
_cell_length_a	10.540539
_cell_length_b	15.944551
_cell_length_c	9.016244
_cell_angle_alpha	89.996810
_cell_angle_beta	89.994699
_cell_angle_gamma	84.012115
loop_
_atom_site_label
_atom_site_type_symbol
_atom_site_fract_x
_atom_site_fract_y
_atom_site_fract_z
O1	O	1.684281	0.118370	-0.123274
O2	O	1.314716	0.129523	-0.123293
O3	O	1.509591	0.001731	-0.123269
O4	O	1.489407	0.246161	-0.123297
O5	O	1.509562	0.001734	0.123411
O6	O	1.314688	0.129525	0.123388
O7	O	1.684253	0.118372	0.123407
Cu8	Cu	1.499468	0.123949	0.145921
Cu9	Cu	1.499502	0.123946	-0.145807
O10	O	1.489378	0.246164	0.123384
C11	C	1.267411	0.128688	0.000046
C12	C	1.126497	0.126185	0.000039
C13	C	0.944375	0.030298	0.000626
C14	C	1.090959	0.032835	0.000054
C15	C	1.064229	0.171108	-0.140828
C16	C	0.917728	0.167922	-0.140930
C17	C	0.917181	0.169824	0.139592
C18	C	1.064151	0.170684	0.141438
C19	C	1.508739	-0.029566	0.000071
C20	C	1.506227	-0.122827	0.000072
C21	C	1.379430	-0.338440	0.000045
C22	C	1.438296	-0.399105	0.121677
C23	C	1.501682	-0.293580	0.000060
C24	C	1.438353	-0.399091	-0.121531
C25	C	1.497283	-0.458519	0.000043
C26	C	1.560582	-0.353017	0.121792
C27	C	1.560622	-0.352996	-0.121525
C28	C	1.619577	-0.413643	0.000136
C29	C	1.504213	-0.198563	0.000072
C30	C	1.494762	-0.553535	0.000042
C31	C	1.731559	0.119207	0.000065
C32	C	1.872473	0.121710	0.000062
C33	C	1.490231	0.277461	0.000040
C34	C	1.492743	0.370722	0.000029
N35	N	1.499453	0.123951	0.351108
N36	N	1.499526	0.123937	-0.350993
C37	C	1.394894	0.192082	0.586128
C38	C	1.395120	0.192337	0.414237
C39	C	1.631905	0.143889	0.413450
C40	C	1.631333	0.144372	0.585395
C41	C	1.472882	0.035659	0.585659
C42	C	1.469829	0.036231	0.413705
H43	H	1.107254	0.139899	-0.245656
C44	C	0.904240	-0.019323	-0.135064
N45	N	0.874005	-0.056696	-0.237265
C46	C	1.148031	-0.015254	-0.136595
N47	N	1.191016	-0.051475	-0.239527
C48	C	1.756780	-0.457630	0.000239
N49	N	1.860119	-0.490763	0.000326
H50	H	1.549184	-0.015061	0.626321
H51	H	1.378403	0.016683	0.629105
C52	C	1.368425	-0.426690	0.260584
N53	N	1.315789	-0.447464	0.365204
H54	H	1.296667	0.180340	0.372089
C55	C	1.630432	-0.325383	-0.260445
N56	N	1.683003	-0.304582	-0.365092
C57	C	1.418105	0.280816	0.358634
N58	N	1.435424	0.347462	0.316756
H59	H	0.886034	0.139615	0.246368
C60	C	1.663024	0.231386	0.639549
N61	N	1.686885	0.296930	0.680330
C62	C	1.739702	0.079949	0.641587
N63	N	1.821339	0.031436	0.683905
H64	H	1.411675	0.257205	0.629315
H65	H	1.386641	-0.419477	-0.224368
H66	H	0.869036	0.237251	0.140536
C67	C	1.739597	0.078671	0.358201
N68	N	1.820709	0.029548	0.316583
C69	C	1.664364	0.229921	0.355267
N70	N	1.688802	0.294724	0.311451
C71	C	1.093172	0.263720	-0.147929
N72	N	1.114976	0.333476	-0.153276
H73	H	1.372396	0.021118	0.372960
C74	C	1.566105	-0.035566	0.355691
N75	N	1.638639	-0.089642	0.312007
H76	H	1.296130	0.180269	0.627518
H77	H	0.889981	0.134718	-0.246221
H78	H	0.868845	0.235058	-0.147331
H79	H	0.916281	-0.006580	0.101649
C80	C	1.242347	-0.294253	0.000204
N81	N	1.139100	-0.260968	0.000333
H82	H	1.105548	0.137866	0.245651
H83	H	1.134043	-0.002512	0.101034
H84	H	1.612234	-0.332717	0.224735
C85	C	1.095646	0.262625	0.152937
N86	N	1.119377	0.331876	0.161594
