data_functionalizedCrystal
_audit_creation_method	'MofGen! by Chris Wilmer'
_symmetry_space_group_name_H-M	'P1'
_symmetry_Int_Tables_number	1
_symmetry_cell_setting	triclinic
loop_
_symmetry_equiv_pos_as_xyz
  x,y,z
_cell_length_a	18.050591
_cell_length_b	18.050590
_cell_length_c	18.050582
_cell_angle_alpha	90.023337
_cell_angle_beta	90.019760
_cell_angle_gamma	90.015000
loop_
_atom_site_label
_atom_site_type_symbol
_atom_site_fract_x
_atom_site_fract_y
_atom_site_fract_z
Zn1	Zn	1.135342	-0.295777	0.420004
Zn2	Zn	1.385342	-0.045777	0.670004
Zn3	Zn	1.635342	0.204223	0.920004
Zn4	Zn	1.885342	0.454223	1.170004
Zn5	Zn	1.135274	-0.419960	0.295813
Zn6	Zn	1.385274	-0.169960	0.545813
Zn7	Zn	1.635274	0.080040	0.795813
Zn8	Zn	1.885274	0.330040	1.045813
Zn9	Zn	1.011162	-0.295781	0.295818
Zn10	Zn	1.261162	-0.045781	0.545818
Zn11	Zn	1.511162	0.204219	0.795818
Zn12	Zn	1.761162	0.454219	1.045818
Zn13	Zn	1.011131	-0.419922	0.419951
Zn14	Zn	1.261131	-0.169922	0.669951
Zn15	Zn	1.511131	0.080078	0.919951
Zn16	Zn	1.761131	0.330078	1.169951
O17	O	1.073227	-0.357860	0.357897
O18	O	1.323227	-0.107860	0.607897
O19	O	1.573227	0.142140	0.857897
O20	O	1.823227	0.392140	1.107897
O21	O	1.239258	-0.312265	0.403550
O22	O	1.489258	-0.062265	0.653550
O23	O	1.739258	0.187735	0.903550
O24	O	1.989258	0.437735	1.153550
O25	O	1.118795	-0.403505	0.191889
O26	O	1.368795	-0.153505	0.441889
O27	O	1.618795	0.096495	0.691889
O28	O	1.868795	0.346495	0.941889
O29	O	1.027676	-0.191856	0.312316
O30	O	1.277676	0.058144	0.562316
O31	O	1.527676	0.308144	0.812316
O32	O	1.777676	0.558144	1.062316
O33	O	1.239208	-0.403501	0.312307
O34	O	1.489208	-0.153501	0.562307
O35	O	1.739208	0.096499	0.812307
O36	O	1.989208	0.346499	1.062307
O37	O	1.118911	-0.191853	0.403556
O38	O	1.368911	0.058147	0.653556
O39	O	1.618911	0.308147	0.903556
O40	O	1.868911	0.558147	1.153556
O41	O	1.027610	-0.312271	0.191893
O42	O	1.277610	-0.062271	0.441893
O43	O	1.527610	0.187729	0.691893
O44	O	1.777610	0.437729	0.941893
O45	O	0.907233	-0.312234	0.312264
O46	O	1.157233	-0.062234	0.562264
O47	O	1.407233	0.187766	0.812264
O48	O	1.657233	0.437766	1.062264
O49	O	1.027623	-0.403436	0.523883
O50	O	1.277623	-0.153436	0.773883
O51	O	1.527623	0.096564	1.023883
O52	O	1.777623	0.346564	1.273883
O53	O	0.907210	-0.403440	0.403464
O54	O	1.157210	-0.153440	0.653464
O55	O	1.407210	0.096560	0.903464
O56	O	1.657210	0.346560	1.153464
O57	O	1.118881	-0.312227	0.523922
O58	O	1.368881	-0.062227	0.773922
O59	O	1.618881	0.187773	1.023922
O60	O	1.868881	0.437773	1.273922
O61	O	1.118765	-0.523880	0.312255
O62	O	1.368765	-0.273880	0.562255
O63	O	1.618765	-0.023880	0.812255
O64	O	1.868765	0.226120	1.062255
O65	O	1.027557	-0.523852	0.403459
O66	O	1.277557	-0.273852	0.653459
O67	O	1.527557	-0.023852	0.903459
O68	O	1.777557	0.226148	1.153459
C69	C	0.880275	-0.357834	0.357859
C70	C	1.130275	-0.107834	0.607859
C71	C	1.380275	0.142166	0.857859
C72	C	1.630275	0.392166	1.107859
C73	C	0.797729	-0.357841	0.357861
C74	C	1.047729	-0.107841	0.607861
C75	C	1.297729	0.142159	0.857861
C76	C	1.547729	0.392159	1.107861
C77	C	1.073170	-0.550812	0.357867
C78	C	1.323170	-0.300812	0.607867
C79	C	1.573170	-0.050812	0.857867
C80	C	1.823170	0.199188	1.107867
C81	C	1.073214	-0.633358	0.357879
C82	C	1.323214	-0.383358	0.607879
C83	C	1.573214	-0.133358	0.857879
C84	C	1.823214	0.116642	1.107879
C85	C	0.548895	-0.308191	0.308384
C86	C	0.798895	-0.058191	0.558384
C87	C	1.048895	0.191809	0.808384
C88	C	1.298895	0.441809	1.058384
C89	C	0.598323	-0.290110	0.376160
C90	C	0.848323	-0.040110	0.626160
C91	C	1.098323	0.209890	0.876160
C92	C	1.348323	0.459890	1.126160
C93	C	0.500609	-0.357879	0.357922
C94	C	0.750609	-0.107879	0.607922
C95	C	1.000609	0.142121	0.857922
C96	C	1.250609	0.392121	1.107922
C97	C	0.598262	-0.375906	0.290119
C98	C	0.848262	-0.125906	0.540119
C99	C	1.098262	0.124094	0.790119
C100	C	1.348262	0.374094	1.040119
C101	C	0.646594	-0.357858	0.357888
C102	C	0.896594	-0.107858	0.607888
C103	C	1.146594	0.142142	0.857888
C104	C	1.396594	0.392142	1.107888
C105	C	0.548951	-0.339762	0.425734
C106	C	0.798951	-0.089762	0.675734
C107	C	1.048951	0.160238	0.925734
C108	C	1.298951	0.410238	1.175734
C109	C	0.548884	-0.425589	0.339648
C110	C	0.798884	-0.175589	0.589648
C111	C	1.048884	0.074411	0.839648
C112	C	1.298884	0.324411	1.089648
C113	C	0.598291	-0.407534	0.407471
C114	C	0.848291	-0.157534	0.657471
C115	C	1.098291	0.092466	0.907471
C116	C	1.348291	0.342466	1.157471
C117	C	0.416511	-0.357888	0.357940
C118	C	0.666511	-0.107888	0.607940
C119	C	0.916511	0.142112	0.857940
C120	C	1.166511	0.392112	1.107940
C121	C	0.730690	-0.357848	0.357878
C122	C	0.980690	-0.107848	0.607878
C123	C	1.230690	0.142152	0.857878
C124	C	1.480690	0.392152	1.107878
C125	C	1.122916	-0.832797	0.308352
C126	C	1.372916	-0.582797	0.558352
C127	C	1.622916	-0.332797	0.808352
C128	C	1.872916	-0.082797	1.058352
C129	C	1.141051	-0.882137	0.376133
C130	C	1.391051	-0.632137	0.626133
C131	C	1.641051	-0.382137	0.876133
C132	C	1.891051	-0.132137	1.126133
C133	C	1.073256	-0.784488	0.357909
C134	C	1.323256	-0.534488	0.607909
C135	C	1.573256	-0.284488	0.857909
C136	C	1.823256	-0.034488	1.107909
C137	C	1.055196	-0.882230	0.290158
C138	C	1.305196	-0.632230	0.540158
C139	C	1.555196	-0.382230	0.790158
C140	C	1.805196	-0.132230	1.040158
C141	C	1.073298	-0.930473	0.357931
C142	C	1.323298	-0.680473	0.607931
C143	C	1.573298	-0.430473	0.857931
C144	C	1.823298	-0.180473	1.107931
C145	C	1.091426	-0.832741	0.425726
C146	C	1.341426	-0.582741	0.675726
C147	C	1.591426	-0.332741	0.925726
C148	C	1.841426	-0.082741	1.175726
C149	C	1.005539	-0.832830	0.339704
C150	C	1.255539	-0.582830	0.589704
C151	C	1.505539	-0.332830	0.839704
C152	C	1.755539	-0.082830	1.089704
C153	C	1.023649	-0.882147	0.407533
C154	C	1.273649	-0.632147	0.657533
C155	C	1.523649	-0.382147	0.907533
C156	C	1.773649	-0.132147	1.157533
C157	C	1.073233	-0.700390	0.357895
C158	C	1.323233	-0.450390	0.607895
C159	C	1.573233	-0.200390	0.857895
C160	C	1.823233	0.049610	1.107895
C161	C	1.073320	-1.014570	0.357953
C162	C	1.323320	-0.764570	0.607953
C163	C	1.573320	-0.514570	0.857953
C164	C	1.823320	-0.264570	1.107953
C165	C	1.266933	-0.357887	0.357934
C166	C	1.516933	-0.107887	0.607934
C167	C	1.766933	0.142113	0.857934
C168	C	2.016933	0.392113	1.107934
C169	C	1.349479	-0.357898	0.357950
C170	C	1.599479	-0.107898	0.607950
C171	C	1.849479	0.142102	0.857950
C172	C	2.099479	0.392102	1.107950
C173	C	1.073256	-0.357827	0.551602
C174	C	1.323256	-0.107827	0.801602
C175	C	1.573256	0.142173	1.051602
C176	C	1.823256	0.392173	1.301602
C177	C	1.073269	-0.357813	0.634148
C178	C	1.323269	-0.107813	0.884148
C179	C	1.573269	0.142187	1.134148
C180	C	1.823269	0.392187	1.384148
C181	C	1.073305	-0.164154	0.357943
C182	C	1.323305	0.085846	0.607943
C183	C	1.573305	0.335846	0.857943
C184	C	1.823305	0.585846	1.107943
C185	C	1.073338	-0.081609	0.357962
C186	C	1.323338	0.168391	0.607962
C187	C	1.573338	0.418391	0.857962
C188	C	1.823338	0.668391	1.107962
C189	C	1.073241	-0.357839	0.164944
C190	C	1.323241	-0.107839	0.414944
C191	C	1.573241	0.142161	0.664944
C192	C	1.823241	0.392161	0.914944
C193	C	1.073372	-0.357644	0.082399
C194	C	1.323372	-0.107644	0.332399
C195	C	1.573372	0.142356	0.582399
C196	C	1.823372	0.392356	0.832399
C197	C	1.023681	-0.407345	0.833577
C198	C	1.273681	-0.157345	1.083577
C199	C	1.523681	0.092655	1.333577
C200	C	1.773681	0.342655	1.583577
C201	C	1.091439	-0.425502	0.882974
C202	C	1.341439	-0.175502	1.132974
C203	C	1.591439	0.074498	1.382974
C204	C	1.841439	0.324498	1.632974
C205	C	1.073305	-0.357756	0.785278
C206	C	1.323305	-0.107756	1.035278
C207	C	1.573305	0.142244	1.285278
C208	C	1.823305	0.392244	1.535278
C209	C	1.005584	-0.339578	0.882963
C210	C	1.255584	-0.089578	1.132963
C211	C	1.505584	0.160422	1.382963
C212	C	1.755584	0.410422	1.632963
C213	C	1.073335	-0.357703	0.931264
C214	C	1.323335	-0.107703	1.181264
C215	C	1.573335	0.142297	1.431264
C216	C	1.823335	0.392297	1.681264
C217	C	1.141099	-0.375950	0.833588
C218	C	1.391099	-0.125950	1.083588
C219	C	1.641099	0.124050	1.333588
C220	C	1.891099	0.374050	1.583588
C221	C	1.055199	-0.289994	0.833573
C222	C	1.305199	-0.039994	1.083573
C223	C	1.555199	0.210006	1.333573
C224	C	1.805199	0.460006	1.583573
C225	C	1.123004	-0.308126	0.882948
C226	C	1.373004	-0.058126	1.132948
C227	C	1.623004	0.191874	1.382948
C228	C	1.873004	0.441874	1.632948
C229	C	1.073287	-0.357789	0.701180
C230	C	1.323287	-0.107789	0.951180
C231	C	1.573287	0.142211	1.201180
C232	C	1.823287	0.392211	1.451180
C233	C	1.073360	-0.357670	1.015360
C234	C	1.323360	-0.107670	1.265360
C235	C	1.573360	0.142330	1.515360
C236	C	1.823360	0.392330	1.765360
H237	H	0.527208	-0.266150	0.266557
H238	H	0.777208	-0.016150	0.516557
H239	H	1.027208	0.233850	0.766557
H240	H	1.277208	0.483850	1.016557
C241	C	1.179662	-0.803515	0.251798
C242	C	1.429662	-0.553515	0.501798
C243	C	1.679662	-0.303515	0.751798
C244	C	1.929662	-0.053515	1.001798
H245	H	1.227768	-0.820397	0.264865
H246	H	1.477768	-0.570397	0.514865
H247	H	1.727768	-0.320397	0.764865
H248	H	1.977768	-0.070397	1.014865
H249	H	1.167292	-0.821185	0.203783
H250	H	1.417292	-0.571185	0.453783
H251	H	1.667292	-0.321185	0.703783
H252	H	1.917292	-0.071185	0.953783
H253	H	1.178945	-0.750890	0.251871
H254	H	1.428945	-0.500890	0.501871
H255	H	1.678945	-0.250890	0.751871
H256	H	1.928945	-0.000890	1.001871
H257	H	1.198335	-0.903797	0.391545
H258	H	1.448335	-0.653797	0.641545
H259	H	1.698335	-0.403797	0.891545
H260	H	1.948335	-0.153797	1.141545
C261	C	1.112182	-0.803505	0.503162
C262	C	1.362182	-0.553505	0.753162
C263	C	1.612182	-0.303505	1.003162
C264	C	1.862182	-0.053505	1.253162
H265	H	1.112066	-0.750876	0.502674
H266	H	1.362066	-0.500876	0.752674
H267	H	1.612066	-0.250876	1.002674
H268	H	1.862066	-0.000876	1.252674
H269	H	1.077144	-0.820796	0.538401
H270	H	1.327144	-0.570796	0.788401
H271	H	1.577144	-0.320796	1.038401
H272	H	1.827144	-0.070796	1.288401
H273	H	1.160155	-0.820797	0.516175
H274	H	1.410155	-0.570797	0.766175
H275	H	1.660155	-0.320797	1.016175
H276	H	1.910155	-0.070797	1.266175
C277	C	0.627526	-0.396523	0.212682
C278	C	0.877526	-0.146523	0.462682
C279	C	1.127526	0.103477	0.712682
C280	C	1.377526	0.353477	0.962682
H281	H	0.656482	-0.440343	0.215958
H282	H	0.906482	-0.190343	0.465958
H283	H	1.156482	0.059657	0.715958
H284	H	1.406482	0.309657	0.965958
H285	H	0.586941	-0.404711	0.180176
H286	H	0.836941	-0.154711	0.430176
H287	H	1.086941	0.095289	0.680176
H288	H	1.336941	0.345289	0.930176
H289	H	0.657222	-0.357229	0.194143
H290	H	0.907222	-0.107229	0.444143
H291	H	1.157222	0.142771	0.694143
H292	H	1.407222	0.392771	0.944143
C293	C	0.627414	-0.464283	0.464106
C294	C	0.877414	-0.214283	0.714106
C295	C	1.127414	0.035717	0.964106
C296	C	1.377414	0.285717	1.214106
H297	H	0.610439	-0.451348	0.512215
H298	H	0.860439	-0.201348	0.762215
H299	H	1.110439	0.048652	1.012215
H300	H	1.360439	0.298652	1.262215
H301	H	0.609738	-0.512246	0.451548
H302	H	0.859738	-0.262246	0.701548
H303	H	1.109738	-0.012246	0.951548
H304	H	1.359738	0.237754	1.201548
H305	H	0.680041	-0.464251	0.463505
H306	H	0.930041	-0.214251	0.713505
H307	H	1.180041	0.035749	0.963505
H308	H	1.430041	0.285749	1.213505
C309	C	0.967041	-0.464062	0.804286
C310	C	1.217041	-0.214062	1.054286
C311	C	1.467041	0.035938	1.304286
C312	C	1.717041	0.285938	1.554286
H313	H	0.930752	-0.439281	0.775324
H314	H	1.180752	-0.189281	1.025324
H315	H	1.430752	0.060719	1.275324
H316	H	1.680752	0.310719	1.525324
H317	H	0.991740	-0.499816	0.774605
H318	H	1.241740	-0.249816	1.024605
H319	H	1.491740	0.000184	1.274605
H320	H	1.741740	0.250184	1.524605
H321	H	0.943680	-0.488070	0.844864
H322	H	1.193680	-0.238070	1.094864
H323	H	1.443680	0.011930	1.344864
H324	H	1.693680	0.261930	1.594864
H325	H	1.039903	-0.903968	0.232852
H326	H	1.289903	-0.653968	0.482852
H327	H	1.539903	-0.403968	0.732852
H328	H	1.789903	-0.153968	0.982852
H329	H	1.039846	-0.232728	0.811857
H330	H	1.289846	0.017272	1.061857
H331	H	1.539846	0.267272	1.311857
H332	H	1.789846	0.517272	1.561857
C333	C	0.519820	-0.319060	0.503199
C334	C	0.769820	-0.069060	0.753199
C335	C	1.019820	0.180940	1.003199
C336	C	1.269820	0.430940	1.253199
H337	H	0.560470	-0.310437	0.535521
H338	H	0.810470	-0.060437	0.785521
H339	H	1.060470	0.189563	1.035521
H340	H	1.310470	0.439563	1.285521
H341	H	0.490528	-0.275476	0.499860
H342	H	0.740528	-0.025476	0.749860
H343	H	0.990528	0.224524	0.999860
H344	H	1.240528	0.474524	1.249860
H345	H	0.490500	-0.358505	0.522012
H346	H	0.740500	-0.108505	0.772012
H347	H	0.990500	0.141495	1.022012
H348	H	1.240500	0.391495	1.272012
H349	H	0.981672	-0.903680	0.449500
H350	H	1.231672	-0.653680	0.699500
H351	H	1.481672	-0.403680	0.949500
H352	H	1.731672	-0.153680	1.199500
C353	C	0.519518	-0.502931	0.318753
C354	C	0.769518	-0.252931	0.568753
C355	C	1.019518	-0.002931	0.818753
C356	C	1.269518	0.247069	1.068753
H357	H	0.536369	-0.515675	0.270550
H358	H	0.786369	-0.265675	0.520550
H359	H	1.036369	-0.015675	0.770550
H360	H	1.286369	0.234325	1.020550
H361	H	0.537165	-0.538344	0.353438
H362	H	0.787165	-0.288344	0.603438
H363	H	1.037165	-0.038344	0.853438
H364	H	1.287165	0.211656	1.103438
H365	H	0.466893	-0.502482	0.319362
H366	H	0.716893	-0.252482	0.569362
H367	H	0.966893	-0.002482	0.819362
H368	H	1.216893	0.247518	1.069362
C369	C	0.928179	-0.803539	0.318857
C370	C	1.178179	-0.553539	0.568857
C371	C	1.428179	-0.303539	0.818857
C372	C	1.678179	-0.053539	1.068857
H373	H	0.915404	-0.820454	0.270670
H374	H	1.165404	-0.570454	0.520670
H375	H	1.415404	-0.320454	0.770670
H376	H	1.665404	-0.070454	1.020670
H377	H	0.892792	-0.821170	0.353576
H378	H	1.142792	-0.571170	0.603576
H379	H	1.392792	-0.321170	0.853576
H380	H	1.642792	-0.071170	1.103576
H381	H	0.928620	-0.750914	0.319445
H382	H	1.178620	-0.500914	0.569445
H383	H	1.428620	-0.250914	0.819445
H384	H	1.678620	-0.000914	1.069445
C385	C	1.218515	-0.396745	0.804417
C386	C	1.468515	-0.146745	1.054417
C387	C	1.718515	0.103255	1.304417
C388	C	1.968515	0.353255	1.554417
H389	H	1.218029	-0.396651	0.751788
H390	H	1.468029	-0.146651	1.001788
H391	H	1.718029	0.103349	1.251788
H392	H	1.968029	0.353349	1.501788
H393	H	1.253779	-0.361703	0.821727
H394	H	1.503779	-0.111703	1.071727
H395	H	1.753779	0.138297	1.321727
H396	H	2.003779	0.388297	1.571727
H397	H	1.231494	-0.444712	0.821732
H398	H	1.481494	-0.194712	1.071732
H399	H	1.731494	0.055288	1.321732
H400	H	1.981494	0.305288	1.571732
C401	C	1.112150	-0.502882	0.912296
C402	C	1.362150	-0.252882	1.162296
C403	C	1.612150	-0.002882	1.412296
C404	C	1.862150	0.247118	1.662296
H405	H	1.076834	-0.538078	0.895397
H406	H	1.326834	-0.288078	1.145397
H407	H	1.576834	-0.038078	1.395397
H408	H	1.826834	0.211922	1.645397
H409	H	1.159928	-0.516119	0.894665
H410	H	1.409928	-0.266119	1.144665
H411	H	1.659928	-0.016119	1.394665
H412	H	1.909928	0.233881	1.644665
H413	H	1.112450	-0.502187	0.964921
H414	H	1.362450	-0.252187	1.214921
H415	H	1.612450	-0.002187	1.464921
H416	H	1.862450	0.247813	1.714921
C417	C	1.179772	-0.251446	0.912058
C418	C	1.429772	-0.001446	1.162058
C419	C	1.679772	0.248554	1.412058
C420	C	1.929772	0.498554	1.662058
H421	H	1.155044	-0.215123	0.941028
H422	H	1.405044	0.034877	1.191028
H423	H	1.655044	0.284877	1.441028
H424	H	1.905044	0.534877	1.691028
H425	H	1.215586	-0.276105	0.941696
H426	H	1.465586	-0.026105	1.191696
H427	H	1.715586	0.223895	1.441696
H428	H	1.965586	0.473895	1.691696
H429	H	1.203700	-0.228132	0.871405
H430	H	1.453700	0.021868	1.121405
H431	H	1.703700	0.271868	1.371405
H432	H	1.953700	0.521868	1.621405
C433	C	0.627667	-0.212747	0.397027
C434	C	0.877667	0.037253	0.647027
C435	C	1.127667	0.287253	0.897027
C436	C	1.377667	0.537253	1.147027
H437	H	0.610759	-0.177507	0.361794
H438	H	0.860759	0.072493	0.611794
H439	H	1.110759	0.322493	0.861794
H440	H	1.360759	0.572493	1.111794
H441	H	0.610059	-0.199590	0.444841
H442	H	0.860059	0.050410	0.694841
H443	H	1.110059	0.300410	0.944841
H444	H	1.360059	0.550410	1.194841
H445	H	0.680292	-0.213416	0.397302
H446	H	0.930292	0.036584	0.647302
H447	H	1.180292	0.286584	0.897302
H448	H	1.430292	0.536584	1.147302
C449	C	0.928202	-0.318833	0.912262
C450	C	1.178202	-0.068833	1.162262
C451	C	1.428202	0.181167	1.412262
C452	C	1.678202	0.431167	1.662262
H453	H	0.892997	-0.354134	0.895348
H454	H	1.142997	-0.104134	1.145348
H455	H	1.392997	0.145866	1.395348
H456	H	1.642997	0.395866	1.645348
H457	H	0.928876	-0.318518	0.964883
H458	H	1.178876	-0.068518	1.214883
H459	H	1.428876	0.181482	1.464883
H460	H	1.678876	0.431482	1.714883
H461	H	0.914988	-0.271052	0.894613
H462	H	1.164988	-0.021052	1.144613
H463	H	1.414988	0.228948	1.394613
H464	H	1.664988	0.478948	1.644613
