data_functionalizedCrystal
_audit_creation_method	'MofGen! by Chris Wilmer'
_symmetry_space_group_name_H-M	'P1'
_symmetry_Int_Tables_number	1
_symmetry_cell_setting	triclinic
loop_
_symmetry_equiv_pos_as_xyz
  x,y,z
_cell_length_a	18.050590
_cell_length_b	21.295417
_cell_length_c	18.050583
_cell_angle_alpha	89.959541
_cell_angle_beta	89.999666
_cell_angle_gamma	90.019674
loop_
_atom_site_label
_atom_site_type_symbol
_atom_site_fract_x
_atom_site_fract_y
_atom_site_fract_z
Zn1	Zn	1.135289	-0.250746	-0.419580
Zn2	Zn	1.385289	-0.000746	-0.169580
Zn3	Zn	1.635289	0.249254	0.080420
Zn4	Zn	1.885289	0.499254	0.330420
Zn5	Zn	1.135192	-0.356033	-0.295381
Zn6	Zn	1.385192	-0.106033	-0.045381
Zn7	Zn	1.635192	0.143967	0.204619
Zn8	Zn	1.885192	0.393967	0.454619
Zn9	Zn	1.011106	-0.250761	-0.295438
Zn10	Zn	1.261106	-0.000761	-0.045438
Zn11	Zn	1.511106	0.249239	0.204562
Zn12	Zn	1.761106	0.499239	0.454562
Zn13	Zn	1.011051	-0.355962	-0.419563
Zn14	Zn	1.261051	-0.105962	-0.169563
Zn15	Zn	1.511051	0.144038	0.080437
Zn16	Zn	1.761051	0.394038	0.330437
O17	O	1.073159	-0.303375	-0.357491
O18	O	1.323159	-0.053375	-0.107491
O19	O	1.573159	0.196625	0.142509
O20	O	1.823159	0.446625	0.392509
O21	O	1.239200	-0.264736	-0.403088
O22	O	1.489200	-0.014736	-0.153088
O23	O	1.739200	0.235264	0.096912
O24	O	1.989200	0.485264	0.346912
O25	O	1.118714	-0.342104	-0.191464
O26	O	1.368714	-0.092104	0.058536
O27	O	1.618714	0.157896	0.308536
O28	O	1.868714	0.407896	0.558536
O29	O	1.027642	-0.162670	-0.311937
O30	O	1.277642	0.087330	-0.061937
O31	O	1.527642	0.337330	0.188063
O32	O	1.777642	0.587330	0.438063
O33	O	1.239129	-0.342090	-0.311839
O34	O	1.489129	-0.092090	-0.061839
O35	O	1.739129	0.157910	0.188161
O36	O	1.989129	0.407910	0.438161
O37	O	1.118879	-0.162659	-0.403143
O38	O	1.368879	0.087341	-0.153143
O39	O	1.618879	0.337341	0.096857
O40	O	1.868879	0.587341	0.346857
O41	O	1.027548	-0.264762	-0.191506
O42	O	1.277548	-0.014762	0.058494
O43	O	1.527548	0.235238	0.308494
O44	O	1.777548	0.485238	0.558494
O45	O	0.907174	-0.264693	-0.311921
O46	O	1.157174	-0.014693	-0.061921
O47	O	1.407174	0.235307	0.188079
O48	O	1.657174	0.485307	0.438079
O49	O	1.027549	-0.341968	-0.523490
O50	O	1.277549	-0.091968	-0.273490
O51	O	1.527549	0.158032	-0.023490
O52	O	1.777549	0.408032	0.226510
O53	O	0.907134	-0.341983	-0.403115
O54	O	1.157134	-0.091983	-0.153115
O55	O	1.407134	0.158017	0.096885
O56	O	1.657134	0.408017	0.346885
O57	O	1.118826	-0.264667	-0.523502
O58	O	1.368826	-0.014667	-0.273502
O59	O	1.618826	0.235333	-0.023502
O60	O	1.868826	0.485333	0.226498
O61	O	1.118661	-0.444113	-0.311823
O62	O	1.368661	-0.194113	-0.061823
O63	O	1.618661	0.055887	0.188177
O64	O	1.868661	0.305887	0.438177
O65	O	1.027455	-0.444060	-0.403060
O66	O	1.277455	-0.194060	-0.153060
O67	O	1.527455	0.055940	0.096940
O68	O	1.777455	0.305940	0.346940
C69	C	0.880207	-0.303332	-0.357523
C70	C	1.130207	-0.053332	-0.107523
C71	C	1.380207	0.196668	0.142477
C72	C	1.630207	0.446668	0.392477
C73	C	0.797661	-0.303329	-0.357554
C74	C	1.047661	-0.053329	-0.107554
C75	C	1.297661	0.196671	0.142446
C76	C	1.547661	0.446671	0.392446
C77	C	0.598210	-0.345480	-0.407028
C78	C	0.848210	-0.095480	-0.157028
C79	C	1.098210	0.154520	0.092972
C80	C	1.348210	0.404520	0.342972
C81	C	0.548820	-0.288079	-0.425308
C82	C	0.798820	-0.038079	-0.175308
C83	C	1.048820	0.211921	0.074692
C84	C	1.298820	0.461921	0.324692
C85	C	0.646531	-0.303364	-0.357518
C86	C	0.896531	-0.053364	-0.107518
C87	C	1.146531	0.196636	0.142482
C88	C	1.396531	0.446636	0.392482
C89	C	0.548839	-0.360798	-0.339237
C90	C	0.798839	-0.110798	-0.089237
C91	C	1.048839	0.139202	0.160763
C92	C	1.298839	0.389202	0.410763
C93	C	0.500546	-0.303403	-0.357484
C94	C	0.750546	-0.053403	-0.107484
C95	C	1.000546	0.196597	0.142516
C96	C	1.250546	0.446597	0.392516
C97	C	0.598228	-0.245933	-0.375833
C98	C	0.848228	0.004067	-0.125833
C99	C	1.098228	0.254067	0.124167
C100	C	1.348228	0.504067	0.374167
C101	C	0.598252	-0.318691	-0.289731
C102	C	0.848252	-0.068691	-0.039731
C103	C	1.098252	0.181309	0.210269
C104	C	1.348252	0.431309	0.460269
C105	C	0.548884	-0.261250	-0.307985
C106	C	0.798884	-0.011250	-0.057985
C107	C	1.048884	0.238750	0.192015
C108	C	1.298884	0.488750	0.442015
C109	C	0.730629	-0.303343	-0.357539
C110	C	0.980629	-0.053343	-0.107539
C111	C	1.230629	0.196657	0.142461
C112	C	1.480629	0.446657	0.392461
C113	C	0.416449	-0.303419	-0.357463
C114	C	0.666449	-0.053419	-0.107463
C115	C	0.916449	0.196581	0.142537
C116	C	1.166449	0.446581	0.392537
C117	C	1.073062	-0.466927	-0.357450
C118	C	1.323062	-0.216927	-0.107450
C119	C	1.573062	0.033073	0.142550
C120	C	1.823062	0.283073	0.392550
C121	C	1.073088	-0.536895	-0.357457
C122	C	1.323088	-0.286895	-0.107457
C123	C	1.573088	-0.036895	0.142543
C124	C	1.823088	0.213105	0.392543
C125	C	1.120621	-0.569768	-0.309999
C126	C	1.370621	-0.319768	-0.059999
C127	C	1.620621	-0.069768	0.190001
C128	C	1.870621	0.180232	0.440001
C129	C	1.120656	-0.635511	-0.310015
C130	C	1.370656	-0.385511	-0.060015
C131	C	1.620656	-0.135511	0.189985
C132	C	1.870656	0.114489	0.439985
C133	C	1.073145	-0.668378	-0.357482
C134	C	1.323145	-0.418378	-0.107482
C135	C	1.573145	-0.168378	0.142518
C136	C	1.823145	0.081622	0.392518
C137	C	1.025608	-0.635497	-0.404950
C138	C	1.275608	-0.385497	-0.154950
C139	C	1.525608	-0.135497	0.095050
C140	C	1.775608	0.114503	0.345050
C141	C	1.025580	-0.569756	-0.404937
C142	C	1.275580	-0.319756	-0.154937
C143	C	1.525580	-0.069756	0.095063
C144	C	1.775580	0.180244	0.345063
N145	N	1.008178	-0.771632	-0.363155
N146	N	1.258178	-0.521632	-0.113155
N147	N	1.508178	-0.271632	0.136845
N148	N	1.758178	-0.021632	0.386845
N149	N	1.008207	-0.834084	-0.363163
N150	N	1.258207	-0.584084	-0.113163
N151	N	1.508207	-0.334084	0.136837
N152	N	1.758207	-0.084084	0.386837
C153	C	1.073228	-0.866452	-0.357525
C154	C	1.323228	-0.616452	-0.107525
C155	C	1.573228	-0.366452	0.142475
C156	C	1.823228	-0.116452	0.392475
N157	N	1.138220	-0.834010	-0.351865
N158	N	1.388220	-0.584010	-0.101865
N159	N	1.638220	-0.334010	0.148135
N160	N	1.888220	-0.084010	0.398135
N161	N	1.138191	-0.771553	-0.351853
N162	N	1.388191	-0.521553	-0.101853
N163	N	1.638191	-0.271553	0.148147
N164	N	1.888191	-0.021553	0.398147
C165	C	1.073170	-0.739663	-0.357502
C166	C	1.323170	-0.489663	-0.107502
C167	C	1.573170	-0.239663	0.142498
C168	C	1.823170	0.010337	0.392498
C169	C	1.120803	-0.970611	-0.310082
C170	C	1.370803	-0.720611	-0.060082
C171	C	1.620803	-0.470611	0.189918
C172	C	1.870803	-0.220611	0.439918
C173	C	1.120839	-1.036354	-0.310104
C174	C	1.370839	-0.786354	-0.060104
C175	C	1.620839	-0.536354	0.189896
C176	C	1.870839	-0.286354	0.439896
C177	C	1.025784	-1.036339	-0.405035
C178	C	1.275784	-0.786339	-0.155035
C179	C	1.525784	-0.536339	0.094965
C180	C	1.775784	-0.286339	0.344965
C181	C	1.025755	-0.970597	-0.405017
C182	C	1.275755	-0.720597	-0.155017
C183	C	1.525755	-0.470597	0.094983
C184	C	1.775755	-0.220597	0.344983
C185	C	1.073263	-0.937737	-0.357537
C186	C	1.323263	-0.687737	-0.107537
C187	C	1.573263	-0.437737	0.142463
C188	C	1.823263	-0.187737	0.392463
C189	C	1.266865	-0.303419	-0.357459
C190	C	1.516865	-0.053419	-0.107459
C191	C	1.766865	0.196581	0.142541
C192	C	2.016865	0.446581	0.392541
C193	C	1.349411	-0.303438	-0.357445
C194	C	1.599411	-0.053438	-0.107445
C195	C	1.849411	0.196562	0.142555
C196	C	2.099411	0.446562	0.392555
C197	C	1.073192	-0.303308	-0.551196
C198	C	1.323192	-0.053308	-0.301196
C199	C	1.573192	0.196692	-0.051196
C200	C	1.823192	0.446692	0.198804
C201	C	1.073206	-0.303280	-0.633742
C202	C	1.323206	-0.053280	-0.383742
C203	C	1.573206	0.196720	-0.133742
C204	C	1.823206	0.446720	0.116258
C205	C	1.073277	-0.139185	-0.357548
C206	C	1.323277	0.110815	-0.107548
C207	C	1.573277	0.360815	0.142452
C208	C	1.823277	0.610815	0.392452
C209	C	1.073328	-0.069217	-0.357573
C210	C	1.323328	0.180783	-0.107573
C211	C	1.573328	0.430783	0.142427
C212	C	1.823328	0.680783	0.392427
C213	C	1.122892	-0.261223	-0.833200
C214	C	1.372892	-0.011223	-0.583200
C215	C	1.622892	0.238777	-0.333200
C216	C	1.872892	0.488777	-0.083200
C217	C	1.055159	-0.245805	-0.882614
C218	C	1.305159	0.004195	-0.632614
C219	C	1.555159	0.254195	-0.382614
C220	C	1.805159	0.504195	-0.132614
C221	C	1.073236	-0.303269	-0.784873
C222	C	1.323236	-0.053269	-0.534873
C223	C	1.573236	0.196731	-0.284873
C224	C	1.823236	0.446731	-0.034873
C225	C	1.140996	-0.318646	-0.882540
C226	C	1.390996	-0.068646	-0.632540
C227	C	1.640996	0.181354	-0.382540
C228	C	1.890996	0.431354	-0.132540
C229	C	1.073271	-0.303257	-0.930858
C230	C	1.323271	-0.053257	-0.680858
C231	C	1.573271	0.196743	-0.430858
C232	C	1.823271	0.446743	-0.180858
C233	C	1.005467	-0.287822	-0.833200
C234	C	1.255467	-0.037822	-0.583200
C235	C	1.505467	0.212178	-0.333200
C236	C	1.755467	0.462178	-0.083200
C237	C	1.091349	-0.360689	-0.833121
C238	C	1.341349	-0.110689	-0.583121
C239	C	1.591349	0.139311	-0.333121
C240	C	1.841349	0.389311	-0.083121
C241	C	1.023570	-0.345294	-0.882514
C242	C	1.273570	-0.095294	-0.632514
C243	C	1.523570	0.154706	-0.382514
C244	C	1.773570	0.404706	-0.132514
C245	C	1.073217	-0.303274	-0.700774
C246	C	1.323217	-0.053274	-0.450774
C247	C	1.573217	0.196726	-0.200774
C248	C	1.823217	0.446726	0.049226
C249	C	1.073282	-0.303252	-1.014954
C250	C	1.323282	-0.053252	-0.764954
C251	C	1.573282	0.196748	-0.514954
C252	C	1.823282	0.446748	-0.264954
C253	C	1.073169	-0.303397	-0.164539
C254	C	1.323169	-0.053397	0.085461
C255	C	1.573169	0.196603	0.335461
C256	C	1.823169	0.446603	0.585461
C257	C	1.073299	-0.303248	-0.081993
C258	C	1.323299	-0.053248	0.168007
C259	C	1.573299	0.196752	0.418007
C260	C	1.823299	0.446752	0.668007
H261	H	0.619980	-0.331658	-0.232436
H262	H	0.869980	-0.081658	0.017564
H263	H	1.119980	0.168342	0.267564
H264	H	1.369980	0.418342	0.517564
H265	H	0.986925	-0.662261	-0.443599
H266	H	1.236925	-0.412261	-0.193599
H267	H	1.486925	-0.162261	0.056401
H268	H	1.736925	0.087739	0.306401
H269	H	0.986872	-0.542990	-0.443584
H270	H	1.236872	-0.292990	-0.193584
H271	H	1.486872	-0.042990	0.056416
H272	H	1.736872	0.207010	0.306416
H273	H	1.164816	-0.225644	-0.811544
H274	H	1.414816	0.024356	-0.561544
H275	H	1.664816	0.274356	-0.311544
H276	H	1.914816	0.524356	-0.061544
H277	H	0.527362	-0.225610	-0.266102
H278	H	0.777362	0.024390	-0.016102
H279	H	1.027362	0.274390	0.233898
H280	H	1.277362	0.524390	0.483898
H281	H	0.981544	-0.380846	-0.904030
H282	H	1.231544	-0.130846	-0.654030
H283	H	1.481544	0.119154	-0.404030
H284	H	1.731544	0.369154	-0.154030
O285	O	1.171870	-0.534324	-0.258801
O286	O	1.421870	-0.284324	-0.008801
O287	O	1.671870	-0.034324	0.241199
O288	O	1.921870	0.215676	0.491199
H289	H	1.204935	-0.568232	-0.225809
H290	H	1.454935	-0.318232	0.024191
H291	H	1.704935	-0.068232	0.274191
H292	H	1.954935	0.181768	0.524191
H293	H	0.619871	-0.381033	-0.448944
H294	H	0.869871	-0.131033	-0.198944
H295	H	1.119871	0.118967	0.051056
H296	H	1.369871	0.368967	0.301056
O297	O	0.519937	-0.270986	-0.501196
O298	O	0.769937	-0.020986	-0.251196
O299	O	1.019937	0.229014	-0.001196
O300	O	1.269937	0.479014	0.248804
H301	H	0.539644	-0.306020	-0.542202
H302	H	0.789644	-0.056020	-0.292202
H303	H	1.039644	0.193980	-0.042202
H304	H	1.289644	0.443980	0.207798
O305	O	1.111656	-0.424995	-0.804285
O306	O	1.361656	-0.174995	-0.554285
O307	O	1.611656	0.075005	-0.304285
O308	O	1.861656	0.325005	-0.054285
H309	H	1.167941	-0.437659	-0.824005
H310	H	1.417941	-0.187659	-0.574005
H311	H	1.667941	0.062341	-0.324005
H312	H	1.917941	0.312341	-0.074005
O313	O	1.216879	-0.335891	-0.911249
O314	O	1.466879	-0.085891	-0.661249
O315	O	1.716879	0.164109	-0.411249
O316	O	1.966879	0.414109	-0.161249
H317	H	1.257977	-0.300925	-0.891489
H318	H	1.507977	-0.050925	-0.641489
H319	H	1.757977	0.199075	-0.391489
H320	H	2.007977	0.449075	-0.141489
O321	O	1.034870	-0.181481	-0.911416
O322	O	1.284870	0.068519	-0.661416
O323	O	1.534870	0.318519	-0.411416
O324	O	1.784870	0.568519	-0.161416
H325	H	1.080787	-0.163096	-0.946117
H326	H	1.330787	0.086904	-0.696117
H327	H	1.580787	0.336904	-0.446117
H328	H	1.830787	0.586904	-0.196117
O329	O	0.520099	-0.425109	-0.318759
O330	O	0.770099	-0.175109	-0.068759
O331	O	1.020099	0.074891	0.181241
O332	O	1.270099	0.324891	0.431241
H333	H	0.540747	-0.438102	-0.262896
H334	H	0.790747	-0.188102	-0.012896
H335	H	1.040747	0.061898	0.237104
H336	H	1.290747	0.311898	0.487104
O337	O	0.929562	-0.270501	-0.804613
O338	O	1.179562	-0.020501	-0.554613
O339	O	1.429562	0.229499	-0.304613
O340	O	1.679562	0.479499	-0.054613
H341	H	0.914502	-0.222984	-0.824928
H342	H	1.164502	0.027016	-0.574928
H343	H	1.414502	0.277016	-0.324928
H344	H	1.664502	0.527016	-0.074928
H345	H	1.159551	-1.063118	-0.271460
H346	H	1.409551	-0.813118	-0.021460
H347	H	1.659551	-0.563118	0.228540
H348	H	1.909551	-0.313118	0.478540
H349	H	0.619832	-0.197364	-0.391346
H350	H	0.869832	0.052636	-0.141346
H351	H	1.119832	0.302636	0.108654
H352	H	1.369832	0.552636	0.358654
H353	H	1.159366	-0.662281	-0.271369
H354	H	1.409366	-0.412281	-0.021369
H355	H	1.659366	-0.162281	0.228631
H356	H	1.909366	0.087719	0.478631
H357	H	0.987102	-1.063099	-0.443687
H358	H	1.237102	-0.813099	-0.193687
H359	H	1.487102	-0.563099	0.056313
H360	H	1.737102	-0.313099	0.306313
O361	O	1.172050	-0.935161	-0.258885
O362	O	1.422050	-0.685161	-0.008885
O363	O	1.672050	-0.435161	0.241115
O364	O	1.922050	-0.185161	0.491115
H365	H	1.205120	-0.969067	-0.225896
H366	H	1.455120	-0.719067	0.024104
H367	H	1.705120	-0.469067	0.274104
H368	H	1.955120	-0.219067	0.524104
O369	O	0.974468	-0.935134	-0.456185
O370	O	1.224468	-0.685134	-0.206185
O371	O	1.474468	-0.435134	0.043815
O372	O	1.724468	-0.185134	0.293815
H373	H	0.941426	-0.969031	-0.489187
H374	H	1.191426	-0.719031	-0.239187
H375	H	1.441426	-0.469031	0.010813
H376	H	1.691426	-0.219031	0.260813
