data_functionalizedCrystal
_audit_creation_method	'MofGen! by Chris Wilmer'
_symmetry_space_group_name_H-M	'P1'
_symmetry_Int_Tables_number	1
_symmetry_cell_setting	triclinic
loop_
_symmetry_equiv_pos_as_xyz
  x,y,z
_cell_length_a	10.654549
_cell_length_b	12.376457
_cell_length_c	10.654555
_cell_angle_alpha	78.609936
_cell_angle_beta	84.488236
_cell_angle_gamma	101.404973
loop_
_atom_site_label
_atom_site_type_symbol
_atom_site_fract_x
_atom_site_fract_y
_atom_site_fract_z
O1	O	1.691726	0.094027	0.152559
O2	O	1.326248	0.094022	0.169360
O3	O	1.517383	0.094025	-0.021778
O4	O	1.500591	0.094025	0.343698
O5	O	1.469615	-0.093988	0.025941
O6	O	1.278481	-0.093990	0.217079
O7	O	1.643959	-0.093986	0.200279
Zn8	Zn	1.453636	-0.123839	0.216255
Zn9	Zn	1.516571	0.123876	0.153383
O10	O	1.452824	-0.093988	0.391417
C11	C	1.255566	0.000016	0.191985
C12	C	1.116123	0.000014	0.188291
C13	C	0.826155	0.000046	0.409905
C14	C	0.877696	0.000042	0.525924
C15	C	1.008710	0.000027	0.529404
C16	C	1.088189	0.000020	0.416850
C17	C	1.036649	0.000024	0.300831
C18	C	0.905629	0.000036	0.297365
C19	C	1.064582	0.000019	0.072272
C20	C	0.933566	0.000026	0.068792
C21	C	1.144061	0.000012	-0.040281
C22	C	1.092519	0.000008	-0.156301
C23	C	0.961496	0.000022	-0.159775
C24	C	0.882025	0.000030	-0.047227
N25	N	1.410693	-0.292898	0.259163
C26	C	1.659206	-0.647880	0.010838
C27	C	1.689255	-0.529540	-0.019193
C28	C	1.619617	-0.470374	0.050393
C29	C	1.519926	-0.529559	0.150017
C30	C	1.489881	-0.647911	0.180058
C31	C	1.450291	-0.470404	0.219612
C32	C	1.350600	-0.529590	0.319236
C33	C	1.320560	-0.647930	0.349271
C34	C	1.390198	-0.707096	0.279685
C35	C	1.480336	-0.352052	0.189571
C36	C	1.311010	-0.352083	0.358791
C37	C	1.280962	-0.470423	0.388822
C38	C	1.714641	0.000024	0.177653
C39	C	1.854087	0.000032	0.181345
C40	C	1.492264	0.000021	-0.044717
C41	C	1.488568	0.000027	-0.184162
N42	N	1.559523	0.292935	0.110466
C43	C	1.429549	-0.204958	-0.394166
C44	C	1.405242	-0.307446	-0.302639
C45	C	1.408710	-0.307446	-0.171620
C46	C	1.436485	-0.204947	-0.132127
C47	C	1.460792	-0.102460	-0.223654
C48	C	1.457325	-0.102471	-0.354673
C49	C	1.512875	0.102515	-0.275688
C50	C	1.509416	0.102518	-0.406709
C51	C	1.540650	0.205013	-0.236196
C52	C	1.564967	0.307503	-0.327724
C53	C	1.561498	0.307499	-0.458750
C54	C	1.533723	0.205005	-0.498236
C55	C	1.477944	0.000019	0.414355
C56	C	1.481641	0.000019	0.553798
H57	H	1.050673	0.000022	0.623877
H58	H	1.770423	-0.481355	-0.100304
H59	H	0.919543	0.000032	-0.254254
Cl60	Cl	1.370313	-0.436294	-0.352292
H61	H	1.194870	0.000021	0.419690
Cl62	Cl	0.717316	0.000040	-0.051583
Cl63	Cl	1.308768	0.000001	-0.035910
Cl64	Cl	1.352416	-0.855873	0.317436
H65	H	1.157242	0.000010	-0.247934
Cl66	Cl	1.544982	0.205013	-0.071481
H67	H	1.426736	-0.204968	-0.500847
Cl68	Cl	1.440804	-0.204951	0.032589
H69	H	1.530902	0.204992	-0.604916
H70	H	0.719470	0.000039	0.407089
H71	H	1.561505	-0.303874	0.108458
H72	H	1.644087	-0.374016	0.025937
H73	H	1.715903	-0.696061	-0.045804
H74	H	0.812971	0.000051	0.617561
Cl75	Cl	1.195249	-0.722336	0.474526
Cl76	Cl	1.155640	-0.544840	0.514061
Cl77	Cl	1.223465	-0.277710	0.446280
H78	H	1.388895	-0.390900	-0.097094
H79	H	1.587570	0.390949	-0.295555
H80	H	1.581282	0.390957	-0.533265
