data_functionalizedCrystal
_audit_creation_method	'MofGen! by Chris Wilmer'
_symmetry_space_group_name_H-M	'P1'
_symmetry_Int_Tables_number	1
_symmetry_cell_setting	triclinic
loop_
_symmetry_equiv_pos_as_xyz
  x,y,z
_cell_length_a	10.723024
_cell_length_b	27.732048
_cell_length_c	9.798715
_cell_angle_alpha	89.991917
_cell_angle_beta	89.996609
_cell_angle_gamma	83.555262
loop_
_atom_site_label
_atom_site_type_symbol
_atom_site_fract_x
_atom_site_fract_y
_atom_site_fract_z
O1	O	1.654382	0.067789	-0.113499
O2	O	1.290961	0.074278	-0.113505
O3	O	1.483959	0.000707	-0.113476
O4	O	1.461384	0.141360	-0.113528
O5	O	1.483944	0.000707	0.113507
O6	O	1.290947	0.074278	0.113477
O7	O	1.654368	0.067789	0.113483
Zn8	Zn	1.472655	0.071033	0.149519
Zn9	Zn	1.472674	0.071033	-0.149540
O10	O	1.461370	0.141360	0.113454
C11	C	1.244474	0.073806	-0.000014
C12	C	1.105978	0.072393	-0.000016
C13	C	1.029292	0.113559	-0.000032
C14	C	0.886149	0.112100	-0.000033
C15	C	1.483478	-0.017303	0.000019
C16	C	1.482051	-0.070967	0.000030
C17	C	1.587117	-0.409130	-0.000038
C18	C	1.581823	-0.610822	-0.000057
O19	O	1.677898	-0.641481	-0.000115
N20	N	1.467383	-0.630656	-0.000058
C21	C	1.354259	-0.600064	-0.000063
O22	O	1.256800	-0.621562	-0.000078
C23	C	1.359554	-0.398373	-0.000053
C24	C	1.474001	-0.378541	-0.000039
C25	C	1.701554	-0.389298	-0.000025
C26	C	1.702877	-0.338877	-0.000013
C27	C	1.589761	-0.308289	-0.000013
C28	C	1.475324	-0.328121	-0.000026
C29	C	1.246432	-0.367781	-0.000068
C30	C	1.247766	-0.317356	-0.000069
C31	C	1.362213	-0.297524	-0.000054
C32	C	1.363531	-0.247113	-0.000015
N33	N	1.477970	-0.227278	-0.000014
C34	C	1.591085	-0.257867	-0.000014
C35	C	1.351487	-0.705956	-0.000065
C36	C	1.350163	-0.756378	-0.000065
C37	C	1.577727	-0.767133	-0.000062
C38	C	1.579050	-0.716709	-0.000052
C39	C	1.465926	-0.686121	-0.000064
C40	C	1.593854	-0.151980	0.000013
C41	C	1.595166	-0.101555	0.000031
C42	C	1.367603	-0.090805	0.000021
C43	C	1.366290	-0.141226	0.000010
C44	C	1.479425	-0.171813	0.000002
O45	O	1.267507	-0.216425	0.000028
O46	O	1.688531	-0.236359	-0.000029
C47	C	1.585794	-0.459550	-0.000050
C48	C	1.471357	-0.479382	-0.000063
C49	C	1.358241	-0.448793	-0.000064
C50	C	1.470033	-0.529804	-0.000063
C51	C	1.583148	-0.560392	-0.000062
C52	C	1.697587	-0.540558	-0.000062
C53	C	1.698910	-0.490138	-0.000049
C54	C	1.243802	-0.468628	-0.000065
C55	C	1.242489	-0.519048	-0.000075
C56	C	1.355604	-0.549637	-0.000074
C57	C	1.700855	0.068261	-0.000010
C58	C	1.839351	0.069674	-0.000018
C59	C	1.461851	0.159370	-0.000044
C60	C	1.463278	0.213034	-0.000064
N61	N	1.472651	0.071033	0.353618
N62	N	1.472687	0.071030	-0.353640
C63	C	1.553691	0.040006	0.421408
C64	C	1.553711	0.040005	0.578570
H65	H	1.065659	0.036068	-0.000037
O66	O	1.718617	-0.080170	0.000034
H67	H	1.724675	-0.057466	0.092558
H68	H	1.792104	-0.473996	-0.000038
H69	H	1.669830	-0.792046	-0.000060
O70	O	1.245605	-0.057807	0.000027
H71	H	1.190795	-0.064900	-0.092488
H72	H	0.905234	0.034430	-0.000013
O73	O	1.380780	0.106229	0.430840
H74	H	1.283524	0.099849	0.403530
O75	O	1.082683	0.161678	-0.000035
H76	H	1.050235	0.182530	-0.092550
O77	O	0.798884	0.158786	-0.000039
H78	H	0.700148	0.150314	-0.000024
H79	H	1.623098	0.013443	0.636866
H80	H	1.403306	0.097596	0.588073
H81	H	1.273098	-0.157373	0.000036
H82	H	1.685980	-0.176879	0.000001
O83	O	1.826315	-0.317490	-0.000037
H84	H	1.904738	-0.347237	-0.000060
H85	H	1.793672	-0.414198	-0.000029
O86	O	1.702486	-0.695320	-0.000062
H87	H	1.780913	-0.725065	-0.000072
O88	O	1.226725	-0.777767	-0.000062
H89	H	1.148298	-0.748021	-0.000075
O90	O	1.229463	-0.672970	-0.000048
H91	H	1.174642	-0.680069	-0.092550
O92	O	1.122992	-0.389164	-0.000088
H93	H	1.044571	-0.359416	-0.000106
H94	H	1.623054	0.013442	0.363096
H95	H	1.155645	-0.292453	-0.000081
O96	O	1.819595	-0.573554	-0.000060
H97	H	1.799434	-0.611946	-0.000079
H98	H	1.149285	-0.535190	-0.000075
H99	H	1.151687	-0.443727	-0.000068
