data_functionalizedCrystal
_audit_creation_method	'MofGen! by Chris Wilmer'
_symmetry_space_group_name_H-M	'P1'
_symmetry_Int_Tables_number	1
_symmetry_cell_setting	triclinic
loop_
_symmetry_equiv_pos_as_xyz
  x,y,z
_cell_length_a	16.974800
_cell_length_b	10.654550
_cell_length_c	16.053802
_cell_angle_alpha	92.591674
_cell_angle_beta	91.074188
_cell_angle_gamma	83.936244
loop_
_atom_site_label
_atom_site_type_symbol
_atom_site_fract_x
_atom_site_fract_y
_atom_site_fract_z
O1	O	1.049952	0.160086	0.001543
O2	O	0.820596	0.179310	-0.013962
O3	O	0.940547	-0.013097	-0.005850
O4	O	0.930001	0.352493	-0.006569
O5	O	0.933944	-0.002550	0.132562
O6	O	0.813993	0.189857	0.124451
O7	O	1.043349	0.170633	0.139955
Zn8	Zn	0.927623	0.181920	0.154179
Zn9	Zn	0.936322	0.168024	-0.028186
O10	O	0.923398	0.363040	0.131843
C11	C	0.787926	0.183659	0.053259
C12	C	0.700418	0.180890	0.047344
C13	C	0.655713	0.185335	0.120015
C14	C	0.573491	0.182714	0.114459
C15	C	0.535976	0.175656	0.036231
C16	C	0.580689	0.171206	-0.036446
C17	C	0.662909	0.173819	-0.030889
C18	C	0.290460	0.167216	0.011522
C19	C	0.208233	0.164607	0.005971
C20	C	0.201041	0.176112	0.156876
C21	C	0.283263	0.178732	0.162426
C22	C	0.327969	0.174276	0.089749
N23	N	0.451933	0.172979	0.030550
N24	N	0.412012	0.176943	0.095431
C25	C	0.936471	-0.054613	0.063303
C26	C	0.934155	-0.194032	0.063143
C27	C	1.004780	-0.274262	0.067920
C28	C	1.002599	-0.405260	0.067767
C29	C	0.859160	-0.375785	0.058063
C30	C	0.861343	-0.244790	0.058210
C31	C	1.077592	-0.223504	0.072853
C32	C	1.148224	-0.303736	0.077631
C33	C	1.146042	-0.434734	0.077478
C34	C	1.073229	-0.485501	0.072546
C35	C	1.076019	0.166283	0.072732
C36	C	1.163527	0.169052	0.078642
C37	C	0.927474	0.404556	0.062688
C38	C	0.929791	0.543975	0.062843
N39	N	0.921692	0.191402	0.278638
N40	N	0.942260	0.158531	-0.152644
C41	C	0.972750	0.109562	0.325785
C42	C	0.968608	0.116208	0.412911
C43	C	0.913412	0.204700	0.452890
C44	C	0.862348	0.286544	0.405737
C45	C	0.866486	0.279891	0.318611
C46	C	0.895334	0.233722	0.713077
C47	C	0.891201	0.240371	0.800209
C48	C	0.997462	0.070032	0.807377
C49	C	1.001598	0.063393	0.720250
C50	C	0.950532	0.145232	0.673105
N51	N	0.909179	0.211497	0.541947
N52	N	0.954761	0.138428	0.584048
H53	H	0.164634	0.179738	0.216046
H54	H	1.046544	-0.008664	0.687702
H55	H	1.039037	0.003401	0.845771
H56	H	0.686250	0.191093	0.183717
C57	C	0.719340	-0.228802	0.048609
C58	C	0.783711	-0.156591	0.052961
H59	H	0.671413	-0.174348	0.045370
H60	H	0.723775	-0.284183	0.000490
H61	H	0.719170	-0.276832	0.097026
H62	H	0.783884	-0.108568	0.004541
H63	H	0.779274	-0.101187	0.101085
H64	H	1.010184	0.049566	0.451298
H65	H	0.537097	0.186312	0.173636
C66	C	0.267893	0.189833	0.311032
C67	C	0.324497	0.186487	0.248417
H68	H	0.293352	0.194618	0.364119
H69	H	0.230362	0.261736	0.305345
H70	H	0.241588	0.115400	0.306104
H71	H	0.350799	0.260925	0.253342
H72	H	0.362043	0.114577	0.254107
C73	C	0.085385	0.155502	-0.069548
C74	C	0.166994	0.156843	-0.080023
H75	H	0.059927	0.150718	-0.122635
H76	H	0.076050	0.084277	-0.039078
H77	H	0.064831	0.230614	-0.039839
H78	H	0.187549	0.081726	-0.109727
H79	H	0.176335	0.228074	-0.110507
C80	C	0.289297	0.155585	-0.138197
C81	C	0.339592	0.162324	-0.068364
H82	H	0.319634	0.152571	-0.187516
H83	H	0.262691	0.081646	-0.136840
H84	H	0.251466	0.227982	-0.137599
H85	H	0.377421	0.089922	-0.068958
H86	H	0.366212	0.236271	-0.069721
C87	C	1.289787	-0.346030	0.087194
C88	C	1.228257	-0.247940	0.083042
H89	H	1.339197	-0.311584	0.090528
H90	H	1.283653	-0.392833	0.135199
H91	H	1.288247	-0.400186	0.038663
H92	H	1.229794	-0.193790	0.131576
H93	H	1.234394	-0.201116	0.035032
C94	C	1.206390	-0.648629	0.081542
C95	C	1.223677	-0.522928	0.082720
H96	H	1.254321	-0.703072	0.084775
H97	H	1.174268	-0.660366	0.127789
H98	H	1.178868	-0.667700	0.031253
H99	H	1.251194	-0.503854	0.133012
H100	H	1.255812	-0.511185	0.036469
H101	H	1.071459	-0.592170	0.072413
H102	H	1.079377	-0.116840	0.072981
H103	H	1.017700	0.037508	0.293240
C104	C	0.786557	0.408051	0.784375
C105	C	0.830513	0.337631	0.844154
H106	H	0.749089	0.468083	0.811507
H107	H	0.821213	0.450787	0.752618
H108	H	0.759548	0.353038	0.748466
H109	H	0.857527	0.392644	0.880060
H110	H	0.795852	0.294893	0.875925
C111	C	0.883819	0.397095	0.614009
C112	C	0.839213	0.323700	0.661266
H113	H	0.849170	0.452645	0.582019
H114	H	0.915256	0.444986	0.650222
H115	H	0.917273	0.343427	0.577727
H116	H	0.805762	0.377368	0.697552
H117	H	0.807762	0.275806	0.625049
H118	H	0.550138	0.165451	-0.100141
H119	H	0.817401	0.358592	0.438292
H120	H	0.699308	0.170202	-0.090066
H121	H	0.799879	-0.417130	0.054049
H122	H	0.824908	0.346533	0.280225
