data_functionalizedCrystal
_audit_creation_method	'MofGen! by Chris Wilmer'
_symmetry_space_group_name_H-M	'P1'
_symmetry_Int_Tables_number	1
_symmetry_cell_setting	triclinic
loop_
_symmetry_equiv_pos_as_xyz
  x,y,z
_cell_length_a	12.759395
_cell_length_b	12.759394
_cell_length_c	14.908694
_cell_angle_alpha	93.271327
_cell_angle_beta	86.686657
_cell_angle_gamma	90.013701
loop_
_atom_site_label
_atom_site_type_symbol
_atom_site_fract_x
_atom_site_fract_y
_atom_site_fract_z
Zn1	Zn	1.640509	-0.452525	-0.510034
Zn2	Zn	1.630277	-0.618095	-0.359186
Zn3	Zn	1.454683	-0.442431	-0.359200
Zn4	Zn	1.464800	-0.628160	-0.510005
O5	O	1.547567	-0.535303	-0.434606
O6	O	1.786173	-0.474501	-0.490030
O7	O	1.598468	-0.586356	-0.232945
O8	O	1.479381	-0.296750	-0.379227
O9	O	1.778656	-0.596144	-0.379202
O10	O	1.615907	-0.304166	-0.490045
O11	O	1.469460	-0.457296	-0.232956
O12	O	1.309004	-0.467056	-0.379199
O13	O	1.496624	-0.613299	-0.636252
O14	O	1.316437	-0.603511	-0.489994
O15	O	1.625717	-0.484261	-0.636273
O16	O	1.608278	-0.766450	-0.379174
O17	O	1.486703	-0.773845	-0.489980
C18	C	1.274599	-0.535281	-0.434595
C19	C	1.157823	-0.535299	-0.434612
C20	C	1.165644	-0.408862	-0.550204
C21	C	1.114695	-0.345656	-0.608007
C22	C	1.004974	-0.345676	-0.608018
C23	C	0.946200	-0.408905	-0.550218
C24	C	0.997150	-0.472110	-0.492415
C25	C	1.106873	-0.472086	-0.492412
C26	C	0.989328	-0.598540	-0.376820
C27	C	1.099049	-0.598528	-0.376812
C28	C	0.930554	-0.661770	-0.319020
C29	C	0.981504	-0.724982	-0.261220
C30	C	1.091232	-0.724961	-0.261212
C31	C	1.149999	-0.661733	-0.319009
C32	C	1.547508	-0.808269	-0.434591
C33	C	1.547581	-0.925048	-0.434615
C34	C	1.689650	-0.932618	-0.550096
C35	C	1.760718	-0.991264	-0.607843
C36	C	1.760782	-1.100987	-0.607862
C37	C	1.689768	-1.152066	-0.550130
C38	C	1.618699	-1.093420	-0.492383
C39	C	1.618645	-0.983694	-0.492368
C40	C	1.476627	-1.085850	-0.376909
C41	C	1.476566	-0.976126	-0.376883
C42	C	1.405613	-1.136928	-0.319177
C43	C	1.334548	-1.078282	-0.261424
C44	C	1.334488	-0.968552	-0.261406
C45	C	1.405498	-0.917480	-0.319136
C46	C	1.821601	-0.535325	-0.434618
C47	C	1.938378	-0.535335	-0.434623
C48	C	1.563441	-0.551029	-0.669911
C49	C	1.570205	-0.557730	-0.770184
C50	C	1.547657	-0.261272	-0.434641
C51	C	1.547695	-0.144496	-0.434656
C52	C	1.448555	-0.435936	-0.958620
C53	C	1.454907	-0.442229	-1.052836
C54	C	1.589255	-0.576614	-1.052832
C55	C	1.582903	-0.570321	-0.958616
C56	C	1.512552	-0.499979	-0.911514
C57	C	1.506206	-0.493681	-0.817297
C58	C	1.640548	-0.628071	-0.817295
C59	C	1.646899	-0.634364	-0.911510
C60	C	1.531816	-0.519562	-0.200217
C61	C	1.525255	-0.512565	-0.099945
H62	H	0.856859	-0.408906	-0.550225
H63	H	1.818535	-0.949667	-0.654849
H64	H	1.391281	-0.378651	-0.920269
H65	H	1.818641	-1.148738	-0.654894
O66	O	1.702829	-0.690328	-0.771675
C67	C	1.766264	-0.753777	-0.833456
H68	H	1.774432	-0.715234	-0.900623
H69	H	1.728449	-0.834240	-0.843459
C70	C	1.865570	-0.813794	-0.714203
C71	C	1.875610	-0.766451	-0.796696
H72	H	1.933019	-0.821617	-0.691527
H73	H	1.822831	-0.771051	-0.672579
H74	H	1.834054	-0.880842	-0.722550
H75	H	1.907114	-0.699399	-0.788346
H76	H	1.918357	-0.809184	-0.838318
O77	O	1.657470	-0.645096	-1.098548
C78	C	1.632938	-0.748261	-1.075487
H79	H	1.547259	-0.751824	-1.049576
H80	H	1.685573	-0.772069	-1.020800
C81	C	1.756010	-0.819603	-1.190993
C82	C	1.650775	-0.823981	-1.159176
H83	H	1.767017	-0.866313	-1.242614
H84	H	1.772541	-0.750099	-1.206528
H85	H	1.799860	-0.839441	-1.145412
H86	H	1.606928	-0.804131	-1.204752
H87	H	1.634237	-0.893484	-1.143650
H88	H	1.162561	-0.294174	-0.655064
H89	H	1.405460	-0.828138	-0.319124
O90	O	0.955644	-0.284254	-0.664253
C91	C	1.031039	-0.228419	-0.715248
H92	H	1.109461	-0.271640	-0.718301
H93	H	1.040480	-0.146359	-0.682336
C94	C	0.898387	-0.166810	-0.807539
C95	C	0.994705	-0.219899	-0.811295
H96	H	0.875974	-0.161549	-0.866784
H97	H	0.847591	-0.204423	-0.773181
H98	H	0.906268	-0.098432	-0.780108
H99	H	0.986820	-0.288279	-0.838714
H100	H	1.045499	-0.182297	-0.845660
H101	H	1.405666	-1.226271	-0.319200
H102	H	1.276729	-1.119879	-0.214428
H103	H	1.239340	-0.661705	-0.319003
O104	O	1.392589	-0.380061	-1.098494
C105	C	1.286319	-0.401502	-1.075477
H106	H	1.279522	-0.437323	-1.007068
H107	H	1.254492	-0.459056	-1.128496
C108	C	1.230759	-0.254793	-1.155147
C109	C	1.222410	-0.298780	-1.071121
H110	H	1.191335	-0.191431	-1.152464
H111	H	1.302355	-0.240349	-1.170657
H112	H	1.204238	-0.302765	-1.199320
H113	H	1.248943	-0.250814	-1.026952
H114	H	1.150817	-0.313214	-1.055604
H115	H	1.689817	-1.241409	-0.550159
O116	O	1.715349	-0.702542	-0.957310
C117	C	1.786876	-0.646370	-1.011839
H118	H	1.791472	-0.561726	-0.983456
H119	H	1.759204	-0.647522	-1.083240
C120	C	1.890538	-0.801753	-1.048152
C121	C	1.896189	-0.697794	-1.013288
H122	H	1.957966	-0.833476	-1.049050
H123	H	1.842347	-0.839599	-1.011418
H124	H	1.867473	-0.802699	-1.107650
H125	H	1.919240	-0.696851	-0.953787
H126	H	1.944386	-0.659949	-1.050012
H127	H	1.689614	-0.843276	-0.550077
H128	H	1.448926	-0.436400	-0.778947
O129	O	0.924531	-0.786545	-0.205124
C130	C	0.952629	-0.892601	-0.224695
H131	H	1.034638	-0.897155	-0.259366
H132	H	0.894002	-0.931175	-0.271027
C133	C	0.851010	-0.944599	-0.094068
C134	C	0.951739	-0.950192	-0.136645
H135	H	0.850457	-0.980126	-0.039756
H136	H	0.832077	-0.873148	-0.080884
H137	H	0.802166	-0.976743	-0.132687
H138	H	1.000579	-0.918037	-0.098030
H139	H	0.970681	-1.021640	-0.149821
O140	O	1.265408	-0.911743	-0.205227
C141	C	1.202729	-0.980361	-0.154301
H142	H	1.245601	-1.058335	-0.151218
H143	H	1.125145	-0.994286	-0.187294
C144	C	1.128497	-0.835407	-0.062056
C145	C	1.181157	-0.931173	-0.058263
H146	H	1.115185	-0.805064	-0.002817
H147	H	1.170721	-0.789176	-0.096368
H148	H	1.063849	-0.847024	-0.089554
H149	H	1.245809	-0.919553	-0.030776
H150	H	1.138942	-0.977400	-0.023944
H151	H	0.841214	-0.661778	-0.319031
O152	O	1.272233	-0.408691	-0.550286
C153	C	1.313184	-0.339359	-0.613713
H154	H	1.250822	-0.278858	-0.626445
H155	H	1.337084	-0.385537	-0.679428
C156	C	1.486467	-0.357279	-0.561391
C157	C	1.409875	-0.282965	-0.577023
H158	H	1.546113	-0.322495	-0.538762
H159	H	1.458879	-0.403992	-0.518661
H160	H	1.506371	-0.395755	-0.616157
H161	H	1.389962	-0.244499	-0.522255
H162	H	1.437462	-0.236243	-0.619743
H163	H	1.132708	-0.776427	-0.214138
