data_functionalizedCrystal
_audit_creation_method	'MofGen! by Chris Wilmer'
_symmetry_space_group_name_H-M	'P1'
_symmetry_Int_Tables_number	1
_symmetry_cell_setting	triclinic
loop_
_symmetry_equiv_pos_as_xyz
  x,y,z
_cell_length_a	19.121063
_cell_length_b	19.121246
_cell_length_c	19.121175
_cell_angle_alpha	95.001691
_cell_angle_beta	94.951770
_cell_angle_gamma	84.997708
loop_
_atom_site_label
_atom_site_type_symbol
_atom_site_fract_x
_atom_site_fract_y
_atom_site_fract_z
Zn1	Zn	-0.252942	-1.082297	-0.454168
Zn2	Zn	-0.365987	-1.072567	-0.341119
Zn3	Zn	-0.252950	-0.959617	-0.331488
Zn4	Zn	-0.375577	-0.959570	-0.454106
O5	O	-0.311864	-1.018513	-0.395220
O6	O	-0.263920	-1.179638	-0.443229
O7	O	-0.346982	-1.053531	-0.241214
O8	O	-0.154319	-0.979983	-0.343757
O9	O	-0.346974	-1.172489	-0.360172
O10	O	-0.154313	-1.070115	-0.433890
O11	O	-0.263934	-0.970548	-0.234138
O12	O	-0.273233	-0.860980	-0.343697
O13	O	-0.363319	-0.979902	-0.552742
O14	O	-0.363327	-0.860945	-0.433783
O15	O	-0.273219	-1.070069	-0.552788
O16	O	-0.465889	-1.053485	-0.360111
O17	O	-0.472934	-0.970467	-0.443122
C18	C	-0.319322	-0.835388	-0.387689
C19	C	-0.322530	-0.757047	-0.384484
C20	C	-0.280870	-0.723964	-0.426293
C21	C	-0.283881	-0.650354	-0.423276
C22	C	-0.328556	-0.609827	-0.378452
C23	C	-0.370218	-0.642915	-0.336638
C24	C	-0.367203	-0.716524	-0.339652
C25	C	-0.339816	-0.387390	-0.367181
C26	C	-0.342830	-0.313776	-0.364172
C27	C	-0.256492	-0.321220	-0.450809
C28	C	-0.253484	-0.394830	-0.453822
C29	C	-0.295143	-0.427911	-0.412005
C30	C	-0.331637	-0.534586	-0.375369
C31	C	-0.292058	-0.503151	-0.415086
C32	C	-0.494985	-1.010935	-0.402671
C33	C	-0.573323	-1.007759	-0.405885
C34	C	-0.606435	-1.049526	-0.364214
C35	C	-0.680043	-1.046543	-0.367241
C36	C	-0.720537	-1.001788	-0.411935
C37	C	-0.687420	-0.960019	-0.453610
C38	C	-0.613814	-0.963006	-0.450587
C39	C	-0.942964	-0.990608	-0.423228
C40	C	-1.016575	-0.987623	-0.426247
C41	C	-1.009193	-1.074148	-0.339878
C42	C	-0.935586	-1.077128	-0.336855
C43	C	-0.902475	-1.035361	-0.378533
C44	C	-0.795775	-0.998737	-0.415028
C45	C	-0.827238	-1.038417	-0.375443
C46	C	-0.128027	-1.026140	-0.387757
C47	C	-0.049687	-1.029390	-0.384576
C48	C	-0.319338	-1.026066	-0.579053
C49	C	-0.322523	-1.029284	-0.657391
C50	C	-0.304373	-0.202352	-0.402776
C51	C	-0.301170	-0.280693	-0.405981
C52	C	-0.280781	-0.987594	-0.690510
C53	C	-0.283780	-0.990615	-0.764118
C54	C	-0.328517	-1.035331	-0.804605
C55	C	-0.370263	-1.077024	-0.771481
C56	C	-0.367268	-1.073998	-0.697874
C57	C	-0.339728	-1.046625	-1.027032
C58	C	-0.342718	-1.049648	-1.100643
C59	C	-0.256236	-0.963238	-1.093275
C60	C	-0.253241	-0.960220	-1.019668
C61	C	-0.294990	-1.001909	-0.986550
C62	C	-0.331581	-1.038422	-0.879843
C63	C	-0.291929	-0.998814	-0.911313
C64	C	-0.304366	-1.011032	-0.212103
C65	C	-0.300977	-1.007958	-0.133762
H66	H	-0.379213	-0.280781	-0.327671
H67	H	-0.244348	-0.951185	-0.657551
O68	O	-0.248458	-0.955316	-0.872093
C69	C	-0.162961	-0.869962	-0.872543
C70	C	-0.212174	-0.919178	-0.917052
H71	H	-0.133600	-0.840742	-0.908874
H72	H	-0.195388	-0.830304	-0.837897
H73	H	-0.123421	-0.902448	-0.837899
H74	H	-0.251722	-0.886750	-0.951737
H75	H	-0.179700	-0.958838	-0.951652
H76	H	-0.368007	-1.074830	-0.912816
H77	H	-0.249792	-0.956663	-0.791080
H78	H	-0.406590	-0.609912	-0.300138
O79	O	-0.581534	-0.922502	-0.491040
C80	C	-0.471409	-0.888728	-0.524630
C81	C	-0.507874	-0.934647	-0.478788
H82	H	-0.411849	-0.898520	-0.514730
H83	H	-0.487603	-0.902813	-0.582585
H84	H	-0.487787	-0.830810	-0.510478
H85	H	-0.491514	-0.992578	-0.492878
H86	H	-0.491679	-0.920502	-0.420845
O87	O	-0.407892	-1.114392	-0.665666
C88	C	-0.499252	-1.116503	-0.586778
C89	C	-0.453299	-1.070676	-0.623221
H90	H	-0.535965	-1.081178	-0.552441
H91	H	-0.531793	-1.148969	-0.628326
H92	H	-0.463978	-1.153298	-0.552550
H93	H	-0.488521	-1.033840	-0.657446
H94	H	-0.420752	-1.038258	-0.581637
H95	H	-0.217107	-0.427822	-0.490325
O96	O	-0.567028	-1.093043	-0.320892
C97	C	-0.479620	-1.191229	-0.311987
C98	C	-0.524190	-1.141982	-0.361126
H99	H	-0.444986	-1.230818	-0.344498
H100	H	-0.444974	-1.158822	-0.272374
H101	H	-0.515948	-1.220535	-0.282710
H102	H	-0.487916	-1.112665	-0.390452
H103	H	-0.558844	-1.174426	-0.400695
H104	H	-0.368012	-0.501581	-0.338873
O105	O	-1.041470	-1.114702	-0.299473
C106	C	-1.151592	-1.148433	-0.265833
C107	C	-1.115130	-1.102472	-0.311637
H108	H	-1.211152	-1.138551	-0.275640
H109	H	-1.135302	-1.206367	-0.280009
H110	H	-1.135307	-1.134370	-0.207896
H111	H	-1.131397	-1.116473	-0.369587
H112	H	-1.131421	-1.044550	-0.297402
H113	H	-0.244493	-0.756956	-0.462796
O114	O	-0.380182	-0.419554	-0.326492
C115	C	-0.382253	-0.498380	-0.235132
C116	C	-0.336451	-0.461982	-0.281155
H117	H	-0.346916	-0.532703	-0.198477
H118	H	-0.414689	-0.456802	-0.202530
H119	H	-0.419071	-0.532621	-0.270360
H120	H	-0.299592	-0.427744	-0.245981
H121	H	-0.304063	-0.503597	-0.313763
H122	H	-0.794265	-1.074859	-0.339056
H123	H	-0.249959	-0.623422	-0.457323
H124	H	-0.706999	-1.080554	-0.333307
O125	O	-0.407779	-0.748631	-0.299120
C126	C	-0.525291	-0.764759	-0.270480
C127	C	-0.479425	-0.728367	-0.316443
H128	H	-0.583225	-0.748378	-0.284459
H129	H	-0.515522	-0.824336	-0.280338
H130	H	-0.511073	-0.748467	-0.212572
H131	H	-0.493615	-0.744602	-0.374366
H132	H	-0.489200	-0.668797	-0.306525
O133	O	-0.216125	-0.289004	-0.491458
C134	C	-0.214061	-0.210245	-0.582878
C135	C	-0.259863	-0.246670	-0.536878
H136	H	-0.249405	-0.176021	-0.619621
H137	H	-0.177271	-0.175927	-0.547703
H138	H	-0.181594	-0.251867	-0.615398
H139	H	-0.292373	-0.205097	-0.504350
H140	H	-0.296608	-0.281002	-0.572091
O141	O	-0.248766	-0.542546	-0.458707
C142	C	-0.239909	-0.630005	-0.556869
C143	C	-0.289015	-0.585413	-0.507525
H144	H	-0.272429	-0.664685	-0.596341
H145	H	-0.210663	-0.593754	-0.586294
H146	H	-0.200268	-0.664626	-0.524464
H147	H	-0.328697	-0.550787	-0.539877
H148	H	-0.318210	-0.621704	-0.478097
O149	O	-0.380296	-1.087200	-0.994980
C150	C	-0.466405	-1.173211	-1.010063
C151	C	-0.420490	-1.127303	-1.046455
H152	H	-0.498925	-1.205635	-1.051663
H153	H	-0.431171	-1.210036	-0.975830
H154	H	-0.503149	-1.137903	-0.975744
H155	H	-0.383740	-1.162556	-1.080809
H156	H	-0.455766	-1.090472	-1.080645
H157	H	-0.902617	-1.113570	-0.300461
O158	O	-1.055807	-0.944135	-0.469732
C159	C	-1.055367	-0.858609	-0.555059
C160	C	-1.010852	-0.907835	-0.505859
H161	H	-1.019039	-0.829236	-0.584270
H162	H	-1.089949	-0.891032	-0.594720
H163	H	-1.090074	-0.819076	-0.522566
H164	H	-0.976104	-0.947377	-0.538294
H165	H	-0.976315	-0.875366	-0.466196
O166	O	-0.910778	-0.950136	-0.463786
C167	C	-0.831880	-0.947843	-0.555107
C168	C	-0.868299	-0.993766	-0.509230
H169	H	-0.797516	-0.983098	-0.591849
H170	H	-0.873442	-0.915358	-0.587614
H171	H	-0.797681	-0.911063	-0.519778
H172	H	-0.902495	-1.030586	-0.544506
H173	H	-0.826701	-1.026202	-0.476717
O174	O	-0.835036	-0.955163	-0.458399
C175	C	-0.863963	-0.835723	-0.488479
C176	C	-0.819445	-0.884989	-0.439322
H177	H	-0.851384	-0.778975	-0.473064
H178	H	-0.851253	-0.850918	-0.545241
H179	H	-0.922253	-0.840804	-0.483495
H180	H	-0.761141	-0.879933	-0.444244
H181	H	-0.832214	-0.869780	-0.382580
H182	H	-0.720396	-0.923582	-0.490005
O183	O	-0.209767	-0.916722	-0.980446
C184	C	-0.124266	-0.831373	-0.980908
C185	C	-0.173487	-0.880586	-1.025411
H186	H	-0.094910	-0.802155	-1.017244
H187	H	-0.156688	-0.791713	-0.946258
H188	H	-0.084724	-0.863861	-0.946269
H189	H	-0.213038	-0.848156	-1.060091
H190	H	-0.141020	-0.920247	-1.060016
H191	H	-0.222247	-0.929296	-1.120247
H192	H	-0.406693	-1.113429	-0.804451
H193	H	-0.379149	-1.086065	-1.133606
