data_functionalizedCrystal
_audit_creation_method	'MofGen! by Chris Wilmer'
_symmetry_space_group_name_H-M	'P1'
_symmetry_Int_Tables_number	1
_symmetry_cell_setting	triclinic
loop_
_symmetry_equiv_pos_as_xyz
  x,y,z
_cell_length_a	16.959455
_cell_length_b	16.959453
_cell_length_c	16.959447
_cell_angle_alpha	89.970483
_cell_angle_beta	90.014322
_cell_angle_gamma	89.973564
loop_
_atom_site_label
_atom_site_type_symbol
_atom_site_fract_x
_atom_site_fract_y
_atom_site_fract_z
Zn1	Zn	1.208332	0.314730	0.446913
Zn2	Zn	1.708332	0.814730	0.946913
Zn3	Zn	1.208233	0.446923	0.314736
Zn4	Zn	1.708233	0.946923	0.814736
Zn5	Zn	1.076160	0.314755	0.314751
Zn6	Zn	1.576160	0.814755	0.814751
Zn7	Zn	1.076103	0.446864	0.446875
Zn8	Zn	1.576103	0.946864	0.946875
O9	O	1.142207	0.380818	0.380819
O10	O	1.642207	0.880818	0.880819
O11	O	1.318930	0.332280	0.429390
O12	O	1.818930	0.832280	0.929390
O13	O	1.190696	0.429426	0.204127
O14	O	1.690696	0.929426	0.704127
O15	O	1.093759	0.204141	0.332304
O16	O	1.593759	0.704141	0.832304
O17	O	1.318857	0.429402	0.332280
O18	O	1.818857	0.929402	0.832280
O19	O	1.190865	0.204123	0.429403
O20	O	1.690865	0.704123	0.929403
O21	O	1.093663	0.332323	0.204138
O22	O	1.593663	0.832323	0.704138
O23	O	0.965542	0.332265	0.332267
O24	O	1.465542	0.832265	0.832267
O25	O	1.093662	0.429301	0.557491
O26	O	1.593662	0.929301	1.057491
O27	O	0.965500	0.429325	0.429338
O28	O	1.465500	0.929325	0.929338
O29	O	1.190809	0.332223	0.557519
O30	O	1.690809	0.832223	1.057519
O31	O	1.190640	0.557526	0.332243
O32	O	1.690640	1.057526	0.832243
O33	O	1.093565	0.557482	0.429325
O34	O	1.593565	1.057482	0.929325
C35	C	0.936841	0.380792	0.380801
C36	C	1.436841	0.880792	0.880801
C37	C	0.848984	0.380800	0.380812
C38	C	1.348984	0.880800	0.880812
C39	C	0.477506	0.330238	0.330379
C40	C	0.977506	0.830238	0.830379
C41	C	0.477511	0.431463	0.431303
C42	C	0.977511	0.931463	0.931303
C43	C	0.560057	0.431452	0.431299
C44	C	1.060057	0.931452	0.931299
C45	C	0.601331	0.380834	0.380833
C46	C	1.101331	0.880834	0.880833
C47	C	0.560060	0.330226	0.330371
C48	C	1.060060	0.830226	0.830371
C49	C	0.601335	0.482064	0.481753
C50	C	1.101335	0.982064	0.981753
C51	C	0.683886	0.482055	0.481750
C52	C	1.183886	0.982055	0.981750
C53	C	0.725162	0.431432	0.431287
C54	C	1.225162	0.931432	0.931287
C55	C	0.683885	0.380822	0.380824
C56	C	1.183885	0.880822	0.880824
C57	C	0.725159	0.330204	0.330358
C58	C	1.225159	0.830204	0.830358
C59	C	0.683884	0.279590	0.279899
C60	C	1.183884	0.779590	0.779899
C61	C	0.601335	0.279603	0.279909
C62	C	1.101335	0.779603	0.779909
C63	C	0.807710	0.431418	0.431278
C64	C	1.307710	0.931418	0.931278
C65	C	0.807713	0.330193	0.330350
C66	C	1.307713	0.830193	0.830350
C67	C	1.142107	0.586184	0.380795
C68	C	1.642107	1.086184	0.880795
C69	C	1.142137	0.674041	0.380812
C70	C	1.642137	1.174041	0.880812
C71	C	1.192725	1.045449	0.431492
C72	C	1.692725	1.545449	0.931492
C73	C	1.091690	1.045584	0.330299
C74	C	1.591690	1.545584	0.830299
C75	C	1.091674	0.963039	0.330279
C76	C	1.591674	1.463039	0.830279
C77	C	1.142184	0.921694	0.380866
C78	C	1.642184	1.421694	0.880866
C79	C	1.192709	0.962895	0.431475
C80	C	1.692709	1.462895	0.931475
C81	C	1.041145	0.921831	0.279677
C82	C	1.541145	1.421831	0.779677
C83	C	1.041126	0.839280	0.279655
C84	C	1.541126	1.339280	0.779655
C85	C	1.091640	0.797934	0.330240
C86	C	1.591640	1.297934	0.830240
C87	C	1.142168	0.839140	0.380849
C88	C	1.642168	1.339140	0.880849
C89	C	1.192678	0.797796	0.431437
C90	C	1.692678	1.297796	0.931437
C91	C	1.243210	0.839000	0.482043
C92	C	1.743210	1.339000	0.982043
C93	C	1.243223	0.921549	0.482059
C94	C	1.743223	1.421549	0.982059
C95	C	1.091627	0.715386	0.330224
C96	C	1.591627	1.215386	0.830224
C97	C	1.192662	0.715242	0.431420
C98	C	1.692662	1.215242	0.931420
C99	C	1.348375	0.380845	0.380837
C100	C	1.848375	0.880845	0.880837
C101	C	1.436232	0.380856	0.380845
C102	C	1.936232	0.880856	0.880845
C103	C	1.142240	0.380753	0.586987
C104	C	1.642240	0.880753	1.086987
C105	C	1.142254	0.380725	0.674844
C106	C	1.642254	0.880725	1.174844
C107	C	1.142287	1.174650	0.380866
C108	C	1.642287	1.674650	0.880866
C109	C	1.142215	1.086793	0.380904
C110	C	1.642215	1.586793	0.880904
C111	C	1.142220	0.380826	0.175453
C112	C	1.642220	0.880826	0.675453
C113	C	1.142359	0.380631	0.087596
C114	C	1.642359	0.880631	0.587596
C115	C	1.091768	0.431185	1.046307
C116	C	1.591768	0.931185	1.546307
C117	C	1.192929	0.330097	1.046332
C118	C	1.692929	0.830097	1.546332
C119	C	1.192908	0.330114	0.963786
C120	C	1.692908	0.830114	1.463786
C121	C	1.142317	0.380668	0.922497
C122	C	1.642317	0.880668	1.422497
C123	C	1.091747	0.431205	0.963754
C124	C	1.591747	0.931205	1.463754
C125	C	1.243483	0.279584	0.922523
C126	C	1.743483	0.779584	1.422523
C127	C	1.243464	0.279599	0.839972
C128	C	1.743464	0.779599	1.339972
C129	C	1.192869	0.330149	0.798681
C130	C	1.692869	0.830149	1.298681
C131	C	1.142296	0.380688	0.839943
C132	C	1.642296	0.880688	1.339943
C133	C	1.091705	0.431242	0.798654
C134	C	1.591705	0.931242	1.298654
C135	C	1.041128	0.481777	0.839915
C136	C	1.541128	0.981777	1.339915
C137	C	1.041152	0.481756	0.922463
C138	C	1.541152	0.981756	1.422463
C139	C	1.192845	0.330171	0.716133
C140	C	1.692845	0.830171	1.216133
C141	C	1.091684	0.431262	0.716101
C142	C	1.591684	0.931262	1.216101
H143	H	0.717500	0.238379	0.238806
H144	H	1.217500	0.738379	0.738806
C145	C	1.248477	0.274586	0.670750
C146	C	1.748477	0.774586	1.170750
N147	N	1.290381	0.232716	0.636568
N148	N	1.790381	0.732716	1.136568
H149	H	0.999977	0.522901	0.956065
H150	H	1.499977	1.022901	1.456065
H151	H	1.284647	0.238450	0.806384
H152	H	1.784647	0.738450	1.306384
C153	C	0.555927	0.223936	0.224405
C154	C	1.055927	0.723936	0.724405
N155	N	0.521721	0.182009	0.182599
N156	N	1.021721	0.682009	0.682599
C157	C	0.853108	0.274507	0.274832
C158	C	1.353108	0.774507	0.774832
N159	N	0.887299	0.232565	0.233015
N160	N	1.387299	0.732565	0.733015
H161	H	1.233869	1.079001	0.472692
H162	H	1.733869	1.579001	0.972692
C163	C	0.985681	0.967315	0.223942
C164	C	1.485681	1.467315	0.723942
N165	N	0.943940	1.001577	0.181924
N166	N	1.443940	1.501577	0.681924
H167	H	1.284332	0.805328	0.523236
H168	H	1.784332	1.305328	1.023236
C169	C	1.299120	0.223970	0.967945
C170	C	1.799120	0.723970	1.467945
N171	N	1.341023	0.182074	1.002161
N172	N	1.841023	0.682074	1.502161
H173	H	0.443896	0.289027	0.289299
H174	H	0.943896	0.789027	0.789299
C175	C	0.985533	0.793963	0.223995
C176	C	1.485533	1.293963	0.723995
N177	N	0.943659	0.759829	0.182073
N178	N	1.443659	1.259829	0.682073
H179	H	1.050587	0.472328	1.079905
H180	H	1.550587	0.972328	1.579905
C181	C	1.036047	0.670064	0.274559
C182	C	1.536047	1.170064	0.774559
N183	N	0.994182	0.635929	0.232628
N184	N	1.494182	1.135929	0.732628
H185	H	0.443901	0.472679	0.472386
H186	H	0.943901	0.972679	0.972386
H187	H	0.567724	0.523280	0.522834
H188	H	1.067724	1.023280	1.022834
H189	H	1.050479	0.472423	0.682489
H190	H	1.550479	0.972423	1.182489
C191	C	1.298799	0.966880	0.537725
C192	C	1.798799	1.466880	1.037725
N193	N	1.340656	1.001027	0.579655
N194	N	1.840656	1.501027	1.079655
C195	C	0.985480	0.537385	0.794487
C196	C	1.485480	1.037385	1.294487
N197	N	0.943566	0.579266	0.760266
N198	N	1.443566	1.079266	1.260266
C199	C	1.248571	0.274486	1.091752
C200	C	1.748571	0.774486	1.591752
N201	N	1.290478	0.232593	1.125966
N202	N	1.790478	0.732593	1.625966
C203	C	0.729281	0.537729	0.537258
C204	C	1.229281	1.037729	1.037258
N205	N	0.763474	0.579661	0.579070
N206	N	1.263474	1.079661	1.079070
C207	C	0.853109	0.487091	0.486779
C208	C	1.353109	0.987091	0.986779
N209	N	0.887303	0.529024	0.528588
N210	N	1.387303	1.029024	1.028588
C211	C	1.036194	1.091066	0.274595
C212	C	1.536194	1.591066	0.774595
N213	N	0.994417	1.125327	0.232611
N214	N	1.494417	1.625327	0.732611
H215	H	1.233796	0.681584	0.472612
H216	H	1.733796	1.181584	0.972612
