data_functionalizedCrystal
_audit_creation_method	'MofGen! by Chris Wilmer'
_symmetry_space_group_name_H-M	'P1'
_symmetry_Int_Tables_number	1
_symmetry_cell_setting	triclinic
loop_
_symmetry_equiv_pos_as_xyz
  x,y,z
_cell_length_a	13.897441
_cell_length_b	16.120530
_cell_length_c	13.897448
_cell_angle_alpha	87.113275
_cell_angle_beta	89.969401
_cell_angle_gamma	87.080937
loop_
_atom_site_label
_atom_site_type_symbol
_atom_site_fract_x
_atom_site_fract_y
_atom_site_fract_z
Zn1	Zn	-0.620100	1.274607	-0.458859
Zn2	Zn	-0.370100	1.524607	-0.208859
Zn3	Zn	-0.120100	1.774607	0.041141
Zn4	Zn	0.129900	2.024607	0.291141
Zn5	Zn	-0.458796	1.274515	-0.620175
Zn6	Zn	-0.208796	1.524515	-0.370175
Zn7	Zn	0.041204	1.774515	-0.120175
Zn8	Zn	0.291204	2.024515	0.129825
Zn9	Zn	-0.450646	1.135184	-0.450711
Zn10	Zn	-0.200646	1.385184	-0.200711
Zn11	Zn	0.049354	1.635184	0.049289
Zn12	Zn	0.299354	1.885184	0.299289
Zn13	Zn	-0.611880	1.135168	-0.611923
Zn14	Zn	-0.361880	1.385168	-0.361923
Zn15	Zn	-0.111880	1.635168	-0.111923
Zn16	Zn	0.138120	1.885168	0.138077
O17	O	-0.535356	1.204869	-0.535417
O18	O	-0.285356	1.454869	-0.285417
O19	O	-0.035356	1.704869	-0.035417
O20	O	0.214644	1.954869	0.214583
O21	O	-0.605554	1.391262	-0.487122
O22	O	-0.355554	1.641262	-0.237122
O23	O	-0.105554	1.891262	0.012878
O24	O	0.144446	2.141262	0.262878
O25	O	-0.322732	1.256001	-0.597739
O26	O	-0.072732	1.506001	-0.347739
O27	O	0.177268	1.756001	-0.097739
O28	O	0.427268	2.006001	0.152261
O29	O	-0.473153	1.153724	-0.316813
O30	O	-0.223153	1.403724	-0.066813
O31	O	0.026847	1.653724	0.183187
O32	O	0.276847	1.903724	0.433187
O33	O	-0.487045	1.391194	-0.605640
O34	O	-0.237045	1.641194	-0.355640
O35	O	0.012955	1.891194	-0.105640
O36	O	0.262955	2.141194	0.144360
O37	O	-0.597651	1.256157	-0.322799
O38	O	-0.347651	1.506157	-0.072799
O39	O	-0.097651	1.756157	0.177201
O40	O	0.152349	2.006157	0.427201
O41	O	-0.316743	1.153635	-0.473235
O42	O	-0.066743	1.403635	-0.223235
O43	O	0.183257	1.653635	0.026765
O44	O	0.433257	1.903635	0.276765
O45	O	-0.465182	1.018515	-0.465232
O46	O	-0.215182	1.268515	-0.215232
O47	O	0.034818	1.518515	0.034768
O48	O	0.284818	1.768515	0.284768
O49	O	-0.747954	1.153697	-0.591574
O50	O	-0.497954	1.403697	-0.341574
O51	O	-0.247954	1.653697	-0.091574
O52	O	0.002046	1.903697	0.158426
O53	O	-0.583641	1.018503	-0.583674
O54	O	-0.333641	1.268503	-0.333674
O55	O	-0.083641	1.518503	-0.083674
O56	O	0.166359	1.768503	0.166326
O57	O	-0.753994	1.256142	-0.479119
O58	O	-0.503994	1.506142	-0.229119
O59	O	-0.253994	1.756142	0.020881
O60	O	-0.003994	2.006142	0.270881
O61	O	-0.479074	1.255986	-0.754060
O62	O	-0.229074	1.505986	-0.504060
O63	O	0.020926	1.755986	-0.254060
O64	O	0.270926	2.005986	-0.004060
O65	O	-0.591544	1.153608	-0.747996
O66	O	-0.341544	1.403608	-0.497996
O67	O	-0.091544	1.653608	-0.247996
O68	O	0.158456	1.903608	0.002004
C69	C	-0.522636	0.988259	-0.522674
C70	C	-0.272636	1.238259	-0.272674
C71	C	-0.022636	1.488259	-0.022674
C72	C	0.227364	1.738259	0.227326
C73	C	-0.517217	0.895592	-0.517246
C74	C	-0.267217	1.145592	-0.267246
C75	C	-0.017217	1.395592	-0.017246
C76	C	0.232783	1.645592	0.232754
C77	C	-0.786952	1.204928	-0.535335
C78	C	-0.536952	1.454928	-0.285335
C79	C	-0.286952	1.704928	-0.035335
C80	C	-0.036952	1.954928	0.214665
C81	C	-0.894168	1.204953	-0.535300
C82	C	-0.644168	1.454953	-0.285300
C83	C	-0.394168	1.704953	-0.035300
C84	C	-0.144168	1.954953	0.214700
C85	C	-1.090464	1.204976	-0.535236
C86	C	-0.840464	1.454976	-0.285236
C87	C	-0.590464	1.704976	-0.035236
C88	C	-0.340464	1.954976	0.214764
C89	C	-0.981231	1.204960	-0.535275
C90	C	-0.731231	1.454960	-0.285275
C91	C	-0.481231	1.704960	-0.035275
C92	C	-0.231231	1.954960	0.214725
C93	C	-0.507332	0.725929	-0.507313
C94	C	-0.257332	0.975929	-0.257313
C95	C	-0.007332	1.225929	-0.007313
C96	C	0.242668	1.475929	0.242687
C97	C	-0.563450	0.684648	-0.563592
C98	C	-0.313450	0.934648	-0.313592
C99	C	-0.063450	1.184648	-0.063592
C100	C	0.186550	1.434648	0.186408
C101	C	-0.557950	0.590242	-0.558065
C102	C	-0.307950	0.840242	-0.308065
C103	C	-0.057950	1.090242	-0.058065
C104	C	0.192050	1.340242	0.191935
C105	C	-0.512831	0.820344	-0.512838
C106	C	-0.262831	1.070344	-0.262838
C107	C	-0.012831	1.320344	-0.012838
C108	C	0.237169	1.570344	0.237162
C109	C	-0.284741	1.204858	-0.535432
C110	C	-0.034741	1.454858	-0.285432
C111	C	0.215259	1.704858	-0.035432
C112	C	0.465259	1.954858	0.214568
C113	C	-0.177535	1.204994	-0.535204
C114	C	0.072465	1.454994	-0.285204
C115	C	0.322465	1.704994	-0.035204
C116	C	0.572465	1.954994	0.214796
C117	C	-0.535324	1.204808	-0.786028
C118	C	-0.285324	1.454808	-0.536028
C119	C	-0.035324	1.704808	-0.286028
C120	C	0.214676	1.954808	-0.036028
C121	C	-0.535347	1.204858	-0.893245
C122	C	-0.285347	1.454858	-0.643245
C123	C	-0.035347	1.704858	-0.393245
C124	C	0.214653	1.954858	-0.143245
C125	C	-0.548126	1.422324	-0.548210
C126	C	-0.298126	1.672324	-0.298210
C127	C	-0.048126	1.922324	-0.048210
C128	C	0.201874	2.172324	0.201790
C129	C	-0.553568	1.514991	-0.553662
C130	C	-0.303568	1.764991	-0.303662
C131	C	-0.053568	2.014991	-0.053662
C132	C	0.196432	2.264991	0.196338
C133	C	-0.535413	1.204945	-1.089545
C134	C	-0.285413	1.454945	-0.839545
C135	C	-0.035413	1.704945	-0.589545
C136	C	0.214587	1.954945	-0.339545
C137	C	-0.535379	1.204894	-0.980309
C138	C	-0.285379	1.454894	-0.730309
C139	C	-0.035379	1.704894	-0.480309
C140	C	0.214621	1.954894	-0.230309
C141	C	-0.535410	1.204952	-0.283829
C142	C	-0.285410	1.454952	-0.033829
C143	C	-0.035410	1.704952	0.216171
C144	C	0.214590	1.954952	0.466171
C145	C	-0.535433	1.204988	-0.176617
C146	C	-0.285433	1.454988	0.073383
C147	C	-0.035433	1.704988	0.323383
C148	C	0.214567	1.954988	0.573383
H149	H	-0.615626	0.720207	-0.615924
H150	H	-0.365626	0.970207	-0.365924
H151	H	-0.115626	1.220207	-0.115924
H152	H	0.134374	1.470207	0.134076
H153	H	-0.455161	0.690372	-0.454985
H154	H	-0.205161	0.940372	-0.204985
H155	H	0.044839	1.190372	0.045015
H156	H	0.294839	1.440372	0.295015
