data_functionalizedCrystal
_audit_creation_method	'MofGen! by Chris Wilmer'
_symmetry_space_group_name_H-M	'P1'
_symmetry_Int_Tables_number	1
_symmetry_cell_setting	triclinic
loop_
_symmetry_equiv_pos_as_xyz
  x,y,z
_cell_length_a	16.625546
_cell_length_b	16.625548
_cell_length_c	17.639252
_cell_angle_alpha	101.213308
_cell_angle_beta	101.217541
_cell_angle_gamma	90.023536
loop_
_atom_site_label
_atom_site_type_symbol
_atom_site_fract_x
_atom_site_fract_y
_atom_site_fract_z
Zn1	Zn	-0.228934	1.324768	0.446945
Zn2	Zn	-0.391000	1.297435	0.314755
Zn3	Zn	-0.256184	1.162697	0.314773
Zn4	Zn	-0.363740	1.189890	0.446898
O5	O	-0.309964	1.243698	0.380843
O6	O	-0.250436	1.433977	0.429422
O7	O	-0.395929	1.256742	0.204141
O8	O	-0.139731	1.184255	0.332333
O9	O	-0.369505	1.413896	0.332303
O10	O	-0.119710	1.303327	0.429439
O11	O	-0.296880	1.157751	0.204154
O12	O	-0.270447	1.053470	0.332288
O13	O	-0.323045	1.230602	0.557521
O14	O	-0.349468	1.073448	0.429359
O15	O	-0.224003	1.329695	0.557556
O16	O	-0.500222	1.283111	0.332257
O17	O	-0.480194	1.204098	0.429342
C18	C	-0.309957	1.034202	0.380821
C19	C	-0.309970	0.944583	0.380830
C20	C	-0.519462	1.243615	0.380810
C21	C	-0.609081	1.243658	0.380822
C22	C	-0.937239	1.243816	0.380904
C23	C	-0.845935	1.243770	0.380884
C24	C	-0.773163	1.243736	0.380863
C25	C	-0.681853	1.243692	0.380843
C26	C	-0.309968	0.616414	0.380864
C27	C	-0.309967	0.707720	0.380852
C28	C	-0.309970	0.780496	0.380846
C29	C	-0.309967	0.871808	0.380836
C30	C	-0.099645	1.243807	0.380893
C31	C	-0.010019	1.243853	0.380915
C32	C	-0.267444	1.286231	0.587022
C33	C	-0.249324	1.304356	0.674883
C34	C	-0.309972	1.454011	0.380865
C35	C	-0.309975	1.543634	0.380875
C36	C	-0.447566	1.106033	0.963758
C37	C	-0.430530	1.123081	1.046317
C38	C	-0.327407	1.226259	1.046342
C39	C	-0.344432	1.209217	0.963782
C40	C	-0.404513	1.149103	0.922496
C41	C	-0.301378	1.252287	0.922520
C42	C	-0.318405	1.235249	0.839966
C43	C	-0.378485	1.175140	0.798675
C44	C	-0.421540	1.132065	0.839943
C45	C	-0.241301	1.312404	0.963807
C46	C	-0.198248	1.355474	0.922545
C47	C	-0.215270	1.338432	0.839990
C48	C	-0.275351	1.278324	0.798699
C49	C	-0.172216	1.381507	0.798722
C50	C	-0.189243	1.364469	0.716169
C51	C	-0.292378	1.261285	0.716145
C52	C	-0.352339	1.201320	1.175466
C53	C	-0.370464	1.183184	1.087604
H54	H	-0.341282	1.212316	0.682528
O55	O	-0.479960	1.073767	0.799734
C56	C	-0.608064	1.043662	0.706522
C57	C	-0.541957	1.109752	0.752000
H58	H	-0.658213	1.072734	0.667931
H59	H	-0.579064	0.993553	0.667822
H60	H	-0.635881	1.015776	0.750196
H61	H	-0.514116	1.137702	0.708383
H62	H	-0.571000	1.159811	0.790712
H63	H	-0.465594	1.088004	1.079909
H64	H	-0.392351	1.161272	0.731454
H65	H	-0.496471	1.057064	0.930141
O66	O	-0.269046	1.284599	1.086573
C67	C	-0.197143	1.356614	1.213761
C68	C	-0.263245	1.290511	1.168301
H69	H	-0.192443	1.361428	1.279846
H70	H	-0.135441	1.339145	1.197604
H71	H	-0.214651	1.418254	1.197477
H72	H	-0.245814	1.228847	1.184560
H73	H	-0.324929	1.308051	1.184462
H74	H	-0.227442	1.326276	1.031027
H75	H	-0.154183	1.399540	0.682573
H76	H	-0.123303	1.430457	0.832350
O77	O	-0.139888	1.413815	0.962775
C78	C	-0.067984	1.485830	1.089963
C79	C	-0.134086	1.419727	1.044504
H80	H	-0.063284	1.490643	1.156049
H81	H	-0.006282	1.468360	1.073807
H82	H	-0.085492	1.547470	1.073680
H83	H	-0.116655	1.358062	1.060763
H84	H	-0.195770	1.437266	1.060664
