data_functionalizedCrystal
_audit_creation_method	'MofGen! by Chris Wilmer'
_symmetry_space_group_name_H-M	'P1'
_symmetry_Int_Tables_number	1
_symmetry_cell_setting	triclinic
loop_
_symmetry_equiv_pos_as_xyz
  x,y,z
_cell_length_a	12.759401
_cell_length_b	21.295417
_cell_length_c	12.759393
_cell_angle_alpha	89.961742
_cell_angle_beta	89.982824
_cell_angle_gamma	90.030668
loop_
_atom_site_label
_atom_site_type_symbol
_atom_site_fract_x
_atom_site_fract_y
_atom_site_fract_z
Zn1	Zn	1.606126	-0.250575	-0.593926
Zn2	Zn	1.605976	-0.355857	-0.418223
Zn3	Zn	1.430432	-0.250606	-0.418265
Zn4	Zn	1.430368	-0.355811	-0.593864
O5	O	1.518226	-0.303212	-0.506069
O6	O	1.753127	-0.264547	-0.570626
O7	O	1.582654	-0.341928	-0.271207
O8	O	1.453828	-0.162513	-0.441611
O9	O	1.753017	-0.341898	-0.441538
O10	O	1.582910	-0.162490	-0.570668
O11	O	1.453682	-0.264601	-0.271238
O12	O	1.283403	-0.264555	-0.441551
O13	O	1.453719	-0.341818	-0.740893
O14	O	1.283356	-0.341849	-0.570562
O15	O	1.582848	-0.264502	-0.740939
O16	O	1.582592	-0.443941	-0.441478
O17	O	1.453574	-0.443906	-0.570521
C18	C	1.245258	-0.303201	-0.506055
C19	C	1.128482	-0.303211	-0.506074
C20	C	1.073623	-0.343522	-0.573139
C21	C	0.963899	-0.343530	-0.573151
C22	C	0.963902	-0.262914	-0.439022
C23	C	1.073624	-0.262904	-0.439017
C24	C	1.073620	-0.390067	-0.650574
C25	C	0.963896	-0.390075	-0.650585
C26	C	1.518088	-0.466764	-0.506011
C27	C	1.518125	-0.536732	-0.506021
C28	C	1.585365	-0.569596	-0.438898
C29	C	1.585414	-0.635338	-0.438921
C30	C	1.518205	-0.668215	-0.506058
C31	C	1.450961	-0.635343	-0.573195
C32	C	1.450921	-0.569602	-0.573177
N33	N	1.426298	-0.771480	-0.514062
N34	N	1.426339	-0.833931	-0.514073
C35	C	1.518323	-0.866289	-0.506118
N36	N	1.610267	-0.833836	-0.498130
N37	N	1.610224	-0.771379	-0.498114
C38	C	1.518241	-0.739500	-0.506085
C39	C	1.585621	-0.970438	-0.439016
C40	C	1.585672	-1.036182	-0.439047
C41	C	1.451210	-1.036186	-0.573315
C42	C	1.451168	-0.970443	-0.573289
C43	C	1.518372	-0.937574	-0.506134
C44	C	1.792259	-0.303224	-0.506084
C45	C	1.909036	-0.303230	-0.506091
C46	C	1.518293	-0.303151	-0.780103
C47	C	1.518322	-0.303126	-0.896880
C48	C	1.518393	-0.139022	-0.506151
C49	C	1.518464	-0.069054	-0.506185
C50	C	1.451107	-0.343365	-0.951720
C51	C	1.451145	-0.343342	-1.061444
C52	C	1.585616	-0.262835	-1.061478
C53	C	1.585582	-0.262861	-0.951756
C54	C	1.373468	-0.389844	-0.951701
C55	C	1.373506	-0.389821	-1.061425
C56	C	1.518219	-0.303228	-0.233102
C57	C	1.518394	-0.303076	-0.116326
H58	H	1.118286	-0.230074	-0.384413
N59	N	1.410014	-0.447914	-1.104089
N60	N	1.500411	-0.466850	-1.083513
H61	H	1.526193	-0.507879	-1.113643
N62	N	1.276511	-0.367955	-0.909006
N63	N	1.223289	-0.403007	-0.851110
H64	H	1.154813	-0.387548	-0.820955
N65	N	1.382475	-0.936880	-0.641861
N66	N	1.322474	-0.966238	-0.701804
H67	H	1.273959	-0.942535	-0.750240
N68	N	1.400723	-0.451017	-0.914327
N69	N	1.419962	-0.494095	-0.977975
H70	H	1.439211	-0.537298	-0.951581
N71	N	0.907849	-0.221744	-0.370540
N72	N	0.809883	-0.221755	-0.370559
H73	H	0.770295	-0.192678	-0.322192
H74	H	1.640326	-0.230101	-0.907109
N75	N	1.654096	-0.668924	-0.370357
N76	N	1.721047	-0.705557	-0.407377
H77	H	1.769553	-0.729276	-0.358951
H78	H	1.103432	-0.377066	-0.731984
H79	H	1.292160	-0.376748	-1.091211
H80	H	1.107613	-0.436353	-0.621279
N81	N	0.921232	-0.368249	-0.747619
N82	N	0.863335	-0.403326	-0.800680
H83	H	0.833198	-0.387908	-0.869205
H84	H	0.934078	-0.438816	-0.628642
H85	H	1.396241	-0.662115	-0.627859
N86	N	1.654258	-0.936855	-0.370420
N87	N	1.647352	-0.944248	-0.273470
H88	H	1.695826	-0.920530	-0.225024
H89	H	1.396165	-0.542844	-0.627838
N90	N	1.654017	-0.536031	-0.370297
N91	N	1.714050	-0.565387	-0.310369
H92	H	1.762538	-0.541681	-0.261919
H93	H	1.640433	-1.062939	-0.384389
H94	H	1.640378	-0.230054	-1.106172
N95	N	1.382569	-1.069769	-0.641894
N96	N	1.382615	-1.128466	-0.641906
H97	H	1.334138	-1.152189	-0.690344
