data_functionalizedCrystal
_audit_creation_method	'MofGen! by Chris Wilmer'
_symmetry_space_group_name_H-M	'P1'
_symmetry_Int_Tables_number	1
_symmetry_cell_setting	triclinic
loop_
_symmetry_equiv_pos_as_xyz
  x,y,z
_cell_length_a	12.759401
_cell_length_b	10.685194
_cell_length_c	12.759393
_cell_angle_alpha	85.596290
_cell_angle_beta	89.979927
_cell_angle_gamma	94.376983
loop_
_atom_site_label
_atom_site_type_symbol
_atom_site_fract_x
_atom_site_fract_y
_atom_site_fract_z
Zn1	Zn	1.574234	-0.502339	-0.561976
Zn2	Zn	1.560682	-0.713410	-0.372817
Zn3	Zn	1.398535	-0.502405	-0.386303
Zn4	Zn	1.385081	-0.713311	-0.548457
O5	O	1.479633	-0.607866	-0.467388
O6	O	1.719457	-0.530351	-0.536898
O7	O	1.539132	-0.685488	-0.227581
O8	O	1.433144	-0.325797	-0.420909
O9	O	1.709500	-0.685424	-0.397924
O10	O	1.562229	-0.325748	-0.549975
O11	O	1.420003	-0.530464	-0.237489
O12	O	1.249730	-0.530368	-0.407799
O13	O	1.410214	-0.685256	-0.697276
O14	O	1.239846	-0.685320	-0.526933
O15	O	1.549184	-0.530256	-0.707209
O16	O	1.526086	-0.889995	-0.384814
O17	O	1.397073	-0.889923	-0.513855
C18	C	1.206667	-0.607841	-0.467363
C19	C	1.089889	-0.607861	-0.467375
C20	C	1.458678	-0.935749	-0.446427
C21	C	1.449809	-1.076019	-0.437495
C22	C	0.920116	-0.688507	-0.394963
C23	C	1.029841	-0.688484	-0.394935
C24	C	1.040208	-0.527248	-0.539841
C25	C	0.930484	-0.527266	-0.539863
C26	C	0.914131	-0.781599	-0.311306
C27	C	1.023857	-0.781576	-0.311277
C28	C	1.753665	-0.607891	-0.467415
C29	C	1.870441	-0.607902	-0.467426
C30	C	1.479710	-0.607737	-0.741430
C31	C	1.479742	-0.607683	-0.858210
C32	C	1.500699	-0.278702	-0.488454
C33	C	1.509676	-0.138432	-0.497432
C34	C	1.417741	-0.526946	-0.918239
C35	C	1.417776	-0.526909	-1.027965
C36	C	1.541820	-0.688347	-1.017625
C37	C	1.541780	-0.688390	-0.907900
C38	C	1.346128	-0.433737	-0.924209
C39	C	1.346163	-0.433700	-1.033936
C40	C	1.479623	-0.607903	-0.194419
C41	C	1.479817	-0.607602	-0.077662
H42	H	0.890044	-0.461620	-0.598862
H43	H	0.885987	-0.755317	-0.231657
C44	C	1.393509	-0.308332	-0.886260
N45	N	1.429196	-0.213875	-0.857677
H46	H	1.047409	-0.879340	-0.326686
C47	C	1.371411	-1.148807	-0.358907
N48	N	1.312373	-1.203633	-0.299706
C49	C	1.609907	-0.777289	-1.072284
N50	N	1.661136	-0.844342	-1.113448
C51	C	0.860162	-0.907092	-0.342484
N52	N	0.819512	-1.001616	-0.365965
H53	H	1.060084	-0.746457	-0.236264
H54	H	1.263071	-0.459910	-0.892757
C55	C	1.588096	-1.065649	-0.575990
N56	N	1.647164	-1.010821	-0.635159
H57	H	1.089108	-0.461595	-0.598816
H58	H	1.592250	-0.754152	-0.859028
C59	C	1.384084	-0.301652	-1.082630
N60	N	1.412650	-0.202199	-1.119305
H61	H	1.266636	-0.468685	-1.065724
