data_functionalizedCrystal
_audit_creation_method	'MofGen! by Chris Wilmer'
_symmetry_space_group_name_H-M	'P1'
_symmetry_Int_Tables_number	1
_symmetry_cell_setting	triclinic
loop_
_symmetry_equiv_pos_as_xyz
  x,y,z
_cell_length_a	10.654553
_cell_length_b	10.723023
_cell_length_c	9.130313
_cell_angle_alpha	89.999732
_cell_angle_beta	89.999282
_cell_angle_gamma	84.476863
loop_
_atom_site_label
_atom_site_type_symbol
_atom_site_fract_x
_atom_site_fract_y
_atom_site_fract_z
O1	O	1.667805	0.175288	-0.121812
O2	O	1.302324	0.191983	-0.121811
O3	O	1.493495	0.002060	-0.121806
O4	O	1.476634	0.365210	-0.121818
O5	O	1.493493	0.002065	0.121793
O6	O	1.302322	0.191988	0.121787
O7	O	1.667803	0.175293	0.121786
Cu8	Cu	1.485062	0.183641	0.144029
Cu9	Cu	1.485065	0.183635	-0.144054
O10	O	1.476631	0.365215	0.121781
C11	C	1.255525	0.190759	-0.000012
C12	C	1.116083	0.187089	-0.000011
C13	C	0.919542	0.181911	0.132764
C14	C	1.050562	0.185367	0.132773
C15	C	1.050575	0.185368	-0.132812
C16	C	0.919556	0.181922	-0.132819
C17	C	0.919537	0.181905	0.286098
C18	C	1.050557	0.185360	0.286106
C19	C	1.492267	-0.044437	-0.000008
C20	C	1.488597	-0.182992	-0.000013
C21	C	1.486962	-0.244760	-0.126206
C22	C	1.483168	-0.387964	-0.126214
C23	C	1.714601	0.176517	-0.000016
C24	C	1.854044	0.180187	-0.000026
C25	C	1.477859	0.411713	-0.000020
C26	C	1.481530	0.550267	-0.000025
N27	N	1.485069	0.183644	0.346652
N28	N	1.485068	0.183621	-0.346677
C29	C	1.569742	0.099576	0.423307
C30	C	1.569738	0.099561	0.576643
C31	C	1.400386	0.267694	0.576658
C32	C	1.400384	0.267702	0.423324
C33	C	1.667520	0.002508	0.423299
C34	C	1.667516	0.002493	0.576636
H35	H	0.866230	0.180533	-0.240950
F36	F	0.859016	0.294623	0.363044
H37	H	1.103931	0.186783	-0.240927
H38	H	1.482943	-0.396622	0.108019
F39	F	1.627644	-0.115975	0.638795
H40	H	1.488365	-0.191624	-0.234239
H41	H	1.487180	-0.236126	0.108020
F42	F	0.880885	0.063015	0.348457
F43	F	1.481339	-0.457392	-0.267434
H44	H	1.080107	0.276379	0.333683
F45	F	1.111076	0.072640	0.363054
F46	F	1.639512	-0.122860	0.368896
H47	H	1.331427	0.336147	0.360913
H48	H	1.331437	0.336131	0.639100
H49	H	1.758699	0.032903	0.375740
H50	H	1.764025	0.023876	0.618252
