data_functionalizedCrystal
_audit_creation_method	'MofGen! by Chris Wilmer'
_symmetry_space_group_name_H-M	'P1'
_symmetry_Int_Tables_number	1
_symmetry_cell_setting	triclinic
loop_
_symmetry_equiv_pos_as_xyz
  x,y,z
_cell_length_a	16.625548
_cell_length_b	12.827893
_cell_length_c	12.827885
_cell_angle_alpha	89.974949
_cell_angle_beta	89.978573
_cell_angle_gamma	90.004578
loop_
_atom_site_label
_atom_site_type_symbol
_atom_site_fract_x
_atom_site_fract_y
_atom_site_fract_z
Zn1	Zn	1.232794	-0.415953	-0.590938
Zn2	Zn	1.232739	-0.590730	-0.416213
Zn3	Zn	1.097953	-0.416007	-0.416206
Zn4	Zn	1.097970	-0.590656	-0.590907
O5	O	1.165364	-0.503336	-0.503566
O6	O	1.345619	-0.439146	-0.567776
O7	O	1.214830	-0.567606	-0.269976
O8	O	1.115856	-0.269764	-0.439394
O9	O	1.345579	-0.567554	-0.439406
O10	O	1.214922	-0.269724	-0.567769
O11	O	1.115803	-0.439238	-0.269970
O12	O	0.985123	-0.439166	-0.439364
O13	O	1.115885	-0.567427	-0.737147
O14	O	0.985136	-0.567480	-0.567716
O15	O	1.214939	-0.439073	-0.737170
O16	O	1.214846	-0.736956	-0.439376
O17	O	1.115832	-0.736901	-0.567723
C18	C	0.955873	-0.503321	-0.503536
C19	C	0.866252	-0.503340	-0.503549
C20	C	1.165393	-0.230766	-0.503584
C21	C	1.165405	-0.114613	-0.503593
C22	C	1.165357	-0.774846	-0.503570
C23	C	1.165428	-0.890999	-0.503606
C24	C	0.538077	-0.503347	-0.503593
C25	C	0.629385	-0.503342	-0.503578
C26	C	0.702161	-0.503344	-0.503570
C27	C	0.793476	-0.503338	-0.503556
C28	C	1.375673	-0.503352	-0.503596
C29	C	1.465294	-0.503359	-0.503608
C30	C	1.165420	-0.503236	-0.776136
C31	C	1.165443	-0.503193	-0.892289
C32	C	1.116395	-0.062848	-0.440079
C33	C	1.116406	0.057202	-0.440085
C34	C	1.116457	-0.439660	-0.944071
C35	C	1.116481	-0.439614	-1.064122
C36	C	1.165355	-0.503361	-0.232056
C37	C	1.165488	-0.503109	-0.115903
H38	H	1.074424	-0.107407	-0.385701
C39	C	1.059782	-0.366211	-0.883899
N40	N	1.017095	-0.310883	-0.838579
C41	C	1.059822	-0.366128	-1.124279
N42	N	1.017144	-0.310777	-1.169591
C43	C	1.059718	0.117339	-0.366623
N44	N	1.017017	0.162637	-0.311290
H45	H	1.207393	0.064491	-0.557982
C46	C	1.222056	-0.576723	-0.952461
N47	N	1.264674	-0.632140	-0.997782
C48	C	1.222106	-0.054421	-0.577062
N49	N	1.264815	-0.009086	-0.632400
H50	H	1.207432	-0.557501	-1.071378
