data_functionalizedCrystal
_audit_creation_method	'MofGen! by Chris Wilmer'
_symmetry_space_group_name_H-M	'P1'
_symmetry_Int_Tables_number	1
_symmetry_cell_setting	triclinic
loop_
_symmetry_equiv_pos_as_xyz
  x,y,z
_cell_length_a	29.839134
_cell_length_b	29.839126
_cell_length_c	21.295417
_cell_angle_alpha	89.975617
_cell_angle_beta	90.022447
_cell_angle_gamma	89.968028
loop_
_atom_site_label
_atom_site_type_symbol
_atom_site_fract_x
_atom_site_fract_y
_atom_site_fract_z
Zn1	Zn	0.686790	-0.254152	-0.250779
Zn2	Zn	1.186790	0.245848	0.249221
Zn3	Zn	0.686728	-0.179022	-0.356038
Zn4	Zn	1.186728	0.320978	0.143962
Zn5	Zn	0.611663	-0.179019	-0.250773
Zn6	Zn	1.111663	0.320981	0.249227
Zn7	Zn	0.611636	-0.254107	-0.356001
Zn8	Zn	1.111636	0.245893	0.143999
O9	O	0.649204	-0.216575	-0.303398
O10	O	1.149204	0.283425	0.196602
O11	O	0.749649	-0.244206	-0.264760
O12	O	1.249649	0.255794	0.235240
O13	O	0.676755	-0.116154	-0.342087
O14	O	1.176755	0.383846	0.157913
O15	O	0.621666	-0.189003	-0.162685
O16	O	1.121666	0.310997	0.337315
O17	O	0.749603	-0.189008	-0.342093
O18	O	1.249603	0.310992	0.157907
O19	O	0.676862	-0.244203	-0.162689
O20	O	1.176862	0.255797	0.337311
O21	O	0.621606	-0.116152	-0.264750
O22	O	1.121606	0.383848	0.235250
O23	O	0.548792	-0.188959	-0.264714
O24	O	1.048792	0.311041	0.235286
O25	O	0.621620	-0.316980	-0.342030
O26	O	1.121620	0.183020	0.157970
O27	O	0.548773	-0.244126	-0.342025
O28	O	1.048773	0.255874	0.157975
O29	O	0.676836	-0.317013	-0.264724
O30	O	1.176836	0.182987	0.235276
O31	O	0.676729	-0.188965	-0.444122
O32	O	1.176729	0.311035	0.055878
O33	O	0.621560	-0.244130	-0.444095
O34	O	1.121560	0.255870	0.055905
C35	C	0.532482	-0.216538	-0.303365
C36	C	1.032482	0.283462	0.196635
C37	C	0.482547	-0.216533	-0.303366
C38	C	0.982547	0.283467	0.196634
C39	C	0.125958	-0.187908	-0.263083
C40	C	0.625958	0.312092	0.236917
C41	C	0.313631	-0.187881	-0.263065
C42	C	0.813631	0.312119	0.236935
O43	O	0.337894	-0.163502	-0.228761
O44	O	0.837894	0.336498	0.271239
N45	N	0.337102	-0.216555	-0.303377
N46	N	0.837102	0.283445	0.196623
C47	C	0.313652	-0.245241	-0.343692
C48	C	0.813652	0.254759	0.156308
O49	O	0.337922	-0.269633	-0.377975
O50	O	0.837922	0.230367	0.122025
C51	C	0.125980	-0.245270	-0.343706
C52	C	0.625980	0.254730	0.156294
C53	C	0.102511	-0.216590	-0.303397
C54	C	0.602511	0.283410	0.196603
C55	C	0.102489	-0.159231	-0.222776
C56	C	0.602489	0.340769	0.277224
C57	C	0.055574	-0.159237	-0.222783
C58	C	0.555574	0.340763	0.277217
C59	C	0.032127	-0.187919	-0.263097
C60	C	0.532127	0.312081	0.236903
C61	C	0.055596	-0.216596	-0.303404
C62	C	0.555596	0.283404	0.196596
C63	C	0.102531	-0.273957	-0.384019
C64	C	0.602531	0.226043	0.115981
C65	C	0.055610	-0.273963	-0.384017
C66	C	0.555610	0.226037	0.115983
C67	C	0.032141	-0.245283	-0.343708
C68	C	0.532141	0.254717	0.156292
C69	C	-0.014766	-0.245283	-0.343725
C70	C	0.485234	0.254717	0.156275
N71	N	-0.038238	-0.216609	-0.303414
N72	N	0.461762	0.283391	0.196586
C73	C	-0.014791	-0.187927	-0.263100
C74	C	0.485209	0.312073	0.236900
C75	C	0.412183	-0.245223	-0.343683
C76	C	0.912183	0.254777	0.156317
C77	C	0.459101	-0.245215	-0.343680
C78	C	0.959101	0.254785	0.156320
C79	C	0.459076	-0.187856	-0.263052
C80	C	0.959076	0.312144	0.236948
C81	C	0.412157	-0.187861	-0.263058
C82	C	0.912157	0.312139	0.236942
C83	C	0.388712	-0.216548	-0.303372
C84	C	0.888712	0.283452	0.196628
C85	C	-0.113317	-0.187940	-0.263119
C86	C	0.386683	0.312060	0.236881
C87	C	-0.160236	-0.187947	-0.263131
C88	C	0.339764	0.312053	0.236869
C89	C	-0.160208	-0.245307	-0.343757
C90	C	0.339792	0.254693	0.156243
C91	C	-0.113292	-0.245299	-0.343747
C92	C	0.386708	0.254701	0.156253
C93	C	-0.089848	-0.216614	-0.303423
C94	C	0.410152	0.283386	0.196577
O95	O	-0.039058	-0.269653	-0.378006
O96	O	0.460942	0.230347	0.121994
O97	O	-0.039069	-0.163545	-0.228813
O98	O	0.460931	0.336455	0.271187
C99	C	0.172873	-0.187903	-0.263076
C100	C	0.672873	0.312097	0.236924
C101	C	0.196342	-0.216580	-0.303382
C102	C	0.696342	0.283420	0.196618
C103	C	0.172895	-0.245262	-0.343696
C104	C	0.672895	0.254738	0.156304
C105	C	0.243260	-0.216572	-0.303380
C106	C	0.743260	0.283428	0.196620
C107	C	0.266707	-0.187890	-0.263066
C108	C	0.766707	0.312110	0.236934
C109	C	0.243235	-0.159215	-0.222754
C110	C	0.743235	0.340785	0.277246
C111	C	0.196320	-0.159221	-0.222762
C112	C	0.696320	0.340779	0.277238
C113	C	0.196367	-0.273936	-0.384008
C114	C	0.696367	0.226064	0.115992
C115	C	0.243282	-0.273928	-0.383998
C116	C	0.743282	0.226072	0.116002
C117	C	0.266729	-0.245246	-0.343684
C118	C	0.766729	0.254754	0.156316
C119	C	0.649232	-0.333753	-0.303374
C120	C	1.149232	0.166247	0.196626
C121	C	0.649244	-0.383688	-0.303363
C122	C	1.149244	0.116312	0.196637
C123	C	0.620536	-0.693333	-0.263031
C124	C	1.120536	-0.193333	0.236969
C125	C	0.620549	-0.881006	-0.262987
C126	C	1.120549	-0.381006	0.237013
O127	O	0.596118	-0.905272	-0.228758
O128	O	1.096118	-0.405272	0.271242
N129	N	0.649265	-0.904473	-0.303245
N130	N	1.149265	-0.404473	0.196755
C131	C	0.677978	-0.881019	-0.343520
C132	C	1.177978	-0.381019	0.156480
O133	O	0.702400	-0.905285	-0.377766
O134	O	1.202400	-0.405285	0.122234
C135	C	0.677963	-0.693347	-0.343567
C136	C	1.177963	-0.193347	0.156433
C137	C	0.649248	-0.669882	-0.303301
C138	C	1.149248	-0.169882	0.196699
C139	C	0.591824	-0.669869	-0.222769
C140	C	1.091824	-0.169869	0.277231
C141	C	0.591822	-0.622953	-0.222778
C142	C	1.091822	-0.122953	0.277222
C143	C	0.620534	-0.599502	-0.263049
C144	C	1.120534	-0.099502	0.236951
C145	C	0.649247	-0.622967	-0.303310
C146	C	1.149247	-0.122967	0.196690
C147	C	0.706673	-0.669893	-0.383844
C148	C	1.206673	-0.169893	0.116156
C149	C	0.706666	-0.622972	-0.383854
C150	C	1.206666	-0.122972	0.116146
C151	C	0.677951	-0.599508	-0.343588
C152	C	1.177951	-0.099508	0.156412
C153	C	0.677957	-0.552600	-0.343590
C154	C	1.177957	-0.052600	0.156410
N155	N	0.649241	-0.529133	-0.303331
N156	N	1.149241	-0.029133	0.196669
C157	C	0.620530	-0.552584	-0.263061
C158	C	1.120530	-0.052584	0.236939
C159	C	0.677985	-0.979550	-0.343492
C160	C	1.177985	-0.479550	0.156508
C161	C	0.677989	-1.026468	-0.343480
C162	C	1.177989	-0.526468	0.156520
C163	C	0.620560	-1.026452	-0.262948
C164	C	1.120560	-0.526452	0.237052
C165	C	0.620558	-0.979533	-0.262957
C166	C	1.120558	-0.479533	0.237043
C167	C	0.649269	-0.956083	-0.303234
C168	C	1.149269	-0.456083	0.196766
C169	C	0.620530	-0.454058	-0.263082
C170	C	1.120530	0.045942	0.236918
C171	C	0.620532	-0.407139	-0.263093
C172	C	1.120532	0.092861	0.236907
C173	C	0.677960	-0.407159	-0.343628
C174	C	1.177960	0.092841	0.156372
C175	C	0.677959	-0.454074	-0.343615
C176	C	1.177959	0.045926	0.156385
C177	C	0.649240	-0.477523	-0.303340
C178	C	1.149240	0.022477	0.196660
O179	O	0.702371	-0.528305	-0.377806
O180	O	1.202371	-0.028305	0.122194
O181	O	0.596104	-0.528310	-0.228830
O182	O	1.096104	-0.028310	0.271170
C183	C	0.620538	-0.740249	-0.263022
C184	C	1.120538	-0.240249	0.236978
C185	C	0.649250	-0.763713	-0.303284
C186	C	1.149250	-0.263713	0.196716
C187	C	0.677962	-0.740262	-0.343554
C188	C	1.177962	-0.240262	0.156446
C189	C	0.649255	-0.810631	-0.303271
C190	C	1.149255	-0.310631	0.196729
C191	C	0.620543	-0.834082	-0.263001
C192	C	1.120543	-0.334082	0.236999
C193	C	0.591827	-0.810615	-0.222743
C194	C	1.091827	-0.310615	0.277257
C195	C	0.591826	-0.763699	-0.222752
C196	C	1.091826	-0.263699	0.277248
C197	C	0.706678	-0.763729	-0.383812
C198	C	1.206678	-0.263729	0.116188
C199	C	0.706677	-0.810645	-0.383800
C200	C	1.206677	-0.310645	0.116200
C201	C	0.677966	-0.834096	-0.343529
C202	C	1.177966	-0.334096	0.156471
C203	C	0.766383	-0.216613	-0.303431
C204	C	1.266383	0.283387	0.196569
C205	C	0.816317	-0.216629	-0.303445
C206	C	1.316317	0.283371	0.196555
C207	C	0.649147	-0.216552	-0.466950
C208	C	1.149147	0.283448	0.033050
C209	C	0.649164	-0.216558	-0.536918
C210	C	1.149164	0.283442	-0.036918
C211	C	0.649202	-0.099853	-0.303377
C212	C	1.149202	0.400147	0.196623
C213	C	0.649278	-0.049918	-0.303209
C214	C	1.149278	0.450082	0.196791
C215	C	0.677888	-0.245321	-0.569729
C216	C	1.177888	0.254679	-0.069729
C217	C	0.677903	-0.245332	-0.635472
C218	C	1.177903	0.254668	-0.135472
C219	C	0.649200	-0.216572	-0.668400
C220	C	1.149200	0.283428	-0.168400
C221	C	0.620470	-0.187806	-0.635580
C222	C	1.120470	0.312194	-0.135580
C223	C	0.620452	-0.187799	-0.569839
C224	C	1.120452	0.312201	-0.069839
N225	N	0.645806	-0.177254	-0.771655
N226	N	1.145806	0.322746	-0.271655
N227	N	0.645826	-0.177262	-0.834107
N228	N	1.145826	0.322738	-0.334107
C229	C	0.649252	-0.216592	-0.866475
C230	C	1.149252	0.283408	-0.366475
N231	N	0.652667	-0.255915	-0.834032
N232	N	1.152667	0.244085	-0.334032
N233	N	0.652649	-0.255906	-0.771575
N234	N	1.152649	0.244094	-0.271575
C235	C	0.649216	-0.216576	-0.739685
C236	C	1.149216	0.283424	-0.239685
C237	C	0.677995	-0.245370	-0.970572
C238	C	1.177995	0.254630	-0.470572
C239	C	0.678008	-0.245382	-1.036316
C240	C	1.178008	0.254618	-0.536316
C241	C	0.620577	-0.187852	-1.036423
C242	C	1.120577	0.312148	-0.536423
C243	C	0.620562	-0.187844	-0.970681
C244	C	1.120562	0.312156	-0.470681
C245	C	0.649274	-0.216603	-0.937759
C246	C	1.149274	0.283397	-0.437759
C247	C	0.649274	-0.216608	-0.139208
C248	C	1.149274	0.283392	0.360792
C249	C	0.649304	-0.216622	-0.069240
C250	C	1.149304	0.283378	0.430760
H251	H	0.177281	-0.297293	-0.416837
H252	H	0.677281	0.202707	0.083163
H253	H	0.701265	-0.268739	-0.542926
H254	H	1.201265	0.231261	-0.042926
N255	N	0.735994	-0.693856	-0.424988
N256	N	1.235994	-0.193856	0.075012
N257	N	0.720166	-0.720016	-0.465093
N258	N	1.220166	-0.220016	0.034907
H259	H	0.740874	-0.736940	-0.494156
H260	H	1.240874	-0.236940	0.005844
H261	H	0.262386	-0.297282	-0.416829
H262	H	0.762386	0.202718	0.083171
H263	H	0.701338	-0.388057	-0.376413
H264	H	1.201338	0.111943	0.123587
H265	H	0.597061	-0.164376	-0.543123
H266	H	1.097061	0.335624	-0.043123
N267	N	0.267198	-0.129924	-0.181573
N268	N	0.767198	0.370076	0.318427
N269	N	0.293400	-0.145786	-0.141494
N270	N	0.793400	0.354214	0.358506
H271	H	0.310327	-0.125103	-0.112409
H272	H	0.810327	0.374897	0.387591
N273	N	0.707352	-0.274757	-1.069844
N274	N	1.207352	0.225243	-0.569844
N275	N	0.707365	-0.274760	-1.128541
N276	N	1.207365	0.225240	-0.628541
H277	H	0.728091	-0.295505	-1.152222
H278	H	1.228091	0.204495	-0.652222
N279	N	-0.089375	-0.158630	-0.221940
N280	N	0.410625	0.341370	0.278060
N281	N	-0.063222	-0.129967	-0.244030
N282	N	0.436778	0.370033	0.255970
H283	H	-0.046313	-0.109265	-0.214951
H284	H	0.453687	0.390735	0.285049
N285	N	0.483077	-0.274500	-0.384863
N286	N	0.983077	0.225500	0.115137
N287	N	0.509235	-0.258638	-0.424946
N288	N	1.009235	0.241362	0.075054
H289	H	0.526167	-0.279323	-0.454032
H290	H	1.026167	0.220677	0.045968
N291	N	0.562494	-0.693810	-0.181619
N292	N	1.062494	-0.193810	0.318381
N293	N	0.565504	-0.688571	-0.123537
N294	N	1.065504	-0.188571	0.376463
H295	H	0.544791	-0.705476	-0.094467
H296	H	1.044791	-0.205476	0.405533
N297	N	0.388180	-0.158569	-0.221888
N298	N	0.888180	0.341431	0.278112
N299	N	0.361972	-0.129917	-0.243979
N300	N	0.861972	0.370083	0.256021
H301	H	0.345038	-0.109229	-0.214900
H302	H	0.845038	0.390771	0.285100
H303	H	0.701290	-0.268760	-0.662192
H304	H	1.201290	0.231240	-0.162192
H305	H	0.701372	-0.268788	-0.943766
H306	H	1.201372	0.231212	-0.443766
N307	N	0.388244	-0.274531	-0.384868
N308	N	0.888244	0.225469	0.115132
N309	N	0.409211	-0.300129	-0.420853
N310	N	0.909211	0.199871	0.079147
H311	H	0.392307	-0.320828	-0.449942
H312	H	0.892307	0.179172	0.050058
N313	N	0.591228	-0.158458	-0.937156
N314	N	1.091228	0.341542	-0.437156
N315	N	0.607038	-0.129845	-0.900474
N316	N	1.107038	0.370155	-0.400474
H317	H	0.586318	-0.109093	-0.876795
H318	H	1.086318	0.390907	-0.376795
N319	N	0.591226	-0.955573	-0.221820
N320	N	1.091226	-0.455573	0.278180
N321	N	0.565598	-0.976523	-0.185865
N322	N	1.065598	-0.476523	0.314135
H323	H	0.544881	-0.959604	-0.156809
H324	H	1.044881	-0.459604	0.343191
N325	N	0.591151	-0.158434	-0.669222
N326	N	1.091151	0.341566	-0.169222
N327	N	0.591171	-0.158444	-0.727919
N328	N	1.091171	0.341556	-0.227919
H329	H	0.570461	-0.137700	-0.751679
H330	H	1.070461	0.362300	-0.251679
N331	N	0.736018	-0.739789	-0.424947
N332	N	1.236018	-0.239789	0.075053
N333	N	0.777473	-0.745062	-0.420773
N334	N	1.277473	-0.245062	0.079227
H335	H	0.798199	-0.728157	-0.449825
H336	H	1.298199	-0.228157	0.050175
H337	H	0.568443	-0.744599	-0.189963
H338	H	1.068443	-0.244599	0.310037
H339	H	-0.094183	-0.268649	-0.376575
H340	H	0.405817	0.231351	0.123425
N341	N	0.591256	-0.158481	-1.070060
N342	N	1.091256	0.341519	-0.570060
N343	N	0.591273	-0.158492	-1.128757
N344	N	1.091273	0.341508	-0.628757
H345	H	0.570563	-0.137749	-1.152517
H346	H	1.070563	0.362251	-0.652517
H347	H	-0.179343	-0.164591	-0.230305
H348	H	0.320657	0.335409	0.269695
N349	N	0.562505	-0.834581	-0.181606
N350	N	1.062505	-0.334581	0.318394
N351	N	0.562516	-0.876472	-0.181608
N352	N	1.062516	-0.376472	0.318392
H353	H	0.541808	-0.893401	-0.152558
H354	H	1.041808	-0.393401	0.347442
H355	H	0.036469	-0.135883	-0.189959
H356	H	0.536469	0.364117	0.310041
H357	H	0.478174	-0.164501	-0.230227
H358	H	0.978174	0.335499	0.269773
N359	N	0.126427	-0.129930	-0.181586
N360	N	0.626427	0.370070	0.318414
N361	N	0.105459	-0.104331	-0.145603
N362	N	0.605459	0.395669	0.354397
H363	H	0.122362	-0.083633	-0.116512
H364	H	0.622362	0.416367	0.383488
N365	N	0.736011	-0.834617	-0.424924
N366	N	1.236011	-0.334617	0.075076
N367	N	0.764651	-0.860819	-0.402787
N368	N	1.264651	-0.360819	0.097213
H369	H	0.785365	-0.877749	-0.431833
H370	H	1.285365	-0.377749	0.068167
N371	N	0.126489	-0.303255	-0.425200
N372	N	0.626489	0.196745	0.074800
N373	N	0.105540	-0.328862	-0.461184
N374	N	0.605540	0.171138	0.038816
H375	H	0.122459	-0.349556	-0.490270
H376	H	0.622459	0.150444	0.009730
H377	H	0.036523	-0.297325	-0.416844
H378	H	0.536523	0.202675	0.083156
H379	H	-0.179307	-0.268658	-0.376582
H380	H	0.320693	0.231342	0.123418
N381	N	0.735995	-0.599027	-0.425004
N382	N	1.235995	-0.099027	0.074996
N383	N	0.761627	-0.619986	-0.460950
N384	N	1.261627	-0.119986	0.039050
H385	H	0.782342	-0.603076	-0.490012
H386	H	1.282342	-0.103076	0.009988
H387	H	0.177216	-0.135867	-0.189937
H388	H	0.677216	0.364133	0.310063
N389	N	0.591199	-0.383178	-0.221953
N390	N	1.091199	0.116822	0.278047
N391	N	0.565567	-0.404126	-0.186001
N392	N	1.065567	0.095874	0.313999
H393	H	0.544851	-0.387205	-0.156946
H394	H	1.044851	0.112795	0.343054
H395	H	0.597144	-0.473145	-0.230286
H396	H	1.097144	0.026855	0.269714
H397	H	0.568438	-0.603852	-0.189993
H398	H	1.068438	-0.103852	0.310007
H399	H	0.597182	-1.045553	-0.230156
H400	H	1.097182	-0.545553	0.269844
H401	H	0.701365	-0.960461	-0.376294
H402	H	1.201365	-0.460461	0.123706
N403	N	0.707331	-1.050426	-0.384603
N404	N	1.207331	-0.550426	0.115397
N405	N	0.732963	-1.029476	-0.420553
N406	N	1.232963	-0.529476	0.079447
H407	H	0.753687	-1.046395	-0.449600
H408	H	1.253687	-0.546395	0.050400
N409	N	0.707307	-0.478039	-0.384727
N410	N	1.207307	0.021961	0.115273
N411	N	0.732949	-0.457092	-0.420668
N412	N	1.232949	0.042908	0.079332
H413	H	0.753678	-0.474014	-0.449703
H414	H	1.253678	0.025986	0.050297
