data_functionalizedCrystal
_audit_creation_method	'MofGen! by Chris Wilmer'
_symmetry_space_group_name_H-M	'P1'
_symmetry_Int_Tables_number	1
_symmetry_cell_setting	triclinic
loop_
_symmetry_equiv_pos_as_xyz
  x,y,z
_cell_length_a	10.540539
_cell_length_b	16.992694
_cell_length_c	16.053802
_cell_angle_alpha	92.750953
_cell_angle_beta	92.593658
_cell_angle_gamma	92.403143
loop_
_atom_site_label
_atom_site_type_symbol
_atom_site_fract_x
_atom_site_fract_y
_atom_site_fract_z
O1	O	0.264306	-1.045174	-0.069318
O2	O	0.261349	-0.816873	-0.069343
O3	O	0.078573	-0.936232	-0.069329
O4	O	0.447082	-0.925815	-0.069332
O5	O	0.088589	-0.929662	0.069529
O6	O	0.271366	-0.810303	0.069516
O7	O	0.274322	-1.038604	0.069540
Zn8	Zn	0.274434	-0.923410	0.091575
Zn9	Zn	0.261237	-0.932067	-0.091377
O10	O	0.457098	-0.919245	0.069526
C11	C	0.262556	-0.784355	0.000083
C12	C	0.251215	-0.697247	0.000074
C13	C	0.036210	-0.932166	0.000099
C14	C	-0.104941	-0.929829	0.000094
N15	N	0.283440	-0.917508	0.216434
C16	C	-0.296162	-0.840283	-0.000227
C17	C	-0.149316	-0.842638	0.000086
C18	C	-0.157237	-0.968037	0.079393
C19	C	-0.304035	-0.965058	0.079460
C20	C	-0.315790	-0.974303	-0.078448
C21	C	-0.168814	-0.975156	-0.079496
C22	C	0.499461	-0.923311	0.000097
C23	C	0.640612	-0.925649	0.000096
C24	C	0.273115	-1.071123	0.000112
C25	C	0.284456	-1.158230	0.000117
C26	C	0.360635	-0.647620	0.000073
C27	C	0.349973	-0.565773	0.000085
C28	C	0.229889	-0.533555	0.000091
C29	C	0.120461	-0.583189	0.000094
C30	C	0.131125	-0.665034	0.000088
C31	C	0.185691	-0.289709	0.000114
C32	C	0.175036	-0.207858	0.000117
C33	C	0.404549	-0.190447	0.000110
C34	C	0.415202	-0.272294	0.000099
C35	C	0.305774	-0.321921	0.000106
N36	N	0.218988	-0.449895	0.000100
N37	N	0.316677	-0.405579	0.000103
N38	N	0.252222	-0.937975	-0.216237
C39	C	0.205700	-0.968315	0.260134
C40	C	0.212013	-0.964193	0.347540
C41	C	0.296073	-0.909269	0.391245
C42	C	0.373817	-0.858458	0.347539
C43	C	0.367497	-0.862576	0.260134
C44	C	0.323645	-0.891281	0.652653
C45	C	0.329962	-0.887169	0.740063
C46	C	0.168156	-0.992904	0.740059
C47	C	0.161848	-0.997020	0.652652
C48	C	0.239587	-0.946206	0.608954
N49	N	0.302531	-0.905057	0.480588
N50	N	0.233122	-0.950415	0.519612
H51	H	-0.113678	-0.812311	-0.056760
H52	H	0.148710	-1.005563	0.383120
H53	H	0.439075	-0.525369	0.000084
H54	H	0.042023	-0.705441	0.000088
H55	H	0.458420	-0.673844	0.000068
H56	H	-0.357589	-1.037306	-0.078974
H57	H	0.512986	-0.298520	0.000084
H58	H	-0.139421	-1.038951	-0.084277
H59	H	0.493638	-0.150032	0.000105
H60	H	0.093400	-1.041744	0.617070
H61	H	0.077244	-0.181630	0.000121
H62	H	0.096587	-0.330106	0.000120
H63	H	-0.330650	-0.931243	0.138731
H64	H	0.442256	-0.813733	0.383129
H65	H	0.022687	-0.556951	0.000111
H66	H	0.137255	-1.013043	0.224555
H67	H	0.104863	-1.034274	0.775646
H68	H	-0.331853	-0.808532	-0.057095
H69	H	0.430799	-0.821203	0.224555
H70	H	0.398419	-0.842440	0.775644
H71	H	-0.325268	-0.803306	0.056314
H72	H	-0.346303	-1.027595	0.083064
H73	H	-0.129114	-1.031928	0.082349
H74	H	0.386945	-0.849907	0.617080
H75	H	-0.106338	-0.806696	0.057018
H76	H	-0.112911	-0.936097	0.138399
H77	H	-0.354127	-0.948927	-0.138551
H78	H	-0.134851	-0.947229	-0.138159
