data_functionalizedCrystal
_audit_creation_method	'MofGen! by Chris Wilmer'
_symmetry_space_group_name_H-M	'P1'
_symmetry_Int_Tables_number	1
_symmetry_cell_setting	triclinic
loop_
_symmetry_equiv_pos_as_xyz
  x,y,z
_cell_length_a	12.837943
_cell_length_b	9.130307
_cell_length_c	12.837942
_cell_angle_alpha	89.997046
_cell_angle_beta	85.171060
_cell_angle_gamma	90.000450
loop_
_atom_site_label
_atom_site_type_symbol
_atom_site_fract_x
_atom_site_fract_y
_atom_site_fract_z
O1	O	1.402331	0.121772	-0.272138
O2	O	1.099198	0.121781	-0.258695
O3	O	1.244043	0.121767	-0.113850
O4	O	1.257486	0.121785	-0.416983
O5	O	1.244038	-0.121832	-0.113848
O6	O	1.099192	-0.121818	-0.258693
O7	O	1.402326	-0.121827	-0.272136
Cu8	Cu	1.250759	-0.144065	-0.265414
Cu9	Cu	1.250765	0.144019	-0.265417
O10	O	1.257481	-0.121814	-0.416981
C11	C	1.060126	-0.000018	-0.254153
C12	C	0.943711	-0.000015	-0.240608
N13	N	1.250762	-0.346688	-0.265413
C14	C	0.718837	-0.000026	-0.403437
C15	C	0.609454	-0.000024	-0.390716
C16	C	0.615562	-0.000020	-0.202445
C17	C	0.724944	-0.000022	-0.215166
C18	C	0.776578	-0.000023	-0.315666
C19	C	0.885962	-0.000014	-0.328386
C20	C	0.892067	-0.000020	-0.140116
C21	C	0.782685	-0.000018	-0.127395
C22	C	1.379084	-0.346690	-0.137199
C23	C	1.443252	-0.423357	-0.073096
C24	C	1.443263	-0.576691	-0.073096
C25	C	1.379095	-0.653360	-0.137204
C26	C	1.314927	-0.576693	-0.201307
C27	C	1.314926	-0.423356	-0.201303
C28	C	1.186601	-0.576691	-0.329514
C29	C	1.186595	-0.423357	-0.329521
C30	C	1.122434	-0.653360	-0.393622
C31	C	1.058270	-0.576693	-0.457732
C32	C	1.058263	-0.423350	-0.457730
C33	C	1.122426	-0.346690	-0.393624
C34	C	1.441398	-0.000025	-0.276679
C35	C	1.557813	-0.000019	-0.290223
C36	C	1.239499	-0.000031	-0.074780
C37	C	1.225954	-0.000028	0.041635
N38	N	1.250769	0.346642	-0.265411
C39	C	1.262025	-0.000012	-0.456052
C40	C	1.275569	-0.000005	-0.572467
C41	C	1.388784	-0.000002	0.266510
C42	C	1.376062	0.000000	0.375892
C43	C	1.187791	-0.000009	0.369785
C44	C	1.200513	-0.000012	0.260402
C45	C	1.301012	-0.000011	0.208769
C46	C	1.313732	-0.000024	0.099384
C47	C	1.125462	-0.000024	0.093279
C48	C	1.112741	-0.000021	0.202661
H49	H	0.760878	-0.000025	-0.485268
H50	H	0.740630	-0.000034	-0.045571
C51	C	1.513837	-0.339024	-0.002580
C52	C	1.513863	-0.170362	-0.002597
C53	C	1.584446	-0.086037	0.067920
C54	C	1.655002	-0.170373	0.138455
C55	C	1.654978	-0.339044	0.138475
C56	C	1.584396	-0.423369	0.067957
H57	H	1.461631	-0.107923	-0.054814
H58	H	1.584463	0.038825	0.067906
H59	H	1.707252	-0.107951	0.190656
H60	H	1.707211	-0.401483	0.190691
H61	H	1.584378	-0.548231	0.067972
C62	C	0.987692	-0.661026	-0.528244
C63	C	0.987878	-0.829687	-0.528426
C64	C	0.917299	-0.914025	-0.598940
C65	C	0.846535	-0.829702	-0.669273
C66	C	0.846346	-0.661032	-0.669094
C67	C	0.916924	-0.576693	-0.598580
H68	H	1.040264	-0.892116	-0.476359
H69	H	0.917440	-1.038887	-0.599072
H70	H	0.794288	-0.892135	-0.721472
H71	H	0.793959	-0.598603	-0.721161
H72	H	0.916784	-0.451832	-0.598448
H73	H	0.573502	-0.000140	-0.120623
H74	H	0.562446	-0.000031	-0.462189
H75	H	0.928000	-0.000017	-0.410218
H76	H	0.939092	-0.000007	-0.068646
H77	H	1.470614	-0.000016	0.224469
H78	H	1.395564	-0.000029	0.057346
H79	H	1.379091	-0.221838	-0.137202
H80	H	1.495510	-0.639114	-0.020894
H81	H	1.379098	-0.778212	-0.137191
H82	H	1.122440	-0.778212	-0.393615
H83	H	1.006005	-0.360935	-0.509927
H84	H	1.122431	-0.221838	-0.393621
H85	H	1.447536	0.000012	0.422901
H86	H	1.105969	0.000005	0.411844
H87	H	1.030917	-0.000016	0.244717
H88	H	1.053992	-0.000042	0.046254
