data_functionalizedCrystal
_audit_creation_method	'MofGen! by Chris Wilmer'
_symmetry_space_group_name_H-M	'P1'
_symmetry_Int_Tables_number	1
_symmetry_cell_setting	triclinic
loop_
_symmetry_equiv_pos_as_xyz
  x,y,z
_cell_length_a	23.532407
_cell_length_b	22.610064
_cell_length_c	23.532409
_cell_angle_alpha	89.992888
_cell_angle_beta	82.849119
_cell_angle_gamma	90.002839
loop_
_atom_site_label
_atom_site_type_symbol
_atom_site_fract_x
_atom_site_fract_y
_atom_site_fract_z
O1	O	0.755264	0.049107	0.069127
O2	O	1.255264	0.549107	0.569127
O3	O	0.589401	0.049124	0.079130
O4	O	1.089401	0.549124	0.579130
O5	O	0.677333	0.049116	-0.008803
O6	O	1.177333	0.549116	0.491197
O7	O	0.667331	0.049115	0.157060
O8	O	1.167331	0.549115	0.657060
O9	O	0.677318	-0.049254	-0.008790
O10	O	1.177318	0.450746	0.491210
O11	O	0.589385	-0.049245	0.079143
O12	O	1.089385	0.450755	0.579143
O13	O	0.755248	-0.049262	0.069140
O14	O	1.255248	0.450738	0.569140
Zn15	Zn	0.672314	-0.064872	0.074143
Zn16	Zn	1.172314	0.435128	0.574143
Zn17	Zn	0.672335	0.064734	0.074127
Zn18	Zn	1.172335	0.564734	0.574127
O19	O	0.667316	-0.049254	0.157073
O20	O	1.167316	0.450746	0.657073
C21	C	0.568177	-0.000059	0.078882
C22	C	1.068177	0.499941	0.578882
C23	C	0.504960	-0.000052	0.078116
C24	C	1.004960	0.499948	0.578116
N25	N	0.672305	-0.153324	0.074155
N26	N	1.172305	0.346676	0.574155
C27	C	0.105857	-0.000079	0.125349
C28	C	0.605857	0.499921	0.625349
C29	C	0.046457	-0.000083	0.124638
C30	C	0.546457	0.499917	0.624638
O31	O	0.009713	-0.000104	0.168424
O32	O	0.509713	0.499896	0.668424
N33	N	0.023830	-0.000081	0.072362
N34	N	0.523830	0.499919	0.572362
C35	C	0.060608	-0.000083	0.020794
C36	C	0.560608	0.499917	0.520794
O37	O	0.035908	-0.000083	-0.023737
O38	O	0.535908	0.499917	0.476263
C39	C	0.120007	-0.000083	0.021506
C40	C	0.620007	0.499917	0.521506
C41	C	0.142630	-0.000078	0.073785
C42	C	0.642630	0.499922	0.573785
C43	C	0.128481	-0.000075	0.177625
C44	C	0.628481	0.499925	0.677625
C45	C	0.187877	-0.000070	0.178336
C46	C	0.687877	0.499930	0.678336
C47	C	0.224649	-0.000069	0.126772
C48	C	0.724649	0.499931	0.626772
C49	C	0.202026	-0.000074	0.074496
C50	C	0.702026	0.499926	0.574496
C51	C	0.156783	-0.000089	-0.030062
C52	C	0.656783	0.499911	0.469938
C53	C	0.216185	-0.000090	-0.029345
C54	C	0.716185	0.499910	0.470655
C55	C	0.238808	-0.000085	0.022934
C56	C	0.738808	0.499915	0.522934
C57	C	0.298195	-0.000068	0.023643
C58	C	0.798195	0.499932	0.523643
N59	N	0.320821	-0.000070	0.075920
N60	N	0.820821	0.499930	0.575920
C61	C	0.284049	-0.000070	0.127484
C62	C	0.784049	0.499930	0.627484
C63	C	-0.064135	-0.000082	0.019302
C64	C	0.435865	0.499918	0.519302
C65	C	-0.123533	-0.000078	0.018589
C66	C	0.376467	0.499922	0.518589
C67	C	-0.137679	-0.000079	0.122434
C68	C	0.362321	0.499921	0.622434
C69	C	-0.078280	-0.000079	0.123146
C70	C	0.421720	0.499921	0.623146
C71	C	-0.041508	-0.000084	0.071578
C72	C	0.458492	0.499916	0.571578
C73	C	0.408785	-0.000060	0.128974
C74	C	0.908785	0.499940	0.628974
C75	C	0.468187	-0.000052	0.129680
C76	C	0.968187	0.499948	0.629680
C77	C	0.482329	-0.000055	0.025836
C78	C	0.982329	0.499945	0.525836
C79	C	0.422932	-0.000059	0.025129
C80	C	0.922932	0.499941	0.525129
C81	C	0.386161	-0.000063	0.076702
C82	C	0.886161	0.499937	0.576702
O83	O	0.334973	-0.000049	-0.020119
O84	O	0.834973	0.499951	0.479881
O85	O	0.308757	-0.000078	0.172007
O86	O	0.808757	0.499922	0.672007
C87	C	0.711273	-0.561969	0.035196
C88	C	1.211273	-0.061969	0.535196
C89	C	0.711276	-0.623889	0.035192
C90	C	1.211276	-0.123889	0.535192
O91	O	0.744384	-0.655911	0.002076
O92	O	1.244384	-0.155911	0.502076
N93	N	0.672334	-0.654862	0.074115
N94	N	1.172334	-0.154862	0.574115
C95	C	0.633384	-0.623911	0.113041
C96	C	1.133384	-0.123911	0.613041
O97	O	0.600261	-0.655941	0.146147
O98	O	1.100261	-0.155941	0.646147
C99	C	0.633378	-0.561992	0.113042
C100	C	1.133378	-0.061992	0.613042
C101	C	0.672326	-0.531023	0.074120
C102	C	1.172326	-0.031023	0.574120
C103	C	0.750218	-0.531000	-0.003724
C104	C	1.250218	-0.031000	0.496276
C105	C	0.750215	-0.469085	-0.003719
C106	C	1.250215	0.030915	0.496281
C107	C	0.711268	-0.438138	0.035206
C108	C	1.211268	0.061862	0.535206
C109	C	0.672324	-0.469107	0.074125
C110	C	1.172324	0.030893	0.574125
C111	C	0.594425	-0.531042	0.151965
C112	C	1.094425	-0.031042	0.651965
C113	C	0.594423	-0.469119	0.151962
C114	C	1.094423	0.030881	0.651962
C115	C	0.633371	-0.438150	0.113040
C116	C	1.133371	0.061850	0.613040
C117	C	0.633375	-0.376245	0.113054
C118	C	1.133375	0.123755	0.613054
N119	N	0.672316	-0.345273	0.074131
N120	N	1.172316	0.154727	0.574131
C121	C	0.711263	-0.376219	0.035207
C122	C	1.211263	0.123781	0.535207
C123	C	0.633397	-0.753944	0.113035
C124	C	1.133397	-0.253944	0.613035
C125	C	0.633404	-0.815862	0.113037
C126	C	1.133404	-0.315862	0.613037
C127	C	0.711296	-0.815836	0.035187
C128	C	1.211296	-0.315836	0.535187
C129	C	0.711291	-0.753918	0.035188
C130	C	1.211291	-0.253918	0.535188
C131	C	0.672338	-0.722972	0.074112
C132	C	1.172338	-0.222972	0.574112
C133	C	0.711256	-0.246192	0.035220
C134	C	1.211256	0.253808	0.535220
C135	C	0.711251	-0.184271	0.035230
C136	C	1.211251	0.315729	0.535230
C137	C	0.633358	-0.184302	0.113078
C138	C	1.133358	0.315698	0.613078
C139	C	0.633364	-0.246218	0.113071
C140	C	1.133364	0.253782	0.613071
C141	C	0.672315	-0.277161	0.074137
C142	C	1.172315	0.222839	0.574137
O143	O	0.600282	-0.344184	0.146151
O144	O	1.100282	0.155816	0.646151
O145	O	0.744376	-0.344182	0.002101
O146	O	1.244376	0.155818	0.502101
C147	C	0.776472	-0.000078	0.069388
C148	C	1.276472	0.499922	0.569388
C149	C	0.839689	-0.000081	0.070154
C150	C	1.339689	0.499919	0.570154
C151	C	0.677071	-0.000067	-0.030013
C152	C	1.177071	0.499933	0.469987
C153	C	0.676304	-0.000063	-0.093230
C154	C	1.176304	0.499937	0.406770
N155	N	0.672349	0.153186	0.074111
N156	N	1.172349	0.653186	0.574111
C157	C	0.673054	0.053561	-0.366482
C158	C	1.173054	0.553561	0.133518
C159	C	0.673765	0.053561	-0.307081
C160	C	1.173765	0.553561	0.192919
O161	O	0.674161	0.099162	-0.276363
O162	O	1.174161	0.599162	0.223637
N163	N	0.674109	-0.000061	-0.277372
N164	N	1.174109	0.499939	0.222628
C165	C	0.673747	-0.053687	-0.307067
C166	C	1.173747	0.446313	0.192933
O167	O	0.674105	-0.099296	-0.276343
O168	O	1.174105	0.400704	0.223657
C169	C	0.673040	-0.053686	-0.366467
C170	C	1.173040	0.446314	0.133533
C171	C	0.672690	-0.000060	-0.396172
C172	C	1.172690	0.499940	0.103828
C173	C	0.672705	0.107182	-0.396187
C174	C	1.172705	0.607182	0.103813
C175	C	0.671992	0.107182	-0.455583
C176	C	1.171992	0.607182	0.044417
C177	C	0.671628	0.053560	-0.485274
C178	C	1.171628	0.553560	0.014726
C179	C	0.671977	-0.000061	-0.455568
C180	C	1.171977	0.499939	0.044432
C181	C	0.672682	-0.107311	-0.396161
C182	C	1.172682	0.392689	0.103839
C183	C	0.671974	-0.107306	-0.455565
C184	C	1.171974	0.392694	0.044435
C185	C	0.671625	-0.053680	-0.485270
C186	C	1.171625	0.446320	0.014730
C187	C	0.670901	-0.053682	-0.544655
C188	C	1.170901	0.446318	-0.044655
N189	N	0.670557	-0.000060	-0.574364
N190	N	1.170557	0.499940	-0.074364
C191	C	0.670921	0.053561	-0.544673
C192	C	1.170921	0.553561	-0.044673
C193	C	0.675234	-0.053684	-0.182324
C194	C	1.175234	0.446316	0.317676
C195	C	0.675937	-0.053685	-0.122925
C196	C	1.175937	0.446315	0.377075
C197	C	0.675957	0.053563	-0.122943
C198	C	1.175957	0.553563	0.377057
C199	C	0.675249	0.053563	-0.182343
C200	C	1.175249	0.553563	0.317657
C201	C	0.674890	-0.000062	-0.212033
C202	C	1.174890	0.499938	0.287967
C203	C	0.669424	0.053556	-0.669409
C204	C	1.169424	0.553556	-0.169409
C205	C	0.668709	0.053551	-0.728810
C206	C	1.168709	0.553551	-0.228810
C207	C	0.668692	-0.053696	-0.728787
C208	C	1.168692	0.446304	-0.228787
C209	C	0.669404	-0.053691	-0.669391
C210	C	1.169404	0.446309	-0.169391
C211	C	0.669772	-0.000060	-0.639703
C212	C	1.169772	0.499940	-0.139703
O213	O	0.670508	-0.099260	-0.575412
O214	O	1.170508	0.400740	-0.075412
O215	O	0.670570	0.099163	-0.575406
O216	O	1.170570	0.599163	-0.075406
C217	C	0.667579	-0.000070	0.178283
C218	C	1.167579	0.499930	0.678283
C219	C	0.668345	-0.000070	0.241500
C220	C	1.168345	0.499930	0.741500
H221	H	0.486603	-0.000048	0.172254
H222	H	0.986603	0.499952	0.672254
O223	O	0.749072	-0.845996	-0.002607
O224	O	1.249072	-0.345996	0.497393
C225	C	0.740728	-0.907286	0.005751
C226	C	1.240728	-0.407286	0.505751
H227	H	0.695331	-0.915745	0.027270
H228	H	1.195331	-0.415745	0.527270
H229	H	0.747305	-0.930815	-0.037411
H230	H	1.247305	-0.430815	0.462589
H231	H	0.772800	-0.924861	0.034150
H232	H	1.272800	-0.424861	0.534150
O233	O	0.595540	-0.723978	0.150910
O234	O	1.095540	-0.223978	0.650910
C235	C	0.561165	-0.764598	0.185251
C236	C	1.061165	-0.264598	0.685251
H237	H	0.584518	-0.808731	0.185767
H238	H	1.084518	-0.308731	0.685767
H239	H	0.552217	-0.746722	0.230781
H240	H	1.052217	-0.246722	0.730781
H241	H	0.518965	-0.771187	0.166975
H242	H	1.018965	-0.271187	0.666975
O243	O	0.595652	-0.845968	0.150906
O244	O	1.095652	-0.345968	0.650906
C245	C	0.625947	-0.881801	0.185879
C246	C	1.125947	-0.381801	0.685879
H247	H	0.670854	-0.863142	0.186613
H248	H	1.170854	-0.363142	0.686613
H249	H	0.602453	-0.882509	0.231265
H250	H	1.102453	-0.382509	0.731265
H251	H	0.629031	-0.928725	0.168040
H252	H	1.129031	-0.428725	0.668040
O253	O	0.518033	0.000051	-0.024266
O254	O	1.018033	0.500051	0.475734
C255	C	0.507821	0.050986	-0.056046
C256	C	1.007821	0.550986	0.443954
H257	H	0.487349	0.086597	-0.025873
H258	H	0.987349	0.586597	0.474127
H259	H	0.550097	0.068086	-0.079126
H260	H	1.050097	0.568086	0.420874
H261	H	0.477760	0.039464	-0.088837
H262	H	0.977760	0.539464	0.411163
O263	O	0.668316	-0.105834	-0.757543
O264	O	1.168316	0.394166	-0.257543
C265	C	0.668793	-0.153169	-0.718594
C266	C	1.168793	0.346831	-0.218594
H267	H	0.651266	-0.137455	-0.673795
H268	H	1.151266	0.362545	-0.173795
H269	H	0.640934	-0.190670	-0.731990
H270	H	1.140934	0.309330	-0.231990
H271	H	0.714563	-0.169656	-0.718501
H272	H	1.214563	0.330344	-0.218501
H273	H	0.742969	-0.159058	0.003535
H274	H	1.242969	0.340942	0.503535
H275	H	0.378853	-0.000065	0.170970
H276	H	0.878853	0.499935	0.670970
H277	H	0.206291	-0.000066	0.220907
H278	H	0.706291	0.499934	0.720907
O279	O	0.669751	0.105705	-0.640660
O280	O	1.169751	0.605705	-0.140660
C281	C	0.669304	0.153026	-0.679628
C282	C	1.169304	0.653026	-0.179628
H283	H	0.650764	0.137299	-0.719509
H284	H	1.150764	0.637299	-0.219509
H285	H	0.641859	0.190534	-0.658710
H286	H	1.141859	0.690534	-0.158710
H287	H	0.714925	0.169512	-0.692176
H288	H	1.214925	0.669512	-0.192176
O289	O	0.671723	-0.159383	-0.484445
O290	O	1.171723	0.340617	0.015555
C291	C	0.720632	-0.162593	-0.525536
C292	C	1.220632	0.337407	-0.025536
H293	H	0.755331	-0.132167	-0.512340
H294	H	1.255331	0.367833	-0.012340
H295	H	0.737174	-0.210022	-0.528457
H296	H	1.237174	0.289978	-0.028457
H297	H	0.708941	-0.148188	-0.569036
H298	H	1.208941	0.351812	-0.069036
H299	H	0.669666	-0.097358	-0.645200
H300	H	1.169666	0.402642	-0.145200
H301	H	0.676211	-0.097352	-0.098742
H302	H	1.176211	0.402648	0.401258
H303	H	0.674964	0.097230	-0.206525
H304	H	1.174964	0.597230	0.293475
H305	H	0.672972	-0.150979	-0.371986
H306	H	1.172972	0.349021	0.128014
O307	O	0.556534	-0.561024	0.189795
O308	O	1.056534	-0.061024	0.689795
C309	C	0.522171	-0.520420	0.224152
C310	C	1.022171	-0.020420	0.724152
H311	H	0.521668	-0.476281	0.200800
H312	H	1.021668	0.023719	0.700800
H313	H	0.476639	-0.538308	0.233068
H314	H	0.976639	-0.038308	0.733068
H315	H	0.540417	-0.513837	0.266368
H316	H	1.040417	-0.013837	0.766368
O317	O	0.092789	0.000032	0.227734
O318	O	0.592789	0.500032	0.727734
C319	C	0.103025	0.050974	0.259485
C320	C	0.603025	0.550974	0.759485
H321	H	0.123492	0.086578	0.229289
H322	H	0.623492	0.586578	0.729289
H323	H	0.060759	0.068080	0.282575
H324	H	0.560759	0.568080	0.782575
H325	H	0.133100	0.039457	0.292267
H326	H	0.633100	0.539457	0.792267
O327	O	-0.056402	-0.000105	0.173980
O328	O	0.443598	0.499895	0.673980
C329	C	-0.101602	-0.000087	0.219335
C330	C	0.398398	0.499913	0.719335
H331	H	-0.141870	-0.018709	0.203604
H332	H	0.358130	0.481291	0.703604
H333	H	-0.089396	-0.028647	0.255860
H334	H	0.410604	0.471353	0.755860
H335	H	-0.110091	0.047106	0.235217
H336	H	0.389909	0.547106	0.735217
H337	H	0.601654	-0.271433	0.144770
H338	H	1.101654	0.228567	0.644770
H339	H	0.404512	-0.000054	-0.017441
H340	H	0.904512	0.499946	0.482559
O341	O	0.556663	-0.438995	0.189799
O342	O	1.056663	0.061005	0.689799
C343	C	0.586956	-0.403194	0.224796
C344	C	1.086956	0.096806	0.724796
H345	H	0.631648	-0.393906	0.201889
H346	H	1.131648	0.106094	0.701889
H347	H	0.563130	-0.359658	0.233931
H348	H	1.063130	0.140342	0.733931
H349	H	0.590585	-0.427068	0.266866
H350	H	1.090585	0.072932	0.766866
O351	O	0.595546	-0.154143	0.150831
O352	O	1.095546	0.345857	0.650831
C353	C	0.603908	-0.092852	0.142491
C354	C	1.103908	0.407148	0.642491
H355	H	0.625457	-0.084392	0.097105
H356	H	1.125457	0.415608	0.597105
H357	H	0.560745	-0.069322	0.149037
H358	H	1.060745	0.430678	0.649037
H359	H	0.632282	-0.075281	0.174586
H360	H	1.132282	0.424719	0.674586
H361	H	-0.167631	-0.000082	0.164421
H362	H	0.332369	0.499918	0.664421
O363	O	0.749117	-0.276309	-0.002520
O364	O	1.249117	0.223691	0.497480
C365	C	0.784092	-0.312115	0.027797
C366	C	1.284092	0.187885	0.527797
H367	H	0.761156	-0.321412	0.072475
H368	H	1.261156	0.178588	0.572475
H369	H	0.793247	-0.355646	0.003970
H370	H	1.293247	0.144354	0.503970
H371	H	0.826153	-0.288243	0.031460
H372	H	1.326153	0.211757	0.531460
O373	O	-0.145410	-0.000101	-0.032245
O374	O	0.354590	0.499899	0.467755
C375	C	-0.100210	-0.000084	-0.077600
C376	C	0.399790	0.499916	0.422400
H377	H	-0.059945	-0.018704	-0.061864
H378	H	0.440055	0.481296	0.438136
H379	H	-0.112419	-0.028643	-0.114118
H380	H	0.387581	0.471357	0.385882
H381	H	-0.091716	0.047110	-0.093494
H382	H	0.408284	0.547110	0.406506
O383	O	0.671699	0.159327	-0.484353
O384	O	1.171699	0.659327	0.015647
C385	C	0.672167	0.206648	-0.445399
C386	C	1.172167	0.706648	0.054601
H387	H	0.690687	0.190910	-0.405508
H388	H	1.190687	0.690910	0.094492
H389	H	0.699639	0.244140	-0.466323
H390	H	1.199639	0.744140	0.033677
H391	H	0.626555	0.223158	-0.432867
H392	H	1.126555	0.723158	0.067133
H393	H	-0.034198	-0.000081	-0.022693
H394	H	0.465802	0.499919	0.477307
H395	H	0.138374	-0.000093	-0.072634
H396	H	0.638374	0.499907	0.427366
H397	H	0.668422	0.097221	-0.752993
H398	H	1.168422	0.597221	-0.252993
O399	O	0.251824	-0.000065	-0.079493
O400	O	0.751824	0.499935	0.420507
C401	C	0.219113	-0.000084	-0.125783
C402	C	0.719113	0.499916	0.374217
H403	H	0.174697	0.018536	-0.111068
H404	H	0.674697	0.518536	0.388932
H405	H	0.241220	0.028477	-0.161896
H406	H	0.741220	0.528477	0.338104
H407	H	0.214971	-0.047277	-0.141816
H408	H	0.714971	0.452723	0.358184
O409	O	0.676202	0.105679	-0.094124
O410	O	1.176202	0.605679	0.405876
C411	C	0.626707	0.138296	-0.101953
C412	C	1.126707	0.638296	0.398047
H413	H	0.592035	0.106910	-0.113574
H414	H	1.092035	0.606910	0.386426
H415	H	0.610610	0.162634	-0.060648
H416	H	1.110610	0.662634	0.439352
H417	H	0.637451	0.171717	-0.137968
H418	H	1.137451	0.671717	0.362032
H419	H	0.781928	-0.443873	-0.035414
H420	H	1.281928	0.056127	0.464586
H421	H	0.781933	-0.556192	-0.035423
H422	H	1.281933	-0.056192	0.464577
H423	H	0.673003	0.150849	-0.372020
H424	H	1.173003	0.650849	0.127980
O425	O	0.674852	-0.105832	-0.211070
O426	O	1.174852	0.394168	0.288930
C427	C	0.675321	-0.153154	-0.172107
C428	C	1.175321	0.346846	0.327893
H429	H	0.657798	-0.137425	-0.127313
H430	H	1.157798	0.362575	0.372687
H431	H	0.647455	-0.190656	-0.185492
H432	H	1.147455	0.309344	0.314508
H433	H	0.721088	-0.169649	-0.172010
H434	H	1.221088	0.330351	0.327990
H435	H	0.743005	-0.728706	0.003494
H436	H	1.243005	-0.228706	0.503494
