data_functionalizedCrystal
_audit_creation_method	'MofGen! by Chris Wilmer'
_symmetry_space_group_name_H-M	'P1'
_symmetry_Int_Tables_number	1
_symmetry_cell_setting	triclinic
loop_
_symmetry_equiv_pos_as_xyz
  x,y,z
_cell_length_a	14.044220
_cell_length_b	23.532407
_cell_length_c	13.101039
_cell_angle_alpha	93.336507
_cell_angle_beta	86.340132
_cell_angle_gamma	88.018778
loop_
_atom_site_label
_atom_site_type_symbol
_atom_site_fract_x
_atom_site_fract_y
_atom_site_fract_z
O1	O	1.261651	0.134360	-0.085125
O2	O	0.985730	0.129407	-0.085150
O3	O	1.132009	0.049404	-0.085118
O4	O	1.115371	0.214364	-0.085157
O5	O	1.121514	0.055154	0.085309
O6	O	0.975234	0.135158	0.085277
O7	O	1.251155	0.140111	0.085302
Zn8	Zn	1.111528	0.138547	0.112349
Zn9	Zn	1.125356	0.130971	-0.112197
O10	O	1.104875	0.220114	0.085270
C11	C	0.945188	0.130115	0.000061
C12	C	0.840024	0.123648	0.000052
C13	C	0.647472	0.111828	0.000075
C14	C	0.589407	0.157687	0.000068
C15	C	0.482265	0.151110	0.000081
C16	C	0.754624	0.118404	0.000062
C17	C	1.126338	0.031040	0.000098
C18	C	1.125063	-0.032246	0.000106
C19	C	1.203641	-0.427092	0.000057
C20	C	1.202458	-0.486556	0.000049
O21	O	1.275300	-0.519354	0.000018
N22	N	1.115494	-0.513896	0.000042
C23	C	1.029708	-0.481769	0.000032
O24	O	0.955630	-0.510484	0.000024
C25	C	1.030893	-0.422306	0.000033
C26	C	1.117862	-0.394968	0.000050
C27	C	1.290603	-0.399754	0.000073
C28	C	1.291786	-0.340294	0.000083
C29	C	1.206007	-0.308170	0.000077
C30	C	1.119045	-0.335508	0.000060
C31	C	0.945109	-0.390179	0.000016
C32	C	0.946301	-0.330712	0.000015
C33	C	1.033270	-0.303375	0.000033
C34	C	1.034448	-0.243924	0.000063
N35	N	1.121412	-0.216584	0.000070
C36	C	1.207191	-0.248707	0.000077
C37	C	1.027228	-0.606646	0.000029
C38	C	1.026042	-0.666108	0.000036
C39	C	1.198792	-0.670891	0.000051
C40	C	1.199977	-0.611428	0.000052
C41	C	1.114192	-0.579306	0.000036
C42	C	1.209668	-0.123835	0.000099
C43	C	1.210843	-0.064369	0.000113
C44	C	1.038093	-0.059591	0.000092
C45	C	1.036917	-0.119052	0.000084
C46	C	1.122713	-0.151173	0.000083
O47	O	0.961644	-0.211090	0.000090
O48	O	1.281258	-0.219985	0.000071
C49	C	1.291697	0.139403	0.000089
C50	C	1.396862	0.145869	0.000091
C51	C	1.110547	0.238478	0.000052
C52	C	1.111822	0.301763	0.000037
N53	N	1.102098	0.143718	0.265595
N54	N	1.134794	0.125796	-0.265443
C55	C	1.089267	0.150758	0.474635
C56	C	1.147622	0.118757	0.525524
C57	C	1.140483	0.122674	0.641841
C58	C	1.096405	0.146842	0.358308
H59	H	1.281666	-0.042114	0.000130
H60	H	0.616718	0.067631	0.000091
H61	H	1.279531	-0.149982	0.000094
H62	H	0.620163	0.201887	0.000053
H63	H	0.876442	-0.304561	0.000002
H64	H	1.362605	-0.318042	0.000093
H65	H	1.033950	0.181096	0.518420
C66	C	0.941250	-0.149123	0.000060
C67	C	0.922136	-0.192311	-0.088463
C68	C	0.826466	-0.222375	-0.088504
C69	C	0.749910	-0.209251	-0.000022
C70	C	0.769021	-0.166061	0.088507
C71	C	0.864691	-0.135996	0.088548
H72	H	0.978810	-0.202028	-0.153968
H73	H	0.812319	-0.254348	-0.154040
H74	H	0.679089	-0.231507	-0.000052
H75	H	0.712347	-0.156343	0.154013
H76	H	0.878838	-0.104024	0.154084
C77	C	1.222365	0.077774	0.466373
C78	C	1.229448	0.073834	0.348374
C79	C	1.304191	0.032855	0.289217
C80	C	1.371851	-0.004183	0.348060
C81	C	1.364770	-0.000244	0.466066
C82	C	1.290027	0.040735	0.525222
H83	H	1.179360	0.101253	0.304809
H84	H	1.309432	0.029940	0.201861
H85	H	1.427180	-0.034518	0.304269
H86	H	1.414858	-0.027663	0.509631
H87	H	1.284786	0.043650	0.612578
C88	C	1.384972	-0.435083	0.000086
C89	C	1.450929	-0.425890	0.088600
C90	C	1.545304	-0.461213	0.088622
C91	C	1.573722	-0.505729	0.000131
C92	C	1.507763	-0.514924	-0.088389
C93	C	1.413388	-0.479601	-0.088412
H94	H	1.429894	-0.392934	0.154112
H95	H	1.594131	-0.454405	0.154151
H96	H	1.643584	-0.531877	0.000148
H97	H	1.528798	-0.547879	-0.153902
H98	H	1.364561	-0.486408	-0.153941
H99	H	1.268639	-0.697057	0.000052
C100	C	0.932855	-0.571314	0.000031
C101	C	0.866879	-0.580500	-0.088468
C102	C	0.772507	-0.545171	-0.088466
C103	C	0.744111	-0.500657	0.000034
C104	C	0.810088	-0.491469	0.088540
C105	C	0.904460	-0.526797	0.088538
H106	H	0.887898	-0.613454	-0.153987
H107	H	0.723666	-0.551973	-0.153985
H108	H	0.674251	-0.474505	0.000035
H109	H	0.789069	-0.458515	0.154059
H110	H	0.953301	-0.519995	0.154057
H111	H	1.270794	-0.589174	0.000065
H112	H	0.874290	-0.412427	-0.000005
H113	H	0.955222	-0.688360	0.000039
H114	H	0.968254	-0.033425	0.000090
