data_functionalizedCrystal
_audit_creation_method	'MofGen! by Chris Wilmer'
_symmetry_space_group_name_H-M	'P1'
_symmetry_Int_Tables_number	1
_symmetry_cell_setting	triclinic
loop_
_symmetry_equiv_pos_as_xyz
  x,y,z
_cell_length_a	15.995363
_cell_length_b	15.072220
_cell_length_c	8.559649
_cell_angle_alpha	90.004660
_cell_angle_beta	76.638030
_cell_angle_gamma	89.997347
loop_
_atom_site_label
_atom_site_type_symbol
_atom_site_fract_x
_atom_site_fract_y
_atom_site_fract_z
O1	O	-1.097733	0.073714	-0.206033
O2	O	-0.852325	0.073730	-0.231445
O3	O	-0.996650	0.073720	0.013861
O4	O	-0.953409	0.073724	-0.451339
O5	O	-0.996631	-0.073846	0.013830
O6	O	-0.852307	-0.073835	-0.231476
O7	O	-1.097715	-0.073851	-0.206064
Zn8	Zn	-0.975008	-0.097272	-0.218775
Zn9	Zn	-0.975032	0.097151	-0.218734
O10	O	-0.953390	-0.073841	-0.451370
C11	C	-0.821189	-0.000051	-0.230407
C12	C	-0.728443	-0.000045	-0.227247
N13	N	-0.974997	-0.229961	-0.218802
C14	C	-0.391427	-0.000067	-0.215898
C15	C	-0.450095	-0.000397	-0.041191
C16	C	-0.546581	-0.000057	-0.044352
C17	C	-0.558624	-0.000056	-0.221527
C18	C	-0.512007	0.084208	-0.307679
C19	C	-0.415655	0.084271	-0.303282
C20	C	-0.415063	-0.083538	-0.306927
C21	C	-0.512010	-0.084645	-0.306894
C22	C	-0.653116	-0.000047	-0.224718
C23	C	-0.296934	-0.000069	-0.212712
C24	C	-0.999918	-0.000062	0.073375
C25	C	-1.009672	-0.000057	0.250754
C26	C	-0.128854	-0.000071	-0.207081
C27	C	-0.221609	-0.000078	-0.210178
C28	C	-0.975015	-0.410959	-0.218765
C29	C	-0.897782	-0.448622	-0.349975
C30	C	-0.897570	-0.551448	-0.349617
C31	C	-0.975032	-0.589163	-0.218731
C32	C	-0.967041	-0.551820	-0.051807
C33	C	-0.966488	-0.448963	-0.052596
C34	C	-1.060548	-0.448852	-0.252972
C35	C	-1.059726	-0.551717	-0.256741
C36	C	-0.975045	-0.689876	-0.218702
C37	C	-0.975002	-0.310245	-0.218783
N38	N	-0.975050	0.229840	-0.218695
C39	C	-0.950122	-0.000058	-0.510884
C40	C	-0.940368	-0.000056	-0.688264
H41	H	-0.436056	-0.060827	0.028634
H42	H	-1.021178	-0.424046	0.048010
H43	H	-1.076472	-0.000069	0.334255
H44	H	-0.904448	-0.424984	-0.022553
H45	H	-0.398192	-0.147409	-0.249822
H46	H	-0.543363	-0.146983	-0.244003
H47	H	-0.905791	-0.577599	-0.021029
H48	H	-0.401395	0.147260	-0.240426
H49	H	-0.873572	-0.000055	0.228245
C50	C	-1.071032	-0.677523	-0.422704
C51	C	-1.068267	-0.584669	-0.422509
H52	H	-1.076307	-0.697868	-0.525041
H53	H	-1.019685	-0.700381	-0.400398
H54	H	-1.118989	-0.697292	-0.342820
H55	H	-1.020305	-0.564900	-0.502386
H56	H	-1.119619	-0.561803	-0.444833
H57	H	-0.900693	-0.576697	-0.473676
C58	C	-1.032614	-0.550345	0.230411
C59	C	-1.041597	-0.584785	0.083236
H60	H	-1.078647	-0.570692	0.313774
H61	H	-0.979592	-0.569611	0.250753
H62	H	-1.033525	-0.487373	0.226522
H63	H	-1.040679	-0.647758	0.087120
H64	H	-1.094632	-0.565524	0.062889
H65	H	-0.579358	-0.060461	0.023369
H66	H	-0.434979	0.059697	0.028337
H67	H	-0.375159	0.088095	-0.431548
C68	C	-0.529294	0.130459	0.105914
C69	C	-0.590124	0.081631	0.047704
H70	H	-0.556176	0.180895	0.162738
H71	H	-0.505753	0.094365	0.176006
H72	H	-0.484707	0.149243	0.018466
H73	H	-0.634709	0.062841	0.135153
H74	H	-0.613679	0.117731	-0.022392
H75	H	-0.834427	-0.422788	-0.328361
H76	H	-0.517762	0.087342	-0.437844
C77	C	-1.006549	-0.357759	-0.484386
C78	C	-1.074596	-0.413862	-0.413857
H79	H	-1.015211	-0.336166	-0.583722
H80	H	-1.004237	-0.309251	-0.414669
H81	H	-0.954049	-0.389818	-0.502624
H82	H	-1.127095	-0.381800	-0.395609
H83	H	-1.076917	-0.462378	-0.483590
H84	H	-0.544238	0.146918	-0.247816
H85	H	-0.519066	-0.089734	-0.436096
H86	H	-0.900686	-0.423898	-0.474458
C87	C	-1.213760	-0.551454	-0.174247
C88	C	-1.139809	-0.586357	-0.136140
H89	H	-1.263198	-0.572842	-0.099785
H90	H	-1.212299	-0.488538	-0.169137
H91	H	-1.215942	-0.569325	-0.279658
H92	H	-1.137624	-0.568481	-0.030732
H93	H	-1.141270	-0.649287	-0.141234
C94	C	-0.415619	-0.081591	-0.587173
C95	C	-0.361016	-0.084321	-0.480823
H96	H	-0.382252	-0.082066	-0.694525
H97	H	-0.452427	-0.131851	-0.569980
H98	H	-0.449199	-0.028994	-0.569153
H99	H	-0.327441	-0.136921	-0.498834
H100	H	-0.324193	-0.034056	-0.498024
H101	H	-1.117893	-0.424488	-0.157299
H102	H	-0.833875	-0.576067	-0.327681
