data_functionalizedCrystal
_audit_creation_method	'MofGen! by Chris Wilmer'
_symmetry_space_group_name_H-M	'P1'
_symmetry_Int_Tables_number	1
_symmetry_cell_setting	triclinic
loop_
_symmetry_equiv_pos_as_xyz
  x,y,z
_cell_length_a	8.559649
_cell_length_b	10.065875
_cell_length_c	8.559649
_cell_angle_alpha	82.450058
_cell_angle_beta	69.778664
_cell_angle_gamma	97.500981
loop_
_atom_site_label
_atom_site_type_symbol
_atom_site_fract_x
_atom_site_fract_y
_atom_site_fract_z
O1	O	2.153539	0.113472	-0.081789
O2	O	1.678055	0.113478	0.001991
O3	O	1.957687	0.113473	-0.277641
O4	O	1.873907	0.113477	0.197843
O5	O	1.904342	-0.113515	-0.224128
O6	O	1.624710	-0.113510	0.055504
O7	O	2.100193	-0.113515	-0.028276
Zn8	Zn	1.853982	-0.149552	0.022110
Zn9	Zn	1.924267	0.149514	-0.048395
O10	O	1.820561	-0.113511	0.251356
C11	C	1.591074	-0.000015	0.035096
C12	C	1.411375	-0.000013	0.053995
N13	N	1.806026	-0.353657	0.070226
C14	C	1.907573	-0.421437	-0.031663
C15	C	1.870676	-0.578604	0.005379
C16	C	2.187176	-0.000019	-0.061382
C17	C	2.366877	-0.000012	-0.080283
C18	C	1.937364	-0.000018	-0.311194
C19	C	1.956265	-0.000011	-0.490895
N20	N	1.972237	0.353619	-0.096525
C21	C	1.840885	-0.000016	0.284908
C22	C	1.821986	-0.000015	0.464607
H23	H	1.466256	-0.000007	-0.209704
C24	C	1.647146	-0.000007	-0.401158
H25	H	1.565436	-0.000021	-0.453165
H26	H	1.652663	0.079150	-0.352412
H27	H	1.615458	-0.079171	-0.315085
C28	C	1.277132	-0.000003	0.228844
H29	H	1.329148	0.000006	0.310546
H30	H	1.191111	-0.079153	0.260597
H31	H	1.228339	0.079168	0.223260
H32	H	2.085690	-0.000023	-0.590280
C33	C	1.716297	-0.657372	0.160258
H34	H	1.657360	-0.594466	0.219367
H35	H	1.753545	-0.713120	0.233531
H36	H	1.642721	-0.713111	0.123408
C37	C	2.061919	-0.342658	-0.186555
H38	H	2.066475	-0.247358	-0.191126
H39	H	2.051825	-0.366014	-0.287080
H40	H	2.162692	-0.365988	-0.176999
C41	C	2.126628	-0.567609	-0.251390
H42	H	2.131198	-0.472310	-0.255953
H43	H	2.116581	-0.590948	-0.351940
H44	H	2.227373	-0.590960	-0.241784
C45	C	1.651656	-0.432430	0.225098
H46	H	1.592718	-0.369525	0.284206
H47	H	1.688904	-0.488178	0.298370
H48	H	1.578079	-0.488169	0.188247
