data_functionalizedCrystal
_audit_creation_method	'MofGen! by Chris Wilmer'
_symmetry_space_group_name_H-M	'P1'
_symmetry_Int_Tables_number	1
_symmetry_cell_setting	triclinic
loop_
_symmetry_equiv_pos_as_xyz
  x,y,z
_cell_length_a	10.868271
_cell_length_b	16.109301
_cell_length_c	16.109301
_cell_angle_alpha	96.538519
_cell_angle_beta	90.006558
_cell_angle_gamma	89.998402
loop_
_atom_site_label
_atom_site_type_symbol
_atom_site_fract_x
_atom_site_fract_y
_atom_site_fract_z
O1	O	0.102248	-1.103132	0.106868
O2	O	0.435582	-0.769798	0.440201
O3	O	0.768915	-0.436465	0.773534
O4	O	0.102268	-0.861070	0.120167
O5	O	0.435602	-0.527736	0.453500
O6	O	0.768935	-0.194403	0.786834
O7	O	0.102245	-0.988750	-0.007514
O8	O	0.435579	-0.655417	0.325820
O9	O	0.768912	-0.322084	0.659153
O10	O	0.102271	-0.975451	0.234548
O11	O	0.435605	-0.642118	0.567882
O12	O	0.768938	-0.308784	0.901215
O13	O	-0.102399	-0.988740	-0.007519
O14	O	0.230934	-0.655406	0.325815
O15	O	0.564267	-0.322073	0.659148
O16	O	-0.102376	-0.861059	0.120162
O17	O	0.230957	-0.527726	0.453495
O18	O	0.564290	-0.194392	0.786829
O19	O	-0.102396	-1.103121	0.106863
O20	O	0.230937	-0.769788	0.440196
O21	O	0.564270	-0.436454	0.773529
Zn22	Zn	-0.134878	-0.982088	0.113512
Zn23	Zn	0.198455	-0.648755	0.446845
Zn24	Zn	0.531789	-0.315422	0.780178
Zn25	Zn	0.134750	-0.982102	0.113518
Zn26	Zn	0.468083	-0.648769	0.446851
Zn27	Zn	0.801417	-0.315436	0.780185
O28	O	-0.102373	-0.975440	0.234543
O29	O	0.230960	-0.642107	0.567877
O30	O	0.564293	-0.308774	0.901210
C31	C	-0.000051	-0.830090	0.119626
C32	C	0.333282	-0.496756	0.452959
C33	C	0.666615	-0.163423	0.786292
C34	C	-0.000044	-0.737794	0.118011
C35	C	0.333289	-0.404461	0.451344
C36	C	0.666622	-0.071128	0.784677
N37	N	-0.318892	-0.982085	0.113507
N38	N	0.014441	-0.648752	0.446840
N39	N	0.347775	-0.315418	0.780173
C40	C	-0.000078	-0.988206	-0.038491
C41	C	0.333256	-0.654873	0.294842
C42	C	0.666589	-0.321540	0.628176
C43	C	-0.000079	-0.986591	-0.130786
C44	C	0.333254	-0.653258	0.202547
C45	C	0.666587	-0.319925	0.535880
C46	C	-0.569898	-0.982098	0.113516
C47	C	-0.236565	-0.648765	0.446850
C48	C	0.096769	-0.315431	0.780183
C49	C	-0.430221	-0.982088	0.113513
C50	C	-0.096887	-0.648755	0.446847
C51	C	0.236446	-0.315421	0.780180
N52	N	0.318764	-0.982112	0.113516
N53	N	0.652098	-0.648779	0.446850
N54	N	0.985431	-0.315446	0.780183
C55	C	-0.000074	-1.134101	0.107404
C56	C	0.333260	-0.800768	0.440737
C57	C	0.666593	-0.467435	0.774071
C58	C	-0.000073	-1.226397	0.109019
C59	C	0.333261	-0.893063	0.442352
C60	C	0.666594	-0.559730	0.775686
C61	C	-0.000051	-0.515522	0.190018
C62	C	0.333283	-0.182188	0.523352
C63	C	0.666616	0.151145	0.856685
C64	C	-0.000059	-0.428801	0.188494
C65	C	0.333275	-0.095468	0.521828
C66	C	0.666608	0.237865	0.855161
C67	C	-0.000070	-0.448676	0.037006
C68	C	0.333263	-0.115342	0.370339
C69	C	0.666597	0.217991	0.703672
C70	C	-0.000071	-0.535394	0.038530
C71	C	0.333263	-0.202061	0.371864
C72	C	0.666596	0.131272	0.705197
C73	C	-0.000055	-0.568815	0.115039
C74	C	0.333278	-0.235482	0.448373
C75	C	0.666612	0.097852	0.781706
C76	C	-0.000062	-0.395376	0.111990
C77	C	0.333271	-0.062042	0.445324
C78	C	0.666604	0.271291	0.778657
C79	C	-0.000071	-0.301350	0.110337
C80	C	0.333262	0.031984	0.443671
C81	C	0.666596	0.365317	0.777004
C82	C	-0.000048	-0.662847	0.116693
C83	C	0.333285	-0.329514	0.450026
C84	C	0.666618	0.003820	0.783359
C85	C	-0.000066	-1.058599	-0.353059
C86	C	0.333268	-0.725266	-0.019725
C87	C	0.666601	-0.391932	0.313608
C88	C	-0.000055	-1.057075	-0.439779
C89	C	0.333278	-0.723742	-0.106446
C90	C	0.666611	-0.390408	0.226888
C91	C	-0.000048	-0.905586	-0.419905
C92	C	0.333286	-0.572253	-0.086571
C93	C	0.666619	-0.238919	0.246762
C94	C	-0.000049	-0.907111	-0.333186
C95	C	0.333284	-0.573778	0.000147
C96	C	0.666618	-0.240444	0.333481
C97	C	-0.000064	-0.983620	-0.299766
C98	C	0.333269	-0.650287	0.033568
C99	C	0.666602	-0.316953	0.366901
C100	C	-0.000053	-0.980571	-0.473205
C101	C	0.333281	-0.647238	-0.139871
C102	C	0.666614	-0.313904	0.193462
C103	C	-0.000042	-0.978918	-0.567231
C104	C	0.333292	-0.645585	-0.233897
C105	C	0.666625	-0.312251	0.099436
C106	C	-0.000073	-0.985273	-0.205734
C107	C	0.333260	-0.651940	0.127600
C108	C	0.666594	-0.318607	0.460933
C109	C	-0.000048	-0.975984	0.265521
C110	C	0.333286	-0.642651	0.598854
C111	C	0.666619	-0.309318	0.932187
C112	C	-0.000038	-0.977600	0.357816
C113	C	0.333295	-0.644266	0.691149
C114	C	0.666629	-0.310933	1.024483
H115	H	-0.000047	-0.542730	0.252317
H116	H	0.333286	-0.209396	0.585650
H117	H	0.666620	0.123937	0.918983
Cl118	Cl	-0.000055	-1.151339	-0.506773
Cl119	Cl	0.333279	-0.818006	-0.173440
Cl120	Cl	0.666612	-0.484672	0.159893
Cl121	Cl	-0.000055	-0.361807	0.282758
Cl122	Cl	0.333278	-0.028474	0.616092
Cl123	Cl	0.666612	0.304859	0.949425
Cl124	Cl	-0.000029	-0.809409	-0.461926
Cl125	Cl	0.333304	-0.476076	-0.128592
Cl126	Cl	0.666638	-0.142742	0.204741
Cl127	Cl	-0.000037	-0.812844	-0.266184
Cl128	Cl	0.333297	-0.479510	0.067150
Cl129	Cl	0.666630	-0.146177	0.400483
H130	H	-0.000090	-0.421454	-0.025285
H131	H	0.333243	-0.088121	0.308048
H132	H	0.666576	0.245213	0.641381
H133	H	-0.000075	-1.120897	-0.325851
H134	H	0.333258	-0.787564	0.007482
H135	H	0.666591	-0.454231	0.340816
Cl136	Cl	-0.000086	-0.602397	-0.055737
Cl137	Cl	0.333247	-0.269064	0.277596
Cl138	Cl	0.666581	0.064270	0.610930
