data_functionalizedCrystal
_audit_creation_method	'MofGen! by Chris Wilmer'
_symmetry_space_group_name_H-M	'P1'
_symmetry_Int_Tables_number	1
_symmetry_cell_setting	triclinic
loop_
_symmetry_equiv_pos_as_xyz
  x,y,z
_cell_length_a	12.594516
_cell_length_b	15.298073
_cell_length_c	15.298259
_cell_angle_alpha	88.414782
_cell_angle_beta	80.291854
_cell_angle_gamma	80.323180
loop_
_atom_site_label
_atom_site_type_symbol
_atom_site_fract_x
_atom_site_fract_y
_atom_site_fract_z
Zn1	Zn	-0.019575	-1.253478	-0.727478
Zn2	Zn	-0.222347	-1.278729	-0.581007
Zn3	Zn	-0.079414	-1.132336	-0.555627
Zn4	Zn	-0.232577	-1.106977	-0.702038
O5	O	-0.138478	-1.192880	-0.641537
O6	O	-0.017148	-1.379404	-0.729316
O7	O	-0.224148	-1.280490	-0.455069
O8	O	0.077484	-1.148451	-0.578449
O9	O	-0.166124	-1.397956	-0.621705
O10	O	0.121448	-1.237453	-0.704706
O11	O	-0.119136	-1.172936	-0.436422
O12	O	-0.129056	-1.006396	-0.553780
O13	O	-0.183561	-1.105230	-0.827984
O14	O	-0.241585	-0.987764	-0.661348
O15	O	-0.027068	-1.212863	-0.846675
O16	O	-0.372664	-1.255900	-0.597037
O17	O	-0.380180	-1.129715	-0.685958
C18	C	-0.192925	-0.965297	-0.602050
C19	C	-0.216239	-0.867933	-0.585178
C20	C	0.027930	-0.554783	-0.762084
C21	C	0.049833	-0.646261	-0.777941
C22	C	-0.016683	-0.701684	-0.729752
C23	C	-0.105106	-0.665619	-0.665702
C24	C	-0.127016	-0.574131	-0.649848
C25	C	-0.171629	-0.721031	-0.617516
C26	C	-0.260052	-0.684967	-0.553466
C27	C	-0.281958	-0.593488	-0.537615
C28	C	-0.215442	-0.538066	-0.585805
C29	C	-0.149719	-0.812519	-0.633370
C30	C	-0.304665	-0.831867	-0.521134
C31	C	-0.326568	-0.740389	-0.505277
C32	C	-0.415037	-1.192816	-0.641514
C33	C	-0.533326	-1.192864	-0.641547
C34	C	-0.677463	-1.124285	-0.689890
C35	C	-0.583812	-1.200423	-0.725226
C36	C	-0.625397	-1.116727	-0.606251
C37	C	-0.650403	-1.269175	-0.676989
C38	C	-0.692014	-1.185431	-0.557969
C39	C	-0.598386	-1.261630	-0.593284
C40	C	0.139169	-1.192964	-0.641584
C41	C	0.257486	-1.193001	-0.641604
C42	C	-0.099781	-1.153401	-0.870000
C43	C	-0.083290	-1.136578	-0.967357
C44	C	-0.083812	-0.421353	-0.681171
C45	C	-0.060496	-0.518718	-0.698041
C46	C	-0.255512	-1.313149	-1.280616
C47	C	-0.271013	-1.328951	-1.189143
C48	C	-0.224084	-1.280859	-1.133692
C49	C	-0.161650	-1.216962	-1.169723
C50	C	-0.146154	-1.201154	-1.261203
C51	C	-0.114726	-1.168864	-1.114280
C52	C	-0.052293	-1.104967	-1.150310
C53	C	-0.036799	-1.089162	-1.241782
C54	C	-0.083729	-1.137254	-1.297233
C55	C	-0.130222	-1.184673	-1.022799
C56	C	-0.020864	-1.072678	-1.003386
C57	C	-0.005363	-1.056876	-1.094859
C58	C	-0.176936	-1.232256	-0.413973
C59	C	-0.193086	-1.249249	-0.316646
H60	H	0.001159	-0.776169	-0.742664
H61	H	-0.353965	-0.564126	-0.485468
C62	C	-0.609533	-1.029663	-0.565887
N63	N	-0.597589	-0.964083	-0.535490
C64	C	-0.198880	-1.254970	-0.983179
N65	N	-0.250591	-1.307927	-0.953339
C66	C	0.063307	-0.986587	-1.134504
N67	N	0.115029	-0.933645	-1.164365
H68	H	-0.236710	-1.293728	-1.059212
C69	C	0.147103	-0.685927	-0.848387
N70	N	0.220375	-0.715804	-0.901447
H71	H	0.014027	-1.037125	-1.271113
H72	H	-0.358832	-0.876992	-0.481898
H73	H	0.082072	-0.509650	-0.801318
C74	C	-0.423836	-0.700705	-0.434828
N75	N	-0.497099	-0.670814	-0.381766
H76	H	-0.738954	-1.179053	-0.487278
C77	C	-0.551895	-1.340132	-0.538109
N78	N	-0.516869	-1.399262	-0.496559
C79	C	-0.239530	-0.437433	-0.568364
N80	N	-0.257671	-0.361635	-0.555230
H81	H	-0.712019	-1.066286	-0.730796
H82	H	-0.321859	-1.380967	-1.159813
H83	H	-0.293725	-1.352292	-1.325770
H84	H	-0.077723	-0.841874	-0.685519
H85	H	-0.071108	-1.124393	-1.371718
H86	H	0.017349	-1.033517	-0.958237
H87	H	-0.536898	-1.206775	-0.795932
H88	H	-0.662001	-1.333627	-0.706946
