data_functionalizedCrystal
_audit_creation_method	'MofGen! by Chris Wilmer'
_symmetry_space_group_name_H-M	'P1'
_symmetry_Int_Tables_number	1
_symmetry_cell_setting	triclinic
loop_
_symmetry_equiv_pos_as_xyz
  x,y,z
_cell_length_a	16.625548
_cell_length_b	16.625545
_cell_length_c	16.625539
_cell_angle_alpha	90.026243
_cell_angle_beta	90.017055
_cell_angle_gamma	90.026626
loop_
_atom_site_label
_atom_site_type_symbol
_atom_site_fract_x
_atom_site_fract_y
_atom_site_fract_z
Zn1	Zn	1.232635	-0.320992	0.455910
Zn2	Zn	1.482635	-0.070992	0.705910
Zn3	Zn	1.732635	0.179008	0.955910
Zn4	Zn	1.982635	0.429008	1.205910
Zn5	Zn	1.232539	-0.455831	0.321078
Zn6	Zn	1.482539	-0.205831	0.571078
Zn7	Zn	1.732539	0.044169	0.821078
Zn8	Zn	1.982539	0.294169	1.071078
Zn9	Zn	1.097805	-0.321018	0.321091
Zn10	Zn	1.347805	-0.071018	0.571091
Zn11	Zn	1.597805	0.178982	0.821091
Zn12	Zn	1.847805	0.428982	1.071091
Zn13	Zn	1.097760	-0.455789	0.455868
Zn14	Zn	1.347760	-0.205789	0.705868
Zn15	Zn	1.597760	0.044211	0.955868
Zn16	Zn	1.847760	0.294211	1.205868
O17	O	1.165185	-0.388408	0.388487
O18	O	1.415185	-0.138408	0.638487
O19	O	1.665185	0.111592	0.888487
O20	O	1.915185	0.361592	1.138487
O21	O	1.345455	-0.338885	0.438037
O22	O	1.595455	-0.088885	0.688037
O23	O	1.845455	0.161115	0.938037
O24	O	2.095455	0.411115	1.188037
O25	O	1.214645	-0.437976	0.208247
O26	O	1.464645	-0.187976	0.458247
O27	O	1.714645	0.062024	0.708247
O28	O	1.964645	0.312024	0.958247
O29	O	1.115750	-0.208182	0.338998
O30	O	1.365750	0.041818	0.588998
O31	O	1.615750	0.291818	0.838998
O32	O	1.865750	0.541818	1.088998
O33	O	1.345384	-0.437951	0.338976
O34	O	1.595384	-0.187951	0.588976
O35	O	1.845384	0.062049	0.838976
O36	O	2.095384	0.312049	1.088976
O37	O	1.214809	-0.208163	0.438049
O38	O	1.464809	0.041837	0.688049
O39	O	1.714809	0.291837	0.938049
O40	O	1.964809	0.541837	1.188049
O41	O	1.115657	-0.338930	0.208257
O42	O	1.365657	-0.088930	0.458257
O43	O	1.615657	0.161070	0.708257
O44	O	1.865657	0.411070	0.958257
O45	O	0.984967	-0.338889	0.338957
O46	O	1.234967	-0.088889	0.588957
O47	O	1.484967	0.161111	0.838957
O48	O	1.734967	0.411111	1.088957
O49	O	1.115673	-0.437879	0.568706
O50	O	1.365673	-0.187879	0.818706
O51	O	1.615673	0.062121	1.068706
O52	O	1.865673	0.312121	1.318706
O53	O	0.984934	-0.437905	0.437977
O54	O	1.234934	-0.187905	0.687977
O55	O	1.484934	0.062095	0.937977
O56	O	1.734934	0.312095	1.187977
O57	O	1.214765	-0.338845	0.568737
O58	O	1.464765	-0.088845	0.818737
O59	O	1.714765	0.161155	1.068737
O60	O	1.964765	0.411155	1.318737
O61	O	1.214602	-0.568658	0.338935
O62	O	1.464602	-0.318658	0.588935
O63	O	1.714602	-0.068658	0.838935
O64	O	1.964602	0.181342	1.088935
O65	O	1.115580	-0.568627	0.437965
O66	O	1.365580	-0.318627	0.687965
O67	O	1.615580	-0.068627	0.937965
O68	O	1.865580	0.181373	1.187965
C69	C	0.955694	-0.388396	0.388464
C70	C	1.205694	-0.138396	0.638464
C71	C	1.455694	0.111604	0.888464
C72	C	1.705694	0.361604	1.138464
C73	C	0.866073	-0.388410	0.388474
C74	C	1.116073	-0.138410	0.638474
C75	C	1.366073	0.111590	0.888474
C76	C	1.616073	0.361590	1.138474
C77	C	0.537897	-0.388416	0.388508
C78	C	0.787897	-0.138416	0.638508
C79	C	1.037897	0.111584	0.888508
C80	C	1.287897	0.361584	1.138508
C81	C	0.629206	-0.388412	0.388496
C82	C	0.879206	-0.138412	0.638496
C83	C	1.129206	0.111588	0.888496
C84	C	1.379206	0.361588	1.138496
C85	C	0.701982	-0.388414	0.388490
C86	C	0.951982	-0.138414	0.638490
C87	C	1.201982	0.111586	0.888490
C88	C	1.451982	0.361586	1.138490
C89	C	0.793297	-0.388409	0.388480
C90	C	1.043297	-0.138409	0.638480
C91	C	1.293297	0.111591	0.888480
C92	C	1.543297	0.361591	1.138480
C93	C	1.165097	-0.597898	0.388461
C94	C	1.415097	-0.347898	0.638461
C95	C	1.665097	-0.097898	0.888461
C96	C	1.915097	0.152102	1.138461
C97	C	1.165134	-0.687520	0.388478
C98	C	1.415134	-0.437520	0.638478
C99	C	1.665134	-0.187520	0.888478
C100	C	1.915134	0.062480	1.138478
C101	C	1.165165	-0.760302	0.388494
C102	C	1.415165	-0.510302	0.638494
C103	C	1.665165	-0.260302	0.888494
C104	C	1.915165	-0.010302	1.138494
C105	C	1.165212	-0.851610	0.388511
C106	C	1.415212	-0.601610	0.638511
C107	C	1.665212	-0.351610	0.888511
C108	C	1.915212	-0.101610	1.138511
C109	C	1.165254	-0.924387	0.388522
C110	C	1.415254	-0.674387	0.638522
C111	C	1.665254	-0.424387	0.888522
C112	C	1.915254	-0.174387	1.138522
C113	C	1.165300	-1.015701	0.388538
C114	C	1.415300	-0.765701	0.638538
C115	C	1.665300	-0.515701	0.888538
C116	C	1.915300	-0.265701	1.138538
C117	C	1.375494	-0.388420	0.388510
C118	C	1.625494	-0.138420	0.638510
C119	C	1.875494	0.111580	0.888510
C120	C	2.125494	0.361580	1.138510
C121	C	1.465115	-0.388425	0.388520
C122	C	1.715115	-0.138425	0.638520
C123	C	1.965115	0.111575	0.888520
C124	C	2.215115	0.361575	1.138520
C125	C	1.165225	-0.388354	0.598796
C126	C	1.415225	-0.138354	0.848796
C127	C	1.665225	0.111646	1.098796
C128	C	1.915225	0.361646	1.348796
C129	C	1.165241	-0.388332	0.688417
C130	C	1.415241	-0.138332	0.938417
C131	C	1.665241	0.111668	1.188417
C132	C	1.915241	0.361668	1.438417
C133	C	1.165295	-0.178099	0.388530
C134	C	1.415295	0.071901	0.638530
C135	C	1.665295	0.321901	0.888530
C136	C	1.915295	0.571901	1.138530
C137	C	1.165342	-0.088477	0.388548
C138	C	1.415342	0.161523	0.638548
C139	C	1.665342	0.411523	0.888548
C140	C	1.915342	0.661523	1.138548
C141	C	1.165192	-0.388402	0.178996
C142	C	1.415192	-0.138402	0.428996
C143	C	1.665192	0.111598	0.678996
C144	C	1.915192	0.361598	0.928996
C145	C	1.165331	-0.388198	0.089375
C146	C	1.415331	-0.138198	0.339375
C147	C	1.665331	0.111802	0.589375
C148	C	1.915331	0.361802	0.839375
C149	C	1.165255	-0.388314	0.761200
C150	C	1.415255	-0.138314	1.011200
C151	C	1.665255	0.111686	1.261200
C152	C	1.915255	0.361686	1.511200
C153	C	1.165273	-0.388284	0.852508
C154	C	1.415273	-0.138284	1.102508
C155	C	1.665273	0.111716	1.352508
C156	C	1.915273	0.361716	1.602508
C157	C	1.165292	-0.388255	0.925285
C158	C	1.415292	-0.138255	1.175285
C159	C	1.665292	0.111745	1.425285
C160	C	1.915292	0.361745	1.675285
C161	C	1.165312	-0.388226	1.016599
C162	C	1.415312	-0.138226	1.266599
C163	C	1.665312	0.111774	1.516599
C164	C	1.915312	0.361774	1.766599
