data_functionalizedCrystal
_audit_creation_method	'MofGen! by Chris Wilmer'
_symmetry_space_group_name_H-M	'P1'
_symmetry_Int_Tables_number	1
_symmetry_cell_setting	triclinic
loop_
_symmetry_equiv_pos_as_xyz
  x,y,z
_cell_length_a	17.639617
_cell_length_b	13.897447
_cell_length_c	13.897433
_cell_angle_alpha	89.929755
_cell_angle_beta	78.738166
_cell_angle_gamma	101.205126
loop_
_atom_site_label
_atom_site_type_symbol
_atom_site_fract_x
_atom_site_fract_y
_atom_site_fract_z
Zn1	Zn	1.208891	-0.085561	-0.844167
Zn2	Zn	1.208735	-0.247037	-0.682833
Zn3	Zn	1.076614	-0.118330	-0.650193
Zn4	Zn	1.076659	-0.279416	-0.811443
O5	O	1.142725	-0.182586	-0.747159
O6	O	1.319502	-0.079717	-0.850120
O7	O	1.191125	-0.230126	-0.543501
O8	O	1.094207	0.021010	-0.675959
O9	O	1.319388	-0.198352	-0.731589
O10	O	1.191390	0.045085	-0.818470
O11	O	1.094057	-0.135566	-0.519520
O12	O	0.965988	-0.166962	-0.644228
O13	O	1.094284	-0.253538	-0.950787
O14	O	0.966020	-0.285312	-0.762698
O15	O	1.191433	-0.111114	-0.974828
O16	O	1.191169	-0.386325	-0.699859
O17	O	1.094133	-0.410114	-0.794348
C18	C	0.937318	-0.233207	-0.696371
C19	C	0.849444	-0.254886	-0.674666
C20	C	0.560707	-0.017870	-0.912284
C21	C	0.478136	-0.038265	-0.891870
C22	C	0.478039	-0.161596	-0.768266
C23	C	0.560612	-0.141214	-0.788673
C24	C	0.601939	-0.069350	-0.860682
C25	C	0.601844	-0.192694	-0.737071
C26	C	0.684409	-0.172310	-0.757473
C27	C	0.725742	-0.100447	-0.829477
C28	C	0.684504	-0.048966	-0.881085
C29	C	0.560515	-0.264553	-0.665057
C30	C	0.601747	-0.316032	-0.613455
C31	C	0.684314	-0.295654	-0.633862
C32	C	0.725647	-0.223791	-0.705866
C33	C	0.725552	-0.347135	-0.582255
C34	C	0.808117	-0.326751	-0.602657
C35	C	0.808212	-0.203407	-0.726268
C36	C	1.142660	-0.433216	-0.747121
C37	C	1.142705	-0.540419	-0.747154
C38	C	1.142743	-0.627479	-0.747186
C39	C	1.142799	-0.736698	-0.747224
C40	C	1.348933	-0.131768	-0.798146
C41	C	1.436807	-0.110112	-0.819873
C42	C	1.142881	-0.182282	-0.998791
C43	C	1.142947	-0.182153	-1.106022
C44	C	1.142811	0.069028	-0.747224
C45	C	1.142848	0.176251	-0.747251
C46	C	1.142615	-0.182807	-0.496517
C47	C	1.142701	-0.182627	-0.389325
C48	C	1.142877	-0.182300	-0.193074
C49	C	1.142782	-0.182484	-0.302282
H50	H	0.718156	0.009550	-0.939725
H51	H	0.841689	-0.368671	-0.560638
H52	H	0.594358	0.040646	-0.970925
N53	N	0.436030	0.014309	-0.944618
N54	N	0.472943	0.078453	-1.008922
H55	H	0.443206	0.115575	-1.046184
H56	H	0.444379	-0.220105	-0.709633
H57	H	0.493285	-0.281125	-0.648427
H58	H	0.568087	-0.374541	-0.554822
N59	N	0.683332	-0.420520	-0.508684
N60	N	0.637224	-0.397925	-0.435880
H61	H	0.607406	-0.449753	-0.383917
H62	H	0.792972	-0.083848	-0.846084
N63	N	0.850425	-0.129989	-0.799820
N64	N	0.841204	-0.043255	-0.791297
H65	H	0.871017	0.008596	-0.843238
