data_functionalizedCrystal
_audit_creation_method	'MofGen! by Chris Wilmer'
_symmetry_space_group_name_H-M	'P1'
_symmetry_Int_Tables_number	1
_symmetry_cell_setting	triclinic
loop_
_symmetry_equiv_pos_as_xyz
  x,y,z
_cell_length_a	10.654562
_cell_length_b	27.732048
_cell_length_c	9.730223
_cell_angle_alpha	89.993532
_cell_angle_beta	89.996961
_cell_angle_gamma	96.433620
loop_
_atom_site_label
_atom_site_type_symbol
_atom_site_fract_x
_atom_site_fract_y
_atom_site_fract_z
O1	O	1.664970	-0.067913	-0.114354
O2	O	1.299222	-0.074374	-0.114334
O3	O	1.493455	-0.000818	-0.114363
O4	O	1.470736	-0.141469	-0.114325
O5	O	1.493453	-0.000820	0.114217
O6	O	1.299219	-0.074376	0.114246
O7	O	1.664968	-0.067915	0.114226
Zn8	Zn	1.482093	-0.071146	0.150528
Zn9	Zn	1.482096	-0.071143	-0.150636
O10	O	1.470734	-0.141471	0.114255
C11	C	1.252443	-0.073900	-0.000042
C12	C	1.113060	-0.072476	-0.000036
C13	C	1.047556	-0.071813	0.124552
C14	C	0.916590	-0.070480	0.124529
C15	C	0.916643	-0.070474	-0.124682
C16	C	1.047608	-0.071804	-0.124657
C17	C	1.113009	-0.072485	0.249173
C18	C	1.047504	-0.071823	0.373771
C19	C	0.916538	-0.070490	0.373748
C20	C	0.851076	-0.069818	0.249126
C21	C	1.471212	-0.159480	-0.000031
C22	C	1.472648	-0.213144	-0.000017
C23	C	1.366909	-0.551299	-0.000078
C24	C	1.372237	-0.752992	-0.000095
O25	O	1.275547	-0.783643	-0.000150
N26	N	1.487410	-0.772835	-0.000099
C27	C	1.601258	-0.742251	-0.000108
O28	O	1.699342	-0.763757	-0.000126
C29	C	1.595929	-0.540559	-0.000101
C30	C	1.480749	-0.520719	-0.000083
C31	C	1.251739	-0.531458	-0.000061
C32	C	1.250408	-0.481038	-0.000050
C33	C	1.364248	-0.450458	-0.000055
C34	C	1.479418	-0.470299	-0.000071
C35	C	1.709776	-0.509976	-0.000120
C36	C	1.708433	-0.459551	-0.000122
C37	C	1.593254	-0.439711	-0.000104
C38	C	1.591927	-0.389299	-0.000064
N39	N	1.476755	-0.369456	-0.000060
C40	C	1.362915	-0.400036	-0.000055
C41	C	1.604048	-0.848143	-0.000109
C42	C	1.605381	-0.898565	-0.000108
C43	C	1.376359	-0.909303	-0.000097
C44	C	1.375028	-0.858879	-0.000088
C45	C	1.488876	-0.828300	-0.000105
C46	C	1.360129	-0.294149	-0.000030
C47	C	1.358808	-0.243724	-0.000012
C48	C	1.587829	-0.232991	-0.000030
C49	C	1.589151	-0.283412	-0.000040
C50	C	1.475290	-0.313990	-0.000045
O51	O	1.688566	-0.358618	-0.000025
O52	O	1.264846	-0.378521	-0.000068
C53	C	1.368240	-0.601719	-0.000090
C54	C	1.483411	-0.621560	-0.000106
C55	C	1.597250	-0.590980	-0.000111
C56	C	1.484743	-0.671982	-0.000105
C57	C	1.370904	-0.702562	-0.000101
C58	C	1.255731	-0.682719	-0.000096
C59	C	1.254400	-0.632299	-0.000085
C60	C	1.712423	-0.610823	-0.000115
C61	C	1.713744	-0.661244	-0.000125
C62	C	1.599904	-0.691823	-0.000120
C63	C	1.711746	-0.068390	-0.000069
C64	C	1.851129	-0.069813	-0.000084
C65	C	1.492977	0.017191	-0.000080
C66	C	1.491541	0.070855	-0.000103
N67	N	1.482100	-0.071147	0.356064
N68	N	1.482099	-0.071138	-0.356172
C69	C	1.568128	-0.038588	0.427978
C70	C	1.568125	-0.038582	0.571861
C71	C	1.396062	-0.103699	0.571904
C72	C	1.396060	-0.103702	0.428024
C73	C	1.654169	-0.006032	0.356018
C74	C	1.740204	0.026530	0.427932
C75	C	1.740201	0.026536	0.571815
C76	C	1.654162	-0.006020	0.643784
H77	H	1.100942	-0.072346	-0.226108
H78	H	1.100813	-0.072366	0.475233
H79	H	1.810247	0.053052	0.630365
F80	F	0.846971	-0.069757	-0.257303
H81	H	1.680514	-0.208084	-0.000028
F82	F	1.252393	-0.073907	0.249208
H83	H	1.265011	-0.227573	0.000009
F84	F	0.846828	-0.069781	0.506353
H85	H	1.267413	-0.319040	-0.000034
F86	F	1.654182	-0.006038	0.202886
H87	H	1.696762	-0.823249	-0.000120
F88	F	1.252440	-0.837768	-0.000071
F89	F	1.711737	-0.304528	-0.000016
F90	F	1.831759	0.061180	0.351336
H91	H	1.654159	-0.006010	0.760943
F92	F	1.829610	-0.427009	-0.000144
H93	H	1.326013	-0.130206	0.630511
H94	H	1.160609	-0.616150	-0.000069
F95	F	1.304495	-0.138356	0.351487
F96	F	1.130564	-0.563997	-0.000061
F97	F	0.711693	-0.068388	0.249108
F98	F	1.134575	-0.715273	-0.000085
F99	F	1.127817	-0.459929	-0.000043
H100	H	1.699172	-0.914714	-0.000101
H101	H	1.807544	-0.677392	-0.000129
H102	H	1.283667	-0.934209	-0.000087
H103	H	1.803568	-0.526121	-0.000136
H104	H	1.805127	-0.585929	-0.000121
