data_functionalizedCrystal
_audit_creation_method	'MofGen! by Chris Wilmer'
_symmetry_space_group_name_H-M	'P1'
_symmetry_Int_Tables_number	1
_symmetry_cell_setting	triclinic
loop_
_symmetry_equiv_pos_as_xyz
  x,y,z
_cell_length_a	21.395362
_cell_length_b	21.395364
_cell_length_c	21.395355
_cell_angle_alpha	89.974702
_cell_angle_beta	89.979451
_cell_angle_gamma	90.046492
loop_
_atom_site_label
_atom_site_type_symbol
_atom_site_fract_x
_atom_site_fract_y
_atom_site_fract_z
Zn1	Zn	0.249232	-0.957863	0.354265
Zn2	Zn	0.582565	-0.624530	0.687598
Zn3	Zn	0.915899	-0.291197	1.020932
Zn4	Zn	0.353992	-0.957767	0.249484
Zn5	Zn	0.687325	-0.624434	0.582817
Zn6	Zn	1.020658	-0.291101	0.916151
Zn7	Zn	0.249263	-0.853078	0.249500
Zn8	Zn	0.582596	-0.519745	0.582834
Zn9	Zn	0.915929	-0.186412	0.916167
Zn10	Zn	0.354006	-0.853049	0.354223
Zn11	Zn	0.687339	-0.519716	0.687556
Zn12	Zn	1.020673	-0.186382	1.020889
O13	O	0.301623	-0.905439	0.301868
O14	O	0.634956	-0.572106	0.635201
O15	O	0.968290	-0.238773	0.968535
O16	O	0.263110	-1.045528	0.340376
O17	O	0.596443	-0.712195	0.673710
O18	O	0.929776	-0.378862	1.007043
O19	O	0.340106	-0.943852	0.161808
O20	O	0.673439	-0.610519	0.495142
O21	O	1.006773	-0.277186	0.828475
O22	O	0.161581	-0.867030	0.263422
O23	O	0.494914	-0.533697	0.596756
O24	O	0.828247	-0.200364	0.930089
O25	O	0.340076	-1.045458	0.263394
O26	O	0.673410	-0.712125	0.596728
O27	O	1.006743	-0.378791	0.930061
O28	O	0.161558	-0.944016	0.340393
O29	O	0.494891	-0.610682	0.673726
O30	O	0.828225	-0.277349	1.007059
O31	O	0.263162	-0.866938	0.161820
O32	O	0.596495	-0.533604	0.495154
O33	O	0.929829	-0.200271	0.828487
O34	O	0.263176	-0.765396	0.263381
O35	O	0.596509	-0.432063	0.596715
O36	O	0.929843	-0.098730	0.930048
O37	O	0.340101	-0.866981	0.441906
O38	O	0.673434	-0.533647	0.775240
O39	O	1.006767	-0.200314	1.108573
O40	O	0.340131	-0.765375	0.340320
O41	O	0.673464	-0.432042	0.673654
O42	O	1.006797	-0.098708	1.006987
O43	O	0.263124	-0.943987	0.441937
O44	O	0.596457	-0.610654	0.775271
O45	O	0.929790	-0.277321	1.108604
O46	O	0.441672	-0.943824	0.263353
O47	O	0.775005	-0.610491	0.596686
O48	O	1.108338	-0.277157	0.930020
O49	O	0.441682	-0.866888	0.340304
O50	O	0.775015	-0.533555	0.673638
O51	O	1.108349	-0.200221	1.006971
C52	C	0.301659	-0.742652	0.301848
C53	C	0.634992	-0.409319	0.635182
C54	C	0.968325	-0.075985	0.968515
C55	C	0.301689	-0.673011	0.301855
C56	C	0.635022	-0.339677	0.635188
C57	C	0.968355	-0.006344	0.968521
C58	C	0.261679	-0.640356	0.342001
C59	C	0.595012	-0.307023	0.675334
C60	C	0.928346	0.026310	1.008668
C61	C	0.261664	-0.574921	0.342003
C62	C	0.594998	-0.241588	0.675336
C63	C	0.928331	0.091746	1.008669
C64	C	0.301671	-0.542142	0.301864
C65	C	0.635004	-0.208809	0.635198
C66	C	0.968337	0.124524	0.968531
C67	C	0.341683	-0.574804	0.261710
C68	C	0.675017	-0.241471	0.595044
C69	C	1.008350	0.091862	0.928377
C70	C	0.341692	-0.640238	0.261706
C71	C	0.675026	-0.306905	0.595039
C72	C	1.008359	0.026428	0.928372
C73	C	0.358098	-0.438419	0.296824
C74	C	0.691432	-0.105085	0.630157
C75	C	1.024765	0.228248	0.963490
C76	C	0.358090	-0.372986	0.296833
C77	C	0.691424	-0.039653	0.630166
C78	C	1.024757	0.293681	0.963499
C79	C	0.301642	-0.340322	0.301876
C80	C	0.634976	-0.006988	0.635209
C81	C	0.968309	0.326345	0.968542
C82	C	0.245200	-0.373098	0.306923
C83	C	0.578534	-0.039765	0.640256
C84	C	0.911867	0.293568	0.973589
C85	C	0.245210	-0.438532	0.306918
C86	C	0.578543	-0.105199	0.640251
C87	C	0.911876	0.228134	0.973584
C88	C	0.301665	-0.471190	0.301865
C89	C	0.634998	-0.137857	0.635198
C90	C	0.968332	0.195477	0.968532
C91	C	0.261613	-0.236715	0.342026
C92	C	0.594946	0.096618	0.675359
C93	C	0.928280	0.429952	1.008692
C94	C	0.261597	-0.171278	0.342023
C95	C	0.594931	0.162055	0.675356
C96	C	0.928264	0.495388	1.008690
C97	C	0.341622	-0.171163	0.261734
C98	C	0.674955	0.162171	0.595068
C99	C	1.008289	0.495504	0.928401
C100	C	0.341632	-0.236598	0.261734
C101	C	0.674966	0.096735	0.595067
C102	C	1.008299	0.430069	0.928400
C103	C	0.301629	-0.269370	0.301883
C104	C	0.634962	0.063963	0.635216
C105	C	0.968295	0.397296	0.968550
C106	C	0.464411	-0.905359	0.301836
C107	C	0.797744	-0.572026	0.635169
C108	C	1.131077	-0.238693	0.968503
C109	C	0.534052	-0.905382	0.301843
C110	C	0.867385	-0.572049	0.635176
C111	C	1.200719	-0.238716	0.968510
C112	C	0.138200	-0.905537	0.301914
C113	C	0.471533	-0.572204	0.635247
C114	C	0.804866	-0.238870	0.968581
C115	C	0.068558	-0.905579	0.301934
C116	C	0.401892	-0.572245	0.635267
C117	C	0.735225	-0.238912	0.968600
C118	C	0.566696	-0.945446	0.341950
C119	C	0.900030	-0.612112	0.675283
C120	C	1.233363	-0.278779	1.008617
C121	C	0.632132	-0.945468	0.341965
C122	C	0.965465	-0.612134	0.675299
C123	C	1.298799	-0.278801	1.008632
C124	C	0.664920	-0.905433	0.301863
C125	C	0.998254	-0.572100	0.635196
C126	C	1.331587	-0.238766	0.968529
C127	C	0.632268	-0.865362	0.261753
C128	C	0.965601	-0.532029	0.595086
C129	C	1.298935	-0.198695	0.928419
C130	C	0.566834	-0.865337	0.261743
C131	C	0.900167	-0.532003	0.595076
C132	C	1.233500	-0.198670	0.928410
C133	C	0.768622	-0.900556	0.245424
C134	C	1.101955	-0.567223	0.578757
C135	C	1.435289	-0.233889	0.912090
C136	C	0.834055	-0.900586	0.245432
C137	C	1.167388	-0.567252	0.578766
C138	C	1.500722	-0.233919	0.912099
C139	C	0.866741	-0.905507	0.301893
C140	C	1.200074	-0.572174	0.635226
C141	C	1.533408	-0.238841	0.968560
C142	C	0.833986	-0.910413	0.358346
C143	C	1.167319	-0.577079	0.691680
C144	C	1.500653	-0.243746	1.025013
C145	C	0.768552	-0.910387	0.358337
C146	C	1.101885	-0.577054	0.691670
C147	C	1.435219	-0.243721	1.025003
C148	C	0.735873	-0.905456	0.301869
C149	C	1.069206	-0.572122	0.635202
C150	C	1.402539	-0.238789	0.968536
C151	C	0.970338	-0.945597	0.342020
C152	C	1.303671	-0.612263	0.675353
C153	C	1.637005	-0.278930	1.008686
C154	C	1.035775	-0.945614	0.342036
C155	C	1.369108	-0.612281	0.675369
C156	C	1.702441	-0.278948	1.008703
C157	C	1.035909	-0.865512	0.261818
C158	C	1.369243	-0.532179	0.595151
C159	C	1.702576	-0.198845	0.928485
C160	C	0.970474	-0.865491	0.261807
C161	C	1.303807	-0.532158	0.595141
C162	C	1.637141	-0.198824	0.928474
C163	C	0.937692	-0.905537	0.301907
C164	C	1.271026	-0.572203	0.635241
C165	C	1.604359	-0.238870	0.968574
C166	C	0.301610	-0.905491	0.465291
C167	C	0.634944	-0.572158	0.798625
C168	C	0.968277	-0.238825	1.131958
C169	C	0.301605	-0.905514	0.534933
C170	C	0.634938	-0.572180	0.868266
C171	C	0.968272	-0.238847	1.201599
C172	C	0.301596	-0.068863	0.301885
C173	C	0.634929	0.264471	0.635218
C174	C	0.968262	0.597804	0.968552
C175	C	0.301604	-0.138504	0.301884
C176	C	0.634937	0.194829	0.635217
C177	C	0.968270	0.528163	0.968550
C178	C	0.301591	-0.905424	0.139080
C179	C	0.634924	-0.572090	0.472414
C180	C	0.968257	-0.238757	0.805747
C181	C	0.301419	-0.905523	0.069440
C182	C	0.634753	-0.572190	0.402773
C183	C	0.968086	-0.238856	0.736106
C184	C	0.261521	-0.945609	0.567663
C185	C	0.594855	-0.612276	0.900996
C186	C	0.928188	-0.278943	1.234330
C187	C	0.261494	-0.945608	0.633098
C188	C	0.594828	-0.612275	0.966432
C189	C	0.928161	-0.278942	1.299765
C190	C	0.301562	-0.905519	0.665801
C191	C	0.634896	-0.572185	0.999134
C192	C	0.968229	-0.238852	1.332468
C193	C	0.341649	-0.865415	0.633063
C194	C	0.674982	-0.532082	0.966396
C195	C	1.008315	-0.198749	1.299729
C196	C	0.341670	-0.865413	0.567629
C197	C	0.675003	-0.532079	0.900962
C198	C	1.008337	-0.198746	1.234295
C199	C	0.357979	-0.900543	0.769465
C200	C	0.691312	-0.567210	1.102798
C201	C	1.024646	-0.233877	1.436131
C202	C	0.357959	-0.900550	0.834898
C203	C	0.691292	-0.567217	1.168231
C204	C	1.024625	-0.233884	1.501564
C205	C	0.301496	-0.905522	0.867622
C206	C	0.634829	-0.572189	1.200955
C207	C	0.968163	-0.238856	1.534289
C208	C	0.245052	-0.910501	0.834905
C209	C	0.578385	-0.577167	1.168239
C210	C	0.911719	-0.243834	1.501572
C211	C	0.245073	-0.910498	0.769471
C212	C	0.578407	-0.577165	1.102804
C213	C	0.911740	-0.243832	1.436138
C214	C	0.301543	-0.905516	0.736753
C215	C	0.634877	-0.572183	1.070087
C216	C	0.968210	-0.238850	1.403420
C217	C	0.261380	-0.945619	0.971305
C218	C	0.594713	-0.612286	1.304638
C219	C	0.928046	-0.278953	1.637972
C220	C	0.261352	-0.945614	1.036742
C221	C	0.594685	-0.612281	1.370075
C222	C	0.928018	-0.278947	1.703408
C223	C	0.341512	-0.865424	1.036705
C224	C	0.674845	-0.532091	1.370038
C225	C	1.008178	-0.198757	1.703371
C226	C	0.341534	-0.865426	0.971269
C227	C	0.674868	-0.532093	1.304603
C228	C	1.008201	-0.198759	1.637936
C229	C	0.301469	-0.905527	0.938573
C230	C	0.634802	-0.572194	1.271907
C231	C	0.968136	-0.238860	1.605240
H232	H	0.229036	-0.263399	0.374714
H233	H	0.562369	0.069934	0.708047
H234	H	0.895702	0.403267	1.041380
C235	C	0.668051	-0.989539	0.386081
C236	C	1.001385	-0.656206	0.719415
C237	C	1.334718	-0.322873	1.052748
H238	H	0.711717	-0.983816	0.380345
H239	H	1.045050	-0.650482	0.713679
H240	H	1.378383	-0.317149	1.047012
H241	H	0.657283	-1.031637	0.376947
H242	H	0.990616	-0.698303	0.710280
H243	H	1.323949	-0.364970	1.043614
H244	H	0.657320	-0.980345	0.428173
H245	H	0.990653	-0.647012	0.761506
H246	H	1.323987	-0.313678	1.094839
H247	H	0.199115	-0.914550	0.742836
H248	H	0.532448	-0.581217	1.076169
H249	H	0.865781	-0.247884	1.409503
C250	C	0.420196	-0.474343	0.291281
C251	C	0.753529	-0.141010	0.624614
C252	C	1.086863	0.192323	0.957947
H253	H	0.453808	-0.445453	0.288287
H254	H	0.787142	-0.112120	0.621620
H255	H	1.120475	0.221214	0.954953
H256	H	0.419337	-0.499854	0.254964
H257	H	0.752671	-0.166521	0.588297
H258	H	1.086004	0.166813	0.921630
H259	H	0.425755	-0.499879	0.327184
H260	H	0.759088	-0.166546	0.660517
H261	H	1.092422	0.166787	0.993850
C262	C	0.870082	-0.895183	0.183340
C263	C	1.203416	-0.561850	0.516673
C264	C	1.536749	-0.228516	0.850006
H265	H	0.913733	-0.895908	0.191430
H266	H	1.247067	-0.562575	0.524764
H267	H	1.580400	-0.229242	0.858097
H268	H	0.859413	-0.857042	0.163277
H269	H	1.192746	-0.523708	0.496610
H270	H	1.526080	-0.190375	0.829943
H271	H	0.859333	-0.929274	0.157007
H272	H	1.192666	-0.595941	0.490341
H273	H	1.525999	-0.262607	0.823674
C274	C	0.385766	-0.821310	0.531621
C275	C	0.719099	-0.487976	0.864954
C276	C	1.052432	-0.154643	1.198288
H277	H	0.380038	-0.827049	0.487968
H278	H	0.713371	-0.493715	0.821301
H279	H	1.046704	-0.160382	1.154634
H280	H	0.427858	-0.830451	0.542348
H281	H	0.761191	-0.497118	0.875681
H282	H	1.094524	-0.163785	1.209015
H283	H	0.376596	-0.779215	0.542325
H284	H	0.709929	-0.445882	0.875659
H285	H	1.043262	-0.112549	1.208992
H286	H	0.228850	-0.978258	0.659753
H287	H	0.562183	-0.644924	0.993086
H288	H	0.895517	-0.311591	1.326419
H289	H	0.229104	-0.667036	0.374693
H290	H	0.562438	-0.333702	0.708026
H291	H	0.895771	-0.000369	1.041360
H292	H	0.658968	-0.832764	0.229102
H293	H	0.992302	-0.499431	0.562436
H294	H	1.325635	-0.166098	0.895769
C295	C	0.217659	-0.538994	0.386172
C296	C	0.550992	-0.205661	0.719505
C297	C	0.884325	0.127673	1.052839
H298	H	0.193840	-0.567884	0.410086
H299	H	0.527173	-0.234550	0.743419
H300	H	0.860506	0.098783	1.076752
H301	H	0.190318	-0.513477	0.362264
H302	H	0.523651	-0.180144	0.695597
H303	H	0.856985	0.153190	1.028931
H304	H	0.241677	-0.513464	0.413427
H305	H	0.575010	-0.180131	0.746760
H306	H	0.908343	0.153203	1.080094
C307	C	0.385650	-0.272519	0.217579
C308	C	0.718984	0.060814	0.550912
C309	C	1.052317	0.394147	0.884246
H310	H	0.409479	-0.243628	0.193677
H311	H	0.742812	0.089706	0.527011
H312	H	1.076146	0.423039	0.860344
H313	H	0.361648	-0.298056	0.190322
H314	H	0.694982	0.035278	0.523655
H315	H	1.028315	0.368611	0.856988
H316	H	0.412991	-0.298029	0.241500
H317	H	0.746324	0.035304	0.574834
H318	H	1.079658	0.368637	0.908167
H319	H	0.199235	-0.346504	0.311029
H320	H	0.532568	-0.013171	0.644363
H321	H	0.865902	0.320162	0.977696
C322	C	0.869931	-0.915829	0.420456
C323	C	1.203265	-0.582496	0.753789
C324	C	1.536598	-0.249162	1.087123
H325	H	0.913593	-0.915135	0.412380
H326	H	1.246926	-0.581802	0.745713
H327	H	1.580259	-0.248469	1.079046
H328	H	0.859153	-0.953959	0.440523
H329	H	1.192486	-0.620626	0.773856
H330	H	1.525819	-0.287292	1.107189
H331	H	0.859233	-0.881725	0.446779
H332	H	1.192567	-0.548392	0.780112
H333	H	1.525900	-0.215059	1.113445
H334	H	1.062353	-0.978238	0.374699
H335	H	1.395686	-0.644905	0.708032
H336	H	1.729019	-0.311572	1.041365
H337	H	0.199253	-0.465216	0.311025
H338	H	0.532586	-0.131883	0.644359
H339	H	0.865919	0.201450	0.977692
H340	H	0.229013	-0.144692	0.374714
H341	H	0.562346	0.188641	0.708047
H342	H	0.895679	0.521974	1.041380
C343	C	0.385632	-0.821325	0.935264
C344	C	0.718965	-0.487992	1.268597
C345	C	1.052298	-0.154658	1.601931
H346	H	0.409495	-0.797451	0.964110
H347	H	0.742828	-0.464118	1.297444
H348	H	1.076161	-0.130784	1.630777
H349	H	0.361678	-0.794040	0.909727
H350	H	0.695012	-0.460706	1.243061
H351	H	1.028345	-0.127373	1.576394
H352	H	0.412937	-0.845279	0.909748
H353	H	0.746271	-0.511946	1.243081
H354	H	1.079604	-0.178613	1.576415
C355	C	0.385692	-0.538751	0.217562
C356	C	0.719025	-0.205417	0.550896
C357	C	1.052359	0.127916	0.884229
H358	H	0.379961	-0.495103	0.223320
H359	H	0.713295	-0.161770	0.556653
H360	H	1.046628	0.171564	0.889987
H361	H	0.376464	-0.549459	0.175480
H362	H	0.709797	-0.216125	0.508814
H363	H	1.043130	0.117208	0.842147
H364	H	0.427806	-0.549441	0.226659
H365	H	0.761139	-0.216108	0.559993
H366	H	1.094473	0.117226	0.893326
C367	C	0.182977	-0.916378	0.870892
C368	C	0.516310	-0.583044	1.204226
C369	C	0.849643	-0.249711	1.537559
H370	H	0.191056	-0.915783	0.914548
H371	H	0.524389	-0.582450	1.247881
H372	H	0.857723	-0.249117	1.581214
H373	H	0.163212	-0.954632	0.860034
H374	H	0.496546	-0.621299	1.193367
H375	H	0.829879	-0.287966	1.526700
H376	H	0.156381	-0.882454	0.860305
H377	H	0.489714	-0.549121	1.193639
H378	H	0.823048	-0.215788	1.526972
H379	H	1.062605	-0.832911	0.229169
H380	H	1.395938	-0.499578	0.562503
H381	H	1.729272	-0.166244	0.895836
C382	C	0.385711	-0.676159	0.217548
C383	C	0.719044	-0.342826	0.550882
C384	C	1.052377	-0.009493	0.884215
H385	H	0.409539	-0.647268	0.193645
H386	H	0.742872	-0.313935	0.526978
H387	H	1.076205	0.019398	0.860312
H388	H	0.361710	-0.701698	0.190292
H389	H	0.695043	-0.368365	0.523626
H390	H	1.028376	-0.035032	0.856959
H391	H	0.413052	-0.701667	0.241472
H392	H	0.746385	-0.368334	0.574805
H393	H	1.079719	-0.035000	0.908138
H394	H	0.540254	-0.832712	0.229083
H395	H	0.873587	-0.499378	0.562416
H396	H	1.206921	-0.166045	0.895749
C397	C	0.217446	-0.989713	0.531701
C398	C	0.550780	-0.656380	0.865034
C399	C	0.884113	-0.323047	1.198368
H400	H	0.193566	-1.013589	0.560570
H401	H	0.526900	-0.680256	0.893903
H402	H	0.860233	-0.346923	1.227236
H403	H	0.241415	-1.016997	0.506183
H404	H	0.574748	-0.683664	0.839517
H405	H	0.908082	-0.350330	1.172850
H406	H	0.190156	-0.965757	0.506169
H407	H	0.523489	-0.632424	0.839502
H408	H	0.856823	-0.299091	1.172835
C409	C	0.217307	-0.989721	0.935334
C410	C	0.550641	-0.656388	1.268667
C411	C	0.883974	-0.323055	1.602000
H412	H	0.223067	-0.983984	0.891675
H413	H	0.556400	-0.650651	1.225009
H414	H	0.889734	-0.317317	1.558342
H415	H	0.175208	-0.980578	0.946052
H416	H	0.508541	-0.647244	1.279386
H417	H	0.841874	-0.313911	1.612719
H418	H	0.226468	-1.031816	0.946077
H419	H	0.559802	-0.698482	1.279410
H420	H	0.893135	-0.365149	1.612744
H421	H	0.741884	-0.914380	0.404302
H422	H	1.075218	-0.581046	0.737636
H423	H	1.408551	-0.247713	1.070969
H424	H	0.540007	-0.978051	0.374603
H425	H	0.873341	-0.644718	0.707937
H426	H	1.206674	-0.311385	1.041270
C427	C	0.934275	-0.989625	0.386146
C428	C	1.267609	-0.656291	0.719479
C429	C	1.600942	-0.322958	1.052813
H430	H	0.963092	-1.013478	0.410046
H431	H	1.296425	-0.680145	0.743380
H432	H	1.629758	-0.346811	1.076713
H433	H	0.908723	-1.016932	0.362214
H434	H	1.242057	-0.683599	0.695547
H435	H	1.575390	-0.350266	1.028880
H436	H	0.908771	-0.965617	0.413415
H437	H	1.242104	-0.632283	0.746749
H438	H	1.575437	-0.298950	1.080082
H439	H	0.374196	-0.144475	0.229053
H440	H	0.707529	0.188858	0.562386
H441	H	1.040863	0.522192	0.895720
C442	C	0.420080	-0.894937	0.733474
C443	C	0.753413	-0.561604	1.066807
C444	C	1.086747	-0.228271	1.400141
H445	H	0.453688	-0.891941	0.762329
H446	H	0.787022	-0.558607	1.095662
H447	H	1.120355	-0.225274	1.428995
H448	H	0.419192	-0.858585	0.707984
H449	H	0.752526	-0.525252	1.041317
H450	H	1.085859	-0.191919	1.374650
H451	H	0.425671	-0.930797	0.707913
H452	H	0.759004	-0.597463	1.041246
H453	H	1.092337	-0.264130	1.374579
C454	C	0.385725	-0.821321	0.669033
C455	C	0.719059	-0.487987	1.002366
C456	C	1.052392	-0.154654	1.335699
H457	H	0.379977	-0.827069	0.712691
H458	H	0.713310	-0.493736	1.046025
H459	H	1.046644	-0.160403	1.379358
H460	H	0.376570	-0.779227	0.658295
H461	H	0.709904	-0.445894	0.991628
H462	H	1.043237	-0.112561	1.324962
H463	H	0.427826	-0.830470	0.658309
H464	H	0.761159	-0.497137	0.991642
H465	H	1.094493	-0.163803	1.324976
C466	C	0.217258	-0.989722	1.072745
C467	C	0.550591	-0.656389	1.406078
C468	C	0.883924	-0.323055	1.739412
H469	H	0.193406	-1.013606	1.043898
H470	H	0.526739	-0.680273	1.377232
H471	H	0.860072	-0.346940	1.710565
H472	H	0.189952	-0.965775	1.098261
H473	H	0.523285	-0.632442	1.431595
H474	H	0.856618	-0.299108	1.764928
H475	H	0.241218	-1.017007	1.098282
H476	H	0.574551	-0.683674	1.431615
H477	H	0.907885	-0.350340	1.764948
C478	C	0.420171	-0.336935	0.291286
C479	C	0.753505	-0.003601	0.624619
C480	C	1.086838	0.329732	0.957953
H481	H	0.412083	-0.293287	0.292020
H482	H	0.745417	0.040047	0.625354
H483	H	1.078750	0.373380	0.958687
H484	H	0.440150	-0.347617	0.253105
H485	H	0.773484	-0.014283	0.586438
H486	H	1.106817	0.319050	0.919771
H487	H	0.446578	-0.347654	0.325324
H488	H	0.779912	-0.014320	0.658657
H489	H	1.113245	0.319013	0.991990
H490	H	0.943893	-0.832871	0.229146
H491	H	1.277226	-0.499537	0.562479
H492	H	1.610560	-0.166204	0.895812
C493	C	0.385590	-0.821330	1.072669
C494	C	0.718923	-0.487997	1.406003
C495	C	1.052257	-0.154663	1.739336
H496	H	0.379841	-0.827077	1.116328
H497	H	0.713174	-0.493744	1.449661
H498	H	1.046507	-0.160410	1.782995
H499	H	0.376439	-0.779236	1.061930
H500	H	0.709772	-0.445903	1.395264
H501	H	1.043105	-0.112570	1.728597
H502	H	0.427690	-0.830483	1.061947
H503	H	0.761023	-0.497150	1.395280
H504	H	1.094357	-0.163816	1.728613
H505	H	0.403919	-0.896500	0.861530
H506	H	0.737252	-0.563167	1.194864
H507	H	1.070586	-0.229834	1.528197
H508	H	0.742014	-0.896546	0.199444
H509	H	1.075348	-0.563212	0.532777
H510	H	1.408681	-0.229879	0.866110
