data_functionalizedCrystal
_audit_creation_method	'MofGen! by Chris Wilmer'
_symmetry_space_group_name_H-M	'P1'
_symmetry_Int_Tables_number	1
_symmetry_cell_setting	triclinic
loop_
_symmetry_equiv_pos_as_xyz
  x,y,z
_cell_length_a	13.635800
_cell_length_b	19.960554
_cell_length_c	17.078453
_cell_angle_alpha	80.717672
_cell_angle_beta	80.694390
_cell_angle_gamma	57.523150
loop_
_atom_site_label
_atom_site_type_symbol
_atom_site_fract_x
_atom_site_fract_y
_atom_site_fract_z
V1	V	2.081125	-0.245693	0.094524
O2	O	2.130105	-0.241100	-0.020233
O3	O	2.002068	-0.243932	0.202515
O4	O	2.111267	-0.352885	0.086185
O5	O	2.020150	-0.131393	0.096903
V6	V	2.323006	-0.232032	0.081611
O7	O	2.211493	-0.275661	0.122849
O8	O	2.417736	-0.202064	0.053286
O9	O	2.290459	-0.233793	-0.026381
O10	O	2.332724	-0.236625	0.196368
O11	O	2.442679	-0.346332	0.079232
O12	O	2.181260	-0.124840	0.089950
V13	V	2.581125	-0.245693	0.094524
O14	O	2.630105	-0.241100	-0.020233
O15	O	2.502068	-0.243932	0.202515
O16	O	2.611267	-0.352885	0.086185
O17	O	2.520150	-0.131393	0.096903
V18	V	2.823006	-0.232032	0.081611
O19	O	2.711493	-0.275661	0.122849
O20	O	2.917736	-0.202064	0.053286
O21	O	2.790459	-0.233793	-0.026381
O22	O	2.832724	-0.236625	0.196368
O23	O	2.942679	-0.346332	0.079232
O24	O	2.681260	-0.124840	0.089950
C25	C	1.909465	-0.240035	0.229057
C26	C	1.885832	-0.239310	0.317297
C27	C	1.824252	-0.166784	0.351888
C28	C	1.802053	-0.166092	0.434799
C29	C	1.841429	-0.237926	0.483116
C30	C	1.903018	-0.310457	0.448520
C31	C	1.925223	-0.311149	0.365611
C32	C	2.048759	-0.379015	0.080664
C33	C	2.113682	-0.466645	0.074561
C34	C	2.133548	-0.519016	0.143652
C35	C	2.194555	-0.601353	0.137916
C36	C	2.235688	-0.631317	0.063088
C37	C	2.215821	-0.578939	-0.006008
C38	C	2.154822	-0.496604	-0.000271
C39	C	2.419268	-0.876362	0.038214
C40	C	2.480267	-0.958704	0.032482
C41	C	2.458999	-0.981113	0.176406
C42	C	2.397994	-0.898774	0.182136
C43	C	2.378138	-0.846404	0.113041
N44	N	2.298044	-0.715479	0.057223
N45	N	2.315790	-0.762244	0.118907
C46	C	2.214730	-0.237687	-0.052918
C47	C	2.227984	-0.238418	-0.141157
C48	C	2.575436	-0.098706	0.095473
C49	C	2.500134	-0.011075	0.101572
C50	C	2.320563	-0.234828	-0.186410
C51	C	2.333000	-0.235502	-0.269322
C52	C	2.252861	-0.239771	-0.306979
C53	C	2.160272	-0.243358	-0.261720
C54	C	2.147832	-0.242679	-0.178811
C55	C	2.280803	-0.242218	-0.554535
C56	C	2.293253	-0.242900	-0.637451
C57	C	2.465979	-0.235042	-0.645046
C58	C	2.453534	-0.234368	-0.562134
C59	C	2.360944	-0.237951	-0.516884
N60	N	2.265574	-0.240462	-0.391727
N61	N	2.348228	-0.237254	-0.432137
C62	C	2.409465	-0.240035	0.229057
C63	C	2.385832	-0.239310	0.317297
C64	C	2.075436	-0.098706	0.095473
C65	C	2.000134	-0.011075	0.101572
C66	C	2.548759	-0.379015	0.080664
C67	C	2.613682	-0.466645	0.074561
C68	C	2.714730	-0.237687	-0.052918
C69	C	2.727984	-0.238418	-0.141157
C70	C	1.878482	0.026073	0.108142
C71	C	1.807714	0.108412	0.113863
C72	C	1.858600	0.153600	0.113021
C73	C	1.980264	0.116447	0.106449
C74	C	2.051029	0.034110	0.100722
C75	C	2.735261	-0.511811	0.075401
C76	C	2.796279	-0.594148	0.069656
C77	C	2.735716	-0.631316	0.063077
C78	C	2.614126	-0.586143	0.062234
C79	C	2.553111	-0.503808	0.067974
C80	C	2.820569	-0.234825	-0.186397
C81	C	2.833025	-0.235499	-0.269309
C82	C	2.752901	-0.239770	-0.306980
C83	C	2.660306	-0.243361	-0.261735
C84	C	2.647846	-0.242682	-0.178825
H85	H	1.792176	-0.108286	0.312557
C86	C	2.546001	-0.246645	-0.129069
N87	N	2.469287	-0.249632	-0.091597
H88	H	2.908428	-0.232576	-0.306137
C89	C	1.992947	-0.390937	0.327570
N90	N	2.043955	-0.451037	0.298922
C91	C	2.216374	-0.658958	0.213920
N92	N	2.232797	-0.702345	0.271170
C93	C	2.036222	0.166165	0.105527
N94	N	2.078367	0.203616	0.104837
H95	H	2.150085	0.003870	0.095378
C96	C	2.205086	-0.247593	-0.678872
N97	N	2.138682	-0.251128	-0.710070
H98	H	2.205392	-0.245112	-0.517704
C99	C	2.352762	-0.865822	0.264453
N100	N	2.318693	-0.841002	0.326455
C101	C	1.822480	-0.023618	0.109064
N102	N	1.780290	-0.061040	0.109753
H103	H	2.072459	-0.245618	-0.141965
C104	C	2.261064	-0.611902	-0.088319
N105	N	2.295134	-0.636728	-0.150319
H106	H	1.751900	-0.107026	0.462954
H107	H	2.138650	-0.453963	-0.056532
H108	H	1.800964	0.220642	0.117695
H109	H	2.454112	-0.467039	0.067290
H110	H	2.895282	-0.630917	0.070347
H111	H	1.823339	-0.237351	0.550625
H112	H	2.784594	-0.481560	0.080760
C113	C	2.547534	-0.627028	0.054909
N114	N	2.497384	-0.657821	0.049363
H115	H	1.708653	0.138650	0.119214
C116	C	2.434908	-0.231629	-0.319089
N117	N	2.511690	-0.228738	-0.356570
H118	H	2.785412	-0.698360	0.058404
C119	C	2.908717	-0.230120	-0.144975
N120	N	2.975112	-0.226569	-0.113783
H121	H	2.385828	-0.231357	-0.155755
C122	C	2.480857	-1.038726	0.252406
N123	N	2.497326	-1.082122	0.309653
H124	H	1.935074	-0.368942	0.487873
H125	H	2.100054	-0.494626	0.204584
H126	H	2.513780	-0.983097	-0.028454
H127	H	2.403108	-0.833731	-0.018049
H128	H	2.763060	-0.240322	-0.374492
C129	C	2.541694	-0.229669	-0.520718
N130	N	2.608098	-0.226132	-0.489524
H131	H	2.541363	-0.232123	-0.681898
C132	C	2.072113	-0.248047	-0.303147
N133	N	2.005709	-0.251579	-0.334348
H134	H	2.595073	-0.246838	-0.292420
