data_functionalizedCrystal
_audit_creation_method	'MofGen! by Chris Wilmer'
_symmetry_space_group_name_H-M	'P1'
_symmetry_Int_Tables_number	1
_symmetry_cell_setting	triclinic
loop_
_symmetry_equiv_pos_as_xyz
  x,y,z
_cell_length_a	10.489716
_cell_length_b	10.489741
_cell_length_c	8.965430
_cell_angle_alpha	89.999293
_cell_angle_beta	90.003477
_cell_angle_gamma	84.534155
loop_
_atom_site_label
_atom_site_type_symbol
_atom_site_fract_x
_atom_site_fract_y
_atom_site_fract_z
O1	O	1.694072	0.179809	0.124026
O2	O	1.322872	0.196735	0.124032
O3	O	1.516918	0.002673	0.124020
O4	O	1.500025	0.373871	0.124038
O5	O	1.516902	0.002686	-0.124059
O6	O	1.322856	0.196748	-0.124047
O7	O	1.694055	0.179822	-0.124052
Cu8	Cu	1.508454	0.188286	-0.146701
Cu9	Cu	1.508473	0.188271	0.146681
O10	O	1.500009	0.373884	-0.124041
C11	C	1.275332	0.195470	-0.000007
C12	C	1.133701	0.191665	-0.000005
C13	C	1.036027	0.310669	0.000005
C14	C	0.958673	0.247791	-0.122321
C15	C	0.958695	0.247750	0.122265
C16	C	1.058212	0.128837	-0.122431
C17	C	1.058240	0.128813	0.122265
C18	C	0.980935	0.065848	-0.000091
C19	C	1.515634	-0.044852	-0.000018
C20	C	1.511817	-0.186481	-0.000016
C21	C	1.388351	-0.254610	-0.000003
C22	C	1.446667	-0.346731	-0.122319
C23	C	1.446712	-0.346719	0.122267
C24	C	1.570184	-0.276737	-0.122433
C25	C	1.570212	-0.276714	0.122263
C26	C	1.628618	-0.368808	-0.000083
C27	C	1.741596	0.181087	-0.000010
C28	C	1.883227	0.184892	-0.000002
C29	C	1.501293	0.421409	0.000001
C30	C	1.505110	0.563038	0.000008
N31	N	1.508450	0.188296	-0.353050
C32	C	1.418682	0.278013	-0.450351
C33	C	1.534179	0.303814	-0.549765
C34	C	1.393000	0.162507	-0.549764
C35	C	1.624006	0.214155	-0.450275
C36	C	1.482751	0.072797	-0.450266
C37	C	1.598331	0.098549	-0.549635
N38	N	1.508488	0.188251	0.353030
H39	H	1.101743	0.078609	0.225680
H40	H	1.622416	-0.245680	0.225677
C41	C	1.639914	-0.235477	-0.260298
C42	C	1.746771	-0.174100	-0.216815
C43	C	1.811022	-0.136056	-0.343773
H44	H	1.667065	-0.308598	-0.318730
H45	H	1.583860	-0.178159	-0.317474
H46	H	1.802815	-0.231415	-0.159663
H47	H	1.719657	-0.100965	-0.158400
H48	H	1.754968	-0.078738	-0.400949
H49	H	1.838164	-0.209184	-0.402197
H50	H	1.883524	-0.094398	-0.314288
H51	H	0.915219	0.298006	0.225667
H52	H	1.060696	0.414185	-0.000105
C53	C	1.376845	-0.387826	0.260104
C54	C	1.251124	-0.329449	0.259528
C55	C	1.186721	-0.367267	0.386482
H56	H	1.375455	-0.478237	0.259726
H57	H	1.419823	-0.362644	0.347001
H58	H	1.208157	-0.354639	0.172654
H59	H	1.252476	-0.239039	0.259928
H60	H	1.229699	-0.342085	0.473378
H61	H	1.185341	-0.457677	0.386092
H62	H	1.101417	-0.327654	0.386114
H63	H	0.956505	-0.037744	-0.000166
C64	C	0.900478	0.314919	-0.260017
C65	C	0.812715	0.417002	-0.216260
C66	C	0.759072	0.478870	-0.343055
H67	H	0.966323	0.346581	-0.318102
H68	H	0.857753	0.255975	-0.317617
H69	H	0.855439	0.475936	-0.158685
H70	H	0.746846	0.385376	-0.158193
H71	H	0.716347	0.419926	-0.400655
H72	H	0.824926	0.510524	-0.401130
H73	H	0.699511	0.548133	-0.313383
H74	H	1.295351	0.140714	-0.593468
H75	H	1.674345	0.022655	-0.592955
H76	H	1.460952	-0.024828	-0.406527
H77	H	1.101521	0.078634	-0.225950
H78	H	1.730222	-0.418241	-0.000153
C79	C	1.252973	-0.188450	-0.000463
C80	C	1.188913	-0.223727	-0.128835
C81	C	1.064211	-0.162792	-0.129327
H82	H	1.208517	-0.213366	0.085449
H83	H	1.256296	-0.098260	0.000343
H84	H	1.185583	-0.313898	-0.129627
H85	H	1.233329	-0.198810	-0.214767
H86	H	1.067534	-0.072601	-0.128521
H87	H	1.019767	-0.187712	-0.043409
H88	H	1.020734	-0.186709	-0.216431
H89	H	1.394419	-0.377733	-0.225728
C90	C	1.754326	0.243146	-0.392302
C91	C	1.848153	0.149584	-0.443707
C92	C	1.968201	0.176252	-0.390292
H93	H	1.772916	0.324864	-0.427150
H94	H	1.753528	0.242960	-0.286338
H95	H	1.848954	0.149782	-0.549649
H96	H	1.829605	0.067856	-0.408862
H97	H	1.967403	0.176067	-0.284327
H98	H	1.986777	0.257973	-0.425143
H99	H	2.031875	0.112770	-0.425150
C100	C	1.317715	0.379460	-0.392285
C101	C	1.345257	0.500163	-0.442673
C102	C	1.252294	0.593649	-0.389193
H103	H	1.235801	0.362138	-0.427774
H104	H	1.317903	0.378335	-0.286324
H105	H	1.345056	0.501286	-0.548612
H106	H	1.427155	0.517527	-0.407187
H107	H	1.252481	0.592524	-0.283232
H108	H	1.170385	0.576314	-0.424686
H109	H	1.270974	0.675557	-0.423362
H110	H	1.555942	0.401469	-0.593469
