data_functionalizedCrystal
_audit_creation_method	'MofGen! by Chris Wilmer'
_symmetry_space_group_name_H-M	'P1'
_symmetry_Int_Tables_number	1
_symmetry_cell_setting	triclinic
loop_
_symmetry_equiv_pos_as_xyz
  x,y,z
_cell_length_a	15.995343
_cell_length_b	15.944551
_cell_length_c	15.072220
_cell_angle_alpha	89.997918
_cell_angle_beta	89.991823
_cell_angle_gamma	83.493961
loop_
_atom_site_label
_atom_site_type_symbol
_atom_site_fract_x
_atom_site_fract_y
_atom_site_fract_z
O1	O	1.111006	0.108233	-0.073695
O2	O	1.611006	0.608233	0.426305
O3	O	0.867231	0.121610	-0.073717
O4	O	1.367231	0.621610	0.426283
O5	O	0.995775	-0.007354	-0.073698
O6	O	1.495775	0.492646	0.426302
O7	O	0.982461	0.237197	-0.073715
O8	O	1.482461	0.737197	0.426285
O9	O	0.995743	-0.007347	0.073868
O10	O	1.495743	0.492653	0.573868
O11	O	0.867199	0.121617	0.073848
O12	O	1.367199	0.621617	0.573848
O13	O	1.110974	0.108240	0.073870
O14	O	1.610974	0.608240	0.573870
Zn15	Zn	0.989081	0.114930	0.097288
Zn16	Zn	1.489081	0.614930	0.597288
Zn17	Zn	0.989123	0.114920	-0.097135
Zn18	Zn	1.489123	0.614920	0.402865
O19	O	0.982430	0.237204	0.073850
O20	O	1.482430	0.737204	0.573850
C21	C	0.836020	0.121061	0.000063
C22	C	1.336020	0.621061	0.500063
C23	C	0.743069	0.119407	0.000055
C24	C	1.243069	0.619407	0.500055
C25	C	0.572882	0.116404	0.000067
C26	C	1.072882	0.616404	0.500067
C27	C	0.549532	0.023312	0.000073
C28	C	1.049532	0.523312	0.500073
C29	C	0.452853	0.021560	0.000414
C30	C	0.952853	0.521560	0.500414
C31	C	0.405322	0.113446	0.000078
C32	C	0.905322	0.613446	0.500078
C33	C	0.434398	0.160258	0.084174
C34	C	0.934398	0.660258	0.584174
C35	C	0.531191	0.161362	0.084239
C36	C	1.031191	0.661362	0.584239
C37	C	0.531138	0.162717	-0.083576
C38	C	1.031138	0.662717	0.416424
C39	C	0.434643	0.159281	-0.084676
C40	C	0.934643	0.659281	0.415324
C41	C	0.310624	0.111779	0.000087
C42	C	0.810624	0.611779	0.500087
C43	C	0.667580	0.118073	0.000064
C44	C	1.167580	0.618073	0.500064
C45	C	0.995207	-0.038644	0.000085
C46	C	1.495207	0.461356	0.500085
C47	C	0.993550	-0.131890	0.000085
C48	C	1.493550	0.368110	0.500085
C49	C	0.909911	-0.346740	0.000066
C50	C	1.409911	0.153260	0.500066
C51	C	0.948734	-0.407757	0.072828
C52	C	1.448734	0.092243	0.572828
C53	C	0.990552	-0.302616	0.000078
C54	C	1.490552	0.197384	0.500078
C55	C	0.948785	-0.407747	-0.072660
C56	C	1.448785	0.092253	0.427340
C57	C	0.987650	-0.467528	0.000068
C58	C	1.487650	0.032472	0.500068
C59	C	1.029397	-0.362405	0.072900
C60	C	1.529397	0.137595	0.572900
C61	C	1.029436	-0.362389	-0.072653
C62	C	1.529436	0.137611	0.427347
C63	C	1.068318	-0.423388	0.000127
C64	C	1.568318	0.076612	0.500127
C65	C	0.992221	-0.207614	0.000085
C66	C	1.492221	0.292386	0.500085
C67	C	0.985987	-0.562529	0.000067
C68	C	1.485987	-0.062529	0.500067
C69	C	1.142185	0.108788	0.000088
C70	C	1.642185	0.608788	0.500088
C71	C	1.235136	0.110443	0.000090
C72	C	1.735136	0.610443	0.500090
C73	C	0.982998	0.268494	0.000066
C74	C	1.482998	0.768494	0.500066
C75	C	0.984655	0.361740	0.000060
C76	C	1.484655	0.861740	0.500060
N77	N	0.989059	0.114936	0.229977
N78	N	1.489059	0.614936	0.729977
N79	N	0.989152	0.114908	-0.229824
N80	N	1.489152	0.614908	0.270176
C81	C	0.989122	0.114917	0.589178
C82	C	1.489122	0.614917	1.089178
C83	C	0.920109	0.183691	0.551561
C84	C	1.420109	0.683691	1.051561
C85	C	0.920267	0.183943	0.448735
C86	C	1.420267	0.683943	0.948735
C87	C	0.989090	0.114926	0.410974
C88	C	1.489090	0.614926	0.910974
C89	C	1.076456	0.134066	0.448272
C90	C	1.576456	0.634066	0.948272
C91	C	1.076069	0.134555	0.551130
C92	C	1.576069	0.634555	1.051130
C93	C	0.971547	0.026799	0.551283
C94	C	1.471547	0.526799	1.051283
C95	C	0.969543	0.027386	0.448419
C96	C	1.469543	0.527386	0.948419
C97	C	0.989077	0.114930	0.310261
C98	C	1.489077	0.614930	0.810261
C99	C	0.989140	0.114915	0.689892
C100	C	1.489140	0.614915	1.189892
H101	H	0.433845	-0.015084	-0.059857
H102	H	0.933845	0.484916	0.440143
H103	H	1.092312	0.197598	0.422500
H104	H	1.592312	0.697598	0.922500
F105	F	0.890071	0.002755	0.585223
F106	F	1.390071	0.502755	1.085223
H107	H	0.402555	0.227883	0.087061
H108	H	0.902555	0.727883	0.587061
F109	F	0.568102	0.124323	-0.166919
F110	F	1.068102	0.624323	0.333081
F111	F	0.550247	0.250591	0.088924
F112	F	1.050247	0.750591	0.588924
H113	H	0.577550	-0.012774	-0.060223
H114	H	1.077550	0.487226	0.439777
H115	H	0.842975	-0.313427	0.000133
H116	H	1.342975	0.186573	0.500133
F117	F	0.904137	-0.434033	0.153225
F118	F	1.404137	0.065967	0.653225
H119	H	0.905275	0.012861	0.424043
H120	H	1.405275	0.512861	0.924043
F121	F	1.037328	-0.040098	0.583079
F122	F	1.537328	0.459902	1.083079
H123	H	0.434402	-0.014906	0.061055
H124	H	0.934402	0.485094	0.561055
F125	F	0.934583	0.268685	0.585314
F126	F	1.434583	0.768685	1.085314
H127	H	1.063463	-0.342414	0.134482
H128	H	1.563463	0.157586	0.634482
H129	H	0.931490	0.249334	0.424118
H130	H	1.431490	0.749334	0.924118
H131	H	1.135313	-0.456553	0.000174
H132	H	1.635313	0.043447	0.500174
F133	F	0.835373	0.169081	0.415774
F134	F	1.335373	0.669081	0.915774
H135	H	0.914679	-0.427824	-0.134179
H136	H	1.414679	0.072176	0.365821
F137	F	0.587394	-0.023082	0.078787
F138	F	1.087394	0.476918	0.578787
H139	H	0.557961	0.129328	0.147346
H140	H	1.057961	0.629328	0.647346
F141	F	1.073998	-0.336083	-0.153053
F142	F	1.573998	0.163917	0.346947
H143	H	0.414291	0.128145	0.147001
H144	H	0.914291	0.628145	0.647001
F145	F	0.834947	0.169023	0.583902
F146	F	1.334947	0.669023	1.083902
H147	H	0.416097	0.125190	-0.146891
H148	H	0.916097	0.625190	0.353109
F149	F	0.391580	0.246918	-0.091657
F150	F	0.891580	0.746918	0.408343
F151	F	1.145149	0.071506	0.583656
F152	F	1.645149	0.571506	1.083656
H153	H	1.016542	-0.026190	0.422719
H154	H	1.516542	0.473810	0.922719
H155	H	1.091555	0.198819	0.575108
H156	H	1.591555	0.698819	1.075108
F157	F	0.549429	0.252289	-0.084623
F158	F	1.049429	0.752289	0.415377
F159	F	1.145186	0.070334	0.416304
F160	F	1.645186	0.570334	0.916304
