data_functionalizedCrystal
_audit_creation_method	'MofGen! by Chris Wilmer'
_symmetry_space_group_name_H-M	'P1'
_symmetry_Int_Tables_number	1
_symmetry_cell_setting	triclinic
loop_
_symmetry_equiv_pos_as_xyz
  x,y,z
_cell_length_a	15.711784
_cell_length_b	8.559649
_cell_length_c	7.088929
_cell_angle_alpha	95.344185
_cell_angle_beta	98.071462
_cell_angle_gamma	85.316267
loop_
_atom_site_label
_atom_site_type_symbol
_atom_site_fract_x
_atom_site_fract_y
_atom_site_fract_z
O1	O	1.081349	-0.854440	-0.158862
O2	O	0.837458	-0.737318	-0.158891
O3	O	0.980890	-0.575836	-0.158872
O4	O	0.937916	-1.015922	-0.158881
O5	O	1.000063	-0.554185	0.159105
O6	O	0.856631	-0.715666	0.159087
O7	O	1.100522	-0.832789	0.159115
Cu8	Cu	0.980327	-0.772250	0.188135
Cu9	Cu	0.957653	-0.797856	-0.187911
O10	O	0.957089	-0.994270	0.159096
C11	C	0.816110	-0.707360	0.000094
C12	C	0.723937	-0.650332	0.000083
C13	C	0.993733	-0.507384	0.000113
C14	C	1.003427	-0.335671	0.000104
C15	C	1.121869	-0.862747	0.000126
C16	C	1.214041	-0.919776	0.000125
C17	C	1.324736	-1.134470	0.000117
C18	C	1.238129	-1.080868	0.000119
C19	C	1.276559	-0.812225	0.000118
C20	C	1.363171	-0.865806	0.000107
C21	C	1.387252	-1.026930	0.000108
C22	C	1.425687	-0.758266	0.000098
C23	C	1.512292	-0.811843	0.000096
C24	C	1.536381	-0.972960	0.000104
C25	C	1.473858	-1.080507	0.000107
C26	C	1.401605	-0.597141	0.000110
C27	C	1.464121	-0.489601	0.000101
C28	C	1.550727	-0.543178	0.000086
C29	C	1.574816	-0.704295	0.000093
C30	C	1.613251	-0.435631	0.000083
C31	C	1.699856	-0.489208	0.000081
C32	C	1.661421	-0.757872	0.000092
C33	C	0.944246	-1.062723	0.000107
C34	C	0.934552	-1.234437	0.000104
N35	N	0.996281	-0.754243	0.452625
N36	N	0.941706	-0.815855	-0.452401
H37	H	1.606902	-1.016579	0.000110
H38	H	1.493465	-1.211710	0.000111
C39	C	1.351231	-1.311707	0.000097
H40	H	1.301595	-1.368089	0.000104
H41	H	1.377530	-1.345730	-0.110790
H42	H	1.390905	-1.330642	0.110996
C43	C	0.844870	-0.294799	0.000085
H44	H	0.802961	-0.208264	0.000100
H45	H	0.831471	-0.364228	-0.110804
H46	H	0.844846	-0.349130	0.110981
H47	H	0.885146	-0.879700	0.465946
H48	H	1.069815	-0.290968	0.000127
C49	C	1.169361	-1.199175	0.000103
H50	H	1.196109	-1.302805	0.000086
H51	H	1.141460	-1.176314	0.110982
H52	H	1.128093	-1.191408	-0.110804
C53	C	1.072696	-0.667994	0.562931
H54	H	1.071604	-0.669226	0.696438
H55	H	1.125186	-0.719287	0.530202
H56	H	1.068428	-0.562239	0.530224
H57	H	1.681029	-0.889075	0.000096
C58	C	1.250063	-0.635001	0.000106
H59	H	1.189530	-0.618492	0.000096
H60	H	1.278843	-0.581025	0.110982
H61	H	1.265460	-0.596153	-0.110804
H62	H	1.444503	-0.358411	0.000121
C63	C	1.586758	-0.258404	0.000092
H64	H	1.636396	-0.202028	0.000098
H65	H	1.547078	-0.239466	-0.110784
H66	H	1.560469	-0.224375	0.111001
C67	C	1.768630	-0.370925	0.000070
H68	H	1.823658	-0.425912	0.000089
H69	H	1.755648	-0.314500	-0.110815
H70	H	1.769023	-0.299401	0.110971
H71	H	1.331086	-0.553522	0.000134
