data_functionalizedCrystal
_audit_creation_method	'MofGen! by Chris Wilmer'
_symmetry_space_group_name_H-M	'P1'
_symmetry_Int_Tables_number	1
_symmetry_cell_setting	triclinic
loop_
_symmetry_equiv_pos_as_xyz
  x,y,z
_cell_length_a	8.559649
_cell_length_b	9.016244
_cell_length_c	8.559649
_cell_angle_alpha	90.000963
_cell_angle_beta	69.778664
_cell_angle_gamma	90.006747
loop_
_atom_site_label
_atom_site_type_symbol
_atom_site_fract_x
_atom_site_fract_y
_atom_site_fract_z
O1	O	2.126890	0.123317	-0.055043
O2	O	1.651405	0.123323	0.028738
O3	O	1.931038	0.123318	-0.250895
O4	O	1.847257	0.123322	0.224590
O5	O	1.931001	-0.123363	-0.250884
O6	O	1.651368	-0.123358	0.028749
O7	O	2.126853	-0.123364	-0.055032
Cu8	Cu	1.889107	-0.145885	-0.013141
Cu9	Cu	1.889151	0.145844	-0.013153
O10	O	1.847220	-0.123359	0.224601
C11	C	1.591077	-0.000017	0.035093
C12	C	1.411378	-0.000014	0.053992
N13	N	1.889088	-0.351071	-0.013135
C14	C	1.739155	-0.586101	0.136060
C15	C	1.739384	-0.414210	0.136515
C16	C	2.053826	-0.413411	0.003067
C17	C	2.052979	-0.585356	0.004095
C18	C	1.876026	-0.585615	-0.179185
C19	C	1.871984	-0.413661	-0.177566
C20	C	2.187180	-0.000021	-0.061387
C21	C	2.366879	-0.000014	-0.080286
C22	C	1.937369	-0.000020	-0.311198
C23	C	1.956268	-0.000012	-0.490898
N24	N	1.889184	0.351030	-0.013174
C25	C	1.840889	-0.000018	0.284904
C26	C	1.821990	-0.000016	0.464604
H27	H	1.466258	-0.000007	-0.209705
Br28	Br	1.245737	0.000008	0.269719
H29	H	1.759644	-0.629062	-0.199924
H30	H	1.616262	-0.372064	0.129926
Br31	Br	1.533193	-0.655046	0.125736
Br32	Br	1.749215	-0.658056	0.340999
Br33	Br	1.670180	-0.345760	-0.198874
Br34	Br	2.044946	-0.342059	-0.368657
Br35	Br	2.058783	-0.653371	-0.363877
H36	H	1.745615	-0.373062	0.260146
Br37	Br	1.606272	-0.000023	-0.369763
H38	H	2.067746	-0.625444	0.124532
H39	H	2.167001	-0.626940	-0.101425
H40	H	2.167261	-0.372509	-0.103600
H41	H	2.069473	-0.370333	0.122005
H42	H	2.085696	-0.000025	-0.590286
