data_functionalizedCrystal
_audit_creation_method	'MofGen! by Chris Wilmer'
_symmetry_space_group_name_H-M	'P1'
_symmetry_Int_Tables_number	1
_symmetry_cell_setting	triclinic
loop_
_symmetry_equiv_pos_as_xyz
  x,y,z
_cell_length_a	6.817900
_cell_length_b	17.284672
_cell_length_c	17.078481
_cell_angle_alpha	92.839858
_cell_angle_beta	99.306161
_cell_angle_gamma	103.040903
loop_
_atom_site_label
_atom_site_type_symbol
_atom_site_fract_x
_atom_site_fract_y
_atom_site_fract_z
V1	V	-3.974048	-0.108879	-0.240610
O2	O	-3.968323	0.005421	-0.242989
O3	O	-3.920387	-0.216071	-0.232272
O4	O	-3.905184	-0.107121	-0.348602
O5	O	-3.983632	-0.104283	-0.125853
V6	V	-4.461009	-0.095217	-0.227697
O7	O	-4.227764	-0.138847	-0.268936
O8	O	-4.657490	-0.065249	-0.199372
O9	O	-4.291464	0.011975	-0.236036
O10	O	-4.584131	-0.209518	-0.225319
O11	O	-4.568822	-0.099814	-0.342454
O12	O	-4.306667	-0.096975	-0.119706
C13	C	-3.764770	-0.242205	-0.226749
C14	C	-3.802046	-0.329835	-0.220651
C15	C	-3.845390	-0.382209	-0.289742
C16	C	-3.880394	-0.464546	-0.284005
C17	C	-3.872067	-0.494507	-0.209177
C18	C	-3.828713	-0.442126	-0.140081
C19	C	-3.793696	-0.359790	-0.145818
C20	C	-3.974012	-0.739550	-0.184301
C21	C	-4.009040	-0.821892	-0.178568
C22	C	-4.060715	-0.844306	-0.322493
C23	C	-4.025706	-0.761969	-0.328224
C24	C	-3.982345	-0.709595	-0.259128
N25	N	-3.907853	-0.578668	-0.203311
N26	N	-3.946546	-0.625435	-0.264995
C27	C	-3.745376	-0.103227	-0.375139
C28	C	-3.770321	-0.102499	-0.463379
C29	C	-3.963179	-0.106092	-0.508632
C30	C	-3.986605	-0.105408	-0.591543
C31	C	-3.817174	-0.101136	-0.629199
C32	C	-3.624299	-0.097540	-0.583940
C33	C	-3.600873	-0.098219	-0.501030
C34	C	-3.867810	-0.098679	-0.876755
C35	C	-3.891253	-0.098003	-0.959671
C36	C	-4.253558	-0.105869	-0.967268
C37	C	-4.230117	-0.106552	-0.884357
C38	C	-4.037243	-0.102952	-0.839104
N39	N	-3.841116	-0.100439	-0.713947
N40	N	-4.013301	-0.103644	-0.754357
C41	C	-4.110423	0.038104	-0.241556
C42	C	-4.052384	0.125734	-0.247659
C43	C	-4.129817	-0.100872	-0.093164
C44	C	-4.084111	-0.101596	-0.004924
H45	H	-3.821924	-0.466526	-0.079154
H46	H	-3.753269	-0.094521	-0.990328
C47	C	-4.034831	-0.729018	-0.410540
N48	N	-4.041697	-0.704200	-0.472542
C49	C	-3.746021	-0.302178	-0.069813
N50	N	-3.710107	-0.258785	-0.012563
C51	C	-3.437883	-0.092757	-0.625357
N52	N	-3.297457	-0.089128	-0.656549
C53	C	-4.149573	-0.110791	-0.467218
N54	N	-4.289971	-0.114326	-0.436027
H55	H	-4.368090	-0.110030	-0.853703
C56	C	-4.465704	-0.109818	-1.017051
N57	N	-4.625498	-0.112788	-1.054547
C58	C	-3.655655	-0.094736	-0.826990
N59	N	-3.495852	-0.091773	-0.789504
H60	H	-4.002249	-0.846282	-0.117631
C61	C	-3.926318	-0.681949	-0.108292
N62	N	-3.890390	-0.638560	-0.051038
H63	H	-3.852201	-0.357823	-0.350676
H64	H	-3.915686	-0.507187	-0.340266
C65	C	-4.108377	-0.901923	-0.398493
N66	N	-4.144262	-0.945320	-0.455739
H67	H	-3.443820	-0.095274	-0.464184
H68	H	-4.143645	-0.108329	-0.628384
