data_functionalizedCrystal
_audit_creation_method	'MofGen! by Chris Wilmer'
_symmetry_space_group_name_H-M	'P1'
_symmetry_Int_Tables_number	1
_symmetry_cell_setting	triclinic
loop_
_symmetry_equiv_pos_as_xyz
  x,y,z
_cell_length_a	6.817900
_cell_length_b	16.255661
_cell_length_c	23.288450
_cell_angle_alpha	86.265074
_cell_angle_beta	73.804077
_cell_angle_gamma	103.488922
loop_
_atom_site_label
_atom_site_type_symbol
_atom_site_fract_x
_atom_site_fract_y
_atom_site_fract_z
V1	V	-4.039206	-0.262157	0.083035
O2	O	-4.013665	-0.258920	-0.003494
O3	O	-4.002966	-0.258677	0.164168
O4	O	-3.990609	-0.377262	0.081976
O5	O	-4.026107	-0.139514	0.079267
V6	V	-4.521284	-0.247693	0.072660
O7	O	-4.303634	-0.293885	0.105795
O8	O	-4.707053	-0.215964	0.049900
O9	O	-4.334318	-0.251172	-0.008473
O10	O	-4.664222	-0.250929	0.159189
O11	O	-4.651780	-0.370335	0.076428
O12	O	-4.346675	-0.132587	0.073719
C13	C	-3.850931	-0.254106	0.183939
C14	C	-3.902586	-0.252028	0.250268
C15	C	-3.835167	-0.405372	0.079094
C16	C	-3.876797	-0.499460	0.078765
C17	C	-4.149709	-0.255742	-0.028242
C18	C	-4.075941	-0.257876	-0.095815
C19	C	-3.786762	-0.722360	0.074829
C20	C	-3.950822	-0.790787	0.125631
C21	C	-3.953089	-0.671721	0.078147
C22	C	-3.863232	-0.770943	0.026763
C23	C	-4.026767	-0.838117	0.077547
C24	C	-4.116638	-0.738918	0.128995
C25	C	-4.028979	-0.719059	0.030082
C26	C	-4.193178	-0.787467	0.080899
C27	C	-3.910640	-0.575865	0.078493
C28	C	-4.069234	-0.933973	0.077206
V29	V	-4.215475	-0.253606	-0.205752
O30	O	-4.158521	-0.248309	-0.293801
O31	O	-4.211231	-0.254730	-0.121240
O32	O	-4.198233	-0.373349	-0.203408
O33	O	-4.171610	-0.128869	-0.211064
V34	V	-4.656855	-0.215969	-0.233093
O35	O	-4.478011	-0.274501	-0.190918
O36	O	-4.813468	-0.174073	-0.263301
O37	O	-4.453286	-0.225258	-0.309983
O38	O	-4.823109	-0.215790	-0.149054
O39	O	-4.810021	-0.335230	-0.231790
O40	O	-4.466285	-0.106639	-0.227815
C41	C	-4.165459	-0.104473	0.076602
C42	C	-4.103067	-0.010384	0.076929
C43	C	-4.059369	-0.409192	-0.200627
C44	C	-4.121219	-0.503295	-0.200938
C45	C	-4.275126	-0.237807	-0.323912
C46	C	-4.183401	-0.240871	-0.389529
C47	C	-3.836812	-0.242718	0.407359
C48	C	-3.925503	-0.173716	0.440808
C49	C	-3.997266	-0.248265	0.371712
C50	C	-4.000640	-0.313573	0.456450
C51	C	-4.088711	-0.244633	0.489022
C52	C	-4.085247	-0.179233	0.404281
C53	C	-4.160387	-0.319152	0.419926
C54	C	-4.249194	-0.250137	0.453357
C55	C	-3.944581	-0.250356	0.304133
C56	C	-4.141406	-0.242536	0.556600
C57	C	-4.291708	-0.086496	-0.219099
C58	C	-4.210527	0.006640	-0.218082
C59	C	-4.322415	-0.543421	-0.204189
C60	C	-4.380546	-0.631839	-0.204490
C61	C	-4.237484	-0.680130	-0.201535
C62	C	-4.036269	-0.639998	-0.198285
C63	C	-3.978135	-0.551581	-0.197988
C64	C	-4.014267	0.037907	-0.208598
C65	C	-3.937954	0.125417	-0.207647
C66	C	-4.057911	0.181657	-0.216177
C67	C	-4.254186	0.150385	-0.225664
C68	C	-4.330489	0.062878	-0.226619
H69	H	-3.614631	-0.693931	0.072328
Br70	Br	-3.705074	-0.497138	-0.193568
H71	H	-4.490307	0.037428	-0.234339
Br72	Br	-3.896505	-0.842877	0.192962
Br73	Br	-3.954326	0.300417	-0.214878
H74	H	-3.965331	-0.370315	0.479163
H75	H	-4.438932	-0.504114	-0.206594
Br76	Br	-3.760907	-0.071225	0.456651
H77	H	-3.916561	-0.007875	-0.201652
Br78	Br	-4.143917	-0.084516	0.366544
H79	H	-4.223362	-0.724558	0.172247
H80	H	-3.778135	0.150864	-0.199921
Br81	Br	-4.416968	0.226723	-0.237234
H82	H	-4.284847	-0.752124	-0.201777
H83	H	-4.365438	-0.815760	0.083479
H84	H	-4.061495	-0.687785	-0.010317
Br85	Br	-4.653634	-0.686285	-0.208896
Br86	Br	-3.545387	-0.237385	0.373852
Br87	Br	-3.685341	-0.795068	-0.045248
H88	H	-4.424035	-0.253239	0.473340
Br89	Br	-3.842146	-0.705550	-0.194267
Br90	Br	-4.324869	-0.421675	0.404095
