data_functionalizedCrystal
_audit_creation_method	'MofGen! by Chris Wilmer'
_symmetry_space_group_name_H-M	'P1'
_symmetry_Int_Tables_number	1
_symmetry_cell_setting	triclinic
loop_
_symmetry_equiv_pos_as_xyz
  x,y,z
_cell_length_a	16.992695
_cell_length_b	14.971506
_cell_length_c	14.048226
_cell_angle_alpha	89.993237
_cell_angle_beta	89.999985
_cell_angle_gamma	92.854695
loop_
_atom_site_label
_atom_site_type_symbol
_atom_site_fract_x
_atom_site_fract_y
_atom_site_fract_z
O1	O	-0.102266	1.194121	-0.079154
O2	O	-0.114487	0.934582	-0.079153
O3	O	0.005768	1.063311	-0.079162
O4	O	-0.222520	1.065392	-0.079145
O5	O	0.005775	1.063294	0.079159
O6	O	-0.114479	0.934565	0.079168
O7	O	-0.102259	1.194104	0.079167
Zn8	Zn	-0.108368	1.064332	0.104305
Zn9	Zn	-0.108377	1.064354	-0.104291
O10	O	-0.222513	1.065375	0.079176
C11	C	-0.113934	0.901211	0.000007
C12	C	-0.112287	0.801799	0.000007
C13	C	-0.176652	0.368038	0.000002
C14	C	-0.178192	0.461447	-0.000002
C15	C	-0.107538	0.513703	-0.000003
C16	C	-0.035339	0.472545	-0.000009
C17	C	-0.033799	0.379139	-0.000012
C18	C	-0.038554	0.667234	-0.000001
C19	C	-0.040093	0.760648	0.000003
C20	C	-0.182947	0.749543	0.000009
C21	C	-0.181407	0.656136	0.000006
C22	C	-0.109207	0.614985	0.000002
C23	C	-0.251731	1.068060	0.000017
C24	C	-0.338784	1.076047	0.000023
C25	C	-0.388947	0.998983	0.000023
C26	C	-0.470741	1.006493	0.000011
C27	C	-0.502370	1.091068	0.000006
C28	C	-0.452201	1.168138	0.000004
C29	C	-0.370408	1.160627	0.000009
C30	C	-0.745999	1.122198	-0.000015
C31	C	-0.827798	1.129703	-0.000018
C32	C	-0.846333	0.968057	-0.000012
C33	C	-0.764538	0.960554	-0.000001
C34	C	-0.714376	1.037624	-0.000009
N35	N	-0.585977	1.098747	-0.000003
N36	N	-0.630771	1.029944	-0.000006
C37	C	0.034986	1.060626	-0.000005
C38	C	0.122039	1.052639	-0.000018
C39	C	-0.102811	1.227476	0.000004
C40	C	-0.104458	1.326887	-0.000002
N41	N	-0.108361	1.064323	0.246665
N42	N	-0.108378	1.064370	-0.246651
C43	C	-0.055134	1.121345	0.296479
C44	C	-0.055134	1.121351	0.396137
C45	C	-0.108364	1.064339	0.445979
C46	C	-0.161594	1.007311	0.396158
C47	C	-0.161590	1.007301	0.296502
C48	C	-0.161599	1.007337	0.603872
C49	C	-0.161604	1.007348	0.703535
C50	C	-0.055144	1.121387	0.703507
C51	C	-0.055140	1.121377	0.603851
C52	C	-0.108370	1.064350	0.554037
H53	H	0.017439	0.803192	-0.000005
H54	H	-0.738792	0.891684	-0.000008
H55	H	-0.511581	0.943739	0.000008
H56	H	-0.011799	1.167805	0.563270
H57	H	0.024988	0.345635	-0.000017
H58	H	-0.011793	1.167782	0.436695
Br59	Br	0.059432	0.611387	-0.000003
H60	H	-0.705166	1.184954	-0.000016
H61	H	-0.204931	0.960867	0.255944
Br62	Br	0.017093	1.198784	0.771115
Br63	Br	0.017106	1.198730	0.228847
Br64	Br	-0.272545	0.297129	0.000015
H65	H	-0.853547	1.198577	-0.000021
H66	H	-0.363201	0.930114	0.000039
H67	H	-0.204949	0.960922	0.744111
H68	H	-0.204943	0.960896	0.563316
H69	H	-0.887184	0.905312	-0.000006
H70	H	-0.238940	0.613591	0.000013
H71	H	0.022188	0.515100	-0.000016
Br72	Br	-0.495125	1.282920	-0.000014
Br73	Br	-0.233831	0.929928	0.463796
H74	H	-0.236980	0.494947	-0.000008
H75	H	-0.329565	1.223381	0.000005
Br76	Br	-0.280932	0.805388	0.000031
