data_functionalizedCrystal
_audit_creation_method	'MofGen! by Chris Wilmer'
_symmetry_space_group_name_H-M	'P1'
_symmetry_Int_Tables_number	1
_symmetry_cell_setting	triclinic
loop_
_symmetry_equiv_pos_as_xyz
  x,y,z
_cell_length_a	27.732048
_cell_length_b	27.732064
_cell_length_c	15.072220
_cell_angle_alpha	90.005274
_cell_angle_beta	89.998491
_cell_angle_gamma	82.646039
loop_
_atom_site_label
_atom_site_type_symbol
_atom_site_fract_x
_atom_site_fract_y
_atom_site_fract_z
O1	O	0.640930	0.057520	0.073661
O2	O	0.974263	0.390853	0.406994
O3	O	1.307596	0.724186	0.740328
O4	O	0.500137	0.066265	0.073687
O5	O	0.833470	0.399599	0.407020
O6	O	1.166803	0.732932	0.740353
O7	O	0.574902	-0.008504	0.073676
O8	O	0.908235	0.324830	0.407010
O9	O	1.241569	0.658163	0.740343
O10	O	0.566165	0.132289	0.073671
O11	O	0.899498	0.465622	0.407004
O12	O	1.232831	0.798955	0.740338
O13	O	0.574897	-0.008513	-0.073889
O14	O	0.908230	0.324821	0.259445
O15	O	1.241564	0.658154	0.592778
O16	O	0.500132	0.066256	-0.073879
O17	O	0.833465	0.399590	0.259455
O18	O	1.166799	0.732923	0.592788
O19	O	0.640925	0.057511	-0.073904
O20	O	0.974258	0.390844	0.259429
O21	O	1.307592	0.724178	0.592762
Zn22	Zn	0.570528	0.061882	-0.097320
Zn23	Zn	0.903861	0.395216	0.236013
Zn24	Zn	1.237194	0.728549	0.569346
Zn25	Zn	0.570534	0.061894	0.097103
Zn26	Zn	0.903867	0.395227	0.430436
Zn27	Zn	1.237201	0.728561	0.763770
O28	O	0.566160	0.132280	-0.073894
O29	O	0.899493	0.465613	0.259439
O30	O	1.232827	0.798946	0.592773
C31	C	0.574715	-0.026515	-0.000103
C32	C	0.908048	0.306818	0.333230
C33	C	1.241381	0.640152	0.666563
C34	C	0.574159	-0.080169	-0.000095
C35	C	0.907492	0.253164	0.333238
C36	C	1.240825	0.586497	0.666572
C37	C	0.482127	0.066077	-0.000093
C38	C	0.815461	0.399411	0.333241
C39	C	1.148794	0.732744	0.666574
C40	C	0.428473	0.065524	-0.000082
C41	C	0.761806	0.398858	0.333251
C42	C	1.095139	0.732191	0.666584
C43	C	0.526192	-0.457242	-0.000083
C44	C	0.859525	-0.123909	0.333251
C45	C	1.192858	0.209425	0.666584
C46	C	0.528238	-0.255582	-0.000082
C47	C	0.861571	0.077752	0.333251
C48	C	1.194905	0.411085	0.666585
O49	O	0.491017	-0.224329	-0.000040
O50	O	0.824350	0.109004	0.333294
O51	O	1.157684	0.442338	0.666627
N52	N	0.572572	-0.236454	-0.000090
N53	N	0.905906	0.096879	0.333243
N54	N	1.239239	0.430212	0.666577
C55	C	0.616398	-0.267745	-0.000092
C56	C	0.949731	0.065588	0.333241
C57	C	1.283065	0.398921	0.666574
O58	O	0.654154	-0.246849	-0.000090
O59	O	0.987487	0.086484	0.333243
O60	O	1.320821	0.419818	0.666577
C61	C	0.614351	-0.469405	-0.000087
C62	C	0.947685	-0.136071	0.333247
C63	C	1.281018	0.197262	0.666580
C64	C	0.570014	-0.488529	-0.000088
C65	C	0.903347	-0.155196	0.333246
C66	C	1.236681	0.178138	0.666579
C67	C	0.481858	-0.476367	-0.000083
C68	C	0.815191	-0.143034	0.333251
C69	C	1.148525	0.190300	0.666584
C70	C	0.481347	-0.526779	-0.000088
C71	C	0.814680	-0.193446	0.333246
C72	C	1.148014	0.139888	0.666579
C73	C	0.525169	-0.558066	-0.000093
C74	C	0.858503	-0.224733	0.333241
C75	C	1.191836	0.108600	0.666574
C76	C	0.569503	-0.538941	-0.000093
C77	C	0.902836	-0.205608	0.333241
C78	C	1.236170	0.127725	0.666574
C79	C	0.658177	-0.500695	-0.000083
C80	C	0.991510	-0.167361	0.333251
C81	C	1.324843	0.165972	0.666584
C82	C	0.657661	-0.551112	-0.000079
C83	C	0.990994	-0.217779	0.333254
C84	C	1.324328	0.115554	0.666588
C85	C	0.613324	-0.570237	-0.000080
C86	C	0.946657	-0.236903	0.333253
C87	C	1.279991	0.096430	0.666587
C88	C	0.612814	-0.620640	-0.000103
C89	C	0.946148	-0.287307	0.333231
C90	C	1.279481	0.046026	0.666564
N91	N	0.568480	-0.639768	-0.000095
N92	N	0.901813	-0.306435	0.333239
N93	N	1.235147	0.026899	0.666572
C94	C	0.524658	-0.608481	-0.000090
C95	C	0.857991	-0.275148	0.333244
C96	C	1.191324	0.058186	0.666577
C97	C	0.617469	-0.161871	-0.000097
C98	C	0.950803	0.171462	0.333236
C99	C	1.284136	0.504796	0.666570
C100	C	0.617981	-0.111456	-0.000100
C101	C	0.951315	0.221877	0.333233
C102	C	1.284648	0.555210	0.666567
C103	C	0.529821	-0.099296	-0.000088
C104	C	0.863154	0.234037	0.333245
C105	C	1.196488	0.567370	0.666579
C106	C	0.529310	-0.149712	-0.000091
C107	C	0.862643	0.183622	0.333242
C108	C	1.195976	0.516955	0.666575
C109	C	0.573135	-0.180998	-0.000089
C110	C	0.906469	0.152335	0.333244
C111	C	1.239802	0.485668	0.666578
C112	C	0.523588	-0.714350	-0.000101
C113	C	0.856921	-0.381017	0.333232
C114	C	1.190254	-0.047684	0.666566
C115	C	0.523080	-0.764767	-0.000110
C116	C	0.856414	-0.431434	0.333223
C117	C	1.189747	-0.098101	0.666557
C118	C	0.611241	-0.776923	-0.000117
C119	C	0.944574	-0.443590	0.333216
C120	C	1.277907	-0.110257	0.666549
C121	C	0.611748	-0.726511	-0.000113
C122	C	0.945081	-0.393177	0.333220
C123	C	1.278415	-0.059844	0.666554
C124	C	0.567918	-0.695225	-0.000102
C125	C	0.901251	-0.361891	0.333231
C126	C	1.234584	-0.028558	0.666565
O127	O	0.650016	-0.651921	-0.000135
O128	O	0.983349	-0.318588	0.333198
O129	O	1.316682	0.014745	0.666532
O130	O	0.486907	-0.629387	-0.000072
O131	O	0.820241	-0.296053	0.333261
O132	O	1.153574	0.037280	0.666594
C133	C	0.526703	-0.406830	-0.000078
C134	C	0.860036	-0.073497	0.333256
C135	C	1.193369	0.259837	0.666589
C136	C	0.571036	-0.387705	-0.000078
C137	C	0.904370	-0.054372	0.333256
C138	C	1.237703	0.278962	0.666589
C139	C	0.614859	-0.418992	-0.000083
C140	C	0.948192	-0.085659	0.333251
C141	C	1.281525	0.247675	0.666584
C142	C	0.571548	-0.337290	-0.000081
C143	C	0.904881	-0.003957	0.333253
C144	C	1.238215	0.329376	0.666586
C145	C	0.527726	-0.306003	-0.000076
C146	C	0.861059	0.027330	0.333258
C147	C	1.194392	0.360663	0.666591
C148	C	0.483391	-0.325131	-0.000068
C149	C	0.816725	0.008203	0.333266
C150	C	1.150058	0.341536	0.666599
C151	C	0.482880	-0.375543	-0.000073
C152	C	0.816214	-0.042209	0.333261
C153	C	1.149547	0.291124	0.666594
C154	C	0.659193	-0.399865	-0.000091
C155	C	0.992526	-0.066531	0.333243
C156	C	1.325860	0.266802	0.666576
C157	C	0.659701	-0.349452	-0.000087
C158	C	0.993034	-0.016119	0.333247
C159	C	1.326367	0.317215	0.666580
C160	C	0.615878	-0.318165	-0.000082
C161	C	0.949211	0.015169	0.333252
C162	C	1.282545	0.348502	0.666585
C163	C	0.089660	0.106228	-0.000122
C164	C	0.422993	0.439561	0.333211
C165	C	0.756327	0.772895	0.666544
C166	C	-0.112000	0.104177	-0.000130
C167	C	0.221334	0.437510	0.333203
C168	C	0.554667	0.770844	0.666536
O169	O	-0.143253	0.141397	-0.000170
O170	O	0.190080	0.474731	0.333163
O171	O	0.523413	0.808064	0.666497
N172	N	-0.131126	0.059842	-0.000127
N173	N	0.202207	0.393175	0.333206
N174	N	0.535540	0.726509	0.666540
C175	C	-0.099834	0.016017	-0.000128
C176	C	0.233499	0.349350	0.333206
C177	C	0.566833	0.682683	0.666539
O178	O	-0.120729	-0.021740	-0.000134
O179	O	0.212604	0.311594	0.333199
O180	O	0.545937	0.644927	0.666533
C181	C	0.101825	0.018068	-0.000126
C182	C	0.435158	0.351402	0.333207
C183	C	0.768491	0.684735	0.666541
C184	C	0.120948	0.062406	-0.000120
C185	C	0.454281	0.395739	0.333213
C186	C	0.787615	0.729073	0.666546
C187	C	0.108784	0.150562	-0.000118
C188	C	0.442117	0.483895	0.333216
C189	C	0.775451	0.817229	0.666549
C190	C	0.159196	0.151074	-0.000111
C191	C	0.492529	0.484408	0.333223
C192	C	0.825862	0.817741	0.666556
C193	C	0.190484	0.107252	-0.000109
C194	C	0.523817	0.440586	0.333225
C195	C	0.857151	0.773919	0.666558
C196	C	0.171360	0.062918	-0.000114
C197	C	0.504693	0.396252	0.333220
C198	C	0.838027	0.729585	0.666553
C199	C	0.133116	-0.025756	-0.000133
C200	C	0.466449	0.307577	0.333200
C201	C	0.799782	0.640910	0.666534
C202	C	0.183533	-0.025240	-0.000135
C203	C	0.516866	0.308094	0.333198
C204	C	0.850200	0.641427	0.666532
C205	C	0.202656	0.019098	-0.000129
C206	C	0.535990	0.352431	0.333204
C207	C	0.869323	0.685765	0.666538
C208	C	0.253060	0.019609	-0.000105
C209	C	0.586393	0.352942	0.333229
C210	C	0.919727	0.686275	0.666562
N211	N	0.272186	0.063944	-0.000108
N212	N	0.605520	0.397277	0.333225
N213	N	0.938853	0.730610	0.666559
C214	C	0.240898	0.107765	-0.000110
C215	C	0.574232	0.441099	0.333223
C216	C	0.907565	0.774432	0.666557
C217	C	-0.205708	0.014943	-0.000127
C218	C	0.127625	0.348276	0.333207
C219	C	0.460958	0.681610	0.666540
C220	C	-0.256123	0.014430	-0.000125
C221	C	0.077211	0.347763	0.333208
C222	C	0.410544	0.681097	0.666541
C223	C	-0.268285	0.102590	-0.000130
C224	C	0.065048	0.435923	0.333204
C225	C	0.398382	0.769257	0.666537
C226	C	-0.217870	0.103103	-0.000125
C227	C	0.115464	0.436436	0.333209
C228	C	0.448797	0.769769	0.666542
C229	C	-0.186582	0.059278	-0.000130
C230	C	0.146751	0.392611	0.333203
C231	C	0.480085	0.725944	0.666537
C232	C	0.346768	0.108838	-0.000095
C233	C	0.680101	0.442171	0.333238
C234	C	1.013434	0.775505	0.666572
C235	C	0.397185	0.109346	-0.000084
C236	C	0.730518	0.442680	0.333249
C237	C	1.063851	0.776013	0.666582
C238	C	0.409342	0.021186	-0.000085
C239	C	0.742676	0.354520	0.333249
C240	C	1.076009	0.687853	0.666582
C241	C	0.358930	0.020678	-0.000091
C242	C	0.692263	0.354011	0.333243
C243	C	1.025596	0.687344	0.666576
C244	C	0.327643	0.064507	-0.000099
C245	C	0.660976	0.397841	0.333235
C246	C	0.994310	0.731174	0.666568
O247	O	0.284342	-0.017592	-0.000075
O248	O	0.617675	0.315742	0.333259
O249	O	0.951008	0.649075	0.666592
O250	O	0.261803	0.145516	-0.000123
O251	O	0.595136	0.478850	0.333210
O252	O	0.928470	0.812183	0.666544
C253	C	0.039248	0.105716	-0.000129
C254	C	0.372581	0.439049	0.333204
C255	C	0.705915	0.772382	0.666538
C256	C	0.020124	0.061381	-0.000134
C257	C	0.353457	0.394715	0.333199
C258	C	0.686791	0.728048	0.666533
C259	C	0.051412	0.017560	-0.000132
C260	C	0.384745	0.350893	0.333201
C261	C	0.718079	0.684226	0.666535
C262	C	-0.030290	0.060868	-0.000133
C263	C	0.303043	0.394202	0.333201
C264	C	0.636376	0.727535	0.666534
C265	C	-0.061578	0.104690	-0.000135
C266	C	0.271755	0.438024	0.333199
C267	C	0.605088	0.771357	0.666532
C268	C	-0.042452	0.149025	-0.000138
C269	C	0.290881	0.482358	0.333195
C270	C	0.624215	0.815692	0.666529
C271	C	0.007960	0.149537	-0.000131
C272	C	0.341293	0.482871	0.333202
C273	C	0.674627	0.816204	0.666535
C274	C	0.032286	-0.026775	-0.000129
C275	C	0.365619	0.306558	0.333205
C276	C	0.698952	0.639891	0.666538
C277	C	-0.018127	-0.027284	-0.000134
C278	C	0.315207	0.306049	0.333199
C279	C	0.648540	0.639383	0.666532
C280	C	-0.049415	0.016538	-0.000136
C281	C	0.283918	0.349871	0.333197
C282	C	0.617252	0.683205	0.666530
C283	C	0.658934	0.057699	-0.000123
C284	C	0.992268	0.391032	0.333210
C285	C	1.325601	0.724366	0.666544
C286	C	0.712589	0.058252	-0.000127
C287	C	1.045923	0.391585	0.333206
C288	C	1.379256	0.724918	0.666539
C289	C	0.566347	0.150291	-0.000112
C290	C	0.899680	0.483624	0.333221
C291	C	1.233014	0.816958	0.666554
C292	C	0.566903	0.203945	-0.000115
C293	C	0.900236	0.537279	0.333218
C294	C	1.233570	0.870612	0.666552
N295	N	0.570527	0.061874	-0.230009
N296	N	0.903860	0.395207	0.103324
N297	N	1.237194	0.728541	0.436657
C298	C	0.570534	0.061890	-0.589211
C299	C	0.903868	0.395224	-0.255878
C300	C	1.237201	0.728557	0.077456
C301	C	0.610668	0.022015	-0.551582
C302	C	0.944001	0.355348	-0.218248
C303	C	1.277334	0.688681	0.115085
C304	C	0.610565	0.021869	-0.448756
C305	C	0.943898	0.355203	-0.115423
C306	C	1.277231	0.688536	0.217911
C307	C	0.570531	0.061882	-0.411007
C308	C	0.903864	0.395215	-0.077673
C309	C	1.237198	0.728549	0.255660
C310	C	0.520180	0.051243	-0.448340
C311	C	0.853513	0.384577	-0.115006
C312	C	1.186847	0.717910	0.218327
C313	C	0.520418	0.050962	-0.551198
C314	C	0.853751	0.384295	-0.217864
C315	C	1.187085	0.717629	0.115469
C316	C	0.580297	0.112525	-0.551292
C317	C	0.913631	0.445858	-0.217959
C318	C	1.246964	0.779192	0.115375
C319	C	0.581445	0.112176	-0.448428
C320	C	0.914778	0.445510	-0.115094
C321	C	1.248111	0.778843	0.218239
C322	C	0.570526	0.061878	-0.310293
C323	C	0.903859	0.395212	0.023040
C324	C	1.237193	0.728545	0.356373
C325	C	0.570536	0.061893	-0.689924
C326	C	0.903870	0.395226	-0.356591
C327	C	1.237203	0.728560	-0.023258
N328	N	0.570539	0.061898	0.229792
N329	N	0.903872	0.395232	0.563125
N330	N	1.237205	0.728565	0.896458
H331	H	0.486974	-0.780335	-0.000115
H332	H	0.820308	-0.447002	0.333219
H333	H	1.153641	-0.113669	0.666552
C334	C	0.661056	0.030415	-0.321770
C335	C	0.994390	0.363748	0.011563
C336	C	1.327723	0.697082	0.344897
C337	C	0.661069	0.030474	-0.414672
C338	C	0.994403	0.363807	-0.081338
C339	C	1.327736	0.697141	0.251995
H340	H	0.692226	0.035767	-0.300733
H341	H	1.025559	0.369101	0.032600
H342	H	1.358892	0.702434	0.365933
H343	H	0.653637	-0.000092	-0.300847
H344	H	0.986970	0.333241	0.032486
H345	H	1.320304	0.666574	0.365819
H346	H	0.637301	0.055537	-0.300726
H347	H	0.970635	0.388870	0.032608
H348	H	1.303968	0.722203	0.365941
H349	H	0.684822	0.005350	-0.435716
H350	H	1.018155	0.338683	-0.102383
H351	H	1.351488	0.672017	0.230950
H352	H	0.668494	0.060985	-0.435603
H353	H	1.001828	0.394319	-0.102270
H354	H	1.335161	0.727652	0.231064
C355	C	0.501575	-0.028195	-0.510357
C356	C	0.834909	0.305138	-0.177024
C357	C	1.168242	0.638471	0.156309
C358	C	0.508728	0.001127	-0.583599
C359	C	0.842061	0.334460	-0.250266
C360	C	1.175394	0.667794	0.083067
H361	H	0.494361	-0.058962	-0.530360
H362	H	0.827694	0.274371	-0.197027
H363	H	1.161028	0.607704	0.136307
H364	H	0.475263	-0.013031	-0.475787
H365	H	0.808597	0.320302	-0.142454
H366	H	1.141930	0.653635	0.190879
H367	H	0.530256	-0.032484	-0.475261
H368	H	0.863589	0.300849	-0.141928
H369	H	1.196923	0.634183	0.191406
H370	H	0.480046	0.005419	-0.618693
H371	H	0.813379	0.338752	-0.285359
H372	H	1.146712	0.672086	0.047974
H373	H	0.535042	-0.014040	-0.618184
H374	H	0.868375	0.319293	-0.284851
H375	H	1.201708	0.652626	0.048483
H376	H	0.174761	0.187179	-0.000106
H377	H	0.508094	0.520512	0.333228
H378	H	0.841428	0.853845	0.666561
H379	H	0.648234	0.028187	-0.576318
H380	H	0.981568	0.361520	-0.242985
H381	H	1.314901	0.694854	0.090348
C382	C	0.477588	-0.199342	0.075777
C383	C	0.810921	0.133991	0.409110
C384	C	1.144254	0.467324	0.742444
C385	C	0.480574	-0.170733	-0.000084
C386	C	0.813908	0.162601	0.333250
C387	C	1.147241	0.495934	0.666583
H388	H	0.447500	-0.212320	0.075779
H389	H	0.780833	0.121014	0.409112
H390	H	1.114167	0.454347	0.742445
H391	H	0.479620	-0.179923	0.127223
H392	H	0.812953	0.153411	0.460556
H393	H	1.146287	0.486744	0.793890
H394	H	0.503614	-0.225193	0.075767
H395	H	0.836947	0.108141	0.409100
H396	H	1.170280	0.441474	0.742434
H397	H	0.454550	-0.144880	-0.000070
H398	H	0.787883	0.188453	0.333263
H399	H	1.121217	0.521787	0.666596
H400	H	0.478537	-0.190153	-0.051543
H401	H	0.811870	0.143180	0.281790
H402	H	1.145204	0.476514	0.615124
H403	H	0.694281	-0.485133	-0.000081
H404	H	1.027614	-0.151800	0.333252
H405	H	1.360947	0.181534	0.666585
C406	C	-0.234967	0.190191	-0.000130
C407	C	0.098367	0.523525	0.333204
C408	C	0.431700	0.856858	0.666537
C409	C	-0.196852	0.151840	-0.000129
C410	C	0.136482	0.485173	0.333205
C411	C	0.469815	0.818506	0.666538
H412	H	-0.221992	0.220280	-0.000139
H413	H	0.111341	0.553614	0.333194
H414	H	0.444675	0.886947	0.666527
H415	H	-0.254375	0.188159	0.051329
H416	H	0.078959	0.521493	0.384662
H417	H	0.412292	0.854826	0.717996
H418	H	-0.254378	0.188148	-0.051590
H419	H	0.078956	0.521482	0.281743
H420	H	0.412289	0.854815	0.615077
H421	H	-0.177443	0.153881	0.051335
H422	H	0.155891	0.487214	0.384669
H423	H	0.489224	0.820547	0.718002
H424	H	-0.177436	0.153873	-0.051592
H425	H	0.155898	0.487206	0.281741
H426	H	0.489231	0.820539	0.615074
H427	H	0.551027	0.142195	-0.575631
H428	H	0.884360	0.475528	-0.242297
H429	H	1.217694	0.808862	0.091036
C430	C	0.431274	-0.412617	0.075777
C431	C	0.764607	-0.079284	0.409110
C432	C	1.097940	0.254049	0.742443
C433	C	0.433682	-0.441982	-0.000079
C434	C	0.767015	-0.108649	0.333255
C435	C	1.100349	0.224685	0.666588
H436	H	0.401528	-0.391395	0.075775
H437	H	0.734861	-0.058061	0.409109
H438	H	1.068194	0.275272	0.742442
H439	H	0.457742	-0.394006	0.075768
H440	H	0.791075	-0.060672	0.409101
H441	H	1.124408	0.272661	0.742434
H442	H	0.432911	-0.432539	0.127232
H443	H	0.766244	-0.099205	0.460565
H444	H	1.099577	0.234128	0.793899
H445	H	0.432049	-0.422061	-0.051534
H446	H	0.765382	-0.088728	0.281799
H447	H	1.098715	0.244606	0.615132
H448	H	0.407207	-0.460595	-0.000078
H449	H	0.740540	-0.127262	0.333256
H450	H	1.073873	0.206071	0.666589
H451	H	0.511296	0.014750	-0.422585
H452	H	0.844629	0.348083	-0.089251
H453	H	1.177962	0.681417	0.244082
H454	H	0.646920	-0.802406	-0.000125
H455	H	0.980253	-0.469073	0.333208
H456	H	1.313586	-0.135739	0.666541
C457	C	0.436393	-0.707408	-0.000101
C458	C	0.769726	-0.374075	0.333232
C459	C	1.103060	-0.040742	0.666565
C460	C	0.475409	-0.679966	-0.000096
C461	C	0.808742	-0.346633	0.333237
C462	C	1.142076	-0.013299	0.666571
H463	H	0.406651	-0.686180	-0.000108
H464	H	0.739984	-0.352847	0.333226
H465	H	1.073317	-0.019513	0.666559
H466	H	0.438029	-0.727321	0.051354
H467	H	0.771362	-0.393988	0.384688
H468	H	1.104696	-0.060655	0.718021
H469	H	0.438036	-0.727329	-0.051565
H470	H	0.771369	-0.393996	0.281769
H471	H	1.104703	-0.060662	0.615102
H472	H	0.473768	-0.660048	0.051371
H473	H	0.807101	-0.326715	0.384704
H474	H	1.140435	0.006619	0.718037
H475	H	0.473772	-0.660045	-0.051557
H476	H	0.807106	-0.326711	0.281776
H477	H	1.140439	0.006622	0.615110
H478	H	0.117555	-0.061861	-0.000138
H479	H	0.450888	0.271472	0.333195
H480	H	0.784221	0.604806	0.666528
C481	C	0.595058	-0.058794	-0.514822
C482	C	0.928392	0.274539	-0.181489
C483	C	1.261725	0.607873	0.151844
C484	C	0.602423	-0.028438	-0.586469
C485	C	0.935756	0.304895	-0.253135
C486	C	1.269090	0.638228	0.080198
H487	H	0.589969	-0.089941	-0.536362
H488	H	0.923303	0.243392	-0.203028
H489	H	1.256636	0.576725	0.130305
H490	H	0.567363	-0.045129	-0.482103
H491	H	0.900696	0.288205	-0.148769
H492	H	1.234030	0.621538	0.184564
H493	H	0.622853	-0.061905	-0.477420
H494	H	0.956187	0.271429	-0.144087
H495	H	1.289520	0.604762	0.189246
H496	H	0.574626	-0.025325	-0.623867
H497	H	0.907959	0.308009	-0.290534
H498	H	1.241293	0.641342	0.042799
H499	H	0.630121	-0.042107	-0.619203
H500	H	0.963454	0.291226	-0.285869
H501	H	1.296788	0.624560	0.047464
H502	H	0.647851	-0.710939	-0.000125
H503	H	0.981184	-0.377605	0.333208
H504	H	1.314518	-0.044272	0.666542
H505	H	0.209006	-0.060928	-0.000140
H506	H	0.542339	0.272405	0.333193
H507	H	0.875672	0.605739	0.666527
H508	H	0.445243	-0.542345	-0.000081
H509	H	0.778577	-0.209012	0.333252
H510	H	1.111910	0.124321	0.666586
C511	C	0.408407	-0.299234	0.075802
C512	C	0.741741	0.034100	0.409136
C513	C	1.075074	0.367433	0.742469
C514	C	0.435220	-0.290734	-0.000059
C515	C	0.768553	0.042599	0.333275
C516	C	1.101886	0.375932	0.666608
H517	H	0.378669	-0.277999	0.075807
H518	H	0.712003	0.055335	0.409140
H519	H	1.045336	0.388668	0.742474
H520	H	0.426606	-0.293470	0.127248
H521	H	0.759940	0.039863	0.460581
H522	H	1.093273	0.373197	0.793915
H523	H	0.401756	-0.331995	0.075790
H524	H	0.735089	0.001338	0.409123
H525	H	1.068423	0.334671	0.742457
H526	H	0.441874	-0.257973	-0.000043
H527	H	0.775207	0.075360	0.333290
H528	H	1.108541	0.408694	0.666623
H529	H	0.417017	-0.296494	-0.051518
H530	H	0.750350	0.036839	0.281815
H531	H	1.083684	0.370173	0.615149
H532	H	-0.293769	0.138272	-0.000132
H533	H	0.039565	0.471605	0.333202
H534	H	0.372898	0.804938	0.666535
H535	H	0.494139	-0.073813	-0.000088
H536	H	0.827472	0.259520	0.333246
H537	H	1.160806	0.592853	0.666579
H538	H	-0.271688	-0.021674	-0.000116
H539	H	0.061645	0.311659	0.333217
H540	H	0.394979	0.644992	0.666551
H541	H	0.695808	-0.333886	-0.000093
H542	H	1.029141	-0.000553	0.333240
H543	H	1.362475	0.332781	0.666574
H544	H	0.604366	-0.015715	-0.424156
H545	H	0.937699	0.317618	-0.090822
H546	H	1.271032	0.650951	0.242511
C547	C	0.696030	-0.633794	-0.000077
C548	C	1.029364	-0.300460	0.333256
C549	C	1.362697	0.032873	0.666590
C550	C	0.705836	-0.585503	-0.000077
C551	C	1.039170	-0.252169	0.333256
C552	C	1.372503	0.081164	0.666590
H553	H	0.725772	-0.655023	-0.000072
H554	H	1.059105	-0.321690	0.333262
H555	H	1.392439	0.011644	0.666595
H556	H	0.677841	-0.639558	-0.051534
H557	H	1.011174	-0.306225	0.281799
H558	H	1.344507	0.027109	0.615133
H559	H	0.677834	-0.639551	0.051385
H560	H	1.011167	-0.306218	0.384718
H561	H	1.344501	0.027115	0.718052
H562	H	0.724030	-0.579744	-0.051543
H563	H	1.057363	-0.246410	0.281791
H564	H	1.390697	0.086923	0.615124
H565	H	0.724034	-0.579736	0.051385
H566	H	1.057367	-0.246403	0.384718
H567	H	1.390700	0.086931	0.718052
C568	C	0.746384	-0.406810	-0.000115
C569	C	1.079717	-0.073476	0.333218
C570	C	1.413050	0.259857	0.666551
C571	C	0.707367	-0.434251	-0.000106
C572	C	1.040700	-0.100918	0.333227
C573	C	1.374034	0.232415	0.666561
H574	H	0.776126	-0.428038	-0.000134
H575	H	1.109459	-0.094705	0.333199
H576	H	1.442792	0.238628	0.666532
H577	H	0.744750	-0.386896	0.051345
H578	H	1.078084	-0.053562	0.384679
H579	H	1.411417	0.279771	0.718012
H580	H	0.744738	-0.386890	-0.051573
H581	H	1.078072	-0.053557	0.281760
H582	H	1.411405	0.279776	0.615093
H583	H	0.709010	-0.454168	0.051356
H584	H	1.042343	-0.120835	0.384689
H585	H	1.375677	0.212499	0.718023
H586	H	0.709001	-0.454174	-0.051572
H587	H	1.042334	-0.120840	0.281761
H588	H	1.375668	0.212493	0.615095
C589	C	0.555520	0.198169	-0.448618
C590	C	0.888853	0.531502	-0.115285
C591	C	1.222187	0.864835	0.218048
C592	C	0.544504	0.154075	-0.413741
C593	C	0.877837	0.487409	-0.080408
C594	C	1.211170	0.820742	0.252925
H595	H	0.532713	0.224034	-0.427198
H596	H	0.866047	0.557367	-0.093865
H597	H	1.199380	0.890701	0.239468
H598	H	0.553979	0.197151	-0.511534
H599	H	0.887312	0.530484	-0.178201
H600	H	1.220646	0.863817	0.155133
H601	H	0.587338	0.203228	-0.430762
H602	H	0.920671	0.536561	-0.097428
H603	H	1.254005	0.869895	0.235905
H604	H	0.512687	0.149014	-0.431603
H605	H	0.846020	0.482347	-0.098270
H606	H	1.179354	0.815681	0.235063
H607	H	0.546040	0.155093	-0.350812
H608	H	0.879373	0.488426	-0.017479
H609	H	1.212707	0.821760	0.315854
C610	C	0.453935	0.111449	-0.512287
C611	C	0.787268	0.444782	-0.178954
C612	C	1.120602	0.778116	0.154379
C613	C	0.478908	0.088691	-0.584809
C614	C	0.812241	0.422025	-0.251476
C615	C	1.145575	0.755358	0.081858
H616	H	0.428304	0.134735	-0.533037
H617	H	0.761637	0.468068	-0.199704
H618	H	1.094971	0.801401	0.133630
H619	H	0.475727	0.127261	-0.477379
H620	H	0.809060	0.460595	-0.144045
H621	H	1.142394	0.793928	0.189288
H622	H	0.440831	0.087785	-0.477271
H623	H	0.774164	0.421118	-0.143938
H624	H	1.107497	0.754451	0.189395
H625	H	0.492016	0.112355	-0.619822
H626	H	0.825349	0.445689	-0.286488
H627	H	1.158682	0.779022	0.046845
H628	H	0.457112	0.072879	-0.619732
H629	H	0.790446	0.406212	-0.286399
H630	H	1.123779	0.739546	0.046934
H631	H	0.654085	-0.095890	-0.000113
H632	H	0.987418	0.237443	0.333220
H633	H	1.320752	0.570777	0.666554
H634	H	0.653160	-0.187341	-0.000097
H635	H	0.986493	0.145992	0.333237
H636	H	1.319826	0.479326	0.666570
C637	C	0.380091	0.196440	-0.000094
C638	C	0.713424	0.529773	0.333239
C639	C	1.046757	0.863106	0.666572
C640	C	0.418204	0.158086	-0.000084
C641	C	0.751537	0.491419	0.333249
C642	C	1.084870	0.824752	0.666582
H643	H	0.393067	0.226527	-0.000101
H644	H	0.726400	0.559861	0.333232
H645	H	1.059734	0.893194	0.666565
H646	H	0.360679	0.194409	0.051360
H647	H	0.694012	0.527742	0.384693
H648	H	1.027346	0.861076	0.718026
H649	H	0.360683	0.194397	-0.051559
H650	H	0.694016	0.527730	0.281774
H651	H	1.027350	0.861063	0.615108
H652	H	0.437610	0.160126	0.051384
H653	H	0.770943	0.493460	0.384717
H654	H	1.104276	0.826793	0.718051
H655	H	0.437624	0.160117	-0.051544
H656	H	0.770957	0.493451	0.281789
H657	H	1.104290	0.826784	0.615123
C658	C	0.283019	0.159417	0.075758
C659	C	0.616352	0.492750	0.409092
C660	C	0.949685	0.826083	0.742425
C661	C	0.312381	0.157015	-0.000096
C662	C	0.645714	0.490348	0.333237
C663	C	0.979047	0.823681	0.666570
H664	H	0.261788	0.189157	0.075758
H665	H	0.595121	0.522491	0.409091
H666	H	0.928455	0.855824	0.742424
H667	H	0.302937	0.157784	0.127208
H668	H	0.636271	0.491117	0.460542
H669	H	0.969604	0.824450	0.793875
H670	H	0.264411	0.132940	0.075744
H671	H	0.597744	0.466273	0.409077
H672	H	0.931077	0.799607	0.742410
H673	H	0.330991	0.183489	-0.000078
H674	H	0.664325	0.516823	0.333255
H675	H	0.997658	0.850156	0.666588
H676	H	0.292460	0.158652	-0.051560
H677	H	0.625793	0.491986	0.281774
H678	H	0.959126	0.825319	0.615107
H679	H	0.489611	0.079529	-0.423888
H680	H	0.822945	0.412863	-0.090555
H681	H	1.156278	0.746196	0.242778
H682	H	0.618483	0.120258	-0.424028
H683	H	0.951816	0.453591	-0.090695
H684	H	1.285150	0.786925	0.242638
C685	C	0.101840	0.237752	-0.000106
C686	C	0.435173	0.571086	0.333227
C687	C	0.768506	0.904419	0.666561
C688	C	0.074397	0.198737	-0.000112
C689	C	0.407730	0.532070	0.333221
C690	C	0.741064	0.865404	0.666555
H691	H	0.080612	0.267495	-0.000091
H692	H	0.413945	0.600828	0.333242
H693	H	0.747279	0.934162	0.666575
H694	H	0.121754	0.236115	-0.051565
H695	H	0.455087	0.569448	0.281768
H696	H	0.788420	0.902782	0.615101
H697	H	0.121760	0.236110	0.051354
H698	H	0.455093	0.569443	0.384687
H699	H	0.788426	0.902777	0.718020
H700	H	0.054480	0.200377	-0.051575
H701	H	0.387813	0.533710	0.281758
H702	H	0.721146	0.867044	0.615091
H703	H	0.054475	0.200375	0.051353
H704	H	0.387808	0.533708	0.384686
H705	H	0.721141	0.867042	0.718019
C706	C	0.376018	-0.066413	-0.000080
C707	C	0.709352	0.266920	0.333254
C708	C	1.042685	0.600253	0.666587
C709	C	0.337906	-0.028058	-0.000087
C710	C	0.671240	0.305275	0.333246
C711	C	1.004573	0.638608	0.666579
H712	H	0.363041	-0.096501	-0.000088
H713	H	0.696374	0.236833	0.333245
H714	H	1.029707	0.570166	0.666579
H715	H	0.395422	-0.064376	0.051381
H716	H	0.728755	0.268958	0.384715
H717	H	1.062089	0.602291	0.718048
H718	H	0.395434	-0.064379	-0.051537
H719	H	0.728767	0.268954	0.281796
H720	H	1.062101	0.602288	0.615129
H721	H	0.318492	-0.030091	0.051374
H722	H	0.651826	0.303243	0.384707
H723	H	0.985159	0.636576	0.718041
H724	H	0.318494	-0.030097	-0.051554
H725	H	0.651828	0.303236	0.281780
H726	H	0.985161	0.636570	0.615113
C727	C	-0.198761	-0.072251	-0.000113
C728	C	0.134572	0.261082	0.333220
C729	C	0.467905	0.594416	0.666553
C730	C	-0.171320	-0.033234	-0.000122
C731	C	0.162013	0.300099	0.333211
C732	C	0.495346	0.633432	0.666544
H733	H	-0.177532	-0.101993	-0.000102
H734	H	0.155801	0.231340	0.333231
H735	H	0.489134	0.564674	0.666564
H736	H	-0.218675	-0.070619	-0.051570
H737	H	0.114658	0.262714	0.281763
H738	H	0.447992	0.596047	0.615096
H739	H	-0.218681	-0.070605	0.051349
H740	H	0.114652	0.262728	0.384682
H741	H	0.447985	0.596062	0.718015
H742	H	-0.151403	-0.034878	-0.051588
H743	H	0.181930	0.298455	0.281745
H744	H	0.515264	0.631788	0.615079
H745	H	-0.151398	-0.034867	0.051340
H746	H	0.181935	0.298467	0.384673
H747	H	0.515268	0.631800	0.718006
H748	H	0.023525	0.185642	-0.000128
H749	H	0.356858	0.518975	0.333206
H750	H	0.690192	0.852308	0.666539
C751	C	0.473101	-0.029371	0.075768
C752	C	0.806435	0.303962	0.409102
C753	C	1.139768	0.637295	0.742435
C754	C	0.443743	-0.026980	-0.000087
C755	C	0.777076	0.306353	0.333247
C756	C	1.110409	0.639687	0.666580
H757	H	0.494341	-0.059106	0.075758
H758	H	0.827675	0.274227	0.409091
H759	H	1.161008	0.607561	0.742424
H760	H	0.453181	-0.027746	0.127218
H761	H	0.786514	0.305588	0.460552
H762	H	1.119847	0.638921	0.793885
H763	H	0.491699	-0.002887	0.075764
H764	H	0.825032	0.330446	0.409097
H765	H	1.158365	0.663780	0.742430
H766	H	0.425142	-0.053462	-0.000079
H767	H	0.758476	0.279871	0.333255
H768	H	1.091809	0.613204	0.666588
H769	H	0.463666	-0.028610	-0.051550
H770	H	0.796999	0.304723	0.281784
H771	H	1.130332	0.638056	0.615117
H772	H	-0.067936	0.184706	-0.000136
H773	H	0.265397	0.518040	0.333197
H774	H	0.598731	0.851373	0.666531
C775	C	-0.001028	-0.114377	-0.000146
C776	C	0.332305	0.218957	0.333187
C777	C	0.665639	0.552290	0.666521
C778	C	-0.039143	-0.076025	-0.000143
C779	C	0.294190	0.257308	0.333190
C780	C	0.627524	0.590642	0.666523
H781	H	-0.014003	-0.144466	-0.000163
H782	H	0.319331	0.188868	0.333170
H783	H	0.652664	0.522201	0.666504
H784	H	0.018376	-0.112342	0.051316
H785	H	0.351709	0.220992	0.384649
H786	H	0.685042	0.554325	0.717983
H787	H	0.018387	-0.112336	-0.051603
H788	H	0.351720	0.220997	0.281730
H789	H	0.685054	0.554330	0.615064
H790	H	-0.058556	-0.078063	0.051317
H791	H	0.274777	0.255270	0.384651
H792	H	0.608110	0.588603	0.717984
H793	H	-0.058555	-0.078061	-0.051610
H794	H	0.274778	0.255272	0.281723
H795	H	0.608112	0.588606	0.615056
C796	C	0.096039	-0.077360	-0.075971
C797	C	0.429372	0.255974	0.257362
C798	C	0.762705	0.589307	0.590695
C799	C	0.066674	-0.074948	-0.000120
C800	C	0.400007	0.258385	0.333214
C801	C	0.733340	0.591718	0.666547
H802	H	0.117265	-0.107103	-0.075962
H803	H	0.450598	0.226230	0.257371
H804	H	0.783932	0.559563	0.590704
H805	H	0.114647	-0.050889	-0.075966
H806	H	0.447980	0.282444	0.257368
H807	H	0.781313	0.615778	0.590701
H808	H	0.076118	-0.075730	-0.127429
H809	H	0.409451	0.257603	0.205904
H810	H	0.742785	0.590936	0.539238
H811	H	0.086594	-0.076574	0.051338
H812	H	0.419928	0.256759	0.384672
H813	H	0.753261	0.590093	0.718005
H814	H	0.048064	-0.101426	-0.000118
H815	H	0.381398	0.231907	0.333216
H816	H	0.714731	0.565240	0.666549
C817	C	0.650524	0.089702	-0.642429
C818	C	0.983858	0.423035	-0.309095
C819	C	1.317191	0.756369	0.024238
C820	C	0.628780	0.126453	-0.586295
C821	C	0.962113	0.459786	-0.252962
C822	C	1.295446	0.793120	0.080371
H823	H	0.680459	0.098296	-0.664032
H824	H	1.013792	0.431629	-0.330699
H825	H	1.347125	0.764962	0.002635
H826	H	0.629484	0.085853	-0.690929
H827	H	0.962818	0.419186	-0.357595
H828	H	1.296151	0.752519	-0.024262
H829	H	0.656384	0.060034	-0.610387
H830	H	0.989718	0.393367	-0.277054
H831	H	1.323051	0.726701	0.056279
H832	H	0.622916	0.156120	-0.618339
H833	H	0.956250	0.489453	-0.285005
H834	H	1.289583	0.822787	0.048328
H835	H	0.649824	0.130308	-0.537788
H836	H	0.983158	0.463641	-0.204455
H837	H	1.316491	0.796974	0.128879
H838	H	0.446776	-0.391109	-0.000074
H839	H	0.780110	-0.057776	0.333259
H840	H	1.113443	0.275558	0.666592
