data_functionalizedCrystal
_audit_creation_method	'MofGen! by Chris Wilmer'
_symmetry_space_group_name_H-M	'P1'
_symmetry_Int_Tables_number	1
_symmetry_cell_setting	triclinic
loop_
_symmetry_equiv_pos_as_xyz
  x,y,z
_cell_length_a	10.268362
_cell_length_b	17.699083
_cell_length_c	17.699083
_cell_angle_alpha	83.283015
_cell_angle_beta	89.993826
_cell_angle_gamma	90.001444
loop_
_atom_site_label
_atom_site_type_symbol
_atom_site_fract_x
_atom_site_fract_y
_atom_site_fract_z
O1	O	0.108120	-1.004076	-0.095712
O2	O	0.441454	-0.670743	0.237622
O3	O	0.774787	-0.337409	0.570955
O4	O	0.108163	-0.783697	-0.108164
O5	O	0.441497	-0.450364	0.225169
O6	O	0.774830	-0.117031	0.558502
O7	O	0.108129	-0.900113	0.008251
O8	O	0.441462	-0.566780	0.341585
O9	O	0.774796	-0.233446	0.674918
O10	O	0.108154	-0.887660	-0.212127
O11	O	0.441488	-0.554327	0.121206
O12	O	0.774821	-0.220994	0.454539
O13	O	-0.108472	-0.900103	0.008256
O14	O	0.224862	-0.566769	0.341589
O15	O	0.558195	-0.233436	0.674923
O16	O	-0.108437	-0.783687	-0.108160
O17	O	0.224896	-0.450354	0.225174
O18	O	0.558229	-0.117021	0.558507
O19	O	-0.108480	-1.004066	-0.095707
O20	O	0.224853	-0.670732	0.237626
O21	O	0.558186	-0.337399	0.570960
Cu22	Cu	-0.128236	-0.893876	-0.101933
Cu23	Cu	0.205097	-0.560542	0.231400
Cu24	Cu	0.538430	-0.227209	0.564734
Cu25	Cu	0.127919	-0.893888	-0.101938
Cu26	Cu	0.461252	-0.560554	0.231395
Cu27	Cu	0.794586	-0.227221	0.564728
O28	O	-0.108446	-0.887650	-0.212122
O29	O	0.224887	-0.554317	0.121211
O30	O	0.558220	-0.220984	0.454544
C31	C	-0.000132	-0.755495	-0.107716
C32	C	0.333202	-0.422162	0.225618
C33	C	0.666535	-0.088829	0.558951
C34	C	-0.000116	-0.671477	-0.106377
C35	C	0.333218	-0.338144	0.226956
C36	C	0.666551	-0.004811	0.560290
C37	C	-0.000171	-0.899662	0.036451
C38	C	0.333162	-0.566328	0.369784
C39	C	0.666495	-0.232995	0.703117
C40	C	-0.000172	-0.898323	0.120469
C41	C	0.333162	-0.564990	0.453802
C42	C	0.666495	-0.231656	0.787135
N43	N	-0.308402	-0.893873	-0.101928
N44	N	0.024931	-0.560539	0.231405
N45	N	0.358265	-0.227206	0.564738
C46	C	-0.574073	-0.893884	-0.101937
C47	C	-0.240739	-0.560550	0.231396
C48	C	0.092594	-0.227217	0.564730
C49	C	-0.426235	-0.893875	-0.101934
C50	C	-0.092901	-0.560542	0.231399
C51	C	0.240432	-0.227209	0.564732
N52	N	0.308085	-0.893896	-0.101937
N53	N	0.641418	-0.560563	0.231396
N54	N	0.974752	-0.227230	0.564730
C55	C	-0.000183	-1.032268	-0.096156
C56	C	0.333151	-0.698934	0.237178
C57	C	0.666484	-0.365601	0.570511
C58	C	-0.000190	-1.116286	-0.097494
C59	C	0.333143	-0.782953	0.235839
C60	C	0.666477	-0.449619	0.569172
C61	C	-0.000108	-0.622856	-0.174710
C62	C	0.333225	-0.289523	0.158623
C63	C	0.666559	0.043810	0.491956
C64	C	-0.000125	-0.543913	-0.173448
C65	C	0.333208	-0.210580	0.159885
C66	C	0.666542	0.122754	0.493218
C67	C	-0.000140	-0.513592	-0.103852
C68	C	0.333193	-0.180259	0.229482
C69	C	0.666526	0.153074	0.562815
C70	C	-0.000152	-0.562219	-0.035513
C71	C	0.333182	-0.228886	0.297820
C72	C	0.666515	0.104447	0.631154
C73	C	-0.000144	-0.641161	-0.036776
C74	C	0.333189	-0.307828	0.296557
C75	C	0.666523	0.025505	0.629891
C76	C	-0.000184	-0.243856	-0.030418
C77	C	0.333149	0.089477	0.302915
C78	C	0.666482	0.422810	0.636249
C79	C	-0.000188	-0.164908	-0.029160
C80	C	0.333145	0.168425	0.304173
C81	C	0.666478	0.501758	0.637507
C82	C	-0.000166	-0.146608	-0.167090
C83	C	0.333168	0.186725	0.166243
C84	C	0.666501	0.520058	0.499577
C85	C	-0.000158	-0.225550	-0.168353
C86	C	0.333175	0.107783	0.164980
C87	C	0.666509	0.441117	0.498314
C88	C	-0.000176	-0.274170	-0.100015
C89	C	0.333157	0.059163	0.233319
C90	C	0.666490	0.392496	0.566652
C91	C	-0.000160	-0.359769	-0.101384
C92	C	0.333173	-0.026436	0.231949
C93	C	0.666506	0.306897	0.565282
C94	C	-0.000147	-0.427995	-0.102481
C95	C	0.333186	-0.094661	0.230852
C96	C	0.666520	0.238672	0.564185
C97	C	-0.000143	-0.888102	-0.240322
C98	C	0.333190	-0.554768	0.093011
C99	C	0.666524	-0.221435	0.426345
C100	C	-0.000134	-0.889440	-0.324340
C101	C	0.333199	-0.556107	0.008993
C102	C	0.666533	-0.222773	0.342327
C103	C	-0.000187	-0.966656	0.169090
C104	C	0.333147	-0.633323	0.502423
C105	C	0.666480	-0.299990	0.835756
C106	C	-0.000175	-0.965394	0.248033
C107	C	0.333158	-0.632061	0.581366
C108	C	0.666492	-0.298727	0.914700
C109	C	-0.000157	-0.895798	0.278354
C110	C	0.333176	-0.562464	0.611687
C111	C	0.666509	-0.229131	0.945020
C112	C	-0.000138	-0.827459	0.229727
C113	C	0.333195	-0.494126	0.563060
C114	C	0.666528	-0.160792	0.896393
C115	C	-0.000141	-0.828722	0.150785
C116	C	0.333193	-0.495389	0.484118
C117	C	0.666526	-0.162055	0.817451
C118	C	-0.000127	-0.822364	0.548090
C119	C	0.333207	-0.489030	0.881423
C120	C	0.666540	-0.155697	1.214756
C121	C	-0.000128	-0.821106	0.627038
C122	C	0.333205	-0.487773	0.960371
C123	C	0.666538	-0.154439	1.293704
C124	C	-0.000161	-0.959036	0.645338
C125	C	0.333172	-0.625703	0.978671
C126	C	0.666506	-0.292369	1.312004
C127	C	-0.000163	-0.960299	0.566396
C128	C	0.333170	-0.626966	0.899729
C129	C	0.666503	-0.293632	1.233063
C130	C	-0.000138	-0.891961	0.517776
C131	C	0.333196	-0.558627	0.851109
C132	C	0.666529	-0.225294	1.184442
C133	C	-0.000148	-0.893330	0.432177
C134	C	0.333186	-0.559997	0.765510
C135	C	0.666519	-0.226664	1.098843
C136	C	-0.000156	-0.894427	0.363951
C137	C	0.333177	-0.561094	0.697285
C138	C	0.666510	-0.227761	1.030618
H139	H	-0.000095	-0.647537	-0.231384
H140	H	0.333239	-0.314204	0.101949
H141	H	0.666572	0.019130	0.435283
H142	H	-0.000183	-0.537526	0.021154
H143	H	0.333151	-0.204193	0.354487
H144	H	0.666484	0.129141	0.687820
O145	O	-0.000112	-0.746037	0.659743
O146	O	0.333222	-0.412704	0.993076
O147	O	0.666555	-0.079370	1.326409
H148	H	0.088163	-0.742175	0.695275
H149	H	0.421496	-0.408841	1.028608
H150	H	0.754830	-0.075508	1.361942
H151	H	-0.000158	-0.107012	-0.222734
H152	H	0.333176	0.226322	0.110599
H153	H	0.666509	0.559655	0.443933
H154	H	-0.000190	-1.021038	0.287618
H155	H	0.333143	-0.687705	0.620951
H156	H	0.666476	-0.354372	0.954284
O157	O	-0.000140	-0.258255	-0.243417
O158	O	0.333193	0.075078	0.089917
O159	O	0.666527	0.408411	0.423250
H160	H	-0.088416	-0.293792	-0.247281
H161	H	0.244918	0.039541	0.086052
H162	H	0.578251	0.372874	0.419385
H163	H	-0.000149	-0.680748	0.018868
H164	H	0.333184	-0.347415	0.352201
H165	H	0.666517	-0.014082	0.685535
O166	O	-0.000178	-1.032749	0.697777
O167	O	0.333155	-0.699415	1.031110
O168	O	0.666489	-0.366082	1.364444
H169	H	-0.000160	-1.020183	0.757765
H170	H	0.333173	-0.686849	1.091098
H171	H	0.666507	-0.353516	1.424432
O172	O	-0.000191	-0.296290	0.043287
O173	O	0.333142	0.037043	0.376621
O174	O	0.666475	0.370377	0.709954
H175	H	-0.088480	-0.332691	0.046017
H176	H	0.244854	0.000642	0.379350
H177	H	0.578187	0.333975	0.712684
H178	H	-0.000116	-0.770792	0.254420
H179	H	0.333218	-0.437459	0.587753
H180	H	0.666551	-0.104126	0.921087
H181	H	-0.000106	-0.766718	0.508512
H182	H	0.333227	-0.433385	0.841845
H183	H	0.666561	-0.100052	1.175179
O184	O	-0.000138	-0.755021	0.098338
O185	O	0.333195	-0.421687	0.431671
O186	O	0.666528	-0.088354	0.765004
H187	H	-0.000141	-0.706413	0.132682
H188	H	0.333192	-0.373080	0.466015
H189	H	0.666526	-0.039746	0.799349
H190	H	-0.000118	-0.504328	-0.229092
H191	H	0.333216	-0.170995	0.104241
H192	H	0.666549	0.162338	0.437574
H193	H	-0.000209	-1.023330	0.144409
H194	H	0.333124	-0.689997	0.477742
H195	H	0.666458	-0.356663	0.811076
O196	O	-0.000227	-0.132201	0.045908
O197	O	0.333106	0.201133	0.379241
O198	O	0.666440	0.534466	0.712574
H199	H	-0.000256	-0.179271	0.093216
H200	H	0.333077	0.154062	0.426549
H201	H	0.666411	0.487396	0.759883
O202	O	-0.000164	-1.035363	0.533690
O203	O	0.333169	-0.702029	0.867024
O204	O	0.666503	-0.368696	1.200357
H205	H	-0.000154	-1.082669	0.580763
H206	H	0.333179	-0.749335	0.914096
H207	H	0.666512	-0.416002	1.247430
