data_functionalizedCrystal
_audit_creation_method	'MofGen! by Chris Wilmer'
_symmetry_space_group_name_H-M	'P1'
_symmetry_Int_Tables_number	1
_symmetry_cell_setting	triclinic
loop_
_symmetry_equiv_pos_as_xyz
  x,y,z
_cell_length_a	10.654554
_cell_length_b	10.654550
_cell_length_c	9.730223
_cell_angle_alpha	90.001620
_cell_angle_beta	90.003135
_cell_angle_gamma	84.485824
loop_
_atom_site_label
_atom_site_type_symbol
_atom_site_fract_x
_atom_site_fract_y
_atom_site_fract_z
O1	O	1.667836	0.176422	0.114291
O2	O	1.302358	0.193222	0.114292
O3	O	1.493500	0.002083	0.114287
O4	O	1.476694	0.367561	0.114297
O5	O	1.493488	0.002084	-0.114293
O6	O	1.302346	0.193223	-0.114288
O7	O	1.667824	0.176423	-0.114289
Zn8	Zn	1.485083	0.184823	-0.150580
Zn9	Zn	1.485099	0.184822	0.150584
O10	O	1.476682	0.367562	-0.114283
C11	C	1.255554	0.191988	0.000003
C12	C	1.116111	0.188294	0.000003
C13	C	1.492260	-0.044714	-0.000002
C14	C	1.488568	-0.184158	0.000003
C15	C	0.905602	0.297367	0.000009
C16	C	1.036624	0.300839	0.000009
C17	C	1.064571	0.072269	0.000010
C18	C	0.933552	0.068799	0.000020
C19	C	0.889469	0.429330	0.000003
C20	C	1.020490	0.432802	0.000003
C21	C	1.601109	-0.263642	-0.000002
C22	C	1.597633	-0.394663	0.000008
C23	C	1.369064	-0.366703	0.000021
C24	C	1.372541	-0.235684	0.000021
C25	C	1.733072	-0.279785	-0.000015
C26	C	1.729595	-0.410806	-0.000005
C27	C	1.714627	0.177657	0.000004
C28	C	1.854070	0.181351	0.000012
C29	C	1.477922	0.414360	0.000008
C30	C	1.481613	0.553803	0.000012
N31	N	1.485081	0.184823	-0.356117
C32	C	1.569756	0.100207	-0.571929
C33	C	1.569746	0.100215	-0.428046
C34	C	1.400431	0.269437	-0.428077
C35	C	1.400449	0.269435	-0.571958
C36	C	1.667505	0.002504	-0.571910
C37	C	1.667495	0.002512	-0.428027
N38	N	1.485110	0.184813	0.356120
H39	H	0.891601	-0.025672	0.000040
H40	H	1.764024	0.024013	-0.610935
H41	H	1.775088	-0.244157	-0.098711
H42	H	1.049846	0.484392	-0.095668
H43	H	1.769481	-0.456449	0.098689
H44	H	1.331534	0.338338	-0.630539
H45	H	1.056128	0.474827	0.098701
H46	H	1.636988	-0.088708	-0.616546
H47	H	1.280899	-0.170972	0.000044
H48	H	1.331503	0.338335	-0.369503
H49	H	0.843813	0.469199	-0.098688
H50	H	1.274599	-0.408672	0.000037
H51	H	1.784692	-0.250426	0.095638
H52	H	1.779312	-0.452565	-0.095664
H53	H	1.646037	-0.094020	-0.388983
H54	H	1.129300	-0.019366	0.000019
H55	H	0.847728	0.479059	0.095661
H56	H	1.758683	0.033090	-0.383384
