data_functionalizedCrystal
_audit_creation_method	'MofGen! by Chris Wilmer'
_symmetry_space_group_name_H-M	'P1'
_symmetry_Int_Tables_number	1
_symmetry_cell_setting	triclinic
loop_
_symmetry_equiv_pos_as_xyz
  x,y,z
_cell_length_a	15.297979
_cell_length_b	16.625546
_cell_length_c	16.625539
_cell_angle_alpha	89.971468
_cell_angle_beta	80.292161
_cell_angle_gamma	99.682367
loop_
_atom_site_label
_atom_site_type_symbol
_atom_site_fract_x
_atom_site_fract_y
_atom_site_fract_z
Zn1	Zn	1.379332	-0.107932	-0.669653
Zn2	Zn	1.879332	0.392068	-0.169653
Zn3	Zn	1.379233	-0.242786	-0.534800
Zn4	Zn	1.879233	0.257214	-0.034800
Zn5	Zn	1.228458	-0.131263	-0.511453
Zn6	Zn	1.728458	0.368737	-0.011453
Zn7	Zn	1.228416	-0.266040	-0.646218
Zn8	Zn	1.728416	0.233960	-0.146218
O9	O	1.303860	-0.187005	-0.590531
O10	O	1.803860	0.312995	-0.090531
O11	O	1.505578	-0.106324	-0.671343
O12	O	2.005578	0.393676	-0.171343
O13	O	1.359209	-0.228024	-0.418867
O14	O	1.859209	0.271976	0.081133
O15	O	1.248531	-0.015327	-0.532475
O16	O	1.748531	0.484673	-0.032475
O17	O	1.505505	-0.205401	-0.572268
O18	O	2.005505	0.294599	-0.072268
O19	O	1.359378	0.001815	-0.648704
O20	O	1.859378	0.501815	-0.148704
O21	O	1.248435	-0.146089	-0.401714
O22	O	1.748435	0.353911	0.098286
O23	O	1.102194	-0.168638	-0.509751
O24	O	1.602194	0.331362	-0.009751
O25	O	1.248459	-0.245034	-0.762163
O26	O	1.748459	0.254966	-0.262163
O27	O	1.102163	-0.267658	-0.608762
O28	O	1.602163	0.232342	-0.108762
O29	O	1.359336	-0.128873	-0.779381
O30	O	1.859336	0.371127	-0.279381
O31	O	1.359168	-0.358712	-0.549543
O32	O	1.859168	0.141288	-0.049543
O33	O	1.248363	-0.375797	-0.631401
O34	O	1.748363	0.124203	-0.131401
C35	C	1.069441	-0.223204	-0.554180
C36	C	1.569441	0.276796	-0.054180
C37	C	0.969155	-0.238709	-0.538649
C38	C	1.469155	0.261291	-0.038649
C39	C	0.922002	-0.297495	-0.479686
C40	C	1.422002	0.202505	0.020314
C41	C	0.827778	-0.312065	-0.465097
C42	C	1.327778	0.187935	0.034903
C43	C	0.780699	-0.267845	-0.509465
C44	C	1.280699	0.232155	-0.009465
C45	C	0.827852	-0.209053	-0.568425
C46	C	1.327852	0.290947	-0.068425
C47	C	0.922085	-0.194486	-0.583020
C48	C	1.422085	0.305514	-0.083020
C49	C	0.780782	-0.164836	-0.612799
C50	C	1.280782	0.335164	-0.112799
C51	C	0.827936	-0.106044	-0.671759
C52	C	1.327936	0.393956	-0.171759
C53	C	0.922159	-0.091480	-0.686351
C54	C	1.422159	0.408520	-0.186351
C55	C	0.969238	-0.135700	-0.641983
C56	C	1.469238	0.364300	-0.141983
C57	C	0.686550	-0.179403	-0.598204
C58	C	1.186550	0.320597	-0.098204
C59	C	0.686633	-0.076394	-0.701538
C60	C	1.186633	0.423606	-0.201538
C61	C	0.780857	-0.061824	-0.716127
C62	C	1.280857	0.438176	-0.216127
C63	C	1.303774	-0.396509	-0.590484
C64	C	1.803774	0.103491	-0.090484
C65	C	1.303820	-0.486123	-0.590504
C66	C	1.803820	0.013877	-0.090504
C67	C	1.303978	-0.814274	-0.590612
C68	C	1.803978	-0.314274	-0.090612
C69	C	1.303931	-0.722973	-0.590584
C70	C	1.803931	-0.222973	-0.090584
C71	C	1.303898	-0.650202	-0.590557
C72	C	1.803898	-0.150202	-0.090557
C73	C	1.303853	-0.558895	-0.590530
C74	C	1.803853	-0.058895	-0.090530
C75	C	1.539194	-0.150666	-0.627024
C76	C	2.039194	0.349334	-0.127024
C77	C	1.639480	-0.135181	-0.642575
C78	C	2.139480	0.364819	-0.142575
C79	C	1.303904	-0.186945	-0.800847
C80	C	1.803904	0.313055	-0.300847
C81	C	1.303923	-0.186920	-0.890471
C82	C	1.803923	0.313080	-0.390471
C83	C	1.303970	0.023321	-0.590600
C84	C	1.803970	0.523321	-0.090600
C85	C	1.304017	0.112949	-0.590629
C86	C	1.804017	0.612949	-0.090629
C87	C	1.303938	-0.186899	-0.963256
C88	C	1.803938	0.313101	-0.463256
C89	C	1.303959	-0.186866	-1.054568
C90	C	1.803959	0.313134	-0.554568
C91	C	1.303980	-0.186835	-1.127347
C92	C	1.803980	0.313165	-0.627347
C93	C	1.304002	-0.186802	-1.218665
C94	C	1.804002	0.313198	-0.718665
C95	C	1.303868	-0.186999	-0.381041
C96	C	1.803868	0.313001	0.118959
C97	C	1.304024	-0.186770	-0.291445
C98	C	1.804024	0.313230	0.208555
H99	H	0.789393	-0.359934	-0.417092
H100	H	1.289393	0.140066	0.082908
H101	H	0.960342	-0.333496	-0.443571
H102	H	1.460342	0.166504	0.056429
H103	H	0.703978	-0.279711	-0.497583
H104	H	1.203978	0.220289	0.002417
H105	H	0.648167	-0.227273	-0.550199
H106	H	1.148167	0.272727	-0.050199
H107	H	0.648302	-0.040387	-0.737667
H108	H	1.148302	0.459613	-0.237667
N109	N	1.065488	-0.120807	-0.656873
N110	N	1.565488	0.379193	-0.156873
N111	N	1.107513	-0.097368	-0.600512
N112	N	1.607513	0.402632	-0.100512
H113	H	1.175491	-0.086851	-0.611025
H114	H	1.675491	0.413149	-0.111025
N115	N	0.970312	-0.031436	-0.746591
N116	N	1.470312	0.468564	-0.246591
N117	N	0.928272	0.008038	-0.786204
N118	N	1.428272	0.508038	-0.286204
H119	H	0.962278	0.050443	-0.828752
H120	H	1.462278	0.550443	-0.328752
N121	N	0.829028	-0.001763	-0.776342
N122	N	1.329028	0.498237	-0.276342
N123	N	0.881609	0.057781	-0.756203
N124	N	1.381609	0.557781	-0.256203
H125	H	0.915631	0.100201	-0.798729
H126	H	1.415631	0.600201	-0.298729
