data_functionalizedCrystal
_audit_creation_method	'MofGen! by Chris Wilmer'
_symmetry_space_group_name_H-M	'P1'
_symmetry_Int_Tables_number	1
_symmetry_cell_setting	triclinic
loop_
_symmetry_equiv_pos_as_xyz
  x,y,z
_cell_length_a	29.999520
_cell_length_b	29.998686
_cell_length_c	29.995014
_cell_angle_alpha	60.005185
_cell_angle_beta	60.010401
_cell_angle_gamma	59.993433
loop_
_atom_site_label
_atom_site_type_symbol
_atom_site_fract_x
_atom_site_fract_y
_atom_site_fract_z
O1	O	0.061772	-0.651300	0.544623
O2	O	0.561772	-0.151300	1.044623
O3	O	0.023267	-0.507084	0.438819
O4	O	0.523267	-0.007084	0.938819
O5	O	0.114589	-0.598332	0.438743
O6	O	0.614589	-0.098332	0.938743
O7	O	-0.029550	-0.560051	0.544699
O8	O	0.470450	-0.060051	1.044699
O9	O	0.144886	-0.568039	0.468961
O10	O	0.644886	-0.068039	0.968961
O11	O	0.053564	-0.476791	0.469038
O12	O	0.553564	0.023209	0.969038
O13	O	0.092069	-0.621007	0.574841
O14	O	0.592069	-0.121007	1.074841
Zn15	Zn	0.077627	-0.544089	0.526737
Zn16	Zn	0.577627	-0.044089	1.026737
Zn17	Zn	0.037709	-0.584002	0.486923
Zn18	Zn	0.537709	-0.084002	0.986923
O19	O	0.000748	-0.529758	0.574918
O20	O	0.500748	-0.029758	1.074918
N21	N	0.104871	-0.516854	0.553912
N22	N	0.604871	-0.016854	1.053912
N23	N	0.010470	-0.611242	0.459748
N24	N	0.510470	-0.111242	0.959748
C25	C	0.143162	-0.478782	0.827124
C26	C	0.643162	0.021218	1.327124
C27	C	0.378203	-0.478734	0.591892
C28	C	0.878203	0.021266	1.091892
C29	C	0.143005	-0.478752	0.591997
C30	C	0.643005	0.021248	1.091997
C31	C	0.142986	-0.243586	0.592008
C32	C	0.642986	0.256414	1.092008
C33	C	0.180857	-0.357087	0.629814
C34	C	0.680857	0.142913	1.129814
C35	C	0.180866	-0.440920	0.629807
C36	C	0.680866	0.059080	1.129807
C37	C	0.201840	-0.419964	0.650755
C38	C	0.701840	0.080036	1.150755
C39	C	0.293272	-0.404201	0.602606
C40	C	0.793272	0.095799	1.102606
C41	C	0.350426	-0.423248	0.583534
C42	C	0.850426	0.076752	1.083534
C43	C	0.350451	-0.515727	0.618798
C44	C	0.850451	-0.015727	1.118798
C45	C	0.293297	-0.496678	0.637872
C46	C	0.793297	0.003322	1.137872
C47	C	0.194628	-0.328499	0.573626
C48	C	0.694628	0.171501	1.073626
C49	C	0.175551	-0.271340	0.554591
C50	C	0.675551	0.228660	1.054591
C51	C	0.128936	-0.271362	0.647935
C52	C	0.628936	0.228638	1.147935
C53	C	0.148014	-0.328521	0.666970
C54	C	0.648014	0.171479	1.166970
C55	C	0.124672	-0.427119	0.643641
C56	C	0.624672	0.072881	1.143641
C57	C	0.105611	-0.446170	0.624592
C58	C	0.605611	0.053830	1.124592
C59	C	0.198934	-0.492820	0.577889
C60	C	0.698934	0.007180	1.077889
C61	C	0.217998	-0.473770	0.596931
C62	C	0.717998	0.026230	1.096931
C63	C	0.124740	-0.427136	0.742229
C64	C	0.624740	0.072864	1.242229
C65	C	0.105728	-0.446202	0.799386
C66	C	0.605728	0.053798	1.299386
C67	C	0.199085	-0.492863	0.799337
C68	C	0.699085	0.007137	1.299337
C69	C	0.218096	-0.473798	0.742178
C70	C	0.718096	0.026202	1.242178
C71	C	0.180923	-0.440933	0.713626
C72	C	0.680923	0.059067	1.213626
C73	C	0.264710	-0.440915	0.629773
C74	C	0.764710	0.059085	1.129773
C75	C	0.121509	-0.499370	0.889991
C76	C	0.621509	0.000630	1.389991
C77	C	0.441068	-0.498953	0.570621
C78	C	0.941068	0.001047	1.070621
C79	C	0.121297	-0.499349	0.571429
C80	C	0.621297	0.000651	1.071429
C81	C	0.121653	-0.180715	0.571802
C82	C	0.621653	0.319285	1.071802
C83	C	-0.111071	-0.648912	0.421584
C84	C	0.388929	-0.148912	0.921584
C85	C	-0.027286	-0.649018	0.421777
C86	C	0.472714	-0.149018	0.921777
C87	C	-0.048200	-0.669944	0.400740
C88	C	0.451800	-0.169944	0.900740
C89	C	-0.064036	-0.761340	0.448814
C90	C	0.435964	-0.261340	0.948814
C91	C	-0.045033	-0.818500	0.467893
C92	C	0.454967	-0.318500	0.967893
C93	C	0.047447	-0.818609	0.432797
C94	C	0.547447	-0.318609	0.932797
C95	C	0.028444	-0.761451	0.413717
C96	C	0.528444	-0.261451	0.913717
C97	C	-0.139731	-0.662677	0.477755
C98	C	0.360269	-0.162677	0.977755
C99	C	-0.196885	-0.643554	0.496701
C100	C	0.303115	-0.143554	0.996701
C101	C	-0.196717	-0.596907	0.403303
C102	C	0.303283	-0.096907	0.903303
C103	C	-0.139562	-0.616030	0.384357
C104	C	0.360438	-0.116030	0.884357
C105	C	-0.041053	-0.592827	0.407952
C106	C	0.458947	-0.092827	0.907952
C107	C	-0.022041	-0.573809	0.427083
C108	C	0.477959	-0.073809	0.927083
C109	C	0.024504	-0.667167	0.473848
C110	C	0.524504	-0.167167	0.973848
C111	C	0.005492	-0.686188	0.454725
C112	C	0.505492	-0.186188	0.954725
C113	C	-0.040886	-0.592836	0.309259
C114	C	0.459114	-0.092836	0.809259
C115	C	-0.021740	-0.573821	0.252102
C116	C	0.478260	-0.073821	0.752102
C117	C	0.024886	-0.667185	0.252163
C118	C	0.524886	-0.167185	0.752163
C119	C	0.005743	-0.686199	0.309322
C120	C	0.505743	-0.186199	0.809322
C121	C	-0.027145	-0.649023	0.337868
C122	C	0.472855	-0.149023	0.837868
C123	C	-0.027299	-0.732818	0.421728
C124	C	0.472701	-0.232818	0.921728
N125	N	0.492511	-0.516826	0.553742
N126	N	0.992511	-0.016826	1.053742
O127	O	0.679283	-0.525926	0.419277
O128	O	1.179283	-0.025926	0.919277
O129	O	0.679465	-0.632059	0.563349
O130	O	1.179465	-0.132059	1.063349
O131	O	0.679393	-0.631817	0.471975
O132	O	1.179393	-0.131817	0.971975
O133	O	0.679355	-0.526168	0.510650
O134	O	1.179355	-0.026168	1.010650
O135	O	0.588593	-0.601610	0.502313
O136	O	1.088593	-0.101610	1.002313
O137	O	0.588665	-0.601852	0.593686
O138	O	1.088665	-0.101852	1.093686
O139	O	0.588483	-0.495720	0.449614
O140	O	1.088483	0.004280	0.949614
Zn141	Zn	0.574158	-0.543990	0.526467
Zn142	Zn	1.074158	-0.043990	1.026467
Zn143	Zn	0.693790	-0.583788	0.486496
Zn144	Zn	1.193790	-0.083788	0.986496
O145	O	0.588555	-0.495962	0.540987
O146	O	1.088555	0.004038	1.040987
N147	N	0.775436	-0.610952	0.459215
N148	N	1.275436	-0.110952	0.959215
N149	N	0.104844	-0.129269	0.553931
N150	N	0.604844	0.370731	1.053931
O151	O	-0.029548	0.057600	0.544709
O152	O	0.470452	0.557600	1.044709
O153	O	0.114530	0.057617	0.438578
O154	O	0.614530	0.557617	0.938578
O155	O	0.023130	0.057594	0.438850
O156	O	0.523130	0.557594	0.938850
O157	O	0.061852	0.057623	0.544437
O158	O	0.561852	0.557623	1.044437
O159	O	0.053431	-0.033213	0.469115
O160	O	0.553431	0.466787	0.969115
O161	O	0.144831	-0.033190	0.468843
O162	O	0.644831	0.466810	0.968843
O163	O	0.000753	-0.033207	0.574974
O164	O	0.500753	0.466793	1.074974
Zn165	Zn	0.077603	-0.047616	0.526714
Zn166	Zn	0.577603	0.452384	1.026714
Zn167	Zn	0.037680	0.072026	0.486838
Zn168	Zn	0.537680	0.572026	0.986838
O169	O	0.092153	-0.033184	0.574702
O170	O	0.592153	0.466816	1.074702
N171	N	0.010432	0.153679	0.459622
N172	N	0.510432	0.653679	0.959622
N173	N	0.105130	-0.516904	0.941437
N174	N	0.605130	-0.016904	1.441437
O175	O	0.095923	-0.651280	1.128292
O176	O	0.595923	-0.151280	1.628292
O177	O	-0.010184	-0.507155	1.128318
O178	O	0.489816	-0.007155	1.628318
O179	O	-0.009938	-0.598539	1.128284
O180	O	0.490062	-0.098539	1.628284
O181	O	0.095677	-0.559897	1.128326
O182	O	0.595677	-0.059897	1.628326
O183	O	0.020315	-0.568257	1.037481
O184	O	0.520315	-0.068257	1.537481
O185	O	0.020068	-0.476874	1.037515
O186	O	0.520068	0.023126	1.537515
O187	O	0.126176	-0.620999	1.037489
O188	O	0.626176	-0.120999	1.537489
Zn189	Zn	0.077925	-0.544128	1.023085
Zn190	Zn	0.577925	-0.044128	1.523085
Zn191	Zn	0.038066	-0.584026	1.142722
Zn192	Zn	0.538066	-0.084026	1.642722
O193	O	0.125929	-0.529616	1.037523
O194	O	0.625929	-0.029616	1.537523
N195	N	0.010860	-0.611256	1.224371
N196	N	0.510860	-0.111256	1.724371
C197	C	0.034807	-0.473765	0.439352
C198	C	0.534807	0.026235	0.939352
C199	C	0.147897	-0.586765	0.439257
C200	C	0.647897	-0.086765	0.939257
C201	C	0.080529	-0.654326	0.574308
C202	C	0.580529	-0.154326	1.074308
C203	C	-0.032561	-0.541326	0.574403
C204	C	0.467439	-0.041326	1.074403
C205	C	0.634087	-0.631571	0.596668
C206	C	1.134087	-0.131571	1.096668
C207	C	0.633999	-0.631272	0.483513
C208	C	1.133999	-0.131272	0.983513
C209	C	0.633858	-0.496206	0.416295
C210	C	1.133858	0.003794	0.916295
C211	C	0.633949	-0.496507	0.529449
C212	C	1.133949	0.003493	1.029449
C213	C	0.147793	0.012327	0.439058
C214	C	0.647793	0.512327	0.939058
C215	C	0.034644	0.012187	0.439432
C216	C	0.534644	0.512187	0.939432
C217	C	-0.032548	0.012195	0.574457
C218	C	0.467452	0.512195	1.074457
C219	C	0.080639	0.012222	0.574120
C220	C	0.580639	0.512222	1.074120
C221	C	-0.009670	-0.473857	1.082920
C222	C	0.490330	0.026143	1.582920
C223	C	-0.009359	-0.587018	1.082860
C224	C	0.490641	-0.087018	1.582860
C225	C	0.125662	-0.654297	1.082887
C226	C	0.625662	-0.154297	1.582887
C227	C	0.125358	-0.541129	1.082927
C228	C	0.625358	-0.041129	1.582927
H229	H	0.094465	-0.400370	0.718985
H230	H	0.594465	0.099630	1.218985
C231	C	0.170006	-0.709532	1.082902
C232	C	0.670006	-0.209532	1.582902
C233	C	0.150440	-0.743231	1.082896
C234	C	0.650440	-0.243231	1.582896
C235	C	0.191272	-0.794119	1.082916
C236	C	0.691272	-0.294119	1.582916
H237	H	0.201051	-0.704825	1.051249
H238	H	0.701051	-0.204825	1.551249
H239	H	0.179925	-0.725904	1.114583
H240	H	0.679925	-0.225904	1.614583
H241	H	0.140528	-0.726863	1.051219
H242	H	0.640528	-0.226863	1.551219
H243	H	0.119400	-0.747954	1.114548
H244	H	0.619400	-0.247954	1.614548
H245	H	0.201191	-0.810491	1.114596
H246	H	0.701191	-0.310491	1.614596
H247	H	0.222314	-0.789407	1.051262
H248	H	0.722314	-0.289407	1.551262
H249	H	0.178000	-0.816992	1.082917
H250	H	0.678000	-0.316992	1.582917
C251	C	0.169542	-0.529995	1.082907
C252	C	0.669542	-0.029995	1.582907
C253	C	0.149751	-0.476684	1.082906
C254	C	0.649751	0.023316	1.582906
C255	C	0.190440	-0.466406	1.082880
C256	C	0.690440	0.033594	1.582880
H257	H	0.179523	-0.555136	1.114561
H258	H	0.679523	-0.055136	1.614561
H259	H	0.200589	-0.534035	1.051227
H260	H	0.700589	-0.034035	1.551227
H261	H	0.118714	-0.472649	1.114583
H262	H	0.618714	0.027351	1.614583
H263	H	0.139774	-0.451532	1.051255
H264	H	0.639774	0.048468	1.551255
H265	H	0.221487	-0.470446	1.051200
H266	H	0.721487	0.029554	1.551200
H267	H	0.200418	-0.491550	1.114534
H268	H	0.700418	0.008450	1.614534
H269	H	0.177019	-0.430233	1.082874
H270	H	0.677019	0.069767	1.582874
H271	H	-0.042525	-0.595273	1.082811
H272	H	0.457475	-0.095273	1.582811
C273	C	0.633905	-0.452312	0.540594
C274	C	1.133905	0.047688	1.040594
C275	C	0.633948	-0.472108	0.593891
C276	C	1.133948	0.027892	1.093891
C277	C	0.633900	-0.431409	0.604179
C278	C	1.133900	0.068591	1.104179
H279	H	0.665536	-0.442315	0.515440
H280	H	1.165536	0.057685	1.015440
H281	H	0.602204	-0.421272	0.536583
H282	H	1.102204	0.078728	1.036583
H283	H	0.665646	-0.503138	0.597897
H284	H	1.165646	-0.003138	1.097897
H285	H	0.602320	-0.482101	0.619056
H286	H	1.102320	0.017899	1.119056
H287	H	0.602199	-0.400370	0.600167
H288	H	1.102199	0.099630	1.100167
H289	H	0.665531	-0.421415	0.579022
H290	H	1.165531	0.078585	1.079022
H291	H	0.633924	-0.444834	0.640342
H292	H	1.133924	0.055166	1.140342
C293	C	0.044704	-0.431130	0.830337
C294	C	0.544704	0.068870	1.330337
C295	C	0.016223	-0.398255	0.793095
C296	C	0.516223	0.101745	1.293095
C297	C	-0.039991	-0.384354	0.821588
C298	C	0.460009	0.115646	1.321588
H299	H	0.035270	-0.463405	0.852636
H300	H	0.535270	0.036595	1.352636
H301	H	0.035325	-0.411714	0.852623
H302	H	0.535325	0.088286	1.352623
H303	H	0.025599	-0.417671	0.770819
H304	H	0.525599	0.082329	1.270819
H305	H	0.025641	-0.365972	0.770795
H306	H	0.525641	0.134028	1.270795
H307	H	-0.049370	-0.364938	0.843874
H308	H	0.450630	0.135062	1.343874
H309	H	-0.049420	-0.416632	0.843886
H310	H	0.450580	0.083368	1.343886
H311	H	-0.059322	-0.362043	0.796324
H312	H	0.440678	0.137957	1.296324
C313	C	0.203093	-0.597744	0.394909
C314	C	0.703093	-0.097744	0.894909
C315	C	0.212745	-0.641635	0.382436
C316	C	0.712745	-0.141635	0.882436
C317	C	0.263588	-0.651769	0.341591
C318	C	0.763588	-0.151769	0.841591
H319	H	0.203246	-0.566185	0.363140
H320	H	0.703246	-0.066185	0.863140
H321	H	0.230885	-0.606413	0.407437
H322	H	0.730885	-0.106413	0.907437
H323	H	0.184960	-0.632963	0.369906
H324	H	0.684960	-0.132963	0.869906
H325	H	0.212603	-0.673202	0.414193
H326	H	0.712603	-0.173202	0.914193
H327	H	0.291381	-0.660438	0.354119
H328	H	0.791381	-0.160438	0.854119
H329	H	0.263737	-0.620208	0.309826
H330	H	0.763737	-0.120208	0.809826
H331	H	0.270146	-0.681553	0.333127
H332	H	0.770146	-0.181553	0.833127
C333	C	0.023957	-0.418555	0.394978
C334	C	0.523957	0.081445	0.894978
C335	C	0.070569	-0.418474	0.348254
C336	C	0.570569	0.081526	0.848254
C337	C	0.060598	-0.367622	0.307369
C338	C	0.560598	0.132378	0.807369
H339	H	-0.005795	-0.411879	0.386398
H340	H	0.494205	0.088121	0.886398
H341	H	0.015336	-0.390789	0.407516
H342	H	0.515336	0.109211	0.907516
H343	H	0.079184	-0.446232	0.335718
H344	H	0.579184	0.053768	0.835718
H345	H	0.100328	-0.425141	0.356816
H346	H	0.600328	0.074859	0.856816
H347	H	0.051976	-0.339856	0.319907
H348	H	0.551976	0.160144	0.819907
H349	H	0.030845	-0.360951	0.298794
H350	H	0.530845	0.139049	0.798794
H351	H	0.092224	-0.367559	0.275664
H352	H	0.592224	0.132441	0.775664
C353	C	-0.087707	-0.530500	0.618850
C354	C	0.412293	-0.030500	1.118850
C355	C	-0.080523	-0.536599	0.664506
C356	C	0.419477	-0.036599	1.164506
C357	C	-0.131309	-0.526639	0.705464
C358	C	0.368691	-0.026639	1.205464
H359	H	-0.110661	-0.494368	0.605689
H360	H	0.389339	0.005632	1.105689
H361	H	-0.104074	-0.555748	0.628833
H362	H	0.395926	-0.055748	1.128833
H363	H	-0.064164	-0.511352	0.654523
H364	H	0.435836	-0.011352	1.154523
H365	H	-0.057578	-0.572728	0.677683
H366	H	0.442422	-0.072728	1.177683
H367	H	-0.147676	-0.551886	0.715447
H368	H	0.352324	-0.051886	1.215447
H369	H	-0.154260	-0.490506	0.692297
H370	H	0.345740	0.009494	1.192297
H371	H	-0.126441	-0.530780	0.736448
H372	H	0.373559	-0.030780	1.236448
H373	H	0.270043	-0.526578	0.659994
H374	H	0.770043	-0.026578	1.159994
H375	H	0.634133	-0.664888	0.638048
H376	H	1.134133	-0.164888	1.138048
H377	H	0.633799	-0.462884	0.374920
H378	H	1.133799	0.037116	0.874920
C379	C	0.044578	-0.431158	0.639696
C380	C	0.544578	0.068842	1.139696
C381	C	0.016138	-0.398327	0.672579
C382	C	0.516138	0.101673	1.172579
C383	C	-0.040085	-0.384496	0.686511
C384	C	0.459915	0.115504	1.186511
H385	H	0.035103	-0.411732	0.607434
H386	H	0.535103	0.088268	1.107434
H387	H	0.035205	-0.463477	0.659113
H388	H	0.535205	0.036523	1.159113
H389	H	0.025507	-0.366014	0.653163
H390	H	0.525507	0.133986	1.153163
H391	H	0.025597	-0.417743	0.704848
H392	H	0.525597	0.082257	1.204848
H393	H	-0.049458	-0.416815	0.705928
H394	H	0.450542	0.083185	1.205928
H395	H	-0.049554	-0.365072	0.654246
H396	H	0.450446	0.134928	1.154246
H397	H	-0.059388	-0.362224	0.708828
H398	H	0.440612	0.137776	1.208828
H399	H	-0.067667	-0.562559	0.332499
H400	H	0.432333	-0.062559	0.832499
C401	C	0.239533	-0.528551	0.830234
C402	C	0.739533	-0.028551	1.330234
C403	C	0.292804	-0.536559	0.792948
C404	C	0.792804	-0.036559	1.292948
C405	C	0.330081	-0.569437	0.821390
C406	C	0.830081	-0.069437	1.321390
H407	H	0.234125	-0.511145	0.852532
H408	H	0.734125	-0.011145	1.352532
H409	H	0.234097	-0.562836	0.852516
H410	H	0.734097	-0.062836	1.352516
H411	H	0.298239	-0.502280	0.770674
H412	H	0.798239	-0.002280	1.270674
H413	H	0.298230	-0.553971	0.770648
H414	H	0.798230	-0.053971	1.270648
H415	H	0.324644	-0.603722	0.843672
H416	H	0.824644	-0.103722	1.343672
H417	H	0.324668	-0.552028	0.843687
H418	H	0.824668	-0.052028	1.343687
H419	H	0.366229	-0.574879	0.796095
H420	H	0.866229	-0.074879	1.296095
H421	H	0.088756	-0.695753	0.607538
H422	H	0.588756	-0.195753	1.107538
H423	H	0.026351	0.012184	0.406260
H424	H	0.526351	0.512184	0.906260
C425	C	0.633905	-0.675470	0.472490
C426	C	1.133905	-0.175470	0.972490
C427	C	0.587158	-0.656776	0.459784
C428	C	1.087158	-0.156776	0.959784
C429	C	0.587049	-0.697480	0.449633
C430	C	1.087049	-0.197480	0.949633
H431	H	0.665515	-0.683975	0.442680
H432	H	1.165515	-0.183975	0.942680
H433	H	0.633920	-0.707258	0.504040
H434	H	1.133920	-0.207258	1.004040
H435	H	0.587148	-0.624999	0.428237
H436	H	1.087148	-0.124999	0.928237
H437	H	0.555541	-0.648276	0.489587
H438	H	1.055541	-0.148276	0.989587
H439	H	0.587064	-0.729267	0.481184
H440	H	1.087064	-0.229267	0.981184
H441	H	0.618661	-0.705981	0.419825
H442	H	1.118661	-0.205981	0.919825
H443	H	0.555330	-0.684803	0.441016
H444	H	1.055330	-0.184803	0.941016
C445	C	0.239336	-0.528461	0.542183
C446	C	0.739336	-0.028461	1.042183
C447	C	0.292627	-0.536456	0.534140
C448	C	0.792627	-0.036456	1.034140
C449	C	0.329861	-0.569279	0.501243
C450	C	0.829861	-0.069279	1.001243
H451	H	0.233932	-0.562752	0.559586
H452	H	0.733932	-0.062752	1.059586
H453	H	0.233854	-0.511003	0.507912
H454	H	0.733854	-0.011003	1.007912
H455	H	0.298107	-0.553915	0.568405
H456	H	0.798107	-0.053915	1.068405
H457	H	0.298049	-0.502175	0.516730
H458	H	0.798049	-0.002175	1.016730
H459	H	0.324379	-0.551821	0.466972
H460	H	0.824379	-0.051821	0.966972
H461	H	0.324452	-0.603567	0.518650
H462	H	0.824452	-0.103567	1.018650
H463	H	0.366023	-0.574704	0.495778
H464	H	0.866023	-0.074704	0.995778
H465	H	-0.033252	-0.528055	0.415829
H466	H	0.466748	-0.028055	0.915829
C467	C	0.202875	0.012701	0.394576
C468	C	0.702875	0.512701	0.894576
C469	C	0.236551	0.012829	0.414087
C470	C	0.736551	0.512829	0.914087
C471	C	0.287294	0.013181	0.373123
C472	C	0.787294	0.513181	0.873123
H473	H	0.219408	-0.018887	0.384481
H474	H	0.719408	0.481113	0.884481
H475	H	0.197919	0.044449	0.363649
H476	H	0.697919	0.544449	0.863649
H477	H	0.241509	-0.018915	0.445004
H478	H	0.741509	0.481085	0.945004
H479	H	0.220035	0.044415	0.424178
H480	H	0.720035	0.544415	0.924178
H481	H	0.282337	0.044929	0.342196
H482	H	0.782337	0.544929	0.842196
H483	H	0.303822	-0.018408	0.363031
H484	H	0.803822	0.481592	0.863031
H485	H	0.310147	0.013273	0.386354
H486	H	0.810147	0.513273	0.886354
H487	H	0.263847	-0.485039	0.718893
H488	H	0.763847	0.014961	1.218893
H489	H	0.016937	-0.731954	0.332612
H490	H	0.516937	-0.231954	0.832612
H491	H	-0.073925	0.012190	0.607776
H492	H	0.426075	0.512190	1.107776
H493	H	0.094434	-0.400372	0.670409
H494	H	0.594434	0.099628	1.170409
H495	H	0.263756	-0.485001	0.585661
H496	H	0.763756	0.014999	1.085661
C497	C	0.091808	0.012193	0.618297
C498	C	0.591808	0.512193	1.118297
C499	C	0.145114	0.012184	0.598494
C500	C	0.645114	0.512184	1.098494
C501	C	0.155425	0.012145	0.639177
C502	C	0.655425	0.512145	1.139177
H503	H	0.066673	0.043846	0.628277
H504	H	0.566673	0.543846	1.128277
H505	H	0.087786	-0.019491	0.649346
H506	H	0.587786	0.480509	1.149346
H507	H	0.149131	0.043864	0.567454
H508	H	0.649131	0.543864	1.067454
H509	H	0.170261	-0.019468	0.588517
H510	H	0.670261	0.480532	1.088517
H511	H	0.151404	-0.019538	0.670226
H512	H	0.651404	0.480462	1.170226
H513	H	0.130287	0.043800	0.649155
H514	H	0.630287	0.543800	1.149155
H515	H	0.191596	0.012135	0.625748
H516	H	0.691596	0.512135	1.125748
H517	H	0.373728	-0.561133	0.625383
H518	H	0.873728	-0.061133	1.125383
H519	H	0.186762	-0.248063	0.508836
H520	H	0.686762	0.251937	1.008836
C521	C	-0.054032	-0.418640	1.082957
C522	C	0.445968	0.081360	1.582957
C523	C	-0.034474	-0.384948	1.082988
C524	C	0.465526	0.115052	1.582988
C525	C	-0.075326	-0.334081	1.083029
C526	C	0.424674	0.165919	1.583029
H527	H	-0.063985	-0.402230	1.051298
H528	H	0.436015	0.097770	1.551298
H529	H	-0.085057	-0.423398	1.114632
H530	H	0.414943	0.076602	1.614632
H531	H	-0.003458	-0.380188	1.051316
H532	H	0.496542	0.119812	1.551316
H533	H	-0.024524	-0.401340	1.114644
H534	H	0.475476	0.098660	1.614644
H535	H	-0.106351	-0.338839	1.114704
H536	H	0.393649	0.161161	1.614704
H537	H	-0.085276	-0.317676	1.051369
H538	H	0.414724	0.182324	1.551369
H539	H	-0.062063	-0.311217	1.083055
H540	H	0.437937	0.188783	1.583055
C541	C	0.381340	-0.383298	0.554024
C542	C	0.881340	0.116702	1.054024
C543	C	0.344071	-0.330383	0.551001
C544	C	0.844071	0.169617	1.051001
C545	C	0.372530	-0.293566	0.523814
C546	C	0.872530	0.206434	1.023814
H547	H	0.403655	-0.392787	0.573452
H548	H	0.903655	0.107213	1.073452
H549	H	0.403607	-0.384723	0.518198
H550	H	0.903607	0.115277	1.018198
H551	H	0.321814	-0.328961	0.586822
H552	H	0.821814	0.171039	1.086822
H553	H	0.321755	-0.320878	0.531569
H554	H	0.821755	0.179122	1.031569
H555	H	0.394796	-0.294990	0.487987
H556	H	0.894796	0.205010	0.987987
H557	H	0.394844	-0.303059	0.543245
H558	H	0.894844	0.196941	1.043245
H559	H	0.347247	-0.257658	0.521755
H560	H	0.847247	0.242342	1.021755
H561	H	0.270000	-0.358795	0.596010
H562	H	0.770000	0.141205	1.096010
H563	H	0.102202	-0.248101	0.678192
H564	H	0.602202	0.251899	1.178192
C565	C	0.230253	-0.359418	0.533200
C566	C	0.730253	0.140582	1.033200
C567	C	0.238211	-0.322145	0.479917
C568	C	0.738211	0.177855	0.979917
C569	C	0.271020	-0.350606	0.442662
C570	C	0.771020	0.149394	0.942662
H571	H	0.264553	-0.381714	0.538598
H572	H	0.764553	0.118286	1.038598
H573	H	0.212803	-0.381706	0.538670
H574	H	0.712803	0.118294	1.038670
H575	H	0.255663	-0.299866	0.474450
H576	H	0.755663	0.200134	0.974450
H577	H	0.203921	-0.299848	0.474502
H578	H	0.703921	0.200152	0.974502
H579	H	0.253569	-0.372895	0.448131
H580	H	0.753569	0.127105	0.948131
H581	H	0.305317	-0.372902	0.448064
H582	H	0.805317	0.127098	0.948064
H583	H	0.276419	-0.325321	0.406505
H584	H	0.776419	0.174679	0.906505
H585	H	0.016700	-0.731943	0.465981
H586	H	0.516700	-0.231943	0.965981
C587	C	0.133139	-0.359535	0.727984
C588	C	0.633139	0.140465	1.227984
C589	C	0.152597	-0.345646	0.751497
C590	C	0.652597	0.154354	1.251497
C591	C	0.138910	-0.374210	0.807699
C592	C	0.638910	0.125790	1.307699
H593	H	0.094586	-0.350200	0.744121
H594	H	0.594586	0.149800	1.244121
H595	H	0.149219	-0.397673	0.734022
H596	H	0.649219	0.102327	1.234022
H597	H	0.136515	-0.307516	0.745463
H598	H	0.636515	0.192484	1.245463
H599	H	0.191148	-0.354983	0.735376
H600	H	0.691148	0.145017	1.235376
H601	H	0.154989	-0.412349	0.813737
H602	H	0.654989	0.087651	1.313737
H603	H	0.100357	-0.364873	0.823831
H604	H	0.600357	0.135127	1.323831
H605	H	0.152114	-0.364794	0.823659
H606	H	0.652114	0.135206	1.323659
C607	C	-0.036781	-0.512806	0.221076
C608	C	0.463219	-0.012806	0.721076
C609	C	-0.093625	-0.489234	0.234868
C610	C	0.406375	0.010766	0.734868
C611	C	-0.107500	-0.433031	0.206292
C612	C	0.392500	0.066969	0.706292
H613	H	-0.023714	-0.496701	0.230467
H614	H	0.476286	0.003299	0.730467
H615	H	-0.020706	-0.506778	0.182942
H616	H	0.479294	-0.006778	0.682942
H617	H	-0.109694	-0.495258	0.272994
H618	H	0.390306	0.004742	0.772994
H619	H	-0.106705	-0.505323	0.225477
H620	H	0.393295	-0.005323	0.725477
H621	H	-0.091425	-0.427003	0.168158
H622	H	0.408575	0.072997	0.668158
H623	H	-0.094430	-0.416931	0.215685
H624	H	0.405570	0.083069	0.715685
H625	H	-0.146069	-0.417031	0.215642
H626	H	0.353931	0.082969	0.715642
C627	C	0.060509	-0.707610	0.221245
C628	C	0.560509	-0.207610	0.721245
C629	C	0.031792	-0.740356	0.235094
C630	C	0.531792	-0.240356	0.735094
C631	C	0.064593	-0.777609	0.206629
C632	C	0.564593	-0.277609	0.706629
H633	H	0.069961	-0.688313	0.183099
H634	H	0.569961	-0.188313	0.683099
H635	H	0.092786	-0.729974	0.230698
H636	H	0.592786	-0.229974	0.730698
H637	H	-0.000475	-0.717995	0.225638
H638	H	0.499525	-0.217995	0.725638
H639	H	0.022341	-0.759665	0.273236
H640	H	0.522341	-0.259665	0.773236
H641	H	0.096871	-0.799973	0.216082
H642	H	0.596871	-0.299973	0.716082
H643	H	0.074043	-0.758307	0.168484
H644	H	0.574043	-0.258307	0.668484
H645	H	0.045116	-0.799834	0.216025
H646	H	0.545116	-0.299834	0.716025
C647	C	0.060066	-0.707612	0.509632
C648	C	0.560066	-0.207612	1.009632
C649	C	0.068040	-0.760890	0.517649
C650	C	0.568040	-0.260890	1.017649
C651	C	0.100790	-0.798163	0.550618
C652	C	0.600790	-0.298163	1.050618
H653	H	0.094365	-0.702239	0.492292
H654	H	0.594365	-0.202239	0.992292
H655	H	0.042566	-0.702133	0.543906
H656	H	0.542566	-0.202133	1.043906
H657	H	0.085541	-0.766367	0.483381
H658	H	0.585541	-0.266367	0.983381
H659	H	0.033751	-0.766280	0.534995
H660	H	0.533751	-0.266280	1.034995
H661	H	0.083290	-0.792685	0.584892
H662	H	0.583290	-0.292685	1.084892
H663	H	0.135087	-0.792786	0.533274
H664	H	0.635087	-0.292786	1.033274
H665	H	0.106201	-0.834317	0.556065
H666	H	0.606201	-0.334317	1.056065
H667	H	-0.067739	-0.562558	0.381123
H668	H	0.432261	-0.062558	0.881123
H669	H	0.058362	-0.738230	0.391661
H670	H	0.558362	-0.238230	0.891661
H671	H	-0.074948	-0.841721	0.489940
H672	H	0.425052	-0.341721	0.989940
C673	C	0.107989	-0.849673	0.423989
C674	C	0.607989	-0.349673	0.923989
C675	C	0.137302	-0.835823	0.367958
C676	C	0.637302	-0.335823	0.867958
C677	C	0.193072	-0.864434	0.359822
C678	C	0.693072	-0.364434	0.859822
H679	H	0.119856	-0.840349	0.441262
H680	H	0.619856	-0.340349	0.941262
H681	H	0.114070	-0.887805	0.439200
H682	H	0.614070	-0.387805	0.939200
H683	H	0.131224	-0.797700	0.352754
H684	H	0.631224	-0.297700	0.852754
H685	H	0.125451	-0.845149	0.350673
H686	H	0.625451	-0.345149	0.850673
H687	H	0.199153	-0.902565	0.375033
H688	H	0.699153	-0.402565	0.875033
H689	H	0.204933	-0.855107	0.377097
H690	H	0.704933	-0.355107	0.877097
H691	H	0.212967	-0.855045	0.321804
H692	H	0.712967	-0.355045	0.821804
C693	C	-0.124569	-0.730354	0.457520
C694	C	0.375431	-0.230354	0.957520
C695	C	-0.152670	-0.767571	0.485305
C696	C	0.347330	-0.267571	0.985305
C697	C	-0.208432	-0.739045	0.493319
C698	C	0.291568	-0.239045	0.993319
H699	H	-0.138088	-0.708037	0.478479
H700	H	0.361912	-0.208037	0.978479
H701	H	-0.129816	-0.708081	0.423144
H702	H	0.370184	-0.208081	0.923144
H703	H	-0.147426	-0.789834	0.519675
H704	H	0.352574	-0.289834	1.019675
H705	H	-0.139168	-0.789889	0.464355
H706	H	0.360832	-0.289889	0.964355
H707	H	-0.213679	-0.716772	0.458943
H708	H	0.286321	-0.216772	0.958943
H709	H	-0.221945	-0.716729	0.514277
H710	H	0.278055	-0.216729	1.014277
H711	H	-0.227505	-0.764292	0.512167
H712	H	0.272495	-0.264292	1.012167
H713	H	-0.116534	-0.689457	0.508068
H714	H	0.383466	-0.189457	1.008068
H715	H	-0.220220	-0.654760	0.542443
H716	H	0.279780	-0.154760	1.042443
H717	H	-0.219915	-0.570138	0.372989
H718	H	0.280085	-0.070138	0.872989
H719	H	-0.116227	-0.604815	0.338615
H720	H	0.383773	-0.104815	0.838615
