data_functionalizedCrystal
_audit_creation_method	'MofGen! by Chris Wilmer'
_symmetry_space_group_name_H-M	'P1'
_symmetry_Int_Tables_number	1
_symmetry_cell_setting	triclinic
loop_
_symmetry_equiv_pos_as_xyz
  x,y,z
_cell_length_a	18.050590
_cell_length_b	18.050589
_cell_length_c	16.625539
_cell_angle_alpha	89.975378
_cell_angle_beta	90.004910
_cell_angle_gamma	89.976137
loop_
_atom_site_label
_atom_site_type_symbol
_atom_site_fract_x
_atom_site_fract_y
_atom_site_fract_z
Zn1	Zn	1.135301	0.295873	0.455593
Zn2	Zn	1.135185	0.420071	0.320769
Zn3	Zn	1.011107	0.295875	0.320810
Zn4	Zn	1.011054	0.420002	0.455596
O5	O	1.073162	0.357955	0.388192
O6	O	1.239210	0.312376	0.437690
O7	O	1.118700	0.403626	0.207942
O8	O	1.027653	0.191951	0.338706
O9	O	1.239125	0.403623	0.338635
O10	O	1.118897	0.191949	0.437730
O11	O	1.027541	0.312380	0.207972
O12	O	0.907176	0.312313	0.338708
O13	O	1.027561	0.403506	0.568428
O14	O	0.907136	0.403509	0.437735
O15	O	1.118845	0.312309	0.568426
O16	O	1.118648	0.523986	0.338638
O17	O	1.027449	0.523936	0.437694
C18	C	0.880210	0.357905	0.388227
C19	C	0.797664	0.357901	0.388261
C20	C	0.598213	0.407635	0.441983
C21	C	0.548830	0.339918	0.461819
C22	C	0.646533	0.357942	0.388221
C23	C	0.548835	0.425698	0.368385
C24	C	0.500548	0.357988	0.388185
C25	C	0.598237	0.290189	0.408096
C26	C	0.598247	0.376015	0.314627
C27	C	0.548886	0.308251	0.334435
C28	C	0.730632	0.357917	0.388244
C29	C	0.416452	0.358006	0.388162
C30	C	1.073050	0.550907	0.388179
C31	C	1.073070	0.633453	0.388201
C32	C	1.023503	0.832903	0.442050
C33	C	1.005393	0.882342	0.368479
C34	C	1.073126	0.784584	0.388212
C35	C	1.091256	0.882227	0.461791
C36	C	1.073179	0.930569	0.388229
C37	C	1.054981	0.832935	0.314603
C38	C	1.140876	0.832815	0.407964
C39	C	1.122791	0.882231	0.334343
C40	C	1.073094	0.700485	0.388203
C41	C	1.073211	1.014665	0.388230
C42	C	1.266867	0.358007	0.388158
C43	C	1.349413	0.358029	0.388143
C44	C	1.073210	0.357900	0.598501
C45	C	1.073231	0.357876	0.688122
C46	C	1.073265	1.164250	0.388223
C47	C	1.073237	1.081704	0.388239
C48	C	1.073156	0.357957	0.178701
C49	C	1.073280	0.357771	0.089080
C50	C	1.073265	0.357793	1.016298
C51	C	1.073253	0.357819	0.924989
C52	C	1.073248	0.357835	0.852213
C53	C	1.073236	0.357860	0.760899
H54	H	0.619874	0.449585	0.487499
H55	H	0.948124	0.904113	0.351788
N56	N	0.520069	0.319686	0.544233
H57	H	0.538005	0.357235	0.584821
H58	H	0.464123	0.319371	0.543397
H59	H	1.198131	0.811046	0.424691
H60	H	1.106570	0.903879	0.524010
N61	N	1.178404	0.910753	0.273979
H62	H	1.217014	0.941519	0.302540
H63	H	1.203166	0.867504	0.246366
N64	N	1.034611	0.804382	0.232162
H65	H	1.034695	0.748430	0.232669
H66	H	0.983634	0.822889	0.217175
H67	H	0.527132	0.482979	0.351624
N68	N	0.967853	0.804194	0.502270
H69	H	0.981001	0.822894	0.557709
H70	H	0.916728	0.822216	0.487179
N71	N	0.626858	0.214292	0.430393
H72	H	0.658004	0.217954	0.480704
H73	H	0.583653	0.179975	0.440413
H74	H	0.527363	0.266199	0.288955
N75	N	0.627017	0.396260	0.232226
H76	H	0.609076	0.447459	0.217301
H77	H	0.682962	0.395570	0.232777
