data_functionalizedCrystal
_audit_creation_method	'MofGen! by Chris Wilmer'
_symmetry_space_group_name_H-M	'P1'
_symmetry_Int_Tables_number	1
_symmetry_cell_setting	triclinic
loop_
_symmetry_equiv_pos_as_xyz
  x,y,z
_cell_length_a	16.959455
_cell_length_b	16.120484
_cell_length_c	16.959447
_cell_angle_alpha	92.866589
_cell_angle_beta	89.983056
_cell_angle_gamma	92.922454
loop_
_atom_site_label
_atom_site_type_symbol
_atom_site_fract_x
_atom_site_fract_y
_atom_site_fract_z
Zn1	Zn	1.192415	-0.331957	-0.462851
Zn2	Zn	1.185616	-0.471385	-0.337369
Zn3	Zn	1.060236	-0.331983	-0.330690
Zn4	Zn	1.053495	-0.471323	-0.469504
O5	O	1.122941	-0.401662	-0.400103
O6	O	1.302123	-0.350467	-0.446216
O7	O	1.168959	-0.452930	-0.225873
O8	O	1.083437	-0.215314	-0.342642
O9	O	1.297128	-0.452905	-0.354025
O10	O	1.180548	-0.215295	-0.439740
O11	O	1.076844	-0.350512	-0.220967
O12	O	0.948732	-0.350452	-0.349093
O13	O	1.071948	-0.452798	-0.579231
O14	O	0.943780	-0.452824	-0.451079
O15	O	1.174012	-0.350407	-0.574343
O16	O	1.162423	-0.588042	-0.360476
O17	O	1.065355	-0.587996	-0.457556
C18	C	0.917576	-0.401634	-0.400084
C19	C	0.829719	-0.401643	-0.400095
C20	C	1.112441	-0.618269	-0.410480
C21	C	1.108022	-0.710935	-0.414945
C22	C	0.460799	-0.348313	-0.347103
C23	C	0.455682	-0.455079	-0.453153
C24	C	0.538229	-0.455067	-0.453147
C25	C	0.582064	-0.401678	-0.400118
C26	C	0.543353	-0.348301	-0.347094
C27	C	0.576946	-0.508449	-0.506165
C28	C	0.659498	-0.508440	-0.506161
C29	C	0.703334	-0.455046	-0.453135
C30	C	0.664618	-0.401666	-0.400109
C31	C	0.708453	-0.348277	-0.347080
C32	C	0.669739	-0.294893	-0.294058
C33	C	0.587190	-0.294907	-0.294068
C34	C	0.785884	-0.455032	-0.453125
C35	C	0.791007	-0.348266	-0.347071
C36	C	1.099958	-0.880595	-0.423114
C37	C	1.146065	-0.921888	-0.377106
C38	C	1.141578	-1.016293	-0.381651
C39	C	1.104444	-0.786182	-0.418570
C40	C	1.329107	-0.401690	-0.400123
C41	C	1.416963	-0.401702	-0.400132
C42	C	1.122986	-0.401593	-0.606268
C43	C	1.123006	-0.401563	-0.694124
C44	C	1.133503	-0.184209	-0.389704
C45	C	1.138003	-0.091543	-0.385272
C46	C	1.075119	-0.348151	-1.063047
C47	C	1.171040	-0.454800	-1.068144
C48	C	1.171025	-0.454819	-0.985599
C49	C	1.123056	-0.401504	-0.941774
C50	C	1.075101	-0.348170	-0.980494
C51	C	1.218973	-0.508158	-0.946873
C52	C	1.218960	-0.508180	-0.864323
C53	C	1.170994	-0.454861	-0.820496
C54	C	1.123038	-0.401524	-0.859221
C55	C	1.075069	-0.348209	-0.815396
C56	C	1.027116	-0.294868	-0.854120
C57	C	1.027136	-0.294851	-0.936667
C58	C	1.170975	-0.454878	-0.737948
C59	C	1.075051	-0.348229	-0.732844
C60	C	1.122944	-0.401671	-0.194738
C61	C	1.123089	-0.401465	-0.106872
H62	H	0.705440	-0.251427	-0.250878
O63	O	1.048825	-0.922868	-0.474241
C64	C	0.948857	-0.913936	-0.573966
C65	C	1.006742	-0.865946	-0.516118
H66	H	0.914805	-0.867936	-0.607827
H67	H	0.983186	-0.954618	-0.617302
H68	H	0.905684	-0.954793	-0.539547
H69	H	1.049927	-0.825044	-0.550471
H70	H	0.972361	-0.825318	-0.472781
H71	H	1.258018	-0.551573	-0.982561
H72	H	1.035992	-0.304809	-0.697167
H73	H	0.988056	-0.251462	-0.818427
O74	O	0.412986	-0.506861	-0.504632
C75	C	0.283541	-0.554235	-0.551607
C76	C	0.331803	-0.495535	-0.493274
H77	H	0.217895	-0.545111	-0.542433
H78	H	0.300437	-0.539673	-0.614685
H79	H	0.296569	-0.621430	-0.540851
H80	H	0.318800	-0.428320	-0.503958
H81	H	0.314900	-0.510169	-0.430216
O82	O	0.980578	-0.243119	-0.974409
C83	C	0.938133	-0.195793	-1.099321
C84	C	0.990882	-0.254433	-1.056676
H85	H	0.946458	-0.204907	-1.165840
H86	H	0.873665	-0.210427	-1.083842
H87	H	0.955268	-0.128583	-1.079839
H88	H	0.973818	-0.321663	-1.076134
H89	H	1.055338	-0.239728	-1.072155
H90	H	1.188908	-0.886338	-0.334302
H91	H	1.036080	-0.304719	-1.094579
H92	H	1.210088	-0.498212	-1.103831
O93	O	1.265617	-0.560014	-0.826834
C94	C	1.360731	-0.665824	-0.840610
C95	C	1.307941	-0.607155	-0.883167
H96	H	1.394951	-0.703965	-0.886136
H97	H	1.403965	-0.627598	-0.800168
H98	H	1.322311	-0.709385	-0.804012
H99	H	1.346299	-0.563582	-0.919807
H100	H	1.264703	-0.645433	-0.923561
H101	H	0.817401	-0.498499	-0.496292
O102	O	0.833465	-0.296377	-0.295480
C103	C	0.829829	-0.190444	-0.190324
C104	C	0.781650	-0.249177	-0.248697
H105	H	0.787958	-0.152255	-0.152496
H106	H	0.866589	-0.228622	-0.150704
H107	H	0.870619	-0.146930	-0.224603
H108	H	0.740816	-0.292702	-0.214482
H109	H	0.744942	-0.210946	-0.288317
O110	O	0.549457	-0.243128	-0.242599
C111	C	0.424552	-0.195783	-0.195662
C112	C	0.467186	-0.254481	-0.253974
H113	H	0.358030	-0.204929	-0.204849
H114	H	0.439991	-0.210327	-0.132577
H115	H	0.444084	-0.128586	-0.206427
H116	H	0.447678	-0.321698	-0.243281
H117	H	0.451748	-0.239865	-0.317039
O118	O	1.217618	-0.506718	-0.700456
C119	C	1.312707	-0.612553	-0.714231
C120	C	1.259935	-0.553867	-0.756788
H121	H	1.346922	-0.650701	-0.759756
H122	H	1.355945	-0.574341	-0.673784
H123	H	1.274273	-0.656108	-0.677638
H124	H	1.298306	-0.510301	-0.793423
H125	H	1.216692	-0.592132	-0.797188
H126	H	0.429274	-0.304846	-0.303935
O127	O	0.534331	-0.560184	-0.557751
C128	C	0.440576	-0.571528	-0.664964
C129	C	0.488816	-0.512847	-0.606597
H130	H	0.403752	-0.533281	-0.704459
H131	H	0.482380	-0.609672	-0.702919
H132	H	0.399838	-0.615088	-0.630678
H133	H	0.529557	-0.469237	-0.640820
H134	H	0.446966	-0.474762	-0.568641
O135	O	0.696978	-0.560317	-0.557744
C136	C	0.683183	-0.666250	-0.662904
C137	C	0.640636	-0.607532	-0.604539
H138	H	0.637648	-0.704451	-0.700742
H139	H	0.723666	-0.628060	-0.702515
H140	H	0.719739	-0.709754	-0.628618
H141	H	0.604037	-0.564016	-0.638761
H142	H	0.600200	-0.645774	-0.564928
