data_functionalizedCrystal
_audit_creation_method	'MofGen! by Chris Wilmer'
_symmetry_space_group_name_H-M	'P1'
_symmetry_Int_Tables_number	1
_symmetry_cell_setting	triclinic
loop_
_symmetry_equiv_pos_as_xyz
  x,y,z
_cell_length_a	16.959455
_cell_length_b	16.959454
_cell_length_c	16.959447
_cell_angle_alpha	89.973264
_cell_angle_beta	89.985678
_cell_angle_gamma	90.017022
loop_
_atom_site_label
_atom_site_type_symbol
_atom_site_fract_x
_atom_site_fract_y
_atom_site_fract_z
Zn1	Zn	1.208384	-0.314730	-0.446928
Zn2	Zn	1.208306	-0.446923	-0.314758
Zn3	Zn	1.076212	-0.314755	-0.314766
Zn4	Zn	1.076177	-0.446864	-0.446897
O5	O	1.142270	-0.380818	-0.380837
O6	O	1.318984	-0.332280	-0.429406
O7	O	1.190766	-0.429426	-0.204148
O8	O	1.093792	-0.204141	-0.332314
O9	O	1.318927	-0.429402	-0.332301
O10	O	1.190898	-0.204123	-0.429413
O11	O	1.093717	-0.332323	-0.204154
O12	O	0.965597	-0.332265	-0.332283
O13	O	1.093732	-0.429301	-0.557512
O14	O	0.965571	-0.429325	-0.429359
O15	O	1.190864	-0.332223	-0.557535
O16	O	1.190732	-0.557526	-0.332270
O17	O	1.093657	-0.557482	-0.429352
C18	C	0.936904	-0.380792	-0.380819
C19	C	0.849047	-0.380800	-0.380830
C20	C	0.477560	-0.330238	-0.330395
C21	C	0.477582	-0.431463	-0.431324
C22	C	0.560128	-0.431452	-0.431320
C23	C	0.601394	-0.380834	-0.380851
C24	C	0.560114	-0.330226	-0.330387
C25	C	0.601414	-0.482064	-0.481777
C26	C	0.683965	-0.482055	-0.481773
C27	C	0.725233	-0.431432	-0.431308
C28	C	0.683948	-0.380822	-0.380843
C29	C	0.725213	-0.330204	-0.330374
C30	C	0.683930	-0.279589	-0.279913
C31	C	0.601381	-0.279603	-0.279922
C32	C	0.807781	-0.431418	-0.431299
C33	C	0.807767	-0.330193	-0.330366
C34	C	1.142204	-0.586184	-0.380824
C35	C	1.142248	-0.674041	-0.380844
C36	C	1.091796	-1.045524	-0.431382
C37	C	1.192963	-1.045509	-0.330373
C38	C	1.192936	-0.962963	-0.330365
C39	C	1.142337	-0.921694	-0.380867
C40	C	1.091765	-0.962970	-0.431375
C41	C	1.243501	-0.921680	-0.279852
C42	C	1.243475	-0.839130	-0.279842
C43	C	1.192879	-0.797859	-0.330348
C44	C	1.142306	-0.839140	-0.380859
C45	C	1.091707	-0.797871	-0.431360
C46	C	1.041137	-0.839151	-0.481876
C47	C	1.041170	-0.921699	-0.481881
C48	C	1.192847	-0.715310	-0.330343
C49	C	1.091676	-0.715317	-0.431353
C50	C	1.348438	-0.380845	-0.380856
C51	C	1.436295	-0.380856	-0.380864
C52	C	1.142303	-0.380753	-0.587006
C53	C	1.142317	-0.380725	-0.674862
C54	C	1.142358	-0.174650	-0.380868
C55	C	1.142395	-0.086793	-0.380881
C56	C	1.091839	-0.431185	-1.046328
C57	C	1.192983	-0.330097	-1.046348
C58	C	1.192962	-0.330114	-0.963802
C59	C	1.142380	-0.380668	-0.922515
C60	C	1.091818	-0.431205	-0.963775
C61	C	1.243529	-0.279584	-0.922536
C62	C	1.243510	-0.279599	-0.839985
C63	C	1.192923	-0.330149	-0.798697
C64	C	1.142359	-0.380688	-0.839962
C65	C	1.091776	-0.431242	-0.798675
C66	C	1.041207	-0.481777	-0.839938
C67	C	1.041231	-0.481756	-0.922487
C68	C	1.192899	-0.330171	-0.716149
C69	C	1.091755	-0.431262	-0.716122
C70	C	1.142283	-0.380826	-0.175471
C71	C	1.142422	-0.380631	-0.087615
H72	H	0.567761	-0.238397	-0.238838
C73	C	0.991680	-0.723624	-0.531203
C74	C	1.036056	-0.669957	-0.486867
H75	H	0.957341	-0.695619	-0.565472
H76	H	1.026114	-0.755777	-0.561469
H77	H	0.961481	-0.755864	-0.496734
H78	H	1.066260	-0.637721	-0.521337
H79	H	1.001617	-0.637790	-0.456599
C80	C	0.810467	-0.234636	-0.235091
C81	C	0.729295	-0.223950	-0.224439
H82	H	0.838474	-0.200284	-0.200848
H83	H	0.823971	-0.287724	-0.223428
H84	H	0.824007	-0.223135	-0.288221
H85	H	0.715754	-0.235457	-0.171310
H86	H	0.715786	-0.170850	-0.236097
C87	C	0.609721	-0.582107	-0.581554
C88	C	0.556056	-0.537689	-0.537262
H89	H	0.581715	-0.616446	-0.615811
H90	H	0.641943	-0.547700	-0.611831
H91	H	0.641893	-0.612309	-0.547056
H92	H	0.523888	-0.507482	-0.571760
H93	H	0.523821	-0.572100	-0.506983
C94	C	0.996287	-1.048246	-0.526728
C95	C	0.985579	-0.967076	-0.537395
H96	H	0.961962	-1.076259	-0.560995
H97	H	1.049385	-1.061730	-0.538351
H98	H	0.984762	-1.061797	-0.473605
H99	H	0.997110	-0.953523	-0.590516
H100	H	0.932469	-0.953586	-0.525778
C101	C	1.030176	-0.588113	-0.747072
C102	C	0.985613	-0.537346	-0.794544
H103	H	0.995855	-0.622414	-0.719041
H104	H	1.064594	-0.618345	-0.779275
H105	H	1.060290	-0.558007	-0.710697
H106	H	0.955503	-0.567451	-0.830923
H107	H	0.951181	-0.507110	-0.762338
C108	C	0.900598	-0.537744	-0.442083
C109	C	0.853158	-0.487050	-0.486759
H110	H	0.928607	-0.572093	-0.476327
H111	H	0.936986	-0.507593	-0.412038
H112	H	0.868371	-0.567935	-0.407595
H113	H	0.885386	-0.456854	-0.521244
H114	H	0.816766	-0.517204	-0.516818
H115	H	0.999936	-0.805540	-0.522991
C116	C	1.299206	-0.319236	-0.623321
C117	C	1.248483	-0.274631	-0.670794
H118	H	1.333525	-0.284944	-0.595327
H119	H	1.269075	-0.349333	-0.586921
H120	H	1.329428	-0.353673	-0.655524
H121	H	1.218257	-0.240198	-0.638591
H122	H	1.278617	-0.244520	-0.707199
H123	H	1.284715	-0.238430	-0.956158
H124	H	1.234170	-0.288943	-1.079968
C125	C	1.002676	-0.615591	-0.947871
C126	C	0.985655	-0.537305	-0.967845
H127	H	0.968364	-0.649883	-0.975873
H128	H	1.055778	-0.627154	-0.961396
H129	H	0.995417	-0.622828	-0.892799
H130	H	0.992920	-0.530066	-1.022916
H131	H	0.932540	-0.525737	-0.954325
H132	H	1.284651	-0.805524	-0.238711
H133	H	1.050626	-1.079138	-0.472513
H134	H	1.284686	-0.238450	-0.806396
H135	H	0.443979	-0.472679	-0.472409
C136	C	0.351015	-0.285298	-0.285590
C137	C	0.432186	-0.274605	-0.274928
H138	H	0.323005	-0.250955	-0.251343
H139	H	0.337513	-0.273795	-0.338713
H140	H	0.337478	-0.338395	-0.273931
H141	H	0.445724	-0.221509	-0.286593
H142	H	0.445694	-0.286102	-0.221793
H143	H	1.234016	-0.681704	-0.289211
H144	H	1.050557	-0.472422	-0.682512
C145	C	0.776825	-0.493148	-0.588074
C146	C	0.729341	-0.537681	-0.537246
H147	H	0.804841	-0.527489	-0.622319
H148	H	0.744632	-0.458758	-0.618363
H149	H	0.813213	-0.463005	-0.558009
H150	H	0.692948	-0.567820	-0.567312
H151	H	0.761536	-0.572084	-0.506955
C152	C	1.237876	-1.172043	-0.285486
C153	C	1.248545	-1.090870	-0.274830
H154	H	1.272187	-1.200048	-0.251187
H155	H	1.184775	-1.185588	-0.273900
H156	H	1.249446	-1.185546	-0.338597
H157	H	1.236970	-1.077367	-0.221719
H158	H	1.301659	-1.077321	-0.286410
C159	C	1.377360	-0.947118	-0.241423
C160	C	1.299078	-0.967085	-0.224339
H161	H	1.411660	-0.975162	-0.207146
H162	H	1.388906	-0.960597	-0.294538
H163	H	1.384606	-0.892055	-0.234158
H164	H	1.291830	-1.022148	-0.231610
H165	H	1.287527	-0.953612	-0.171212
C166	C	1.053278	-0.565020	-1.071707
C167	C	1.036256	-0.486734	-1.091678
H168	H	1.018959	-0.599311	-1.099701
H169	H	1.106377	-0.576586	-1.085241
H170	H	1.046029	-0.572256	-1.016633
H171	H	1.043510	-0.479496	-1.146751
H172	H	0.983144	-0.475164	-1.078149
H173	H	0.841360	-0.288968	-0.289273
