data_functionalizedCrystal
_audit_creation_method	'MofGen! by Chris Wilmer'
_symmetry_space_group_name_H-M	'P1'
_symmetry_Int_Tables_number	1
_symmetry_cell_setting	triclinic
loop_
_symmetry_equiv_pos_as_xyz
  x,y,z
_cell_length_a	17.019372
_cell_length_b	16.956993
_cell_length_c	15.455301
_cell_angle_alpha	86.830249
_cell_angle_beta	89.131096
_cell_angle_gamma	100.267965
loop_
_atom_site_label
_atom_site_type_symbol
_atom_site_fract_x
_atom_site_fract_y
_atom_site_fract_z
O1	O	1.039826	-0.101333	-0.005467
O2	O	0.810003	-0.115034	0.011687
O3	O	0.938720	0.007956	0.002069
O4	O	0.911109	-0.224323	0.004152
O5	O	0.932968	0.014165	-0.141765
O6	O	0.804251	-0.108825	-0.132146
O7	O	1.034074	-0.095124	-0.149301
Cu8	Cu	0.918637	-0.101408	-0.153857
Cu9	Cu	0.925440	-0.108750	0.016244
O10	O	0.905357	-0.218114	-0.139682
C11	C	0.777858	-0.111534	-0.058045
C12	C	0.690644	-0.110343	-0.051536
C13	C	0.197548	-0.103758	-0.010730
C14	C	0.279494	-0.104876	-0.016858
C15	C	0.317322	-0.102056	-0.098326
C16	C	0.273202	-0.098110	-0.173672
C17	C	0.191259	-0.096987	-0.167543
C18	C	0.564581	-0.105274	-0.120753
C19	C	0.646530	-0.106400	-0.126876
C20	C	0.652816	-0.113164	0.029939
C21	C	0.570870	-0.112045	0.036061
C22	C	0.526758	-0.108095	-0.039285
C23	C	0.401083	-0.103201	-0.104592
C24	C	0.443000	-0.106945	-0.033019
C25	C	0.937258	0.040775	-0.069954
C26	C	0.941461	0.129314	-0.070271
C27	C	0.972904	0.628753	-0.072646
C28	C	0.968948	0.545561	-0.072351
C29	C	0.894701	0.494146	-0.066802
C30	C	0.824404	0.525928	-0.061557
C31	C	0.828359	0.609120	-0.061858
C32	C	0.875120	0.244287	-0.065327
C33	C	0.871169	0.161091	-0.065023
C34	C	1.015715	0.180729	-0.075819
C35	C	1.019664	0.263921	-0.076115
C36	C	0.949367	0.295696	-0.070874
N37	N	0.890656	0.409110	-0.066497
N38	N	0.953412	0.380731	-0.071185
C39	C	1.066219	-0.098625	-0.079566
C40	C	1.153433	-0.099815	-0.086070
N41	N	0.913859	-0.096243	-0.273496
C42	C	0.906818	0.749068	-0.067673
C43	C	0.902612	0.660530	-0.067399
C44	C	0.956607	-0.142487	-0.322073
C45	C	0.953004	-0.138576	-0.412613
C46	C	0.906648	-0.088425	-0.454574
C47	C	0.863898	-0.042175	-0.405991
C48	C	0.867506	-0.046082	-0.315453
C49	C	0.891084	-0.071567	-0.724996
C50	C	0.887477	-0.067665	-0.815540
C51	C	0.976584	-0.164065	-0.822157
C52	C	0.980184	-0.167971	-0.731617
C53	C	0.937438	-0.121719	-0.683042
N54	N	0.902962	-0.084428	-0.547120
N55	N	0.941129	-0.125712	-0.590498
N56	N	0.930225	-0.113909	0.135883
H57	H	0.688741	-0.116379	0.091281
C58	C	0.751037	0.644076	-0.056081
C59	C	0.736870	0.695345	0.019885
C60	C	0.659544	0.730299	0.025659
C61	C	0.596385	0.713984	-0.044532
C62	C	0.610550	0.662712	-0.120502
C63	C	0.687876	0.627758	-0.126277
H64	H	0.783626	0.707425	0.071849
H65	H	0.649059	0.768254	0.081898
H66	H	0.539144	0.739859	-0.040257
H67	H	0.563794	0.650632	-0.172467
H68	H	0.698361	0.589803	-0.182516
H69	H	0.810704	0.119230	-0.060507
C70	C	0.442679	-0.100131	-0.194212
C71	C	0.442252	-0.027950	-0.259095
C72	C	0.483843	-0.024889	-0.348718
C73	C	0.525861	-0.094009	-0.373458
C74	C	0.526289	-0.166195	-0.308573
C75	C	0.484698	-0.169256	-0.218950
H76	H	0.411146	0.023221	-0.240783
H77	H	0.483525	0.028548	-0.396750
H78	H	0.556649	-0.091743	-0.439802
H79	H	0.557395	-0.217366	-0.326886
H80	H	0.485016	-0.222693	-0.170919
H81	H	0.817879	0.270148	-0.061049
H82	H	0.832696	-0.008426	-0.275903
C83	C	1.000034	-0.189449	-0.466036
C84	C	1.091590	-0.177889	-0.460347
C85	C	1.138627	-0.228763	-0.513764
C86	C	1.094108	-0.291198	-0.572871
C87	C	1.002547	-0.302760	-0.578562
C88	C	0.955510	-0.251886	-0.525145
H89	H	1.124549	-0.131669	-0.416591
H90	H	1.206407	-0.220204	-0.509551
H91	H	1.128928	-0.328858	-0.612413
H92	H	0.969587	-0.348980	-0.622318
H93	H	0.887730	-0.260445	-0.529358
H94	H	0.412197	-0.109237	0.033312
C95	C	1.054579	0.685306	-0.078750
C96	C	1.080171	0.741971	-0.005753
C97	C	1.161848	0.798521	-0.011860
C98	C	1.217934	0.798405	-0.090964
C99	C	1.192343	0.741738	-0.163967
C100	C	1.110666	0.685188	-0.157860
H101	H	1.038652	0.742059	0.052810
H102	H	1.180792	0.840470	0.042182
H103	H	1.278397	0.840267	-0.095485
H104	H	1.233862	0.741650	-0.222529
H105	H	1.091722	0.643239	-0.211901
C106	C	0.328026	-0.109208	0.066014
C107	C	0.371803	-0.180160	0.084376
C108	C	0.420339	-0.184488	0.167250
C109	C	0.425098	-0.117864	0.231762
C110	C	0.381319	-0.046907	0.213401
C111	C	0.332783	-0.042579	0.130528
H112	H	0.368282	-0.229484	0.036619
H113	H	0.452747	-0.237015	0.180841
H114	H	0.461027	-0.121067	0.293110
H115	H	0.384840	0.002417	0.261159
H116	H	0.300375	0.009948	0.116937
H117	H	1.026187	0.519693	-0.076625
C118	C	0.836486	-0.012491	-0.861700
C119	C	0.789468	0.038387	-0.808272
C120	C	0.738478	0.093556	-0.854432
C121	C	0.734507	0.097846	-0.954020
C122	C	0.781526	0.046966	-1.007453
C123	C	0.832516	-0.008203	-0.961293
H124	H	0.792406	0.035213	-0.734546
H125	H	0.703671	0.131221	-0.814877
H126	H	0.696761	0.138686	-0.988190
H127	H	0.778588	0.050141	-1.081179
H128	H	0.867323	-0.045867	-1.000849
C129	C	0.844051	-0.020699	-0.671575
C130	C	0.861092	0.071461	-0.685352
C131	C	0.814053	0.122328	-0.631928
C132	C	0.749972	0.081036	-0.564728
C133	C	0.732927	-0.011128	-0.550948
C134	C	0.779967	-0.061996	-0.604372
H135	H	0.908532	0.102032	-0.735100
H136	H	0.826671	0.190555	-0.642129
H137	H	0.715150	0.118692	-0.525180
H138	H	0.685488	-0.041700	-0.501200
H139	H	0.767349	-0.130223	-0.594171
H140	H	1.017935	-0.208807	-0.697459
H141	H	0.677326	-0.104110	-0.193220
C142	C	0.314800	-0.095023	-0.263293
C143	C	0.314372	-0.022832	-0.328161
C144	C	0.355963	-0.019754	-0.417786
C145	C	0.397981	-0.088869	-0.442543
C146	C	0.398410	-0.161065	-0.377674
C147	C	0.356819	-0.164143	-0.288049
H148	H	0.283267	0.028336	-0.309836
H149	H	0.355645	0.033691	-0.465807
H150	H	0.428768	-0.086591	-0.508889
H151	H	0.429515	-0.212233	-0.395999
H152	H	0.357137	-0.217588	-0.240028
H153	H	1.080124	0.305778	-0.080637
H154	H	1.011386	-0.201720	-0.861716
H155	H	0.166753	-0.106060	0.055611
H156	H	0.994350	-0.183330	-0.287915
C157	C	0.142728	-0.092652	-0.250418
C158	C	0.072092	-0.160204	-0.266755
C159	C	0.023562	-0.155865	-0.349632
C160	C	0.045668	-0.083973	-0.416171
C161	C	0.116308	-0.016415	-0.399836
C162	C	0.164837	-0.020755	-0.316959
H163	H	0.055724	-0.213428	-0.217496
H164	H	-0.028730	-0.205876	-0.361724
H165	H	0.009744	-0.080761	-0.477522
H166	H	0.132675	0.036808	-0.449095
H167	H	0.217130	0.029256	-0.304867
C168	C	1.093037	0.145775	-0.081593
C169	C	1.107203	0.094510	-0.157562
C170	C	1.184528	0.059556	-0.163341
C171	C	1.247688	0.075867	-0.093150
C172	C	1.233524	0.127135	-0.017175
C173	C	1.156198	0.162088	-0.011397
H174	H	1.060446	0.082433	-0.209527
H175	H	1.195013	0.021604	-0.219582
H176	H	1.304929	0.049992	-0.097427
H177	H	1.280280	0.139212	0.034789
H178	H	1.145714	0.200040	0.044845
H179	H	0.540077	-0.114340	0.102401
H180	H	0.528677	-0.102046	-0.182105
C181	C	0.742729	0.469375	-0.055454
C182	C	0.738373	0.377867	-0.055117
C183	C	0.656697	0.321315	-0.049011
C184	C	0.579376	0.356271	-0.043242
C185	C	0.583730	0.447784	-0.043579
C186	C	0.665406	0.504336	-0.049685
H187	H	0.795613	0.351986	-0.059388
H188	H	0.653475	0.253571	-0.048762
H189	H	0.518915	0.314408	-0.038723
H190	H	0.526490	0.473665	-0.039308
H191	H	0.668628	0.572080	-0.049934
H192	H	0.826158	-0.001337	-0.440163
