data_functionalizedCrystal
_audit_creation_method	'MofGen! by Chris Wilmer'
_symmetry_space_group_name_H-M	'P1'
_symmetry_Int_Tables_number	1
_symmetry_cell_setting	triclinic
loop_
_symmetry_equiv_pos_as_xyz
  x,y,z
_cell_length_a	12.837943
_cell_length_b	12.811487
_cell_length_c	11.892095
_cell_angle_alpha	99.324860
_cell_angle_beta	85.689438
_cell_angle_gamma	89.413002
loop_
_atom_site_label
_atom_site_type_symbol
_atom_site_fract_x
_atom_site_fract_y
_atom_site_fract_z
O1	O	1.381300	0.268697	-0.066435
O2	O	1.881300	0.768697	0.433565
O3	O	1.079534	0.255123	-0.067833
O4	O	1.579534	0.755123	0.432167
O5	O	1.239111	0.108870	-0.082817
O6	O	1.739111	0.608870	0.417183
O7	O	1.221723	0.414950	-0.051451
O8	O	1.721723	0.914950	0.448549
O9	O	1.225806	0.121044	0.106438
O10	O	1.725806	0.621044	0.606438
O11	O	1.066229	0.267296	0.121422
O12	O	1.566229	0.767296	0.621422
O13	O	1.367995	0.280871	0.122820
O14	O	1.867995	0.780871	0.622820
Zn15	Zn	1.215000	0.276016	0.152169
Zn16	Zn	1.715000	0.776016	0.652169
Zn17	Zn	1.232530	0.259977	-0.097182
Zn18	Zn	1.732530	0.759977	0.402818
O19	O	1.208418	0.427123	0.137804
O20	O	1.708418	0.927123	0.637804
C21	C	1.034275	0.256624	0.026323
C22	C	1.534275	0.756624	0.526323
C23	C	0.919237	0.242948	0.024919
C24	C	1.419237	0.742948	0.524919
C25	C	0.677801	0.407360	0.041783
C26	C	1.177801	0.907360	0.541783
C27	C	0.569713	0.394515	0.040465
C28	C	1.069713	0.894515	0.540465
C29	C	0.594969	0.204414	0.020972
C30	C	1.094969	0.704414	0.520972
C31	C	0.703058	0.217259	0.022290
C32	C	1.203058	0.717259	0.522290
C33	C	0.744470	0.318735	0.032695
C34	C	1.244470	0.818735	0.532695
C35	C	0.852561	0.331579	0.034005
C36	C	1.352561	0.831579	0.534005
C37	C	0.877815	0.141479	0.014520
C38	C	1.377815	0.641479	0.514520
C39	C	0.769726	0.128634	0.013202
C40	C	1.269726	0.628634	0.513202
C41	C	1.231891	0.075508	0.007765
C42	C	1.731891	0.575508	0.507765
C43	C	1.230188	-0.042039	-0.004288
C44	C	1.730188	0.457961	0.495712
C45	C	1.212498	-0.249662	0.179409
C46	C	1.712498	0.250338	0.679409
C47	C	1.210898	-0.360108	0.168089
C48	C	1.710898	0.139892	0.668089
C49	C	1.225392	-0.373377	-0.038247
C50	C	1.725392	0.126623	0.461753
C51	C	1.226993	-0.262932	-0.026927
C52	C	1.726993	0.237068	0.473073
C53	C	1.220544	-0.201078	0.081905
C54	C	1.720544	0.298922	0.581905
C55	C	1.222138	-0.090630	0.093223
C56	C	1.722138	0.409370	0.593223
C57	C	1.236640	-0.103902	-0.113111
C58	C	1.736640	0.396098	0.386889
C59	C	1.235039	-0.214347	-0.124431
C60	C	1.735039	0.285653	0.375569
C61	C	1.413255	0.279369	0.028661
C62	C	1.913255	0.779369	0.528661
C63	C	1.528293	0.293045	0.030058
C64	C	2.028293	0.793045	0.530058
N65	N	1.203043	0.286963	0.322345
N66	N	1.703043	0.786963	0.822345
C67	C	1.215638	0.460485	0.047219
C68	C	1.715638	0.960485	0.547219
C69	C	1.217342	0.578031	0.059265
C70	C	1.717342	1.078031	0.559265
N71	N	1.244494	0.249023	-0.267359
N72	N	1.744494	0.749023	0.232641
C73	C	1.327692	0.172793	0.547296
C74	C	1.827692	0.672793	1.047296
C75	C	1.319342	0.180453	0.666422
C76	C	1.819342	0.680453	1.166422
C77	C	1.177990	0.309936	0.679726
C78	C	1.677990	0.809936	1.179726
C79	C	1.186339	0.302276	0.560599
C80	C	1.686339	0.802276	1.060599
C81	C	1.261194	0.233704	0.494388
C82	C	1.761194	0.733704	0.994388
C83	C	1.269548	0.226050	0.375260
C84	C	1.769548	0.726050	0.875260
C85	C	1.128192	0.355527	0.388565
C86	C	1.628192	0.855527	0.888565
C87	C	1.119842	0.363186	0.507692
C88	C	1.619842	0.863186	1.007692
H89	H	0.515434	0.466684	0.047869
H90	H	1.015434	0.966684	0.547869
C91	C	1.232488	-0.441427	-0.157947
C92	C	1.732488	0.058573	0.342053
H93	H	1.230378	-0.514161	-0.150719
H94	H	1.730378	-0.014161	0.349281
H95	H	1.296144	-0.428027	-0.198689
H96	H	1.796144	0.071973	0.301311
H97	H	1.175300	-0.424085	-0.198276
H98	H	1.675300	0.075915	0.301724
H99	H	0.735993	0.046015	0.004744
H100	H	1.235993	0.546015	0.504744
H101	H	1.216872	-0.040270	0.181839
H102	H	1.716872	0.459730	0.681839
C103	C	1.205398	-0.181621	0.299114
C104	C	1.705398	0.318379	0.799114
H105	H	1.200379	-0.226375	0.355565
H106	H	1.700379	0.273625	0.855565
H107	H	1.145304	-0.136284	0.308017
H108	H	1.645304	0.363716	0.808017
H109	H	1.266147	-0.140237	0.307618
H110	H	1.766147	0.359763	0.807618
H111	H	1.058894	0.419014	0.561614
H112	H	1.558894	0.919014	1.061614
H113	H	0.932109	0.069313	0.007111
H114	H	1.432109	0.569313	0.507111
H115	H	0.561226	0.121802	0.012595
H116	H	1.061226	0.621802	0.512595
H117	H	1.204346	-0.399660	0.247487
H118	H	1.704346	0.100340	0.747487
H119	H	1.240293	-0.264723	-0.213038
H120	H	1.740293	0.235277	0.286962
C121	C	1.351879	0.150621	0.302429
C122	C	1.851879	0.650621	0.802429
H123	H	1.390279	0.115434	0.351004
H124	H	1.890279	0.615434	0.851004
H125	H	1.398168	0.190019	0.260290
H126	H	1.898168	0.690019	0.760290
H127	H	1.317976	0.099854	0.251072
H128	H	1.817976	0.599854	0.751072
C129	C	1.410029	0.097373	0.474461
C130	C	1.910029	0.597373	0.974461
H131	H	1.448436	0.062191	0.523033
H132	H	1.948436	0.562191	1.023033
H133	H	1.456309	0.136780	0.432323
H134	H	1.956309	0.636780	0.932323
H135	H	1.376131	0.046602	0.423103
H136	H	1.876131	0.546602	0.923103
H137	H	1.074048	0.405127	0.345475
H138	H	1.574048	0.905127	0.845475
H139	H	0.886276	0.414206	0.042478
H140	H	1.386276	0.914206	0.542478
C141	C	1.392492	0.113455	0.724617
C142	C	1.892492	0.613455	1.224617
H143	H	1.438270	0.071527	0.668120
H144	H	1.938270	0.571527	1.168120
H145	H	1.352086	0.068668	0.766202
H146	H	1.852086	0.568668	1.266202
H147	H	1.432267	0.158843	0.775422
H148	H	1.932267	0.658843	1.275422
H149	H	1.117038	0.365758	0.733650
H150	H	1.617038	0.865758	1.233650
C151	C	0.723359	0.518975	0.053217
C152	C	1.223359	1.018975	0.553217
H153	H	0.668171	0.569919	0.058443
H154	H	1.168171	1.069919	0.558443
H155	H	0.769639	0.523689	-0.011861
H156	H	1.269639	1.023689	0.488139
H157	H	0.760358	0.532184	0.120142
H158	H	1.260358	1.032184	0.620142
C159	C	1.245500	-0.050457	-0.220370
C160	C	1.745500	0.449543	0.279630
H161	H	1.245537	0.024179	-0.198045
H162	H	1.745537	0.524179	0.301955
H163	H	1.187801	-0.069310	-0.264415
H164	H	1.687801	0.430690	0.235585
H165	H	1.308643	-0.073259	-0.264812
H166	H	1.808643	0.426741	0.235188
