data_functionalizedCrystal
_audit_creation_method	'MofGen! by Chris Wilmer'
_symmetry_space_group_name_H-M	'P1'
_symmetry_Int_Tables_number	1
_symmetry_cell_setting	triclinic
loop_
_symmetry_equiv_pos_as_xyz
  x,y,z
_cell_length_a	27.732048
_cell_length_b	26.809956
_cell_length_c	27.732048
_cell_angle_alpha	89.999364
_cell_angle_beta	97.357345
_cell_angle_gamma	90.003258
loop_
_atom_site_label
_atom_site_type_symbol
_atom_site_fract_x
_atom_site_fract_y
_atom_site_fract_z
O1	O	0.640931	0.041421	-0.057510
O2	O	0.500138	0.041436	-0.066256
O3	O	0.574907	0.041419	0.008514
O4	O	0.566162	0.041439	-0.132280
O5	O	0.574893	-0.041541	0.008502
O6	O	0.500123	-0.041523	-0.066267
O7	O	0.640917	-0.041539	-0.057522
Zn8	Zn	0.570518	-0.054702	-0.061896
Zn9	Zn	0.570536	0.054600	-0.061881
O10	O	0.566147	-0.041521	-0.132291
C11	C	0.482124	-0.000041	-0.066078
C12	C	0.428469	-0.000036	-0.065525
N13	N	0.570509	-0.129298	-0.061906
C14	C	0.089654	-0.000051	-0.106229
C15	C	-0.112006	-0.000056	-0.104178
O16	O	-0.143262	-0.000073	-0.141398
N17	N	-0.131130	-0.000062	-0.059843
C18	C	-0.099835	-0.000069	-0.016017
O19	O	-0.120728	-0.000079	0.021740
C20	C	0.101824	-0.000068	-0.018068
C21	C	0.120944	-0.000057	-0.062407
C22	C	0.108775	-0.000042	-0.150563
C23	C	0.159187	-0.000038	-0.151076
C24	C	0.190477	-0.000044	-0.107253
C25	C	0.171356	-0.000054	-0.062919
C26	C	0.133117	-0.000079	0.025757
C27	C	0.183535	-0.000080	0.025240
C28	C	0.202655	-0.000069	-0.019098
C29	C	0.253059	-0.000056	-0.019609
N30	N	0.272183	-0.000050	-0.063944
C31	C	0.240892	-0.000044	-0.107766
C32	C	-0.205709	-0.000069	-0.014943
C33	C	-0.256124	-0.000068	-0.014430
C34	C	-0.268291	-0.000056	-0.102591
C35	C	-0.217876	-0.000053	-0.103104
C36	C	-0.186585	-0.000063	-0.059278
C37	C	0.346761	-0.000036	-0.108839
C38	C	0.397178	-0.000030	-0.109347
C39	C	0.409341	-0.000044	-0.021186
C40	C	0.358929	-0.000048	-0.020678
C41	C	0.327639	-0.000045	-0.064508
O42	O	0.284343	-0.000045	0.017592
O43	O	0.261794	-0.000045	-0.145518
C44	C	0.039242	-0.000055	-0.105716
C45	C	0.020120	-0.000065	-0.061382
C46	C	0.051411	-0.000071	-0.017560
C47	C	-0.030294	-0.000065	-0.060869
C48	C	-0.061585	-0.000059	-0.104691
C49	C	-0.042461	-0.000053	-0.149026
C50	C	0.007951	-0.000049	-0.149539
C51	C	0.032287	-0.000077	0.026775
C52	C	-0.018125	-0.000080	0.027284
C53	C	-0.049416	-0.000074	-0.016538
C54	C	0.603640	-0.473932	-0.028781
C55	C	0.603652	-0.682810	-0.028774
O56	O	0.631801	-0.709820	-0.000613
N57	N	0.570539	-0.708925	-0.061870
C58	C	0.537419	-0.682818	-0.094969
O59	O	0.509252	-0.709824	-0.123116
C60	C	0.537406	-0.473941	-0.094974
C61	C	0.570524	-0.447829	-0.061878
C62	C	0.636755	-0.447819	0.004312
C63	C	0.636754	-0.395603	0.004308
C64	C	0.603637	-0.369500	-0.028789
C65	C	0.570522	-0.395612	-0.061882
C66	C	0.504284	-0.447835	-0.128070
C67	C	0.504283	-0.395613	-0.128067
C68	C	0.537401	-0.369500	-0.094972
C69	C	0.537405	-0.317293	-0.094983
N70	N	0.570517	-0.291177	-0.061887
C71	C	0.603633	-0.317281	-0.028790
C72	C	0.537429	-0.792481	-0.094965
C73	C	0.537433	-0.844700	-0.094964
C74	C	0.603665	-0.844689	-0.028768
C75	C	0.603663	-0.792469	-0.028772
C76	C	0.570542	-0.766366	-0.061868
C77	C	0.603628	-0.207623	-0.028801
C78	C	0.603625	-0.155402	-0.028809
C79	C	0.537392	-0.155418	-0.095003
C80	C	0.537396	-0.207635	-0.094997
C81	C	0.570516	-0.233735	-0.061892
O82	O	0.509266	-0.290250	-0.123126
O83	O	0.631789	-0.290266	-0.000640
C84	C	0.603642	-0.526149	-0.028777
C85	C	0.570527	-0.552261	-0.061870
C86	C	0.537410	-0.526158	-0.094968
C87	C	0.570531	-0.604480	-0.061870
C88	C	0.603647	-0.630584	-0.028773
C89	C	0.636759	-0.604468	0.004324
C90	C	0.636758	-0.552252	0.004320
C91	C	0.504298	-0.552273	-0.128064
C92	C	0.504303	-0.604489	-0.128058
C93	C	0.537419	-0.630593	-0.094961
C94	C	0.658931	-0.000060	-0.057699
C95	C	0.712586	-0.000062	-0.058252
C96	C	0.574716	-0.000062	0.026515
C97	C	0.574164	-0.000066	0.080170
N98	N	0.570549	0.129196	-0.061867
C99	C	0.566338	-0.000039	-0.150292
C100	C	0.566891	-0.000031	-0.203947
C101	C	0.614867	-0.000045	0.418985
C102	C	0.612816	-0.000038	0.620645
O103	O	0.650037	-0.000021	0.651900
N104	N	0.568481	-0.000034	0.639768
C105	C	0.524656	-0.000028	0.608474
O106	O	0.486899	-0.000019	0.629367
C107	C	0.526707	-0.000031	0.406815
C108	C	0.571045	-0.000041	0.387694
C109	C	0.659202	-0.000054	0.399864
C110	C	0.659714	-0.000059	0.349452
C111	C	0.615892	-0.000054	0.318161
C112	C	0.571557	-0.000045	0.337282
C113	C	0.482882	-0.000022	0.375521
C114	C	0.483399	-0.000021	0.325104
C115	C	0.527737	-0.000031	0.305983
C116	C	0.528247	-0.000045	0.255580
N117	N	0.572583	-0.000050	0.236456
C118	C	0.616405	-0.000054	0.267747
C119	C	0.523582	-0.000027	0.714348
C120	C	0.523069	-0.000027	0.764762
C121	C	0.611230	-0.000036	0.776930
C122	C	0.611742	-0.000040	0.726514
C123	C	0.567917	-0.000031	0.695224
C124	C	0.617477	-0.000064	0.161878
C125	C	0.617986	-0.000071	0.111461
C126	C	0.529825	-0.000059	0.099298
C127	C	0.529316	-0.000055	0.149710
C128	C	0.573147	-0.000056	0.180999
O129	O	0.491047	-0.000057	0.224296
O130	O	0.654156	-0.000053	0.246844
C131	C	0.614355	-0.000041	0.469397
C132	C	0.570021	-0.000032	0.488518
C133	C	0.526198	-0.000027	0.457228
C134	C	0.569508	-0.000032	0.538933
C135	C	0.613330	-0.000036	0.570223
C136	C	0.657665	-0.000041	0.551100
C137	C	0.658177	-0.000045	0.500688
C138	C	0.481863	-0.000023	0.476351
C139	C	0.481355	-0.000019	0.526764
C140	C	0.525177	-0.000023	0.558054
H141	H	0.321291	-0.000035	-0.144530
H142	H	0.477317	-0.469089	-0.155019
H143	H	0.486964	-0.000028	0.780325
N144	N	0.470464	-0.631159	-0.161860
N145	N	0.440574	-0.660293	-0.146723
H146	H	0.416672	-0.679127	-0.170593
N147	N	0.637484	-0.871353	0.005053
N148	N	0.637145	-0.865518	0.049727
H149	H	0.661025	-0.884350	0.073617
H150	H	0.663722	-0.469068	0.031266
H151	H	0.117558	-0.000088	0.061861
H152	H	0.445246	-0.000015	0.542327
H153	H	0.174750	-0.000029	-0.187180
H154	H	0.487892	-0.000020	0.688875
H155	H	0.694889	-0.000056	0.425336
H156	H	-0.180236	-0.000077	0.020747
N157	N	0.637471	-0.765805	0.005062
N158	N	0.667019	-0.789125	0.034624
H159	H	0.690888	-0.770296	0.058531
H160	H	0.477310	-0.374362	-0.155018
N161	N	0.076824	-0.000039	-0.195335
N162	N	0.093913	-0.000032	-0.234912
H163	H	0.071350	-0.000027	-0.266536
N164	N	0.339401	-0.000060	0.024615
N165	N	0.349111	-0.035034	0.054066
H166	H	0.335323	-0.035047	0.086055
H167	H	0.446177	-0.000018	0.450879
N168	N	-0.275661	-0.000070	0.030855
N169	N	-0.302433	0.034897	0.040985
H170	H	-0.316230	0.034893	0.072969
H171	H	-0.293777	-0.000051	-0.138273
N172	N	0.416700	-0.000016	-0.154644
N173	N	0.388753	-0.000011	-0.193766
H174	H	0.402539	-0.000001	-0.225757
N175	N	0.438635	-0.000020	0.293136
N176	N	0.439095	-0.000025	0.248124
H177	H	0.407481	-0.000026	0.225546
H178	H	0.510471	-0.865958	-0.121919
H179	H	0.693347	-0.000047	0.576585
H180	H	0.653168	-0.000063	0.187348
N181	N	-0.198338	-0.000042	-0.148389
N182	N	-0.171561	0.034927	-0.158508
H183	H	-0.157764	0.034934	-0.190493
N184	N	0.470463	-0.525621	-0.161875
N185	N	0.440902	-0.548950	-0.191419
H186	H	0.417005	-0.530130	-0.215302
N187	N	0.215489	-0.000096	0.070012
N188	N	0.198406	-0.000107	0.109592
H189	H	0.220973	-0.000118	0.141213
H190	H	0.434827	-0.000047	0.014492
N191	N	0.657032	-0.000036	0.706986
N192	N	0.667163	0.034935	0.680217
H193	H	0.699151	0.034940	0.666427
N194	N	0.027470	-0.000037	-0.194834
N195	N	-0.000481	-0.000031	-0.233954
H196	H	0.013301	-0.000022	-0.265946
H197	H	0.695819	-0.000065	0.333889
N198	N	0.655999	-0.000043	0.808890
N199	N	0.685570	-0.035012	0.807338
H200	H	0.717187	-0.035014	0.829910
N201	N	0.437587	-0.000011	0.395036
N202	N	0.398468	-0.000001	0.367083
H203	H	0.366474	0.000008	0.380864
N204	N	0.484023	-0.000060	0.169236
N205	N	0.444900	-0.000064	0.141290
H206	H	0.412910	-0.000067	0.155077
H207	H	0.663725	-0.530995	0.031269
H208	H	0.057760	-0.000083	0.062462
N209	N	-0.074436	-0.000044	-0.193786
N210	N	-0.119446	-0.000048	-0.193315
H211	H	-0.142031	-0.000044	-0.224924
N212	N	-0.037645	-0.000085	0.072582
N213	N	-0.009695	-0.000090	0.111703
H214	H	-0.023479	-0.000097	0.143695
H215	H	0.630595	-0.134142	-0.001859
H216	H	0.654093	-0.000080	0.095896
H217	H	0.494146	-0.000057	0.073812
N218	N	0.637460	-0.234271	0.005020
N219	N	0.667022	-0.210942	0.034562
H220	H	0.690918	-0.229762	0.058447
N221	N	0.703472	-0.000057	0.481168
N222	N	0.742592	-0.000062	0.509120
H223	H	0.774585	-0.000070	0.495338
N224	N	0.670614	-0.368962	0.038108
N225	N	0.670324	-0.374803	0.082788
H226	H	0.694251	-0.355999	0.106656
N227	N	0.503590	-0.765830	-0.128777
N228	N	0.474030	-0.789159	-0.158322
H229	H	0.450131	-0.770339	-0.182203
N230	N	0.503567	-0.234303	-0.128807
N231	N	0.474001	-0.210988	-0.158355
H232	H	0.450104	-0.229819	-0.182231
H233	H	0.510430	-0.134157	-0.121952
N234	N	0.670578	-0.631144	0.038136
N235	N	0.655459	-0.660282	0.068033
H236	H	0.679339	-0.679124	0.091914
