data_functionalizedCrystal
_audit_creation_method	'MofGen! by Chris Wilmer'
_symmetry_space_group_name_H-M	'P1'
_symmetry_Int_Tables_number	1
_symmetry_cell_setting	triclinic
loop_
_symmetry_equiv_pos_as_xyz
  x,y,z
_cell_length_a	11.026660
_cell_length_b	14.519731
_cell_length_c	9.482900
_cell_angle_alpha	99.351580
_cell_angle_beta	78.636107
_cell_angle_gamma	96.136844
loop_
_atom_site_label
_atom_site_type_symbol
_atom_site_fract_x
_atom_site_fract_y
_atom_site_fract_z
O1	O	1.629923	0.375006	-0.120919
O2	O	1.879923	0.625006	0.129081
O3	O	2.129923	0.875006	0.379081
O4	O	2.379923	1.125006	0.629081
O5	O	1.276519	0.331018	-0.120918
O6	O	1.526519	0.581018	0.129082
O7	O	1.776519	0.831018	0.379082
O8	O	2.026519	1.081018	0.629082
O9	O	1.462575	0.220317	-0.120906
O10	O	1.712575	0.470317	0.129094
O11	O	1.962575	0.720317	0.379094
O12	O	2.212575	0.970317	0.629094
O13	O	1.443866	0.485706	-0.120932
O14	O	1.693866	0.735706	0.129068
O15	O	1.943866	0.985706	0.379068
O16	O	2.193866	1.235706	0.629068
O17	O	1.424783	0.242919	0.120884
O18	O	1.674783	0.492919	0.370884
O19	O	1.924783	0.742919	0.620884
O20	O	2.174783	0.992919	0.870884
O21	O	1.238727	0.353619	0.120872
O22	O	1.488727	0.603619	0.370872
O23	O	1.738727	0.853619	0.620872
O24	O	1.988727	1.103619	0.870872
O25	O	1.592131	0.397607	0.120871
O26	O	1.842131	0.647607	0.370871
O27	O	2.092131	0.897607	0.620871
O28	O	2.342131	1.147607	0.870871
Cu29	Cu	1.411978	0.377677	0.142949
Cu30	Cu	1.661978	0.627677	0.392949
Cu31	Cu	1.911978	0.877677	0.642949
Cu32	Cu	2.161978	1.127677	0.892949
Cu33	Cu	1.456671	0.350948	-0.142996
Cu34	Cu	1.706671	0.600948	0.107004
Cu35	Cu	1.956671	0.850948	0.357004
Cu36	Cu	2.206671	1.100948	0.607004
O37	O	1.406074	0.508307	0.120858
O38	O	1.656074	0.758307	0.370858
O39	O	1.906074	1.008307	0.620858
O40	O	2.156074	1.258307	0.870858
C41	C	1.212393	0.334203	-0.000023
C42	C	1.462393	0.584203	0.249977
C43	C	1.712393	0.834203	0.499977
C44	C	1.962393	1.084203	0.749977
C45	C	1.077625	0.310012	-0.000022
C46	C	1.327625	0.560012	0.249978
C47	C	1.577625	0.810012	0.499978
C48	C	1.827625	1.060012	0.749978
C49	C	0.864682	0.351814	-0.000030
C50	C	1.114682	0.601814	0.249970
C51	C	1.364682	0.851814	0.499970
C52	C	1.614682	1.101814	0.749970
C53	C	1.003971	0.376819	-0.000030
C54	C	1.253971	0.626819	0.249970
C55	C	1.503971	0.876819	0.499970
C56	C	1.753971	1.126819	0.749970
C57	C	1.442802	0.197114	-0.000010
C58	C	1.692802	0.447114	0.249990
C59	C	1.942802	0.697114	0.499990
C60	C	2.192802	0.947114	0.749990
C61	C	1.440175	0.094301	-0.000009
C62	C	1.690175	0.344301	0.249991
C63	C	1.940175	0.594301	0.499991
C64	C	2.190175	0.844301	0.749991
C65	C	1.438040	0.010805	-0.000013
C66	C	1.688040	0.260805	0.249987
C67	C	1.938040	0.510805	0.499987
C68	C	2.188040	0.760805	0.749987
C69	C	1.435374	-0.093944	-0.000024
C70	C	1.685374	0.156056	0.249976
C71	C	1.935374	0.406056	0.499976
C72	C	2.185374	0.656056	0.749976
C73	C	1.433258	-0.177433	-0.000033
C74	C	1.683258	0.072567	0.249967
C75	C	1.933258	0.322567	0.499967
C76	C	2.183258	0.572567	0.749967
C77	C	1.430592	-0.282189	-0.000042
C78	C	1.680592	-0.032189	0.249958
C79	C	1.930592	0.217811	0.499958
C80	C	2.180592	0.467811	0.749958
C81	C	1.656256	0.394421	-0.000028
C82	C	1.906256	0.644421	0.249972
C83	C	2.156256	0.894421	0.499972
C84	C	2.406256	1.144421	0.749972
C85	C	1.791026	0.418612	-0.000038
C86	C	2.041026	0.668612	0.249962
C87	C	2.291026	0.918612	0.499962
C88	C	2.541026	1.168612	0.749962
C89	C	1.425848	0.531510	-0.000040
C90	C	1.675848	0.781510	0.249960
C91	C	1.925848	1.031510	0.499960
C92	C	2.175848	1.281510	0.749960
C93	C	1.428477	0.634323	-0.000051
C94	C	1.678477	0.884323	0.249949
C95	C	1.928477	1.134323	0.499949
C96	C	2.178477	1.384323	0.749949
N97	N	1.380552	0.396477	0.344067
N98	N	1.630552	0.646477	0.594067
N99	N	1.880552	0.896477	0.844067
N100	N	2.130552	1.146477	1.094067
N101	N	1.488107	0.332142	-0.344114
N102	N	1.738107	0.582142	-0.094114
N103	N	1.988107	0.832142	0.155886
N104	N	2.238107	1.082142	0.405886
C105	C	1.447394	0.356487	0.416270
C106	C	1.697394	0.606487	0.666270
C107	C	1.947394	0.856487	0.916270
C108	C	2.197394	1.106487	1.166270
C109	C	1.421255	0.372138	0.583686
C110	C	1.671255	0.622138	0.833686
C111	C	1.921255	0.872138	1.083686
C112	C	2.171255	1.122138	1.333686
H113	H	0.824617	0.276117	-0.000002
H114	H	1.074617	0.526117	0.249998
H115	H	1.324617	0.776117	0.499998
H116	H	1.574617	1.026117	0.749998
H117	H	1.564684	0.286311	0.593767
H118	H	1.814684	0.536311	0.843767
H119	H	2.064684	0.786311	1.093767
H120	H	2.314684	1.036311	1.343767
H121	H	0.831086	0.494312	-0.000037
H122	H	1.081086	0.744312	0.249963
H123	H	1.331086	0.994312	0.499963
H124	H	1.581086	1.244312	0.749963
H125	H	1.037587	0.234298	-0.000111
H126	H	1.287587	0.484298	0.249889
H127	H	1.537587	0.734298	0.499889
H128	H	1.787587	0.984298	0.749889
H129	H	1.044025	0.452525	-0.000028
H130	H	1.294025	0.702525	0.249972
H131	H	1.544025	0.952525	0.499972
H132	H	1.794025	1.202525	0.749972
H133	H	1.523966	0.310659	0.354147
H134	H	1.773966	0.560659	0.604147
H135	H	2.023966	0.810659	0.854147
H136	H	2.273966	1.060659	1.104147
H137	H	1.344669	0.417960	0.645805
H138	H	1.594669	0.667960	0.895805
H139	H	1.844669	0.917960	1.145805
H140	H	2.094669	1.167960	1.395805
F141	F	1.280453	0.456368	0.425263
F142	F	1.530453	0.706368	0.675263
F143	F	1.780453	0.956368	0.925263
F144	F	2.030453	1.206368	1.175263
