data_functionalizedCrystal
_audit_creation_method	'MofGen! by Chris Wilmer'
_symmetry_space_group_name_H-M	'P1'
_symmetry_Int_Tables_number	1
_symmetry_cell_setting	triclinic
loop_
_symmetry_equiv_pos_as_xyz
  x,y,z
_cell_length_a	19.077105
_cell_length_b	18.101395
_cell_length_c	19.076919
_cell_angle_alpha	87.727683
_cell_angle_beta	89.923776
_cell_angle_gamma	87.727498
loop_
_atom_site_label
_atom_site_type_symbol
_atom_site_fract_x
_atom_site_fract_y
_atom_site_fract_z
Zn1	Zn	1.058231	-0.358271	0.440421
Zn2	Zn	1.062857	-0.477344	0.322915
Zn3	Zn	0.945450	-0.348351	0.318214
Zn4	Zn	0.940679	-0.476897	0.435668
O5	O	1.001804	-0.415216	0.379305
O6	O	1.157176	-0.378405	0.428790
O7	O	1.051216	-0.456268	0.223960
O8	O	0.960470	-0.246037	0.334447
O9	O	1.160575	-0.465887	0.342459
O10	O	1.043330	-0.253326	0.424232
O11	O	0.964957	-0.361497	0.220507
O12	O	0.846486	-0.361064	0.329838
O13	O	0.952340	-0.465126	0.534630
O14	O	0.842981	-0.455506	0.416131
O15	O	1.038704	-0.377972	0.538122
O16	O	1.046590	-0.580914	0.337850
O17	O	0.956826	-0.580586	0.420689
C18	C	0.819237	-0.407161	0.371959
C19	C	0.741133	-0.403733	0.368833
C20	C	1.001711	-0.607621	0.379280
C21	C	1.001735	-0.689937	0.379296
C22	C	0.702636	-0.451363	0.412222
C23	C	0.629249	-0.448133	0.409288
C24	C	0.594361	-0.397276	0.362962
C25	C	0.632863	-0.349642	0.319571
C26	C	0.706248	-0.352869	0.322509
C27	C	0.375075	-0.382341	0.349369
C28	C	0.301684	-0.379119	0.346433
C29	C	0.298076	-0.477610	0.436152
C30	C	0.371463	-0.480836	0.439082
C31	C	0.409959	-0.433198	0.395694
N32	N	0.519348	-0.393975	0.359960
N33	N	0.484970	-0.436497	0.398700
C34	C	1.001887	-0.989036	0.379340
C35	C	0.945531	-0.957547	0.431600
C36	C	0.945280	-0.871910	0.431419
C37	C	1.001811	-0.840650	0.379319
C38	C	0.984741	-0.867911	0.304458
C39	C	0.984379	-0.953554	0.304770
C40	C	1.075459	-0.961424	0.401293
C41	C	1.074956	-0.875820	0.402900
C42	C	1.001770	-0.756788	0.379302
C43	C	1.001927	-1.072898	0.379351
C44	C	1.185084	-0.423303	0.386679
C45	C	1.263188	-0.426749	0.389822
C46	C	0.994474	-0.422606	0.562585
C47	C	0.991350	-0.425755	0.640688
C48	C	1.001916	-0.222060	0.379345
C49	C	1.001964	-0.139749	0.379363
C50	C	1.009146	-0.407803	0.196739
C51	C	1.012406	-0.404451	0.118642
C52	C	1.034846	-0.381860	0.679200
C53	C	1.031902	-0.384816	0.752586
C54	C	0.985466	-0.431671	0.787458
C55	C	0.941966	-0.475568	0.748941
C56	C	0.944906	-0.472608	0.675556
C57	C	0.971847	-0.445387	1.006740
C58	C	0.968911	-0.448346	1.080130
C59	C	1.058847	-0.357593	1.083770
C60	C	1.061786	-0.354640	1.010384
C61	C	1.018283	-0.398533	0.971872
N62	N	0.982458	-0.434696	0.862471
N63	N	1.021289	-0.395505	0.896861
H64	H	0.731037	-0.492778	0.449944
H65	H	0.909480	-0.508344	0.644200
H66	H	0.931095	-0.486502	1.108520
O67	O	1.079878	-0.336236	0.645358
C68	C	1.063854	-0.262477	0.662704
H69	H	1.006911	-0.257078	0.680613
H70	H	1.099829	-0.246502	0.706826
C71	C	1.144610	-0.217414	0.575862
C72	C	1.074671	-0.210781	0.597852
H73	H	1.151285	-0.185524	0.535860
H74	H	1.155409	-0.267106	0.564177
H75	H	1.174582	-0.204102	0.612636
H76	H	1.044701	-0.224102	0.561082
H77	H	1.063867	-0.161089	0.609530
H78	H	1.067323	-0.349074	0.783940
H79	H	1.024629	-0.847532	0.264328
O80	O	1.106910	-0.309058	0.976620
C81	C	1.144683	-0.270961	1.026350
H82	H	1.113808	-0.269235	1.077502
H83	H	1.197722	-0.300750	1.036300
C84	C	1.193927	-0.193558	0.935308
C85	C	1.156003	-0.191433	0.998132
H86	H	1.200913	-0.144502	0.917901
H87	H	1.168481	-0.219226	0.901803
H88	H	1.238122	-0.218386	0.943608
H89	H	1.111806	-0.166614	0.989829
H90	H	1.181442	-0.165759	1.031634
O91	O	0.267682	-0.329761	0.301466
C92	C	0.194655	-0.337111	0.308199
H93	H	0.183695	-0.394794	0.330689
H94	H	0.172369	-0.293863	0.344887
C95	C	0.173256	-0.254794	0.207994
C96	C	0.159795	-0.325643	0.235610
H97	H	0.151751	-0.247716	0.163218
H98	H	0.222456	-0.249839	0.203459
H99	H	0.154684	-0.218762	0.238573
H100	H	0.178375	-0.361673	0.205035
H101	H	0.110597	-0.330604	0.240138
O102	O	0.929554	-0.488087	0.969443
C103	C	0.887924	-0.530057	1.015961
H104	H	0.914618	-0.536017	1.069426
H105	H	0.834269	-0.500882	1.021635
C106	C	0.846081	-0.599942	0.921221
C107	C	0.878870	-0.607268	0.986886
H108	H	0.840493	-0.647568	0.903286
H109	H	0.874126	-0.571665	0.889881
H110	H	0.801372	-0.575627	0.925959
H111	H	0.923582	-0.631574	0.982147
H112	H	0.850832	-0.635551	1.018226
O113	O	0.896796	-0.521100	0.782702
C114	C	0.859048	-0.559222	0.732972
H115	H	0.858727	-0.526670	0.680570
H116	H	0.885061	-0.616284	0.726189
C117	C	0.783504	-0.607734	0.822957
C118	C	0.783104	-0.567750	0.758598
H119	H	0.736659	-0.612998	0.838765
H120	H	0.808937	-0.582053	0.856462
H121	H	0.805185	-0.655282	0.817296
H122	H	0.761432	-0.520200	0.764262
H123	H	0.757666	-0.593423	0.725094
O124	O	0.920322	-0.973930	0.283102
C125	C	0.889190	-1.017564	0.336550
H126	H	0.931788	-1.043665	0.372511
H127	H	0.851795	-0.981311	0.368301
C128	C	0.795838	-1.046885	0.259296
C129	C	0.848158	-1.078947	0.303461
H130	H	0.770525	-1.084747	0.238887
H131	H	0.816810	-1.017486	0.223288
H132	H	0.764683	-1.016675	0.285763
H133	H	0.879317	-1.109149	0.276993
H134	H	0.827190	-1.108354	0.339465
H135	H	0.955734	-0.980878	0.487188
O136	O	0.880133	-0.844005	0.413909
C137	C	0.852941	-0.801932	0.469087
H138	H	0.880215	-0.820750	0.520230
H139	H	0.862427	-0.740884	0.457420
C140	C	0.740082	-0.789909	0.413222
C141	C	0.773576	-0.813025	0.476037
H142	H	0.691126	-0.796748	0.417508
H143	H	0.758402	-0.818252	0.376046
H144	H	0.747995	-0.739036	0.403506
H145	H	0.765671	-0.863898	0.485748
H146	H	0.755253	-0.784691	0.513216
H147	H	0.399864	-0.522250	0.476804
H148	H	0.597908	-0.486918	0.444619
O149	O	0.957697	-0.850190	0.497542
C150	C	1.023568	-0.879721	0.520601
H151	H	1.038443	-0.930746	0.489846
H152	H	1.064836	-0.836461	0.511723
C153	C	1.001414	-0.838822	0.637100
C154	C	1.019680	-0.901495	0.599331
H155	H	0.999017	-0.852250	0.685665
H156	H	0.957036	-0.818923	0.621565
H157	H	1.035806	-0.802777	0.629695
H158	H	0.985283	-0.937534	0.606730
H159	H	1.064052	-0.921400	0.614869
H160	H	0.266725	-0.516393	0.471476
H161	H	0.891266	-0.976217	0.416994
O162	O	0.412357	-0.336037	0.307153
C163	C	0.365824	-0.290448	0.265649
H164	H	0.313601	-0.318383	0.261068
H165	H	0.357010	-0.234948	0.291169
C166	C	0.461586	-0.243573	0.197655
C167	C	0.397446	-0.277887	0.192023
H168	H	0.481092	-0.235822	0.152240
H169	H	0.492937	-0.274285	0.225619
H170	H	0.454232	-0.197328	0.218924
H171	H	0.404802	-0.324135	0.170763
H172	H	0.366097	-0.247182	0.164054
O173	O	0.599084	-0.300173	0.274551
C174	C	0.648802	-0.258838	0.236873
H175	H	0.699969	-0.259781	0.267754
H176	H	0.658722	-0.284060	0.183772
C177	C	0.557750	-0.177186	0.187799
C178	C	0.620592	-0.178338	0.225731
H179	H	0.540349	-0.127530	0.180923
H180	H	0.524253	-0.205035	0.213181
H181	H	0.566025	-0.198207	0.143553
H182	H	0.612315	-0.157325	0.269979
H183	H	0.654087	-0.150483	0.200356
H184	H	0.737591	-0.314080	0.287181
H185	H	1.023807	-0.974230	0.264344
O186	O	0.921359	-0.838755	0.282487
C187	C	0.892316	-0.793674	0.334593
H188	H	0.916265	-0.811251	0.387675
H189	H	0.904087	-0.733429	0.321504
C190	C	0.782926	-0.780482	0.272290
C191	C	0.812337	-0.802074	0.337487
H192	H	0.733591	-0.785660	0.274074
H193	H	0.802493	-0.810852	0.237184
H194	H	0.792742	-0.730279	0.261389
H195	H	0.802528	-0.852279	0.348383
H196	H	0.792766	-0.771713	0.372596
O197	O	1.094842	-0.990618	0.465474
C198	C	1.160921	-0.964766	0.483562
H199	H	1.190094	-0.947110	0.433859
H200	H	1.153447	-0.915439	0.518539
C201	C	1.167961	-1.048693	0.584257
C202	C	1.203795	-1.027014	0.523211
H203	H	1.194407	-1.087089	0.608718
H204	H	1.123441	-1.066109	0.572073
H205	H	1.161735	-1.007582	0.613396
H206	H	1.210013	-1.068123	0.494069
H207	H	1.248317	-1.009607	0.535392
O208	O	1.090508	-0.854964	0.468612
C209	C	1.153231	-0.816273	0.466841
H210	H	1.185321	-0.832395	0.418965
H211	H	1.140261	-0.754207	0.463643
C212	C	1.156507	-0.816270	0.592700
C213	C	1.195923	-0.836076	0.533902
H214	H	1.182840	-0.828482	0.634068
H215	H	1.114248	-0.842334	0.593894
H216	H	1.145701	-0.764549	0.590026
H217	H	1.206721	-0.887797	0.536573
H218	H	1.238185	-0.810021	0.532710
O219	O	1.127330	-0.850679	0.361001
C220	C	1.098852	-0.800469	0.309225
H221	H	1.041032	-0.811485	0.301306
H222	H	1.104209	-0.741464	0.326725
C223	C	1.209629	-0.796916	0.249448
C224	C	1.138615	-0.810451	0.239719
H225	H	1.234158	-0.803070	0.206574
H226	H	1.228817	-0.830742	0.284333
H227	H	1.214084	-0.747746	0.264034
H228	H	1.134161	-0.859623	0.225142
H229	H	1.119428	-0.776634	0.204830
O230	O	1.125428	-0.985873	0.355890
C231	C	1.094100	-1.027699	0.304496
H232	H	1.042784	-1.049844	0.325677
H233	H	1.083052	-0.991095	0.255434
C234	C	1.207153	-1.065717	0.260003
C235	C	1.144128	-1.092922	0.286021
H236	H	1.238013	-1.105948	0.248604
H237	H	1.228259	-1.037536	0.294627
H238	H	1.197936	-1.035214	0.219122
H239	H	1.153344	-1.123416	0.326906
H240	H	1.123024	-1.121109	0.251404
H241	H	1.094263	-0.321856	1.115133
