data_functionalizedCrystal
_audit_creation_method	'MofGen! by Chris Wilmer'
_symmetry_space_group_name_H-M	'P1'
_symmetry_Int_Tables_number	1
_symmetry_cell_setting	triclinic
loop_
_symmetry_equiv_pos_as_xyz
  x,y,z
_cell_length_a	16.109301
_cell_length_b	10.065918
_cell_length_c	16.109301
_cell_angle_alpha	99.820212
_cell_angle_beta	83.461481
_cell_angle_gamma	99.860161
loop_
_atom_site_label
_atom_site_type_symbol
_atom_site_fract_x
_atom_site_fract_y
_atom_site_fract_z
O1	O	1.114031	0.113412	0.117705
O2	O	0.871971	0.113435	0.131007
O3	O	0.999649	0.113409	0.003324
O4	O	0.986353	0.113438	0.245388
O5	O	0.977824	-0.113580	-0.018372
O6	O	0.850146	-0.113554	0.109311
O7	O	1.092206	-0.113577	0.096009
Zn8	Zn	0.967711	-0.149605	0.099215
Zn9	Zn	0.996466	0.149463	0.127801
O10	O	0.964528	-0.113551	0.223692
C11	C	0.830084	-0.000057	0.119620
C12	C	0.737789	-0.000049	0.118006
N13	N	0.948092	-0.353711	0.079706
C14	C	0.515516	-0.000056	0.190013
C15	C	0.428795	-0.000065	0.188488
C16	C	0.448668	-0.000078	0.036998
C17	C	0.535387	-0.000078	0.038523
C18	C	0.568809	-0.000061	0.115033
C19	C	0.395369	-0.000069	0.111984
C20	C	0.301342	-0.000079	0.110330
C21	C	0.662842	-0.000054	0.116688
C22	C	0.989635	-0.421489	0.121013
C23	C	0.974543	-0.578656	0.105990
C24	C	1.134093	-0.000082	0.107396
C25	C	1.226389	-0.000081	0.109011
C26	C	0.988198	-0.000086	-0.038499
C27	C	0.986583	-0.000088	-0.130795
N28	N	1.016091	0.353569	0.147303
C29	C	1.058592	-0.000073	-0.353066
C30	C	1.057069	-0.000061	-0.439785
C31	C	0.905581	-0.000053	-0.419910
C32	C	0.907106	-0.000055	-0.333191
C33	C	0.983613	-0.000071	-0.299772
C34	C	0.980565	-0.000058	-0.473210
C35	C	0.978913	-0.000046	-0.567235
C36	C	0.985266	-0.000081	-0.205741
C37	C	0.975979	-0.000053	0.265516
C38	C	0.977596	-0.000042	0.357812
H39	H	0.542725	-0.000052	0.252312
H40	H	0.421444	-0.000100	-0.025295
O41	O	0.371312	-0.000056	0.269358
H42	H	0.409126	-0.000036	0.322814
O43	O	0.592877	-0.000086	-0.042351
H44	H	0.555071	-0.000080	-0.095808
H45	H	0.843291	-0.000042	-0.447131
H46	H	1.036377	-0.363161	0.167496
O47	O	0.912623	-0.655893	0.044410
H48	H	0.910480	-0.767217	0.042279
O49	O	1.078005	-0.569198	0.208890
H50	H	1.080139	-0.457873	0.211033
H51	H	0.901356	-0.412039	0.033218
H52	H	1.120889	-0.000084	-0.325859
H53	H	1.118125	-0.000060	-0.483173
O54	O	0.826231	-0.000068	-0.275702
H55	H	0.772772	-0.000082	-0.313510
