data_functionalizedCrystal
_audit_creation_method	'MofGen! by Chris Wilmer'
_symmetry_space_group_name_H-M	'P1'
_symmetry_Int_Tables_number	1
_symmetry_cell_setting	triclinic
loop_
_symmetry_equiv_pos_as_xyz
  x,y,z
_cell_length_a	13.032721
_cell_length_b	12.759401
_cell_length_c	12.759393
_cell_angle_alpha	89.981504
_cell_angle_beta	97.148028
_cell_angle_gamma	97.204304
loop_
_atom_site_label
_atom_site_type_symbol
_atom_site_fract_x
_atom_site_fract_y
_atom_site_fract_z
Zn1	Zn	-0.415970	1.553098	-0.647064
Zn2	Zn	-0.590752	1.530656	-0.493688
Zn3	Zn	-0.416025	1.377393	-0.471410
Zn4	Zn	-0.590671	1.355063	-0.669319
O5	O	-0.503355	1.454052	-0.570370
O6	O	-0.439166	1.697140	-0.626728
O7	O	-0.567631	1.510279	-0.343719
O8	O	-0.269780	1.419437	-0.476074
O9	O	-0.567577	1.680653	-0.514043
O10	O	-0.269740	1.548527	-0.605126
O11	O	-0.439259	1.397677	-0.327352
O12	O	-0.439181	1.227411	-0.497654
O13	O	-0.567440	1.381379	-0.813381
O14	O	-0.567493	1.211005	-0.643057
O15	O	-0.439088	1.526875	-0.797030
O16	O	-0.736978	1.488626	-0.535623
O17	O	-0.736919	1.359619	-0.664659
C18	C	-0.503335	1.181087	-0.570354
C19	C	-0.503352	1.064309	-0.570375
C20	C	-0.570271	1.000918	-0.645989
C21	C	-0.570285	0.891192	-0.646002
C22	C	-0.436457	0.908258	-0.494778
C23	C	-0.436439	1.017982	-0.494770
C24	C	-0.647539	0.991064	-0.733294
C25	C	-0.647552	0.881338	-0.733307
C26	C	-0.774866	1.419293	-0.604997
C27	C	-0.891020	1.404519	-0.619845
C28	C	-0.942800	1.461819	-0.562668
C29	C	-1.062851	1.446551	-0.578013
C30	C	-0.230782	1.488976	-0.535632
C31	C	-0.114628	1.503859	-0.520829
C32	C	-0.503249	1.454139	-0.844390
C33	C	-0.503204	1.454176	-0.961161
C34	C	-0.503375	1.728083	-0.570388
C35	C	-0.503383	1.844859	-0.570395
C36	C	-0.436365	1.529946	-1.007510
C37	C	-0.436327	1.529976	-1.117230
C38	C	-0.569977	1.378462	-1.134243
C39	C	-0.570009	1.378429	-1.024525
C40	C	-0.359206	1.617424	-0.997689
C41	C	-0.359168	1.617454	-1.107409
C42	C	-0.503384	1.454036	-0.297407
C43	C	-0.503135	1.454240	-0.180599
H44	H	-0.618663	0.851032	-0.806972
C45	C	-0.363943	1.086918	-0.412640
C46	C	-0.423012	1.142352	-0.352741
C47	C	-0.356260	1.205875	-0.277080
H48	H	-0.324076	1.043731	-0.367514
H49	H	-0.318470	1.135611	-0.447080
H50	H	-0.468466	1.093665	-0.318303
H51	H	-0.462877	1.185558	-0.397838
H52	H	-0.310787	1.254568	-0.311520
H53	H	-0.316396	1.162681	-0.231962
H54	H	-0.396327	1.243502	-0.236436
H55	H	-0.624365	1.316790	-1.185846
C56	C	-0.618834	1.034696	-0.838116
C57	C	-0.618925	1.144417	-0.837846
C58	C	-0.592504	1.184644	-0.934393
H59	H	-0.551412	1.018629	-0.847916
H60	H	-0.668288	1.003633	-0.893996
H61	H	-0.569473	1.175470	-0.781982
H62	H	-0.686337	1.160512	-0.828063
H63	H	-0.641959	1.153581	-0.990272
H64	H	-0.525084	1.168570	-0.944184
H65	H	-0.592572	1.259092	-0.934226
H66	H	-1.107394	1.386190	-0.638333
C67	C	-0.883356	1.542137	-0.482109
C68	C	-0.820815	1.490579	-0.406766
C69	C	-0.766053	1.564532	-0.332529
H70	H	-0.840622	1.593309	-0.516793
H71	H	-0.931375	1.576093	-0.448158
H72	H	-0.772801	1.456640	-0.440713
H73	H	-0.863523	1.439413	-0.372056
H74	H	-0.814071	1.598489	-0.298579
H75	H	-0.723324	1.615700	-0.367223
H76	H	-0.723619	1.529560	-0.281395
C77	C	-0.950596	1.324049	-0.700178
C78	C	-1.057825	1.324879	-0.699402
C79	C	-1.112735	1.250753	-0.773383
H80	H	-0.932818	1.341564	-0.768568
H81	H	-0.932894	1.255678	-0.682483
H82	H	-1.075519	1.393234	-0.717103
H83	H	-1.075634	1.307352	-0.631030
H84	H	-1.095033	1.182383	-0.755688
H85	H	-1.094948	1.268275	-0.841768
H86	H	-1.185495	1.251300	-0.772860
C87	C	-0.387992	1.722209	-1.151011
C88	C	-0.387841	1.721979	-1.260724
C89	C	-0.414367	1.818464	-1.300923
H90	H	-0.455450	1.731844	-1.134913
H91	H	-0.338613	1.778183	-1.119964
H92	H	-0.437218	1.666021	-1.291760
H93	H	-0.320393	1.712361	-1.276851
H94	H	-0.364988	1.874438	-1.269877
H95	H	-0.481824	1.828091	-1.284817
H96	H	-0.414259	1.818324	-1.375365
H97	H	-0.724379	1.015259	-0.713815
H98	H	-0.728468	0.841202	-0.721700
H99	H	-0.381977	0.870525	-0.433224
H100	H	-1.070087	1.564228	-0.460517
C101	C	-0.251245	1.602116	-0.944431
C102	C	-0.185173	1.592787	-1.021543
C103	C	-0.085720	1.578670	-0.972522
H104	H	-0.224235	1.661201	-0.899658
H105	H	-0.255611	1.539765	-0.903654
H106	H	-0.180804	1.655132	-1.062301
H107	H	-0.212150	1.533703	-1.066320
H108	H	-0.090086	1.516318	-0.931745
H109	H	-0.058720	1.637757	-0.927749
H110	H	-0.040881	1.572328	-1.024834
H111	H	-0.624432	1.316727	-0.986792
H112	H	-0.388219	1.690988	-0.967356
H113	H	-0.282271	1.598167	-1.131644
