data_functionalizedCrystal
_audit_creation_method	'MofGen! by Chris Wilmer'
_symmetry_space_group_name_H-M	'P1'
_symmetry_Int_Tables_number	1
_symmetry_cell_setting	triclinic
loop_
_symmetry_equiv_pos_as_xyz
  x,y,z
_cell_length_a	12.759401
_cell_length_b	16.120484
_cell_length_c	12.759393
_cell_angle_alpha	87.137118
_cell_angle_beta	90.018496
_cell_angle_gamma	92.925560
loop_
_atom_site_label
_atom_site_type_symbol
_atom_site_fract_x
_atom_site_fract_y
_atom_site_fract_z
Zn1	Zn	1.584972	-0.331853	0.615146
Zn2	Zn	2.084972	0.168147	1.115146
Zn3	Zn	1.575923	-0.471291	0.448359
Zn4	Zn	2.075923	0.028709	0.948359
Zn5	Zn	1.409271	-0.331897	0.439488
Zn6	Zn	1.909271	0.168103	0.939488
Zn7	Zn	1.400324	-0.471227	0.623996
Zn8	Zn	1.900324	0.028773	1.123996
O9	O	1.492622	-0.401567	0.531747
O10	O	1.992622	0.098433	1.031747
O11	O	1.730792	-0.350358	0.593030
O12	O	2.230792	0.149642	1.093030
O13	O	1.553774	-0.452845	0.300164
O14	O	2.053774	0.047155	0.800164
O15	O	1.440109	-0.215226	0.455373
O16	O	1.940109	0.284774	0.955373
O17	O	1.724144	-0.452803	0.470492
O18	O	2.224144	0.047197	0.970492
O19	O	1.569196	-0.215194	0.584428
O20	O	2.069196	0.284806	1.084428
O21	O	1.431335	-0.350433	0.293646
O22	O	1.931335	0.149567	0.793646
O23	O	1.261064	-0.350370	0.463955
O24	O	1.761064	0.149630	0.963955
O25	O	1.424860	-0.452693	0.769840
O26	O	1.924860	0.047307	1.269840
O27	O	1.254490	-0.452736	0.599512
O28	O	1.754490	0.047264	1.099512
O29	O	1.560520	-0.350296	0.763338
O30	O	2.060520	0.149704	1.263338
O31	O	1.545098	-0.587947	0.479074
O32	O	2.045098	-0.087947	0.979074
O33	O	1.416086	-0.587900	0.608114
O34	O	1.916086	-0.087900	1.108114
C35	C	1.219656	-0.401551	0.531732
C36	C	1.719656	0.098449	1.031732
C37	C	1.102879	-0.401565	0.531752
C38	C	1.602879	0.098435	1.031752
C39	C	1.478668	-0.618174	0.545540
C40	C	1.978668	-0.118174	1.045540
C41	C	1.472794	-0.710839	0.551475
C42	C	1.972794	-0.210839	1.051475
C43	C	1.044616	-0.454952	0.602231
C44	C	1.544616	0.045048	1.102231
C45	C	0.934891	-0.454962	0.602243
C46	C	1.434891	0.045038	1.102243
C47	C	0.941702	-0.348197	0.461287
C48	C	1.441702	0.151803	0.961287
C49	C	1.051425	-0.348183	0.461281
C50	C	1.551425	0.151817	0.961281
C51	C	1.040682	-0.516595	0.683607
C52	C	1.540682	-0.016595	1.183607
C53	C	0.930958	-0.516605	0.683619
C54	C	1.430958	-0.016605	1.183619
C55	C	1.462076	-0.880500	0.562334
C56	C	1.962076	-0.380500	1.062334
C57	C	1.523357	-0.921793	0.501178
C58	C	2.023357	-0.421793	1.001178
C59	C	1.517393	-1.016198	0.507219
C60	C	2.017393	-0.516198	1.007219
C61	C	1.468038	-0.786086	0.556293
C62	C	1.968038	-0.286086	1.056293
C63	C	1.766655	-0.401583	0.531763
C64	C	2.266655	0.098417	1.031763
C65	C	1.883431	-0.401590	0.531770
C66	C	2.383431	0.098410	1.031770
C67	C	1.492701	-0.401483	0.805775
C68	C	1.992701	0.098517	1.305775
C69	C	1.492735	-0.401447	0.922550
C70	C	1.992735	0.098553	1.422550
C71	C	1.506660	-0.184114	0.517924
C72	C	2.006660	0.315886	1.017924
C73	C	1.512642	-0.091448	0.512033
C74	C	2.012642	0.408552	1.012033
C75	C	1.492608	-0.401590	0.258781
C76	C	1.992608	0.098410	0.758781
C77	C	1.492793	-0.401391	0.141992
C78	C	1.992793	0.098609	0.641992
C79	C	1.563383	-0.348123	0.974027
C80	C	2.063383	0.151877	1.474027
C81	C	1.563410	-0.348093	1.083750
C82	C	2.063410	0.151907	1.583750
C83	C	1.422138	-0.454717	1.090507
C84	C	1.922138	0.045283	1.590507
C85	C	1.422106	-0.454742	0.980787
C86	C	1.922106	0.045258	1.480787
C87	C	1.644948	-0.286568	0.970127
C88	C	2.144948	0.213432	1.470127
C89	C	1.644975	-0.286538	1.079849
C90	C	2.144975	0.213462	1.579849
H91	H	1.098859	-0.304705	0.403897
H92	H	1.598859	0.195295	0.903897
F93	F	0.888446	-0.486481	0.782799
F94	F	1.388446	0.013519	1.282799
H95	H	1.619796	-0.225191	1.109984
H96	H	2.119796	0.274809	1.609984
H97	H	1.364575	-0.498160	0.938878
H98	H	1.864575	0.001840	1.438878
F99	F	0.886597	-0.600972	0.660305
F100	F	1.386597	-0.100972	1.160305
H101	H	1.580299	-0.886244	0.444283
H102	H	2.080299	-0.386244	0.944283
H103	H	1.405137	-0.916046	0.619223
H104	H	1.905137	-0.416046	1.119223
F105	F	1.749884	-0.309131	1.120218
F106	F	2.249884	0.190869	1.620218
H107	H	1.364632	-0.498106	1.137937
H108	H	1.864632	0.001894	1.637937
H109	H	1.627321	-0.222003	0.936253
H110	H	2.127321	0.277997	1.436253
H111	H	0.899795	-0.304734	0.403914
H112	H	1.399795	0.195266	0.903914
H113	H	1.720736	-0.309714	0.937567
H114	H	2.220736	0.190286	1.437567
F115	F	1.081093	-0.494090	0.788574
F116	F	1.581093	0.005910	1.288574
F117	F	1.080007	-0.596742	0.650521
F118	F	1.580007	-0.096742	1.150521
