data_functionalizedCrystal
_audit_creation_method	'MofGen! by Chris Wilmer'
_symmetry_space_group_name_H-M	'P1'
_symmetry_Int_Tables_number	1
_symmetry_cell_setting	triclinic
loop_
_symmetry_equiv_pos_as_xyz
  x,y,z
_cell_length_a	15.944551
_cell_length_b	15.021413
_cell_length_c	9.065218
_cell_angle_alpha	90.015348
_cell_angle_beta	95.742655
_cell_angle_gamma	89.998667
loop_
_atom_site_label
_atom_site_type_symbol
_atom_site_fract_x
_atom_site_fract_y
_atom_site_fract_z
O1	O	1.115967	-0.073954	-0.190278
O2	O	0.871595	-0.073978	-0.213737
O3	O	0.998832	-0.073943	0.012753
O4	O	0.988730	-0.073989	-0.416768
O5	O	0.998818	0.074121	0.012773
O6	O	0.871581	0.074086	-0.213717
O7	O	1.115953	0.074110	-0.190258
Zn8	Zn	0.993765	0.097607	-0.201984
Zn9	Zn	0.993783	-0.097474	-0.202011
O10	O	0.988716	0.074075	-0.416748
C11	C	0.840287	0.000051	-0.212753
C12	C	0.747019	0.000043	-0.209833
N13	N	0.993796	-0.230612	-0.202018
C14	C	0.997854	0.000093	0.067727
C15	C	0.994951	0.000105	0.231502
C16	C	0.531045	0.000076	-0.062466
C17	C	0.470551	-0.072934	-0.130908
C18	C	0.576253	0.000054	-0.204551
C19	C	0.470560	0.073045	-0.130922
C20	C	0.411301	0.000069	-0.199439
C21	C	0.516986	-0.073017	-0.273033
C22	C	0.517002	0.073028	-0.273027
C23	C	0.456525	-0.000000	-0.341573
C24	C	0.671277	0.000045	-0.207493
C25	C	0.316278	0.000072	-0.196509
C26	C	1.147261	0.000079	-0.191242
C27	C	1.240530	0.000081	-0.194162
C28	C	1.052747	-0.529587	-0.097438
C29	C	0.976686	-0.470223	-0.068529
C30	C	0.993770	-0.587649	-0.201983
C31	C	1.069841	-0.470271	-0.230839
C32	C	0.993787	-0.412225	-0.201996
C33	C	0.917669	-0.529592	-0.173008
C34	C	1.010875	-0.529644	-0.335376
C35	C	0.934759	-0.470308	-0.306524
C36	C	0.993761	-0.688706	-0.201971
C37	C	0.993787	-0.311170	-0.202009
N38	N	0.993759	0.230744	-0.201965
C39	C	0.989694	0.000062	0.528278
C40	C	0.992597	0.000117	0.364503
H41	H	0.563485	-0.000001	0.055454
H42	H	1.025365	-0.555764	-0.448142
Cl43	Cl	1.129650	-0.569778	0.039153
Cl44	Cl	0.857686	-0.430371	-0.443042
H45	H	0.537582	0.134744	-0.333065
H46	H	0.449991	-0.134647	-0.070820
Cl47	Cl	1.169152	-0.430033	-0.268513
H48	H	0.537435	-0.134809	-0.333093
Cl49	Cl	0.818332	-0.569649	-0.135128
H50	H	0.450012	0.134768	-0.070791
Cl51	Cl	0.406706	-0.000080	-0.523815
Cl52	Cl	0.954343	-0.429934	0.105627
