data_functionalizedCrystal
_audit_creation_method	'MofGen! by Chris Wilmer'
_symmetry_space_group_name_H-M	'P1'
_symmetry_Int_Tables_number	1
_symmetry_cell_setting	triclinic
loop_
_symmetry_equiv_pos_as_xyz
  x,y,z
_cell_length_a	19.288864
_cell_length_b	19.288865
_cell_length_c	17.766277
_cell_angle_alpha	90.012963
_cell_angle_beta	90.012907
_cell_angle_gamma	83.136245
loop_
_atom_site_label
_atom_site_type_symbol
_atom_site_fract_x
_atom_site_fract_y
_atom_site_fract_z
O1	O	-0.921342	-0.086651	-0.062844
O2	O	-0.588009	0.246682	0.270489
O3	O	-0.254676	0.580015	0.603823
O4	O	-0.719082	-0.098340	-0.062794
O5	O	-0.385748	0.234993	0.270539
O6	O	-0.052415	0.568327	0.603873
O7	O	-0.826056	0.008635	-0.062806
O8	O	-0.492723	0.341968	0.270528
O9	O	-0.159390	0.675301	0.603861
O10	O	-0.814368	-0.193626	-0.062832
O11	O	-0.481034	0.139707	0.270501
O12	O	-0.147701	0.473041	0.603834
O13	O	-0.826059	0.008645	0.062383
O14	O	-0.492726	0.341979	0.395716
O15	O	-0.159392	0.675312	0.729050
O16	O	-0.719084	-0.098329	0.062395
O17	O	-0.385751	0.235004	0.395728
O18	O	-0.052418	0.568337	0.729061
O19	O	-0.921345	-0.086641	0.062344
O20	O	-0.588012	0.246693	0.395678
O21	O	-0.254678	0.580026	0.729011
Cu22	Cu	-0.820215	-0.092484	0.073800
Cu23	Cu	-0.486882	0.240849	0.407134
Cu24	Cu	-0.153548	0.574183	0.740467
Cu25	Cu	-0.820212	-0.092497	-0.074250
Cu26	Cu	-0.486878	0.240837	0.259084
Cu27	Cu	-0.153545	0.574170	0.592417
O28	O	-0.814370	-0.193615	0.062356
O29	O	-0.481037	0.139718	0.395689
O30	O	-0.147704	0.473051	0.729023
C31	C	-0.693207	-0.097959	-0.000193
C32	C	-0.359873	0.235375	0.333140
C33	C	-0.026540	0.568708	0.666474
C34	C	-0.616103	-0.096830	-0.000173
C35	C	-0.282770	0.236504	0.333160
C36	C	0.050564	0.569837	0.666494
C37	C	-0.825682	0.034516	-0.000209
C38	C	-0.492348	0.367850	0.333124
C39	C	-0.159015	0.701183	0.666458
C40	C	-0.824553	0.111620	-0.000202
C41	C	-0.491219	0.444953	0.333131
C42	C	-0.157886	0.778287	0.666465
C43	C	-0.947220	-0.087022	-0.000258
C44	C	-0.613887	0.246311	0.333075
C45	C	-0.280553	0.579645	0.666408
C46	C	-1.024324	-0.088151	-0.000283
C47	C	-0.690990	0.245182	0.333050
C48	C	-0.357657	0.578516	0.666384
C49	C	-0.571407	-0.159598	-0.000193
C50	C	-0.238073	0.173736	0.333140
C51	C	0.095260	0.507069	0.666473
C52	C	-0.498960	-0.158537	-0.000201
C53	C	-0.165626	0.174796	0.333132
C54	C	0.167707	0.508130	0.666465
C55	C	-0.471212	-0.094705	-0.000205
C56	C	-0.137879	0.238629	0.333129
C57	C	0.195455	0.571962	0.666462
C58	C	-0.515918	-0.031929	-0.000180
C59	C	-0.182585	0.301405	0.333153
C60	C	0.150748	0.634738	0.666487
C61	C	-0.588364	-0.032991	-0.000164
C62	C	-0.255030	0.300342	0.333169
C63	C	0.078303	0.633676	0.666502
C64	C	-0.362949	-0.044529	-0.044082
C65	C	-0.029616	0.288804	0.289251
C66	C	0.303718	0.622137	0.622584
C67	C	-0.290505	-0.043469	-0.044103
C68	C	0.042829	0.289864	0.289231
C69	C	0.376162	0.623197	0.622564
C70	C	-0.247767	-0.091425	-0.000250
C71	C	0.085567	0.241908	0.333084
C72	C	0.418900	0.575242	0.666417
C73	C	-0.277480	-0.140452	0.043614
C74	C	0.055853	0.192881	0.376947
C75	C	0.389187	0.526214	0.710281
C76	C	-0.349926	-0.141515	0.043630
C77	C	-0.016592	0.191818	0.376963
C78	C	0.316741	0.525152	0.710296
C79	C	-0.392658	-0.093546	-0.000221
C80	C	-0.059325	0.239788	0.333112
C81	C	0.274009	0.573121	0.666446
C82	C	-0.124514	-0.153047	-0.000278
C83	C	0.208819	0.180286	0.333056
C84	C	0.542152	0.513619	0.666389
C85	C	-0.052066	-0.151984	-0.000281
C86	C	0.281267	0.181349	0.333052
C87	C	0.614600	0.514683	0.666386
C88	C	-0.069026	-0.025374	-0.000267
C89	C	0.264307	0.307960	0.333066
C90	C	0.597640	0.641293	0.666399
C91	C	-0.141473	-0.026439	-0.000256
C92	C	0.191861	0.306894	0.333077
C93	C	0.525194	0.640228	0.666410
C94	C	-0.169212	-0.090278	-0.000265
C95	C	0.164121	0.243056	0.333068
C96	C	0.497455	0.576389	0.666402
C97	C	-0.814745	-0.219497	-0.000242
C98	C	-0.481412	0.113836	0.333091
C99	C	-0.148078	0.447169	0.666424
C100	C	-0.815874	-0.296601	-0.000254
C101	C	-0.482541	0.036733	0.333079
C102	C	-0.149207	0.370066	0.666413
C103	C	-0.887321	0.156316	-0.000214
C104	C	-0.553987	0.489650	0.333119
C105	C	-0.220654	0.822983	0.666453
C106	C	-0.886260	0.228763	-0.000226
C107	C	-0.552926	0.562097	0.333108
C108	C	-0.219593	0.895430	0.666441
C109	C	-0.822428	0.256511	-0.000210
C110	C	-0.489094	0.589844	0.333123
C111	C	-0.155761	0.923178	0.666456
C112	C	-0.759652	0.211805	-0.000203
C113	C	-0.426318	0.545138	0.333131
C114	C	-0.092985	0.878471	0.666464
C115	C	-0.760714	0.139359	-0.000198
C116	C	-0.427381	0.472693	0.333135
C117	C	-0.094047	0.806026	0.666468
C118	C	-0.772249	0.364802	0.043653
C119	C	-0.438916	0.698135	0.376986
C120	C	-0.105582	1.031469	0.710320
C121	C	-0.771189	0.437246	0.043654
C122	C	-0.437856	0.770580	0.376987
C123	C	-0.104523	1.103913	0.710320
C124	C	-0.819148	0.479956	-0.000226
C125	C	-0.485815	0.813290	0.333107
C126	C	-0.152481	1.146623	0.666440
C127	C	-0.868179	0.450215	-0.044097
C128	C	-0.534845	0.783548	0.289236
C129	C	-0.201512	1.116881	0.622570
C130	C	-0.869241	0.377769	-0.044093
C131	C	-0.535908	0.711102	0.289240
C132	C	-0.202574	1.044436	0.622574
C133	C	-0.821269	0.335065	-0.000215
C134	C	-0.487935	0.668398	0.333118
C135	C	-0.154602	1.001732	0.666452
C136	C	-0.880770	0.603209	-0.000252
C137	C	-0.547437	0.936542	0.333081
C138	C	-0.214103	1.269875	0.666415
C139	C	-0.879707	0.675657	-0.000268
C140	C	-0.546373	1.008990	0.333065
C141	C	-0.213040	1.342323	0.666398
C142	C	-0.753097	0.658697	-0.000238
C143	C	-0.419763	0.992030	0.333096
C144	C	-0.086430	1.325363	0.666429
C145	C	-0.754162	0.586250	-0.000229
C146	C	-0.420829	0.919583	0.333105
C147	C	-0.087495	1.252917	0.666438
C148	C	-0.818000	0.558511	-0.000232
C149	C	-0.484667	0.891844	0.333101
C150	C	-0.151334	1.225177	0.666434
N151	N	-0.820210	-0.092501	-0.178380
N152	N	-0.486877	0.240833	0.154953
N153	N	-0.153543	0.574166	0.488287
C154	C	-0.867663	-0.045224	-0.217772
C155	C	-0.534329	0.288109	0.115561
C156	C	-0.200996	0.621442	0.448894
C157	C	-0.867669	-0.045223	-0.296574
C158	C	-0.534335	0.288110	0.036759
C159	C	-0.201002	0.621443	0.370093
C160	C	-0.820210	-0.092492	-0.335981
C161	C	-0.486877	0.240842	-0.002647
C162	C	-0.153543	0.574175	0.330686
C163	C	-0.772754	-0.139777	-0.296579
C164	C	-0.439421	0.193557	0.036754
C165	C	-0.106087	0.526890	0.370088
C166	C	-0.772754	-0.139781	-0.217779
C167	C	-0.439421	0.193552	0.115555
C168	C	-0.106087	0.526886	0.448888
C169	C	-0.756923	-0.101637	-0.460811
C170	C	-0.423589	0.231697	-0.127477
C171	C	-0.090256	0.565030	0.205856
C172	C	-0.756922	-0.101627	-0.539610
C173	C	-0.423589	0.231706	-0.206276
C174	C	-0.090255	0.565039	0.127057
C175	C	-0.820210	-0.092482	-0.579027
C176	C	-0.486877	0.240852	-0.245694
C177	C	-0.153544	0.574185	0.087640
C178	C	-0.883503	-0.083330	-0.539636
C179	C	-0.550169	0.250003	-0.206302
C180	C	-0.216836	0.583336	0.127031
C181	C	-0.883503	-0.083335	-0.460836
C182	C	-0.550169	0.249998	-0.127502
C183	C	-0.216836	0.583332	0.205831
C184	C	-0.820205	-0.092492	-0.421426
C185	C	-0.486872	0.240841	-0.088093
C186	C	-0.153539	0.574174	0.245240
C187	C	-0.867673	-0.045202	-0.703865
C188	C	-0.534340	0.288132	-0.370532
C189	C	-0.201007	0.621465	-0.037198
C190	C	-0.867680	-0.045205	-0.782668
C191	C	-0.534347	0.288128	-0.449335
C192	C	-0.201014	0.621462	-0.116002
C193	C	-0.772760	-0.139755	-0.782672
C194	C	-0.439426	0.193578	-0.449338
C195	C	-0.106093	0.526911	-0.116005
C196	C	-0.772759	-0.139755	-0.703870
C197	C	-0.439425	0.193578	-0.370537
C198	C	-0.106092	0.526912	-0.037203
C199	C	-0.820215	-0.092474	-0.664471
C200	C	-0.486882	0.240859	-0.331138
C201	C	-0.153548	0.574192	0.002195
N202	N	-0.820222	-0.092475	0.177931
N203	N	-0.486889	0.240859	0.511264
N204	N	-0.153555	0.574192	0.844597
H205	H	-0.593987	-0.211580	-0.000202
H206	H	-0.260654	0.121753	0.333132
H207	H	0.072680	0.455087	0.666465
Cl208	Cl	-0.930872	0.340381	-0.099247
Cl209	Cl	-0.597538	0.673714	0.234086
Cl210	Cl	-0.264205	1.007047	0.567420
Cl211	Cl	-0.711953	0.311117	0.098824
Cl212	Cl	-0.378620	0.644450	0.432157
Cl213	Cl	-0.045287	0.977783	0.765491
H214	H	-0.734112	-0.178280	-0.185705
H215	H	-0.400778	0.155053	0.147628
H216	H	-0.067445	0.488387	0.480962
H217	H	-0.734114	-0.178264	-0.328668
H218	H	-0.400780	0.155069	0.004666
H219	H	-0.067447	0.488402	0.337999
Cl220	Cl	-0.927336	0.014233	-0.654334
Cl221	Cl	-0.594002	0.347566	-0.321001
Cl222	Cl	-0.260669	0.680899	0.012333
H223	H	-0.734116	-0.178249	-0.671795
H224	H	-0.400782	0.155084	-0.338461
H225	H	-0.067449	0.488418	-0.005128
Cl226	Cl	-0.442760	-0.237451	-0.000225
Cl227	Cl	-0.109426	0.095882	0.333108
Cl228	Cl	0.223907	0.429216	0.666442
H229	H	-0.701123	0.681288	-0.000229
H230	H	-0.367790	1.014621	0.333105
H231	H	-0.034457	1.347954	0.666438
Cl232	Cl	-0.927328	0.014216	-0.346104
Cl233	Cl	-0.593995	0.347549	-0.012771
Cl234	Cl	-0.260661	0.680882	0.320563
H235	H	-0.703049	0.549857	-0.000215
H236	H	-0.369716	0.883190	0.333119
H237	H	-0.036383	1.216524	0.666452
Cl238	Cl	-0.677357	-0.113193	-0.589122
Cl239	Cl	-0.344024	0.220141	-0.255788
Cl240	Cl	-0.010691	0.553474	0.077545
H241	H	-0.935037	-0.075886	-0.428766
H242	H	-0.601704	0.257448	-0.095433
H243	H	-0.268371	0.590781	0.237900
Cl244	Cl	-0.253157	0.018157	-0.099252
Cl245	Cl	0.080176	0.351491	0.234081
Cl246	Cl	0.413510	0.684824	0.567414
H247	H	-0.397742	-0.005477	-0.079797
H248	H	-0.064408	0.327857	0.253536
H249	H	0.268925	0.661190	0.586870
H250	H	-0.930822	0.712049	-0.000282
H251	H	-0.597489	1.045382	0.333051
H252	H	-0.264156	1.378715	0.666385
H253	H	-0.935039	-0.075888	-0.571728
H254	H	-0.601705	0.257445	-0.238394
H255	H	-0.268372	0.590778	0.094939
Cl256	Cl	-0.709554	0.474629	0.098808
Cl257	Cl	-0.376221	0.807963	0.432141
Cl258	Cl	-0.042888	1.141296	0.765474
H259	H	-0.493322	0.020044	-0.000193
H260	H	-0.159988	0.353377	0.333140
H261	H	0.173345	0.686711	0.666474
Cl262	Cl	-0.387278	-0.203143	0.098773
Cl263	Cl	-0.053945	0.130190	0.432107
Cl264	Cl	0.279388	0.463524	0.765440
H265	H	-0.242684	-0.179502	0.079324
H266	H	0.090650	0.153831	0.412657
H267	H	0.423983	0.487165	0.745991
H268	H	-0.906326	-0.006709	-0.814742
H269	H	-0.572992	0.326624	-0.481409
H270	H	-0.239659	0.659957	-0.148075
Cl271	Cl	0.004125	-0.230900	-0.000303
Cl272	Cl	0.337459	0.102433	0.333031
Cl273	Cl	0.670792	0.435767	0.666364
Cl274	Cl	-0.713103	-0.199184	-0.832206
Cl275	Cl	-0.379769	0.134150	-0.498873
Cl276	Cl	-0.046436	0.467483	-0.165539
H277	H	-0.707679	0.234401	-0.000192
H278	H	-0.374346	0.567735	0.333142
H279	H	-0.041012	0.901068	0.666475
Cl280	Cl	-0.677352	-0.113138	-0.411266
Cl281	Cl	-0.344019	0.220195	-0.077932
Cl282	Cl	-0.010685	0.553528	0.255401
H283	H	-0.147101	-0.205028	-0.000274
H284	H	0.186233	0.128305	0.333060
H285	H	0.519566	0.461638	0.666393
Cl286	Cl	-0.644557	0.045924	-0.000140
Cl287	Cl	-0.311223	0.379257	0.333194
Cl288	Cl	0.022110	0.712591	0.666527
H289	H	-0.177866	0.024674	-0.000244
H290	H	0.155468	0.358007	0.333089
H291	H	0.488801	0.691340	0.666423
Cl292	Cl	-0.034151	0.054873	-0.000262
Cl293	Cl	0.299183	0.388207	0.333071
Cl294	Cl	0.632516	0.721540	0.666404
Cl295	Cl	-0.928473	0.503899	-0.099266
Cl296	Cl	-0.595140	0.837232	0.234068
Cl297	Cl	-0.261807	1.170566	0.567401
H298	H	-0.709599	0.102967	-0.000188
H299	H	-0.376266	0.436300	0.333145
H300	H	-0.042932	0.769633	0.666478
Cl301	Cl	-0.967575	0.121448	-0.000240
Cl302	Cl	-0.634241	0.454781	0.333094
Cl303	Cl	-0.300908	0.788114	0.666427
H304	H	-0.932751	0.580622	-0.000258
H305	H	-0.599418	0.913956	0.333075
H306	H	-0.266085	1.247289	0.666408
Cl307	Cl	-0.965174	0.284963	-0.000241
Cl308	Cl	-0.631841	0.618297	0.333092
Cl309	Cl	-0.298507	0.951630	0.666425
H310	H	-0.906306	-0.006727	-0.185696
H311	H	-0.572972	0.326606	0.147637
H312	H	-0.239639	0.659939	0.480971
