data_functionalizedCrystal
_audit_creation_method	'MofGen! by Chris Wilmer'
_symmetry_space_group_name_H-M	'P1'
_symmetry_Int_Tables_number	1
_symmetry_cell_setting	triclinic
loop_
_symmetry_equiv_pos_as_xyz
  x,y,z
_cell_length_a	19.188925
_cell_length_b	19.188930
_cell_length_c	9.198806
_cell_angle_alpha	89.991701
_cell_angle_beta	89.995113
_cell_angle_gamma	83.143665
loop_
_atom_site_label
_atom_site_type_symbol
_atom_site_fract_x
_atom_site_fract_y
_atom_site_fract_z
O1	O	0.926147	0.087148	-0.120940
O2	O	1.426147	0.587148	0.379060
O3	O	0.722835	0.098886	-0.120938
O4	O	1.222835	0.598886	0.379062
O5	O	0.830358	-0.008639	-0.120911
O6	O	1.330358	0.491361	0.379089
O7	O	0.818624	0.194673	-0.120967
O8	O	1.318624	0.694673	0.379033
O9	O	0.830350	-0.008639	0.120874
O10	O	1.330350	0.491361	0.620874
O11	O	0.722827	0.098886	0.120847
O12	O	1.222827	0.598886	0.620847
O13	O	0.926138	0.087148	0.120845
O14	O	1.426138	0.587148	0.620845
Cu15	Cu	0.824482	0.093017	0.142923
Cu16	Cu	1.324482	0.593017	0.642923
Cu17	Cu	0.824492	0.093017	-0.143016
Cu18	Cu	1.324492	0.593017	0.356984
O19	O	0.818615	0.194673	0.120818
O20	O	1.318615	0.694673	0.620818
C21	C	0.696820	0.098507	-0.000045
C22	C	1.196820	0.598507	0.499955
C23	C	0.619315	0.097367	-0.000043
C24	C	1.119315	0.597367	0.499957
C25	C	0.057545	0.152831	-0.000062
C26	C	0.557545	0.652831	0.499938
C27	C	0.130368	0.153908	-0.000070
C28	C	0.630368	0.653908	0.499930
C29	C	0.175302	0.090816	-0.000050
C30	C	0.675302	0.590816	0.499950
C31	C	0.147408	0.026642	-0.000059
C32	C	0.647408	0.526642	0.499941
C33	C	0.074586	0.025568	-0.000065
C34	C	0.574586	0.525568	0.499935
N35	N	0.295977	0.045139	0.082268
N36	N	0.795977	0.545139	0.582268
N37	N	0.365154	0.046165	0.082277
N38	N	0.865154	0.546165	0.582277
C39	C	0.394712	0.094050	-0.000034
C40	C	0.894712	0.594050	0.499966
N41	N	0.352477	0.140882	-0.082336
N42	N	0.852477	0.640882	0.417664
N43	N	0.283293	0.139858	-0.082339
N44	N	0.783293	0.639858	0.417661
C45	C	0.254267	0.091974	-0.000044
C46	C	0.754267	0.591974	0.499956
C47	C	0.501561	0.159386	-0.000044
C48	C	1.001561	0.659386	0.499956
C49	C	0.574385	0.160460	-0.000061
C50	C	1.074385	0.660460	0.499939
C51	C	0.591425	0.033193	-0.000035
C52	C	1.091425	0.533193	0.499965
C53	C	0.518601	0.032121	-0.000033
C54	C	1.018601	0.532121	0.499967
C55	C	0.473673	0.095220	-0.000030
C56	C	0.973673	0.595220	0.499970
C57	C	0.829974	-0.034650	-0.000014
C58	C	1.329974	0.465350	0.499986
C59	C	0.828833	-0.112154	-0.000002
C60	C	1.328833	0.387846	0.499998
C61	C	0.891924	-0.157079	0.000005
C62	C	1.391924	0.342921	0.500005
C63	C	0.890852	-0.229903	-0.000018
C64	C	1.390852	0.270097	0.499982
C65	C	0.826686	-0.257799	-0.000019
C66	C	1.326686	0.242201	0.499981
C67	C	0.763587	-0.212864	-0.000033
C68	C	1.263587	0.287136	0.499967
C69	C	0.764660	-0.140041	-0.000025
C70	C	1.264660	0.359959	0.499975
N71	N	0.777636	-0.365803	0.082266
N72	N	1.277636	0.134197	0.582266
N73	N	0.776620	-0.434981	0.082260
N74	N	1.276620	0.065019	0.582260
C75	C	0.823448	-0.477207	-0.000048
C76	C	1.323448	0.022793	0.499952
N77	N	0.871340	-0.447643	-0.082333
N78	N	1.371340	0.052357	0.417667
N79	N	0.872358	-0.378458	-0.082322
N80	N	1.372358	0.121542	0.417678
C81	C	0.825515	-0.336761	-0.000029
C82	C	1.325515	0.163239	0.499971
C83	C	0.885381	-0.601097	-0.000069
C84	C	1.385381	-0.101097	0.499931
C85	C	0.884307	-0.673922	-0.000101
C86	C	1.384307	-0.173922	0.499899
C87	C	0.757040	-0.656880	-0.000102
C88	C	1.257040	-0.156880	0.499898
C89	C	0.758116	-0.584057	-0.000084
C90	C	1.258116	-0.084057	0.499916
C91	C	0.822289	-0.556170	-0.000061
C92	C	1.322289	-0.056170	0.499939
C93	C	0.952154	0.087527	-0.000051
C94	C	1.452154	0.587527	0.499949
C95	C	1.029658	0.088666	-0.000063
C96	C	1.529658	0.588666	0.499937
C97	C	0.819000	0.220684	-0.000082
C98	C	1.319000	0.720684	0.499918
C99	C	0.820140	0.298188	-0.000104
C100	C	1.320140	0.798188	0.499896
N101	N	0.824480	0.093016	0.344037
N102	N	1.324480	0.593016	0.844037
N103	N	0.824499	0.093012	-0.344130
N104	N	1.324499	0.593012	0.155870
C105	C	0.869628	0.047673	0.416245
C106	C	1.369628	0.547673	0.916245
C107	C	0.869639	0.047670	0.583658
C108	C	1.369639	0.547670	1.083658
H109	H	0.183999	-0.024728	-0.000047
H110	H	0.683999	0.475272	0.499953
C111	C	0.695257	-0.090622	-0.000018
C112	C	1.195257	0.409378	0.499982
H113	H	0.656887	-0.117662	-0.000015
H114	H	1.156887	0.382338	0.499985
H115	H	0.693034	-0.061848	-0.084325
H116	H	1.193034	0.438152	0.415675
H117	H	0.693030	-0.061872	0.084318
H118	H	1.193030	0.438128	0.584318
H119	H	0.785832	0.131832	0.406155
H120	H	1.285832	0.631832	0.906155
H121	H	0.908271	0.008851	0.354129
H122	H	1.408271	0.508851	0.854129
C123	C	0.605060	0.231045	-0.000057
C124	C	1.105060	0.731045	0.499943
H125	H	0.567871	0.268467	-0.000041
H126	H	1.067871	0.768467	0.499959
H127	H	0.633117	0.234118	-0.084370
H128	H	1.133117	0.734118	0.415630
H129	H	0.633110	0.234101	0.084272
H130	H	1.133110	0.734101	0.584272
H131	H	0.704794	-0.679592	-0.000110
H132	H	1.204794	-0.179592	0.499890
H133	H	0.937635	-0.578390	-0.000057
H134	H	1.437635	-0.078390	0.499943
H135	H	0.051883	-0.026685	-0.000066
H136	H	0.551883	0.473315	0.499934
H137	H	0.628010	-0.018178	-0.000030
H138	H	1.128010	0.481822	0.499970
C139	C	0.688717	-0.534634	-0.000082
C140	C	1.188717	-0.034634	0.499918
H141	H	0.698546	-0.487269	-0.000089
H142	H	1.198546	0.012731	0.499911
H143	H	0.662389	-0.543074	0.084228
H144	H	1.162389	-0.043074	0.584228
H145	H	0.662403	-0.543062	-0.084414
H146	H	1.162403	-0.043062	0.415586
C147	C	0.772278	0.145462	0.572009
C148	C	1.272278	0.645462	1.072009
H149	H	0.743963	0.173911	0.639032
H150	H	1.243963	0.673911	1.139032
H151	H	0.743238	0.120483	0.512647
H152	H	1.243238	0.620483	1.012647
H153	H	0.797422	0.174360	0.512619
H154	H	1.297422	0.674360	1.012619
H155	H	0.908294	0.008852	0.645754
H156	H	1.408294	0.508852	1.145754
C157	C	0.953711	-0.723340	-0.000092
C158	C	1.453711	-0.223340	0.499908
H159	H	0.992080	-0.696299	-0.000062
H160	H	1.492080	-0.196299	0.499938
H161	H	0.955947	-0.752094	-0.084411
H162	H	1.455947	-0.252094	0.415589
H163	H	0.955928	-0.752109	0.084231
H164	H	1.455928	-0.252109	0.584231
H165	H	0.020968	0.204211	-0.000067
H166	H	0.520968	0.704211	0.499933
H167	H	0.464978	0.210765	-0.000044
H168	H	0.964978	0.710765	0.499956
C169	C	0.161051	0.224492	-0.000063
C170	C	0.661051	0.724492	0.499937
H171	H	0.123864	0.261916	-0.000055
H172	H	0.623864	0.761916	0.499945
H173	H	0.189112	0.227561	-0.084373
H174	H	0.689112	0.727561	0.415627
H175	H	0.189098	0.227547	0.084269
H176	H	0.689098	0.727547	0.584269
C177	C	0.960255	-0.279330	-0.000001
C178	C	1.460255	0.220670	0.499999
H179	H	0.998627	-0.252291	0.000023
H180	H	1.498627	0.247709	0.500023
H181	H	0.962489	-0.308088	-0.084315
H182	H	1.462489	0.191912	0.415685
H183	H	0.962470	-0.308095	0.084327
H184	H	1.462470	0.191905	0.584327
H185	H	0.944179	-0.134379	0.000019
H186	H	1.444179	0.365621	0.500019
C187	C	0.487921	-0.038460	-0.000025
C188	C	0.987921	0.461540	0.499975
H189	H	0.438115	-0.030064	-0.000045
H190	H	0.938115	0.469936	0.499955
H191	H	0.503350	-0.064434	0.084292
H192	H	1.003350	0.435566	0.584292
H193	H	0.503361	-0.064422	-0.084350
H194	H	1.003361	0.435578	0.415650
C195	C	0.693006	-0.243545	-0.000029
C196	C	1.193006	0.256455	0.499971
H197	H	0.701402	-0.293351	-0.000018
H198	H	1.201402	0.206649	0.499982
H199	H	0.667039	-0.228105	-0.084344
H200	H	1.167039	0.271895	0.415656
H201	H	0.667035	-0.228117	0.084299
H202	H	1.167035	0.271883	0.584299
