data_functionalizedCrystal
_audit_creation_method	'MofGen! by Chris Wilmer'
_symmetry_space_group_name_H-M	'P1'
_symmetry_Int_Tables_number	1
_symmetry_cell_setting	triclinic
loop_
_symmetry_equiv_pos_as_xyz
  x,y,z
_cell_length_a	12.594517
_cell_length_b	12.594516
_cell_length_c	12.594509
_cell_angle_alpha	90.027875
_cell_angle_beta	90.011478
_cell_angle_gamma	90.007702
loop_
_atom_site_label
_atom_site_type_symbol
_atom_site_fract_x
_atom_site_fract_y
_atom_site_fract_z
Zn1	Zn	1.627298	-0.423827	0.601583
Zn2	Zn	1.627202	-0.601837	0.423606
Zn3	Zn	1.449302	-0.423860	0.423642
Zn4	Zn	1.449297	-0.601751	0.601566
O5	O	1.538275	-0.512819	0.512599
O6	O	1.776231	-0.447463	0.577965
O7	O	1.603565	-0.578278	0.274665
O8	O	1.472956	-0.274910	0.447269
O9	O	1.776161	-0.578246	0.447206
O10	O	1.603729	-0.274886	0.578001
O11	O	1.472863	-0.447519	0.274692
O12	O	1.300356	-0.447436	0.447253
O13	O	1.472948	-0.578099	0.750514
O14	O	1.300352	-0.578131	0.577973
O15	O	1.603724	-0.447379	0.750527
O16	O	1.603561	-0.750772	0.447190
O17	O	1.472855	-0.750708	0.577937
C18	C	1.261734	-0.512779	0.512615
C19	C	1.143429	-0.512787	0.512648
C20	C	1.074204	-0.584011	0.583609
C21	C	1.003389	-0.486966	0.609786
C22	C	1.003445	-0.609913	0.486446
C23	C	1.074171	-0.415689	0.538876
C24	C	1.074234	-0.538702	0.415491
C25	C	1.003450	-0.441589	0.441632
C26	C	1.538226	-0.789360	0.512581
C27	C	1.538302	-0.907665	0.512608
C28	C	1.609475	-0.976914	0.441571
C29	C	1.635486	-1.047613	0.538716
C30	C	1.512424	-1.047766	0.415525
C31	C	1.564362	-0.976805	0.609804
C32	C	1.441256	-0.976952	0.486548
C33	C	1.467229	-1.047619	0.583760
C34	C	1.815896	-0.512860	0.512584
C35	C	1.934201	-0.512878	0.512577
C36	C	1.538346	-0.512726	0.790220
C37	C	1.538377	-0.512686	0.908526
C38	C	1.538354	-0.235198	0.512641
C39	C	1.538387	-0.116893	0.512659
C40	C	1.538265	-0.512835	0.236058
C41	C	1.538441	-0.512575	0.117753
C42	C	1.467270	-0.583744	0.977772
C43	C	1.564392	-0.609757	1.048546
C44	C	1.441330	-0.486608	1.048551
C45	C	1.635550	-0.538750	0.977741
C46	C	1.512422	-0.415556	0.977740
C47	C	1.609612	-0.441532	1.048482
H48	H	1.105376	-0.560619	0.333382
C49	C	1.482685	-0.304687	0.935680
C50	C	1.478168	-0.284227	0.815228
C51	C	1.448417	-0.173357	0.773166
C52	C	1.423184	-0.082948	0.851556
C53	C	1.427700	-0.103406	0.972015
C54	C	1.457451	-0.214276	1.014077
H55	H	1.496848	-0.351155	0.757192
H56	H	1.445074	-0.158213	0.683993
H57	H	1.401161	-0.000876	0.820419
H58	H	1.409021	-0.036478	1.030051
H59	H	1.460794	-0.229420	1.103250
C60	C	1.330423	-0.456865	1.090568
C61	C	1.310382	-0.450416	1.211010
C62	C	1.199473	-0.420684	1.253022
C63	C	1.108606	-0.397401	1.174591
C64	C	1.128644	-0.403850	1.054141
C65	C	1.239553	-0.433582	1.012129
H66	H	1.377650	-0.467652	1.269076
H67	H	1.184640	-0.415910	1.342188
H68	H	1.026504	-0.375391	1.205691
H69	H	1.061376	-0.386614	0.996075
H70	H	1.254386	-0.438356	0.922963
H71	H	1.669841	-0.381393	1.079334
H72	H	1.105274	-0.644128	0.643695
C73	C	0.961475	-0.720823	0.456538
C74	C	0.989421	-0.817485	0.525956
C75	C	0.947455	-0.928396	0.496058
C76	C	0.877544	-0.942644	0.396741
C77	C	0.849595	-0.845979	0.327317
C78	C	0.891560	-0.735068	0.357215
H79	H	1.041177	-0.806940	0.599482
H80	H	0.968145	-0.999954	0.547451
H81	H	0.846478	-1.024747	0.374609
H82	H	0.797839	-0.856524	0.253791
H83	H	0.870870	-0.663510	0.305822
H84	H	0.972270	-0.465078	0.691919
C85	C	1.746404	-1.089550	0.568535
C86	C	1.807687	-1.161095	0.490574
C87	C	1.918608	-1.203025	0.520385
C88	C	1.968245	-1.173410	0.628156
C89	C	1.906961	-1.101860	0.706124
C90	C	1.796040	-1.059931	0.676313
H91	H	1.770943	-1.183022	0.410789
H92	H	1.963974	-1.255991	0.462667
H93	H	2.050355	-1.204449	0.650224
H94	H	1.943705	-1.079934	0.785909
H95	H	1.750674	-1.006965	0.734031
H96	H	1.407077	-1.078469	0.643925
C97	C	1.594096	-0.720655	1.090572
C98	C	1.701813	-0.770401	1.061058
C99	C	1.731507	-0.881301	1.103078
C100	C	1.653484	-0.942456	1.174613
C101	C	1.545760	-0.892711	1.204131
C102	C	1.516066	-0.781811	1.162110
H103	H	1.759577	-0.725130	1.008100
H104	H	1.811252	-0.918125	1.081227
H105	H	1.675465	-1.024551	1.205719
H106	H	1.487996	-0.937982	1.257088
H107	H	1.436321	-0.744987	1.183961
H108	H	1.669674	-0.945868	0.381551
C109	C	0.961727	-0.360190	0.360521
C110	C	0.841336	-0.345735	0.344805
C111	C	0.799607	-0.264336	0.263699
C112	C	0.878269	-0.197391	0.198310
C113	C	0.998668	-0.211844	0.214024
C114	C	1.040397	-0.293244	0.295130
H115	H	0.783099	-0.395293	0.393211
H116	H	0.710479	-0.253637	0.252066
H117	H	0.847378	-0.137135	0.138270
H118	H	1.056905	-0.162286	0.165617
H119	H	1.129524	-0.303943	0.306762
C120	C	1.115950	-0.304742	0.568909
C121	C	1.087123	-0.207903	0.500099
C122	C	1.128902	-0.096958	0.530134
C123	C	1.199507	-0.082852	0.628979
C124	C	1.228337	-0.179694	0.697795
C125	C	1.186559	-0.290639	0.667760
H126	H	1.034854	-0.218342	0.426922
H127	H	1.107559	-0.025270	0.479191
H128	H	1.230434	-0.000725	0.651212
H129	H	1.280607	-0.169255	0.770971
H130	H	1.207901	-0.362328	0.718703
C131	C	1.330368	-0.934977	0.456697
C132	C	1.281598	-0.962961	0.348098
C133	C	1.170709	-0.920984	0.318233
C134	C	1.108591	-0.851024	0.396968
C135	C	1.157361	-0.823037	0.505574
C136	C	1.268250	-0.865014	0.535439
H137	H	1.327581	-1.014753	0.289807
H138	H	1.134607	-0.941702	0.237835
H139	H	1.026505	-0.819950	0.374861
H140	H	1.111378	-0.771245	0.563865
H141	H	1.304352	-0.844295	0.615837
C142	C	1.386099	-0.665043	0.935816
C143	C	1.398113	-0.783448	0.963788
C144	C	1.316949	-0.864748	0.921830
C145	C	1.223771	-0.827643	0.851900
C146	C	1.211754	-0.709232	0.823924
C147	C	1.292917	-0.627932	0.865882
H148	H	1.467092	-0.810920	1.015558
H149	H	1.325846	-0.952403	0.942540
H150	H	1.163689	-0.887826	0.820840
H151	H	1.142774	-0.681760	0.772154
H152	H	1.284020	-0.540277	0.845172
C153	C	1.746495	-0.568609	0.935910
C154	C	1.766951	-0.574225	0.815495
C155	C	1.877894	-0.604081	0.773662
C156	C	1.968380	-0.628321	0.852242
C157	C	1.947927	-0.622706	0.972664
C158	C	1.836985	-0.592850	1.014498
H159	H	1.699965	-0.556280	0.757319
H160	H	1.893034	-0.608238	0.684517
H161	H	2.050507	-0.650423	0.821274
H162	H	2.014913	-0.640651	1.030841
H163	H	1.821844	-0.588693	1.103642
H164	H	1.586203	-0.945769	0.691998
H165	H	1.490502	-1.078934	0.333402
