data_functionalizedCrystal
_audit_creation_method	'MofGen! by Chris Wilmer'
_symmetry_space_group_name_H-M	'P1'
_symmetry_Int_Tables_number	1
_symmetry_cell_setting	triclinic
loop_
_symmetry_equiv_pos_as_xyz
  x,y,z
_cell_length_a	10.540510
_cell_length_b	10.540539
_cell_length_c	12.503572
_cell_angle_alpha	93.560877
_cell_angle_beta	86.446316
_cell_angle_gamma	84.519401
loop_
_atom_site_label
_atom_site_type_symbol
_atom_site_fract_x
_atom_site_fract_y
_atom_site_fract_z
O1	O	1.693163	0.171442	-0.089322
O2	O	1.323745	0.188337	-0.089322
O3	O	1.516882	-0.004818	-0.089321
O4	O	1.500026	0.364597	-0.089323
O5	O	1.502357	0.009733	0.089321
O6	O	1.309221	0.202888	0.089320
O7	O	1.678638	0.185993	0.089320
Cu8	Cu	1.492603	0.195769	0.105631
Cu9	Cu	1.509781	0.178561	-0.105634
O10	O	1.485502	0.379148	0.089318
C11	C	1.269179	0.194354	-0.000001
C12	C	1.128230	0.190587	-0.000002
C13	C	0.910808	0.324737	-0.000413
C14	C	1.057370	0.328789	-0.000004
C15	C	1.075176	0.128150	0.102010
C16	C	0.928408	0.125117	0.102089
C17	C	0.945119	0.105692	-0.101061
C18	C	1.091570	0.112138	-0.102402
C19	C	1.508356	-0.044845	-0.000002
C20	C	1.504575	-0.185794	-0.000008
C21	C	1.359688	-0.369238	-0.000409
C22	C	1.363489	-0.222587	-0.000007
C23	C	1.564177	-0.239149	0.102006
C24	C	1.559355	-0.385686	0.102092
C25	C	1.578741	-0.402752	-0.101058
C26	C	1.580151	-0.255880	-0.102406
C27	C	1.733205	0.179976	-0.000003
C28	C	1.874155	0.183742	-0.000010
C29	C	1.494028	0.419175	-0.000003
C30	C	1.497810	0.560123	-0.000004
N31	N	1.480531	0.207871	0.254223
N32	N	1.521863	0.166449	-0.254226
C33	C	1.462772	0.225685	0.473338
C34	C	1.539618	0.148639	0.526666
C35	C	1.529736	0.158551	0.648589
C36	C	1.472652	0.215775	0.351404
H37	H	1.122257	0.026717	0.105804
H38	H	0.908858	0.142977	-0.178380
H39	H	0.861386	0.384194	0.072330
N40	N	1.522551	-0.209795	-0.202370
H41	H	1.527173	-0.114699	-0.204409
H42	H	1.571584	-0.255291	-0.267912
H43	H	1.126324	0.157465	-0.177870
H44	H	1.612829	0.075235	0.480754
N45	N	1.157220	-0.022182	-0.110571
H46	H	1.211897	-0.034139	-0.047724
H47	H	1.090821	-0.085205	-0.109699
N48	N	1.365800	0.322914	0.534142
H49	H	1.372402	0.316301	0.613882
H50	H	1.383003	0.411502	0.514554
H51	H	1.092662	0.378178	-0.073132
N52	N	0.915862	-0.031829	-0.101978
H53	H	0.856939	-0.043574	-0.037292
H54	H	0.873198	-0.054721	-0.169700
N55	N	1.300598	-0.174033	-0.096870
H56	H	1.347799	-0.216366	-0.164491
H57	H	1.208912	-0.194758	-0.094121
H58	H	0.874802	0.372620	-0.073571
H59	H	1.303735	-0.174859	0.073242
H60	H	1.683513	-0.232171	-0.108566
N61	N	1.087121	0.410450	0.097016
H62	H	1.004969	0.443945	0.139689
H63	H	1.143342	0.357420	0.143427
H64	H	0.881992	0.179676	0.178343
N65	N	1.713801	-0.465388	-0.101974
H66	H	1.722580	-0.517567	-0.037286
H67	H	1.733999	-0.522989	-0.169694
N68	N	1.693248	-0.448745	0.108261
H69	H	1.691161	-0.544336	0.108370
H70	H	1.748652	-0.427959	0.044141
H71	H	0.905036	0.022128	0.106723
N72	N	1.107862	0.201410	0.202576
H73	H	1.157006	0.275048	0.182288
H74	H	1.026567	0.235344	0.246286
H75	H	1.309904	-0.403790	-0.073564
N76	N	1.278320	-0.401381	0.095948
H77	H	1.330540	-0.461503	0.139861
H78	H	1.247643	-0.320436	0.141419
H79	H	1.502976	-0.407669	0.178349
N80	N	1.701026	-0.209197	0.107019
H81	H	1.725760	-0.160629	0.043060
H82	H	1.710032	-0.155518	0.175380
N83	N	1.493551	-0.174516	0.202570
H84	H	1.422941	-0.110672	0.182280
H85	H	1.455666	-0.240788	0.246298
N86	N	1.526596	-0.452882	-0.203481
H87	H	1.449975	-0.500174	-0.185409
H88	H	1.500322	-0.379052	-0.247748
