data_functionalizedCrystal
_audit_creation_method	'MofGen! by Chris Wilmer'
_symmetry_space_group_name_H-M	'P1'
_symmetry_Int_Tables_number	1
_symmetry_cell_setting	triclinic
loop_
_symmetry_equiv_pos_as_xyz
  x,y,z
_cell_length_a	6.817900
_cell_length_b	13.466082
_cell_length_c	12.908943
_cell_angle_alpha	94.181716
_cell_angle_beta	100.860631
_cell_angle_gamma	111.116375
loop_
_atom_site_label
_atom_site_type_symbol
_atom_site_fract_x
_atom_site_fract_y
_atom_site_fract_z
V1	V	-4.035857	-0.146102	-0.329636
O2	O	-3.982033	0.008389	-0.322370
O3	O	-4.026901	-0.291013	-0.328334
O4	O	-3.973361	-0.143254	-0.472967
O5	O	-4.035944	-0.140392	-0.176736
V6	V	-4.516200	-0.127694	-0.311232
O7	O	-4.304090	-0.186482	-0.370006
O8	O	-4.698164	-0.087315	-0.270862
O9	O	-4.301949	0.017216	-0.312534
O10	O	-4.687421	-0.282186	-0.318497
O11	O	-4.633510	-0.133405	-0.464131
O12	O	-4.355490	-0.130542	-0.167901
C13	C	-3.881954	-0.326358	-0.323379
C14	C	-3.955825	-0.444820	-0.323270
C15	C	-3.728409	-0.656611	-0.312452
C16	C	-3.797808	-0.767916	-0.312349
C17	C	-4.164017	-0.778737	-0.322954
C18	C	-4.094618	-0.667432	-0.323057
C19	C	-3.876810	-0.606372	-0.317807
C20	C	-3.807416	-0.495066	-0.317918
C21	C	-4.173621	-0.505888	-0.328515
C22	C	-4.243019	-0.617193	-0.328412
C23	C	-3.813657	-0.137876	-0.507872
C24	C	-3.844104	-0.136506	-0.625052
C25	C	-4.267447	-0.144507	-0.856051
C26	C	-4.296064	-0.143221	-0.966152
C27	C	-3.929954	-0.132639	-0.955357
C28	C	-3.901337	-0.133926	-0.845255
C29	C	-4.070092	-0.139861	-0.795607
C30	C	-4.041477	-0.141155	-0.685504
C31	C	-3.675364	-0.130566	-0.674710
C32	C	-3.703982	-0.129280	-0.784811
C33	C	-4.110240	0.052555	-0.317485
C34	C	-4.015607	0.171016	-0.317601
C35	C	-4.178537	-0.135924	-0.132991
C36	C	-4.127327	-0.137289	-0.015809
H37	H	-4.420358	-0.666922	-0.332683
H38	H	-3.514663	-0.126788	-0.625485
H39	H	-3.630070	-0.445354	-0.313650
H40	H	-3.566591	-0.124444	-0.825250
H41	H	-4.294457	-0.464972	-0.332878
H42	H	-4.341355	-0.828471	-0.327229
O43	O	-3.653907	-0.816862	-0.307296
C44	C	-3.553183	-0.950292	-0.392897
C45	C	-3.716350	-0.894969	-0.398746
H46	H	-3.603584	-1.013437	-0.466835
H47	H	-3.549462	-0.990828	-0.318442
H48	H	-3.385599	-0.887501	-0.389111
H49	H	-3.884015	-0.957693	-0.402573
H50	H	-3.719882	-0.854411	-0.473189
O51	O	-4.487946	-0.147935	-1.024857
C52	C	-4.871666	-0.249254	-1.082636
C53	C	-4.654492	-0.244062	-1.016130
H54	H	-5.006382	-0.326955	-1.075586
H55	H	-4.863303	-0.247390	-1.169885
H56	H	-4.906102	-0.177208	-1.051611
H57	H	-4.619923	-0.316093	-1.047062
H58	H	-4.662964	-0.245874	-0.928892
O59	O	-4.205457	-0.147109	-0.637254
C60	C	-4.447583	-0.247351	-0.534075
C61	C	-4.261908	-0.240759	-0.588689
H62	H	-4.493250	-0.323050	-0.494777
H63	H	-4.593666	-0.250519	-0.596159
H64	H	-4.393181	-0.173310	-0.470789
H65	H	-4.316105	-0.314782	-0.651968
H66	H	-4.115869	-0.237538	-0.526542
H67	H	-4.404862	-0.149351	-0.815628
O68	O	-3.516752	-0.597309	-0.307168
C69	C	-3.148964	-0.539960	-0.206337
C70	C	-3.388589	-0.607141	-0.212174
H71	H	-3.045273	-0.547904	-0.129551
H72	H	-3.124706	-0.451751	-0.207258
H73	H	-3.099505	-0.570553	-0.277933
H74	H	-3.438210	-0.576642	-0.140593
H75	H	-3.412716	-0.695340	-0.211304
O76	O	-3.766110	-0.126727	-1.003696
C77	C	-3.523859	-0.026398	-1.106778
C78	C	-3.709441	-0.032975	-1.052098
H79	H	-3.477954	0.049406	-1.145905
H80	H	-3.578182	-0.100347	-1.170172
H81	H	-3.377934	-0.023352	-1.044661
H82	H	-3.855435	-0.035988	-1.114136
H83	H	-3.654941	0.040972	-0.988684
