data_functionalizedCrystal
_audit_creation_method	'MofGen! by Chris Wilmer'
_symmetry_space_group_name_H-M	'P1'
_symmetry_Int_Tables_number	1
_symmetry_cell_setting	triclinic
loop_
_symmetry_equiv_pos_as_xyz
  x,y,z
_cell_length_a	12.645330
_cell_length_b	17.077404
_cell_length_c	17.077404
_cell_angle_alpha	89.991486
_cell_angle_beta	90.006533
_cell_angle_gamma	89.985240
loop_
_atom_site_label
_atom_site_type_symbol
_atom_site_fract_x
_atom_site_fract_y
_atom_site_fract_z
Zn1	Zn	-0.422306	-1.199996	0.443871
Zn2	Zn	0.077694	-0.699996	0.943871
Zn3	Zn	-0.599537	-1.199941	0.312615
Zn4	Zn	-0.099537	-0.699941	0.812615
Zn5	Zn	-0.422279	-1.068754	0.312618
Zn6	Zn	0.077721	-0.568754	0.812618
Zn7	Zn	-0.599519	-1.068708	0.443838
Zn8	Zn	-0.099519	-0.568708	0.943838
O9	O	-0.510910	-1.134350	0.378235
O10	O	-0.010910	-0.634350	0.878235
O11	O	-0.445835	-1.309836	0.426472
O12	O	0.054165	-0.809836	0.926472
O13	O	-0.576020	-1.182535	0.202768
O14	O	-0.076020	-0.682535	0.702768
O15	O	-0.273935	-1.086206	0.330044
O16	O	0.226065	-0.586206	0.830044
O17	O	-0.576046	-1.309795	0.330038
O18	O	-0.076046	-0.809795	0.830038
O19	O	-0.273955	-1.182629	0.426475
O20	O	0.226045	-0.682629	0.926475
O21	O	-0.445789	-1.086152	0.202771
O22	O	0.054211	-0.586152	0.702771
O23	O	-0.445771	-0.958901	0.330012
O24	O	0.054229	-0.458901	0.830012
O25	O	-0.576014	-1.086128	0.553689
O26	O	-0.076014	-0.586128	1.053689
O27	O	-0.575988	-0.958867	0.426419
O28	O	-0.075988	-0.458867	0.926419
O29	O	-0.445817	-1.182585	0.553713
O30	O	0.054183	-0.682585	1.053713
O31	O	-0.747882	-1.182490	0.330007
O32	O	-0.247882	-0.682490	0.830007
O33	O	-0.747868	-1.086074	0.426416
O34	O	-0.247868	-0.586074	0.926416
C35	C	-0.510876	-0.930402	0.378213
C36	C	-0.010876	-0.430402	0.878213
C37	C	-0.510887	-0.843152	0.378222
C38	C	-0.010887	-0.343152	0.878222
C39	C	-0.443205	-0.802184	0.428510
C40	C	0.056795	-0.302184	0.928510
C41	C	-0.443210	-0.720203	0.428512
C42	C	0.056790	-0.220203	0.928512
C43	C	-0.510903	-0.679193	0.378229
C44	C	-0.010903	-0.179193	0.878229
C45	C	-0.578587	-0.720167	0.327935
C46	C	-0.078587	-0.220167	0.827935
C47	C	-0.578576	-0.802146	0.327930
C48	C	-0.078576	-0.302146	0.827930
C49	C	-0.578607	-0.549297	0.327950
C50	C	-0.078607	-0.049297	0.827950
C51	C	-0.578620	-0.467312	0.327956
C52	C	-0.078620	0.032688	0.827956
C53	C	-0.443242	-0.467354	0.428533
C54	C	0.056758	0.032646	0.928533
C55	C	-0.443231	-0.549333	0.428528
C56	C	0.056769	-0.049333	0.928528
C57	C	-0.510917	-0.590302	0.378235
C58	C	-0.010917	-0.090302	0.878235
C59	C	-0.786340	-1.134292	0.378224
C60	C	-0.286340	-0.634292	0.878224
C61	C	-0.904170	-1.134340	0.378246
C62	C	-0.404170	-0.634340	0.878246
C63	C	-1.071770	-1.073934	0.439084
C64	C	-0.571770	-0.573934	0.939084
C65	C	-0.949210	-1.073625	0.438888
C66	C	-0.449210	-0.573625	0.938888
C67	C	-0.948727	-1.111964	0.295519
C68	C	-0.448727	-0.611964	0.795519
C69	C	-1.071325	-1.111595	0.295888
C70	C	-0.571325	-0.611595	0.795888
C71	C	-1.071274	-1.217490	0.399464
C72	C	-0.571274	-0.717490	0.899464
C73	C	-0.948668	-1.216980	0.401273
C74	C	-0.448668	-0.716980	0.901273
C75	C	-0.234405	-1.134429	0.378264
C76	C	0.265595	-0.634429	0.878264
C77	C	-0.116575	-1.134462	0.378276
C78	C	0.383425	-0.634462	0.878276
C79	C	-0.510917	-1.134357	0.582980
C80	C	-0.010917	-0.634357	1.082980
C81	C	-0.510919	-1.134360	0.670229
C82	C	-0.010919	-0.634360	1.170229
C83	C	-0.510940	-0.339094	0.378252
C84	C	-0.010940	0.160906	0.878252
C85	C	-0.510939	-0.426344	0.378245
C86	C	-0.010939	0.073656	0.878245
C87	C	-0.443137	-1.184579	0.711233
C88	C	0.056863	-0.684579	1.211233
C89	C	-0.443135	-1.184573	0.793214
C90	C	0.056865	-0.684573	1.293214
C91	C	-0.510923	-1.134351	0.834189
C92	C	-0.010923	-0.634351	1.334189
C93	C	-0.578708	-1.084126	0.793179
C94	C	-0.078708	-0.584126	1.293179
C95	C	-0.578704	-1.084129	0.711200
C96	C	-0.078704	-0.584129	1.211200
C97	C	-0.578715	-1.084124	0.964049
C98	C	-0.078715	-0.584124	1.464049
C99	C	-0.578722	-1.084122	1.046034
C100	C	-0.078722	-0.584122	1.546034
C101	C	-0.443147	-1.184568	1.046063
C102	C	0.056853	-0.684568	1.546063
C103	C	-0.443142	-1.184571	0.964084
C104	C	0.056858	-0.684571	1.464084
C105	C	-0.510930	-1.134347	0.923080
C106	C	-0.010930	-0.634347	1.423080
C107	C	-0.510931	-1.134338	1.174288
C108	C	-0.010931	-0.634338	1.674288
C109	C	-0.510939	-1.134341	1.087038
C110	C	-0.010939	-0.634341	1.587038
H111	H	-0.633698	-0.686769	0.286990
H112	H	-0.133698	-0.186769	0.786990
C113	C	-1.111537	-1.092659	0.522226
C114	C	-0.611537	-0.592659	1.022226
H115	H	-1.083602	-1.055464	0.558042
H116	H	-0.583602	-0.555464	1.058042
H117	H	-1.186585	-1.090382	0.523158
H118	H	-0.686585	-0.590382	1.023158
H119	H	-1.088942	-1.143685	0.536777
H120	H	-0.588942	-0.643685	1.036777
C121	C	-0.368747	-0.847292	0.483823
C122	C	0.131253	-0.347292	0.983823
H123	H	-0.378439	-0.901984	0.476625
H124	H	0.121561	-0.401984	0.976625
H125	H	-0.297497	-0.833863	0.472427
H126	H	0.202503	-0.333863	0.972427
H127	H	-0.384385	-0.833864	0.536549
H128	H	0.115615	-0.333864	1.036549
H129	H	-0.633688	-0.835501	0.286979
H130	H	-0.133688	-0.335501	0.786979
C131	C	-0.907377	-1.030823	0.270835
C132	C	-0.407377	-0.530823	0.770835
H133	H	-0.862973	-1.010474	0.310826
H134	H	-0.362973	-0.510474	0.810826
H135	H	-0.868231	-1.035519	0.223595
H136	H	-0.368231	-0.535519	0.723595
H137	H	-0.965429	-0.996409	0.262871
H138	H	-0.465429	-0.496409	0.762871
C139	C	-1.110306	-1.278393	0.339583
C140	C	-0.610306	-0.778393	0.839583
H141	H	-1.154011	-1.253388	0.301857
H142	H	-0.654011	-0.753388	0.801857
H143	H	-1.051275	-1.301526	0.314117
H144	H	-0.551275	-0.801526	0.814117
H145	H	-1.149706	-1.317824	0.365816
H146	H	-0.649706	-0.817824	0.865816
H147	H	-0.387940	-1.225479	0.677877
H148	H	0.112060	-0.725479	1.177877
H149	H	-0.387943	-1.225468	0.826596
H150	H	0.112057	-0.725468	1.326596
H151	H	-0.387950	-1.225471	0.930724
H152	H	0.112050	-0.725471	1.430724
H153	H	-0.919545	-1.233855	0.462155
H154	H	-0.419545	-0.733855	0.962155
H155	H	-1.102660	-1.012765	0.425226
H156	H	-0.602660	-0.512765	0.925226
H157	H	-0.387951	-1.225460	1.079452
H158	H	0.112049	-0.725460	1.579452
C159	C	-0.908506	-1.092506	0.521759
C160	C	-0.408506	-0.592506	1.021759
H161	H	-0.966897	-1.100433	0.555848
H162	H	-0.466897	-0.600433	1.055848
H163	H	-0.866560	-1.138632	0.520160
H164	H	-0.366560	-0.638632	1.020160
H165	H	-0.866964	-1.050080	0.540404
H166	H	-0.366964	-0.550080	1.040404
C167	C	-0.653314	-1.028905	0.918946
C168	C	-0.153314	-0.528905	1.418946
H169	H	-0.693705	-0.999007	0.955089
H170	H	-0.193705	-0.499007	1.455089
H171	H	-0.612790	-0.994707	0.886950
H172	H	-0.112790	-0.494707	1.386950
H173	H	-0.699499	-1.058951	0.886982
H174	H	-0.199499	-0.558951	1.386982
C175	C	-1.112968	-1.245069	0.479573
C176	C	-0.612968	-0.745069	0.979573
H177	H	-1.158398	-1.206199	0.500848
H178	H	-0.658398	-0.706199	1.000848
H179	H	-1.151096	-1.292566	0.473220
H180	H	-0.651096	-0.792566	0.973220
H181	H	-1.055127	-1.253436	0.514081
H182	H	-0.555127	-0.753436	1.014081
H183	H	-0.633918	-1.043225	1.079393
H184	H	-0.133918	-0.543225	1.579393
H185	H	-0.919965	-1.012072	0.424851
H186	H	-0.419965	-0.512072	0.924851
C187	C	-0.653290	-1.028908	0.666096
C188	C	-0.153290	-0.528908	1.166096
H189	H	-0.693677	-0.999007	0.702239
H190	H	-0.193677	-0.499007	1.202239
H191	H	-0.612752	-0.994714	0.634105
H192	H	-0.112752	-0.494714	1.134105
H193	H	-0.699480	-1.058944	0.634126
H194	H	-0.199480	-0.558944	1.134126
C195	C	-1.110075	-1.029605	0.271649
C196	C	-0.610075	-0.529605	0.771649
H197	H	-1.050889	-0.996834	0.261673
H198	H	-0.550889	-0.496834	0.761673
H199	H	-1.151930	-1.033637	0.225632
H200	H	-0.651930	-0.533637	0.725632
H201	H	-1.151294	-1.007751	0.312700
H202	H	-0.651294	-0.507751	0.812700
C203	C	-1.111372	-1.168552	0.232587
C204	C	-0.611372	-0.668552	0.732587
H205	H	-1.052711	-1.191809	0.206755
H206	H	-0.552711	-0.691809	0.706755
H207	H	-1.153057	-1.208253	0.256351
H208	H	-0.653057	-0.708253	0.756351
H209	H	-1.153040	-1.140720	0.195586
H210	H	-0.653040	-0.640720	0.695586
H211	H	-0.919551	-1.154653	0.248974
H212	H	-0.419551	-0.654653	0.748974
C213	C	-0.907250	-1.281114	0.345803
C214	C	-0.407250	-0.781114	0.845803
H215	H	-0.935386	-1.330375	0.361092
H216	H	-0.435386	-0.830375	0.861092
H217	H	-0.928563	-1.269657	0.293704
H218	H	-0.428563	-0.769657	0.793704
H219	H	-0.832243	-1.282883	0.348400
H220	H	-0.332243	-0.782883	0.848400
C221	C	-0.368763	-0.675142	0.483831
C222	C	0.131237	-0.175142	0.983831
H223	H	-0.328457	-0.711307	0.513784
H224	H	0.171543	-0.211307	1.013784
H225	H	-0.322510	-0.643162	0.453866
H226	H	0.177490	-0.143162	0.953866
H227	H	-0.409400	-0.643163	0.517986
H228	H	0.090600	-0.143163	1.017986
C229	C	-0.368787	-0.422293	0.483852
C230	C	0.131213	0.077707	0.983852
H231	H	-0.378478	-0.367596	0.476649
H232	H	0.121522	0.132404	0.976649
H233	H	-0.384417	-0.435737	0.536573
H234	H	0.115583	0.064263	1.036573
H235	H	-0.297529	-0.435736	0.472452
H236	H	0.202471	0.064264	0.972452
H237	H	-0.633898	-1.043232	0.826548
H238	H	-0.133898	-0.543232	1.326548
H239	H	-0.633742	-0.433923	0.287012
H240	H	-0.133742	0.066077	0.787012
H241	H	-0.388116	-0.582722	0.469477
H242	H	0.111884	-0.082722	0.969477
C243	C	-0.653071	-0.594360	0.272637
C244	C	-0.153071	-0.094360	0.772637
H245	H	-0.693399	-0.558196	0.242698
H246	H	-0.193399	-0.058196	0.742698
H247	H	-0.612453	-0.626343	0.238481
H248	H	-0.112453	-0.126343	0.738481
H249	H	-0.699320	-0.626336	0.302618
H250	H	-0.199320	-0.126336	0.802618
